6fnk.A
     RDKit          3D

 27 29  0  0  0  0  0  0  0  0999 V2000
    2.9034   16.1161   40.7342 C   0  0  0  0  0  0  0  0  0  0  0  0
    3.3991   14.8730   40.3406 C   0  0  0  0  0  0  0  0  0  0  0  0
    3.2111   13.7637   41.1521 C   0  0  0  0  0  0  0  0  0  0  0  0
    2.5220   13.8922   42.3612 N   0  0  0  0  0  0  0  0  0  0  0  0
    2.0259   15.1442   42.7552 C   0  0  0  0  0  0  0  0  0  0  0  0
    2.2158   16.2597   41.9417 C   0  0  0  0  0  0  0  0  0  0  0  0
    1.7222   17.5068   42.3382 C   0  0  0  0  0  0  0  0  0  0  0  0
    2.0408   18.6212   41.6654 N   0  0  0  0  0  0  0  0  0  0  0  0
    0.9145   17.5957   43.3997 N   0  0  0  0  0  0  0  0  0  0  0  0
    0.4272   18.7780   43.8163 C   0  0  0  0  0  0  0  0  0  0  0  0
   -0.3708   19.1111   44.8422 N   0  0  0  0  0  0  0  0  0  0  0  0
   -0.9468   18.1844   45.8212 C   0  0  0  0  0  0  0  0  0  0  0  0
   -0.5738   20.3259   44.8557 N   0  0  0  0  0  0  0  0  0  0  0  0
    0.0681   20.8526   43.7999 C   0  0  0  0  0  0  0  0  0  0  0  0
    0.7283   19.8866   43.1473 C   0  0  0  0  0  0  0  0  0  0  0  0
    1.5428   19.8079   42.0593 C   0  0  0  0  0  0  0  0  0  0  0  0
    1.8732   20.9182   41.3561 N   0  0  0  0  0  0  0  0  0  0  0  0
    3.0555   16.9924   40.0870 H   0  0  0  0  0  0  0  0  0  0  0  0
    3.9387   14.7724   39.3873 H   0  0  0  0  0  0  0  0  0  0  0  0
    3.6041   12.7836   40.8441 H   0  0  0  0  0  0  0  0  0  0  0  0
    1.4860   15.2454   43.7082 H   0  0  0  0  0  0  0  0  0  0  0  0
   -0.7252   18.5408   46.8380 H   0  0  0  0  0  0  0  0  0  0  0  0
   -2.0365   18.1326   45.6801 H   0  0  0  0  0  0  0  0  0  0  0  0
   -0.5109   17.1844   45.6801 H   0  0  0  0  0  0  0  0  0  0  0  0
    0.0539   21.9149   43.5146 H   0  0  0  0  0  0  0  0  0  0  0  0
    1.5034   21.8366   41.6400 H   0  0  0  0  0  0  0  0  0  0  0  0
    2.4942   20.8437   40.5377 H   0  0  0  0  0  0  0  0  0  0  0  0
  1  2  2  0
  1  6  1  0
  2  3  1  0
  3  4  2  0
  4  5  1  0
  5  6  2  0
  6  7  1  0
  7  8  2  0
  7  9  1  0
  8 16  1  0
  9 10  2  0
 10 11  1  0
 10 15  1  0
 11 12  1  0
 11 13  1  0
 13 14  2  0
 14 15  1  0
 15 16  2  0
 16 17  1  0
  1 18  1  0
  2 19  1  0
  3 20  1  0
  5 21  1  0
 12 22  1  0
 12 23  1  0
 12 24  1  0
 14 25  1  0
 17 26  1  0
 17 27  1  0
M  END
>  <mol_id>  (1) 
2026-09-18-6fnk-s0-n100-r4-0001

>  <rmsd_to_ref>  (1) 
0.0

>  <pose_kind>  (1) 
native

$$$$
6fnk.A
     RDKit          3D

 27 29  0  0  0  0  0  0  0  0999 V2000
    2.4447   16.1964   40.4029 C   0  0  0  0  0  0  0  0  0  0  0  0
    2.9348   14.9821   39.9538 C   0  0  0  0  0  0  0  0  0  0  0  0
    2.9224   13.8406   40.7305 C   0  0  0  0  0  0  0  0  0  0  0  0
    2.4027   13.9291   41.9896 N   0  0  0  0  0  0  0  0  0  0  0  0
    1.9194   15.1057   42.4460 C   0  0  0  0  0  0  0  0  0  0  0  0
    1.9179   16.2597   41.6963 C   0  0  0  0  0  0  0  0  0  0  0  0
    1.3996   17.5130   42.1914 C   0  0  0  0  0  0  0  0  0  0  0  0
    1.4188   18.6175   41.4219 N   0  0  0  0  0  0  0  0  0  0  0  0
    0.8944   17.5398   43.4537 N   0  0  0  0  0  0  0  0  0  0  0  0
    0.3998   18.6842   43.9599 C   0  0  0  0  0  0  0  0  0  0  0  0
   -0.1558   19.0413   45.1344 N   0  0  0  0  0  0  0  0  0  0  0  0
   -0.3496   18.1100   46.2334 C   0  0  0  0  0  0  0  0  0  0  0  0
   -0.4806   20.3246   45.1199 N   0  0  0  0  0  0  0  0  0  0  0  0
   -0.1533   20.8761   43.9308 C   0  0  0  0  0  0  0  0  0  0  0  0
    0.4015   19.8406   43.2009 C   0  0  0  0  0  0  0  0  0  0  0  0
    0.9276   19.7614   41.9198 C   0  0  0  0  0  0  0  0  0  0  0  0
    0.9377   20.9544   41.1156 N   0  0  0  0  0  0  0  0  0  0  0  0
    2.4646   17.0840   39.7728 H   0  0  0  0  0  0  0  0  0  0  0  0
    3.3505   14.9208   38.9409 H   0  0  0  0  0  0  0  0  0  0  0  0
    3.3158   12.9346   40.3254 H   0  0  0  0  0  0  0  0  0  0  0  0
    1.5193   15.1013   43.4626 H   0  0  0  0  0  0  0  0  0  0  0  0
   -0.9925   18.5794   47.0286 H   0  0  0  0  0  0  0  0  0  0  0  0
    0.6182   17.7690   46.6191 H   0  0  0  0  0  0  0  0  0  0  0  0
   -0.9457   17.2182   45.9014 H   0  0  0  0  0  0  0  0  0  0  0  0
   -0.2825   21.8986   43.5908 H   0  0  0  0  0  0  0  0  0  0  0  0
    0.9860   20.8532   40.0700 H   0  0  0  0  0  0  0  0  0  0  0  0
    0.8975   21.8802   41.5809 H   0  0  0  0  0  0  0  0  0  0  0  0
  1  2  2  0
  1  6  1  0
  2  3  1  0
  3  4  2  0
  4  5  1  0
  5  6  2  0
  6  7  1  0
  7  8  2  0
  7  9  1  0
  8 16  1  0
  9 10  2  0
 10 11  1  0
 10 15  1  0
 11 12  1  0
 11 13  1  0
 13 14  2  0
 14 15  1  0
 15 16  2  0
 16 17  1  0
  1 18  1  0
  2 19  1  0
  3 20  1  0
  5 21  1  0
 12 22  1  0
 12 23  1  0
 12 24  1  0
 14 25  1  0
 17 26  1  0
 17 27  1  0
M  END
>  <mol_id>  (2) 
2026-09-18-6fnk-s0-n100-r4-0002

>  <rmsd_to_ref>  (2) 
0.5000000000049172

>  <pose_kind>  (2) 
conformer

$$$$
6fnk.A
     RDKit          3D

 27 29  0  0  0  0  0  0  0  0999 V2000
    3.4269   16.4445   41.1660 C   0  0  0  0  0  0  0  0  0  0  0  0
    4.0488   15.2291   40.8795 C   0  0  0  0  0  0  0  0  0  0  0  0
    3.7168   14.0934   41.6035 C   0  0  0  0  0  0  0  0  0  0  0  0
    2.7569   14.1674   42.6167 N   0  0  0  0  0  0  0  0  0  0  0  0
    2.1342   15.3916   42.9037 C   0  0  0  0  0  0  0  0  0  0  0  0
    2.4683   16.5337   42.1783 C   0  0  0  0  0  0  0  0  0  0  0  0
    1.8476   17.7530   42.4683 C   0  0  0  0  0  0  0  0  0  0  0  0
    2.2734   18.8946   41.9100 N   0  0  0  0  0  0  0  0  0  0  0  0
    0.8090   17.7874   43.3092 N   0  0  0  0  0  0  0  0  0  0  0  0
    0.1922   18.9417   43.6191 C   0  0  0  0  0  0  0  0  0  0  0  0
   -0.8379   19.2214   44.4321 N   0  0  0  0  0  0  0  0  0  0  0  0
   -1.5932   18.2509   45.2300 C   0  0  0  0  0  0  0  0  0  0  0  0
   -1.0846   20.4280   44.4184 N   0  0  0  0  0  0  0  0  0  0  0  0
   -0.2319   21.0031   43.5545 C   0  0  0  0  0  0  0  0  0  0  0  0
    0.6003   20.0768   43.0602 C   0  0  0  0  0  0  0  0  0  0  0  0
    1.6514   20.0535   42.1953 C   0  0  0  0  0  0  0  0  0  0  0  0
    2.0960   21.1921   41.6102 N   0  0  0  0  0  0  0  0  0  0  0  0
    3.6941   17.3420   40.5889 H   0  0  0  0  0  0  0  0  0  0  0  0
    4.8019   15.1714   40.0798 H   0  0  0  0  0  0  0  0  0  0  0  0
    4.2087   13.1351   41.3804 H   0  0  0  0  0  0  0  0  0  0  0  0
    1.3808   15.4500   43.7030 H   0  0  0  0  0  0  0  0  0  0  0  0
   -1.6321   18.5877   46.2764 H   0  0  0  0  0  0  0  0  0  0  0  0
   -2.6158   18.1669   44.8335 H   0  0  0  0  0  0  0  0  0  0  0  0
   -1.0983   17.2698   45.1788 H   0  0  0  0  0  0  0  0  0  0  0  0
   -0.2188   22.0714   43.2927 H   0  0  0  0  0  0  0  0  0  0  0  0
    1.6347   22.0901   41.8144 H   0  0  0  0  0  0  0  0  0  0  0  0
    2.8953   21.1595   40.9614 H   0  0  0  0  0  0  0  0  0  0  0  0
  1  2  2  0
  1  6  1  0
  2  3  1  0
  3  4  2  0
  4  5  1  0
  5  6  2  0
  6  7  1  0
  7  8  2  0
  7  9  1  0
  8 16  1  0
  9 10  2  0
 10 11  1  0
 10 15  1  0
 11 12  1  0
 11 13  1  0
 13 14  2  0
 14 15  1  0
 15 16  2  0
 16 17  1  0
  1 18  1  0
  2 19  1  0
  3 20  1  0
  5 21  1  0
 12 22  1  0
 12 23  1  0
 12 24  1  0
 14 25  1  0
 17 26  1  0
 17 27  1  0
M  END
>  <mol_id>  (3) 
2026-09-18-6fnk-s0-n100-r4-0003

>  <rmsd_to_ref>  (3) 
0.5459183673493152

>  <pose_kind>  (3) 
rigid

$$$$
6fnk.A
     RDKit          3D

 27 29  0  0  0  0  0  0  0  0999 V2000
    3.2986   16.5629   40.9120 C   0  0  0  0  0  0  0  0  0  0  0  0
    4.0120   15.4253   40.5631 C   0  0  0  0  0  0  0  0  0  0  0  0
    3.7966   14.2278   41.2423 C   0  0  0  0  0  0  0  0  0  0  0  0
    2.8807   14.1798   42.2520 N   0  0  0  0  0  0  0  0  0  0  0  0
    2.1944   15.2888   42.5823 C   0  0  0  0  0  0  0  0  0  0  0  0
    2.3628   16.5029   41.9478 C   0  0  0  0  0  0  0  0  0  0  0  0
    1.6207   17.6866   42.3107 C   0  0  0  0  0  0  0  0  0  0  0  0
    1.7899   18.8762   41.6845 N   0  0  0  0  0  0  0  0  0  0  0  0
    0.7200   17.5767   43.3270 N   0  0  0  0  0  0  0  0  0  0  0  0
   -0.0204   18.6242   43.7387 C   0  0  0  0  0  0  0  0  0  0  0  0
   -0.9633   18.7995   44.6945 N   0  0  0  0  0  0  0  0  0  0  0  0
   -1.4204   17.7260   45.5892 C   0  0  0  0  0  0  0  0  0  0  0  0
   -1.3788   20.0622   44.6743 N   0  0  0  0  0  0  0  0  0  0  0  0
   -0.7273   20.7501   43.7128 C   0  0  0  0  0  0  0  0  0  0  0  0
    0.1462   19.8518   43.1012 C   0  0  0  0  0  0  0  0  0  0  0  0
    1.0596   19.9595   42.0721 C   0  0  0  0  0  0  0  0  0  0  0  0
    1.2391   21.1979   41.4166 N   0  0  0  0  0  0  0  0  0  0  0  0
    3.4812   17.4913   40.3686 H   0  0  0  0  0  0  0  0  0  0  0  0
    4.7457   15.4600   39.7557 H   0  0  0  0  0  0  0  0  0  0  0  0
    4.3452   13.3391   40.9790 H   0  0  0  0  0  0  0  0  0  0  0  0
    1.4803   15.1938   43.3909 H   0  0  0  0  0  0  0  0  0  0  0  0
   -1.5111   16.8216   44.9594 H   0  0  0  0  0  0  0  0  0  0  0  0
   -0.5997   17.5303   46.3242 H   0  0  0  0  0  0  0  0  0  0  0  0
   -2.3258   18.0305   46.1135 H   0  0  0  0  0  0  0  0  0  0  0  0
   -0.8570   21.7978   43.4631 H   0  0  0  0  0  0  0  0  0  0  0  0
    1.9774   21.2959   40.6723 H   0  0  0  0  0  0  0  0  0  0  0  0
    0.6563   22.0129   41.6556 H   0  0  0  0  0  0  0  0  0  0  0  0
  1  2  2  0
  1  6  1  0
  2  3  1  0
  3  4  2  0
  4  5  1  0
  5  6  2  0
  6  7  1  0
  7  8  2  0
  7  9  1  0
  8 16  1  0
  9 10  2  0
 10 11  1  0
 10 15  1  0
 11 12  1  0
 11 13  1  0
 13 14  2  0
 14 15  1  0
 15 16  2  0
 16 17  1  0
  1 18  1  0
  2 19  1  0
  3 20  1  0
  5 21  1  0
 12 22  1  0
 12 23  1  0
 12 24  1  0
 14 25  1  0
 17 26  1  0
 17 27  1  0
M  END
>  <mol_id>  (4) 
2026-09-18-6fnk-s0-n100-r4-0004

>  <rmsd_to_ref>  (4) 
0.5918367347019827

>  <pose_kind>  (4) 
conformer

$$$$
6fnk.A
     RDKit          3D

 27 29  0  0  0  0  0  0  0  0999 V2000
    2.9422   15.6797   41.3543 C   0  0  0  0  0  0  0  0  0  0  0  0
    3.3261   14.3483   41.1934 C   0  0  0  0  0  0  0  0  0  0  0  0
    2.9314   13.3964   42.1221 C   0  0  0  0  0  0  0  0  0  0  0  0
    2.1463   13.7719   43.2157 N   0  0  0  0  0  0  0  0  0  0  0  0
    1.7630   15.1121   43.3757 C   0  0  0  0  0  0  0  0  0  0  0  0
    2.1606   16.0696   42.4444 C   0  0  0  0  0  0  0  0  0  0  0  0
    1.7789   17.4052   42.6078 C   0  0  0  0  0  0  0  0  0  0  0  0
    2.2897   18.3695   41.8298 N   0  0  0  0  0  0  0  0  0  0  0  0
    0.8866   17.7318   43.5481 N   0  0  0  0  0  0  0  0  0  0  0  0
    0.5016   19.0060   43.7409 C   0  0  0  0  0  0  0  0  0  0  0  0
   -0.3492   19.5665   44.6139 N   0  0  0  0  0  0  0  0  0  0  0  0
   -1.1227   18.8584   45.6382 C   0  0  0  0  0  0  0  0  0  0  0  0
   -0.4098   20.7841   44.4380 N   0  0  0  0  0  0  0  0  0  0  0  0
    0.3898   21.0807   43.4002 C   0  0  0  0  0  0  0  0  0  0  0  0
    0.9941   19.9669   42.9654 C   0  0  0  0  0  0  0  0  0  0  0  0
    1.8969   19.6457   41.9984 C   0  0  0  0  0  0  0  0  0  0  0  0
    2.4219   20.6002   41.1924 N   0  0  0  0  0  0  0  0  0  0  0  0
    3.2583   16.4304   40.6150 H   0  0  0  0  0  0  0  0  0  0  0  0
    3.9415   14.0534   40.3306 H   0  0  0  0  0  0  0  0  0  0  0  0
    3.2360   12.3468   41.9979 H   0  0  0  0  0  0  0  0  0  0  0  0
    1.1474   15.4077   44.2381 H   0  0  0  0  0  0  0  0  0  0  0  0
   -0.9623   19.3375   46.6153 H   0  0  0  0  0  0  0  0  0  0  0  0
   -2.1918   18.8967   45.3822 H   0  0  0  0  0  0  0  0  0  0  0  0
   -0.7944   17.8096   45.6858 H   0  0  0  0  0  0  0  0  0  0  0  0
    0.5275   22.0849   42.9727 H   0  0  0  0  0  0  0  0  0  0  0  0
    2.1353   21.5832   41.3040 H   0  0  0  0  0  0  0  0  0  0  0  0
    3.1074   20.3427   40.4681 H   0  0  0  0  0  0  0  0  0  0  0  0
  1  2  2  0
  1  6  1  0
  2  3  1  0
  3  4  2  0
  4  5  1  0
  5  6  2  0
  6  7  1  0
  7  8  2  0
  7  9  1  0
  8 16  1  0
  9 10  2  0
 10 11  1  0
 10 15  1  0
 11 12  1  0
 11 13  1  0
 13 14  2  0
 14 15  1  0
 15 16  2  0
 16 17  1  0
  1 18  1  0
  2 19  1  0
  3 20  1  0
  5 21  1  0
 12 22  1  0
 12 23  1  0
 12 24  1  0
 14 25  1  0
 17 26  1  0
 17 27  1  0
M  END
>  <mol_id>  (5) 
2026-09-18-6fnk-s0-n100-r4-0005

>  <rmsd_to_ref>  (5) 
0.6377551020454998

>  <pose_kind>  (5) 
rigid

$$$$
6fnk.A
     RDKit          3D

 27 29  0  0  0  0  0  0  0  0999 V2000
    3.3395   16.3654   41.1586 C   0  0  0  0  0  0  0  0  0  0  0  0
    4.0960   15.2381   40.8593 C   0  0  0  0  0  0  0  0  0  0  0  0
    3.8049   14.0819   41.5562 C   0  0  0  0  0  0  0  0  0  0  0  0
    2.8433   14.0041   42.4895 N   0  0  0  0  0  0  0  0  0  0  0  0
    2.1002   15.1095   42.7843 C   0  0  0  0  0  0  0  0  0  0  0  0
    2.3403   16.2997   42.1228 C   0  0  0  0  0  0  0  0  0  0  0  0
    1.5663   17.5130   42.4072 C   0  0  0  0  0  0  0  0  0  0  0  0
    1.7889   18.6796   41.7709 N   0  0  0  0  0  0  0  0  0  0  0  0
    0.5899   17.4236   43.3586 N   0  0  0  0  0  0  0  0  0  0  0  0
   -0.1615   18.5216   43.6638 C   0  0  0  0  0  0  0  0  0  0  0  0
   -1.1578   18.6998   44.5361 N   0  0  0  0  0  0  0  0  0  0  0  0
   -1.7583   17.7370   45.4534 C   0  0  0  0  0  0  0  0  0  0  0  0
   -1.5584   19.9540   44.4542 N   0  0  0  0  0  0  0  0  0  0  0  0
   -0.8275   20.6086   43.5269 C   0  0  0  0  0  0  0  0  0  0  0  0
    0.0709   19.7196   43.0069 C   0  0  0  0  0  0  0  0  0  0  0  0
    1.0618   19.7876   42.0495 C   0  0  0  0  0  0  0  0  0  0  0  0
    1.2920   21.0048   41.3876 N   0  0  0  0  0  0  0  0  0  0  0  0
    3.5543   17.2874   40.6192 H   0  0  0  0  0  0  0  0  0  0  0  0
    4.8712   15.3009   40.1069 H   0  0  0  0  0  0  0  0  0  0  0  0
    4.4085   13.2107   41.3071 H   0  0  0  0  0  0  0  0  0  0  0  0
    1.3311   15.0450   43.5315 H   0  0  0  0  0  0  0  0  0  0  0  0
   -2.8720   17.7745   45.3968 H   0  0  0  0  0  0  0  0  0  0  0  0
   -1.4035   16.7242   45.2093 H   0  0  0  0  0  0  0  0  0  0  0  0
   -1.4723   18.0318   46.4879 H   0  0  0  0  0  0  0  0  0  0  0  0
   -0.9422   21.6484   43.2544 H   0  0  0  0  0  0  0  0  0  0  0  0
    1.8806   20.9913   40.5202 H   0  0  0  0  0  0  0  0  0  0  0  0
    0.8981   21.8932   41.7359 H   0  0  0  0  0  0  0  0  0  0  0  0
  1  2  2  0
  1  6  1  0
  2  3  1  0
  3  4  2  0
  4  5  1  0
  5  6  2  0
  6  7  1  0
  7  8  2  0
  7  9  1  0
  8 16  1  0
  9 10  2  0
 10 11  1  0
 10 15  1  0
 11 12  1  0
 11 13  1  0
 13 14  2  0
 14 15  1  0
 15 16  2  0
 16 17  1  0
  1 18  1  0
  2 19  1  0
  3 20  1  0
  5 21  1  0
 12 22  1  0
 12 23  1  0
 12 24  1  0
 14 25  1  0
 17 26  1  0
 17 27  1  0
M  END
>  <mol_id>  (6) 
2026-09-18-6fnk-s0-n100-r4-0006

>  <rmsd_to_ref>  (6) 
0.6836734693940639

>  <pose_kind>  (6) 
conformer

$$$$
6fnk.A
     RDKit          3D

 27 29  0  0  0  0  0  0  0  0999 V2000
    2.8106   15.8258   40.8152 C   0  0  0  0  0  0  0  0  0  0  0  0
    3.3003   14.5265   40.6814 C   0  0  0  0  0  0  0  0  0  0  0  0
    3.3190   13.6769   41.7779 C   0  0  0  0  0  0  0  0  0  0  0  0
    2.8437   14.1226   43.0144 N   0  0  0  0  0  0  0  0  0  0  0  0
    2.3532   15.4306   43.1462 C   0  0  0  0  0  0  0  0  0  0  0  0
    2.3357   16.2856   42.0458 C   0  0  0  0  0  0  0  0  0  0  0  0
    1.8484   17.5896   42.1809 C   0  0  0  0  0  0  0  0  0  0  0  0
    1.9818   18.4827   41.1906 N   0  0  0  0  0  0  0  0  0  0  0  0
    1.2332   17.9563   43.3097 N   0  0  0  0  0  0  0  0  0  0  0  0
    0.7592   19.2034   43.4798 C   0  0  0  0  0  0  0  0  0  0  0  0
    0.1335   19.7956   44.5084 N   0  0  0  0  0  0  0  0  0  0  0  0
   -0.2106   19.1642   45.7858 C   0  0  0  0  0  0  0  0  0  0  0  0
   -0.1326   20.9671   44.2364 N   0  0  0  0  0  0  0  0  0  0  0  0
    0.2856   21.1932   42.9802 C   0  0  0  0  0  0  0  0  0  0  0  0
    0.8764   20.0918   42.4978 C   0  0  0  0  0  0  0  0  0  0  0  0
    1.4931   19.7278   41.3400 C   0  0  0  0  0  0  0  0  0  0  0  0
    1.6332   20.6087   40.3198 N   0  0  0  0  0  0  0  0  0  0  0  0
    2.7983   16.4953   39.9425 H   0  0  0  0  0  0  0  0  0  0  0  0
    3.6713   14.1757   39.7071 H   0  0  0  0  0  0  0  0  0  0  0  0
    3.7076   12.6531   41.6743 H   0  0  0  0  0  0  0  0  0  0  0  0
    1.9818   15.7819   44.1202 H   0  0  0  0  0  0  0  0  0  0  0  0
    0.1633   19.7843   46.6139 H   0  0  0  0  0  0  0  0  0  0  0  0
   -1.3035   19.0677   45.8645 H   0  0  0  0  0  0  0  0  0  0  0  0
    0.2503   18.1667   45.8377 H   0  0  0  0  0  0  0  0  0  0  0  0
    0.1620   22.1384   42.4313 H   0  0  0  0  0  0  0  0  0  0  0  0
    1.2666   21.5668   40.4128 H   0  0  0  0  0  0  0  0  0  0  0  0
    2.1061   20.3202   39.4515 H   0  0  0  0  0  0  0  0  0  0  0  0
  1  2  2  0
  1  6  1  0
  2  3  1  0
  3  4  2  0
  4  5  1  0
  5  6  2  0
  6  7  1  0
  7  8  2  0
  7  9  1  0
  8 16  1  0
  9 10  2  0
 10 11  1  0
 10 15  1  0
 11 12  1  0
 11 13  1  0
 13 14  2  0
 14 15  1  0
 15 16  2  0
 16 17  1  0
  1 18  1  0
  2 19  1  0
  3 20  1  0
  5 21  1  0
 12 22  1  0
 12 23  1  0
 12 24  1  0
 14 25  1  0
 17 26  1  0
 17 27  1  0
M  END
>  <mol_id>  (7) 
2026-09-18-6fnk-s0-n100-r4-0007

>  <rmsd_to_ref>  (7) 
0.7295918367369733

>  <pose_kind>  (7) 
rigid

$$$$
6fnk.A
     RDKit          3D

 27 29  0  0  0  0  0  0  0  0999 V2000
    3.6090   15.9165   41.0843 C   0  0  0  0  0  0  0  0  0  0  0  0
    4.3544   14.7498   40.9581 C   0  0  0  0  0  0  0  0  0  0  0  0
    4.1769   13.7820   41.9271 C   0  0  0  0  0  0  0  0  0  0  0  0
    3.3333   13.9188   42.9622 N   0  0  0  0  0  0  0  0  0  0  0  0
    2.6012   15.0632   43.0873 C   0  0  0  0  0  0  0  0  0  0  0  0
    2.7314   16.0722   42.1509 C   0  0  0  0  0  0  0  0  0  0  0  0
    1.9645   17.3193   42.2454 C   0  0  0  0  0  0  0  0  0  0  0  0
    2.0809   18.3110   41.3407 N   0  0  0  0  0  0  0  0  0  0  0  0
    1.1087   17.4489   43.3023 N   0  0  0  0  0  0  0  0  0  0  0  0
    0.3698   18.5884   43.4402 C   0  0  0  0  0  0  0  0  0  0  0  0
   -0.5221   18.9608   44.3627 N   0  0  0  0  0  0  0  0  0  0  0  0
   -0.9861   18.2317   45.5383 C   0  0  0  0  0  0  0  0  0  0  0  0
   -0.9620   20.1643   44.0490 N   0  0  0  0  0  0  0  0  0  0  0  0
   -0.3618   20.5908   42.9176 C   0  0  0  0  0  0  0  0  0  0  0  0
    0.4925   19.6061   42.5074 C   0  0  0  0  0  0  0  0  0  0  0  0
    1.3628   19.4542   41.4478 C   0  0  0  0  0  0  0  0  0  0  0  0
    1.4823   20.4894   40.5061 N   0  0  0  0  0  0  0  0  0  0  0  0
    3.7353   16.6919   40.3293 H   0  0  0  0  0  0  0  0  0  0  0  0
    5.0346   14.6396   40.1236 H   0  0  0  0  0  0  0  0  0  0  0  0
    4.7697   12.8764   41.8101 H   0  0  0  0  0  0  0  0  0  0  0  0
    1.9266   15.1706   43.9164 H   0  0  0  0  0  0  0  0  0  0  0  0
   -2.0994   18.2566   45.6085 H   0  0  0  0  0  0  0  0  0  0  0  0
   -0.6360   17.1895   45.4879 H   0  0  0  0  0  0  0  0  0  0  0  0
   -0.5889   18.7529   46.4381 H   0  0  0  0  0  0  0  0  0  0  0  0
   -0.5345   21.5420   42.4336 H   0  0  0  0  0  0  0  0  0  0  0  0
    1.9657   20.2790   39.6000 H   0  0  0  0  0  0  0  0  0  0  0  0
    1.1088   21.4341   40.6900 H   0  0  0  0  0  0  0  0  0  0  0  0
  1  2  2  0
  1  6  1  0
  2  3  1  0
  3  4  2  0
  4  5  1  0
  5  6  2  0
  6  7  1  0
  7  8  2  0
  7  9  1  0
  8 16  1  0
  9 10  2  0
 10 11  1  0
 10 15  1  0
 11 12  1  0
 11 13  1  0
 13 14  2  0
 14 15  1  0
 15 16  2  0
 16 17  1  0
  1 18  1  0
  2 19  1  0
  3 20  1  0
  5 21  1  0
 12 22  1  0
 12 23  1  0
 12 24  1  0
 14 25  1  0
 17 26  1  0
 17 27  1  0
M  END
>  <mol_id>  (8) 
2026-09-18-6fnk-s0-n100-r4-0008

>  <rmsd_to_ref>  (8) 
0.7755102040843816

>  <pose_kind>  (8) 
conformer

$$$$
6fnk.A
     RDKit          3D

 27 29  0  0  0  0  0  0  0  0999 V2000
    3.0305   15.9092   41.3139 C   0  0  0  0  0  0  0  0  0  0  0  0
    3.4792   14.5892   41.2666 C   0  0  0  0  0  0  0  0  0  0  0  0
    3.0879   13.6889   42.2467 C   0  0  0  0  0  0  0  0  0  0  0  0
    2.2415   14.1045   43.2783 N   0  0  0  0  0  0  0  0  0  0  0  0
    1.7930   15.4332   43.3242 C   0  0  0  0  0  0  0  0  0  0  0  0
    2.1870   16.3391   42.3411 C   0  0  0  0  0  0  0  0  0  0  0  0
    1.7402   17.6635   42.3908 C   0  0  0  0  0  0  0  0  0  0  0  0
    2.2404   18.5924   41.5644 N   0  0  0  0  0  0  0  0  0  0  0  0
    0.7954   18.0143   43.2689 N   0  0  0  0  0  0  0  0  0  0  0  0
    0.3468   19.2795   43.3522 C   0  0  0  0  0  0  0  0  0  0  0  0
   -0.5641   19.8606   44.1477 N   0  0  0  0  0  0  0  0  0  0  0  0
   -1.3483   19.1922   45.1905 C   0  0  0  0  0  0  0  0  0  0  0  0
   -0.6708   21.0582   43.8805 N   0  0  0  0  0  0  0  0  0  0  0  0
    0.1581   21.3169   42.8557 C   0  0  0  0  0  0  0  0  0  0  0  0
    0.8287   20.2044   42.5279 C   0  0  0  0  0  0  0  0  0  0  0  0
    1.7850   19.8575   41.6231 C   0  0  0  0  0  0  0  0  0  0  0  0
    2.3010   20.7754   40.7701 N   0  0  0  0  0  0  0  0  0  0  0  0
    3.3441   16.6189   40.5342 H   0  0  0  0  0  0  0  0  0  0  0  0
    4.1430   14.2624   40.4525 H   0  0  0  0  0  0  0  0  0  0  0  0
    3.4435   12.6485   42.2120 H   0  0  0  0  0  0  0  0  0  0  0  0
    1.1290   15.7606   44.1378 H   0  0  0  0  0  0  0  0  0  0  0  0
   -1.2506   19.7472   46.1352 H   0  0  0  0  0  0  0  0  0  0  0  0
   -2.4062   19.1616   44.8908 H   0  0  0  0  0  0  0  0  0  0  0  0
   -0.9763   18.1661   45.3279 H   0  0  0  0  0  0  0  0  0  0  0  0
    0.2693   22.2932   42.3611 H   0  0  0  0  0  0  0  0  0  0  0  0
    1.9669   21.7493   40.7978 H   0  0  0  0  0  0  0  0  0  0  0  0
    3.0272   20.4991   40.0940 H   0  0  0  0  0  0  0  0  0  0  0  0
  1  2  2  0
  1  6  1  0
  2  3  1  0
  3  4  2  0
  4  5  1  0
  5  6  2  0
  6  7  1  0
  7  8  2  0
  7  9  1  0
  8 16  1  0
  9 10  2  0
 10 11  1  0
 10 15  1  0
 11 12  1  0
 11 13  1  0
 13 14  2  0
 14 15  1  0
 15 16  2  0
 16 17  1  0
  1 18  1  0
  2 19  1  0
  3 20  1  0
  5 21  1  0
 12 22  1  0
 12 23  1  0
 12 24  1  0
 14 25  1  0
 17 26  1  0
 17 27  1  0
M  END
>  <mol_id>  (9) 
2026-09-18-6fnk-s0-n100-r4-0009

>  <rmsd_to_ref>  (9) 
0.8214285714290437

>  <pose_kind>  (9) 
rigid

$$$$
6fnk.A
     RDKit          3D

 27 29  0  0  0  0  0  0  0  0999 V2000
    3.4683   16.4069   40.8488 C   0  0  0  0  0  0  0  0  0  0  0  0
    3.9298   15.1845   40.3985 C   0  0  0  0  0  0  0  0  0  0  0  0
    3.2001   14.0359   40.6571 C   0  0  0  0  0  0  0  0  0  0  0  0
    2.0304   14.0719   41.3478 N   0  0  0  0  0  0  0  0  0  0  0  0
    1.5533   15.2641   41.8027 C   0  0  0  0  0  0  0  0  0  0  0  0
    2.2684   16.4174   41.5534 C   0  0  0  0  0  0  0  0  0  0  0  0
    1.7950   17.7145   42.0215 C   0  0  0  0  0  0  0  0  0  0  0  0
    2.4638   18.8649   41.7989 N   0  0  0  0  0  0  0  0  0  0  0  0
    0.6433   17.8181   42.7116 N   0  0  0  0  0  0  0  0  0  0  0  0
    0.1718   18.9882   43.1600 C   0  0  0  0  0  0  0  0  0  0  0  0
   -0.9332   19.3069   43.8543 N   0  0  0  0  0  0  0  0  0  0  0  0
   -1.9332   18.3578   44.3006 C   0  0  0  0  0  0  0  0  0  0  0  0
   -0.9476   20.6324   44.0577 N   0  0  0  0  0  0  0  0  0  0  0  0
    0.1390   21.1834   43.5021 C   0  0  0  0  0  0  0  0  0  0  0  0
    0.8669   20.1620   42.9254 C   0  0  0  0  0  0  0  0  0  0  0  0
    2.0408   20.0655   42.2233 C   0  0  0  0  0  0  0  0  0  0  0  0
    2.7756   21.2523   41.9674 N   0  0  0  0  0  0  0  0  0  0  0  0
    4.0104   17.3045   40.6631 H   0  0  0  0  0  0  0  0  0  0  0  0
    4.8721   15.1608   39.8429 H   0  0  0  0  0  0  0  0  0  0  0  0
    3.6195   13.1134   40.2756 H   0  0  0  0  0  0  0  0  0  0  0  0
    0.6119   15.2805   42.3568 H   0  0  0  0  0  0  0  0  0  0  0  0
   -2.5131   17.9606   43.4494 H   0  0  0  0  0  0  0  0  0  0  0  0
   -2.6599   18.8524   44.9859 H   0  0  0  0  0  0  0  0  0  0  0  0
   -1.4224   17.5599   44.8987 H   0  0  0  0  0  0  0  0  0  0  0  0
    0.4085   22.2162   43.4961 H   0  0  0  0  0  0  0  0  0  0  0  0
    2.6615   21.6845   41.0260 H   0  0  0  0  0  0  0  0  0  0  0  0
    3.4097   21.6889   42.6814 H   0  0  0  0  0  0  0  0  0  0  0  0
  1  2  2  0
  1  6  1  0
  2  3  1  0
  3  4  2  0
  4  5  1  0
  5  6  2  0
  6  7  1  0
  7  8  2  0
  7  9  1  0
  8 16  1  0
  9 10  2  0
 10 11  1  0
 10 15  1  0
 11 12  1  0
 11 13  1  0
 13 14  2  0
 14 15  1  0
 15 16  2  0
 16 17  1  0
  1 18  1  0
  2 19  1  0
  3 20  1  0
  5 21  1  0
 12 22  1  0
 12 23  1  0
 12 24  1  0
 14 25  1  0
 17 26  1  0
 17 27  1  0
M  END
>  <mol_id>  (10) 
2026-09-18-6fnk-s0-n100-r4-0010

>  <rmsd_to_ref>  (10) 
0.8673469387765316

>  <pose_kind>  (10) 
conformer

$$$$
6fnk.A
     RDKit          3D

 27 29  0  0  0  0  0  0  0  0999 V2000
    3.3048   16.9992   40.6871 C   0  0  0  0  0  0  0  0  0  0  0  0
    3.8913   15.9549   39.9720 C   0  0  0  0  0  0  0  0  0  0  0  0
    3.7010   14.6429   40.3806 C   0  0  0  0  0  0  0  0  0  0  0  0
    2.9188   14.3688   41.5059 N   0  0  0  0  0  0  0  0  0  0  0  0
    2.3314   15.4215   42.2241 C   0  0  0  0  0  0  0  0  0  0  0  0
    2.5235   16.7400   41.8157 C   0  0  0  0  0  0  0  0  0  0  0  0
    1.9386   17.7873   42.5350 C   0  0  0  0  0  0  0  0  0  0  0  0
    2.2485   19.0641   42.2706 N   0  0  0  0  0  0  0  0  0  0  0  0
    1.0512   17.5187   43.4980 N   0  0  0  0  0  0  0  0  0  0  0  0
    0.4745   18.4983   44.2168 C   0  0  0  0  0  0  0  0  0  0  0  0
   -0.4131   18.4730   45.2226 N   0  0  0  0  0  0  0  0  0  0  0  0
   -1.0116   17.2720   45.8129 C   0  0  0  0  0  0  0  0  0  0  0  0
   -0.6786   19.6170   45.5943 N   0  0  0  0  0  0  0  0  0  0  0  0
    0.0117   20.4639   44.8130 C   0  0  0  0  0  0  0  0  0  0  0  0
    0.7670   19.7680   43.9527 C   0  0  0  0  0  0  0  0  0  0  0  0
    1.6626   20.0547   42.9683 C   0  0  0  0  0  0  0  0  0  0  0  0
    1.9867   21.3374   42.6749 N   0  0  0  0  0  0  0  0  0  0  0  0
    3.4592   18.0377   40.3589 H   0  0  0  0  0  0  0  0  0  0  0  0
    4.5043   16.1716   39.0847 H   0  0  0  0  0  0  0  0  0  0  0  0
    4.1655   13.8189   39.8192 H   0  0  0  0  0  0  0  0  0  0  0  0
    1.7181   15.2055   43.1113 H   0  0  0  0  0  0  0  0  0  0  0  0
   -0.8843   17.2979   46.9052 H   0  0  0  0  0  0  0  0  0  0  0  0
   -2.0838   17.2391   45.5693 H   0  0  0  0  0  0  0  0  0  0  0  0
   -0.5157   16.3779   45.4070 H   0  0  0  0  0  0  0  0  0  0  0  0
   -0.0358   21.5614   44.8708 H   0  0  0  0  0  0  0  0  0  0  0  0
    1.5503   22.1110   43.1964 H   0  0  0  0  0  0  0  0  0  0  0  0
    2.6694   21.5387   41.9304 H   0  0  0  0  0  0  0  0  0  0  0  0
  1  2  2  0
  1  6  1  0
  2  3  1  0
  3  4  2  0
  4  5  1  0
  5  6  2  0
  6  7  1  0
  7  8  2  0
  7  9  1  0
  8 16  1  0
  9 10  2  0
 10 11  1  0
 10 15  1  0
 11 12  1  0
 11 13  1  0
 13 14  2  0
 14 15  1  0
 15 16  2  0
 16 17  1  0
  1 18  1  0
  2 19  1  0
  3 20  1  0
  5 21  1  0
 12 22  1  0
 12 23  1  0
 12 24  1  0
 14 25  1  0
 17 26  1  0
 17 27  1  0
M  END
>  <mol_id>  (11) 
2026-09-18-6fnk-s0-n100-r4-0011

>  <rmsd_to_ref>  (11) 
0.9132653061233328

>  <pose_kind>  (11) 
rigid

$$$$
6fnk.A
     RDKit          3D

 27 29  0  0  0  0  0  0  0  0999 V2000
    3.2093   17.1353   40.5159 C   0  0  0  0  0  0  0  0  0  0  0  0
    4.0210   16.1436   39.9632 C   0  0  0  0  0  0  0  0  0  0  0  0
    4.0204   14.8817   40.5220 C   0  0  0  0  0  0  0  0  0  0  0  0
    3.2662   14.5494   41.5898 N   0  0  0  0  0  0  0  0  0  0  0  0
    2.4666   15.5026   42.1447 C   0  0  0  0  0  0  0  0  0  0  0  0
    2.4413   16.7838   41.6091 C   0  0  0  0  0  0  0  0  0  0  0  0
    1.5842   17.8300   42.1929 C   0  0  0  0  0  0  0  0  0  0  0  0
    1.5403   19.0799   41.6938 N   0  0  0  0  0  0  0  0  0  0  0  0
    0.8069   17.5409   43.2698 N   0  0  0  0  0  0  0  0  0  0  0  0
    0.0087   18.4454   43.8445 C   0  0  0  0  0  0  0  0  0  0  0  0
   -0.8537   18.4513   44.8948 N   0  0  0  0  0  0  0  0  0  0  0  0
   -1.1196   17.2963   45.7302 C   0  0  0  0  0  0  0  0  0  0  0  0
   -1.3714   19.6707   44.9877 N   0  0  0  0  0  0  0  0  0  0  0  0
   -0.8800   20.4782   44.0306 C   0  0  0  0  0  0  0  0  0  0  0  0
   -0.0067   19.7297   43.2953 C   0  0  0  0  0  0  0  0  0  0  0  0
    0.7685   20.0582   42.2037 C   0  0  0  0  0  0  0  0  0  0  0  0
    0.7852   21.3493   41.6124 N   0  0  0  0  0  0  0  0  0  0  0  0
    3.2018   18.1275   40.0862 H   0  0  0  0  0  0  0  0  0  0  0  0
    4.6396   16.3787   39.1039 H   0  0  0  0  0  0  0  0  0  0  0  0
    4.6473   14.1030   40.1008 H   0  0  0  0  0  0  0  0  0  0  0  0
    1.8522   15.2607   43.0018 H   0  0  0  0  0  0  0  0  0  0  0  0
   -1.9140   17.5946   46.4523 H   0  0  0  0  0  0  0  0  0  0  0  0
   -0.2055   16.9277   46.2429 H   0  0  0  0  0  0  0  0  0  0  0  0
   -1.5516   16.4559   45.1415 H   0  0  0  0  0  0  0  0  0  0  0  0
   -1.1221   21.5339   43.8595 H   0  0  0  0  0  0  0  0  0  0  0  0
    0.7003   22.1864   42.2504 H   0  0  0  0  0  0  0  0  0  0  0  0
    0.8774   21.5059   40.5772 H   0  0  0  0  0  0  0  0  0  0  0  0
  1  2  2  0
  1  6  1  0
  2  3  1  0
  3  4  2  0
  4  5  1  0
  5  6  2  0
  6  7  1  0
  7  8  2  0
  7  9  1  0
  8 16  1  0
  9 10  2  0
 10 11  1  0
 10 15  1  0
 11 12  1  0
 11 13  1  0
 13 14  2  0
 14 15  1  0
 15 16  2  0
 16 17  1  0
  1 18  1  0
  2 19  1  0
  3 20  1  0
  5 21  1  0
 12 22  1  0
 12 23  1  0
 12 24  1  0
 14 25  1  0
 17 26  1  0
 17 27  1  0
M  END
>  <mol_id>  (12) 
2026-09-18-6fnk-s0-n100-r4-0012

>  <rmsd_to_ref>  (12) 
0.9591836734741614

>  <pose_kind>  (12) 
conformer

$$$$
6fnk.A
     RDKit          3D

 27 29  0  0  0  0  0  0  0  0999 V2000
    1.7565   15.9613   40.7090 C   0  0  0  0  0  0  0  0  0  0  0  0
    2.0820   14.6246   40.4779 C   0  0  0  0  0  0  0  0  0  0  0  0
    2.2684   13.7619   41.5481 C   0  0  0  0  0  0  0  0  0  0  0  0
    2.1261   14.2321   42.8566 N   0  0  0  0  0  0  0  0  0  0  0  0
    1.8002   15.5775   43.0860 C   0  0  0  0  0  0  0  0  0  0  0  0
    1.6145   16.4455   42.0116 C   0  0  0  0  0  0  0  0  0  0  0  0
    1.2920   17.7866   42.2435 C   0  0  0  0  0  0  0  0  0  0  0  0
    1.2811   18.6772   41.2422 N   0  0  0  0  0  0  0  0  0  0  0  0
    0.9825   18.1923   43.4791 N   0  0  0  0  0  0  0  0  0  0  0  0
    0.6756   19.4750   43.7425 C   0  0  0  0  0  0  0  0  0  0  0  0
    0.3541   20.1076   44.8812 N   0  0  0  0  0  0  0  0  0  0  0  0
    0.2492   19.4927   46.2078 C   0  0  0  0  0  0  0  0  0  0  0  0
    0.1425   21.3021   44.6677 N   0  0  0  0  0  0  0  0  0  0  0  0
    0.2869   21.5064   43.3480 C   0  0  0  0  0  0  0  0  0  0  0  0
    0.6504   20.3623   42.7530 C   0  0  0  0  0  0  0  0  0  0  0  0
    0.9551   19.9595   41.4887 C   0  0  0  0  0  0  0  0  0  0  0  0
    0.9427   20.8380   40.4569 N   0  0  0  0  0  0  0  0  0  0  0  0
    1.6101   16.6410   39.8567 H   0  0  0  0  0  0  0  0  0  0  0  0
    2.1909   14.2550   39.4476 H   0  0  0  0  0  0  0  0  0  0  0  0
    2.5281   12.7085   41.3671 H   0  0  0  0  0  0  0  0  0  0  0  0
    1.6909   15.9478   44.1160 H   0  0  0  0  0  0  0  0  0  0  0  0
    0.8549   20.0648   46.9260 H   0  0  0  0  0  0  0  0  0  0  0  0
   -0.8022   19.4952   46.5310 H   0  0  0  0  0  0  0  0  0  0  0  0
    0.6163   18.4568   46.1618 H   0  0  0  0  0  0  0  0  0  0  0  0
    0.1305   22.4663   42.8342 H   0  0  0  0  0  0  0  0  0  0  0  0
    0.6961   21.8241   40.6231 H   0  0  0  0  0  0  0  0  0  0  0  0
    1.1799   20.5195   39.5066 H   0  0  0  0  0  0  0  0  0  0  0  0
  1  2  2  0
  1  6  1  0
  2  3  1  0
  3  4  2  0
  4  5  1  0
  5  6  2  0
  6  7  1  0
  7  8  2  0
  7  9  1  0
  8 16  1  0
  9 10  2  0
 10 11  1  0
 10 15  1  0
 11 12  1  0
 11 13  1  0
 13 14  2  0
 14 15  1  0
 15 16  2  0
 16 17  1  0
  1 18  1  0
  2 19  1  0
  3 20  1  0
  5 21  1  0
 12 22  1  0
 12 23  1  0
 12 24  1  0
 14 25  1  0
 17 26  1  0
 17 27  1  0
M  END
>  <mol_id>  (13) 
2026-09-18-6fnk-s0-n100-r4-0013

>  <rmsd_to_ref>  (13) 
1.0051020408203022

>  <pose_kind>  (13) 
rigid

$$$$
6fnk.A
     RDKit          3D

 27 29  0  0  0  0  0  0  0  0999 V2000
    2.1952   15.2770   41.1497 C   0  0  0  0  0  0  0  0  0  0  0  0
    2.3199   13.9161   40.9530 C   0  0  0  0  0  0  0  0  0  0  0  0
    1.6828   13.0560   41.8219 C   0  0  0  0  0  0  0  0  0  0  0  0
    0.9360   13.5148   42.8661 N   0  0  0  0  0  0  0  0  0  0  0  0
    0.8048   14.8456   43.0712 C   0  0  0  0  0  0  0  0  0  0  0  0
    1.4312   15.7492   42.2179 C   0  0  0  0  0  0  0  0  0  0  0  0
    1.3151   17.1910   42.4040 C   0  0  0  0  0  0  0  0  0  0  0  0
    1.9201   18.0811   41.5802 N   0  0  0  0  0  0  0  0  0  0  0  0
    0.5772   17.6588   43.4360 N   0  0  0  0  0  0  0  0  0  0  0  0
    0.4311   18.9842   43.6617 C   0  0  0  0  0  0  0  0  0  0  0  0
   -0.2012   19.7486   44.5522 N   0  0  0  0  0  0  0  0  0  0  0  0
   -0.9967   19.1839   45.6460 C   0  0  0  0  0  0  0  0  0  0  0  0
    0.0036   21.0302   44.2904 N   0  0  0  0  0  0  0  0  0  0  0  0
    0.7833   21.1583   43.2109 C   0  0  0  0  0  0  0  0  0  0  0  0
    1.0686   19.8735   42.7927 C   0  0  0  0  0  0  0  0  0  0  0  0
    1.8330   19.3975   41.7239 C   0  0  0  0  0  0  0  0  0  0  0  0
    2.4943   20.2737   40.8217 N   0  0  0  0  0  0  0  0  0  0  0  0
    2.6994   15.9509   40.4620 H   0  0  0  0  0  0  0  0  0  0  0  0
    2.9226   13.5732   40.1109 H   0  0  0  0  0  0  0  0  0  0  0  0
    1.7735   11.9717   41.6773 H   0  0  0  0  0  0  0  0  0  0  0  0
    0.2286   15.2687   43.8780 H   0  0  0  0  0  0  0  0  0  0  0  0
   -0.3904   18.6166   46.3614 H   0  0  0  0  0  0  0  0  0  0  0  0
   -1.5947   19.9881   46.1567 H   0  0  0  0  0  0  0  0  0  0  0  0
   -1.7914   18.5642   45.1387 H   0  0  0  0  0  0  0  0  0  0  0  0
    1.1148   22.0859   42.7672 H   0  0  0  0  0  0  0  0  0  0  0  0
    2.0646   20.5650   39.9168 H   0  0  0  0  0  0  0  0  0  0  0  0
    3.4329   20.6176   41.1000 H   0  0  0  0  0  0  0  0  0  0  0  0
  1  2  2  0
  1  6  1  0
  2  3  1  0
  3  4  2  0
  4  5  1  0
  5  6  2  0
  6  7  1  0
  7  8  2  0
  7  9  1  0
  8 16  1  0
  9 10  2  0
 10 11  1  0
 10 15  1  0
 11 12  1  0
 11 13  1  0
 13 14  2  0
 14 15  1  0
 15 16  2  0
 16 17  1  0
  1 18  1  0
  2 19  1  0
  3 20  1  0
  5 21  1  0
 12 22  1  0
 12 23  1  0
 12 24  1  0
 14 25  1  0
 17 26  1  0
 17 27  1  0
M  END
>  <mol_id>  (14) 
2026-09-18-6fnk-s0-n100-r4-0014

>  <rmsd_to_ref>  (14) 
1.051020408170666

>  <pose_kind>  (14) 
conformer

$$$$
6fnk.A
     RDKit          3D

 27 29  0  0  0  0  0  0  0  0999 V2000
    2.1640   16.0382   40.1400 C   0  0  0  0  0  0  0  0  0  0  0  0
    2.2765   14.8107   39.4868 C   0  0  0  0  0  0  0  0  0  0  0  0
    2.1911   13.6304   40.2106 C   0  0  0  0  0  0  0  0  0  0  0  0
    1.9887   13.6724   41.5929 N   0  0  0  0  0  0  0  0  0  0  0  0
    1.8776   14.9086   42.2474 C   0  0  0  0  0  0  0  0  0  0  0  0
    1.9651   16.0951   41.5215 C   0  0  0  0  0  0  0  0  0  0  0  0
    1.8563   17.3258   42.1770 C   0  0  0  0  0  0  0  0  0  0  0  0
    2.1106   18.4746   41.5355 N   0  0  0  0  0  0  0  0  0  0  0  0
    1.4872   17.3651   43.4613 N   0  0  0  0  0  0  0  0  0  0  0  0
    1.3800   18.5286   44.1274 C   0  0  0  0  0  0  0  0  0  0  0  0
    1.0492   18.8115   45.3966 N   0  0  0  0  0  0  0  0  0  0  0  0
    0.6934   17.8361   46.4316 C   0  0  0  0  0  0  0  0  0  0  0  0
    1.0728   20.0278   45.5890 N   0  0  0  0  0  0  0  0  0  0  0  0
    1.3953   20.6131   44.4238 C   0  0  0  0  0  0  0  0  0  0  0  0
    1.6185   19.6734   43.4953 C   0  0  0  0  0  0  0  0  0  0  0  0
    1.9865   19.6470   42.1849 C   0  0  0  0  0  0  0  0  0  0  0  0
    2.2407   20.7946   41.5106 N   0  0  0  0  0  0  0  0  0  0  0  0
    2.2327   16.9710   39.5611 H   0  0  0  0  0  0  0  0  0  0  0  0
    2.4327   14.7788   38.3984 H   0  0  0  0  0  0  0  0  0  0  0  0
    2.2826   12.6620   39.6970 H   0  0  0  0  0  0  0  0  0  0  0  0
    1.7210   14.9413   43.3357 H   0  0  0  0  0  0  0  0  0  0  0  0
    1.3060   18.0128   47.3280 H   0  0  0  0  0  0  0  0  0  0  0  0
   -0.3709   17.9448   46.6875 H   0  0  0  0  0  0  0  0  0  0  0  0
    0.8781   16.8189   46.0558 H   0  0  0  0  0  0  0  0  0  0  0  0
    1.4654   21.6981   44.2574 H   0  0  0  0  0  0  0  0  0  0  0  0
    2.1519   21.7029   41.9880 H   0  0  0  0  0  0  0  0  0  0  0  0
    2.5227   20.7586   40.5206 H   0  0  0  0  0  0  0  0  0  0  0  0
  1  2  2  0
  1  6  1  0
  2  3  1  0
  3  4  2  0
  4  5  1  0
  5  6  2  0
  6  7  1  0
  7  8  2  0
  7  9  1  0
  8 16  1  0
  9 10  2  0
 10 11  1  0
 10 15  1  0
 11 12  1  0
 11 13  1  0
 13 14  2  0
 14 15  1  0
 15 16  2  0
 16 17  1  0
  1 18  1  0
  2 19  1  0
  3 20  1  0
  5 21  1  0
 12 22  1  0
 12 23  1  0
 12 24  1  0
 14 25  1  0
 17 26  1  0
 17 27  1  0
M  END
>  <mol_id>  (15) 
2026-09-18-6fnk-s0-n100-r4-0015

>  <rmsd_to_ref>  (15) 
1.0969387755140934

>  <pose_kind>  (15) 
rigid

$$$$
6fnk.A
     RDKit          3D

 27 29  0  0  0  0  0  0  0  0999 V2000
    2.8395   15.5084   41.5404 C   0  0  0  0  0  0  0  0  0  0  0  0
    3.1829   14.1725   41.6123 C   0  0  0  0  0  0  0  0  0  0  0  0
    2.5082   13.3301   42.4893 C   0  0  0  0  0  0  0  0  0  0  0  0
    1.5132   13.7746   43.2872 N   0  0  0  0  0  0  0  0  0  0  0  0
    1.1607   15.0796   43.2328 C   0  0  0  0  0  0  0  0  0  0  0  0
    1.8129   15.9587   42.3661 C   0  0  0  0  0  0  0  0  0  0  0  0
    1.4273   17.3755   42.3096 C   0  0  0  0  0  0  0  0  0  0  0  0
    2.0361   18.2320   41.4900 N   0  0  0  0  0  0  0  0  0  0  0  0
    0.4364   17.8085   43.1071 N   0  0  0  0  0  0  0  0  0  0  0  0
    0.0246   19.1101   43.1090 C   0  0  0  0  0  0  0  0  0  0  0  0
   -0.9252   19.7852   43.7970 N   0  0  0  0  0  0  0  0  0  0  0  0
   -1.7818   19.1789   44.7743 C   0  0  0  0  0  0  0  0  0  0  0  0
   -0.8950   21.0566   43.3952 N   0  0  0  0  0  0  0  0  0  0  0  0
    0.0715   21.2201   42.4454 C   0  0  0  0  0  0  0  0  0  0  0  0
    0.6727   19.9979   42.2434 C   0  0  0  0  0  0  0  0  0  0  0  0
    1.6886   19.5496   41.4272 C   0  0  0  0  0  0  0  0  0  0  0  0
    2.3608   20.4354   40.5397 N   0  0  0  0  0  0  0  0  0  0  0  0
    3.3490   16.2014   40.8613 H   0  0  0  0  0  0  0  0  0  0  0  0
    3.9895   13.7933   40.9710 H   0  0  0  0  0  0  0  0  0  0  0  0
    2.7707   12.2813   42.5525 H   0  0  0  0  0  0  0  0  0  0  0  0
    0.3531   15.4624   43.8740 H   0  0  0  0  0  0  0  0  0  0  0  0
   -2.5896   19.8970   45.0393 H   0  0  0  0  0  0  0  0  0  0  0  0
   -1.2052   18.9446   45.7003 H   0  0  0  0  0  0  0  0  0  0  0  0
   -2.2478   18.2673   44.3464 H   0  0  0  0  0  0  0  0  0  0  0  0
    0.3301   22.1297   41.9369 H   0  0  0  0  0  0  0  0  0  0  0  0
    3.3774   20.6642   40.6069 H   0  0  0  0  0  0  0  0  0  0  0  0
    1.7935   20.8754   39.7822 H   0  0  0  0  0  0  0  0  0  0  0  0
  1  2  2  0
  1  6  1  0
  2  3  1  0
  3  4  2  0
  4  5  1  0
  5  6  2  0
  6  7  1  0
  7  8  2  0
  7  9  1  0
  8 16  1  0
  9 10  2  0
 10 11  1  0
 10 15  1  0
 11 12  1  0
 11 13  1  0
 13 14  2  0
 14 15  1  0
 15 16  2  0
 16 17  1  0
  1 18  1  0
  2 19  1  0
  3 20  1  0
  5 21  1  0
 12 22  1  0
 12 23  1  0
 12 24  1  0
 14 25  1  0
 17 26  1  0
 17 27  1  0
M  END
>  <mol_id>  (16) 
2026-09-18-6fnk-s0-n100-r4-0016

>  <rmsd_to_ref>  (16) 
1.1428571428598038

>  <pose_kind>  (16) 
conformer

$$$$
6fnk.A
     RDKit          3D

 27 29  0  0  0  0  0  0  0  0999 V2000
    3.1957   17.2301   40.2029 C   0  0  0  0  0  0  0  0  0  0  0  0
    3.7188   16.2568   39.3514 C   0  0  0  0  0  0  0  0  0  0  0  0
    3.6217   14.9151   39.6903 C   0  0  0  0  0  0  0  0  0  0  0  0
    2.9965   14.5400   40.8826 N   0  0  0  0  0  0  0  0  0  0  0  0
    2.4725   15.5212   41.7378 C   0  0  0  0  0  0  0  0  0  0  0  0
    2.5712   16.8695   41.3993 C   0  0  0  0  0  0  0  0  0  0  0  0
    2.0501   17.8455   42.2550 C   0  0  0  0  0  0  0  0  0  0  0  0
    2.2851   19.1475   42.0416 N   0  0  0  0  0  0  0  0  0  0  0  0
    1.2999   17.4821   43.3000 N   0  0  0  0  0  0  0  0  0  0  0  0
    0.7889   18.3909   44.1496 C   0  0  0  0  0  0  0  0  0  0  0  0
    0.0364   18.2673   45.2536 N   0  0  0  0  0  0  0  0  0  0  0  0
   -0.4459   17.0090   45.8305 C   0  0  0  0  0  0  0  0  0  0  0  0
   -0.2148   19.3742   45.7320 N   0  0  0  0  0  0  0  0  0  0  0  0
    0.3453   20.2952   44.9307 C   0  0  0  0  0  0  0  0  0  0  0  0
    1.0068   19.6851   43.9381 C   0  0  0  0  0  0  0  0  0  0  0  0
    1.7619   20.0683   42.8721 C   0  0  0  0  0  0  0  0  0  0  0  0
    2.0071   21.3787   42.6287 N   0  0  0  0  0  0  0  0  0  0  0  0
    3.2757   18.2925   39.9293 H   0  0  0  0  0  0  0  0  0  0  0  0
    4.2081   16.5531   38.4118 H   0  0  0  0  0  0  0  0  0  0  0  0
    4.0365   14.1470   39.0210 H   0  0  0  0  0  0  0  0  0  0  0  0
    1.9829   15.2257   42.6775 H   0  0  0  0  0  0  0  0  0  0  0  0
   -0.1826   16.9703   46.8978 H   0  0  0  0  0  0  0  0  0  0  0  0
   -1.5387   16.9500   45.7200 H   0  0  0  0  0  0  0  0  0  0  0  0
    0.0219   16.1624   45.3066 H   0  0  0  0  0  0  0  0  0  0  0  0
    0.2719   21.3841   45.0683 H   0  0  0  0  0  0  0  0  0  0  0  0
    1.6166   22.1001   43.2515 H   0  0  0  0  0  0  0  0  0  0  0  0
    2.5840   21.6532   41.8207 H   0  0  0  0  0  0  0  0  0  0  0  0
  1  2  2  0
  1  6  1  0
  2  3  1  0
  3  4  2  0
  4  5  1  0
  5  6  2  0
  6  7  1  0
  7  8  2  0
  7  9  1  0
  8 16  1  0
  9 10  2  0
 10 11  1  0
 10 15  1  0
 11 12  1  0
 11 13  1  0
 13 14  2  0
 14 15  1  0
 15 16  2  0
 16 17  1  0
  1 18  1  0
  2 19  1  0
  3 20  1  0
  5 21  1  0
 12 22  1  0
 12 23  1  0
 12 24  1  0
 14 25  1  0
 17 26  1  0
 17 27  1  0
M  END
>  <mol_id>  (17) 
2026-09-18-6fnk-s0-n100-r4-0017

>  <rmsd_to_ref>  (17) 
1.1887755102043904

>  <pose_kind>  (17) 
rigid

$$$$
6fnk.A
     RDKit          3D

 27 29  0  0  0  0  0  0  0  0999 V2000
    2.5779   16.9530   39.8707 C   0  0  0  0  0  0  0  0  0  0  0  0
    3.2209   15.9120   39.2448 C   0  0  0  0  0  0  0  0  0  0  0  0
    3.7001   14.8776   40.0208 C   0  0  0  0  0  0  0  0  0  0  0  0
    3.5771   14.8243   41.3536 N   0  0  0  0  0  0  0  0  0  0  0  0
    2.9447   15.8462   41.9796 C   0  0  0  0  0  0  0  0  0  0  0  0
    2.4475   16.9050   41.2430 C   0  0  0  0  0  0  0  0  0  0  0  0
    1.7617   18.0199   41.8893 C   0  0  0  0  0  0  0  0  0  0  0  0
    1.2638   19.0673   41.2149 N   0  0  0  0  0  0  0  0  0  0  0  0
    1.6070   18.0239   43.2246 N   0  0  0  0  0  0  0  0  0  0  0  0
    0.9936   19.0011   43.8986 C   0  0  0  0  0  0  0  0  0  0  0  0
    0.7251   19.2190   45.2023 N   0  0  0  0  0  0  0  0  0  0  0  0
    1.1095   18.2980   46.2635 C   0  0  0  0  0  0  0  0  0  0  0  0
    0.0744   20.3803   45.3176 N   0  0  0  0  0  0  0  0  0  0  0  0
   -0.0887   20.9298   44.1048 C   0  0  0  0  0  0  0  0  0  0  0  0
    0.4865   20.0723   43.1897 C   0  0  0  0  0  0  0  0  0  0  0  0
    0.6325   20.0951   41.8015 C   0  0  0  0  0  0  0  0  0  0  0  0
    0.1198   21.1866   41.0449 N   0  0  0  0  0  0  0  0  0  0  0  0
    2.2041   17.7610   39.2598 H   0  0  0  0  0  0  0  0  0  0  0  0
    3.3277   15.9421   38.1648 H   0  0  0  0  0  0  0  0  0  0  0  0
    4.2067   14.0545   39.5413 H   0  0  0  0  0  0  0  0  0  0  0  0
    2.8281   15.8316   43.0707 H   0  0  0  0  0  0  0  0  0  0  0  0
    0.3845   18.3684   47.1076 H   0  0  0  0  0  0  0  0  0  0  0  0
    1.0871   17.2565   45.9030 H   0  0  0  0  0  0  0  0  0  0  0  0
    2.1125   18.5366   46.6880 H   0  0  0  0  0  0  0  0  0  0  0  0
   -0.5647   21.8579   43.8117 H   0  0  0  0  0  0  0  0  0  0  0  0
    0.7692   21.8560   40.5740 H   0  0  0  0  0  0  0  0  0  0  0  0
   -0.9250   21.2624   40.9997 H   0  0  0  0  0  0  0  0  0  0  0  0
  1  2  2  0
  1  6  1  0
  2  3  1  0
  3  4  2  0
  4  5  1  0
  5  6  2  0
  6  7  1  0
  7  8  2  0
  7  9  1  0
  8 16  1  0
  9 10  2  0
 10 11  1  0
 10 15  1  0
 11 12  1  0
 11 13  1  0
 13 14  2  0
 14 15  1  0
 15 16  2  0
 16 17  1  0
  1 18  1  0
  2 19  1  0
  3 20  1  0
  5 21  1  0
 12 22  1  0
 12 23  1  0
 12 24  1  0
 14 25  1  0
 17 26  1  0
 17 27  1  0
M  END
>  <mol_id>  (18) 
2026-09-18-6fnk-s0-n100-r4-0018

>  <rmsd_to_ref>  (18) 
1.2346938775524934

>  <pose_kind>  (18) 
conformer

$$$$
6fnk.A
     RDKit          3D

 27 29  0  0  0  0  0  0  0  0999 V2000
    3.9194   17.0746   41.6610 C   0  0  0  0  0  0  0  0  0  0  0  0
    4.8753   16.0999   41.3743 C   0  0  0  0  0  0  0  0  0  0  0  0
    4.8176   14.8661   42.0058 C   0  0  0  0  0  0  0  0  0  0  0  0
    3.7998   14.5998   42.9257 N   0  0  0  0  0  0  0  0  0  0  0  0
    2.8406   15.5828   43.2133 C   0  0  0  0  0  0  0  0  0  0  0  0
    2.8985   16.8233   42.5809 C   0  0  0  0  0  0  0  0  0  0  0  0
    1.9424   17.8018   42.8713 C   0  0  0  0  0  0  0  0  0  0  0  0
    2.0754   19.0545   42.4138 N   0  0  0  0  0  0  0  0  0  0  0  0
    0.8735   17.4889   43.6106 N   0  0  0  0  0  0  0  0  0  0  0  0
   -0.0624   18.4046   43.9179 C   0  0  0  0  0  0  0  0  0  0  0  0
   -1.1892   18.3312   44.6425 N   0  0  0  0  0  0  0  0  0  0  0  0
   -1.7038   17.1349   45.3155 C   0  0  0  0  0  0  0  0  0  0  0  0
   -1.7604   19.4223   44.6659 N   0  0  0  0  0  0  0  0  0  0  0  0
   -1.0373   20.2708   43.9166 C   0  0  0  0  0  0  0  0  0  0  0  0
    0.0556   19.6462   43.4579 C   0  0  0  0  0  0  0  0  0  0  0  0
    1.1352   19.9751   42.6965 C   0  0  0  0  0  0  0  0  0  0  0  0
    1.2891   21.2320   42.2140 N   0  0  0  0  0  0  0  0  0  0  0  0
    3.9700   18.0513   41.1575 H   0  0  0  0  0  0  0  0  0  0  0  0
    5.6742   16.3096   40.6478 H   0  0  0  0  0  0  0  0  0  0  0  0
    5.5726   14.0979   41.7826 H   0  0  0  0  0  0  0  0  0  0  0  0
    2.0412   15.3737   43.9394 H   0  0  0  0  0  0  0  0  0  0  0  0
   -1.9158   17.3695   46.3691 H   0  0  0  0  0  0  0  0  0  0  0  0
   -2.6288   16.8047   44.8201 H   0  0  0  0  0  0  0  0  0  0  0  0
   -0.9530   16.3328   45.2624 H   0  0  0  0  0  0  0  0  0  0  0  0
   -1.3020   21.3185   43.7111 H   0  0  0  0  0  0  0  0  0  0  0  0
    0.5816   21.9522   42.4182 H   0  0  0  0  0  0  0  0  0  0  0  0
    2.1135   21.4672   41.6431 H   0  0  0  0  0  0  0  0  0  0  0  0
  1  2  2  0
  1  6  1  0
  2  3  1  0
  3  4  2  0
  4  5  1  0
  5  6  2  0
  6  7  1  0
  7  8  2  0
  7  9  1  0
  8 16  1  0
  9 10  2  0
 10 11  1  0
 10 15  1  0
 11 12  1  0
 11 13  1  0
 13 14  2  0
 14 15  1  0
 15 16  2  0
 16 17  1  0
  1 18  1  0
  2 19  1  0
  3 20  1  0
  5 21  1  0
 12 22  1  0
 12 23  1  0
 12 24  1  0
 14 25  1  0
 17 26  1  0
 17 27  1  0
M  END
>  <mol_id>  (19) 
2026-09-18-6fnk-s0-n100-r4-0019

>  <rmsd_to_ref>  (19) 
1.2806122449003148

>  <pose_kind>  (19) 
rigid

$$$$
6fnk.A
     RDKit          3D

 27 29  0  0  0  0  0  0  0  0999 V2000
    2.5255   15.1244   42.4778 C   0  0  0  0  0  0  0  0  0  0  0  0
    3.3173   14.0930   41.9790 C   0  0  0  0  0  0  0  0  0  0  0  0
    4.1816   14.3226   40.9130 C   0  0  0  0  0  0  0  0  0  0  0  0
    4.2456   15.5469   40.3696 N   0  0  0  0  0  0  0  0  0  0  0  0
    3.5084   16.5836   40.8045 C   0  0  0  0  0  0  0  0  0  0  0  0
    2.6528   16.3531   41.8611 C   0  0  0  0  0  0  0  0  0  0  0  0
    1.8517   17.4734   42.3362 C   0  0  0  0  0  0  0  0  0  0  0  0
    1.9872   18.6801   41.7186 N   0  0  0  0  0  0  0  0  0  0  0  0
    0.9858   17.3151   43.3768 N   0  0  0  0  0  0  0  0  0  0  0  0
    0.2386   18.3596   43.8202 C   0  0  0  0  0  0  0  0  0  0  0  0
   -0.6732   18.4926   44.8007 N   0  0  0  0  0  0  0  0  0  0  0  0
   -1.0926   17.4226   45.6871 C   0  0  0  0  0  0  0  0  0  0  0  0
   -1.1316   19.7381   44.8401 N   0  0  0  0  0  0  0  0  0  0  0  0
   -0.5085   20.4253   43.8706 C   0  0  0  0  0  0  0  0  0  0  0  0
    0.3728   19.6016   43.1905 C   0  0  0  0  0  0  0  0  0  0  0  0
    1.2519   19.7512   42.1383 C   0  0  0  0  0  0  0  0  0  0  0  0
    1.3745   21.0215   41.5108 N   0  0  0  0  0  0  0  0  0  0  0  0
    1.8596   14.9457   43.2999 H   0  0  0  0  0  0  0  0  0  0  0  0
    3.2792   13.0937   42.4066 H   0  0  0  0  0  0  0  0  0  0  0  0
    4.7729   13.4816   40.5677 H   0  0  0  0  0  0  0  0  0  0  0  0
    3.6165   17.5374   40.3153 H   0  0  0  0  0  0  0  0  0  0  0  0
   -2.1023   17.6315   46.1123 H   0  0  0  0  0  0  0  0  0  0  0  0
   -0.3839   17.2413   46.5063 H   0  0  0  0  0  0  0  0  0  0  0  0
   -1.2055   16.4589   45.1234 H   0  0  0  0  0  0  0  0  0  0  0  0
   -0.6239   21.4702   43.5990 H   0  0  0  0  0  0  0  0  0  0  0  0
    2.1948   21.6271   41.7993 H   0  0  0  0  0  0  0  0  0  0  0  0
    0.7354   21.3997   40.8029 H   0  0  0  0  0  0  0  0  0  0  0  0
  1  2  2  0
  1  6  1  0
  2  3  1  0
  3  4  2  0
  4  5  1  0
  5  6  2  0
  6  7  1  0
  7  8  2  0
  7  9  1  0
  8 16  1  0
  9 10  2  0
 10 11  1  0
 10 15  1  0
 11 12  1  0
 11 13  1  0
 13 14  2  0
 14 15  1  0
 15 16  2  0
 16 17  1  0
  1 18  1  0
  2 19  1  0
  3 20  1  0
  5 21  1  0
 12 22  1  0
 12 23  1  0
 12 24  1  0
 14 25  1  0
 17 26  1  0
 17 27  1  0
M  END
>  <mol_id>  (20) 
2026-09-18-6fnk-s0-n100-r4-0020

>  <rmsd_to_ref>  (20) 
1.3265306122471923

>  <pose_kind>  (20) 
conformer

$$$$
6fnk.A
     RDKit          3D

 27 29  0  0  0  0  0  0  0  0999 V2000
    2.0291   15.6863   41.6161 C   0  0  0  0  0  0  0  0  0  0  0  0
    2.3799   14.3363   41.6310 C   0  0  0  0  0  0  0  0  0  0  0  0
    2.6036   13.6920   42.8390 C   0  0  0  0  0  0  0  0  0  0  0  0
    2.4735   14.3953   44.0397 N   0  0  0  0  0  0  0  0  0  0  0  0
    2.1219   15.7536   44.0215 C   0  0  0  0  0  0  0  0  0  0  0  0
    1.8988   16.4024   42.8085 C   0  0  0  0  0  0  0  0  0  0  0  0
    1.5509   17.7570   42.7933 C   0  0  0  0  0  0  0  0  0  0  0  0
    1.5032   18.4448   41.6441 N   0  0  0  0  0  0  0  0  0  0  0  0
    1.2537   18.3803   43.9380 N   0  0  0  0  0  0  0  0  0  0  0  0
    0.9232   19.6837   43.9644 C   0  0  0  0  0  0  0  0  0  0  0  0
    0.6075   20.5116   44.9719 N   0  0  0  0  0  0  0  0  0  0  0  0
    0.5389   20.1532   46.3917 C   0  0  0  0  0  0  0  0  0  0  0  0
    0.3660   21.6412   44.5442 N   0  0  0  0  0  0  0  0  0  0  0  0
    0.4831   21.5983   43.2068 C   0  0  0  0  0  0  0  0  0  0  0  0
    0.8615   20.3703   42.8277 C   0  0  0  0  0  0  0  0  0  0  0  0
    1.1532   19.7444   41.6545 C   0  0  0  0  0  0  0  0  0  0  0  0
    1.1038   20.4145   40.4777 N   0  0  0  0  0  0  0  0  0  0  0  0
    1.8531   16.1923   40.6554 H   0  0  0  0  0  0  0  0  0  0  0  0
    2.4792   13.7830   40.6855 H   0  0  0  0  0  0  0  0  0  0  0  0
    2.8833   12.6282   42.8519 H   0  0  0  0  0  0  0  0  0  0  0  0
    2.0223   16.3075   44.9666 H   0  0  0  0  0  0  0  0  0  0  0  0
    1.1441   20.8602   46.9780 H   0  0  0  0  0  0  0  0  0  0  0  0
   -0.5066   20.1965   46.7307 H   0  0  0  0  0  0  0  0  0  0  0  0
    0.9279   19.1338   46.5317 H   0  0  0  0  0  0  0  0  0  0  0  0
    0.2968   22.4425   42.5267 H   0  0  0  0  0  0  0  0  0  0  0  0
    0.8384   21.4097   40.4624 H   0  0  0  0  0  0  0  0  0  0  0  0
    1.3316   19.9288   39.5984 H   0  0  0  0  0  0  0  0  0  0  0  0
  1  2  2  0
  1  6  1  0
  2  3  1  0
  3  4  2  0
  4  5  1  0
  5  6  2  0
  6  7  1  0
  7  8  2  0
  7  9  1  0
  8 16  1  0
  9 10  2  0
 10 11  1  0
 10 15  1  0
 11 12  1  0
 11 13  1  0
 13 14  2  0
 14 15  1  0
 15 16  2  0
 16 17  1  0
  1 18  1  0
  2 19  1  0
  3 20  1  0
  5 21  1  0
 12 22  1  0
 12 23  1  0
 12 24  1  0
 14 25  1  0
 17 26  1  0
 17 27  1  0
M  END
>  <mol_id>  (21) 
2026-09-18-6fnk-s0-n100-r4-0021

>  <rmsd_to_ref>  (21) 
1.3724489795962016

>  <pose_kind>  (21) 
rigid

$$$$
6fnk.A
     RDKit          3D

 27 29  0  0  0  0  0  0  0  0999 V2000
    2.4927   15.3745   42.2658 C   0  0  0  0  0  0  0  0  0  0  0  0
    3.1822   14.3657   41.6153 C   0  0  0  0  0  0  0  0  0  0  0  0
    3.8289   14.6815   40.4479 C   0  0  0  0  0  0  0  0  0  0  0  0
    3.8063   15.9370   39.9296 N   0  0  0  0  0  0  0  0  0  0  0  0
    3.1328   16.9223   40.5649 C   0  0  0  0  0  0  0  0  0  0  0  0
    2.4605   16.6601   41.7492 C   0  0  0  0  0  0  0  0  0  0  0  0
    1.7349   17.7257   42.4320 C   0  0  0  0  0  0  0  0  0  0  0  0
    1.7406   18.9531   41.8810 N   0  0  0  0  0  0  0  0  0  0  0  0
    1.0924   17.4400   43.5795 N   0  0  0  0  0  0  0  0  0  0  0  0
    0.4198   18.4334   44.2099 C   0  0  0  0  0  0  0  0  0  0  0  0
   -0.3058   18.4623   45.3506 N   0  0  0  0  0  0  0  0  0  0  0  0
   -0.5284   17.3218   46.2080 C   0  0  0  0  0  0  0  0  0  0  0  0
   -0.7730   19.6836   45.5538 N   0  0  0  0  0  0  0  0  0  0  0  0
   -0.3708   20.4946   44.5564 C   0  0  0  0  0  0  0  0  0  0  0  0
    0.3835   19.7182   43.7003 C   0  0  0  0  0  0  0  0  0  0  0  0
    1.0617   19.9393   42.5247 C   0  0  0  0  0  0  0  0  0  0  0  0
    1.0573   21.2510   41.9525 N   0  0  0  0  0  0  0  0  0  0  0  0
    1.9706   15.1504   43.1946 H   0  0  0  0  0  0  0  0  0  0  0  0
    3.1658   13.3939   42.0706 H   0  0  0  0  0  0  0  0  0  0  0  0
    4.3709   13.8695   39.9451 H   0  0  0  0  0  0  0  0  0  0  0  0
    3.1331   17.9135   40.1267 H   0  0  0  0  0  0  0  0  0  0  0  0
   -1.4599   17.4748   46.8193 H   0  0  0  0  0  0  0  0  0  0  0  0
    0.3507   17.1536   46.8843 H   0  0  0  0  0  0  0  0  0  0  0  0
   -0.7051   16.4099   45.6067 H   0  0  0  0  0  0  0  0  0  0  0  0
   -0.5856   21.5622   44.4265 H   0  0  0  0  0  0  0  0  0  0  0  0
    1.7523   21.5528   41.2364 H   0  0  0  0  0  0  0  0  0  0  0  0
    0.3189   21.9458   42.2674 H   0  0  0  0  0  0  0  0  0  0  0  0
  1  2  2  0
  1  6  1  0
  2  3  1  0
  3  4  2  0
  4  5  1  0
  5  6  2  0
  6  7  1  0
  7  8  2  0
  7  9  1  0
  8 16  1  0
  9 10  2  0
 10 11  1  0
 10 15  1  0
 11 12  1  0
 11 13  1  0
 13 14  2  0
 14 15  1  0
 15 16  2  0
 16 17  1  0
  1 18  1  0
  2 19  1  0
  3 20  1  0
  5 21  1  0
 12 22  1  0
 12 23  1  0
 12 24  1  0
 14 25  1  0
 17 26  1  0
 17 27  1  0
M  END
>  <mol_id>  (22) 
2026-09-18-6fnk-s0-n100-r4-0022

>  <rmsd_to_ref>  (22) 
1.4183673469400853

>  <pose_kind>  (22) 
conformer

$$$$
6fnk.A
     RDKit          3D

 27 29  0  0  0  0  0  0  0  0999 V2000
    2.0480   16.7856   39.4856 C   0  0  0  0  0  0  0  0  0  0  0  0
    2.6674   15.8508   38.6559 C   0  0  0  0  0  0  0  0  0  0  0  0
    3.2128   14.6966   39.1988 C   0  0  0  0  0  0  0  0  0  0  0  0
    3.1377   14.4700   40.5759 N   0  0  0  0  0  0  0  0  0  0  0  0
    2.5154   15.4128   41.4081 C   0  0  0  0  0  0  0  0  0  0  0  0
    1.9688   16.5736   40.8641 C   0  0  0  0  0  0  0  0  0  0  0  0
    1.3512   17.5127   41.6965 C   0  0  0  0  0  0  0  0  0  0  0  0
    0.9762   18.7106   41.2270 N   0  0  0  0  0  0  0  0  0  0  0  0
    1.1224   17.2156   42.9796 N   0  0  0  0  0  0  0  0  0  0  0  0
    0.5389   18.0957   43.8126 C   0  0  0  0  0  0  0  0  0  0  0  0
    0.2276   18.0306   45.1161 N   0  0  0  0  0  0  0  0  0  0  0  0
    0.4666   16.8877   46.0024 C   0  0  0  0  0  0  0  0  0  0  0  0
   -0.3080   19.0763   45.4858 N   0  0  0  0  0  0  0  0  0  0  0  0
   -0.4040   19.8798   44.4137 C   0  0  0  0  0  0  0  0  0  0  0  0
    0.1526   19.2814   43.3520 C   0  0  0  0  0  0  0  0  0  0  0  0
    0.3722   19.5924   42.0450 C   0  0  0  0  0  0  0  0  0  0  0  0
   -0.0054   20.7931   41.5428 N   0  0  0  0  0  0  0  0  0  0  0  0
    1.6174   17.6992   39.0499 H   0  0  0  0  0  0  0  0  0  0  0  0
    2.7233   16.0288   37.5719 H   0  0  0  0  0  0  0  0  0  0  0  0
    3.7041   13.9602   38.5459 H   0  0  0  0  0  0  0  0  0  0  0  0
    2.4589   15.2354   42.4922 H   0  0  0  0  0  0  0  0  0  0  0  0
    1.0002   17.2269   46.9025 H   0  0  0  0  0  0  0  0  0  0  0  0
   -0.4959   16.4415   46.2931 H   0  0  0  0  0  0  0  0  0  0  0  0
    1.0749   16.1369   45.4767 H   0  0  0  0  0  0  0  0  0  0  0  0
   -0.8686   20.8769   44.4082 H   0  0  0  0  0  0  0  0  0  0  0  0
   -0.4691   21.4829   42.1511 H   0  0  0  0  0  0  0  0  0  0  0  0
    0.1714   21.0159   40.5529 H   0  0  0  0  0  0  0  0  0  0  0  0
  1  2  2  0
  1  6  1  0
  2  3  1  0
  3  4  2  0
  4  5  1  0
  5  6  2  0
  6  7  1  0
  7  8  2  0
  7  9  1  0
  8 16  1  0
  9 10  2  0
 10 11  1  0
 10 15  1  0
 11 12  1  0
 11 13  1  0
 13 14  2  0
 14 15  1  0
 15 16  2  0
 16 17  1  0
  1 18  1  0
  2 19  1  0
  3 20  1  0
  5 21  1  0
 12 22  1  0
 12 23  1  0
 12 24  1  0
 14 25  1  0
 17 26  1  0
 17 27  1  0
M  END
>  <mol_id>  (23) 
2026-09-18-6fnk-s0-n100-r4-0023

>  <rmsd_to_ref>  (23) 
1.4642857142859165

>  <pose_kind>  (23) 
rigid

$$$$
6fnk.A
     RDKit          3D

 27 29  0  0  0  0  0  0  0  0999 V2000
    1.8887   15.9945   40.5540 C   0  0  0  0  0  0  0  0  0  0  0  0
    1.7613   14.6550   40.1833 C   0  0  0  0  0  0  0  0  0  0  0  0
    1.4463   13.7157   41.1441 C   0  0  0  0  0  0  0  0  0  0  0  0
    1.2519   14.0265   42.4422 N   0  0  0  0  0  0  0  0  0  0  0  0
    1.3715   15.3284   42.8254 C   0  0  0  0  0  0  0  0  0  0  0  0
    1.6874   16.3012   41.8858 C   0  0  0  0  0  0  0  0  0  0  0  0
    1.8218   17.7149   42.2778 C   0  0  0  0  0  0  0  0  0  0  0  0
    2.1272   18.6781   41.3879 N   0  0  0  0  0  0  0  0  0  0  0  0
    1.6347   18.0749   43.5751 N   0  0  0  0  0  0  0  0  0  0  0  0
    1.7423   19.3394   43.9933 C   0  0  0  0  0  0  0  0  0  0  0  0
    1.6163   19.9823   45.1841 N   0  0  0  0  0  0  0  0  0  0  0  0
    1.2887   19.3190   46.4312 C   0  0  0  0  0  0  0  0  0  0  0  0
    1.8440   21.2736   44.9740 N   0  0  0  0  0  0  0  0  0  0  0  0
    2.1182   21.5112   43.6786 C   0  0  0  0  0  0  0  0  0  0  0  0
    2.0605   20.3073   43.0376 C   0  0  0  0  0  0  0  0  0  0  0  0
    2.2571   19.9780   41.7135 C   0  0  0  0  0  0  0  0  0  0  0  0
    2.5818   20.9272   40.7082 N   0  0  0  0  0  0  0  0  0  0  0  0
    2.1352   16.7388   39.8096 H   0  0  0  0  0  0  0  0  0  0  0  0
    1.9114   14.3721   39.1470 H   0  0  0  0  0  0  0  0  0  0  0  0
    1.3447   12.6716   40.8675 H   0  0  0  0  0  0  0  0  0  0  0  0
    1.2203   15.6030   43.8609 H   0  0  0  0  0  0  0  0  0  0  0  0
    1.1894   20.1145   47.2049 H   0  0  0  0  0  0  0  0  0  0  0  0
    2.0437   18.5539   46.7125 H   0  0  0  0  0  0  0  0  0  0  0  0
    0.2927   18.8240   46.3824 H   0  0  0  0  0  0  0  0  0  0  0  0
    2.3458   22.4766   43.2112 H   0  0  0  0  0  0  0  0  0  0  0  0
    3.2173   21.7283   40.9714 H   0  0  0  0  0  0  0  0  0  0  0  0
    2.2201   20.8671   39.7232 H   0  0  0  0  0  0  0  0  0  0  0  0
  1  2  2  0
  1  6  1  0
  2  3  1  0
  3  4  2  0
  4  5  1  0
  5  6  2  0
  6  7  1  0
  7  8  2  0
  7  9  1  0
  8 16  1  0
  9 10  2  0
 10 11  1  0
 10 15  1  0
 11 12  1  0
 11 13  1  0
 13 14  2  0
 14 15  1  0
 15 16  2  0
 16 17  1  0
  1 18  1  0
  2 19  1  0
  3 20  1  0
  5 21  1  0
 12 22  1  0
 12 23  1  0
 12 24  1  0
 14 25  1  0
 17 26  1  0
 17 27  1  0
M  END
>  <mol_id>  (24) 
2026-09-18-6fnk-s0-n100-r4-0024

>  <rmsd_to_ref>  (24) 
1.5102040816392075

>  <pose_kind>  (24) 
conformer

$$$$
6fnk.A
     RDKit          3D

 27 29  0  0  0  0  0  0  0  0999 V2000
    1.5119   15.5511   41.1697 C   0  0  0  0  0  0  0  0  0  0  0  0
    1.2674   14.2355   40.7756 C   0  0  0  0  0  0  0  0  0  0  0  0
    0.5716   13.3786   41.6159 C   0  0  0  0  0  0  0  0  0  0  0  0
    0.1132   13.8356   42.8546 N   0  0  0  0  0  0  0  0  0  0  0  0
    0.3620   15.1590   43.2489 C   0  0  0  0  0  0  0  0  0  0  0  0
    1.0625   16.0202   42.4064 C   0  0  0  0  0  0  0  0  0  0  0  0
    1.3111   17.3382   42.8031 C   0  0  0  0  0  0  0  0  0  0  0  0
    2.1279   18.1301   42.0949 N   0  0  0  0  0  0  0  0  0  0  0  0
    0.7233   17.8245   43.9009 N   0  0  0  0  0  0  0  0  0  0  0  0
    0.9446   19.0836   44.3186 C   0  0  0  0  0  0  0  0  0  0  0  0
    0.4904   19.7737   45.3758 N   0  0  0  0  0  0  0  0  0  0  0  0
   -0.4326   19.2732   46.3989 C   0  0  0  0  0  0  0  0  0  0  0  0
    0.9501   20.9164   45.3766 N   0  0  0  0  0  0  0  0  0  0  0  0
    1.7171   21.0419   44.2811 C   0  0  0  0  0  0  0  0  0  0  0  0
    1.7437   19.8797   43.6152 C   0  0  0  0  0  0  0  0  0  0  0  0
    2.3412   19.3988   42.4904 C   0  0  0  0  0  0  0  0  0  0  0  0
    3.1644   20.1814   41.7513 N   0  0  0  0  0  0  0  0  0  0  0  0
    2.0643   16.2262   40.4996 H   0  0  0  0  0  0  0  0  0  0  0  0
    1.6261   13.8777   39.7992 H   0  0  0  0  0  0  0  0  0  0  0  0
    0.3808   12.3401   41.3075 H   0  0  0  0  0  0  0  0  0  0  0  0
    0.0034   15.5175   44.2250 H   0  0  0  0  0  0  0  0  0  0  0  0
   -0.0060   19.4525   47.3968 H   0  0  0  0  0  0  0  0  0  0  0  0
   -1.3956   19.7976   46.3121 H   0  0  0  0  0  0  0  0  0  0  0  0
   -0.5886   18.1938   46.2554 H   0  0  0  0  0  0  0  0  0  0  0  0
    2.2431   21.9589   43.9770 H   0  0  0  0  0  0  0  0  0  0  0  0
    3.3416   21.1553   42.0357 H   0  0  0  0  0  0  0  0  0  0  0  0
    3.6129   19.8022   40.9052 H   0  0  0  0  0  0  0  0  0  0  0  0
  1  2  2  0
  1  6  1  0
  2  3  1  0
  3  4  2  0
  4  5  1  0
  5  6  2  0
  6  7  1  0
  7  8  2  0
  7  9  1  0
  8 16  1  0
  9 10  2  0
 10 11  1  0
 10 15  1  0
 11 12  1  0
 11 13  1  0
 13 14  2  0
 14 15  1  0
 15 16  2  0
 16 17  1  0
  1 18  1  0
  2 19  1  0
  3 20  1  0
  5 21  1  0
 12 22  1  0
 12 23  1  0
 12 24  1  0
 14 25  1  0
 17 26  1  0
 17 27  1  0
M  END
>  <mol_id>  (25) 
2026-09-18-6fnk-s0-n100-r4-0025

>  <rmsd_to_ref>  (25) 
1.5561224489819976

>  <pose_kind>  (25) 
rigid

$$$$
6fnk.A
     RDKit          3D

 27 29  0  0  0  0  0  0  0  0999 V2000
    1.1570   15.4001   42.9018 C   0  0  0  0  0  0  0  0  0  0  0  0
    1.2988   14.0550   42.5536 C   0  0  0  0  0  0  0  0  0  0  0  0
    1.8049   13.7506   41.2909 C   0  0  0  0  0  0  0  0  0  0  0  0
    2.1529   14.7174   40.4179 N   0  0  0  0  0  0  0  0  0  0  0  0
    2.0097   16.0101   40.7700 C   0  0  0  0  0  0  0  0  0  0  0  0
    1.5150   16.3837   42.0037 C   0  0  0  0  0  0  0  0  0  0  0  0
    1.3925   17.8056   42.3035 C   0  0  0  0  0  0  0  0  0  0  0  0
    1.7714   18.6782   41.3536 N   0  0  0  0  0  0  0  0  0  0  0  0
    0.9226   18.2508   43.4751 N   0  0  0  0  0  0  0  0  0  0  0  0
    0.8242   19.5695   43.7151 C   0  0  0  0  0  0  0  0  0  0  0  0
    0.3972   20.2982   44.7782 N   0  0  0  0  0  0  0  0  0  0  0  0
   -0.1014   19.7522   46.0258 C   0  0  0  0  0  0  0  0  0  0  0  0
    0.5110   21.5859   44.4885 N   0  0  0  0  0  0  0  0  0  0  0  0
    1.0082   21.7399   43.2464 C   0  0  0  0  0  0  0  0  0  0  0  0
    1.2157   20.4742   42.7337 C   0  0  0  0  0  0  0  0  0  0  0  0
    1.7037   20.0150   41.5171 C   0  0  0  0  0  0  0  0  0  0  0  0
    2.1093   20.9307   40.5004 N   0  0  0  0  0  0  0  0  0  0  0  0
    0.7664   15.6651   43.8759 H   0  0  0  0  0  0  0  0  0  0  0  0
    1.0231   13.2743   43.2453 H   0  0  0  0  0  0  0  0  0  0  0  0
    1.9054   12.7009   41.0444 H   0  0  0  0  0  0  0  0  0  0  0  0
    2.3114   16.7382   40.0135 H   0  0  0  0  0  0  0  0  0  0  0  0
   -1.1069   19.2846   45.9154 H   0  0  0  0  0  0  0  0  0  0  0  0
    0.6128   18.9879   46.4247 H   0  0  0  0  0  0  0  0  0  0  0  0
   -0.1356   20.5659   46.7893 H   0  0  0  0  0  0  0  0  0  0  0  0
    1.2203   22.6529   42.7129 H   0  0  0  0  0  0  0  0  0  0  0  0
    3.0998   20.9213   40.1722 H   0  0  0  0  0  0  0  0  0  0  0  0
    1.4287   21.6121   40.0783 H   0  0  0  0  0  0  0  0  0  0  0  0
  1  2  2  0
  1  6  1  0
  2  3  1  0
  3  4  2  0
  4  5  1  0
  5  6  2  0
  6  7  1  0
  7  8  2  0
  7  9  1  0
  8 16  1  0
  9 10  2  0
 10 11  1  0
 10 15  1  0
 11 12  1  0
 11 13  1  0
 13 14  2  0
 14 15  1  0
 15 16  2  0
 16 17  1  0
  1 18  1  0
  2 19  1  0
  3 20  1  0
  5 21  1  0
 12 22  1  0
 12 23  1  0
 12 24  1  0
 14 25  1  0
 17 26  1  0
 17 27  1  0
M  END
>  <mol_id>  (26) 
2026-09-18-6fnk-s0-n100-r4-0026

>  <rmsd_to_ref>  (26) 
1.6020408163289692

>  <pose_kind>  (26) 
conformer

$$$$
6fnk.A
     RDKit          3D

 27 29  0  0  0  0  0  0  0  0999 V2000
    1.1363   15.4012   41.2049 C   0  0  0  0  0  0  0  0  0  0  0  0
    0.8934   14.0552   40.9308 C   0  0  0  0  0  0  0  0  0  0  0  0
    0.4358   13.2152   41.9355 C   0  0  0  0  0  0  0  0  0  0  0  0
    0.2150   13.7194   43.2202 N   0  0  0  0  0  0  0  0  0  0  0  0
    0.4618   15.0735   43.4933 C   0  0  0  0  0  0  0  0  0  0  0  0
    0.9233   15.9178   42.4852 C   0  0  0  0  0  0  0  0  0  0  0  0
    1.1706   17.2665   42.7611 C   0  0  0  0  0  0  0  0  0  0  0  0
    1.7774   18.0549   41.8632 N   0  0  0  0  0  0  0  0  0  0  0  0
    0.7930   17.7858   43.9336 N   0  0  0  0  0  0  0  0  0  0  0  0
    1.0213   19.0757   44.2383 C   0  0  0  0  0  0  0  0  0  0  0  0
    0.7539   19.8023   45.3341 N   0  0  0  0  0  0  0  0  0  0  0  0
    0.0911   19.3172   46.5483 C   0  0  0  0  0  0  0  0  0  0  0  0
    1.1366   20.9638   45.1871 N   0  0  0  0  0  0  0  0  0  0  0  0
    1.6542   21.0633   43.9516 C   0  0  0  0  0  0  0  0  0  0  0  0
    1.6115   19.8677   43.3486 C   0  0  0  0  0  0  0  0  0  0  0  0
    1.9928   19.3527   42.1474 C   0  0  0  0  0  0  0  0  0  0  0  0
    2.6001   20.1304   41.2185 N   0  0  0  0  0  0  0  0  0  0  0  0
    1.4994   16.0627   40.4046 H   0  0  0  0  0  0  0  0  0  0  0  0
    1.0646   13.6601   39.9186 H   0  0  0  0  0  0  0  0  0  0  0  0
    0.2467   12.1530   41.7212 H   0  0  0  0  0  0  0  0  0  0  0  0
    0.2905   15.4693   44.5052 H   0  0  0  0  0  0  0  0  0  0  0  0
    0.7019   19.5730   47.4266 H   0  0  0  0  0  0  0  0  0  0  0  0
   -0.8982   19.7894   46.6395 H   0  0  0  0  0  0  0  0  0  0  0  0
   -0.0278   18.2252   46.4898 H   0  0  0  0  0  0  0  0  0  0  0  0
    2.0523   21.9856   43.5034 H   0  0  0  0  0  0  0  0  0  0  0  0
    2.7747   21.1263   41.4151 H   0  0  0  0  0  0  0  0  0  0  0  0
    2.8870   19.7256   40.3159 H   0  0  0  0  0  0  0  0  0  0  0  0
  1  2  2  0
  1  6  1  0
  2  3  1  0
  3  4  2  0
  4  5  1  0
  5  6  2  0
  6  7  1  0
  7  8  2  0
  7  9  1  0
  8 16  1  0
  9 10  2  0
 10 11  1  0
 10 15  1  0
 11 12  1  0
 11 13  1  0
 13 14  2  0
 14 15  1  0
 15 16  2  0
 16 17  1  0
  1 18  1  0
  2 19  1  0
  3 20  1  0
  5 21  1  0
 12 22  1  0
 12 23  1  0
 12 24  1  0
 14 25  1  0
 17 26  1  0
 17 27  1  0
M  END
>  <mol_id>  (27) 
2026-09-18-6fnk-s0-n100-r4-0027

>  <rmsd_to_ref>  (27) 
1.647959183677413

>  <pose_kind>  (27) 
rigid

$$$$
6fnk.A
     RDKit          3D

 27 29  0  0  0  0  0  0  0  0999 V2000
    1.4386   15.0478   42.3610 C   0  0  0  0  0  0  0  0  0  0  0  0
    1.6681   13.9046   41.5999 C   0  0  0  0  0  0  0  0  0  0  0  0
    1.7060   14.0080   40.2131 C   0  0  0  0  0  0  0  0  0  0  0  0
    1.5238   15.1991   39.5885 N   0  0  0  0  0  0  0  0  0  0  0  0
    1.2988   16.3225   40.3217 C   0  0  0  0  0  0  0  0  0  0  0  0
    1.2542   16.2563   41.7168 C   0  0  0  0  0  0  0  0  0  0  0  0
    1.0091   17.4958   42.4465 C   0  0  0  0  0  0  0  0  0  0  0  0
    0.8426   18.6196   41.7248 N   0  0  0  0  0  0  0  0  0  0  0  0
    0.9556   17.4917   43.7910 N   0  0  0  0  0  0  0  0  0  0  0  0
    0.7289   18.6352   44.4787 C   0  0  0  0  0  0  0  0  0  0  0  0
    0.6188   18.9672   45.7778 N   0  0  0  0  0  0  0  0  0  0  0  0
    0.7473   17.9830   46.8418 C   0  0  0  0  0  0  0  0  0  0  0  0
    0.3878   20.2647   45.9068 N   0  0  0  0  0  0  0  0  0  0  0  0
    0.3382   20.8351   44.6747 C   0  0  0  0  0  0  0  0  0  0  0  0
    0.5541   19.8040   43.7684 C   0  0  0  0  0  0  0  0  0  0  0  0
    0.6134   19.7854   42.3783 C   0  0  0  0  0  0  0  0  0  0  0  0
    0.4341   20.9908   41.6208 N   0  0  0  0  0  0  0  0  0  0  0  0
    1.4047   14.9909   43.4482 H   0  0  0  0  0  0  0  0  0  0  0  0
    1.8141   12.9542   42.0823 H   0  0  0  0  0  0  0  0  0  0  0  0
    1.8807   13.1514   39.5753 H   0  0  0  0  0  0  0  0  0  0  0  0
    1.1589   17.2505   39.7845 H   0  0  0  0  0  0  0  0  0  0  0  0
    0.6948   18.5171   47.8210 H   0  0  0  0  0  0  0  0  0  0  0  0
   -0.0950   17.2656   46.8678 H   0  0  0  0  0  0  0  0  0  0  0  0
    1.7347   17.4724   46.8015 H   0  0  0  0  0  0  0  0  0  0  0  0
    0.1634   21.8940   44.4390 H   0  0  0  0  0  0  0  0  0  0  0  0
   -0.4899   21.5001   41.5980 H   0  0  0  0  0  0  0  0  0  0  0  0
    1.2781   21.3209   41.1003 H   0  0  0  0  0  0  0  0  0  0  0  0
  1  2  2  0
  1  6  1  0
  2  3  1  0
  3  4  2  0
  4  5  1  0
  5  6  2  0
  6  7  1  0
  7  8  2  0
  7  9  1  0
  8 16  1  0
  9 10  2  0
 10 11  1  0
 10 15  1  0
 11 12  1  0
 11 13  1  0
 13 14  2  0
 14 15  1  0
 15 16  2  0
 16 17  1  0
  1 18  1  0
  2 19  1  0
  3 20  1  0
  5 21  1  0
 12 22  1  0
 12 23  1  0
 12 24  1  0
 14 25  1  0
 17 26  1  0
 17 27  1  0
M  END
>  <mol_id>  (28) 
2026-09-18-6fnk-s0-n100-r4-0028

>  <rmsd_to_ref>  (28) 
1.6938775510210329

>  <pose_kind>  (28) 
conformer

$$$$
6fnk.A
     RDKit          3D

 27 29  0  0  0  0  0  0  0  0999 V2000
    2.6658   15.7424   41.3714 C   0  0  0  0  0  0  0  0  0  0  0  0
    2.4160   14.4175   41.0133 C   0  0  0  0  0  0  0  0  0  0  0  0
    1.3742   13.7231   41.6107 C   0  0  0  0  0  0  0  0  0  0  0  0
    0.5738   14.3529   42.5677 N   0  0  0  0  0  0  0  0  0  0  0  0
    0.8284   15.6852   42.9270 C   0  0  0  0  0  0  0  0  0  0  0  0
    1.8759   16.3832   42.3289 C   0  0  0  0  0  0  0  0  0  0  0  0
    2.1288   17.7104   42.6907 C   0  0  0  0  0  0  0  0  0  0  0  0
    3.2297   18.3446   42.2642 N   0  0  0  0  0  0  0  0  0  0  0  0
    1.2605   18.3649   43.4683 N   0  0  0  0  0  0  0  0  0  0  0  0
    1.4736   19.6385   43.8442 C   0  0  0  0  0  0  0  0  0  0  0  0
    0.7681   20.4787   44.6167 N   0  0  0  0  0  0  0  0  0  0  0  0
   -0.5053   20.1771   45.2774 C   0  0  0  0  0  0  0  0  0  0  0  0
    1.3335   21.5699   44.6977 N   0  0  0  0  0  0  0  0  0  0  0  0
    2.4417   21.5057   43.9414 C   0  0  0  0  0  0  0  0  0  0  0  0
    2.5568   20.2789   43.4156 C   0  0  0  0  0  0  0  0  0  0  0  0
    3.4442   19.6259   42.6159 C   0  0  0  0  0  0  0  0  0  0  0  0
    4.5606   20.2468   42.1637 N   0  0  0  0  0  0  0  0  0  0  0  0
    3.4934   16.2882   40.8947 H   0  0  0  0  0  0  0  0  0  0  0  0
    3.0447   13.9236   40.2578 H   0  0  0  0  0  0  0  0  0  0  0  0
    1.1782   12.6773   41.3313 H   0  0  0  0  0  0  0  0  0  0  0  0
    0.1999   16.1797   43.6822 H   0  0  0  0  0  0  0  0  0  0  0  0
   -0.4326   20.4282   46.3458 H   0  0  0  0  0  0  0  0  0  0  0  0
   -1.3078   20.7705   44.8150 H   0  0  0  0  0  0  0  0  0  0  0  0
   -0.7311   19.1062   45.1670 H   0  0  0  0  0  0  0  0  0  0  0  0
    3.1470   22.3340   43.7786 H   0  0  0  0  0  0  0  0  0  0  0  0
    4.7445   21.2272   42.4205 H   0  0  0  0  0  0  0  0  0  0  0  0
    5.2252   19.7385   41.5630 H   0  0  0  0  0  0  0  0  0  0  0  0
  1  2  2  0
  1  6  1  0
  2  3  1  0
  3  4  2  0
  4  5  1  0
  5  6  2  0
  6  7  1  0
  7  8  2  0
  7  9  1  0
  8 16  1  0
  9 10  2  0
 10 11  1  0
 10 15  1  0
 11 12  1  0
 11 13  1  0
 13 14  2  0
 14 15  1  0
 15 16  2  0
 16 17  1  0
  1 18  1  0
  2 19  1  0
  3 20  1  0
  5 21  1  0
 12 22  1  0
 12 23  1  0
 12 24  1  0
 14 25  1  0
 17 26  1  0
 17 27  1  0
M  END
>  <mol_id>  (29) 
2026-09-18-6fnk-s0-n100-r4-0029

>  <rmsd_to_ref>  (29) 
1.7397959183698772

>  <pose_kind>  (29) 
rigid

$$$$
6fnk.A
     RDKit          3D

 27 29  0  0  0  0  0  0  0  0999 V2000
    1.6091   15.4222   41.4371 C   0  0  0  0  0  0  0  0  0  0  0  0
    1.7204   14.3915   40.5486 C   0  0  0  0  0  0  0  0  0  0  0  0
    2.3845   14.6091   39.3741 C   0  0  0  0  0  0  0  0  0  0  0  0
    2.9342   15.7968   39.0546 N   0  0  0  0  0  0  0  0  0  0  0  0
    2.8354   16.8335   39.9222 C   0  0  0  0  0  0  0  0  0  0  0  0
    2.1698   16.6405   41.1157 C   0  0  0  0  0  0  0  0  0  0  0  0
    2.0572   17.7518   42.0591 C   0  0  0  0  0  0  0  0  0  0  0  0
    2.5956   18.9486   41.7683 N   0  0  0  0  0  0  0  0  0  0  0  0
    1.4149   17.5920   43.2281 N   0  0  0  0  0  0  0  0  0  0  0  0
    1.2910   18.5820   44.1155 C   0  0  0  0  0  0  0  0  0  0  0  0
    0.7142   18.6954   45.3318 N   0  0  0  0  0  0  0  0  0  0  0  0
    0.0152   17.6023   46.0080 C   0  0  0  0  0  0  0  0  0  0  0  0
    0.8931   19.9219   45.7724 N   0  0  0  0  0  0  0  0  0  0  0  0
    1.5837   20.6702   44.8892 C   0  0  0  0  0  0  0  0  0  0  0  0
    1.8394   19.8138   43.8274 C   0  0  0  0  0  0  0  0  0  0  0  0
    2.5040   19.9986   42.6304 C   0  0  0  0  0  0  0  0  0  0  0  0
    3.0951   21.2455   42.2677 N   0  0  0  0  0  0  0  0  0  0  0  0
    1.0792   15.2687   42.3875 H   0  0  0  0  0  0  0  0  0  0  0  0
    1.2710   13.4330   40.8179 H   0  0  0  0  0  0  0  0  0  0  0  0
    2.4758   13.7895   38.6620 H   0  0  0  0  0  0  0  0  0  0  0  0
    3.2851   17.7932   39.6532 H   0  0  0  0  0  0  0  0  0  0  0  0
   -0.5604   17.0116   45.2629 H   0  0  0  0  0  0  0  0  0  0  0  0
   -0.5985   18.0371   46.8131 H   0  0  0  0  0  0  0  0  0  0  0  0
    0.7323   16.8881   46.4938 H   0  0  0  0  0  0  0  0  0  0  0  0
    1.8841   21.7083   44.9671 H   0  0  0  0  0  0  0  0  0  0  0  0
    2.5893   22.1575   42.3189 H   0  0  0  0  0  0  0  0  0  0  0  0
    4.1035   21.1896   41.9348 H   0  0  0  0  0  0  0  0  0  0  0  0
  1  2  2  0
  1  6  1  0
  2  3  1  0
  3  4  2  0
  4  5  1  0
  5  6  2  0
  6  7  1  0
  7  8  2  0
  7  9  1  0
  8 16  1  0
  9 10  2  0
 10 11  1  0
 10 15  1  0
 11 12  1  0
 11 13  1  0
 13 14  2  0
 14 15  1  0
 15 16  2  0
 16 17  1  0
  1 18  1  0
  2 19  1  0
  3 20  1  0
  5 21  1  0
 12 22  1  0
 12 23  1  0
 12 24  1  0
 14 25  1  0
 17 26  1  0
 17 27  1  0
M  END
>  <mol_id>  (30) 
2026-09-18-6fnk-s0-n100-r4-0030

>  <rmsd_to_ref>  (30) 
1.7857142857187414

>  <pose_kind>  (30) 
conformer

$$$$
6fnk.A
     RDKit          3D

 27 29  0  0  0  0  0  0  0  0999 V2000
    2.2103   16.2587   40.3628 C   0  0  0  0  0  0  0  0  0  0  0  0
    1.8382   15.0652   39.7438 C   0  0  0  0  0  0  0  0  0  0  0  0
    0.9556   14.2023   40.3770 C   0  0  0  0  0  0  0  0  0  0  0  0
    0.4373   14.5316   41.6325 N   0  0  0  0  0  0  0  0  0  0  0  0
    0.8146   15.7321   42.2532 C   0  0  0  0  0  0  0  0  0  0  0  0
    1.7027   16.5988   41.6190 C   0  0  0  0  0  0  0  0  0  0  0  0
    2.0787   17.7936   42.2413 C   0  0  0  0  0  0  0  0  0  0  0  0
    3.0590   18.5559   41.7373 N   0  0  0  0  0  0  0  0  0  0  0  0
    1.4510   18.1911   43.3526 N   0  0  0  0  0  0  0  0  0  0  0  0
    1.7904   19.3291   43.9839 C   0  0  0  0  0  0  0  0  0  0  0  0
    1.3249   19.9128   45.0988 N   0  0  0  0  0  0  0  0  0  0  0  0
    0.2460   19.4041   45.9510 C   0  0  0  0  0  0  0  0  0  0  0  0
    1.9267   20.9645   45.3201 N   0  0  0  0  0  0  0  0  0  0  0  0
    2.8104   21.1394   44.3238 C   0  0  0  0  0  0  0  0  0  0  0  0
    2.7532   20.0973   43.4838 C   0  0  0  0  0  0  0  0  0  0  0  0
    3.3939   19.7077   42.3476 C   0  0  0  0  0  0  0  0  0  0  0  0
    4.3824   20.4646   41.8122 N   0  0  0  0  0  0  0  0  0  0  0  0
    2.9106   16.9391   39.8563 H   0  0  0  0  0  0  0  0  0  0  0  0
    2.2444   14.8085   38.7543 H   0  0  0  0  0  0  0  0  0  0  0  0
    0.6638   13.2595   39.8911 H   0  0  0  0  0  0  0  0  0  0  0  0
    0.4086   15.9896   43.2426 H   0  0  0  0  0  0  0  0  0  0  0  0
    0.5890   19.3700   46.9956 H   0  0  0  0  0  0  0  0  0  0  0  0
   -0.6270   20.0687   45.8732 H   0  0  0  0  0  0  0  0  0  0  0  0
   -0.0334   18.3918   45.6236 H   0  0  0  0  0  0  0  0  0  0  0  0
    3.4790   22.0060   44.2144 H   0  0  0  0  0  0  0  0  0  0  0  0
    4.6548   21.3497   42.2629 H   0  0  0  0  0  0  0  0  0  0  0  0
    4.8612   20.1546   40.9546 H   0  0  0  0  0  0  0  0  0  0  0  0
  1  2  2  0
  1  6  1  0
  2  3  1  0
  3  4  2  0
  4  5  1  0
  5  6  2  0
  6  7  1  0
  7  8  2  0
  7  9  1  0
  8 16  1  0
  9 10  2  0
 10 11  1  0
 10 15  1  0
 11 12  1  0
 11 13  1  0
 13 14  2  0
 14 15  1  0
 15 16  2  0
 16 17  1  0
  1 18  1  0
  2 19  1  0
  3 20  1  0
  5 21  1  0
 12 22  1  0
 12 23  1  0
 12 24  1  0
 14 25  1  0
 17 26  1  0
 17 27  1  0
M  END
>  <mol_id>  (31) 
2026-09-18-6fnk-s0-n100-r4-0031

>  <rmsd_to_ref>  (31) 
1.8316326530650067

>  <pose_kind>  (31) 
rigid

$$$$
6fnk.A
     RDKit          3D

 27 29  0  0  0  0  0  0  0  0999 V2000
    1.8988   15.0008   40.6541 C   0  0  0  0  0  0  0  0  0  0  0  0
    1.5710   13.6784   40.4737 C   0  0  0  0  0  0  0  0  0  0  0  0
    0.8013   13.0581   41.4352 C   0  0  0  0  0  0  0  0  0  0  0  0
    0.3510   13.6676   42.5397 N   0  0  0  0  0  0  0  0  0  0  0  0
    0.6690   14.9715   42.7263 C   0  0  0  0  0  0  0  0  0  0  0  0
    1.4386   15.6352   41.7892 C   0  0  0  0  0  0  0  0  0  0  0  0
    1.7973   17.0395   41.9629 C   0  0  0  0  0  0  0  0  0  0  0  0
    2.5414   17.7229   41.0802 N   0  0  0  0  0  0  0  0  0  0  0  0
    1.3751   17.7061   43.0512 N   0  0  0  0  0  0  0  0  0  0  0  0
    1.6554   18.9904   43.2911 C   0  0  0  0  0  0  0  0  0  0  0  0
    1.3515   19.8490   44.2858 N   0  0  0  0  0  0  0  0  0  0  0  0
    0.5484   19.4804   45.4441 C   0  0  0  0  0  0  0  0  0  0  0  0
    1.9023   21.0351   44.0115 N   0  0  0  0  0  0  0  0  0  0  0  0
    2.5655   20.9673   42.8474 C   0  0  0  0  0  0  0  0  0  0  0  0
    2.4224   19.6798   42.3728 C   0  0  0  0  0  0  0  0  0  0  0  0
    2.8750   19.0131   41.2327 C   0  0  0  0  0  0  0  0  0  0  0  0
    3.6674   19.6986   40.2690 N   0  0  0  0  0  0  0  0  0  0  0  0
    2.5016   15.4831   39.8993 H   0  0  0  0  0  0  0  0  0  0  0  0
    1.9294   13.1718   39.5828 H   0  0  0  0  0  0  0  0  0  0  0  0
    0.5373   12.0201   41.3051 H   0  0  0  0  0  0  0  0  0  0  0  0
    0.3151   15.4987   43.6213 H   0  0  0  0  0  0  0  0  0  0  0  0
   -0.0024   20.3727   45.8230 H   0  0  0  0  0  0  0  0  0  0  0  0
   -0.2066   18.7253   45.1707 H   0  0  0  0  0  0  0  0  0  0  0  0
    1.1723   19.1113   46.2912 H   0  0  0  0  0  0  0  0  0  0  0  0
    3.1281   21.7240   42.3138 H   0  0  0  0  0  0  0  0  0  0  0  0
    4.6753   19.4544   40.1418 H   0  0  0  0  0  0  0  0  0  0  0  0
    3.1761   20.4420   39.7165 H   0  0  0  0  0  0  0  0  0  0  0  0
  1  2  2  0
  1  6  1  0
  2  3  1  0
  3  4  2  0
  4  5  1  0
  5  6  2  0
  6  7  1  0
  7  8  2  0
  7  9  1  0
  8 16  1  0
  9 10  2  0
 10 11  1  0
 10 15  1  0
 11 12  1  0
 11 13  1  0
 13 14  2  0
 14 15  1  0
 15 16  2  0
 16 17  1  0
  1 18  1  0
  2 19  1  0
  3 20  1  0
  5 21  1  0
 12 22  1  0
 12 23  1  0
 12 24  1  0
 14 25  1  0
 17 26  1  0
 17 27  1  0
M  END
>  <mol_id>  (32) 
2026-09-18-6fnk-s0-n100-r4-0032

>  <rmsd_to_ref>  (32) 
1.8775510204088368

>  <pose_kind>  (32) 
conformer

$$$$
6fnk.A
     RDKit          3D

 27 29  0  0  0  0  0  0  0  0999 V2000
    4.6478   16.8090   41.9346 C   0  0  0  0  0  0  0  0  0  0  0  0
    5.6919   15.9295   42.2216 C   0  0  0  0  0  0  0  0  0  0  0  0
    5.6654   15.1802   43.3888 C   0  0  0  0  0  0  0  0  0  0  0  0
    4.5910   15.3047   44.2739 N   0  0  0  0  0  0  0  0  0  0  0  0
    3.5430   16.1913   43.9833 C   0  0  0  0  0  0  0  0  0  0  0  0
    3.5694   16.9459   42.8119 C   0  0  0  0  0  0  0  0  0  0  0  0
    2.5245   17.8306   42.5261 C   0  0  0  0  0  0  0  0  0  0  0  0
    2.6089   18.6912   41.5023 N   0  0  0  0  0  0  0  0  0  0  0  0
    1.4187   17.8190   43.2773 N   0  0  0  0  0  0  0  0  0  0  0  0
    0.3969   18.6603   43.0387 C   0  0  0  0  0  0  0  0  0  0  0  0
   -0.7821   18.8410   43.6532 N   0  0  0  0  0  0  0  0  0  0  0  0
   -1.2688   18.0964   44.8183 C   0  0  0  0  0  0  0  0  0  0  0  0
   -1.4286   19.7293   43.0963 N   0  0  0  0  0  0  0  0  0  0  0  0
   -0.7033   20.1591   42.0506 C   0  0  0  0  0  0  0  0  0  0  0  0
    0.4674   19.5086   42.0176 C   0  0  0  0  0  0  0  0  0  0  0  0
    1.5846   19.5239   41.2398 C   0  0  0  0  0  0  0  0  0  0  0  0
    1.6918   20.3779   40.1931 N   0  0  0  0  0  0  0  0  0  0  0  0
    4.6740   17.4008   41.0078 H   0  0  0  0  0  0  0  0  0  0  0  0
    6.5356   15.8301   41.5229 H   0  0  0  0  0  0  0  0  0  0  0  0
    6.4896   14.4886   43.6176 H   0  0  0  0  0  0  0  0  0  0  0  0
    2.6989   16.2910   44.6815 H   0  0  0  0  0  0  0  0  0  0  0  0
   -1.5899   18.8034   45.5974 H   0  0  0  0  0  0  0  0  0  0  0  0
   -2.1203   17.4665   44.5214 H   0  0  0  0  0  0  0  0  0  0  0  0
   -0.4615   17.4604   45.2105 H   0  0  0  0  0  0  0  0  0  0  0  0
   -1.0220   20.9279   41.3313 H   0  0  0  0  0  0  0  0  0  0  0  0
    0.9199   21.0238   39.9743 H   0  0  0  0  0  0  0  0  0  0  0  0
    2.5451   20.3811   39.6163 H   0  0  0  0  0  0  0  0  0  0  0  0
  1  2  2  0
  1  6  1  0
  2  3  1  0
  3  4  2  0
  4  5  1  0
  5  6  2  0
  6  7  1  0
  7  8  2  0
  7  9  1  0
  8 16  1  0
  9 10  2  0
 10 11  1  0
 10 15  1  0
 11 12  1  0
 11 13  1  0
 13 14  2  0
 14 15  1  0
 15 16  2  0
 16 17  1  0
  1 18  1  0
  2 19  1  0
  3 20  1  0
  5 21  1  0
 12 22  1  0
 12 23  1  0
 12 24  1  0
 14 25  1  0
 17 26  1  0
 17 27  1  0
M  END
>  <mol_id>  (33) 
2026-09-18-6fnk-s0-n100-r4-0033

>  <rmsd_to_ref>  (33) 
1.9234693877564832

>  <pose_kind>  (33) 
rigid

$$$$
6fnk.A
     RDKit          3D

 27 29  0  0  0  0  0  0  0  0999 V2000
    1.0944   14.7577   41.7802 C   0  0  0  0  0  0  0  0  0  0  0  0
    0.9463   13.6253   41.0151 C   0  0  0  0  0  0  0  0  0  0  0  0
    1.3472   13.6955   39.6799 C   0  0  0  0  0  0  0  0  0  0  0  0
    1.8620   14.8408   39.1658 N   0  0  0  0  0  0  0  0  0  0  0  0
    2.0004   15.9502   39.9390 C   0  0  0  0  0  0  0  0  0  0  0  0
    1.6124   15.9063   41.2584 C   0  0  0  0  0  0  0  0  0  0  0  0
    1.7615   17.0896   42.0781 C   0  0  0  0  0  0  0  0  0  0  0  0
    2.2821   18.1906   41.4929 N   0  0  0  0  0  0  0  0  0  0  0  0
    1.3899   17.0811   43.3801 N   0  0  0  0  0  0  0  0  0  0  0  0
    1.5551   18.2226   44.0953 C   0  0  0  0  0  0  0  0  0  0  0  0
    1.2856   18.5292   45.3951 N   0  0  0  0  0  0  0  0  0  0  0  0
    0.7180   17.6595   46.4093 C   0  0  0  0  0  0  0  0  0  0  0  0
    1.6360   19.8047   45.6089 N   0  0  0  0  0  0  0  0  0  0  0  0
    2.1321   20.3564   44.4855 C   0  0  0  0  0  0  0  0  0  0  0  0
    2.0840   19.3691   43.5323 C   0  0  0  0  0  0  0  0  0  0  0  0
    2.4510   19.3333   42.1964 C   0  0  0  0  0  0  0  0  0  0  0  0
    2.9992   20.4989   41.5872 N   0  0  0  0  0  0  0  0  0  0  0  0
    0.7828   14.7121   42.8283 H   0  0  0  0  0  0  0  0  0  0  0  0
    0.5349   12.6997   41.4143 H   0  0  0  0  0  0  0  0  0  0  0  0
    1.2394   12.8162   39.0604 H   0  0  0  0  0  0  0  0  0  0  0  0
    2.4147   16.8414   39.4902 H   0  0  0  0  0  0  0  0  0  0  0  0
    0.2675   16.7803   45.9060 H   0  0  0  0  0  0  0  0  0  0  0  0
    1.4413   17.2899   47.1403 H   0  0  0  0  0  0  0  0  0  0  0  0
   -0.0934   18.1767   46.9872 H   0  0  0  0  0  0  0  0  0  0  0  0
    2.4864   21.3760   44.3946 H   0  0  0  0  0  0  0  0  0  0  0  0
    2.3747   21.2855   41.2946 H   0  0  0  0  0  0  0  0  0  0  0  0
    4.0339   20.5738   41.4288 H   0  0  0  0  0  0  0  0  0  0  0  0
  1  2  2  0
  1  6  1  0
  2  3  1  0
  3  4  2  0
  4  5  1  0
  5  6  2  0
  6  7  1  0
  7  8  2  0
  7  9  1  0
  8 16  1  0
  9 10  2  0
 10 11  1  0
 10 15  1  0
 11 12  1  0
 11 13  1  0
 13 14  2  0
 14 15  1  0
 15 16  2  0
 16 17  1  0
  1 18  1  0
  2 19  1  0
  3 20  1  0
  5 21  1  0
 12 22  1  0
 12 23  1  0
 12 24  1  0
 14 25  1  0
 17 26  1  0
 17 27  1  0
M  END
>  <mol_id>  (34) 
2026-09-18-6fnk-s0-n100-r4-0034

>  <rmsd_to_ref>  (34) 
1.9693877551076446

>  <pose_kind>  (34) 
conformer

$$$$
6fnk.A
     RDKit          3D

 27 29  0  0  0  0  0  0  0  0999 V2000
    2.7021   16.2349   40.8369 C   0  0  0  0  0  0  0  0  0  0  0  0
    2.5025   14.9679   40.2886 C   0  0  0  0  0  0  0  0  0  0  0  0
    1.2578   14.3621   40.3791 C   0  0  0  0  0  0  0  0  0  0  0  0
    0.2043   15.0236   41.0162 N   0  0  0  0  0  0  0  0  0  0  0  0
    0.4085   16.2974   41.5682 C   0  0  0  0  0  0  0  0  0  0  0  0
    1.6590   16.9061   41.4796 C   0  0  0  0  0  0  0  0  0  0  0  0
    1.8602   18.1748   42.0328 C   0  0  0  0  0  0  0  0  0  0  0  0
    3.0882   18.7049   42.1164 N   0  0  0  0  0  0  0  0  0  0  0  0
    0.8156   18.8783   42.4813 N   0  0  0  0  0  0  0  0  0  0  0  0
    0.9704   20.0976   43.0274 C   0  0  0  0  0  0  0  0  0  0  0  0
    0.0926   20.9673   43.5502 N   0  0  0  0  0  0  0  0  0  0  0  0
   -1.3572   20.7736   43.6481 C   0  0  0  0  0  0  0  0  0  0  0  0
    0.6701   21.9826   43.9411 N   0  0  0  0  0  0  0  0  0  0  0  0
    1.9751   21.8370   43.6584 C   0  0  0  0  0  0  0  0  0  0  0  0
    2.1836   20.6358   43.1029 C   0  0  0  0  0  0  0  0  0  0  0  0
    3.2543   19.9330   42.6414 C   0  0  0  0  0  0  0  0  0  0  0  0
    4.5055   20.4496   42.7059 N   0  0  0  0  0  0  0  0  0  0  0  0
    3.6912   16.7105   40.7625 H   0  0  0  0  0  0  0  0  0  0  0  0
    3.3315   14.4494   39.7847 H   0  0  0  0  0  0  0  0  0  0  0  0
    1.1000   13.3618   39.9497 H   0  0  0  0  0  0  0  0  0  0  0  0
   -0.4201   16.8165   42.0720 H   0  0  0  0  0  0  0  0  0  0  0  0
   -1.6824   20.9558   44.6830 H   0  0  0  0  0  0  0  0  0  0  0  0
   -1.8674   21.4774   42.9741 H   0  0  0  0  0  0  0  0  0  0  0  0
   -1.6095   19.7422   43.3607 H   0  0  0  0  0  0  0  0  0  0  0  0
    2.7538   22.5892   43.8532 H   0  0  0  0  0  0  0  0  0  0  0  0
    4.6554   21.3877   43.1039 H   0  0  0  0  0  0  0  0  0  0  0  0
    5.3065   19.9041   42.3569 H   0  0  0  0  0  0  0  0  0  0  0  0
  1  2  2  0
  1  6  1  0
  2  3  1  0
  3  4  2  0
  4  5  1  0
  5  6  2  0
  6  7  1  0
  7  8  2  0
  7  9  1  0
  8 16  1  0
  9 10  2  0
 10 11  1  0
 10 15  1  0
 11 12  1  0
 11 13  1  0
 13 14  2  0
 14 15  1  0
 15 16  2  0
 16 17  1  0
  1 18  1  0
  2 19  1  0
  3 20  1  0
  5 21  1  0
 12 22  1  0
 12 23  1  0
 12 24  1  0
 14 25  1  0
 17 26  1  0
 17 27  1  0
M  END
>  <mol_id>  (35) 
2026-09-18-6fnk-s0-n100-r4-0035

>  <rmsd_to_ref>  (35) 
2.015306122452114

>  <pose_kind>  (35) 
rigid

$$$$
6fnk.A
     RDKit          3D

 27 29  0  0  0  0  0  0  0  0999 V2000
    3.1782   15.9265   42.2842 C   0  0  0  0  0  0  0  0  0  0  0  0
    4.2088   15.2626   41.6397 C   0  0  0  0  0  0  0  0  0  0  0  0
    5.0975   15.9294   40.8117 C   0  0  0  0  0  0  0  0  0  0  0  0
    4.9344   17.2498   40.6468 N   0  0  0  0  0  0  0  0  0  0  0  0
    3.9442   17.9519   41.2519 C   0  0  0  0  0  0  0  0  0  0  0  0
    3.0623   17.2854   42.0746 C   0  0  0  0  0  0  0  0  0  0  0  0
    1.9911   18.0283   42.7329 C   0  0  0  0  0  0  0  0  0  0  0  0
    1.8725   19.3548   42.5326 N   0  0  0  0  0  0  0  0  0  0  0  0
    1.1209   17.3922   43.5400 N   0  0  0  0  0  0  0  0  0  0  0  0
    0.1105   18.0610   44.1679 C   0  0  0  0  0  0  0  0  0  0  0  0
   -0.8685   17.6674   45.0052 N   0  0  0  0  0  0  0  0  0  0  0  0
   -1.0699   16.3029   45.4593 C   0  0  0  0  0  0  0  0  0  0  0  0
   -1.5949   18.7129   45.3327 N   0  0  0  0  0  0  0  0  0  0  0  0
   -1.1237   19.8350   44.7249 C   0  0  0  0  0  0  0  0  0  0  0  0
   -0.0228   19.4248   43.9707 C   0  0  0  0  0  0  0  0  0  0  0  0
    0.8751   20.0636   43.1418 C   0  0  0  0  0  0  0  0  0  0  0  0
    0.7179   21.4543   42.9570 N   0  0  0  0  0  0  0  0  0  0  0  0
    2.4928   15.3890   42.9279 H   0  0  0  0  0  0  0  0  0  0  0  0
    4.2934   14.1926   41.8098 H   0  0  0  0  0  0  0  0  0  0  0  0
    5.8880   15.3721   40.3280 H   0  0  0  0  0  0  0  0  0  0  0  0
    3.8806   19.0165   41.0669 H   0  0  0  0  0  0  0  0  0  0  0  0
   -1.0560   16.2777   46.5683 H   0  0  0  0  0  0  0  0  0  0  0  0
   -0.3348   15.6301   45.0111 H   0  0  0  0  0  0  0  0  0  0  0  0
   -2.0611   15.9947   45.0482 H   0  0  0  0  0  0  0  0  0  0  0  0
   -1.5001   20.8484   44.7910 H   0  0  0  0  0  0  0  0  0  0  0  0
    1.5159   22.1195   43.1713 H   0  0  0  0  0  0  0  0  0  0  0  0
   -0.2054   21.8046   42.6041 H   0  0  0  0  0  0  0  0  0  0  0  0
  1  2  2  0
  1  6  1  0
  2  3  1  0
  3  4  2  0
  4  5  1  0
  5  6  2  0
  6  7  1  0
  7  8  2  0
  7  9  1  0
  8 16  1  0
  9 10  2  0
 10 11  1  0
 10 15  1  0
 11 12  1  0
 11 13  1  0
 13 14  2  0
 14 15  1  0
 15 16  2  0
 16 17  1  0
  1 18  1  0
  2 19  1  0
  3 20  1  0
  5 21  1  0
 12 22  1  0
 12 23  1  0
 12 24  1  0
 14 25  1  0
 17 26  1  0
 17 27  1  0
M  END
>  <mol_id>  (36) 
2026-09-18-6fnk-s0-n100-r4-0036

>  <rmsd_to_ref>  (36) 
2.061224489796057

>  <pose_kind>  (36) 
conformer

$$$$
6fnk.A
     RDKit          3D

 27 29  0  0  0  0  0  0  0  0999 V2000
    2.5569   17.1281   39.1173 C   0  0  0  0  0  0  0  0  0  0  0  0
    3.3667   16.4420   38.2121 C   0  0  0  0  0  0  0  0  0  0  0  0
    4.3223   15.5497   38.6757 C   0  0  0  0  0  0  0  0  0  0  0  0
    4.4699   15.3364   40.0490 N   0  0  0  0  0  0  0  0  0  0  0  0
    3.6550   16.0291   40.9572 C   0  0  0  0  0  0  0  0  0  0  0  0
    2.6959   16.9272   40.4927 C   0  0  0  0  0  0  0  0  0  0  0  0
    1.8867   17.6180   41.4005 C   0  0  0  0  0  0  0  0  0  0  0  0
    1.0833   18.6103   40.9931 N   0  0  0  0  0  0  0  0  0  0  0  0
    1.9046   17.2848   42.6950 N   0  0  0  0  0  0  0  0  0  0  0  0
    1.1473   17.9316   43.5989 C   0  0  0  0  0  0  0  0  0  0  0  0
    1.0119   17.7892   44.9261 N   0  0  0  0  0  0  0  0  0  0  0  0
    1.7123   16.8104   45.7630 C   0  0  0  0  0  0  0  0  0  0  0  0
    0.1958   18.5996   45.3672 N   0  0  0  0  0  0  0  0  0  0  0  0
   -0.2752   19.3037   44.3248 C   0  0  0  0  0  0  0  0  0  0  0  0
    0.3385   18.9088   43.2013 C   0  0  0  0  0  0  0  0  0  0  0  0
    0.3047   19.2515   41.8842 C   0  0  0  0  0  0  0  0  0  0  0  0
   -0.5053   20.2450   41.4446 N   0  0  0  0  0  0  0  0  0  0  0  0
    1.8009   17.8348   38.7442 H   0  0  0  0  0  0  0  0  0  0  0  0
    3.2475   16.6085   37.1313 H   0  0  0  0  0  0  0  0  0  0  0  0
    4.9634   15.0103   37.9629 H   0  0  0  0  0  0  0  0  0  0  0  0
    3.7734   15.8629   42.0381 H   0  0  0  0  0  0  0  0  0  0  0  0
    2.1895   17.3263   46.6092 H   0  0  0  0  0  0  0  0  0  0  0  0
    0.9920   16.0711   46.1433 H   0  0  0  0  0  0  0  0  0  0  0  0
    2.4808   16.2994   45.1645 H   0  0  0  0  0  0  0  0  0  0  0  0
   -1.0469   20.0853   44.3846 H   0  0  0  0  0  0  0  0  0  0  0  0
   -1.1095   20.7490   42.1093 H   0  0  0  0  0  0  0  0  0  0  0  0
   -0.5168   20.4962   40.4457 H   0  0  0  0  0  0  0  0  0  0  0  0
  1  2  2  0
  1  6  1  0
  2  3  1  0
  3  4  2  0
  4  5  1  0
  5  6  2  0
  6  7  1  0
  7  8  2  0
  7  9  1  0
  8 16  1  0
  9 10  2  0
 10 11  1  0
 10 15  1  0
 11 12  1  0
 11 13  1  0
 13 14  2  0
 14 15  1  0
 15 16  2  0
 16 17  1  0
  1 18  1  0
  2 19  1  0
  3 20  1  0
  5 21  1  0
 12 22  1  0
 12 23  1  0
 12 24  1  0
 14 25  1  0
 17 26  1  0
 17 27  1  0
M  END
>  <mol_id>  (37) 
2026-09-18-6fnk-s0-n100-r4-0037

>  <rmsd_to_ref>  (37) 
2.1071428571470263

>  <pose_kind>  (37) 
rigid

$$$$
6fnk.A
     RDKit          3D

 27 29  0  0  0  0  0  0  0  0999 V2000
    1.1387   15.4159   41.2511 C   0  0  0  0  0  0  0  0  0  0  0  0
    1.5679   14.1005   41.0922 C   0  0  0  0  0  0  0  0  0  0  0  0
    2.9046   13.7566   41.1442 C   0  0  0  0  0  0  0  0  0  0  0  0
    3.8321   14.7072   41.3535 N   0  0  0  0  0  0  0  0  0  0  0  0
    3.4600   16.0077   41.5146 C   0  0  0  0  0  0  0  0  0  0  0  0
    2.1272   16.3547   41.4634 C   0  0  0  0  0  0  0  0  0  0  0  0
    1.7945   17.7755   41.6451 C   0  0  0  0  0  0  0  0  0  0  0  0
    2.8059   18.6387   41.8482 N   0  0  0  0  0  0  0  0  0  0  0  0
    0.5049   18.1929   41.6075 N   0  0  0  0  0  0  0  0  0  0  0  0
    0.2273   19.5150   41.7791 C   0  0  0  0  0  0  0  0  0  0  0  0
   -0.9165   20.2376   41.7971 N   0  0  0  0  0  0  0  0  0  0  0  0
   -2.2446   19.6832   41.6149 C   0  0  0  0  0  0  0  0  0  0  0  0
   -0.6461   21.5096   42.0032 N   0  0  0  0  0  0  0  0  0  0  0  0
    0.6803   21.6782   42.1291 C   0  0  0  0  0  0  0  0  0  0  0  0
    1.2455   20.4272   41.9898 C   0  0  0  0  0  0  0  0  0  0  0  0
    2.5515   19.9582   42.0211 C   0  0  0  0  0  0  0  0  0  0  0  0
    3.6407   20.8545   42.2350 N   0  0  0  0  0  0  0  0  0  0  0  0
    0.0910   15.6916   41.2112 H   0  0  0  0  0  0  0  0  0  0  0  0
    0.8058   13.3280   40.9214 H   0  0  0  0  0  0  0  0  0  0  0  0
    3.2414   12.7170   41.0184 H   0  0  0  0  0  0  0  0  0  0  0  0
    4.2548   16.7213   41.6793 H   0  0  0  0  0  0  0  0  0  0  0  0
   -2.9669   20.5009   41.4140 H   0  0  0  0  0  0  0  0  0  0  0  0
   -2.1799   18.9695   40.7576 H   0  0  0  0  0  0  0  0  0  0  0  0
   -2.4980   19.0846   42.5247 H   0  0  0  0  0  0  0  0  0  0  0  0
    1.2545   22.5812   42.3046 H   0  0  0  0  0  0  0  0  0  0  0  0
    4.3616   20.5464   42.9285 H   0  0  0  0  0  0  0  0  0  0  0  0
    3.6901   21.7603   41.7149 H   0  0  0  0  0  0  0  0  0  0  0  0
  1  2  2  0
  1  6  1  0
  2  3  1  0
  3  4  2  0
  4  5  1  0
  5  6  2  0
  6  7  1  0
  7  8  2  0
  7  9  1  0
  8 16  1  0
  9 10  2  0
 10 11  1  0
 10 15  1  0
 11 12  1  0
 11 13  1  0
 13 14  2  0
 14 15  1  0
 15 16  2  0
 16 17  1  0
  1 18  1  0
  2 19  1  0
  3 20  1  0
  5 21  1  0
 12 22  1  0
 12 23  1  0
 12 24  1  0
 14 25  1  0
 17 26  1  0
 17 27  1  0
M  END
>  <mol_id>  (38) 
2026-09-18-6fnk-s0-n100-r4-0038

>  <rmsd_to_ref>  (38) 
2.1530612244905205

>  <pose_kind>  (38) 
conformer

$$$$
6fnk.A
     RDKit          3D

 27 29  0  0  0  0  0  0  0  0999 V2000
    2.1428   16.5333   40.6143 C   0  0  0  0  0  0  0  0  0  0  0  0
    3.1664   15.5994   40.4526 C   0  0  0  0  0  0  0  0  0  0  0  0
    4.2319   15.5787   41.3407 C   0  0  0  0  0  0  0  0  0  0  0  0
    4.2766   16.4909   42.3985 N   0  0  0  0  0  0  0  0  0  0  0  0
    3.2464   17.4301   42.5577 C   0  0  0  0  0  0  0  0  0  0  0  0
    2.1764   17.4532   41.6651 C   0  0  0  0  0  0  0  0  0  0  0  0
    1.1522   18.3921   41.8250 C   0  0  0  0  0  0  0  0  0  0  0  0
    0.2083   18.5507   40.8869 N   0  0  0  0  0  0  0  0  0  0  0  0
    1.1036   19.1418   42.9307 N   0  0  0  0  0  0  0  0  0  0  0  0
    0.1393   20.0608   43.1162 C   0  0  0  0  0  0  0  0  0  0  0  0
   -0.1012   20.9235   44.1152 N   0  0  0  0  0  0  0  0  0  0  0  0
    0.6950   21.0693   45.3374 C   0  0  0  0  0  0  0  0  0  0  0  0
   -1.1082   21.5916   43.8769 N   0  0  0  0  0  0  0  0  0  0  0  0
   -1.6032   21.1679   42.7023 C   0  0  0  0  0  0  0  0  0  0  0  0
   -0.8078   20.2160   42.1963 C   0  0  0  0  0  0  0  0  0  0  0  0
   -0.7742   19.4522   41.0699 C   0  0  0  0  0  0  0  0  0  0  0  0
   -1.7214   19.5864   40.1101 N   0  0  0  0  0  0  0  0  0  0  0  0
    1.3005   16.5455   39.9070 H   0  0  0  0  0  0  0  0  0  0  0  0
    3.1287   14.8800   39.6214 H   0  0  0  0  0  0  0  0  0  0  0  0
    5.0411   14.8446   41.2123 H   0  0  0  0  0  0  0  0  0  0  0  0
    3.2834   18.1497   43.3889 H   0  0  0  0  0  0  0  0  0  0  0  0
    0.9649   22.1267   45.4753 H   0  0  0  0  0  0  0  0  0  0  0  0
    0.1070   20.7253   46.2012 H   0  0  0  0  0  0  0  0  0  0  0  0
    1.6103   20.4652   45.2530 H   0  0  0  0  0  0  0  0  0  0  0  0
   -2.5214   21.5449   42.2283 H   0  0  0  0  0  0  0  0  0  0  0  0
   -2.4824   20.2702   40.2296 H   0  0  0  0  0  0  0  0  0  0  0  0
   -1.6804   19.0046   39.2611 H   0  0  0  0  0  0  0  0  0  0  0  0
  1  2  2  0
  1  6  1  0
  2  3  1  0
  3  4  2  0
  4  5  1  0
  5  6  2  0
  6  7  1  0
  7  8  2  0
  7  9  1  0
  8 16  1  0
  9 10  2  0
 10 11  1  0
 10 15  1  0
 11 12  1  0
 11 13  1  0
 13 14  2  0
 14 15  1  0
 15 16  2  0
 16 17  1  0
  1 18  1  0
  2 19  1  0
  3 20  1  0
  5 21  1  0
 12 22  1  0
 12 23  1  0
 12 24  1  0
 14 25  1  0
 17 26  1  0
 17 27  1  0
M  END
>  <mol_id>  (39) 
2026-09-18-6fnk-s0-n100-r4-0039

>  <rmsd_to_ref>  (39) 
2.1989795918393056

>  <pose_kind>  (39) 
rigid

$$$$
6fnk.A
     RDKit          3D

 27 29  0  0  0  0  0  0  0  0999 V2000
    2.7030   16.0272   43.6249 C   0  0  0  0  0  0  0  0  0  0  0  0
    3.7673   15.1277   43.7454 C   0  0  0  0  0  0  0  0  0  0  0  0
    5.0561   15.4980   43.3675 C   0  0  0  0  0  0  0  0  0  0  0  0
    5.3326   16.7194   42.8765 N   0  0  0  0  0  0  0  0  0  0  0  0
    4.3200   17.5974   42.7539 C   0  0  0  0  0  0  0  0  0  0  0  0
    3.0290   17.2696   43.1170 C   0  0  0  0  0  0  0  0  0  0  0  0
    1.9777   18.2744   42.9562 C   0  0  0  0  0  0  0  0  0  0  0  0
    2.2793   19.4899   42.4625 N   0  0  0  0  0  0  0  0  0  0  0  0
    0.7055   17.9975   43.2975 N   0  0  0  0  0  0  0  0  0  0  0  0
   -0.2863   18.9117   43.1579 C   0  0  0  0  0  0  0  0  0  0  0  0
   -1.6095   18.9236   43.4052 N   0  0  0  0  0  0  0  0  0  0  0  0
   -2.3587   17.7857   43.9561 C   0  0  0  0  0  0  0  0  0  0  0  0
   -2.1043   20.1003   43.0769 N   0  0  0  0  0  0  0  0  0  0  0  0
   -1.1540   20.9248   42.6002 C   0  0  0  0  0  0  0  0  0  0  0  0
    0.0228   20.1752   42.6456 C   0  0  0  0  0  0  0  0  0  0  0  0
    1.3398   20.4518   42.2959 C   0  0  0  0  0  0  0  0  0  0  0  0
    1.6782   21.7436   41.7678 N   0  0  0  0  0  0  0  0  0  0  0  0
    1.7027   15.7645   43.9094 H   0  0  0  0  0  0  0  0  0  0  0  0
    3.5543   14.1301   44.1440 H   0  0  0  0  0  0  0  0  0  0  0  0
    5.8220   14.7606   43.4866 H   0  0  0  0  0  0  0  0  0  0  0  0
    4.5817   18.5850   42.3496 H   0  0  0  0  0  0  0  0  0  0  0  0
   -2.6712   17.1427   43.1178 H   0  0  0  0  0  0  0  0  0  0  0  0
   -1.7195   17.1982   44.6511 H   0  0  0  0  0  0  0  0  0  0  0  0
   -3.2421   18.2162   44.4902 H   0  0  0  0  0  0  0  0  0  0  0  0
   -1.2619   21.9427   42.2554 H   0  0  0  0  0  0  0  0  0  0  0  0
    2.4983   21.8170   41.1222 H   0  0  0  0  0  0  0  0  0  0  0  0
    1.0880   22.5640   42.0513 H   0  0  0  0  0  0  0  0  0  0  0  0
  1  2  2  0
  1  6  1  0
  2  3  1  0
  3  4  2  0
  4  5  1  0
  5  6  2  0
  6  7  1  0
  7  8  2  0
  7  9  1  0
  8 16  1  0
  9 10  2  0
 10 11  1  0
 10 15  1  0
 11 12  1  0
 11 13  1  0
 13 14  2  0
 14 15  1  0
 15 16  2  0
 16 17  1  0
  1 18  1  0
  2 19  1  0
  3 20  1  0
  5 21  1  0
 12 22  1  0
 12 23  1  0
 12 24  1  0
 14 25  1  0
 17 26  1  0
 17 27  1  0
M  END
>  <mol_id>  (40) 
2026-09-18-6fnk-s0-n100-r4-0040

>  <rmsd_to_ref>  (40) 
2.24489795918834

>  <pose_kind>  (40) 
conformer

$$$$
6fnk.A
     RDKit          3D

 27 29  0  0  0  0  0  0  0  0999 V2000
    2.7814   17.2959   40.7527 C   0  0  0  0  0  0  0  0  0  0  0  0
    3.9744   16.8382   40.1929 C   0  0  0  0  0  0  0  0  0  0  0  0
    4.7698   15.9432   40.8934 C   0  0  0  0  0  0  0  0  0  0  0  0
    4.3731   15.4982   42.1575 N   0  0  0  0  0  0  0  0  0  0  0  0
    3.1734   15.9616   42.7187 C   0  0  0  0  0  0  0  0  0  0  0  0
    2.3744   16.8622   42.0167 C   0  0  0  0  0  0  0  0  0  0  0  0
    1.1803   17.3241   42.5796 C   0  0  0  0  0  0  0  0  0  0  0  0
    0.4860   18.3173   42.0073 N   0  0  0  0  0  0  0  0  0  0  0  0
    0.7147   16.7669   43.7020 N   0  0  0  0  0  0  0  0  0  0  0  0
   -0.4250   17.1897   44.2775 C   0  0  0  0  0  0  0  0  0  0  0  0
   -1.0683   16.8038   45.3899 N   0  0  0  0  0  0  0  0  0  0  0  0
   -0.6436   15.7402   46.3050 C   0  0  0  0  0  0  0  0  0  0  0  0
   -2.0948   17.4659   45.5478 N   0  0  0  0  0  0  0  0  0  0  0  0
   -2.1914   18.3119   44.5090 C   0  0  0  0  0  0  0  0  0  0  0  0
   -1.1262   18.1660   43.7097 C   0  0  0  0  0  0  0  0  0  0  0  0
   -0.6670   18.7355   42.5616 C   0  0  0  0  0  0  0  0  0  0  0  0
   -1.3544   19.7352   41.9579 N   0  0  0  0  0  0  0  0  0  0  0  0
    2.1547   18.0057   40.1929 H   0  0  0  0  0  0  0  0  0  0  0  0
    4.2842   17.1867   39.1967 H   0  0  0  0  0  0  0  0  0  0  0  0
    5.7122   15.5839   40.4543 H   0  0  0  0  0  0  0  0  0  0  0  0
    2.8628   15.6132   43.7148 H   0  0  0  0  0  0  0  0  0  0  0  0
   -0.6269   16.1272   47.3345 H   0  0  0  0  0  0  0  0  0  0  0  0
   -1.3488   14.8984   46.2412 H   0  0  0  0  0  0  0  0  0  0  0  0
    0.3634   15.3968   46.0259 H   0  0  0  0  0  0  0  0  0  0  0  0
   -3.0188   19.0170   44.3404 H   0  0  0  0  0  0  0  0  0  0  0  0
   -2.2391   20.0708   42.3649 H   0  0  0  0  0  0  0  0  0  0  0  0
   -0.9922   20.1595   41.0920 H   0  0  0  0  0  0  0  0  0  0  0  0
  1  2  2  0
  1  6  1  0
  2  3  1  0
  3  4  2  0
  4  5  1  0
  5  6  2  0
  6  7  1  0
  7  8  2  0
  7  9  1  0
  8 16  1  0
  9 10  2  0
 10 11  1  0
 10 15  1  0
 11 12  1  0
 11 13  1  0
 13 14  2  0
 14 15  1  0
 15 16  2  0
 16 17  1  0
  1 18  1  0
  2 19  1  0
  3 20  1  0
  5 21  1  0
 12 22  1  0
 12 23  1  0
 12 24  1  0
 14 25  1  0
 17 26  1  0
 17 27  1  0
M  END
>  <mol_id>  (41) 
2026-09-18-6fnk-s0-n100-r4-0041

>  <rmsd_to_ref>  (41) 
2.2908163265377763

>  <pose_kind>  (41) 
rigid

$$$$
6fnk.A
     RDKit          3D

 27 29  0  0  0  0  0  0  0  0999 V2000
    1.5888   16.7543   40.1217 C   0  0  0  0  0  0  0  0  0  0  0  0
    1.4571   15.7563   39.1567 C   0  0  0  0  0  0  0  0  0  0  0  0
    1.5705   14.4281   39.5053 C   0  0  0  0  0  0  0  0  0  0  0  0
    1.8122   14.0902   40.7984 N   0  0  0  0  0  0  0  0  0  0  0  0
    1.9450   15.0144   41.7536 C   0  0  0  0  0  0  0  0  0  0  0  0
    1.8365   16.3724   41.4392 C   0  0  0  0  0  0  0  0  0  0  0  0
    1.9792   17.3926   42.4708 C   0  0  0  0  0  0  0  0  0  0  0  0
    1.8845   18.7112   42.2257 N   0  0  0  0  0  0  0  0  0  0  0  0
    2.2180   17.0019   43.7359 N   0  0  0  0  0  0  0  0  0  0  0  0
    2.3671   17.8525   44.7671 C   0  0  0  0  0  0  0  0  0  0  0  0
    2.6063   17.6506   46.0759 N   0  0  0  0  0  0  0  0  0  0  0  0
    2.7810   16.3915   46.7869 C   0  0  0  0  0  0  0  0  0  0  0  0
    2.6632   18.8388   46.6596 N   0  0  0  0  0  0  0  0  0  0  0  0
    2.4624   19.8148   45.7388 C   0  0  0  0  0  0  0  0  0  0  0  0
    2.2692   19.2041   44.5108 C   0  0  0  0  0  0  0  0  0  0  0  0
    2.0251   19.6294   43.2240 C   0  0  0  0  0  0  0  0  0  0  0  0
    1.9239   21.0089   42.9556 N   0  0  0  0  0  0  0  0  0  0  0  0
    1.4966   17.7962   39.8297 H   0  0  0  0  0  0  0  0  0  0  0  0
    1.2619   16.0023   38.1063 H   0  0  0  0  0  0  0  0  0  0  0  0
    1.4786   13.6090   38.8045 H   0  0  0  0  0  0  0  0  0  0  0  0
    2.1399   14.7230   42.7921 H   0  0  0  0  0  0  0  0  0  0  0  0
    2.2410   16.3760   47.7561 H   0  0  0  0  0  0  0  0  0  0  0  0
    3.8502   16.2629   46.9624 H   0  0  0  0  0  0  0  0  0  0  0  0
    2.4356   15.5309   46.1799 H   0  0  0  0  0  0  0  0  0  0  0  0
    2.4491   20.8990   45.9025 H   0  0  0  0  0  0  0  0  0  0  0  0
    1.0941   21.4432   42.5274 H   0  0  0  0  0  0  0  0  0  0  0  0
    2.7190   21.6329   43.1962 H   0  0  0  0  0  0  0  0  0  0  0  0
  1  2  2  0
  1  6  1  0
  2  3  1  0
  3  4  2  0
  4  5  1  0
  5  6  2  0
  6  7  1  0
  7  8  2  0
  7  9  1  0
  8 16  1  0
  9 10  2  0
 10 11  1  0
 10 15  1  0
 11 12  1  0
 11 13  1  0
 13 14  2  0
 14 15  1  0
 15 16  2  0
 16 17  1  0
  1 18  1  0
  2 19  1  0
  3 20  1  0
  5 21  1  0
 12 22  1  0
 12 23  1  0
 12 24  1  0
 14 25  1  0
 17 26  1  0
 17 27  1  0
M  END
>  <mol_id>  (42) 
2026-09-18-6fnk-s0-n100-r4-0042

>  <rmsd_to_ref>  (42) 
2.3367346938837303

>  <pose_kind>  (42) 
conformer

$$$$
6fnk.A
     RDKit          3D

 27 29  0  0  0  0  0  0  0  0999 V2000
    0.1537   17.3728   40.5991 C   0  0  0  0  0  0  0  0  0  0  0  0
    0.3407   16.3563   39.6622 C   0  0  0  0  0  0  0  0  0  0  0  0
    1.2706   15.3553   39.9024 C   0  0  0  0  0  0  0  0  0  0  0  0
    2.0163   15.3645   41.0845 N   0  0  0  0  0  0  0  0  0  0  0  0
    1.8271   16.3891   42.0242 C   0  0  0  0  0  0  0  0  0  0  0  0
    0.8945   17.3963   41.7832 C   0  0  0  0  0  0  0  0  0  0  0  0
    0.7099   18.4176   42.7207 C   0  0  0  0  0  0  0  0  0  0  0  0
   -0.0473   19.4865   42.4373 N   0  0  0  0  0  0  0  0  0  0  0  0
    1.2890   18.3302   43.9224 N   0  0  0  0  0  0  0  0  0  0  0  0
    1.1418   19.2962   44.8466 C   0  0  0  0  0  0  0  0  0  0  0  0
    1.6286   19.4342   46.0892 N   0  0  0  0  0  0  0  0  0  0  0  0
    2.4998   18.4813   46.7835 C   0  0  0  0  0  0  0  0  0  0  0  0
    1.2347   20.4865   46.5938 N   0  0  0  0  0  0  0  0  0  0  0  0
    0.4295   21.0843   45.7002 C   0  0  0  0  0  0  0  0  0  0  0  0
    0.3824   20.3538   44.5781 C   0  0  0  0  0  0  0  0  0  0  0  0
   -0.2199   20.4500   43.3610 C   0  0  0  0  0  0  0  0  0  0  0  0
   -0.9978   21.5158   43.0523 N   0  0  0  0  0  0  0  0  0  0  0  0
   -0.5848   18.1642   40.4034 H   0  0  0  0  0  0  0  0  0  0  0  0
   -0.2489   16.3485   38.7336 H   0  0  0  0  0  0  0  0  0  0  0  0
    1.4210   14.5549   39.1630 H   0  0  0  0  0  0  0  0  0  0  0  0
    2.4161   16.3974   42.9532 H   0  0  0  0  0  0  0  0  0  0  0  0
    3.3841   19.0082   47.1712 H   0  0  0  0  0  0  0  0  0  0  0  0
    1.9501   18.0235   47.6191 H   0  0  0  0  0  0  0  0  0  0  0  0
    2.8188   17.6971   46.0811 H   0  0  0  0  0  0  0  0  0  0  0  0
   -0.1090   22.0293   45.8645 H   0  0  0  0  0  0  0  0  0  0  0  0
   -1.1434   22.2647   43.7442 H   0  0  0  0  0  0  0  0  0  0  0  0
   -1.4434   21.5770   42.1257 H   0  0  0  0  0  0  0  0  0  0  0  0
  1  2  2  0
  1  6  1  0
  2  3  1  0
  3  4  2  0
  4  5  1  0
  5  6  2  0
  6  7  1  0
  7  8  2  0
  7  9  1  0
  8 16  1  0
  9 10  2  0
 10 11  1  0
 10 15  1  0
 11 12  1  0
 11 13  1  0
 13 14  2  0
 14 15  1  0
 15 16  2  0
 16 17  1  0
  1 18  1  0
  2 19  1  0
  3 20  1  0
  5 21  1  0
 12 22  1  0
 12 23  1  0
 12 24  1  0
 14 25  1  0
 17 26  1  0
 17 27  1  0
M  END
>  <mol_id>  (43) 
2026-09-18-6fnk-s0-n100-r4-0043

>  <rmsd_to_ref>  (43) 
2.3826530612288273

>  <pose_kind>  (43) 
rigid

$$$$
6fnk.A
     RDKit          3D

 27 29  0  0  0  0  0  0  0  0999 V2000
    2.2323   14.9898   41.8563 C   0  0  0  0  0  0  0  0  0  0  0  0
    1.7482   13.7023   41.7424 C   0  0  0  0  0  0  0  0  0  0  0  0
    0.6280   13.3914   42.5212 C   0  0  0  0  0  0  0  0  0  0  0  0
    0.0587   14.3054   43.3357 N   0  0  0  0  0  0  0  0  0  0  0  0
    0.5655   15.5710   43.4229 C   0  0  0  0  0  0  0  0  0  0  0  0
    1.6667   15.9405   42.6822 C   0  0  0  0  0  0  0  0  0  0  0  0
    2.2332   17.2838   42.7518 C   0  0  0  0  0  0  0  0  0  0  0  0
    3.3083   17.6527   42.0318 N   0  0  0  0  0  0  0  0  0  0  0  0
    1.6500   18.1885   43.5739 N   0  0  0  0  0  0  0  0  0  0  0  0
    2.1314   19.4518   43.6806 C   0  0  0  0  0  0  0  0  0  0  0  0
    1.7492   20.5368   44.4117 N   0  0  0  0  0  0  0  0  0  0  0  0
    0.6393   20.6125   45.3333 C   0  0  0  0  0  0  0  0  0  0  0  0
    2.5793   21.5061   44.1233 N   0  0  0  0  0  0  0  0  0  0  0  0
    3.5142   21.1400   43.2289 C   0  0  0  0  0  0  0  0  0  0  0  0
    3.2356   19.8075   42.9322 C   0  0  0  0  0  0  0  0  0  0  0  0
    3.8353   18.8898   42.0917 C   0  0  0  0  0  0  0  0  0  0  0  0
    4.9596   19.2760   41.3390 N   0  0  0  0  0  0  0  0  0  0  0  0
    3.1129   15.2846   41.2638 H   0  0  0  0  0  0  0  0  0  0  0  0
    2.1859   12.9524   41.0977 H   0  0  0  0  0  0  0  0  0  0  0  0
    0.2640   12.3775   42.4176 H   0  0  0  0  0  0  0  0  0  0  0  0
    0.0791   16.2725   44.0877 H   0  0  0  0  0  0  0  0  0  0  0  0
    0.9547   20.4687   46.3700 H   0  0  0  0  0  0  0  0  0  0  0  0
   -0.0967   19.8464   45.0238 H   0  0  0  0  0  0  0  0  0  0  0  0
    0.1523   21.6271   45.2337 H   0  0  0  0  0  0  0  0  0  0  0  0
    4.3278   21.6975   42.7929 H   0  0  0  0  0  0  0  0  0  0  0  0
    5.2375   18.8788   40.4182 H   0  0  0  0  0  0  0  0  0  0  0  0
    5.5996   20.0362   41.7162 H   0  0  0  0  0  0  0  0  0  0  0  0
  1  2  2  0
  1  6  1  0
  2  3  1  0
  3  4  2  0
  4  5  1  0
  5  6  2  0
  6  7  1  0
  7  8  2  0
  7  9  1  0
  8 16  1  0
  9 10  2  0
 10 11  1  0
 10 15  1  0
 11 12  1  0
 11 13  1  0
 13 14  2  0
 14 15  1  0
 15 16  2  0
 16 17  1  0
  1 18  1  0
  2 19  1  0
  3 20  1  0
  5 21  1  0
 12 22  1  0
 12 23  1  0
 12 24  1  0
 14 25  1  0
 17 26  1  0
 17 27  1  0
M  END
>  <mol_id>  (44) 
2026-09-18-6fnk-s0-n100-r4-0044

>  <rmsd_to_ref>  (44) 
2.428571428574115

>  <pose_kind>  (44) 
conformer

$$$$
6fnk.A
     RDKit          3D

 27 29  0  0  0  0  0  0  0  0999 V2000
    3.2255   16.0074   42.4781 C   0  0  0  0  0  0  0  0  0  0  0  0
    3.5615   14.8300   43.1465 C   0  0  0  0  0  0  0  0  0  0  0  0
    2.7564   14.3637   44.1755 C   0  0  0  0  0  0  0  0  0  0  0  0
    1.6076   15.0721   44.5387 N   0  0  0  0  0  0  0  0  0  0  0  0
    1.2731   16.2569   43.8655 C   0  0  0  0  0  0  0  0  0  0  0  0
    2.0822   16.7274   42.8329 C   0  0  0  0  0  0  0  0  0  0  0  0
    1.7475   17.9099   42.1653 C   0  0  0  0  0  0  0  0  0  0  0  0
    2.5949   18.4745   41.2940 N   0  0  0  0  0  0  0  0  0  0  0  0
    0.5633   18.4882   42.3897 N   0  0  0  0  0  0  0  0  0  0  0  0
    0.2096   19.6301   41.7734 C   0  0  0  0  0  0  0  0  0  0  0  0
   -0.8947   20.3884   41.8487 N   0  0  0  0  0  0  0  0  0  0  0  0
   -2.0683   20.1198   42.6851 C   0  0  0  0  0  0  0  0  0  0  0  0
   -0.8029   21.3620   41.0998 N   0  0  0  0  0  0  0  0  0  0  0  0
    0.3754   21.2689   40.4619 C   0  0  0  0  0  0  0  0  0  0  0  0
    1.0391   20.1901   40.8984 C   0  0  0  0  0  0  0  0  0  0  0  0
    2.2444   19.6059   40.6547 C   0  0  0  0  0  0  0  0  0  0  0  0
    3.1158   20.1513   39.7718 N   0  0  0  0  0  0  0  0  0  0  0  0
    3.8676   16.3727   41.6631 H   0  0  0  0  0  0  0  0  0  0  0  0
    4.4642   14.2717   42.8579 H   0  0  0  0  0  0  0  0  0  0  0  0
    3.0219   13.4370   44.7053 H   0  0  0  0  0  0  0  0  0  0  0  0
    0.3704   16.8156   44.1534 H   0  0  0  0  0  0  0  0  0  0  0  0
   -2.3061   21.0132   43.2810 H   0  0  0  0  0  0  0  0  0  0  0  0
   -2.9258   19.8679   42.0437 H   0  0  0  0  0  0  0  0  0  0  0  0
   -1.8537   19.2766   43.3581 H   0  0  0  0  0  0  0  0  0  0  0  0
    0.7399   21.9712   39.6978 H   0  0  0  0  0  0  0  0  0  0  0  0
    2.8680   21.0168   39.2715 H   0  0  0  0  0  0  0  0  0  0  0  0
    4.0259   19.7004   39.6011 H   0  0  0  0  0  0  0  0  0  0  0  0
  1  2  2  0
  1  6  1  0
  2  3  1  0
  3  4  2  0
  4  5  1  0
  5  6  2  0
  6  7  1  0
  7  8  2  0
  7  9  1  0
  8 16  1  0
  9 10  2  0
 10 11  1  0
 10 15  1  0
 11 12  1  0
 11 13  1  0
 13 14  2  0
 14 15  1  0
 15 16  2  0
 16 17  1  0
  1 18  1  0
  2 19  1  0
  3 20  1  0
  5 21  1  0
 12 22  1  0
 12 23  1  0
 12 24  1  0
 14 25  1  0
 17 26  1  0
 17 27  1  0
M  END
>  <mol_id>  (45) 
2026-09-18-6fnk-s0-n100-r4-0045

>  <rmsd_to_ref>  (45) 
2.4744897959227123

>  <pose_kind>  (45) 
rigid

$$$$
6fnk.A
     RDKit          3D

 27 29  0  0  0  0  0  0  0  0999 V2000
    3.2160   18.6393   41.6067 C   0  0  0  0  0  0  0  0  0  0  0  0
    4.3275   18.1988   40.9161 C   0  0  0  0  0  0  0  0  0  0  0  0
    4.4893   16.8459   40.7068 C   0  0  0  0  0  0  0  0  0  0  0  0
    3.5822   15.9362   41.1632 N   0  0  0  0  0  0  0  0  0  0  0  0
    2.4883   16.3530   41.8414 C   0  0  0  0  0  0  0  0  0  0  0  0
    2.2860   17.7100   42.0749 C   0  0  0  0  0  0  0  0  0  0  0  0
    1.1204   18.2006   42.8015 C   0  0  0  0  0  0  0  0  0  0  0  0
    0.9121   19.5193   43.0354 N   0  0  0  0  0  0  0  0  0  0  0  0
    0.2134   17.3086   43.2594 N   0  0  0  0  0  0  0  0  0  0  0  0
   -0.8877   17.7005   43.9398 C   0  0  0  0  0  0  0  0  0  0  0  0
   -1.9368   17.1037   44.5060 N   0  0  0  0  0  0  0  0  0  0  0  0
   -2.1155   15.6492   44.4883 C   0  0  0  0  0  0  0  0  0  0  0  0
   -2.7401   18.0022   45.0542 N   0  0  0  0  0  0  0  0  0  0  0  0
   -2.2470   19.2318   44.8681 C   0  0  0  0  0  0  0  0  0  0  0  0
   -1.0710   19.0676   44.1629 C   0  0  0  0  0  0  0  0  0  0  0  0
   -0.1378   19.9956   43.6927 C   0  0  0  0  0  0  0  0  0  0  0  0
   -0.2933   21.3924   43.9021 N   0  0  0  0  0  0  0  0  0  0  0  0
    3.0930   19.7069   41.7691 H   0  0  0  0  0  0  0  0  0  0  0  0
    5.0391   18.9455   40.5609 H   0  0  0  0  0  0  0  0  0  0  0  0
    5.3683   16.4819   40.1594 H   0  0  0  0  0  0  0  0  0  0  0  0
    1.7368   15.6831   42.2266 H   0  0  0  0  0  0  0  0  0  0  0  0
   -1.3387   15.1202   45.0521 H   0  0  0  0  0  0  0  0  0  0  0  0
   -3.1460   15.3726   44.8443 H   0  0  0  0  0  0  0  0  0  0  0  0
   -2.1451   15.3724   43.3949 H   0  0  0  0  0  0  0  0  0  0  0  0
   -2.6900   20.1571   45.2066 H   0  0  0  0  0  0  0  0  0  0  0  0
   -0.7344   22.0139   43.1896 H   0  0  0  0  0  0  0  0  0  0  0  0
    0.0528   21.7764   44.8018 H   0  0  0  0  0  0  0  0  0  0  0  0
  1  2  2  0
  1  6  1  0
  2  3  1  0
  3  4  2  0
  4  5  1  0
  5  6  2  0
  6  7  1  0
  7  8  2  0
  7  9  1  0
  8 16  1  0
  9 10  2  0
 10 11  1  0
 10 15  1  0
 11 12  1  0
 11 13  1  0
 13 14  2  0
 14 15  1  0
 15 16  2  0
 16 17  1  0
  1 18  1  0
  2 19  1  0
  3 20  1  0
  5 21  1  0
 12 22  1  0
 12 23  1  0
 12 24  1  0
 14 25  1  0
 17 26  1  0
 17 27  1  0
M  END
>  <mol_id>  (46) 
2026-09-18-6fnk-s0-n100-r4-0046

>  <rmsd_to_ref>  (46) 
2.520408163270278

>  <pose_kind>  (46) 
conformer

$$$$
6fnk.A
     RDKit          3D

 27 29  0  0  0  0  0  0  0  0999 V2000
    4.3238   17.6156   40.8966 C   0  0  0  0  0  0  0  0  0  0  0  0
    5.1767   17.1611   39.8906 C   0  0  0  0  0  0  0  0  0  0  0  0
    5.0741   15.8557   39.4327 C   0  0  0  0  0  0  0  0  0  0  0  0
    4.1139   14.9985   39.9771 N   0  0  0  0  0  0  0  0  0  0  0  0
    3.2583   15.4580   40.9900 C   0  0  0  0  0  0  0  0  0  0  0  0
    3.3617   16.7687   41.4521 C   0  0  0  0  0  0  0  0  0  0  0  0
    2.5091   17.2231   42.4634 C   0  0  0  0  0  0  0  0  0  0  0  0
    2.7016   18.4150   43.0451 N   0  0  0  0  0  0  0  0  0  0  0  0
    1.4804   16.4653   42.8567 N   0  0  0  0  0  0  0  0  0  0  0  0
    0.6444   16.8645   43.8317 C   0  0  0  0  0  0  0  0  0  0  0  0
   -0.4247   16.2813   44.3949 N   0  0  0  0  0  0  0  0  0  0  0  0
   -0.9753   14.9693   44.0425 C   0  0  0  0  0  0  0  0  0  0  0  0
   -0.9068   17.0091   45.2639 N   0  0  0  0  0  0  0  0  0  0  0  0
   -0.1815   18.1393   45.2897 C   0  0  0  0  0  0  0  0  0  0  0  0
    0.8210   18.0507   44.4054 C   0  0  0  0  0  0  0  0  0  0  0  0
    1.8598   18.8354   44.0074 C   0  0  0  0  0  0  0  0  0  0  0  0
    2.0715   20.0485   44.5730 N   0  0  0  0  0  0  0  0  0  0  0  0
    4.4096   18.6516   41.2561 H   0  0  0  0  0  0  0  0  0  0  0  0
    5.9301   17.8375   39.4607 H   0  0  0  0  0  0  0  0  0  0  0  0
    5.7482   15.4954   38.6416 H   0  0  0  0  0  0  0  0  0  0  0  0
    2.5045   14.7822   41.4201 H   0  0  0  0  0  0  0  0  0  0  0  0
   -1.0857   14.3614   44.9526 H   0  0  0  0  0  0  0  0  0  0  0  0
   -1.9587   15.1000   43.5673 H   0  0  0  0  0  0  0  0  0  0  0  0
   -0.2947   14.4619   43.3430 H   0  0  0  0  0  0  0  0  0  0  0  0
   -0.3804   19.0055   45.9380 H   0  0  0  0  0  0  0  0  0  0  0  0
    1.4395   20.3900   45.3112 H   0  0  0  0  0  0  0  0  0  0  0  0
    2.8643   20.6292   44.2646 H   0  0  0  0  0  0  0  0  0  0  0  0
  1  2  2  0
  1  6  1  0
  2  3  1  0
  3  4  2  0
  4  5  1  0
  5  6  2  0
  6  7  1  0
  7  8  2  0
  7  9  1  0
  8 16  1  0
  9 10  2  0
 10 11  1  0
 10 15  1  0
 11 12  1  0
 11 13  1  0
 13 14  2  0
 14 15  1  0
 15 16  2  0
 16 17  1  0
  1 18  1  0
  2 19  1  0
  3 20  1  0
  5 21  1  0
 12 22  1  0
 12 23  1  0
 12 24  1  0
 14 25  1  0
 17 26  1  0
 17 27  1  0
M  END
>  <mol_id>  (47) 
2026-09-18-6fnk-s0-n100-r4-0047

>  <rmsd_to_ref>  (47) 
2.5663265306153384

>  <pose_kind>  (47) 
rigid

$$$$
6fnk.A
     RDKit          3D

 27 29  0  0  0  0  0  0  0  0999 V2000
    3.1201   16.6811   44.5192 C   0  0  0  0  0  0  0  0  0  0  0  0
    4.2490   15.9478   44.8764 C   0  0  0  0  0  0  0  0  0  0  0  0
    5.4418   16.0612   44.1890 C   0  0  0  0  0  0  0  0  0  0  0  0
    5.5330   16.8994   43.1418 N   0  0  0  0  0  0  0  0  0  0  0  0
    4.4552   17.6374   42.7554 C   0  0  0  0  0  0  0  0  0  0  0  0
    3.2635   17.5270   43.4388 C   0  0  0  0  0  0  0  0  0  0  0  0
    2.1400   18.3517   42.9696 C   0  0  0  0  0  0  0  0  0  0  0  0
    2.3469   19.1551   41.9107 N   0  0  0  0  0  0  0  0  0  0  0  0
    0.9364   18.2971   43.5917 N   0  0  0  0  0  0  0  0  0  0  0  0
   -0.0856   19.0724   43.1347 C   0  0  0  0  0  0  0  0  0  0  0  0
   -1.3712   19.2491   43.5176 N   0  0  0  0  0  0  0  0  0  0  0  0
   -2.0015   18.5641   44.6302 C   0  0  0  0  0  0  0  0  0  0  0  0
   -1.9606   20.1290   42.7352 N   0  0  0  0  0  0  0  0  0  0  0  0
   -1.0928   20.5672   41.8086 C   0  0  0  0  0  0  0  0  0  0  0  0
    0.0960   19.9088   42.0481 C   0  0  0  0  0  0  0  0  0  0  0  0
    1.3436   19.9346   41.4402 C   0  0  0  0  0  0  0  0  0  0  0  0
    1.5870   20.7785   40.3160 N   0  0  0  0  0  0  0  0  0  0  0  0
    2.1816   16.5961   45.0550 H   0  0  0  0  0  0  0  0  0  0  0  0
    4.1688   15.2645   45.7328 H   0  0  0  0  0  0  0  0  0  0  0  0
    6.3322   15.4811   44.4728 H   0  0  0  0  0  0  0  0  0  0  0  0
    4.5959   18.2913   41.9064 H   0  0  0  0  0  0  0  0  0  0  0  0
   -3.1025   18.6850   44.5687 H   0  0  0  0  0  0  0  0  0  0  0  0
   -1.6993   17.4907   44.5593 H   0  0  0  0  0  0  0  0  0  0  0  0
   -1.5657   18.9681   45.5774 H   0  0  0  0  0  0  0  0  0  0  0  0
   -1.2309   21.2870   41.0095 H   0  0  0  0  0  0  0  0  0  0  0  0
    2.4748   21.3323   40.3393 H   0  0  0  0  0  0  0  0  0  0  0  0
    0.9005   20.8212   39.5284 H   0  0  0  0  0  0  0  0  0  0  0  0
  1  2  2  0
  1  6  1  0
  2  3  1  0
  3  4  2  0
  4  5  1  0
  5  6  2  0
  6  7  1  0
  7  8  2  0
  7  9  1  0
  8 16  1  0
  9 10  2  0
 10 11  1  0
 10 15  1  0
 11 12  1  0
 11 13  1  0
 13 14  2  0
 14 15  1  0
 15 16  2  0
 16 17  1  0
  1 18  1  0
  2 19  1  0
  3 20  1  0
  5 21  1  0
 12 22  1  0
 12 23  1  0
 12 24  1  0
 14 25  1  0
 17 26  1  0
 17 27  1  0
M  END
>  <mol_id>  (48) 
2026-09-18-6fnk-s0-n100-r4-0048

>  <rmsd_to_ref>  (48) 
2.612244897965584

>  <pose_kind>  (48) 
conformer

$$$$
6fnk.A
     RDKit          3D

 27 29  0  0  0  0  0  0  0  0999 V2000
    3.0650   17.4684   40.8547 C   0  0  0  0  0  0  0  0  0  0  0  0
    3.4685   17.0424   39.5892 C   0  0  0  0  0  0  0  0  0  0  0  0
    3.0264   15.8241   39.0947 C   0  0  0  0  0  0  0  0  0  0  0  0
    2.1741   15.0267   39.8635 N   0  0  0  0  0  0  0  0  0  0  0  0
    1.7711   15.4571   41.1368 C   0  0  0  0  0  0  0  0  0  0  0  0
    2.2161   16.6800   41.6354 C   0  0  0  0  0  0  0  0  0  0  0  0
    1.8146   17.1054   42.9058 C   0  0  0  0  0  0  0  0  0  0  0  0
    2.3634   18.1860   43.4777 N   0  0  0  0  0  0  0  0  0  0  0  0
    0.8648   16.4325   43.5633 N   0  0  0  0  0  0  0  0  0  0  0  0
    0.4587   16.8058   44.7899 C   0  0  0  0  0  0  0  0  0  0  0  0
   -0.4475   16.2891   45.6337 N   0  0  0  0  0  0  0  0  0  0  0  0
   -1.2753   15.1044   45.3883 C   0  0  0  0  0  0  0  0  0  0  0  0
   -0.5071   16.9572   46.6667 N   0  0  0  0  0  0  0  0  0  0  0  0
    0.3509   17.9819   46.5330 C   0  0  0  0  0  0  0  0  0  0  0  0
    0.9891   17.8837   45.3591 C   0  0  0  0  0  0  0  0  0  0  0  0
    1.9510   18.5825   44.6959 C   0  0  0  0  0  0  0  0  0  0  0  0
    2.5157   19.6839   45.2477 N   0  0  0  0  0  0  0  0  0  0  0  0
    3.4188   18.4353   41.2420 H   0  0  0  0  0  0  0  0  0  0  0  0
    4.1370   17.6722   38.9838 H   0  0  0  0  0  0  0  0  0  0  0  0
    3.3464   15.4858   38.0982 H   0  0  0  0  0  0  0  0  0  0  0  0
    1.1024   14.8280   41.7427 H   0  0  0  0  0  0  0  0  0  0  0  0
   -1.1777   14.4074   46.2336 H   0  0  0  0  0  0  0  0  0  0  0  0
   -2.3274   15.4078   45.2827 H   0  0  0  0  0  0  0  0  0  0  0  0
   -0.9421   14.6092   44.4643 H   0  0  0  0  0  0  0  0  0  0  0  0
    0.5060   18.7799   47.2741 H   0  0  0  0  0  0  0  0  0  0  0  0
    2.2151   20.0051   46.1791 H   0  0  0  0  0  0  0  0  0  0  0  0
    3.2456   20.1998   44.7358 H   0  0  0  0  0  0  0  0  0  0  0  0
  1  2  2  0
  1  6  1  0
  2  3  1  0
  3  4  2  0
  4  5  1  0
  5  6  2  0
  6  7  1  0
  7  8  2  0
  7  9  1  0
  8 16  1  0
  9 10  2  0
 10 11  1  0
 10 15  1  0
 11 12  1  0
 11 13  1  0
 13 14  2  0
 14 15  1  0
 15 16  2  0
 16 17  1  0
  1 18  1  0
  2 19  1  0
  3 20  1  0
  5 21  1  0
 12 22  1  0
 12 23  1  0
 12 24  1  0
 14 25  1  0
 17 26  1  0
 17 27  1  0
M  END
>  <mol_id>  (49) 
2026-09-18-6fnk-s0-n100-r4-0049

>  <rmsd_to_ref>  (49) 
2.658163265310935

>  <pose_kind>  (49) 
rigid

$$$$
6fnk.A
     RDKit          3D

 27 29  0  0  0  0  0  0  0  0999 V2000
    5.1649   16.6226   42.8640 C   0  0  0  0  0  0  0  0  0  0  0  0
    6.2835   16.0357   43.4294 C   0  0  0  0  0  0  0  0  0  0  0  0
    6.1758   15.5714   44.7340 C   0  0  0  0  0  0  0  0  0  0  0  0
    5.0081   15.7088   45.3840 N   0  0  0  0  0  0  0  0  0  0  0  0
    3.9252   16.2771   44.8366 C   0  0  0  0  0  0  0  0  0  0  0  0
    3.9715   16.7603   43.5358 C   0  0  0  0  0  0  0  0  0  0  0  0
    2.8069   17.3834   42.9157 C   0  0  0  0  0  0  0  0  0  0  0  0
    2.8382   17.8596   41.6462 N   0  0  0  0  0  0  0  0  0  0  0  0
    1.6749   17.4818   43.6369 N   0  0  0  0  0  0  0  0  0  0  0  0
    0.5518   18.0443   43.1395 C   0  0  0  0  0  0  0  0  0  0  0  0
   -0.6840   18.2686   43.6216 N   0  0  0  0  0  0  0  0  0  0  0  0
   -1.1605   17.9139   44.9588 C   0  0  0  0  0  0  0  0  0  0  0  0
   -1.4377   18.8674   42.7101 N   0  0  0  0  0  0  0  0  0  0  0  0
   -0.7082   19.0597   41.5782 C   0  0  0  0  0  0  0  0  0  0  0  0
    0.5471   18.5412   41.8466 C   0  0  0  0  0  0  0  0  0  0  0  0
    1.7171   18.4321   41.1207 C   0  0  0  0  0  0  0  0  0  0  0  0
    1.7821   18.9207   39.7896 N   0  0  0  0  0  0  0  0  0  0  0  0
    5.2627   16.9769   41.8551 H   0  0  0  0  0  0  0  0  0  0  0  0
    7.2107   15.9363   42.8878 H   0  0  0  0  0  0  0  0  0  0  0  0
    7.0272   15.1147   45.1902 H   0  0  0  0  0  0  0  0  0  0  0  0
    3.0032   16.3539   45.4328 H   0  0  0  0  0  0  0  0  0  0  0  0
   -1.8400   17.0391   44.9191 H   0  0  0  0  0  0  0  0  0  0  0  0
   -1.7011   18.7625   45.4127 H   0  0  0  0  0  0  0  0  0  0  0  0
   -0.2935   17.6282   45.5840 H   0  0  0  0  0  0  0  0  0  0  0  0
   -1.0225   19.5199   40.6488 H   0  0  0  0  0  0  0  0  0  0  0  0
    1.8164   19.9384   39.5483 H   0  0  0  0  0  0  0  0  0  0  0  0
    1.7951   18.2025   39.0294 H   0  0  0  0  0  0  0  0  0  0  0  0
  1  2  2  0
  1  6  1  0
  2  3  1  0
  3  4  2  0
  4  5  1  0
  5  6  2  0
  6  7  1  0
  7  8  2  0
  7  9  1  0
  8 16  1  0
  9 10  2  0
 10 11  1  0
 10 15  1  0
 11 12  1  0
 11 13  1  0
 13 14  2  0
 14 15  1  0
 15 16  2  0
 16 17  1  0
  1 18  1  0
  2 19  1  0
  3 20  1  0
  5 21  1  0
 12 22  1  0
 12 23  1  0
 12 24  1  0
 14 25  1  0
 17 26  1  0
 17 27  1  0
M  END
>  <mol_id>  (50) 
2026-09-18-6fnk-s0-n100-r4-0050

>  <rmsd_to_ref>  (50) 
2.7040816326577795

>  <pose_kind>  (50) 
conformer

$$$$
6fnk.A
     RDKit          3D

 27 29  0  0  0  0  0  0  0  0999 V2000
    4.0831   15.7673   44.3012 C   0  0  0  0  0  0  0  0  0  0  0  0
    4.8408   14.7053   44.7952 C   0  0  0  0  0  0  0  0  0  0  0  0
    4.2274   13.4982   45.0971 C   0  0  0  0  0  0  0  0  0  0  0  0
    2.8518   13.3464   44.9022 N   0  0  0  0  0  0  0  0  0  0  0  0
    2.0921   14.4169   44.4066 C   0  0  0  0  0  0  0  0  0  0  0  0
    2.7068   15.6307   44.1048 C   0  0  0  0  0  0  0  0  0  0  0  0
    1.9466   16.6967   43.6131 C   0  0  0  0  0  0  0  0  0  0  0  0
    2.4769   17.9204   43.4820 N   0  0  0  0  0  0  0  0  0  0  0  0
    0.6725   16.4981   43.2604 N   0  0  0  0  0  0  0  0  0  0  0  0
   -0.0925   17.5002   42.7919 C   0  0  0  0  0  0  0  0  0  0  0  0
   -1.3741   17.5450   42.3975 N   0  0  0  0  0  0  0  0  0  0  0  0
   -2.3096   16.4165   42.3799 C   0  0  0  0  0  0  0  0  0  0  0  0
   -1.6750   18.6823   42.0324 N   0  0  0  0  0  0  0  0  0  0  0  0
   -0.5742   19.4442   42.1422 C   0  0  0  0  0  0  0  0  0  0  0  0
    0.4294   18.7143   42.6471 C   0  0  0  0  0  0  0  0  0  0  0  0
    1.7284   18.9271   42.9945 C   0  0  0  0  0  0  0  0  0  0  0  0
    2.2916   20.1527   42.8634 N   0  0  0  0  0  0  0  0  0  0  0  0
    4.5746   16.7223   44.0637 H   0  0  0  0  0  0  0  0  0  0  0  0
    5.9239   14.8249   44.9454 H   0  0  0  0  0  0  0  0  0  0  0  0
    4.8233   12.6610   45.4895 H   0  0  0  0  0  0  0  0  0  0  0  0
    1.0090   14.2979   44.2559 H   0  0  0  0  0  0  0  0  0  0  0  0
   -3.2316   16.6962   42.9106 H   0  0  0  0  0  0  0  0  0  0  0  0
   -2.5504   16.1560   41.3387 H   0  0  0  0  0  0  0  0  0  0  0  0
   -1.8487   15.5504   42.8774 H   0  0  0  0  0  0  0  0  0  0  0  0
   -0.5070   20.5054   41.8605 H   0  0  0  0  0  0  0  0  0  0  0  0
    1.7369   20.9373   42.4925 H   0  0  0  0  0  0  0  0  0  0  0  0
    3.2743   20.2995   43.1347 H   0  0  0  0  0  0  0  0  0  0  0  0
  1  2  2  0
  1  6  1  0
  2  3  1  0
  3  4  2  0
  4  5  1  0
  5  6  2  0
  6  7  1  0
  7  8  2  0
  7  9  1  0
  8 16  1  0
  9 10  2  0
 10 11  1  0
 10 15  1  0
 11 12  1  0
 11 13  1  0
 13 14  2  0
 14 15  1  0
 15 16  2  0
 16 17  1  0
  1 18  1  0
  2 19  1  0
  3 20  1  0
  5 21  1  0
 12 22  1  0
 12 23  1  0
 12 24  1  0
 14 25  1  0
 17 26  1  0
 17 27  1  0
M  END
>  <mol_id>  (51) 
2026-09-18-6fnk-s0-n100-r4-0051

>  <rmsd_to_ref>  (51) 
2.750000000004608

>  <pose_kind>  (51) 
rigid

$$$$
6fnk.A
     RDKit          3D

 27 29  0  0  0  0  0  0  0  0999 V2000
    0.2743   15.3010   44.8965 C   0  0  0  0  0  0  0  0  0  0  0  0
    0.1857   13.9975   45.3414 C   0  0  0  0  0  0  0  0  0  0  0  0
    0.6159   12.9136   44.6074 C   0  0  0  0  0  0  0  0  0  0  0  0
    1.1559   13.1395   43.3807 N   0  0  0  0  0  0  0  0  0  0  0  0
    1.2646   14.4067   42.8987 C   0  0  0  0  0  0  0  0  0  0  0  0
    0.8327   15.4804   43.6385 C   0  0  0  0  0  0  0  0  0  0  0  0
    0.9710   16.8289   43.0759 C   0  0  0  0  0  0  0  0  0  0  0  0
    1.5190   16.9461   41.8527 N   0  0  0  0  0  0  0  0  0  0  0  0
    0.5535   17.8959   43.7855 N   0  0  0  0  0  0  0  0  0  0  0  0
    0.6883   19.1357   43.2514 C   0  0  0  0  0  0  0  0  0  0  0  0
    0.3724   20.3673   43.7067 N   0  0  0  0  0  0  0  0  0  0  0  0
   -0.2422   20.5974   45.0090 C   0  0  0  0  0  0  0  0  0  0  0  0
    0.7097   21.2723   42.7936 N   0  0  0  0  0  0  0  0  0  0  0  0
    1.2509   20.6440   41.7287 C   0  0  0  0  0  0  0  0  0  0  0  0
    1.2462   19.2891   41.9995 C   0  0  0  0  0  0  0  0  0  0  0  0
    1.6682   18.1596   41.2924 C   0  0  0  0  0  0  0  0  0  0  0  0
    2.2451   18.3228   39.9968 N   0  0  0  0  0  0  0  0  0  0  0  0
   -0.0670   16.1372   45.4834 H   0  0  0  0  0  0  0  0  0  0  0  0
   -0.2542   13.8633   46.3310 H   0  0  0  0  0  0  0  0  0  0  0  0
    0.5366   11.8998   44.9762 H   0  0  0  0  0  0  0  0  0  0  0  0
    1.7034   14.5424   41.9112 H   0  0  0  0  0  0  0  0  0  0  0  0
    0.4852   20.7530   45.8135 H   0  0  0  0  0  0  0  0  0  0  0  0
   -0.8223   21.5431   44.9023 H   0  0  0  0  0  0  0  0  0  0  0  0
   -0.9861   19.8092   45.2621 H   0  0  0  0  0  0  0  0  0  0  0  0
    1.6310   21.0908   40.8099 H   0  0  0  0  0  0  0  0  0  0  0  0
    3.0827   18.9684   39.9101 H   0  0  0  0  0  0  0  0  0  0  0  0
    1.8611   17.8262   39.1554 H   0  0  0  0  0  0  0  0  0  0  0  0
  1  2  2  0
  1  6  1  0
  2  3  1  0
  3  4  2  0
  4  5  1  0
  5  6  2  0
  6  7  1  0
  7  8  2  0
  7  9  1  0
  8 16  1  0
  9 10  2  0
 10 11  1  0
 10 15  1  0
 11 12  1  0
 11 13  1  0
 13 14  2  0
 14 15  1  0
 15 16  2  0
 16 17  1  0
  1 18  1  0
  2 19  1  0
  3 20  1  0
  5 21  1  0
 12 22  1  0
 12 23  1  0
 12 24  1  0
 14 25  1  0
 17 26  1  0
 17 27  1  0
M  END
>  <mol_id>  (52) 
2026-09-18-6fnk-s0-n100-r4-0052

>  <rmsd_to_ref>  (52) 
2.795918367352367

>  <pose_kind>  (52) 
conformer

$$$$
6fnk.A
     RDKit          3D

 27 29  0  0  0  0  0  0  0  0999 V2000
    3.4131   17.1495   42.6310 C   0  0  0  0  0  0  0  0  0  0  0  0
    4.7217   16.8039   42.9685 C   0  0  0  0  0  0  0  0  0  0  0  0
    5.0711   16.6308   44.2998 C   0  0  0  0  0  0  0  0  0  0  0  0
    4.1106   16.7992   45.3010 N   0  0  0  0  0  0  0  0  0  0  0  0
    2.7954   17.1484   44.9585 C   0  0  0  0  0  0  0  0  0  0  0  0
    2.4438   17.3244   43.6215 C   0  0  0  0  0  0  0  0  0  0  0  0
    1.1326   17.6748   43.2834 C   0  0  0  0  0  0  0  0  0  0  0  0
    0.8119   18.0200   42.0288 N   0  0  0  0  0  0  0  0  0  0  0  0
    0.1780   17.6613   44.2192 N   0  0  0  0  0  0  0  0  0  0  0  0
   -1.0919   18.0002   43.9341 C   0  0  0  0  0  0  0  0  0  0  0  0
   -2.1952   18.0757   44.6939 N   0  0  0  0  0  0  0  0  0  0  0  0
   -2.2764   17.7750   46.1264 C   0  0  0  0  0  0  0  0  0  0  0  0
   -3.1622   18.4303   44.0184 N   0  0  0  0  0  0  0  0  0  0  0  0
   -2.7369   18.5758   42.7527 C   0  0  0  0  0  0  0  0  0  0  0  0
   -1.4211   18.3319   42.6896 C   0  0  0  0  0  0  0  0  0  0  0  0
   -0.4596   18.3409   41.7258 C   0  0  0  0  0  0  0  0  0  0  0  0
   -0.7591   18.6773   40.4477 N   0  0  0  0  0  0  0  0  0  0  0  0
    3.1416   17.2858   41.5737 H   0  0  0  0  0  0  0  0  0  0  0  0
    5.4762   16.6687   42.1795 H   0  0  0  0  0  0  0  0  0  0  0  0
    6.1034   16.3612   44.5673 H   0  0  0  0  0  0  0  0  0  0  0  0
    2.0404   17.2836   45.7470 H   0  0  0  0  0  0  0  0  0  0  0  0
   -2.7498   18.6176   46.6516 H   0  0  0  0  0  0  0  0  0  0  0  0
   -2.8765   16.8655   46.2766 H   0  0  0  0  0  0  0  0  0  0  0  0
   -1.2638   17.6163   46.5257 H   0  0  0  0  0  0  0  0  0  0  0  0
   -3.3720   18.8529   41.8984 H   0  0  0  0  0  0  0  0  0  0  0  0
   -1.7258   18.9264   40.1938 H   0  0  0  0  0  0  0  0  0  0  0  0
   -0.0202   18.6840   39.7302 H   0  0  0  0  0  0  0  0  0  0  0  0
  1  2  2  0
  1  6  1  0
  2  3  1  0
  3  4  2  0
  4  5  1  0
  5  6  2  0
  6  7  1  0
  7  8  2  0
  7  9  1  0
  8 16  1  0
  9 10  2  0
 10 11  1  0
 10 15  1  0
 11 12  1  0
 11 13  1  0
 13 14  2  0
 14 15  1  0
 15 16  2  0
 16 17  1  0
  1 18  1  0
  2 19  1  0
  3 20  1  0
  5 21  1  0
 12 22  1  0
 12 23  1  0
 12 24  1  0
 14 25  1  0
 17 26  1  0
 17 27  1  0
M  END
>  <mol_id>  (53) 
2026-09-18-6fnk-s0-n100-r4-0053

>  <rmsd_to_ref>  (53) 
2.8418367346980595

>  <pose_kind>  (53) 
rigid

$$$$
6fnk.A
     RDKit          3D

 27 29  0  0  0  0  0  0  0  0999 V2000
    3.7179   15.7071   42.9613 C   0  0  0  0  0  0  0  0  0  0  0  0
    5.0310   15.4059   42.6625 C   0  0  0  0  0  0  0  0  0  0  0  0
    5.9161   16.4247   42.3538 C   0  0  0  0  0  0  0  0  0  0  0  0
    5.5651   17.7201   42.3270 N   0  0  0  0  0  0  0  0  0  0  0  0
    4.2892   18.0135   42.6173 C   0  0  0  0  0  0  0  0  0  0  0  0
    3.3549   17.0435   42.9339 C   0  0  0  0  0  0  0  0  0  0  0  0
    1.9812   17.4523   43.2383 C   0  0  0  0  0  0  0  0  0  0  0  0
    1.6886   18.7644   43.1955 N   0  0  0  0  0  0  0  0  0  0  0  0
    1.0600   16.5215   43.5481 N   0  0  0  0  0  0  0  0  0  0  0  0
   -0.2081   16.9239   43.8269 C   0  0  0  0  0  0  0  0  0  0  0  0
   -1.3297   16.2460   44.1642 N   0  0  0  0  0  0  0  0  0  0  0  0
   -1.3885   14.7965   44.3060 C   0  0  0  0  0  0  0  0  0  0  0  0
   -2.3346   17.0871   44.3392 N   0  0  0  0  0  0  0  0  0  0  0  0
   -1.8714   18.3457   44.1140 C   0  0  0  0  0  0  0  0  0  0  0  0
   -0.5279   18.2816   43.7869 C   0  0  0  0  0  0  0  0  0  0  0  0
    0.4464   19.2147   43.4637 C   0  0  0  0  0  0  0  0  0  0  0  0
    0.0978   20.5892   43.4293 N   0  0  0  0  0  0  0  0  0  0  0  0
    2.9731   14.9603   43.2113 H   0  0  0  0  0  0  0  0  0  0  0  0
    5.3517   14.3550   42.6753 H   0  0  0  0  0  0  0  0  0  0  0  0
    6.9407   16.1907   42.1206 H   0  0  0  0  0  0  0  0  0  0  0  0
    4.0306   19.0823   42.5875 H   0  0  0  0  0  0  0  0  0  0  0  0
   -1.5552   14.3306   43.2980 H   0  0  0  0  0  0  0  0  0  0  0  0
   -2.2636   14.5445   44.9371 H   0  0  0  0  0  0  0  0  0  0  0  0
   -0.4484   14.4231   44.7245 H   0  0  0  0  0  0  0  0  0  0  0  0
   -2.4678   19.2697   44.1807 H   0  0  0  0  0  0  0  0  0  0  0  0
   -0.3721   21.0111   44.2743 H   0  0  0  0  0  0  0  0  0  0  0  0
    0.2761   21.2188   42.6169 H   0  0  0  0  0  0  0  0  0  0  0  0
  1  2  2  0
  1  6  1  0
  2  3  1  0
  3  4  2  0
  4  5  1  0
  5  6  2  0
  6  7  1  0
  7  8  2  0
  7  9  1  0
  8 16  1  0
  9 10  2  0
 10 11  1  0
 10 15  1  0
 11 12  1  0
 11 13  1  0
 13 14  2  0
 14 15  1  0
 15 16  2  0
 16 17  1  0
  1 18  1  0
  2 19  1  0
  3 20  1  0
  5 21  1  0
 12 22  1  0
 12 23  1  0
 12 24  1  0
 14 25  1  0
 17 26  1  0
 17 27  1  0
M  END
>  <mol_id>  (54) 
2026-09-18-6fnk-s0-n100-r4-0054

>  <rmsd_to_ref>  (54) 
2.8877551020416017

>  <pose_kind>  (54) 
conformer

$$$$
6fnk.A
     RDKit          3D

 27 29  0  0  0  0  0  0  0  0999 V2000
   -0.0142   15.0641   41.5663 C   0  0  0  0  0  0  0  0  0  0  0  0
   -0.8305   13.9811   41.2397 C   0  0  0  0  0  0  0  0  0  0  0  0
   -2.0597   13.8269   41.8641 C   0  0  0  0  0  0  0  0  0  0  0  0
   -2.4803   14.7590   42.8168 N   0  0  0  0  0  0  0  0  0  0  0  0
   -1.6564   15.8465   43.1444 C   0  0  0  0  0  0  0  0  0  0  0  0
   -0.4205   16.0014   42.5192 C   0  0  0  0  0  0  0  0  0  0  0  0
    0.3996   17.0851   42.8495 C   0  0  0  0  0  0  0  0  0  0  0  0
    1.6586   17.1615   42.3966 N   0  0  0  0  0  0  0  0  0  0  0  0
   -0.0747   18.0667   43.6232 N   0  0  0  0  0  0  0  0  0  0  0  0
    0.6864   19.1202   43.9692 C   0  0  0  0  0  0  0  0  0  0  0  0
    0.4400   20.1963   44.7318 N   0  0  0  0  0  0  0  0  0  0  0  0
   -0.8221   20.4977   45.4138 C   0  0  0  0  0  0  0  0  0  0  0  0
    1.4307   20.9264   44.7827 N   0  0  0  0  0  0  0  0  0  0  0  0
    2.3813   20.3686   44.0149 C   0  0  0  0  0  0  0  0  0  0  0  0
    1.9322   19.2100   43.5142 C   0  0  0  0  0  0  0  0  0  0  0  0
    2.4238   18.2209   42.7182 C   0  0  0  0  0  0  0  0  0  0  0  0
    3.6903   18.2783   42.2396 N   0  0  0  0  0  0  0  0  0  0  0  0
    0.9595   15.1814   41.0683 H   0  0  0  0  0  0  0  0  0  0  0  0
   -0.4998   13.2498   40.4875 H   0  0  0  0  0  0  0  0  0  0  0  0
   -2.7029   12.9717   41.6095 H   0  0  0  0  0  0  0  0  0  0  0  0
   -1.9866   16.5783   43.8963 H   0  0  0  0  0  0  0  0  0  0  0  0
   -0.6245   20.7058   46.4757 H   0  0  0  0  0  0  0  0  0  0  0  0
   -1.2892   21.3782   44.9483 H   0  0  0  0  0  0  0  0  0  0  0  0
   -1.4997   19.6353   45.3290 H   0  0  0  0  0  0  0  0  0  0  0  0
    3.3764   20.7976   43.8262 H   0  0  0  0  0  0  0  0  0  0  0  0
    4.2934   19.0800   42.4733 H   0  0  0  0  0  0  0  0  0  0  0  0
    4.0499   17.5203   41.6422 H   0  0  0  0  0  0  0  0  0  0  0  0
  1  2  2  0
  1  6  1  0
  2  3  1  0
  3  4  2  0
  4  5  1  0
  5  6  2  0
  6  7  1  0
  7  8  2  0
  7  9  1  0
  8 16  1  0
  9 10  2  0
 10 11  1  0
 10 15  1  0
 11 12  1  0
 11 13  1  0
 13 14  2  0
 14 15  1  0
 15 16  2  0
 16 17  1  0
  1 18  1  0
  2 19  1  0
  3 20  1  0
  5 21  1  0
 12 22  1  0
 12 23  1  0
 12 24  1  0
 14 25  1  0
 17 26  1  0
 17 27  1  0
M  END
>  <mol_id>  (55) 
2026-09-18-6fnk-s0-n100-r4-0055

>  <rmsd_to_ref>  (55) 
2.93367346939138

>  <pose_kind>  (55) 
rigid

$$$$
6fnk.A
     RDKit          3D

 27 29  0  0  0  0  0  0  0  0999 V2000
    4.3331   16.4179   41.3492 C   0  0  0  0  0  0  0  0  0  0  0  0
    5.4273   15.7043   40.8664 C   0  0  0  0  0  0  0  0  0  0  0  0
    6.6332   15.6717   41.5393 C   0  0  0  0  0  0  0  0  0  0  0  0
    6.7720   16.3432   42.6957 N   0  0  0  0  0  0  0  0  0  0  0  0
    5.7295   17.0553   43.2072 C   0  0  0  0  0  0  0  0  0  0  0  0
    4.5247   17.0902   42.5387 C   0  0  0  0  0  0  0  0  0  0  0  0
    3.4411   17.8775   43.1456 C   0  0  0  0  0  0  0  0  0  0  0  0
    3.6942   18.5085   44.3062 N   0  0  0  0  0  0  0  0  0  0  0  0
    2.2276   17.9588   42.5462 N   0  0  0  0  0  0  0  0  0  0  0  0
    1.2432   18.6953   43.1318 C   0  0  0  0  0  0  0  0  0  0  0  0
   -0.0399   18.9731   42.8045 N   0  0  0  0  0  0  0  0  0  0  0  0
   -0.7122   18.4825   41.6163 C   0  0  0  0  0  0  0  0  0  0  0  0
   -0.5833   19.7494   43.7187 N   0  0  0  0  0  0  0  0  0  0  0  0
    0.3141   20.0147   44.6820 C   0  0  0  0  0  0  0  0  0  0  0  0
    1.4727   19.3558   44.3253 C   0  0  0  0  0  0  0  0  0  0  0  0
    2.7289   19.2465   44.9055 C   0  0  0  0  0  0  0  0  0  0  0  0
    3.0211   19.9065   46.1360 N   0  0  0  0  0  0  0  0  0  0  0  0
    3.3845   16.4470   40.8254 H   0  0  0  0  0  0  0  0  0  0  0  0
    5.3082   15.1575   39.9211 H   0  0  0  0  0  0  0  0  0  0  0  0
    7.4961   15.1074   41.1561 H   0  0  0  0  0  0  0  0  0  0  0  0
    5.9077   17.5718   44.1397 H   0  0  0  0  0  0  0  0  0  0  0  0
   -1.6478   19.0555   41.4524 H   0  0  0  0  0  0  0  0  0  0  0  0
    0.0033   18.6084   40.7674 H   0  0  0  0  0  0  0  0  0  0  0  0
   -0.8838   17.3849   41.7437 H   0  0  0  0  0  0  0  0  0  0  0  0
    0.2155   20.6139   45.5804 H   0  0  0  0  0  0  0  0  0  0  0  0
    3.5198   19.3359   46.8580 H   0  0  0  0  0  0  0  0  0  0  0  0
    2.7412   20.9037   46.2807 H   0  0  0  0  0  0  0  0  0  0  0  0
  1  2  2  0
  1  6  1  0
  2  3  1  0
  3  4  2  0
  4  5  1  0
  5  6  2  0
  6  7  1  0
  7  8  2  0
  7  9  1  0
  8 16  1  0
  9 10  2  0
 10 11  1  0
 10 15  1  0
 11 12  1  0
 11 13  1  0
 13 14  2  0
 14 15  1  0
 15 16  2  0
 16 17  1  0
  1 18  1  0
  2 19  1  0
  3 20  1  0
  5 21  1  0
 12 22  1  0
 12 23  1  0
 12 24  1  0
 14 25  1  0
 17 26  1  0
 17 27  1  0
M  END
>  <mol_id>  (56) 
2026-09-18-6fnk-s0-n100-r4-0056

>  <rmsd_to_ref>  (56) 
2.9795918367355894

>  <pose_kind>  (56) 
conformer

$$$$
6fnk.A
     RDKit          3D

 27 29  0  0  0  0  0  0  0  0999 V2000
    2.4598   19.6730   40.6671 C   0  0  0  0  0  0  0  0  0  0  0  0
    2.9952   19.4421   39.3998 C   0  0  0  0  0  0  0  0  0  0  0  0
    3.2196   18.1427   38.9689 C   0  0  0  0  0  0  0  0  0  0  0  0
    2.9055   17.0665   39.8035 N   0  0  0  0  0  0  0  0  0  0  0  0
    2.3685   17.3020   41.0782 C   0  0  0  0  0  0  0  0  0  0  0  0
    2.1443   18.6070   41.5130 C   0  0  0  0  0  0  0  0  0  0  0  0
    1.6112   18.8387   42.7851 C   0  0  0  0  0  0  0  0  0  0  0  0
    1.5501   20.0773   43.2931 N   0  0  0  0  0  0  0  0  0  0  0  0
    1.1475   17.8147   43.5086 N   0  0  0  0  0  0  0  0  0  0  0  0
    0.6357   17.9969   44.7390 C   0  0  0  0  0  0  0  0  0  0  0  0
    0.1347   17.1394   45.6411 N   0  0  0  0  0  0  0  0  0  0  0  0
    0.0151   15.6877   45.4755 C   0  0  0  0  0  0  0  0  0  0  0  0
   -0.2318   17.7401   46.6520 N   0  0  0  0  0  0  0  0  0  0  0  0
   -0.0137   19.0489   46.4433 C   0  0  0  0  0  0  0  0  0  0  0  0
    0.5601   19.2237   45.2453 C   0  0  0  0  0  0  0  0  0  0  0  0
    1.0209   20.2758   44.5146 C   0  0  0  0  0  0  0  0  0  0  0  0
    0.9627   21.5393   45.0012 N   0  0  0  0  0  0  0  0  0  0  0  0
    2.2841   20.7054   41.0038 H   0  0  0  0  0  0  0  0  0  0  0  0
    3.2393   20.2898   38.7427 H   0  0  0  0  0  0  0  0  0  0  0  0
    3.6445   17.9595   37.9710 H   0  0  0  0  0  0  0  0  0  0  0  0
    2.1239   16.4548   41.7358 H   0  0  0  0  0  0  0  0  0  0  0  0
    0.4709   15.1814   46.3391 H   0  0  0  0  0  0  0  0  0  0  0  0
   -1.0478   15.4127   45.4082 H   0  0  0  0  0  0  0  0  0  0  0  0
    0.5325   15.3799   44.5549 H   0  0  0  0  0  0  0  0  0  0  0  0
   -0.2674   19.8543   47.1483 H   0  0  0  0  0  0  0  0  0  0  0  0
    0.5617   21.7140   45.9337 H   0  0  0  0  0  0  0  0  0  0  0  0
    1.3195   22.3248   44.4386 H   0  0  0  0  0  0  0  0  0  0  0  0
  1  2  2  0
  1  6  1  0
  2  3  1  0
  3  4  2  0
  4  5  1  0
  5  6  2  0
  6  7  1  0
  7  8  2  0
  7  9  1  0
  8 16  1  0
  9 10  2  0
 10 11  1  0
 10 15  1  0
 11 12  1  0
 11 13  1  0
 13 14  2  0
 14 15  1  0
 15 16  2  0
 16 17  1  0
  1 18  1  0
  2 19  1  0
  3 20  1  0
  5 21  1  0
 12 22  1  0
 12 23  1  0
 12 24  1  0
 14 25  1  0
 17 26  1  0
 17 27  1  0
M  END
>  <mol_id>  (57) 
2026-09-18-6fnk-s0-n100-r4-0057

>  <rmsd_to_ref>  (57) 
3.0255102040826394

>  <pose_kind>  (57) 
rigid

$$$$
6fnk.A
     RDKit          3D

 27 29  0  0  0  0  0  0  0  0999 V2000
    4.5595   16.0346   42.1232 C   0  0  0  0  0  0  0  0  0  0  0  0
    5.8974   15.6935   42.0339 C   0  0  0  0  0  0  0  0  0  0  0  0
    6.8452   16.6819   41.8203 C   0  0  0  0  0  0  0  0  0  0  0  0
    6.4312   17.9754   41.7027 N   0  0  0  0  0  0  0  0  0  0  0  0
    5.1277   18.2968   41.7911 C   0  0  0  0  0  0  0  0  0  0  0  0
    4.1660   17.3273   42.0037 C   0  0  0  0  0  0  0  0  0  0  0  0
    2.7692   17.7502   42.0888 C   0  0  0  0  0  0  0  0  0  0  0  0
    2.4906   19.0696   41.9549 N   0  0  0  0  0  0  0  0  0  0  0  0
    1.7805   16.8601   42.2944 N   0  0  0  0  0  0  0  0  0  0  0  0
    0.4739   17.2301   42.3772 C   0  0  0  0  0  0  0  0  0  0  0  0
   -0.6852   16.5767   42.5705 N   0  0  0  0  0  0  0  0  0  0  0  0
   -0.7909   15.1422   42.7561 C   0  0  0  0  0  0  0  0  0  0  0  0
   -1.6288   17.4759   42.5531 N   0  0  0  0  0  0  0  0  0  0  0  0
   -1.1599   18.7168   42.3555 C   0  0  0  0  0  0  0  0  0  0  0  0
    0.2146   18.5852   42.2370 C   0  0  0  0  0  0  0  0  0  0  0  0
    1.2031   19.5203   42.0259 C   0  0  0  0  0  0  0  0  0  0  0  0
    0.9150   20.9139   41.8839 N   0  0  0  0  0  0  0  0  0  0  0  0
    3.8072   15.2786   42.2892 H   0  0  0  0  0  0  0  0  0  0  0  0
    6.2235   14.6671   42.1274 H   0  0  0  0  0  0  0  0  0  0  0  0
    7.8997   16.4313   41.7477 H   0  0  0  0  0  0  0  0  0  0  0  0
    4.8663   19.3343   41.6899 H   0  0  0  0  0  0  0  0  0  0  0  0
   -0.0707   14.8666   43.5426 H   0  0  0  0  0  0  0  0  0  0  0  0
   -0.6396   14.6323   41.7913 H   0  0  0  0  0  0  0  0  0  0  0  0
   -1.8023   14.8832   43.1335 H   0  0  0  0  0  0  0  0  0  0  0  0
   -1.6781   19.6546   42.2917 H   0  0  0  0  0  0  0  0  0  0  0  0
    0.2532   21.4328   42.4780 H   0  0  0  0  0  0  0  0  0  0  0  0
    1.4471   21.3946   41.0981 H   0  0  0  0  0  0  0  0  0  0  0  0
  1  2  2  0
  1  6  1  0
  2  3  1  0
  3  4  2  0
  4  5  1  0
  5  6  2  0
  6  7  1  0
  7  8  2  0
  7  9  1  0
  8 16  1  0
  9 10  2  0
 10 11  1  0
 10 15  1  0
 11 12  1  0
 11 13  1  0
 13 14  2  0
 14 15  1  0
 15 16  2  0
 16 17  1  0
  1 18  1  0
  2 19  1  0
  3 20  1  0
  5 21  1  0
 12 22  1  0
 12 23  1  0
 12 24  1  0
 14 25  1  0
 17 26  1  0
 17 27  1  0
M  END
>  <mol_id>  (58) 
2026-09-18-6fnk-s0-n100-r4-0058

>  <rmsd_to_ref>  (58) 
3.071428571428953

>  <pose_kind>  (58) 
conformer

$$$$
6fnk.A
     RDKit          3D

 27 29  0  0  0  0  0  0  0  0999 V2000
    1.8698   15.7738   42.3172 C   0  0  0  0  0  0  0  0  0  0  0  0
    2.4009   14.7884   43.1496 C   0  0  0  0  0  0  0  0  0  0  0  0
    2.8016   15.1118   44.4377 C   0  0  0  0  0  0  0  0  0  0  0  0
    2.6692   16.4237   44.9011 N   0  0  0  0  0  0  0  0  0  0  0  0
    2.1361   17.4130   44.0610 C   0  0  0  0  0  0  0  0  0  0  0  0
    1.7349   17.0898   42.7661 C   0  0  0  0  0  0  0  0  0  0  0  0
    1.2061   18.0786   41.9303 C   0  0  0  0  0  0  0  0  0  0  0  0
    0.9777   17.8358   40.6322 N   0  0  0  0  0  0  0  0  0  0  0  0
    0.9153   19.2847   42.4279 N   0  0  0  0  0  0  0  0  0  0  0  0
    0.4138   20.2634   41.6537 C   0  0  0  0  0  0  0  0  0  0  0  0
    0.0664   21.5319   41.9192 N   0  0  0  0  0  0  0  0  0  0  0  0
    0.1558   22.1940   43.2240 C   0  0  0  0  0  0  0  0  0  0  0  0
   -0.3583   22.0857   40.9042 N   0  0  0  0  0  0  0  0  0  0  0  0
   -0.3389   21.1790   39.9134 C   0  0  0  0  0  0  0  0  0  0  0  0
    0.1727   20.0271   40.3679 C   0  0  0  0  0  0  0  0  0  0  0  0
    0.4563   18.8000   39.8512 C   0  0  0  0  0  0  0  0  0  0  0  0
    0.2266   18.5256   38.5441 N   0  0  0  0  0  0  0  0  0  0  0  0
    1.5538   15.5119   41.2966 H   0  0  0  0  0  0  0  0  0  0  0  0
    2.5019   13.7556   42.7848 H   0  0  0  0  0  0  0  0  0  0  0  0
    3.2233   14.3362   45.0939 H   0  0  0  0  0  0  0  0  0  0  0  0
    2.0345   18.4460   44.4253 H   0  0  0  0  0  0  0  0  0  0  0  0
    0.7023   23.1427   43.1171 H   0  0  0  0  0  0  0  0  0  0  0  0
   -0.8570   22.3951   43.6033 H   0  0  0  0  0  0  0  0  0  0  0  0
    0.6891   21.5412   43.9307 H   0  0  0  0  0  0  0  0  0  0  0  0
   -0.6895   21.3552   38.8858 H   0  0  0  0  0  0  0  0  0  0  0  0
   -0.1719   19.2488   37.9284 H   0  0  0  0  0  0  0  0  0  0  0  0
    0.4505   17.5939   38.1664 H   0  0  0  0  0  0  0  0  0  0  0  0
  1  2  2  0
  1  6  1  0
  2  3  1  0
  3  4  2  0
  4  5  1  0
  5  6  2  0
  6  7  1  0
  7  8  2  0
  7  9  1  0
  8 16  1  0
  9 10  2  0
 10 11  1  0
 10 15  1  0
 11 12  1  0
 11 13  1  0
 13 14  2  0
 14 15  1  0
 15 16  2  0
 16 17  1  0
  1 18  1  0
  2 19  1  0
  3 20  1  0
  5 21  1  0
 12 22  1  0
 12 23  1  0
 12 24  1  0
 14 25  1  0
 17 26  1  0
 17 27  1  0
M  END
>  <mol_id>  (59) 
2026-09-18-6fnk-s0-n100-r4-0059

>  <rmsd_to_ref>  (59) 
3.1173469387788586

>  <pose_kind>  (59) 
rigid

$$$$
6fnk.A
     RDKit          3D

 27 29  0  0  0  0  0  0  0  0999 V2000
    2.2748   14.6708   42.1301 C   0  0  0  0  0  0  0  0  0  0  0  0
    1.5102   13.5269   42.2511 C   0  0  0  0  0  0  0  0  0  0  0  0
    0.2348   13.6012   42.8004 C   0  0  0  0  0  0  0  0  0  0  0  0
   -0.2947   14.7679   43.2277 N   0  0  0  0  0  0  0  0  0  0  0  0
    0.4371   15.9005   43.1186 C   0  0  0  0  0  0  0  0  0  0  0  0
    1.7218   15.8695   42.5729 C   0  0  0  0  0  0  0  0  0  0  0  0
    2.5137   17.1016   42.4559 C   0  0  0  0  0  0  0  0  0  0  0  0
    3.7417   17.0952   41.9383 N   0  0  0  0  0  0  0  0  0  0  0  0
    1.9787   18.2575   42.8836 N   0  0  0  0  0  0  0  0  0  0  0  0
    2.6550   19.4410   42.8067 C   0  0  0  0  0  0  0  0  0  0  0  0
    2.3504   20.7119   43.1577 N   0  0  0  0  0  0  0  0  0  0  0  0
    1.1023   21.0965   43.7500 C   0  0  0  0  0  0  0  0  0  0  0  0
    3.3960   21.4819   42.8529 N   0  0  0  0  0  0  0  0  0  0  0  0
    4.3871   20.7217   42.3028 C   0  0  0  0  0  0  0  0  0  0  0  0
    3.9431   19.4190   42.2611 C   0  0  0  0  0  0  0  0  0  0  0  0
    4.4881   18.2312   41.8236 C   0  0  0  0  0  0  0  0  0  0  0  0
    5.7961   18.1864   41.2657 N   0  0  0  0  0  0  0  0  0  0  0  0
    3.2835   14.6504   41.7023 H   0  0  0  0  0  0  0  0  0  0  0  0
    1.9243   12.5693   41.9089 H   0  0  0  0  0  0  0  0  0  0  0  0
   -0.3719   12.7095   42.8992 H   0  0  0  0  0  0  0  0  0  0  0  0
    0.0249   16.8614   43.4605 H   0  0  0  0  0  0  0  0  0  0  0  0
    1.0339   22.2072   43.7553 H   0  0  0  0  0  0  0  0  0  0  0  0
    1.0496   20.7383   44.8053 H   0  0  0  0  0  0  0  0  0  0  0  0
    0.2636   20.6952   43.1443 H   0  0  0  0  0  0  0  0  0  0  0  0
    5.3461   21.0610   41.9590 H   0  0  0  0  0  0  0  0  0  0  0  0
    6.5906   17.6579   41.6896 H   0  0  0  0  0  0  0  0  0  0  0  0
    5.9575   18.7169   40.3815 H   0  0  0  0  0  0  0  0  0  0  0  0
  1  2  2  0
  1  6  1  0
  2  3  1  0
  3  4  2  0
  4  5  1  0
  5  6  2  0
  6  7  1  0
  7  8  2  0
  7  9  1  0
  8 16  1  0
  9 10  2  0
 10 11  1  0
 10 15  1  0
 11 12  1  0
 11 13  1  0
 13 14  2  0
 14 15  1  0
 15 16  2  0
 16 17  1  0
  1 18  1  0
  2 19  1  0
  3 20  1  0
  5 21  1  0
 12 22  1  0
 12 23  1  0
 12 24  1  0
 14 25  1  0
 17 26  1  0
 17 27  1  0
M  END
>  <mol_id>  (60) 
2026-09-18-6fnk-s0-n100-r4-0060

>  <rmsd_to_ref>  (60) 
3.16326530612704

>  <pose_kind>  (60) 
conformer

$$$$
6fnk.A
     RDKit          3D

 27 29  0  0  0  0  0  0  0  0999 V2000
    3.6120   14.7330   44.8258 C   0  0  0  0  0  0  0  0  0  0  0  0
    4.3087   13.5410   45.0252 C   0  0  0  0  0  0  0  0  0  0  0  0
    3.9100   12.3871   44.3664 C   0  0  0  0  0  0  0  0  0  0  0  0
    2.8132   12.4211   43.5009 N   0  0  0  0  0  0  0  0  0  0  0  0
    2.1134   13.6211   43.3036 C   0  0  0  0  0  0  0  0  0  0  0  0
    2.5118   14.7806   43.9663 C   0  0  0  0  0  0  0  0  0  0  0  0
    1.8108   15.9748   43.7695 C   0  0  0  0  0  0  0  0  0  0  0  0
    2.0613   17.0547   44.5226 N   0  0  0  0  0  0  0  0  0  0  0  0
    0.8797   16.0497   42.8132 N   0  0  0  0  0  0  0  0  0  0  0  0
    0.1791   17.1778   42.5998 C   0  0  0  0  0  0  0  0  0  0  0  0
   -0.7952   17.4806   41.7285 N   0  0  0  0  0  0  0  0  0  0  0  0
   -1.3616   16.5776   40.7221 C   0  0  0  0  0  0  0  0  0  0  0  0
   -1.1601   18.6477   41.8759 N   0  0  0  0  0  0  0  0  0  0  0  0
   -0.4052   19.1853   42.8482 C   0  0  0  0  0  0  0  0  0  0  0  0
    0.4300   18.2572   43.3341 C   0  0  0  0  0  0  0  0  0  0  0  0
    1.3821   18.1961   44.3052 C   0  0  0  0  0  0  0  0  0  0  0  0
    1.6611   19.2761   45.0746 N   0  0  0  0  0  0  0  0  0  0  0  0
    3.9323   15.6449   45.3509 H   0  0  0  0  0  0  0  0  0  0  0  0
    5.1737   13.5161   45.7043 H   0  0  0  0  0  0  0  0  0  0  0  0
    4.4569   11.4459   44.5251 H   0  0  0  0  0  0  0  0  0  0  0  0
    1.2485   13.6468   42.6245 H   0  0  0  0  0  0  0  0  0  0  0  0
   -2.4577   16.5676   40.8139 H   0  0  0  0  0  0  0  0  0  0  0  0
   -1.0810   16.9262   39.7173 H   0  0  0  0  0  0  0  0  0  0  0  0
   -0.9712   15.5614   40.8800 H   0  0  0  0  0  0  0  0  0  0  0  0
   -0.4638   20.2282   43.1929 H   0  0  0  0  0  0  0  0  0  0  0  0
    1.1533   20.1598   44.9254 H   0  0  0  0  0  0  0  0  0  0  0  0
    2.3810   19.2135   45.8086 H   0  0  0  0  0  0  0  0  0  0  0  0
  1  2  2  0
  1  6  1  0
  2  3  1  0
  3  4  2  0
  4  5  1  0
  5  6  2  0
  6  7  1  0
  7  8  2  0
  7  9  1  0
  8 16  1  0
  9 10  2  0
 10 11  1  0
 10 15  1  0
 11 12  1  0
 11 13  1  0
 13 14  2  0
 14 15  1  0
 15 16  2  0
 16 17  1  0
  1 18  1  0
  2 19  1  0
  3 20  1  0
  5 21  1  0
 12 22  1  0
 12 23  1  0
 12 24  1  0
 14 25  1  0
 17 26  1  0
 17 27  1  0
M  END
>  <mol_id>  (61) 
2026-09-18-6fnk-s0-n100-r4-0061

>  <rmsd_to_ref>  (61) 
3.209183673470812

>  <pose_kind>  (61) 
rigid

$$$$
6fnk.A
     RDKit          3D

 27 29  0  0  0  0  0  0  0  0999 V2000
   -1.7264   15.8840   42.6517 C   0  0  0  0  0  0  0  0  0  0  0  0
   -2.6199   14.9198   42.1747 C   0  0  0  0  0  0  0  0  0  0  0  0
   -2.5374   14.4560   40.8627 C   0  0  0  0  0  0  0  0  0  0  0  0
   -1.5760   14.9424   40.0244 N   0  0  0  0  0  0  0  0  0  0  0  0
   -0.6969   15.8818   40.4710 C   0  0  0  0  0  0  0  0  0  0  0  0
   -0.7628   16.3512   41.7615 C   0  0  0  0  0  0  0  0  0  0  0  0
    0.2043   17.3672   42.2103 C   0  0  0  0  0  0  0  0  0  0  0  0
    1.1202   17.7942   41.3225 N   0  0  0  0  0  0  0  0  0  0  0  0
    0.1835   17.8536   43.4474 N   0  0  0  0  0  0  0  0  0  0  0  0
    1.0872   18.7811   43.8133 C   0  0  0  0  0  0  0  0  0  0  0  0
    1.2957   19.4304   44.9654 N   0  0  0  0  0  0  0  0  0  0  0  0
    0.4893   19.2247   46.1648 C   0  0  0  0  0  0  0  0  0  0  0  0
    2.3192   20.2561   44.8282 N   0  0  0  0  0  0  0  0  0  0  0  0
    2.8163   20.1724   43.5727 C   0  0  0  0  0  0  0  0  0  0  0  0
    2.0434   19.2382   42.9139 C   0  0  0  0  0  0  0  0  0  0  0  0
    2.0459   18.7191   41.6352 C   0  0  0  0  0  0  0  0  0  0  0  0
    3.0169   19.1621   40.6702 N   0  0  0  0  0  0  0  0  0  0  0  0
   -1.7691   16.2593   43.6621 H   0  0  0  0  0  0  0  0  0  0  0  0
   -3.3848   14.5411   42.8619 H   0  0  0  0  0  0  0  0  0  0  0  0
   -3.2435   13.6987   40.4973 H   0  0  0  0  0  0  0  0  0  0  0  0
    0.0359   16.2160   39.7422 H   0  0  0  0  0  0  0  0  0  0  0  0
   -0.3952   19.8926   46.1953 H   0  0  0  0  0  0  0  0  0  0  0  0
    0.1328   18.1735   46.2059 H   0  0  0  0  0  0  0  0  0  0  0  0
    1.1171   19.4803   47.0566 H   0  0  0  0  0  0  0  0  0  0  0  0
    3.6328   20.6881   43.1123 H   0  0  0  0  0  0  0  0  0  0  0  0
    3.8157   19.7294   40.9840 H   0  0  0  0  0  0  0  0  0  0  0  0
    2.8918   18.8998   39.6736 H   0  0  0  0  0  0  0  0  0  0  0  0
  1  2  2  0
  1  6  1  0
  2  3  1  0
  3  4  2  0
  4  5  1  0
  5  6  2  0
  6  7  1  0
  7  8  2  0
  7  9  1  0
  8 16  1  0
  9 10  2  0
 10 11  1  0
 10 15  1  0
 11 12  1  0
 11 13  1  0
 13 14  2  0
 14 15  1  0
 15 16  2  0
 16 17  1  0
  1 18  1  0
  2 19  1  0
  3 20  1  0
  5 21  1  0
 12 22  1  0
 12 23  1  0
 12 24  1  0
 14 25  1  0
 17 26  1  0
 17 27  1  0
M  END
>  <mol_id>  (62) 
2026-09-18-6fnk-s0-n100-r4-0062

>  <rmsd_to_ref>  (62) 
3.2551020408222686

>  <pose_kind>  (62) 
conformer

$$$$
6fnk.A
     RDKit          3D

 27 29  0  0  0  0  0  0  0  0999 V2000
    2.0603   15.1513   42.1820 C   0  0  0  0  0  0  0  0  0  0  0  0
    2.9805   14.4572   42.9678 C   0  0  0  0  0  0  0  0  0  0  0  0
    3.4771   15.0354   44.1269 C   0  0  0  0  0  0  0  0  0  0  0  0
    3.0520   16.3111   44.5080 N   0  0  0  0  0  0  0  0  0  0  0  0
    2.1276   17.0075   43.7147 C   0  0  0  0  0  0  0  0  0  0  0  0
    1.6294   16.4285   42.5491 C   0  0  0  0  0  0  0  0  0  0  0  0
    0.7099   17.1261   41.7592 C   0  0  0  0  0  0  0  0  0  0  0  0
    0.3512   16.6699   40.5512 N   0  0  0  0  0  0  0  0  0  0  0  0
    0.1712   18.2626   42.2121 N   0  0  0  0  0  0  0  0  0  0  0  0
   -0.7096   18.9656   41.4780 C   0  0  0  0  0  0  0  0  0  0  0  0
   -1.3575   20.1174   41.7100 N   0  0  0  0  0  0  0  0  0  0  0  0
   -1.2492   20.9377   42.9201 C   0  0  0  0  0  0  0  0  0  0  0  0
   -2.0834   20.4049   40.7573 N   0  0  0  0  0  0  0  0  0  0  0  0
   -1.9675   19.4196   39.8518 C   0  0  0  0  0  0  0  0  0  0  0  0
   -1.0800   18.5138   40.2839 C   0  0  0  0  0  0  0  0  0  0  0  0
   -0.5452   17.3528   39.8154 C   0  0  0  0  0  0  0  0  0  0  0  0
   -0.8975   16.8650   38.6012 N   0  0  0  0  0  0  0  0  0  0  0  0
    1.6700   14.6882   41.2638 H   0  0  0  0  0  0  0  0  0  0  0  0
    3.3121   13.4520   42.6685 H   0  0  0  0  0  0  0  0  0  0  0  0
    4.2049   14.4901   44.7457 H   0  0  0  0  0  0  0  0  0  0  0  0
    1.7953   18.0127   44.0136 H   0  0  0  0  0  0  0  0  0  0  0  0
   -1.0227   21.9769   42.6395 H   0  0  0  0  0  0  0  0  0  0  0  0
   -2.2006   20.9057   43.4712 H   0  0  0  0  0  0  0  0  0  0  0  0
   -0.4429   20.5460   43.5576 H   0  0  0  0  0  0  0  0  0  0  0  0
   -2.5173   19.3648   38.9006 H   0  0  0  0  0  0  0  0  0  0  0  0
   -1.5818   17.3715   38.0215 H   0  0  0  0  0  0  0  0  0  0  0  0
   -0.4811   15.9877   38.2580 H   0  0  0  0  0  0  0  0  0  0  0  0
  1  2  2  0
  1  6  1  0
  2  3  1  0
  3  4  2  0
  4  5  1  0
  5  6  2  0
  6  7  1  0
  7  8  2  0
  7  9  1  0
  8 16  1  0
  9 10  2  0
 10 11  1  0
 10 15  1  0
 11 12  1  0
 11 13  1  0
 13 14  2  0
 14 15  1  0
 15 16  2  0
 16 17  1  0
  1 18  1  0
  2 19  1  0
  3 20  1  0
  5 21  1  0
 12 22  1  0
 12 23  1  0
 12 24  1  0
 14 25  1  0
 17 26  1  0
 17 27  1  0
M  END
>  <mol_id>  (63) 
2026-09-18-6fnk-s0-n100-r4-0063

>  <rmsd_to_ref>  (63) 
3.301020408165146

>  <pose_kind>  (63) 
rigid

$$$$
6fnk.A
     RDKit          3D

 27 29  0  0  0  0  0  0  0  0999 V2000
    3.6342   17.4140   43.3057 C   0  0  0  0  0  0  0  0  0  0  0  0
    4.1713   16.6296   44.3204 C   0  0  0  0  0  0  0  0  0  0  0  0
    3.3193   16.0252   45.2339 C   0  0  0  0  0  0  0  0  0  0  0  0
    1.9905   16.1983   45.1358 N   0  0  0  0  0  0  0  0  0  0  0  0
    1.4229   16.9570   44.1596 C   0  0  0  0  0  0  0  0  0  0  0  0
    2.2604   17.5716   43.2337 C   0  0  0  0  0  0  0  0  0  0  0  0
    1.7194   18.4018   42.1571 C   0  0  0  0  0  0  0  0  0  0  0  0
    2.5314   19.0080   41.2452 N   0  0  0  0  0  0  0  0  0  0  0  0
    0.3645   18.5548   42.0892 N   0  0  0  0  0  0  0  0  0  0  0  0
   -0.1934   19.3089   41.1181 C   0  0  0  0  0  0  0  0  0  0  0  0
   -1.4491   19.6554   40.7759 N   0  0  0  0  0  0  0  0  0  0  0  0
   -2.6538   19.2194   41.4963 C   0  0  0  0  0  0  0  0  0  0  0  0
   -1.4063   20.4368   39.7051 N   0  0  0  0  0  0  0  0  0  0  0  0
   -0.1353   20.6253   39.3156 C   0  0  0  0  0  0  0  0  0  0  0  0
    0.6368   19.9202   40.1975 C   0  0  0  0  0  0  0  0  0  0  0  0
    2.0025   19.7699   40.2604 C   0  0  0  0  0  0  0  0  0  0  0  0
    2.9024   20.3752   39.3409 N   0  0  0  0  0  0  0  0  0  0  0  0
    4.3107   17.8802   42.5991 H   0  0  0  0  0  0  0  0  0  0  0  0
    5.2490   16.5083   44.3738 H   0  0  0  0  0  0  0  0  0  0  0  0
    3.7965   15.4279   45.9993 H   0  0  0  0  0  0  0  0  0  0  0  0
    0.3483   17.0902   44.0896 H   0  0  0  0  0  0  0  0  0  0  0  0
   -2.5809   18.1405   41.7195 H   0  0  0  0  0  0  0  0  0  0  0  0
   -3.5571   19.3812   40.8906 H   0  0  0  0  0  0  0  0  0  0  0  0
   -2.7027   19.7471   42.4725 H   0  0  0  0  0  0  0  0  0  0  0  0
    0.1698   21.2229   38.4683 H   0  0  0  0  0  0  0  0  0  0  0  0
    3.1100   19.9236   38.4253 H   0  0  0  0  0  0  0  0  0  0  0  0
    3.3876   21.2786   39.5315 H   0  0  0  0  0  0  0  0  0  0  0  0
  1  2  2  0
  1  6  1  0
  2  3  1  0
  3  4  2  0
  4  5  1  0
  5  6  2  0
  6  7  1  0
  7  8  2  0
  7  9  1  0
  8 16  1  0
  9 10  2  0
 10 11  1  0
 10 15  1  0
 11 12  1  0
 11 13  1  0
 13 14  2  0
 14 15  1  0
 15 16  2  0
 16 17  1  0
  1 18  1  0
  2 19  1  0
  3 20  1  0
  5 21  1  0
 12 22  1  0
 12 23  1  0
 12 24  1  0
 14 25  1  0
 17 26  1  0
 17 27  1  0
M  END
>  <mol_id>  (64) 
2026-09-18-6fnk-s0-n100-r4-0064

>  <rmsd_to_ref>  (64) 
3.3469387755148245

>  <pose_kind>  (64) 
conformer

$$$$
6fnk.A
     RDKit          3D

 27 29  0  0  0  0  0  0  0  0999 V2000
    1.5155   14.7637   42.0301 C   0  0  0  0  0  0  0  0  0  0  0  0
    1.3116   13.6791   42.8834 C   0  0  0  0  0  0  0  0  0  0  0  0
    1.2061   13.8841   44.2513 C   0  0  0  0  0  0  0  0  0  0  0  0
    1.3003   15.1775   44.7725 N   0  0  0  0  0  0  0  0  0  0  0  0
    1.5070   16.2663   43.9119 C   0  0  0  0  0  0  0  0  0  0  0  0
    1.6151   16.0614   42.5377 C   0  0  0  0  0  0  0  0  0  0  0  0
    1.8234   17.1483   41.6826 C   0  0  0  0  0  0  0  0  0  0  0  0
    2.1049   16.9625   40.3855 N   0  0  0  0  0  0  0  0  0  0  0  0
    1.7358   18.3948   42.1576 N   0  0  0  0  0  0  0  0  0  0  0  0
    1.9381   19.4648   41.3682 C   0  0  0  0  0  0  0  0  0  0  0  0
    1.9199   20.7830   41.6174 N   0  0  0  0  0  0  0  0  0  0  0  0
    1.6464   21.4106   42.9136 C   0  0  0  0  0  0  0  0  0  0  0  0
    2.1591   21.4207   40.5911 N   0  0  0  0  0  0  0  0  0  0  0  0
    2.3170   20.5341   39.5945 C   0  0  0  0  0  0  0  0  0  0  0  0
    2.2056   19.2896   40.0779 C   0  0  0  0  0  0  0  0  0  0  0  0
    2.2887   18.0251   39.5803 C   0  0  0  0  0  0  0  0  0  0  0  0
    2.5631   17.8097   38.2708 N   0  0  0  0  0  0  0  0  0  0  0  0
    1.5988   14.5954   40.9463 H   0  0  0  0  0  0  0  0  0  0  0  0
    1.2346   12.6619   42.4718 H   0  0  0  0  0  0  0  0  0  0  0  0
    1.0483   13.0293   44.9254 H   0  0  0  0  0  0  0  0  0  0  0  0
    1.5838   17.2838   44.3228 H   0  0  0  0  0  0  0  0  0  0  0  0
    2.4491   22.1238   43.1524 H   0  0  0  0  0  0  0  0  0  0  0  0
    0.6847   21.9428   42.8677 H   0  0  0  0  0  0  0  0  0  0  0  0
    1.6000   20.6362   43.6935 H   0  0  0  0  0  0  0  0  0  0  0  0
    2.5084   20.7906   38.5421 H   0  0  0  0  0  0  0  0  0  0  0  0
    2.7073   18.6085   37.6366 H   0  0  0  0  0  0  0  0  0  0  0  0
    2.6273   16.8473   37.9096 H   0  0  0  0  0  0  0  0  0  0  0  0
  1  2  2  0
  1  6  1  0
  2  3  1  0
  3  4  2  0
  4  5  1  0
  5  6  2  0
  6  7  1  0
  7  8  2  0
  7  9  1  0
  8 16  1  0
  9 10  2  0
 10 11  1  0
 10 15  1  0
 11 12  1  0
 11 13  1  0
 13 14  2  0
 14 15  1  0
 15 16  2  0
 16 17  1  0
  1 18  1  0
  2 19  1  0
  3 20  1  0
  5 21  1  0
 12 22  1  0
 12 23  1  0
 12 24  1  0
 14 25  1  0
 17 26  1  0
 17 27  1  0
M  END
>  <mol_id>  (65) 
2026-09-18-6fnk-s0-n100-r4-0065

>  <rmsd_to_ref>  (65) 
3.3928571428642464

>  <pose_kind>  (65) 
rigid

$$$$
6fnk.A
     RDKit          3D

 27 29  0  0  0  0  0  0  0  0999 V2000
    5.7264   15.3363   41.6972 C   0  0  0  0  0  0  0  0  0  0  0  0
    6.6088   14.2917   41.4954 C   0  0  0  0  0  0  0  0  0  0  0  0
    6.0936   13.0140   41.4093 C   0  0  0  0  0  0  0  0  0  0  0  0
    4.7906   12.7408   41.5112 N   0  0  0  0  0  0  0  0  0  0  0  0
    3.8955   13.7401   41.7095 C   0  0  0  0  0  0  0  0  0  0  0  0
    4.3842   15.0290   41.7994 C   0  0  0  0  0  0  0  0  0  0  0  0
    3.4299   16.1158   42.0131 C   0  0  0  0  0  0  0  0  0  0  0  0
    2.1112   15.8563   42.1181 N   0  0  0  0  0  0  0  0  0  0  0  0
    3.8433   17.3952   42.1097 N   0  0  0  0  0  0  0  0  0  0  0  0
    2.9785   18.4168   42.3073 C   0  0  0  0  0  0  0  0  0  0  0  0
    3.1620   19.7437   42.4322 N   0  0  0  0  0  0  0  0  0  0  0  0
    4.4052   20.4947   42.3879 C   0  0  0  0  0  0  0  0  0  0  0  0
    1.9806   20.3373   42.6155 N   0  0  0  0  0  0  0  0  0  0  0  0
    1.0240   19.3647   42.6069 C   0  0  0  0  0  0  0  0  0  0  0  0
    1.6295   18.1426   42.4137 C   0  0  0  0  0  0  0  0  0  0  0  0
    1.1849   16.8263   42.3163 C   0  0  0  0  0  0  0  0  0  0  0  0
   -0.2045   16.5456   42.4261 N   0  0  0  0  0  0  0  0  0  0  0  0
    6.0897   16.3686   41.7721 H   0  0  0  0  0  0  0  0  0  0  0  0
    7.6652   14.5053   41.4118 H   0  0  0  0  0  0  0  0  0  0  0  0
    6.7597   12.1650   41.2504 H   0  0  0  0  0  0  0  0  0  0  0  0
    2.8464   13.4895   41.7883 H   0  0  0  0  0  0  0  0  0  0  0  0
    4.6590   20.9559   43.3811 H   0  0  0  0  0  0  0  0  0  0  0  0
    4.2944   21.2832   41.6055 H   0  0  0  0  0  0  0  0  0  0  0  0
    5.2489   19.8514   42.0687 H   0  0  0  0  0  0  0  0  0  0  0  0
   -0.0590   19.5076   42.7315 H   0  0  0  0  0  0  0  0  0  0  0  0
   -0.8392   16.9832   41.7125 H   0  0  0  0  0  0  0  0  0  0  0  0
   -0.6166   15.9392   43.1650 H   0  0  0  0  0  0  0  0  0  0  0  0
  1  2  2  0
  1  6  1  0
  2  3  1  0
  3  4  2  0
  4  5  1  0
  5  6  2  0
  6  7  1  0
  7  8  2  0
  7  9  1  0
  8 16  1  0
  9 10  2  0
 10 11  1  0
 10 15  1  0
 11 12  1  0
 11 13  1  0
 13 14  2  0
 14 15  1  0
 15 16  2  0
 16 17  1  0
  1 18  1  0
  2 19  1  0
  3 20  1  0
  5 21  1  0
 12 22  1  0
 12 23  1  0
 12 24  1  0
 14 25  1  0
 17 26  1  0
 17 27  1  0
M  END
>  <mol_id>  (66) 
2026-09-18-6fnk-s0-n100-r4-0066

>  <rmsd_to_ref>  (66) 
3.438775510206081

>  <pose_kind>  (66) 
conformer

$$$$
6fnk.A
     RDKit          3D

 27 29  0  0  0  0  0  0  0  0999 V2000
    2.6583   16.1835   42.9347 C   0  0  0  0  0  0  0  0  0  0  0  0
    3.1589   15.3710   43.9522 C   0  0  0  0  0  0  0  0  0  0  0  0
    3.3403   15.8889   45.2263 C   0  0  0  0  0  0  0  0  0  0  0  0
    3.0177   17.2230   45.4898 N   0  0  0  0  0  0  0  0  0  0  0  0
    2.5159   18.0383   44.4640 C   0  0  0  0  0  0  0  0  0  0  0  0
    2.3350   17.5196   43.1832 C   0  0  0  0  0  0  0  0  0  0  0  0
    1.8368   18.3353   42.1621 C   0  0  0  0  0  0  0  0  0  0  0  0
    1.8189   17.9153   40.8896 N   0  0  0  0  0  0  0  0  0  0  0  0
    1.3636   19.5512   42.4531 N   0  0  0  0  0  0  0  0  0  0  0  0
    0.8846   20.3673   41.4974 C   0  0  0  0  0  0  0  0  0  0  0  0
    0.3824   21.6106   41.5446 N   0  0  0  0  0  0  0  0  0  0  0  0
    0.2221   22.4293   42.7501 C   0  0  0  0  0  0  0  0  0  0  0  0
    0.0542   21.9878   40.4189 N   0  0  0  0  0  0  0  0  0  0  0  0
    0.3009   20.9777   39.5686 C   0  0  0  0  0  0  0  0  0  0  0  0
    0.8518   19.9538   40.2344 C   0  0  0  0  0  0  0  0  0  0  0  0
    1.3227   18.7141   39.9267 C   0  0  0  0  0  0  0  0  0  0  0  0
    1.3077   18.2618   38.6493 N   0  0  0  0  0  0  0  0  0  0  0  0
    2.5167   15.7677   41.9263 H   0  0  0  0  0  0  0  0  0  0  0  0
    3.4096   14.3203   43.7444 H   0  0  0  0  0  0  0  0  0  0  0  0
    3.7377   15.2500   46.0287 H   0  0  0  0  0  0  0  0  0  0  0  0
    2.2647   19.0890   44.6711 H   0  0  0  0  0  0  0  0  0  0  0  0
    0.6842   23.4144   42.5884 H   0  0  0  0  0  0  0  0  0  0  0  0
   -0.8488   22.5577   42.9664 H   0  0  0  0  0  0  0  0  0  0  0  0
    0.7105   21.9302   43.5999 H   0  0  0  0  0  0  0  0  0  0  0  0
    0.0839   20.9893   38.4903 H   0  0  0  0  0  0  0  0  0  0  0  0
    0.9325   18.8565   37.8967 H   0  0  0  0  0  0  0  0  0  0  0  0
    1.6716   17.3232   38.4310 H   0  0  0  0  0  0  0  0  0  0  0  0
  1  2  2  0
  1  6  1  0
  2  3  1  0
  3  4  2  0
  4  5  1  0
  5  6  2  0
  6  7  1  0
  7  8  2  0
  7  9  1  0
  8 16  1  0
  9 10  2  0
 10 11  1  0
 10 15  1  0
 11 12  1  0
 11 13  1  0
 13 14  2  0
 14 15  1  0
 15 16  2  0
 16 17  1  0
  1 18  1  0
  2 19  1  0
  3 20  1  0
  5 21  1  0
 12 22  1  0
 12 23  1  0
 12 24  1  0
 14 25  1  0
 17 26  1  0
 17 27  1  0
M  END
>  <mol_id>  (67) 
2026-09-18-6fnk-s0-n100-r4-0067

>  <rmsd_to_ref>  (67) 
3.4846938775515937

>  <pose_kind>  (67) 
rigid

$$$$
6fnk.A
     RDKit          3D

 27 29  0  0  0  0  0  0  0  0999 V2000
    2.8571   17.9504   43.6617 C   0  0  0  0  0  0  0  0  0  0  0  0
    4.1352   17.5282   44.0381 C   0  0  0  0  0  0  0  0  0  0  0  0
    4.3964   16.1621   44.0475 C   0  0  0  0  0  0  0  0  0  0  0  0
    3.4548   15.2567   43.7061 N   0  0  0  0  0  0  0  0  0  0  0  0
    2.2027   15.6541   43.3365 C   0  0  0  0  0  0  0  0  0  0  0  0
    1.9137   17.0033   43.3175 C   0  0  0  0  0  0  0  0  0  0  0  0
    0.5793   17.4731   42.9261 C   0  0  0  0  0  0  0  0  0  0  0  0
    0.2733   18.7927   42.9002 N   0  0  0  0  0  0  0  0  0  0  0  0
   -0.3637   16.5486   42.5831 N   0  0  0  0  0  0  0  0  0  0  0  0
   -1.5981   16.9337   42.2184 C   0  0  0  0  0  0  0  0  0  0  0  0
   -2.7105   16.2410   41.8349 N   0  0  0  0  0  0  0  0  0  0  0  0
   -2.8085   14.7769   41.7271 C   0  0  0  0  0  0  0  0  0  0  0  0
   -3.6736   17.0929   41.5794 N   0  0  0  0  0  0  0  0  0  0  0  0
   -3.2580   18.3710   41.7764 C   0  0  0  0  0  0  0  0  0  0  0  0
   -1.9551   18.2745   42.1778 C   0  0  0  0  0  0  0  0  0  0  0  0
   -0.9729   19.2058   42.5333 C   0  0  0  0  0  0  0  0  0  0  0  0
   -1.2687   20.5986   42.5144 N   0  0  0  0  0  0  0  0  0  0  0  0
    2.6188   19.0128   43.6434 H   0  0  0  0  0  0  0  0  0  0  0  0
    4.9065   18.2258   44.3155 H   0  0  0  0  0  0  0  0  0  0  0  0
    5.4101   15.8553   44.3475 H   0  0  0  0  0  0  0  0  0  0  0  0
    1.4345   14.9528   43.0599 H   0  0  0  0  0  0  0  0  0  0  0  0
   -3.3592   14.3259   42.5515 H   0  0  0  0  0  0  0  0  0  0  0  0
   -1.7975   14.3204   41.7241 H   0  0  0  0  0  0  0  0  0  0  0  0
   -3.2549   14.4886   40.7377 H   0  0  0  0  0  0  0  0  0  0  0  0
   -3.8202   19.2922   41.6497 H   0  0  0  0  0  0  0  0  0  0  0  0
   -0.7474   21.2764   41.8838 H   0  0  0  0  0  0  0  0  0  0  0  0
   -2.0270   21.0095   43.1354 H   0  0  0  0  0  0  0  0  0  0  0  0
  1  2  2  0
  1  6  1  0
  2  3  1  0
  3  4  2  0
  4  5  1  0
  5  6  2  0
  6  7  1  0
  7  8  2  0
  7  9  1  0
  8 16  1  0
  9 10  2  0
 10 11  1  0
 10 15  1  0
 11 12  1  0
 11 13  1  0
 13 14  2  0
 14 15  1  0
 15 16  2  0
 16 17  1  0
  1 18  1  0
  2 19  1  0
  3 20  1  0
  5 21  1  0
 12 22  1  0
 12 23  1  0
 12 24  1  0
 14 25  1  0
 17 26  1  0
 17 27  1  0
M  END
>  <mol_id>  (68) 
2026-09-18-6fnk-s0-n100-r4-0068

>  <rmsd_to_ref>  (68) 
3.5306122449020516

>  <pose_kind>  (68) 
conformer

$$$$
6fnk.A
     RDKit          3D

 27 29  0  0  0  0  0  0  0  0999 V2000
    1.8954   18.8619   39.5855 C   0  0  0  0  0  0  0  0  0  0  0  0
    2.1216   18.9073   38.2098 C   0  0  0  0  0  0  0  0  0  0  0  0
    1.2945   18.2017   37.3481 C   0  0  0  0  0  0  0  0  0  0  0  0
    0.2334   17.4492   37.8592 N   0  0  0  0  0  0  0  0  0  0  0  0
    0.0094   17.4042   39.2436 C   0  0  0  0  0  0  0  0  0  0  0  0
    0.8407   18.1111   40.1104 C   0  0  0  0  0  0  0  0  0  0  0  0
    0.6164   18.0624   41.4900 C   0  0  0  0  0  0  0  0  0  0  0  0
    1.4991   18.5857   42.3520 N   0  0  0  0  0  0  0  0  0  0  0  0
   -0.4964   17.4925   41.9633 N   0  0  0  0  0  0  0  0  0  0  0  0
   -0.7428   17.4190   43.2835 C   0  0  0  0  0  0  0  0  0  0  0  0
   -1.7606   16.8918   43.9808 N   0  0  0  0  0  0  0  0  0  0  0  0
   -2.9377   16.2254   43.4156 C   0  0  0  0  0  0  0  0  0  0  0  0
   -1.5843   17.0491   45.1896 N   0  0  0  0  0  0  0  0  0  0  0  0
   -0.4357   17.7283   45.3434 C   0  0  0  0  0  0  0  0  0  0  0  0
    0.1216   17.9465   44.1447 C   0  0  0  0  0  0  0  0  0  0  0  0
    1.2543   18.5375   43.6746 C   0  0  0  0  0  0  0  0  0  0  0  0
    2.1586   19.0822   44.5242 N   0  0  0  0  0  0  0  0  0  0  0  0
    2.5545   19.4231   40.2642 H   0  0  0  0  0  0  0  0  0  0  0  0
    2.9552   19.5022   37.8084 H   0  0  0  0  0  0  0  0  0  0  0  0
    1.4737   18.2344   36.2633 H   0  0  0  0  0  0  0  0  0  0  0  0
   -0.8242   16.8097   39.6456 H   0  0  0  0  0  0  0  0  0  0  0  0
   -3.0689   15.2440   43.8948 H   0  0  0  0  0  0  0  0  0  0  0  0
   -3.8301   16.8431   43.5948 H   0  0  0  0  0  0  0  0  0  0  0  0
   -2.7975   16.0891   42.3331 H   0  0  0  0  0  0  0  0  0  0  0  0
   -0.0167   18.0555   46.3064 H   0  0  0  0  0  0  0  0  0  0  0  0
    1.9914   19.0564   45.5402 H   0  0  0  0  0  0  0  0  0  0  0  0
    3.0133   19.5220   44.1540 H   0  0  0  0  0  0  0  0  0  0  0  0
  1  2  2  0
  1  6  1  0
  2  3  1  0
  3  4  2  0
  4  5  1  0
  5  6  2  0
  6  7  1  0
  7  8  2  0
  7  9  1  0
  8 16  1  0
  9 10  2  0
 10 11  1  0
 10 15  1  0
 11 12  1  0
 11 13  1  0
 13 14  2  0
 14 15  1  0
 15 16  2  0
 16 17  1  0
  1 18  1  0
  2 19  1  0
  3 20  1  0
  5 21  1  0
 12 22  1  0
 12 23  1  0
 12 24  1  0
 14 25  1  0
 17 26  1  0
 17 27  1  0
M  END
>  <mol_id>  (69) 
2026-09-18-6fnk-s0-n100-r4-0069

>  <rmsd_to_ref>  (69) 
3.576530612249505

>  <pose_kind>  (69) 
rigid

$$$$
6fnk.A
     RDKit          3D

 27 29  0  0  0  0  0  0  0  0999 V2000
   -0.2048   16.8397   42.5443 C   0  0  0  0  0  0  0  0  0  0  0  0
   -1.1871   15.8575   42.4036 C   0  0  0  0  0  0  0  0  0  0  0  0
   -1.4921   15.4001   41.1315 C   0  0  0  0  0  0  0  0  0  0  0  0
   -0.8840   15.8601   40.0247 N   0  0  0  0  0  0  0  0  0  0  0  0
    0.0665   16.8074   40.1348 C   0  0  0  0  0  0  0  0  0  0  0  0
    0.4007   17.2902   41.3800 C   0  0  0  0  0  0  0  0  0  0  0  0
    1.4324   18.3163   41.4831 C   0  0  0  0  0  0  0  0  0  0  0  0
    2.0452   18.7813   40.3792 N   0  0  0  0  0  0  0  0  0  0  0  0
    1.8091   18.8325   42.6605 N   0  0  0  0  0  0  0  0  0  0  0  0
    2.7628   19.7827   42.7685 C   0  0  0  0  0  0  0  0  0  0  0  0
    3.3034   20.4456   43.8325 N   0  0  0  0  0  0  0  0  0  0  0  0
    2.9472   20.2695   45.2335 C   0  0  0  0  0  0  0  0  0  0  0  0
    4.2295   21.2976   43.3671 N   0  0  0  0  0  0  0  0  0  0  0  0
    4.2855   21.1855   42.0204 C   0  0  0  0  0  0  0  0  0  0  0  0
    3.3710   20.2370   41.6149 C   0  0  0  0  0  0  0  0  0  0  0  0
    2.9900   19.7138   40.4147 C   0  0  0  0  0  0  0  0  0  0  0  0
    3.5967   20.1596   39.2038 N   0  0  0  0  0  0  0  0  0  0  0  0
    0.0597   17.2213   43.5256 H   0  0  0  0  0  0  0  0  0  0  0  0
   -1.7048   15.4581   43.2839 H   0  0  0  0  0  0  0  0  0  0  0  0
   -2.2731   14.6285   41.0957 H   0  0  0  0  0  0  0  0  0  0  0  0
    0.5229   17.1421   39.2194 H   0  0  0  0  0  0  0  0  0  0  0  0
    2.0197   19.6796   45.2770 H   0  0  0  0  0  0  0  0  0  0  0  0
    2.7697   21.2421   45.7410 H   0  0  0  0  0  0  0  0  0  0  0  0
    3.7695   19.7668   45.7580 H   0  0  0  0  0  0  0  0  0  0  0  0
    4.9403   21.7439   41.3361 H   0  0  0  0  0  0  0  0  0  0  0  0
    3.7916   21.1841   39.0231 H   0  0  0  0  0  0  0  0  0  0  0  0
    3.8663   19.4813   38.4588 H   0  0  0  0  0  0  0  0  0  0  0  0
  1  2  2  0
  1  6  1  0
  2  3  1  0
  3  4  2  0
  4  5  1  0
  5  6  2  0
  6  7  1  0
  7  8  2  0
  7  9  1  0
  8 16  1  0
  9 10  2  0
 10 11  1  0
 10 15  1  0
 11 12  1  0
 11 13  1  0
 13 14  2  0
 14 15  1  0
 15 16  2  0
 16 17  1  0
  1 18  1  0
  2 19  1  0
  3 20  1  0
  5 21  1  0
 12 22  1  0
 12 23  1  0
 12 24  1  0
 14 25  1  0
 17 26  1  0
 17 27  1  0
M  END
>  <mol_id>  (70) 
2026-09-18-6fnk-s0-n100-r4-0070

>  <rmsd_to_ref>  (70) 
3.6224489795965513

>  <pose_kind>  (70) 
conformer

$$$$
6fnk.A
     RDKit          3D

 27 29  0  0  0  0  0  0  0  0999 V2000
   -0.0098   16.7646   40.5674 C   0  0  0  0  0  0  0  0  0  0  0  0
   -0.8697   16.1648   39.6473 C   0  0  0  0  0  0  0  0  0  0  0  0
   -1.0736   14.7931   39.6817 C   0  0  0  0  0  0  0  0  0  0  0  0
   -0.4202   14.0142   40.6407 N   0  0  0  0  0  0  0  0  0  0  0  0
    0.4455   14.6201   41.5640 C   0  0  0  0  0  0  0  0  0  0  0  0
    0.6526   15.9978   41.5291 C   0  0  0  0  0  0  0  0  0  0  0  0
    1.5178   16.5986   42.4492 C   0  0  0  0  0  0  0  0  0  0  0  0
    1.8690   17.8862   42.3278 N   0  0  0  0  0  0  0  0  0  0  0  0
    2.0009   15.8857   43.4717 N   0  0  0  0  0  0  0  0  0  0  0  0
    2.8419   16.4261   44.3714 C   0  0  0  0  0  0  0  0  0  0  0  0
    3.4563   15.9150   45.4491 N   0  0  0  0  0  0  0  0  0  0  0  0
    3.3363   14.5375   45.9362 C   0  0  0  0  0  0  0  0  0  0  0  0
    4.1468   16.7728   46.0010 N   0  0  0  0  0  0  0  0  0  0  0  0
    3.9893   17.9175   45.3161 C   0  0  0  0  0  0  0  0  0  0  0  0
    3.1855   17.7059   44.2654 C   0  0  0  0  0  0  0  0  0  0  0  0
    2.6931   18.4448   43.2334 C   0  0  0  0  0  0  0  0  0  0  0  0
    3.0253   19.7511   43.0928 N   0  0  0  0  0  0  0  0  0  0  0  0
    0.1484   17.8527   40.5354 H   0  0  0  0  0  0  0  0  0  0  0  0
   -1.3858   16.7792   38.8948 H   0  0  0  0  0  0  0  0  0  0  0  0
   -1.7492   14.3187   38.9547 H   0  0  0  0  0  0  0  0  0  0  0  0
    0.9617   14.0064   42.3168 H   0  0  0  0  0  0  0  0  0  0  0  0
    4.3399   14.1089   46.0748 H   0  0  0  0  0  0  0  0  0  0  0  0
    2.8001   14.5336   46.8966 H   0  0  0  0  0  0  0  0  0  0  0  0
    2.7790   13.9364   45.2026 H   0  0  0  0  0  0  0  0  0  0  0  0
    4.4500   18.8814   45.5780 H   0  0  0  0  0  0  0  0  0  0  0  0
    3.6545   20.1988   43.7744 H   0  0  0  0  0  0  0  0  0  0  0  0
    2.6484   20.2963   42.3043 H   0  0  0  0  0  0  0  0  0  0  0  0
  1  2  2  0
  1  6  1  0
  2  3  1  0
  3  4  2  0
  4  5  1  0
  5  6  2  0
  6  7  1  0
  7  8  2  0
  7  9  1  0
  8 16  1  0
  9 10  2  0
 10 11  1  0
 10 15  1  0
 11 12  1  0
 11 13  1  0
 13 14  2  0
 14 15  1  0
 15 16  2  0
 16 17  1  0
  1 18  1  0
  2 19  1  0
  3 20  1  0
  5 21  1  0
 12 22  1  0
 12 23  1  0
 12 24  1  0
 14 25  1  0
 17 26  1  0
 17 27  1  0
M  END
>  <mol_id>  (71) 
2026-09-18-6fnk-s0-n100-r4-0071

>  <rmsd_to_ref>  (71) 
3.6683673469410003

>  <pose_kind>  (71) 
rigid

$$$$
6fnk.A
     RDKit          3D

 27 29  0  0  0  0  0  0  0  0999 V2000
   -1.4658   15.9289   42.9643 C   0  0  0  0  0  0  0  0  0  0  0  0
   -2.4156   14.9444   43.1332 C   0  0  0  0  0  0  0  0  0  0  0  0
   -2.5295   13.8845   42.2674 C   0  0  0  0  0  0  0  0  0  0  0  0
   -1.6778   13.8220   41.2267 N   0  0  0  0  0  0  0  0  0  0  0  0
   -0.7322   14.7715   41.0299 C   0  0  0  0  0  0  0  0  0  0  0  0
   -0.6084   15.8352   41.8878 C   0  0  0  0  0  0  0  0  0  0  0  0
    0.4112   16.8578   41.6744 C   0  0  0  0  0  0  0  0  0  0  0  0
    1.2435   16.7577   40.6207 N   0  0  0  0  0  0  0  0  0  0  0  0
    0.5140   17.8901   42.5269 N   0  0  0  0  0  0  0  0  0  0  0  0
    1.4437   18.8668   42.3741 C   0  0  0  0  0  0  0  0  0  0  0  0
    1.7547   19.9759   43.0589 N   0  0  0  0  0  0  0  0  0  0  0  0
    1.0589   20.3959   44.2561 C   0  0  0  0  0  0  0  0  0  0  0  0
    2.7796   20.5692   42.4356 N   0  0  0  0  0  0  0  0  0  0  0  0
    3.1227   19.8518   41.3652 C   0  0  0  0  0  0  0  0  0  0  0  0
    2.2934   18.7506   41.2852 C   0  0  0  0  0  0  0  0  0  0  0  0
    2.2100   17.6966   40.3898 C   0  0  0  0  0  0  0  0  0  0  0  0
    3.0931   17.6047   39.2855 N   0  0  0  0  0  0  0  0  0  0  0  0
   -1.4084   16.7477   43.6684 H   0  0  0  0  0  0  0  0  0  0  0  0
   -3.0999   15.0030   43.9772 H   0  0  0  0  0  0  0  0  0  0  0  0
   -3.2886   13.1304   42.4331 H   0  0  0  0  0  0  0  0  0  0  0  0
   -0.0540   14.6841   40.1659 H   0  0  0  0  0  0  0  0  0  0  0  0
    1.3428   21.4179   44.5642 H   0  0  0  0  0  0  0  0  0  0  0  0
    1.4015   19.6990   45.0677 H   0  0  0  0  0  0  0  0  0  0  0  0
   -0.0352   20.2624   44.1290 H   0  0  0  0  0  0  0  0  0  0  0  0
    3.9241   20.1059   40.6804 H   0  0  0  0  0  0  0  0  0  0  0  0
    2.7739   17.9110   38.3297 H   0  0  0  0  0  0  0  0  0  0  0  0
    4.0756   17.2279   39.4197 H   0  0  0  0  0  0  0  0  0  0  0  0
  1  2  2  0
  1  6  1  0
  2  3  1  0
  3  4  2  0
  4  5  1  0
  5  6  2  0
  6  7  1  0
  7  8  2  0
  7  9  1  0
  8 16  1  0
  9 10  2  0
 10 11  1  0
 10 15  1  0
 11 12  1  0
 11 13  1  0
 13 14  2  0
 14 15  1  0
 15 16  2  0
 16 17  1  0
  1 18  1  0
  2 19  1  0
  3 20  1  0
  5 21  1  0
 12 22  1  0
 12 23  1  0
 12 24  1  0
 14 25  1  0
 17 26  1  0
 17 27  1  0
M  END
>  <mol_id>  (72) 
2026-09-18-6fnk-s0-n100-r4-0072

>  <rmsd_to_ref>  (72) 
3.714285714288374

>  <pose_kind>  (72) 
conformer

$$$$
6fnk.A
     RDKit          3D

 27 29  0  0  0  0  0  0  0  0999 V2000
    0.2658   15.1050   41.3119 C   0  0  0  0  0  0  0  0  0  0  0  0
   -0.6655   14.1418   41.7003 C   0  0  0  0  0  0  0  0  0  0  0  0
   -1.6602   14.4674   42.6108 C   0  0  0  0  0  0  0  0  0  0  0  0
   -1.7303   15.7611   43.1350 N   0  0  0  0  0  0  0  0  0  0  0  0
   -0.7912   16.7274   42.7436 C   0  0  0  0  0  0  0  0  0  0  0  0
    0.2097   16.4010   41.8304 C   0  0  0  0  0  0  0  0  0  0  0  0
    1.1458   17.3656   41.4440 C   0  0  0  0  0  0  0  0  0  0  0  0
    2.2157   17.0338   40.7084 N   0  0  0  0  0  0  0  0  0  0  0  0
    0.9739   18.6414   41.8046 N   0  0  0  0  0  0  0  0  0  0  0  0
    1.8568   19.5954   41.4594 C   0  0  0  0  0  0  0  0  0  0  0  0
    1.9040   20.9120   41.7134 N   0  0  0  0  0  0  0  0  0  0  0  0
    0.9185   21.6762   42.4840 C   0  0  0  0  0  0  0  0  0  0  0  0
    2.9015   21.4169   41.1964 N   0  0  0  0  0  0  0  0  0  0  0  0
    3.5511   20.4419   40.5395 C   0  0  0  0  0  0  0  0  0  0  0  0
    2.9143   19.2770   40.7195 C   0  0  0  0  0  0  0  0  0  0  0  0
    3.0957   17.9826   40.3385 C   0  0  0  0  0  0  0  0  0  0  0  0
    4.1642   17.6220   39.5871 N   0  0  0  0  0  0  0  0  0  0  0  0
    1.0525   14.8414   40.5898 H   0  0  0  0  0  0  0  0  0  0  0  0
   -0.6112   13.1248   41.2849 H   0  0  0  0  0  0  0  0  0  0  0  0
   -2.3933   13.7079   42.9201 H   0  0  0  0  0  0  0  0  0  0  0  0
   -0.8450   17.7448   43.1585 H   0  0  0  0  0  0  0  0  0  0  0  0
    1.4329   22.2553   43.2651 H   0  0  0  0  0  0  0  0  0  0  0  0
    0.3805   22.3622   41.8133 H   0  0  0  0  0  0  0  0  0  0  0  0
    0.2026   20.9844   42.9520 H   0  0  0  0  0  0  0  0  0  0  0  0
    4.4661   20.5790   39.9446 H   0  0  0  0  0  0  0  0  0  0  0  0
    4.8500   18.3320   39.2928 H   0  0  0  0  0  0  0  0  0  0  0  0
    4.2906   16.6380   39.3102 H   0  0  0  0  0  0  0  0  0  0  0  0
  1  2  2  0
  1  6  1  0
  2  3  1  0
  3  4  2  0
  4  5  1  0
  5  6  2  0
  6  7  1  0
  7  8  2  0
  7  9  1  0
  8 16  1  0
  9 10  2  0
 10 11  1  0
 10 15  1  0
 11 12  1  0
 11 13  1  0
 13 14  2  0
 14 15  1  0
 15 16  2  0
 16 17  1  0
  1 18  1  0
  2 19  1  0
  3 20  1  0
  5 21  1  0
 12 22  1  0
 12 23  1  0
 12 24  1  0
 14 25  1  0
 17 26  1  0
 17 27  1  0
M  END
>  <mol_id>  (73) 
2026-09-18-6fnk-s0-n100-r4-0073

>  <rmsd_to_ref>  (73) 
3.7602040816354525

>  <pose_kind>  (73) 
rigid

$$$$
6fnk.A
     RDKit          3D

 27 29  0  0  0  0  0  0  0  0999 V2000
   -0.1071   13.8592   43.3427 C   0  0  0  0  0  0  0  0  0  0  0  0
   -0.9703   12.8264   43.5996 C   0  0  0  0  0  0  0  0  0  0  0  0
   -2.3236   13.0649   43.7738 C   0  0  0  0  0  0  0  0  0  0  0  0
   -2.8257   14.3223   43.6945 N   0  0  0  0  0  0  0  0  0  0  0  0
   -1.9762   15.3472   43.4405 C   0  0  0  0  0  0  0  0  0  0  0  0
   -0.6324   15.1454   43.2633 C   0  0  0  0  0  0  0  0  0  0  0  0
    0.2875   16.2463   42.9894 C   0  0  0  0  0  0  0  0  0  0  0  0
    1.6232   16.0238   42.8159 N   0  0  0  0  0  0  0  0  0  0  0  0
   -0.1716   17.5092   42.9030 N   0  0  0  0  0  0  0  0  0  0  0  0
    0.6539   18.5531   42.6503 C   0  0  0  0  0  0  0  0  0  0  0  0
    0.4661   19.8811   42.5150 N   0  0  0  0  0  0  0  0  0  0  0  0
   -0.8263   20.5173   42.6311 C   0  0  0  0  0  0  0  0  0  0  0  0
    1.6416   20.4786   42.2647 N   0  0  0  0  0  0  0  0  0  0  0  0
    2.6242   19.5599   42.2300 C   0  0  0  0  0  0  0  0  0  0  0  0
    2.0122   18.3498   42.4710 C   0  0  0  0  0  0  0  0  0  0  0  0
    2.4762   17.0373   42.5628 C   0  0  0  0  0  0  0  0  0  0  0  0
    3.8675   16.7885   42.3842 N   0  0  0  0  0  0  0  0  0  0  0  0
    0.9660   13.7172   43.1988 H   0  0  0  0  0  0  0  0  0  0  0  0
   -0.5446   11.8304   43.6582 H   0  0  0  0  0  0  0  0  0  0  0  0
   -2.9466   12.2026   43.9737 H   0  0  0  0  0  0  0  0  0  0  0  0
   -2.4089   16.3374   43.3837 H   0  0  0  0  0  0  0  0  0  0  0  0
   -1.5180   20.2277   41.8338 H   0  0  0  0  0  0  0  0  0  0  0  0
   -1.2265   20.2861   43.6356 H   0  0  0  0  0  0  0  0  0  0  0  0
   -0.6751   21.6268   42.5163 H   0  0  0  0  0  0  0  0  0  0  0  0
    3.6826   19.7238   42.0506 H   0  0  0  0  0  0  0  0  0  0  0  0
    4.4048   16.0932   42.9500 H   0  0  0  0  0  0  0  0  0  0  0  0
    4.3635   17.3225   41.6611 H   0  0  0  0  0  0  0  0  0  0  0  0
  1  2  2  0
  1  6  1  0
  2  3  1  0
  3  4  2  0
  4  5  1  0
  5  6  2  0
  6  7  1  0
  7  8  2  0
  7  9  1  0
  8 16  1  0
  9 10  2  0
 10 11  1  0
 10 15  1  0
 11 12  1  0
 11 13  1  0
 13 14  2  0
 14 15  1  0
 15 16  2  0
 16 17  1  0
  1 18  1  0
  2 19  1  0
  3 20  1  0
  5 21  1  0
 12 22  1  0
 12 23  1  0
 12 24  1  0
 14 25  1  0
 17 26  1  0
 17 27  1  0
M  END
>  <mol_id>  (74) 
2026-09-18-6fnk-s0-n100-r4-0074

>  <rmsd_to_ref>  (74) 
3.8061224489844316

>  <pose_kind>  (74) 
conformer

$$$$
6fnk.A
     RDKit          3D

 27 29  0  0  0  0  0  0  0  0999 V2000
    0.8190   15.7359   42.2678 C   0  0  0  0  0  0  0  0  0  0  0  0
    0.5473   14.7588   43.2255 C   0  0  0  0  0  0  0  0  0  0  0  0
    0.8296   15.0012   44.5619 C   0  0  0  0  0  0  0  0  0  0  0  0
    1.3824   16.2256   44.9475 N   0  0  0  0  0  0  0  0  0  0  0  0
    1.6561   17.2059   43.9817 C   0  0  0  0  0  0  0  0  0  0  0  0
    1.3746   16.9628   42.6386 C   0  0  0  0  0  0  0  0  0  0  0  0
    1.6506   17.9410   41.6778 C   0  0  0  0  0  0  0  0  0  0  0  0
    1.5547   17.6698   40.3689 N   0  0  0  0  0  0  0  0  0  0  0  0
    2.0100   19.1695   42.0634 N   0  0  0  0  0  0  0  0  0  0  0  0
    2.2917   20.1337   41.1692 C   0  0  0  0  0  0  0  0  0  0  0  0
    2.6809   21.4096   41.3142 N   0  0  0  0  0  0  0  0  0  0  0  0
    2.9002   22.1035   42.5867 C   0  0  0  0  0  0  0  0  0  0  0  0
    2.8267   21.9451   40.2146 N   0  0  0  0  0  0  0  0  0  0  0  0
    2.5028   21.0373   39.2791 C   0  0  0  0  0  0  0  0  0  0  0  0
    2.1871   19.8766   39.8691 C   0  0  0  0  0  0  0  0  0  0  0  0
    1.8133   18.6318   39.4639 C   0  0  0  0  0  0  0  0  0  0  0  0
    1.7000   18.3339   38.1468 N   0  0  0  0  0  0  0  0  0  0  0  0
    0.5933   15.5383   41.2094 H   0  0  0  0  0  0  0  0  0  0  0  0
    0.1094   13.7967   42.9213 H   0  0  0  0  0  0  0  0  0  0  0  0
    0.6185   14.2303   45.3177 H   0  0  0  0  0  0  0  0  0  0  0  0
    2.0937   18.1684   44.2852 H   0  0  0  0  0  0  0  0  0  0  0  0
    3.8951   22.5727   42.5818 H   0  0  0  0  0  0  0  0  0  0  0  0
    2.1302   22.8779   42.7195 H   0  0  0  0  0  0  0  0  0  0  0  0
    2.8397   21.3807   43.4137 H   0  0  0  0  0  0  0  0  0  0  0  0
    2.4976   21.2191   38.1943 H   0  0  0  0  0  0  0  0  0  0  0  0
    1.8932   19.0551   37.4372 H   0  0  0  0  0  0  0  0  0  0  0  0
    1.4206   17.3864   37.8553 H   0  0  0  0  0  0  0  0  0  0  0  0
  1  2  2  0
  1  6  1  0
  2  3  1  0
  3  4  2  0
  4  5  1  0
  5  6  2  0
  6  7  1  0
  7  8  2  0
  7  9  1  0
  8 16  1  0
  9 10  2  0
 10 11  1  0
 10 15  1  0
 11 12  1  0
 11 13  1  0
 13 14  2  0
 14 15  1  0
 15 16  2  0
 16 17  1  0
  1 18  1  0
  2 19  1  0
  3 20  1  0
  5 21  1  0
 12 22  1  0
 12 23  1  0
 12 24  1  0
 14 25  1  0
 17 26  1  0
 17 27  1  0
M  END
>  <mol_id>  (75) 
2026-09-18-6fnk-s0-n100-r4-0075

>  <rmsd_to_ref>  (75) 
3.8520408163276603

>  <pose_kind>  (75) 
rigid

$$$$
6fnk.A
     RDKit          3D

 27 29  0  0  0  0  0  0  0  0999 V2000
    1.0722   15.2083   41.4034 C   0  0  0  0  0  0  0  0  0  0  0  0
    0.1428   14.6588   40.5175 C   0  0  0  0  0  0  0  0  0  0  0  0
   -0.4206   15.4921   39.5523 C   0  0  0  0  0  0  0  0  0  0  0  0
   -0.0875   16.7955   39.4635 N   0  0  0  0  0  0  0  0  0  0  0  0
    0.8110   17.3095   40.3262 C   0  0  0  0  0  0  0  0  0  0  0  0
    1.4082   16.5424   41.3066 C   0  0  0  0  0  0  0  0  0  0  0  0
    2.3704   17.1786   42.1990 C   0  0  0  0  0  0  0  0  0  0  0  0
    2.6227   18.4860   42.0142 N   0  0  0  0  0  0  0  0  0  0  0  0
    2.9930   16.5060   43.1746 N   0  0  0  0  0  0  0  0  0  0  0  0
    3.8740   17.1267   43.9775 C   0  0  0  0  0  0  0  0  0  0  0  0
    4.6383   16.7170   45.0223 N   0  0  0  0  0  0  0  0  0  0  0  0
    4.6753   15.3706   45.5599 C   0  0  0  0  0  0  0  0  0  0  0  0
    5.3423   17.7470   45.4680 N   0  0  0  0  0  0  0  0  0  0  0  0
    5.0664   18.8468   44.7413 C   0  0  0  0  0  0  0  0  0  0  0  0
    4.1366   18.4794   43.7882 C   0  0  0  0  0  0  0  0  0  0  0  0
    3.4920   19.1797   42.7767 C   0  0  0  0  0  0  0  0  0  0  0  0
    3.7508   20.5679   42.5700 N   0  0  0  0  0  0  0  0  0  0  0  0
    1.5254   14.5841   42.1628 H   0  0  0  0  0  0  0  0  0  0  0  0
   -0.1301   13.6169   40.5806 H   0  0  0  0  0  0  0  0  0  0  0  0
   -1.1384   15.0428   38.8773 H   0  0  0  0  0  0  0  0  0  0  0  0
    1.0323   18.3712   40.1953 H   0  0  0  0  0  0  0  0  0  0  0  0
    3.7432   15.1049   46.1099 H   0  0  0  0  0  0  0  0  0  0  0  0
    4.8336   14.6305   44.7348 H   0  0  0  0  0  0  0  0  0  0  0  0
    5.5614   15.2729   46.2317 H   0  0  0  0  0  0  0  0  0  0  0  0
    5.4677   19.8424   44.8454 H   0  0  0  0  0  0  0  0  0  0  0  0
    4.1478   20.8815   41.6573 H   0  0  0  0  0  0  0  0  0  0  0  0
    3.5488   21.2770   43.3197 H   0  0  0  0  0  0  0  0  0  0  0  0
  1  2  2  0
  1  6  1  0
  2  3  1  0
  3  4  2  0
  4  5  1  0
  5  6  2  0
  6  7  1  0
  7  8  2  0
  7  9  1  0
  8 16  1  0
  9 10  2  0
 10 11  1  0
 10 15  1  0
 11 12  1  0
 11 13  1  0
 13 14  2  0
 14 15  1  0
 15 16  2  0
 16 17  1  0
  1 18  1  0
  2 19  1  0
  3 20  1  0
  5 21  1  0
 12 22  1  0
 12 23  1  0
 12 24  1  0
 14 25  1  0
 17 26  1  0
 17 27  1  0
M  END
>  <mol_id>  (76) 
2026-09-18-6fnk-s0-n100-r4-0076

>  <rmsd_to_ref>  (76) 
3.8979591836748892

>  <pose_kind>  (76) 
conformer

$$$$
6fnk.A
     RDKit          3D

 27 29  0  0  0  0  0  0  0  0999 V2000
    4.8525   18.5639   44.7193 C   0  0  0  0  0  0  0  0  0  0  0  0
    5.9207   18.5047   45.6144 C   0  0  0  0  0  0  0  0  0  0  0  0
    5.8127   17.7494   46.7730 C   0  0  0  0  0  0  0  0  0  0  0  0
    4.6351   17.0457   47.0401 N   0  0  0  0  0  0  0  0  0  0  0  0
    3.5617   17.1084   46.1386 C   0  0  0  0  0  0  0  0  0  0  0  0
    3.6684   17.8683   44.9753 C   0  0  0  0  0  0  0  0  0  0  0  0
    2.5959   17.9308   44.0797 C   0  0  0  0  0  0  0  0  0  0  0  0
    2.6058   18.7875   43.0492 N   0  0  0  0  0  0  0  0  0  0  0  0
    1.5441   17.1222   44.2439 N   0  0  0  0  0  0  0  0  0  0  0  0
    0.4906   17.1592   43.4087 C   0  0  0  0  0  0  0  0  0  0  0  0
   -0.6610   16.4713   43.3819 N   0  0  0  0  0  0  0  0  0  0  0  0
   -1.0649   15.4310   44.3326 C   0  0  0  0  0  0  0  0  0  0  0  0
   -1.3540   16.8246   42.4269 N   0  0  0  0  0  0  0  0  0  0  0  0
   -0.6620   17.7565   41.7510 C   0  0  0  0  0  0  0  0  0  0  0  0
    0.4978   17.9974   42.3769 C   0  0  0  0  0  0  0  0  0  0  0  0
    1.5672   18.8198   42.1938 C   0  0  0  0  0  0  0  0  0  0  0  0
    1.6064   19.6889   41.1548 N   0  0  0  0  0  0  0  0  0  0  0  0
    4.9435   19.1645   43.8022 H   0  0  0  0  0  0  0  0  0  0  0  0
    6.8482   19.0565   45.4017 H   0  0  0  0  0  0  0  0  0  0  0  0
    6.6533   17.7044   47.4810 H   0  0  0  0  0  0  0  0  0  0  0  0
    2.6340   16.5566   46.3505 H   0  0  0  0  0  0  0  0  0  0  0  0
   -2.0668   15.6610   44.7241 H   0  0  0  0  0  0  0  0  0  0  0  0
   -1.0852   14.4564   43.8229 H   0  0  0  0  0  0  0  0  0  0  0  0
   -0.3457   15.3950   45.1641 H   0  0  0  0  0  0  0  0  0  0  0  0
   -0.9965   18.2470   40.8249 H   0  0  0  0  0  0  0  0  0  0  0  0
    0.8223   19.7303   40.4882 H   0  0  0  0  0  0  0  0  0  0  0  0
    2.4202   20.3081   41.0318 H   0  0  0  0  0  0  0  0  0  0  0  0
  1  2  2  0
  1  6  1  0
  2  3  1  0
  3  4  2  0
  4  5  1  0
  5  6  2  0
  6  7  1  0
  7  8  2  0
  7  9  1  0
  8 16  1  0
  9 10  2  0
 10 11  1  0
 10 15  1  0
 11 12  1  0
 11 13  1  0
 13 14  2  0
 14 15  1  0
 15 16  2  0
 16 17  1  0
  1 18  1  0
  2 19  1  0
  3 20  1  0
  5 21  1  0
 12 22  1  0
 12 23  1  0
 12 24  1  0
 14 25  1  0
 17 26  1  0
 17 27  1  0
M  END
>  <mol_id>  (77) 
2026-09-18-6fnk-s0-n100-r4-0077

>  <rmsd_to_ref>  (77) 
3.9438775510218753

>  <pose_kind>  (77) 
rigid

$$$$
6fnk.A
     RDKit          3D

 27 29  0  0  0  0  0  0  0  0999 V2000
    4.2008   18.6180   41.4502 C   0  0  0  0  0  0  0  0  0  0  0  0
    5.5514   18.9296   41.3429 C   0  0  0  0  0  0  0  0  0  0  0  0
    6.4539   17.9506   41.7092 C   0  0  0  0  0  0  0  0  0  0  0  0
    6.0885   16.7381   42.1544 N   0  0  0  0  0  0  0  0  0  0  0  0
    4.7635   16.4310   42.2603 C   0  0  0  0  0  0  0  0  0  0  0  0
    3.8076   17.3665   41.9098 C   0  0  0  0  0  0  0  0  0  0  0  0
    2.3721   17.0800   42.0074 C   0  0  0  0  0  0  0  0  0  0  0  0
    1.4293   17.9813   41.6695 N   0  0  0  0  0  0  0  0  0  0  0  0
    2.0104   15.8433   42.4616 N   0  0  0  0  0  0  0  0  0  0  0  0
    0.6883   15.5222   42.5727 C   0  0  0  0  0  0  0  0  0  0  0  0
    0.0782   14.4058   42.9812 N   0  0  0  0  0  0  0  0  0  0  0  0
    0.6677   13.1548   43.4461 C   0  0  0  0  0  0  0  0  0  0  0  0
   -1.2249   14.5960   42.9037 N   0  0  0  0  0  0  0  0  0  0  0  0
   -1.4798   15.8393   42.4435 C   0  0  0  0  0  0  0  0  0  0  0  0
   -0.2782   16.4523   42.2241 C   0  0  0  0  0  0  0  0  0  0  0  0
    0.1093   17.6952   41.7677 C   0  0  0  0  0  0  0  0  0  0  0  0
   -0.8753   18.6330   41.4161 N   0  0  0  0  0  0  0  0  0  0  0  0
    3.4733   19.3777   41.1658 H   0  0  0  0  0  0  0  0  0  0  0  0
    5.8459   19.9071   40.9839 H   0  0  0  0  0  0  0  0  0  0  0  0
    7.5062   18.2144   41.6177 H   0  0  0  0  0  0  0  0  0  0  0  0
    4.4733   15.4601   42.6169 H   0  0  0  0  0  0  0  0  0  0  0  0
    0.1876   12.2792   42.9482 H   0  0  0  0  0  0  0  0  0  0  0  0
    1.7489   13.1576   43.2405 H   0  0  0  0  0  0  0  0  0  0  0  0
    0.4594   13.0672   44.5360 H   0  0  0  0  0  0  0  0  0  0  0  0
   -2.4618   16.2616   42.2822 H   0  0  0  0  0  0  0  0  0  0  0  0
   -0.5803   19.4763   40.8677 H   0  0  0  0  0  0  0  0  0  0  0  0
   -1.8641   18.5061   41.6845 H   0  0  0  0  0  0  0  0  0  0  0  0
  1  2  2  0
  1  6  1  0
  2  3  1  0
  3  4  2  0
  4  5  1  0
  5  6  2  0
  6  7  1  0
  7  8  2  0
  7  9  1  0
  8 16  1  0
  9 10  2  0
 10 11  1  0
 10 15  1  0
 11 12  1  0
 11 13  1  0
 13 14  2  0
 14 15  1  0
 15 16  2  0
 16 17  1  0
  1 18  1  0
  2 19  1  0
  3 20  1  0
  5 21  1  0
 12 22  1  0
 12 23  1  0
 12 24  1  0
 14 25  1  0
 17 26  1  0
 17 27  1  0
M  END
>  <mol_id>  (78) 
2026-09-18-6fnk-s0-n100-r4-0078

>  <rmsd_to_ref>  (78) 
3.989795918372267

>  <pose_kind>  (78) 
conformer

$$$$
6fnk.A
     RDKit          3D

 27 29  0  0  0  0  0  0  0  0999 V2000
    0.9768   17.0908   42.1675 C   0  0  0  0  0  0  0  0  0  0  0  0
    1.6826   17.0408   40.9653 C   0  0  0  0  0  0  0  0  0  0  0  0
    2.6266   18.0149   40.6751 C   0  0  0  0  0  0  0  0  0  0  0  0
    2.8723   19.0431   41.5893 N   0  0  0  0  0  0  0  0  0  0  0  0
    2.1597   19.0917   42.7971 C   0  0  0  0  0  0  0  0  0  0  0  0
    1.2097   18.1147   43.0889 C   0  0  0  0  0  0  0  0  0  0  0  0
    0.4993   18.1671   44.2926 C   0  0  0  0  0  0  0  0  0  0  0  0
   -0.5365   17.3475   44.5193 N   0  0  0  0  0  0  0  0  0  0  0  0
    0.8572   19.0410   45.2387 N   0  0  0  0  0  0  0  0  0  0  0  0
    0.1931   19.1268   46.4051 C   0  0  0  0  0  0  0  0  0  0  0  0
    0.3540   19.9192   47.4759 N   0  0  0  0  0  0  0  0  0  0  0  0
    1.3796   20.9545   47.6347 C   0  0  0  0  0  0  0  0  0  0  0  0
   -0.4848   19.6562   48.3387 N   0  0  0  0  0  0  0  0  0  0  0  0
   -1.2294   18.6374   47.8783 C   0  0  0  0  0  0  0  0  0  0  0  0
   -0.8277   18.3091   46.6431 C   0  0  0  0  0  0  0  0  0  0  0  0
   -1.1962   17.4087   45.6908 C   0  0  0  0  0  0  0  0  0  0  0  0
   -2.2341   16.5625   45.8983 N   0  0  0  0  0  0  0  0  0  0  0  0
    0.2292   16.3160   42.3924 H   0  0  0  0  0  0  0  0  0  0  0  0
    1.4906   16.2294   40.2478 H   0  0  0  0  0  0  0  0  0  0  0  0
    3.1816   17.9781   39.7261 H   0  0  0  0  0  0  0  0  0  0  0  0
    2.3514   19.9026   43.5152 H   0  0  0  0  0  0  0  0  0  0  0  0
    0.9023   21.9020   47.9251 H   0  0  0  0  0  0  0  0  0  0  0  0
    2.0918   20.6484   48.4150 H   0  0  0  0  0  0  0  0  0  0  0  0
    1.9143   21.0899   46.6829 H   0  0  0  0  0  0  0  0  0  0  0  0
   -2.0445   18.1475   48.4310 H   0  0  0  0  0  0  0  0  0  0  0  0
   -2.7529   16.5922   46.7876 H   0  0  0  0  0  0  0  0  0  0  0  0
   -2.5042   15.8897   45.1668 H   0  0  0  0  0  0  0  0  0  0  0  0
  1  2  2  0
  1  6  1  0
  2  3  1  0
  3  4  2  0
  4  5  1  0
  5  6  2  0
  6  7  1  0
  7  8  2  0
  7  9  1  0
  8 16  1  0
  9 10  2  0
 10 11  1  0
 10 15  1  0
 11 12  1  0
 11 13  1  0
 13 14  2  0
 14 15  1  0
 15 16  2  0
 16 17  1  0
  1 18  1  0
  2 19  1  0
  3 20  1  0
  5 21  1  0
 12 22  1  0
 12 23  1  0
 12 24  1  0
 14 25  1  0
 17 26  1  0
 17 27  1  0
M  END
>  <mol_id>  (79) 
2026-09-18-6fnk-s0-n100-r4-0079

>  <rmsd_to_ref>  (79) 
4.035714285714711

>  <pose_kind>  (79) 
rigid

$$$$
6fnk.A
     RDKit          3D

 27 29  0  0  0  0  0  0  0  0999 V2000
    2.4584   17.0167   43.5764 C   0  0  0  0  0  0  0  0  0  0  0  0
    2.7599   16.1717   44.6280 C   0  0  0  0  0  0  0  0  0  0  0  0
    2.6916   14.8011   44.4564 C   0  0  0  0  0  0  0  0  0  0  0  0
    2.3351   14.2332   43.2799 N   0  0  0  0  0  0  0  0  0  0  0  0
    2.0352   15.0483   42.2352 C   0  0  0  0  0  0  0  0  0  0  0  0
    2.0946   16.4187   42.3769 C   0  0  0  0  0  0  0  0  0  0  0  0
    1.7649   17.2696   41.2304 C   0  0  0  0  0  0  0  0  0  0  0  0
    1.4140   16.6292   40.0762 N   0  0  0  0  0  0  0  0  0  0  0  0
    1.8089   18.6028   41.3219 N   0  0  0  0  0  0  0  0  0  0  0  0
    1.4989   19.3591   40.2455 C   0  0  0  0  0  0  0  0  0  0  0  0
    1.4476   20.6985   40.0154 N   0  0  0  0  0  0  0  0  0  0  0  0
    1.7495   21.7227   40.9884 C   0  0  0  0  0  0  0  0  0  0  0  0
    1.0812   20.9280   38.7718 N   0  0  0  0  0  0  0  0  0  0  0  0
    0.8716   19.7666   38.1155 C   0  0  0  0  0  0  0  0  0  0  0  0
    1.1384   18.7831   39.0563 C   0  0  0  0  0  0  0  0  0  0  0  0
    1.1061   17.3954   39.0066 C   0  0  0  0  0  0  0  0  0  0  0  0
    0.7307   16.7713   37.7694 N   0  0  0  0  0  0  0  0  0  0  0  0
    2.5019   18.1023   43.6767 H   0  0  0  0  0  0  0  0  0  0  0  0
    3.0481   16.6309   45.5786 H   0  0  0  0  0  0  0  0  0  0  0  0
    2.9372   14.1751   45.3102 H   0  0  0  0  0  0  0  0  0  0  0  0
    1.7524   14.5565   41.3041 H   0  0  0  0  0  0  0  0  0  0  0  0
    0.8557   22.3657   41.2288 H   0  0  0  0  0  0  0  0  0  0  0  0
    2.0781   21.2860   41.9478 H   0  0  0  0  0  0  0  0  0  0  0  0
    2.5292   22.4397   40.6253 H   0  0  0  0  0  0  0  0  0  0  0  0
    0.5618   19.6145   37.0792 H   0  0  0  0  0  0  0  0  0  0  0  0
    0.2957   17.3013   37.0093 H   0  0  0  0  0  0  0  0  0  0  0  0
    0.8942   15.7522   37.6139 H   0  0  0  0  0  0  0  0  0  0  0  0
  1  2  2  0
  1  6  1  0
  2  3  1  0
  3  4  2  0
  4  5  1  0
  5  6  2  0
  6  7  1  0
  7  8  2  0
  7  9  1  0
  8 16  1  0
  9 10  2  0
 10 11  1  0
 10 15  1  0
 11 12  1  0
 11 13  1  0
 13 14  2  0
 14 15  1  0
 15 16  2  0
 16 17  1  0
  1 18  1  0
  2 19  1  0
  3 20  1  0
  5 21  1  0
 12 22  1  0
 12 23  1  0
 12 24  1  0
 14 25  1  0
 17 26  1  0
 17 27  1  0
M  END
>  <mol_id>  (80) 
2026-09-18-6fnk-s0-n100-r4-0080

>  <rmsd_to_ref>  (80) 
4.081632653062798

>  <pose_kind>  (80) 
conformer

$$$$
6fnk.A
     RDKit          3D

 27 29  0  0  0  0  0  0  0  0999 V2000
    2.9822   17.4327   43.6734 C   0  0  0  0  0  0  0  0  0  0  0  0
    3.7170   17.1623   44.8280 C   0  0  0  0  0  0  0  0  0  0  0  0
    3.6439   18.0234   45.9131 C   0  0  0  0  0  0  0  0  0  0  0  0
    2.8313   19.1587   45.8497 N   0  0  0  0  0  0  0  0  0  0  0  0
    2.0946   19.4289   44.6865 C   0  0  0  0  0  0  0  0  0  0  0  0
    2.1687   18.5655   43.5950 C   0  0  0  0  0  0  0  0  0  0  0  0
    1.4350   18.8387   42.4360 C   0  0  0  0  0  0  0  0  0  0  0  0
    1.6222   18.1264   41.3164 N   0  0  0  0  0  0  0  0  0  0  0  0
    0.5268   19.8197   42.4393 N   0  0  0  0  0  0  0  0  0  0  0  0
   -0.1915   20.1175   41.3420 C   0  0  0  0  0  0  0  0  0  0  0  0
   -1.1283   21.0483   41.1051 N   0  0  0  0  0  0  0  0  0  0  0  0
   -1.6289   22.0313   42.0706 C   0  0  0  0  0  0  0  0  0  0  0  0
   -1.5350   20.9675   39.9453 N   0  0  0  0  0  0  0  0  0  0  0  0
   -0.8946   19.9392   39.3653 C   0  0  0  0  0  0  0  0  0  0  0  0
   -0.0209   19.4078   40.2309 C   0  0  0  0  0  0  0  0  0  0  0  0
    0.8947   18.4004   40.2177 C   0  0  0  0  0  0  0  0  0  0  0  0
    1.0970   17.6591   39.1014 N   0  0  0  0  0  0  0  0  0  0  0  0
    3.0441   16.7466   42.8158 H   0  0  0  0  0  0  0  0  0  0  0  0
    4.3539   16.2669   44.8779 H   0  0  0  0  0  0  0  0  0  0  0  0
    4.2252   17.8128   46.8230 H   0  0  0  0  0  0  0  0  0  0  0  0
    1.4572   20.3240   44.6360 H   0  0  0  0  0  0  0  0  0  0  0  0
   -1.5687   23.0387   41.6329 H   0  0  0  0  0  0  0  0  0  0  0  0
   -2.6756   21.8013   42.3188 H   0  0  0  0  0  0  0  0  0  0  0  0
   -1.0181   21.9915   42.9846 H   0  0  0  0  0  0  0  0  0  0  0  0
   -1.0618   19.5870   38.3367 H   0  0  0  0  0  0  0  0  0  0  0  0
    0.5513   17.8517   38.2494 H   0  0  0  0  0  0  0  0  0  0  0  0
    1.7966   16.9031   39.1051 H   0  0  0  0  0  0  0  0  0  0  0  0
  1  2  2  0
  1  6  1  0
  2  3  1  0
  3  4  2  0
  4  5  1  0
  5  6  2  0
  6  7  1  0
  7  8  2  0
  7  9  1  0
  8 16  1  0
  9 10  2  0
 10 11  1  0
 10 15  1  0
 11 12  1  0
 11 13  1  0
 13 14  2  0
 14 15  1  0
 15 16  2  0
 16 17  1  0
  1 18  1  0
  2 19  1  0
  3 20  1  0
  5 21  1  0
 12 22  1  0
 12 23  1  0
 12 24  1  0
 14 25  1  0
 17 26  1  0
 17 27  1  0
M  END
>  <mol_id>  (81) 
2026-09-18-6fnk-s0-n100-r4-0081

>  <rmsd_to_ref>  (81) 
4.127551020413898

>  <pose_kind>  (81) 
rigid

$$$$
6fnk.A
     RDKit          3D

 27 29  0  0  0  0  0  0  0  0999 V2000
    2.8971   15.8250   45.4059 C   0  0  0  0  0  0  0  0  0  0  0  0
    2.5641   15.0688   46.5332 C   0  0  0  0  0  0  0  0  0  0  0  0
    1.4695   15.4715   47.2909 C   0  0  0  0  0  0  0  0  0  0  0  0
    0.7390   16.5582   46.9616 N   0  0  0  0  0  0  0  0  0  0  0  0
    1.0522   17.3061   45.8640 C   0  0  0  0  0  0  0  0  0  0  0  0
    2.1332   16.9313   45.0925 C   0  0  0  0  0  0  0  0  0  0  0  0
    2.5041   17.7081   43.9037 C   0  0  0  0  0  0  0  0  0  0  0  0
    3.5612   17.3587   43.1317 N   0  0  0  0  0  0  0  0  0  0  0  0
    1.7583   18.8043   43.5812 N   0  0  0  0  0  0  0  0  0  0  0  0
    2.0617   19.5444   42.5019 C   0  0  0  0  0  0  0  0  0  0  0  0
    1.5011   20.6641   41.9576 N   0  0  0  0  0  0  0  0  0  0  0  0
    0.3261   21.3737   42.4877 C   0  0  0  0  0  0  0  0  0  0  0  0
    2.1801   21.0016   40.8882 N   0  0  0  0  0  0  0  0  0  0  0  0
    3.2072   20.1396   40.6715 C   0  0  0  0  0  0  0  0  0  0  0  0
    3.1356   19.2233   41.6831 C   0  0  0  0  0  0  0  0  0  0  0  0
    3.8870   18.0954   42.0320 C   0  0  0  0  0  0  0  0  0  0  0  0
    5.0029   17.7067   41.2374 N   0  0  0  0  0  0  0  0  0  0  0  0
    3.7483   15.5378   44.7904 H   0  0  0  0  0  0  0  0  0  0  0  0
    3.1272   14.1978   46.8210 H   0  0  0  0  0  0  0  0  0  0  0  0
    1.2279   14.8595   48.1734 H   0  0  0  0  0  0  0  0  0  0  0  0
    0.4862   18.1764   45.5799 H   0  0  0  0  0  0  0  0  0  0  0  0
    0.5845   22.2975   43.0036 H   0  0  0  0  0  0  0  0  0  0  0  0
   -0.2151   20.7358   43.2162 H   0  0  0  0  0  0  0  0  0  0  0  0
   -0.4167   21.5635   41.6671 H   0  0  0  0  0  0  0  0  0  0  0  0
    3.9437   20.1520   39.8726 H   0  0  0  0  0  0  0  0  0  0  0  0
    5.0430   16.7660   40.7449 H   0  0  0  0  0  0  0  0  0  0  0  0
    5.8394   18.3497   41.1096 H   0  0  0  0  0  0  0  0  0  0  0  0
  1  2  2  0
  1  6  1  0
  2  3  1  0
  3  4  2  0
  4  5  1  0
  5  6  2  0
  6  7  1  0
  7  8  2  0
  7  9  1  0
  8 16  1  0
  9 10  2  0
 10 11  1  0
 10 15  1  0
 11 12  1  0
 11 13  1  0
 13 14  2  0
 14 15  1  0
 15 16  2  0
 16 17  1  0
  1 18  1  0
  2 19  1  0
  3 20  1  0
  5 21  1  0
 12 22  1  0
 12 23  1  0
 12 24  1  0
 14 25  1  0
 17 26  1  0
 17 27  1  0
M  END
>  <mol_id>  (82) 
2026-09-18-6fnk-s0-n100-r4-0082

>  <rmsd_to_ref>  (82) 
4.1734693877556355

>  <pose_kind>  (82) 
conformer

$$$$
6fnk.A
     RDKit          3D

 27 29  0  0  0  0  0  0  0  0999 V2000
    2.5104   20.2968   40.0456 C   0  0  0  0  0  0  0  0  0  0  0  0
    3.7005   20.7874   39.5081 C   0  0  0  0  0  0  0  0  0  0  0  0
    4.8550   20.0206   39.5668 C   0  0  0  0  0  0  0  0  0  0  0  0
    4.8236   18.7560   40.1609 N   0  0  0  0  0  0  0  0  0  0  0  0
    3.6254   18.2658   40.7020 C   0  0  0  0  0  0  0  0  0  0  0  0
    2.4653   19.0359   40.6454 C   0  0  0  0  0  0  0  0  0  0  0  0
    1.2730   18.5456   41.1878 C   0  0  0  0  0  0  0  0  0  0  0  0
    0.1929   19.3305   41.3036 N   0  0  0  0  0  0  0  0  0  0  0  0
    1.2000   17.2738   41.5931 N   0  0  0  0  0  0  0  0  0  0  0  0
    0.0738   16.7690   42.1275 C   0  0  0  0  0  0  0  0  0  0  0  0
   -0.2268   15.5537   42.6103 N   0  0  0  0  0  0  0  0  0  0  0  0
    0.6770   14.4009   42.6642 C   0  0  0  0  0  0  0  0  0  0  0  0
   -1.3929   15.5216   43.0058 N   0  0  0  0  0  0  0  0  0  0  0  0
   -1.9319   16.7285   42.7671 C   0  0  0  0  0  0  0  0  0  0  0  0
   -1.0058   17.5372   42.2346 C   0  0  0  0  0  0  0  0  0  0  0  0
   -0.9467   18.8317   41.8172 C   0  0  0  0  0  0  0  0  0  0  0  0
   -2.0270   19.6439   41.9148 N   0  0  0  0  0  0  0  0  0  0  0  0
    1.5979   20.9091   39.9966 H   0  0  0  0  0  0  0  0  0  0  0  0
    3.7234   21.7816   39.0381 H   0  0  0  0  0  0  0  0  0  0  0  0
    5.7947   20.4077   39.1459 H   0  0  0  0  0  0  0  0  0  0  0  0
    3.6017   17.2715   41.1720 H   0  0  0  0  0  0  0  0  0  0  0  0
    0.6902   13.9928   43.6856 H   0  0  0  0  0  0  0  0  0  0  0  0
    0.3269   13.6274   41.9648 H   0  0  0  0  0  0  0  0  0  0  0  0
    1.6922   14.7174   42.3826 H   0  0  0  0  0  0  0  0  0  0  0  0
   -2.9744   17.0100   42.9766 H   0  0  0  0  0  0  0  0  0  0  0  0
   -2.9093   19.2828   42.3049 H   0  0  0  0  0  0  0  0  0  0  0  0
   -1.9659   20.6224   41.5990 H   0  0  0  0  0  0  0  0  0  0  0  0
  1  2  2  0
  1  6  1  0
  2  3  1  0
  3  4  2  0
  4  5  1  0
  5  6  2  0
  6  7  1  0
  7  8  2  0
  7  9  1  0
  8 16  1  0
  9 10  2  0
 10 11  1  0
 10 15  1  0
 11 12  1  0
 11 13  1  0
 13 14  2  0
 14 15  1  0
 15 16  2  0
 16 17  1  0
  1 18  1  0
  2 19  1  0
  3 20  1  0
  5 21  1  0
 12 22  1  0
 12 23  1  0
 12 24  1  0
 14 25  1  0
 17 26  1  0
 17 27  1  0
M  END
>  <mol_id>  (83) 
2026-09-18-6fnk-s0-n100-r4-0083

>  <rmsd_to_ref>  (83) 
4.219387755107515

>  <pose_kind>  (83) 
rigid

$$$$
6fnk.A
     RDKit          3D

 27 29  0  0  0  0  0  0  0  0999 V2000
    4.6075   20.6901   44.0008 C   0  0  0  0  0  0  0  0  0  0  0  0
    5.8740   20.8275   44.5520 C   0  0  0  0  0  0  0  0  0  0  0  0
    6.5271   19.7048   45.0275 C   0  0  0  0  0  0  0  0  0  0  0  0
    5.9313   18.4919   44.9522 N   0  0  0  0  0  0  0  0  0  0  0  0
    4.6993   18.3444   44.4183 C   0  0  0  0  0  0  0  0  0  0  0  0
    4.0253   19.4321   43.9390 C   0  0  0  0  0  0  0  0  0  0  0  0
    2.6943   19.2989   43.3581 C   0  0  0  0  0  0  0  0  0  0  0  0
    1.9922   20.3337   42.8745 N   0  0  0  0  0  0  0  0  0  0  0  0
    2.1246   18.0708   43.2972 N   0  0  0  0  0  0  0  0  0  0  0  0
    0.9010   17.8705   42.7756 C   0  0  0  0  0  0  0  0  0  0  0  0
    0.1130   16.7979   42.5910 N   0  0  0  0  0  0  0  0  0  0  0  0
    0.4616   15.4280   42.9684 C   0  0  0  0  0  0  0  0  0  0  0  0
   -1.0322   17.1779   42.0119 N   0  0  0  0  0  0  0  0  0  0  0  0
   -1.0282   18.5123   41.7998 C   0  0  0  0  0  0  0  0  0  0  0  0
    0.1891   18.9584   42.2791 C   0  0  0  0  0  0  0  0  0  0  0  0
    0.7604   20.2328   42.3332 C   0  0  0  0  0  0  0  0  0  0  0  0
    0.0623   21.3769   41.8340 N   0  0  0  0  0  0  0  0  0  0  0  0
    4.0883   21.5802   43.6232 H   0  0  0  0  0  0  0  0  0  0  0  0
    6.3248   21.8241   44.5963 H   0  0  0  0  0  0  0  0  0  0  0  0
    7.5211   19.8159   45.4595 H   0  0  0  0  0  0  0  0  0  0  0  0
    4.2768   17.3294   44.3898 H   0  0  0  0  0  0  0  0  0  0  0  0
    1.5102   15.1926   42.6479 H   0  0  0  0  0  0  0  0  0  0  0  0
   -0.1931   14.7394   42.3776 H   0  0  0  0  0  0  0  0  0  0  0  0
    0.3075   15.3359   44.0450 H   0  0  0  0  0  0  0  0  0  0  0  0
   -1.8013   19.1308   41.3508 H   0  0  0  0  0  0  0  0  0  0  0  0
    0.3866   21.8192   40.9265 H   0  0  0  0  0  0  0  0  0  0  0  0
   -0.7561   21.7868   42.3383 H   0  0  0  0  0  0  0  0  0  0  0  0
  1  2  2  0
  1  6  1  0
  2  3  1  0
  3  4  2  0
  4  5  1  0
  5  6  2  0
  6  7  1  0
  7  8  2  0
  7  9  1  0
  8 16  1  0
  9 10  2  0
 10 11  1  0
 10 15  1  0
 11 12  1  0
 11 13  1  0
 13 14  2  0
 14 15  1  0
 15 16  2  0
 16 17  1  0
  1 18  1  0
  2 19  1  0
  3 20  1  0
  5 21  1  0
 12 22  1  0
 12 23  1  0
 12 24  1  0
 14 25  1  0
 17 26  1  0
 17 27  1  0
M  END
>  <mol_id>  (84) 
2026-09-18-6fnk-s0-n100-r4-0084

>  <rmsd_to_ref>  (84) 
4.265306122453773

>  <pose_kind>  (84) 
conformer

$$$$
6fnk.A
     RDKit          3D

 27 29  0  0  0  0  0  0  0  0999 V2000
   -2.8743   15.2307   41.8173 C   0  0  0  0  0  0  0  0  0  0  0  0
   -3.2716   14.0027   41.2882 C   0  0  0  0  0  0  0  0  0  0  0  0
   -2.5802   13.4529   40.2185 C   0  0  0  0  0  0  0  0  0  0  0  0
   -1.4841   14.1283   39.6748 N   0  0  0  0  0  0  0  0  0  0  0  0
   -1.0878   15.3642   40.2081 C   0  0  0  0  0  0  0  0  0  0  0  0
   -1.7827   15.9183   41.2815 C   0  0  0  0  0  0  0  0  0  0  0  0
   -1.3867   17.1515   41.8094 C   0  0  0  0  0  0  0  0  0  0  0  0
   -2.1382   17.7863   42.7195 N   0  0  0  0  0  0  0  0  0  0  0  0
   -0.2391   17.7086   41.4098 N   0  0  0  0  0  0  0  0  0  0  0  0
    0.1705   18.8969   41.8882 C   0  0  0  0  0  0  0  0  0  0  0  0
    1.2536   19.6457   41.6303 N   0  0  0  0  0  0  0  0  0  0  0  0
    2.3306   19.3085   40.6948 C   0  0  0  0  0  0  0  0  0  0  0  0
    1.2363   20.6776   42.3027 N   0  0  0  0  0  0  0  0  0  0  0  0
    0.1357   20.6380   43.0717 C   0  0  0  0  0  0  0  0  0  0  0  0
   -0.5628   19.5274   42.8003 C   0  0  0  0  0  0  0  0  0  0  0  0
   -1.7292   18.9660   43.2219 C   0  0  0  0  0  0  0  0  0  0  0  0
   -2.5031   19.5827   44.1477 N   0  0  0  0  0  0  0  0  0  0  0  0
   -3.4262   15.6621   42.6654 H   0  0  0  0  0  0  0  0  0  0  0  0
   -4.1326   13.4705   41.7189 H   0  0  0  0  0  0  0  0  0  0  0  0
   -2.8945   12.4860   39.7986 H   0  0  0  0  0  0  0  0  0  0  0  0
   -0.2267   15.8967   39.7781 H   0  0  0  0  0  0  0  0  0  0  0  0
    2.4943   20.1499   40.0054 H   0  0  0  0  0  0  0  0  0  0  0  0
    3.2553   19.1095   41.2565 H   0  0  0  0  0  0  0  0  0  0  0  0
    2.0506   18.4131   40.1206 H   0  0  0  0  0  0  0  0  0  0  0  0
   -0.1487   21.4009   43.8114 H   0  0  0  0  0  0  0  0  0  0  0  0
   -2.2092   20.4862   44.5454 H   0  0  0  0  0  0  0  0  0  0  0  0
   -3.3853   19.1479   44.4537 H   0  0  0  0  0  0  0  0  0  0  0  0
  1  2  2  0
  1  6  1  0
  2  3  1  0
  3  4  2  0
  4  5  1  0
  5  6  2  0
  6  7  1  0
  7  8  2  0
  7  9  1  0
  8 16  1  0
  9 10  2  0
 10 11  1  0
 10 15  1  0
 11 12  1  0
 11 13  1  0
 13 14  2  0
 14 15  1  0
 15 16  2  0
 16 17  1  0
  1 18  1  0
  2 19  1  0
  3 20  1  0
  5 21  1  0
 12 22  1  0
 12 23  1  0
 12 24  1  0
 14 25  1  0
 17 26  1  0
 17 27  1  0
M  END
>  <mol_id>  (85) 
2026-09-18-6fnk-s0-n100-r4-0085

>  <rmsd_to_ref>  (85) 
4.3112244897972305

>  <pose_kind>  (85) 
rigid

$$$$
6fnk.A
     RDKit          3D

 27 29  0  0  0  0  0  0  0  0999 V2000
    3.2268   17.2372   42.5244 C   0  0  0  0  0  0  0  0  0  0  0  0
    4.4234   17.7746   42.0798 C   0  0  0  0  0  0  0  0  0  0  0  0
    4.6919   19.1305   42.1767 C   0  0  0  0  0  0  0  0  0  0  0  0
    3.7540   19.9207   42.7182 N   0  0  0  0  0  0  0  0  0  0  0  0
    2.5647   19.4506   43.1703 C   0  0  0  0  0  0  0  0  0  0  0  0
    2.3012   18.1017   43.0722 C   0  0  0  0  0  0  0  0  0  0  0  0
    1.0249   17.5812   43.5548 C   0  0  0  0  0  0  0  0  0  0  0  0
    0.1173   18.4195   44.0906 N   0  0  0  0  0  0  0  0  0  0  0  0
    0.7516   16.2656   43.4664 N   0  0  0  0  0  0  0  0  0  0  0  0
   -0.4325   15.7516   43.9093 C   0  0  0  0  0  0  0  0  0  0  0  0
   -0.9383   14.5035   43.9346 N   0  0  0  0  0  0  0  0  0  0  0  0
   -0.2519   13.3224   43.4423 C   0  0  0  0  0  0  0  0  0  0  0  0
   -2.1375   14.5406   44.4719 N   0  0  0  0  0  0  0  0  0  0  0  0
   -2.4685   15.8130   44.8213 C   0  0  0  0  0  0  0  0  0  0  0  0
   -1.3743   16.6024   44.4621 C   0  0  0  0  0  0  0  0  0  0  0  0
   -1.0816   17.9472   44.5466 C   0  0  0  0  0  0  0  0  0  0  0  0
   -2.0584   18.7938   45.1143 N   0  0  0  0  0  0  0  0  0  0  0  0
    3.0339   16.1748   42.4406 H   0  0  0  0  0  0  0  0  0  0  0  0
    5.1470   17.0874   41.6497 H   0  0  0  0  0  0  0  0  0  0  0  0
    5.6393   19.5080   41.8171 H   0  0  0  0  0  0  0  0  0  0  0  0
    1.8604   20.1546   43.5945 H   0  0  0  0  0  0  0  0  0  0  0  0
   -0.1835   12.5703   44.2549 H   0  0  0  0  0  0  0  0  0  0  0  0
    0.7232   13.5838   43.0241 H   0  0  0  0  0  0  0  0  0  0  0  0
   -0.8664   12.9552   42.5857 H   0  0  0  0  0  0  0  0  0  0  0  0
   -3.3803   16.1719   45.2825 H   0  0  0  0  0  0  0  0  0  0  0  0
   -1.8213   19.4066   45.9471 H   0  0  0  0  0  0  0  0  0  0  0  0
   -3.0170   18.7967   44.6893 H   0  0  0  0  0  0  0  0  0  0  0  0
  1  2  2  0
  1  6  1  0
  2  3  1  0
  3  4  2  0
  4  5  1  0
  5  6  2  0
  6  7  1  0
  7  8  2  0
  7  9  1  0
  8 16  1  0
  9 10  2  0
 10 11  1  0
 10 15  1  0
 11 12  1  0
 11 13  1  0
 13 14  2  0
 14 15  1  0
 15 16  2  0
 16 17  1  0
  1 18  1  0
  2 19  1  0
  3 20  1  0
  5 21  1  0
 12 22  1  0
 12 23  1  0
 12 24  1  0
 14 25  1  0
 17 26  1  0
 17 27  1  0
M  END
>  <mol_id>  (86) 
2026-09-18-6fnk-s0-n100-r4-0086

>  <rmsd_to_ref>  (86) 
4.357142857148612

>  <pose_kind>  (86) 
conformer

$$$$
6fnk.A
     RDKit          3D

 27 29  0  0  0  0  0  0  0  0999 V2000
    1.9001   16.0874   44.7066 C   0  0  0  0  0  0  0  0  0  0  0  0
    0.9045   15.1808   45.0710 C   0  0  0  0  0  0  0  0  0  0  0  0
   -0.4307   15.5030   44.8766 C   0  0  0  0  0  0  0  0  0  0  0  0
   -0.7766   16.7340   44.3123 N   0  0  0  0  0  0  0  0  0  0  0  0
    0.2269   17.6445   43.9482 C   0  0  0  0  0  0  0  0  0  0  0  0
    1.5686   17.3227   44.1448 C   0  0  0  0  0  0  0  0  0  0  0  0
    2.5666   18.2333   43.7830 C   0  0  0  0  0  0  0  0  0  0  0  0
    3.8468   18.0247   44.1201 N   0  0  0  0  0  0  0  0  0  0  0  0
    2.2473   19.3275   43.0845 N   0  0  0  0  0  0  0  0  0  0  0  0
    3.1777   20.2301   42.7260 C   0  0  0  0  0  0  0  0  0  0  0  0
    3.0960   21.3873   42.0520 N   0  0  0  0  0  0  0  0  0  0  0  0
    1.8728   21.9784   41.5010 C   0  0  0  0  0  0  0  0  0  0  0  0
    4.2090   21.9031   41.9413 N   0  0  0  0  0  0  0  0  0  0  0  0
    5.0948   21.0764   42.5211 C   0  0  0  0  0  0  0  0  0  0  0  0
    4.4516   20.0247   43.0457 C   0  0  0  0  0  0  0  0  0  0  0  0
    4.7907   18.9096   43.7493 C   0  0  0  0  0  0  0  0  0  0  0  0
    6.0789   18.6704   44.0951 N   0  0  0  0  0  0  0  0  0  0  0  0
    2.9572   15.8269   44.8632 H   0  0  0  0  0  0  0  0  0  0  0  0
    1.1780   14.2110   45.5123 H   0  0  0  0  0  0  0  0  0  0  0  0
   -1.2167   14.7901   45.1664 H   0  0  0  0  0  0  0  0  0  0  0  0
   -0.0459   18.6143   43.5066 H   0  0  0  0  0  0  0  0  0  0  0  0
    1.7844   23.0210   41.8404 H   0  0  0  0  0  0  0  0  0  0  0  0
    1.9160   21.9528   40.4022 H   0  0  0  0  0  0  0  0  0  0  0  0
    1.0003   21.4048   41.8472 H   0  0  0  0  0  0  0  0  0  0  0  0
    6.1821   21.2381   42.5594 H   0  0  0  0  0  0  0  0  0  0  0  0
    6.8174   19.3343   43.8216 H   0  0  0  0  0  0  0  0  0  0  0  0
    6.3197   17.8246   44.6314 H   0  0  0  0  0  0  0  0  0  0  0  0
  1  2  2  0
  1  6  1  0
  2  3  1  0
  3  4  2  0
  4  5  1  0
  5  6  2  0
  6  7  1  0
  7  8  2  0
  7  9  1  0
  8 16  1  0
  9 10  2  0
 10 11  1  0
 10 15  1  0
 11 12  1  0
 11 13  1  0
 13 14  2  0
 14 15  1  0
 15 16  2  0
 16 17  1  0
  1 18  1  0
  2 19  1  0
  3 20  1  0
  5 21  1  0
 12 22  1  0
 12 23  1  0
 12 24  1  0
 14 25  1  0
 17 26  1  0
 17 27  1  0
M  END
>  <mol_id>  (87) 
2026-09-18-6fnk-s0-n100-r4-0087

>  <rmsd_to_ref>  (87) 
4.403061224494235

>  <pose_kind>  (87) 
rigid

$$$$
6fnk.A
     RDKit          3D

 27 29  0  0  0  0  0  0  0  0999 V2000
    1.7557   17.1738   43.8880 C   0  0  0  0  0  0  0  0  0  0  0  0
    2.7589   17.3537   44.8101 C   0  0  0  0  0  0  0  0  0  0  0  0
    3.7205   18.3377   44.5963 C   0  0  0  0  0  0  0  0  0  0  0  0
    3.7095   19.1300   43.5121 N   0  0  0  0  0  0  0  0  0  0  0  0
    2.7210   18.9404   42.6202 C   0  0  0  0  0  0  0  0  0  0  0  0
    1.7363   17.9868   42.7661 C   0  0  0  0  0  0  0  0  0  0  0  0
    0.6868   17.8434   41.7410 C   0  0  0  0  0  0  0  0  0  0  0  0
    0.7805   18.7006   40.6906 N   0  0  0  0  0  0  0  0  0  0  0  0
   -0.2646   16.9308   41.8699 N   0  0  0  0  0  0  0  0  0  0  0  0
   -1.2067   16.8278   40.9148 C   0  0  0  0  0  0  0  0  0  0  0  0
   -2.2890   16.0614   40.6941 N   0  0  0  0  0  0  0  0  0  0  0  0
   -2.7146   15.0126   41.6179 C   0  0  0  0  0  0  0  0  0  0  0  0
   -2.8571   16.4114   39.5609 N   0  0  0  0  0  0  0  0  0  0  0  0
   -2.1890   17.4274   38.9629 C   0  0  0  0  0  0  0  0  0  0  0  0
   -1.1299   17.6885   39.8401 C   0  0  0  0  0  0  0  0  0  0  0  0
   -0.1421   18.6412   39.6993 C   0  0  0  0  0  0  0  0  0  0  0  0
   -0.0960   19.5082   38.5803 N   0  0  0  0  0  0  0  0  0  0  0  0
    1.0020   16.4175   44.0353 H   0  0  0  0  0  0  0  0  0  0  0  0
    2.7897   16.7283   45.6914 H   0  0  0  0  0  0  0  0  0  0  0  0
    4.4873   18.4215   45.3736 H   0  0  0  0  0  0  0  0  0  0  0  0
    2.7371   19.6041   41.7415 H   0  0  0  0  0  0  0  0  0  0  0  0
   -2.1961   14.0779   41.3375 H   0  0  0  0  0  0  0  0  0  0  0  0
   -3.8130   14.8663   41.4177 H   0  0  0  0  0  0  0  0  0  0  0  0
   -2.5683   15.3152   42.6604 H   0  0  0  0  0  0  0  0  0  0  0  0
   -2.4033   17.9318   38.0319 H   0  0  0  0  0  0  0  0  0  0  0  0
    0.7850   19.5149   38.0251 H   0  0  0  0  0  0  0  0  0  0  0  0
   -0.8708   20.1292   38.2801 H   0  0  0  0  0  0  0  0  0  0  0  0
  1  2  2  0
  1  6  1  0
  2  3  1  0
  3  4  2  0
  4  5  1  0
  5  6  2  0
  6  7  1  0
  7  8  2  0
  7  9  1  0
  8 16  1  0
  9 10  2  0
 10 11  1  0
 10 15  1  0
 11 12  1  0
 11 13  1  0
 13 14  2  0
 14 15  1  0
 15 16  2  0
 16 17  1  0
  1 18  1  0
  2 19  1  0
  3 20  1  0
  5 21  1  0
 12 22  1  0
 12 23  1  0
 12 24  1  0
 14 25  1  0
 17 26  1  0
 17 27  1  0
M  END
>  <mol_id>  (88) 
2026-09-18-6fnk-s0-n100-r4-0088

>  <rmsd_to_ref>  (88) 
4.448979591839776

>  <pose_kind>  (88) 
conformer

$$$$
6fnk.A
     RDKit          3D

 27 29  0  0  0  0  0  0  0  0999 V2000
    1.8486   20.1290   40.7832 C   0  0  0  0  0  0  0  0  0  0  0  0
    2.9962   20.9210   40.8236 C   0  0  0  0  0  0  0  0  0  0  0  0
    3.5955   21.2107   42.0407 C   0  0  0  0  0  0  0  0  0  0  0  0
    3.0507   20.7057   43.2246 N   0  0  0  0  0  0  0  0  0  0  0  0
    1.8954   19.9107   43.1809 C   0  0  0  0  0  0  0  0  0  0  0  0
    1.2914   19.6205   41.9590 C   0  0  0  0  0  0  0  0  0  0  0  0
    0.1385   18.8297   41.9188 C   0  0  0  0  0  0  0  0  0  0  0  0
   -0.5582   18.6818   40.7835 N   0  0  0  0  0  0  0  0  0  0  0  0
   -0.2775   18.2035   43.0242 N   0  0  0  0  0  0  0  0  0  0  0  0
   -1.3859   17.4418   43.0267 C   0  0  0  0  0  0  0  0  0  0  0  0
   -1.9956   16.7435   43.9967 N   0  0  0  0  0  0  0  0  0  0  0  0
   -1.5523   16.6376   45.3900 C   0  0  0  0  0  0  0  0  0  0  0  0
   -2.9980   16.1780   43.5581 N   0  0  0  0  0  0  0  0  0  0  0  0
   -3.0765   16.4584   42.2468 C   0  0  0  0  0  0  0  0  0  0  0  0
   -2.0758   17.2798   41.9020 C   0  0  0  0  0  0  0  0  0  0  0  0
   -1.6573   17.9053   40.7675 C   0  0  0  0  0  0  0  0  0  0  0  0
   -2.3384   17.7651   39.6044 N   0  0  0  0  0  0  0  0  0  0  0  0
    1.3774   19.9026   39.8153 H   0  0  0  0  0  0  0  0  0  0  0  0
    3.4258   21.3155   39.8909 H   0  0  0  0  0  0  0  0  0  0  0  0
    4.4988   21.8376   42.0740 H   0  0  0  0  0  0  0  0  0  0  0  0
    1.4654   19.5157   44.1132 H   0  0  0  0  0  0  0  0  0  0  0  0
   -2.3876   16.8877   46.0606 H   0  0  0  0  0  0  0  0  0  0  0  0
   -1.2162   15.6096   45.5907 H   0  0  0  0  0  0  0  0  0  0  0  0
   -0.7205   17.3359   45.5643 H   0  0  0  0  0  0  0  0  0  0  0  0
   -3.8449   16.0725   41.5609 H   0  0  0  0  0  0  0  0  0  0  0  0
   -3.1823   17.1756   39.5696 H   0  0  0  0  0  0  0  0  0  0  0  0
   -2.0122   18.2482   38.7552 H   0  0  0  0  0  0  0  0  0  0  0  0
  1  2  2  0
  1  6  1  0
  2  3  1  0
  3  4  2  0
  4  5  1  0
  5  6  2  0
  6  7  1  0
  7  8  2  0
  7  9  1  0
  8 16  1  0
  9 10  2  0
 10 11  1  0
 10 15  1  0
 11 12  1  0
 11 13  1  0
 13 14  2  0
 14 15  1  0
 15 16  2  0
 16 17  1  0
  1 18  1  0
  2 19  1  0
  3 20  1  0
  5 21  1  0
 12 22  1  0
 12 23  1  0
 12 24  1  0
 14 25  1  0
 17 26  1  0
 17 27  1  0
M  END
>  <mol_id>  (89) 
2026-09-18-6fnk-s0-n100-r4-0089

>  <rmsd_to_ref>  (89) 
4.494897959186063

>  <pose_kind>  (89) 
rigid

$$$$
6fnk.A
     RDKit          3D

 27 29  0  0  0  0  0  0  0  0999 V2000
    5.6771   17.1713   39.8873 C   0  0  0  0  0  0  0  0  0  0  0  0
    6.9905   16.7878   40.0521 C   0  0  0  0  0  0  0  0  0  0  0  0
    7.4029   16.1348   41.2089 C   0  0  0  0  0  0  0  0  0  0  0  0
    6.5114   15.8710   42.1846 N   0  0  0  0  0  0  0  0  0  0  0  0
    5.2203   16.2448   42.0291 C   0  0  0  0  0  0  0  0  0  0  0  0
    4.7596   16.8933   40.9051 C   0  0  0  0  0  0  0  0  0  0  0  0
    3.3735   17.2815   40.7657 C   0  0  0  0  0  0  0  0  0  0  0  0
    2.5210   16.9969   41.7658 N   0  0  0  0  0  0  0  0  0  0  0  0
    2.9659   17.9130   39.6512 N   0  0  0  0  0  0  0  0  0  0  0  0
    1.6735   18.2646   39.5426 C   0  0  0  0  0  0  0  0  0  0  0  0
    1.0133   18.8973   38.5473 N   0  0  0  0  0  0  0  0  0  0  0  0
    1.5849   19.3723   37.2871 C   0  0  0  0  0  0  0  0  0  0  0  0
   -0.2564   19.0158   38.9115 N   0  0  0  0  0  0  0  0  0  0  0  0
   -0.4577   18.4762   40.1279 C   0  0  0  0  0  0  0  0  0  0  0  0
    0.7608   17.9848   40.5619 C   0  0  0  0  0  0  0  0  0  0  0  0
    1.2192   17.3364   41.6868 C   0  0  0  0  0  0  0  0  0  0  0  0
    0.2862   17.0490   42.7316 N   0  0  0  0  0  0  0  0  0  0  0  0
    5.3322   17.6885   38.9800 H   0  0  0  0  0  0  0  0  0  0  0  0
    7.6658   17.0225   39.2406 H   0  0  0  0  0  0  0  0  0  0  0  0
    8.4380   15.8697   41.2616 H   0  0  0  0  0  0  0  0  0  0  0  0
    4.5387   16.0055   42.8532 H   0  0  0  0  0  0  0  0  0  0  0  0
    2.5223   18.8687   37.0605 H   0  0  0  0  0  0  0  0  0  0  0  0
    0.9045   19.2306   36.4336 H   0  0  0  0  0  0  0  0  0  0  0  0
    1.8296   20.4524   37.4858 H   0  0  0  0  0  0  0  0  0  0  0  0
   -1.3911   18.4191   40.6948 H   0  0  0  0  0  0  0  0  0  0  0  0
    0.5848   17.0046   43.7398 H   0  0  0  0  0  0  0  0  0  0  0  0
   -0.7185   16.8726   42.5465 H   0  0  0  0  0  0  0  0  0  0  0  0
  1  2  2  0
  1  6  1  0
  2  3  1  0
  3  4  2  0
  4  5  1  0
  5  6  2  0
  6  7  1  0
  7  8  2  0
  7  9  1  0
  8 16  1  0
  9 10  2  0
 10 11  1  0
 10 15  1  0
 11 12  1  0
 11 13  1  0
 13 14  2  0
 14 15  1  0
 15 16  2  0
 16 17  1  0
  1 18  1  0
  2 19  1  0
  3 20  1  0
  5 21  1  0
 12 22  1  0
 12 23  1  0
 12 24  1  0
 14 25  1  0
 17 26  1  0
 17 27  1  0
M  END
>  <mol_id>  (90) 
2026-09-18-6fnk-s0-n100-r4-0090

>  <rmsd_to_ref>  (90) 
4.540816326532117

>  <pose_kind>  (90) 
conformer

$$$$
6fnk.A
     RDKit          3D

 27 29  0  0  0  0  0  0  0  0999 V2000
    0.5081   17.5179   38.8157 C   0  0  0  0  0  0  0  0  0  0  0  0
   -0.7797   17.5386   38.2801 C   0  0  0  0  0  0  0  0  0  0  0  0
   -1.8627   17.8433   39.0916 C   0  0  0  0  0  0  0  0  0  0  0  0
   -1.6618   18.1329   40.4441 N   0  0  0  0  0  0  0  0  0  0  0  0
   -0.3654   18.1098   40.9804 C   0  0  0  0  0  0  0  0  0  0  0  0
    0.7232   17.8019   40.1665 C   0  0  0  0  0  0  0  0  0  0  0  0
    2.0140   17.7773   40.7044 C   0  0  0  0  0  0  0  0  0  0  0  0
    3.0506   17.3161   39.9912 N   0  0  0  0  0  0  0  0  0  0  0  0
    2.2259   18.2252   41.9460 N   0  0  0  0  0  0  0  0  0  0  0  0
    3.4512   18.2094   42.5004 C   0  0  0  0  0  0  0  0  0  0  0  0
    3.8964   18.5832   43.7097 N   0  0  0  0  0  0  0  0  0  0  0  0
    3.0823   19.1469   44.7906 C   0  0  0  0  0  0  0  0  0  0  0  0
    5.1108   18.3979   43.7998 N   0  0  0  0  0  0  0  0  0  0  0  0
    5.5325   17.9143   42.6198 C   0  0  0  0  0  0  0  0  0  0  0  0
    4.4869   17.7650   41.7955 C   0  0  0  0  0  0  0  0  0  0  0  0
    4.2854   17.3145   40.5267 C   0  0  0  0  0  0  0  0  0  0  0  0
    5.3177   16.8513   39.7810 N   0  0  0  0  0  0  0  0  0  0  0  0
    1.3633   17.2753   38.1677 H   0  0  0  0  0  0  0  0  0  0  0  0
   -0.9364   17.3134   37.2148 H   0  0  0  0  0  0  0  0  0  0  0  0
   -2.8790   17.8570   38.6710 H   0  0  0  0  0  0  0  0  0  0  0  0
   -0.2079   18.3351   42.0455 H   0  0  0  0  0  0  0  0  0  0  0  0
    3.2578   18.5790   45.7162 H   0  0  0  0  0  0  0  0  0  0  0  0
    3.3601   20.1995   44.9481 H   0  0  0  0  0  0  0  0  0  0  0  0
    2.0183   19.0852   44.5187 H   0  0  0  0  0  0  0  0  0  0  0  0
    6.5768   17.6770   42.3686 H   0  0  0  0  0  0  0  0  0  0  0  0
    6.2710   16.8411   40.1711 H   0  0  0  0  0  0  0  0  0  0  0  0
    5.1492   16.5095   38.8241 H   0  0  0  0  0  0  0  0  0  0  0  0
  1  2  2  0
  1  6  1  0
  2  3  1  0
  3  4  2  0
  4  5  1  0
  5  6  2  0
  6  7  1  0
  7  8  2  0
  7  9  1  0
  8 16  1  0
  9 10  2  0
 10 11  1  0
 10 15  1  0
 11 12  1  0
 11 13  1  0
 13 14  2  0
 14 15  1  0
 15 16  2  0
 16 17  1  0
  1 18  1  0
  2 19  1  0
  3 20  1  0
  5 21  1  0
 12 22  1  0
 12 23  1  0
 12 24  1  0
 14 25  1  0
 17 26  1  0
 17 27  1  0
M  END
>  <mol_id>  (91) 
2026-09-18-6fnk-s0-n100-r4-0091

>  <rmsd_to_ref>  (91) 
4.586734693880513

>  <pose_kind>  (91) 
rigid

$$$$
6fnk.A
     RDKit          3D

 27 29  0  0  0  0  0  0  0  0999 V2000
    0.4383   21.1840   40.3639 C   0  0  0  0  0  0  0  0  0  0  0  0
    0.0636   21.7061   39.1456 C   0  0  0  0  0  0  0  0  0  0  0  0
   -0.8201   20.9606   38.3691 C   0  0  0  0  0  0  0  0  0  0  0  0
   -1.2601   19.7799   38.8414 N   0  0  0  0  0  0  0  0  0  0  0  0
   -0.9001   19.2618   40.0294 C   0  0  0  0  0  0  0  0  0  0  0  0
   -0.0229   19.9775   40.8259 C   0  0  0  0  0  0  0  0  0  0  0  0
    0.4133   19.4726   42.1350 C   0  0  0  0  0  0  0  0  0  0  0  0
    1.2652   20.1564   42.9203 N   0  0  0  0  0  0  0  0  0  0  0  0
   -0.0802   18.2670   42.5385 N   0  0  0  0  0  0  0  0  0  0  0  0
    0.2888   17.7611   43.7295 C   0  0  0  0  0  0  0  0  0  0  0  0
   -0.0366   16.6214   44.3614 N   0  0  0  0  0  0  0  0  0  0  0  0
   -0.9324   15.5897   43.8671 C   0  0  0  0  0  0  0  0  0  0  0  0
    0.5943   16.5819   45.5218 N   0  0  0  0  0  0  0  0  0  0  0  0
    1.3433   17.6856   45.6794 C   0  0  0  0  0  0  0  0  0  0  0  0
    1.1631   18.4579   44.5408 C   0  0  0  0  0  0  0  0  0  0  0  0
    1.6627   19.6896   44.1204 C   0  0  0  0  0  0  0  0  0  0  0  0
    2.5536   20.4050   44.9412 N   0  0  0  0  0  0  0  0  0  0  0  0
    1.1333   21.7968   40.9463 H   0  0  0  0  0  0  0  0  0  0  0  0
    0.4240   22.6556   38.7773 H   0  0  0  0  0  0  0  0  0  0  0  0
   -1.1445   21.3332   37.3984 H   0  0  0  0  0  0  0  0  0  0  0  0
   -1.2881   18.3059   40.3554 H   0  0  0  0  0  0  0  0  0  0  0  0
   -0.4045   15.0261   43.0932 H   0  0  0  0  0  0  0  0  0  0  0  0
   -1.3545   14.9826   44.6870 H   0  0  0  0  0  0  0  0  0  0  0  0
   -1.7912   16.1228   43.3633 H   0  0  0  0  0  0  0  0  0  0  0  0
    1.9830   17.9525   46.5307 H   0  0  0  0  0  0  0  0  0  0  0  0
    3.5787   20.3121   44.7509 H   0  0  0  0  0  0  0  0  0  0  0  0
    2.2075   21.0228   45.7319 H   0  0  0  0  0  0  0  0  0  0  0  0
  1  2  2  0
  1  6  1  0
  2  3  1  0
  3  4  2  0
  4  5  1  0
  5  6  2  0
  6  7  1  0
  7  8  2  0
  7  9  1  0
  8 16  1  0
  9 10  2  0
 10 11  1  0
 10 15  1  0
 11 12  1  0
 11 13  1  0
 13 14  2  0
 14 15  1  0
 15 16  2  0
 16 17  1  0
  1 18  1  0
  2 19  1  0
  3 20  1  0
  5 21  1  0
 12 22  1  0
 12 23  1  0
 12 24  1  0
 14 25  1  0
 17 26  1  0
 17 27  1  0
M  END
>  <mol_id>  (92) 
2026-09-18-6fnk-s0-n100-r4-0092

>  <rmsd_to_ref>  (92) 
4.632653061228743

>  <pose_kind>  (92) 
conformer

$$$$
6fnk.A
     RDKit          3D

 27 29  0  0  0  0  0  0  0  0999 V2000
    1.3886   19.5112   38.3231 C   0  0  0  0  0  0  0  0  0  0  0  0
    2.0088   20.2108   37.2878 C   0  0  0  0  0  0  0  0  0  0  0  0
    3.3738   20.4537   37.3362 C   0  0  0  0  0  0  0  0  0  0  0  0
    4.1265   19.9939   38.4203 N   0  0  0  0  0  0  0  0  0  0  0  0
    3.4996   19.2919   39.4610 C   0  0  0  0  0  0  0  0  0  0  0  0
    2.1281   19.0489   39.4144 C   0  0  0  0  0  0  0  0  0  0  0  0
    1.5057   18.3509   40.4543 C   0  0  0  0  0  0  0  0  0  0  0  0
    0.1705   18.2571   40.5209 N   0  0  0  0  0  0  0  0  0  0  0  0
    2.2475   17.7601   41.3965 N   0  0  0  0  0  0  0  0  0  0  0  0
    1.6850   17.0876   42.4164 C   0  0  0  0  0  0  0  0  0  0  0  0
    2.2122   16.4401   43.4667 N   0  0  0  0  0  0  0  0  0  0  0  0
    3.6409   16.3009   43.7638 C   0  0  0  0  0  0  0  0  0  0  0  0
    1.3225   15.9545   44.1665 N   0  0  0  0  0  0  0  0  0  0  0  0
    0.1485   16.2391   43.5793 C   0  0  0  0  0  0  0  0  0  0  0  0
    0.3618   16.9793   42.4831 C   0  0  0  0  0  0  0  0  0  0  0  0
   -0.4043   17.5690   41.5247 C   0  0  0  0  0  0  0  0  0  0  0  0
   -1.7561   17.4818   41.5636 N   0  0  0  0  0  0  0  0  0  0  0  0
    0.3060   19.3216   38.2798 H   0  0  0  0  0  0  0  0  0  0  0  0
    1.4159   20.5696   36.4336 H   0  0  0  0  0  0  0  0  0  0  0  0
    3.8633   21.0078   36.5218 H   0  0  0  0  0  0  0  0  0  0  0  0
    4.0920   18.9325   40.3154 H   0  0  0  0  0  0  0  0  0  0  0  0
    3.8324   16.6163   44.8000 H   0  0  0  0  0  0  0  0  0  0  0  0
    3.9407   15.2499   43.6390 H   0  0  0  0  0  0  0  0  0  0  0  0
    4.2218   16.9320   43.0751 H   0  0  0  0  0  0  0  0  0  0  0  0
   -0.8375   15.9140   43.9428 H   0  0  0  0  0  0  0  0  0  0  0  0
   -2.2168   16.9601   42.3229 H   0  0  0  0  0  0  0  0  0  0  0  0
   -2.3228   17.9370   40.8338 H   0  0  0  0  0  0  0  0  0  0  0  0
  1  2  2  0
  1  6  1  0
  2  3  1  0
  3  4  2  0
  4  5  1  0
  5  6  2  0
  6  7  1  0
  7  8  2  0
  7  9  1  0
  8 16  1  0
  9 10  2  0
 10 11  1  0
 10 15  1  0
 11 12  1  0
 11 13  1  0
 13 14  2  0
 14 15  1  0
 15 16  2  0
 16 17  1  0
  1 18  1  0
  2 19  1  0
  3 20  1  0
  5 21  1  0
 12 22  1  0
 12 23  1  0
 12 24  1  0
 14 25  1  0
 17 26  1  0
 17 27  1  0
M  END
>  <mol_id>  (93) 
2026-09-18-6fnk-s0-n100-r4-0093

>  <rmsd_to_ref>  (93) 
4.678571428571611

>  <pose_kind>  (93) 
rigid

$$$$
6fnk.A
     RDKit          3D

 27 29  0  0  0  0  0  0  0  0999 V2000
    0.1515   18.1194   41.8007 C   0  0  0  0  0  0  0  0  0  0  0  0
   -0.7724   18.5527   40.8699 C   0  0  0  0  0  0  0  0  0  0  0  0
   -1.9480   19.1632   41.2932 C   0  0  0  0  0  0  0  0  0  0  0  0
   -2.2267   19.3523   42.6012 N   0  0  0  0  0  0  0  0  0  0  0  0
   -1.3355   18.9354   43.5298 C   0  0  0  0  0  0  0  0  0  0  0  0
   -0.1432   18.3180   43.1470 C   0  0  0  0  0  0  0  0  0  0  0  0
    0.8224   17.8665   44.1583 C   0  0  0  0  0  0  0  0  0  0  0  0
    1.9663   17.2750   43.8155 N   0  0  0  0  0  0  0  0  0  0  0  0
    0.5365   18.0589   45.4570 N   0  0  0  0  0  0  0  0  0  0  0  0
    1.3854   17.6659   46.4514 C   0  0  0  0  0  0  0  0  0  0  0  0
    1.3357   17.7406   47.8017 N   0  0  0  0  0  0  0  0  0  0  0  0
    0.2427   18.3204   48.5267 C   0  0  0  0  0  0  0  0  0  0  0  0
    2.4526   17.1931   48.2827 N   0  0  0  0  0  0  0  0  0  0  0  0
    3.2367   16.7585   47.2536 C   0  0  0  0  0  0  0  0  0  0  0  0
    2.5825   17.0463   46.0767 C   0  0  0  0  0  0  0  0  0  0  0  0
    2.8718   16.8509   44.7435 C   0  0  0  0  0  0  0  0  0  0  0  0
    4.0833   16.2230   44.3407 N   0  0  0  0  0  0  0  0  0  0  0  0
    1.0884   17.6344   41.5041 H   0  0  0  0  0  0  0  0  0  0  0  0
   -0.5627   18.4074   39.8020 H   0  0  0  0  0  0  0  0  0  0  0  0
   -2.6781   19.5061   40.5705 H   0  0  0  0  0  0  0  0  0  0  0  0
   -1.5428   19.0796   44.6004 H   0  0  0  0  0  0  0  0  0  0  0  0
    0.5384   18.4327   49.5937 H   0  0  0  0  0  0  0  0  0  0  0  0
   -0.6491   17.6516   48.4800 H   0  0  0  0  0  0  0  0  0  0  0  0
    0.0159   19.3262   48.1167 H   0  0  0  0  0  0  0  0  0  0  0  0
    4.1935   16.2771   47.3292 H   0  0  0  0  0  0  0  0  0  0  0  0
    4.1239   15.3155   43.8259 H   0  0  0  0  0  0  0  0  0  0  0  0
    4.9759   16.7080   44.5797 H   0  0  0  0  0  0  0  0  0  0  0  0
  1  2  2  0
  1  6  1  0
  2  3  1  0
  3  4  2  0
  4  5  1  0
  5  6  2  0
  6  7  1  0
  7  8  2  0
  7  9  1  0
  8 16  1  0
  9 10  2  0
 10 11  1  0
 10 15  1  0
 11 12  1  0
 11 13  1  0
 13 14  2  0
 14 15  1  0
 15 16  2  0
 16 17  1  0
  1 18  1  0
  2 19  1  0
  3 20  1  0
  5 21  1  0
 12 22  1  0
 12 23  1  0
 12 24  1  0
 14 25  1  0
 17 26  1  0
 17 27  1  0
M  END
>  <mol_id>  (94) 
2026-09-18-6fnk-s0-n100-r4-0094

>  <rmsd_to_ref>  (94) 
4.72448979592109

>  <pose_kind>  (94) 
conformer

$$$$
6fnk.A
     RDKit          3D

 27 29  0  0  0  0  0  0  0  0999 V2000
    0.9610   17.7176   39.7701 C   0  0  0  0  0  0  0  0  0  0  0  0
    0.7721   17.9854   38.4142 C   0  0  0  0  0  0  0  0  0  0  0  0
    1.7927   17.7324   37.5094 C   0  0  0  0  0  0  0  0  0  0  0  0
    3.0076   17.2059   37.9568 N   0  0  0  0  0  0  0  0  0  0  0  0
    3.1952   16.9390   39.3215 C   0  0  0  0  0  0  0  0  0  0  0  0
    2.1713   17.1946   40.2318 C   0  0  0  0  0  0  0  0  0  0  0  0
    2.3621   16.9297   41.5918 C   0  0  0  0  0  0  0  0  0  0  0  0
    1.4655   17.3272   42.5051 N   0  0  0  0  0  0  0  0  0  0  0  0
    3.4498   16.2647   41.9938 N   0  0  0  0  0  0  0  0  0  0  0  0
    3.6721   15.9991   43.2934 C   0  0  0  0  0  0  0  0  0  0  0  0
    4.6778   15.3744   43.9248 N   0  0  0  0  0  0  0  0  0  0  0  0
    5.8593   14.7841   43.2888 C   0  0  0  0  0  0  0  0  0  0  0  0
    4.4762   15.3486   45.1396 N   0  0  0  0  0  0  0  0  0  0  0  0
    3.2903   15.9385   45.3631 C   0  0  0  0  0  0  0  0  0  0  0  0
    2.7818   16.3790   44.2045 C   0  0  0  0  0  0  0  0  0  0  0  0
    1.6656   17.0492   43.8066 C   0  0  0  0  0  0  0  0  0  0  0  0
    0.7391   17.4543   44.7087 N   0  0  0  0  0  0  0  0  0  0  0  0
    0.1484   17.9203   40.4833 H   0  0  0  0  0  0  0  0  0  0  0  0
   -0.1856   18.3969   38.0627 H   0  0  0  0  0  0  0  0  0  0  0  0
    1.6459   17.9459   36.4403 H   0  0  0  0  0  0  0  0  0  0  0  0
    4.1525   16.5272   39.6737 H   0  0  0  0  0  0  0  0  0  0  0  0
    6.7679   15.1646   43.7783 H   0  0  0  0  0  0  0  0  0  0  0  0
    5.8205   13.6892   43.3879 H   0  0  0  0  0  0  0  0  0  0  0  0
    5.8760   15.0554   42.2229 H   0  0  0  0  0  0  0  0  0  0  0  0
    2.8101   16.0439   46.3471 H   0  0  0  0  0  0  0  0  0  0  0  0
    0.8722   17.2522   45.7099 H   0  0  0  0  0  0  0  0  0  0  0  0
   -0.0983   17.9645   44.3932 H   0  0  0  0  0  0  0  0  0  0  0  0
  1  2  2  0
  1  6  1  0
  2  3  1  0
  3  4  2  0
  4  5  1  0
  5  6  2  0
  6  7  1  0
  7  8  2  0
  7  9  1  0
  8 16  1  0
  9 10  2  0
 10 11  1  0
 10 15  1  0
 11 12  1  0
 11 13  1  0
 13 14  2  0
 14 15  1  0
 15 16  2  0
 16 17  1  0
  1 18  1  0
  2 19  1  0
  3 20  1  0
  5 21  1  0
 12 22  1  0
 12 23  1  0
 12 24  1  0
 14 25  1  0
 17 26  1  0
 17 27  1  0
M  END
>  <mol_id>  (95) 
2026-09-18-6fnk-s0-n100-r4-0095

>  <rmsd_to_ref>  (95) 
4.770408163269303

>  <pose_kind>  (95) 
rigid

$$$$
6fnk.A
     RDKit          3D

 27 29  0  0  0  0  0  0  0  0999 V2000
    2.0537   14.2597   45.2383 C   0  0  0  0  0  0  0  0  0  0  0  0
    1.8236   13.9830   46.5700 C   0  0  0  0  0  0  0  0  0  0  0  0
    1.0721   14.8232   47.3656 C   0  0  0  0  0  0  0  0  0  0  0  0
    0.5357   15.9609   46.8374 N   0  0  0  0  0  0  0  0  0  0  0  0
    0.7359   16.2746   45.5303 C   0  0  0  0  0  0  0  0  0  0  0  0
    1.4963   15.4282   44.7175 C   0  0  0  0  0  0  0  0  0  0  0  0
    1.7275   15.7452   43.3001 C   0  0  0  0  0  0  0  0  0  0  0  0
    2.4622   14.9214   42.5273 N   0  0  0  0  0  0  0  0  0  0  0  0
    1.1802   16.8809   42.8121 N   0  0  0  0  0  0  0  0  0  0  0  0
    1.3525   17.2302   41.5255 C   0  0  0  0  0  0  0  0  0  0  0  0
    0.9477   18.2726   40.7520 N   0  0  0  0  0  0  0  0  0  0  0  0
    0.1317   19.3899   41.1982 C   0  0  0  0  0  0  0  0  0  0  0  0
    1.4211   18.0993   39.5259 N   0  0  0  0  0  0  0  0  0  0  0  0
    2.1430   16.9449   39.4695 C   0  0  0  0  0  0  0  0  0  0  0  0
    2.0972   16.3996   40.7331 C   0  0  0  0  0  0  0  0  0  0  0  0
    2.6494   15.2456   41.2423 C   0  0  0  0  0  0  0  0  0  0  0  0
    3.4285   14.3629   40.4414 N   0  0  0  0  0  0  0  0  0  0  0  0
    2.6427   13.5796   44.6586 H   0  0  0  0  0  0  0  0  0  0  0  0
    2.2634   13.0647   46.9733 H   0  0  0  0  0  0  0  0  0  0  0  0
    0.9081   14.5725   48.4237 H   0  0  0  0  0  0  0  0  0  0  0  0
    0.2984   17.1933   45.1182 H   0  0  0  0  0  0  0  0  0  0  0  0
   -0.6618   19.6480   40.4856 H   0  0  0  0  0  0  0  0  0  0  0  0
   -0.3796   19.0933   42.1530 H   0  0  0  0  0  0  0  0  0  0  0  0
    0.8015   20.2362   41.4548 H   0  0  0  0  0  0  0  0  0  0  0  0
    2.6325   16.5764   38.5872 H   0  0  0  0  0  0  0  0  0  0  0  0
    2.9920   13.5643   39.9266 H   0  0  0  0  0  0  0  0  0  0  0  0
    4.4572   14.5307   40.3776 H   0  0  0  0  0  0  0  0  0  0  0  0
  1  2  2  0
  1  6  1  0
  2  3  1  0
  3  4  2  0
  4  5  1  0
  5  6  2  0
  6  7  1  0
  7  8  2  0
  7  9  1  0
  8 16  1  0
  9 10  2  0
 10 11  1  0
 10 15  1  0
 11 12  1  0
 11 13  1  0
 13 14  2  0
 14 15  1  0
 15 16  2  0
 16 17  1  0
  1 18  1  0
  2 19  1  0
  3 20  1  0
  5 21  1  0
 12 22  1  0
 12 23  1  0
 12 24  1  0
 14 25  1  0
 17 26  1  0
 17 27  1  0
M  END
>  <mol_id>  (96) 
2026-09-18-6fnk-s0-n100-r4-0096

>  <rmsd_to_ref>  (96) 
4.816326530612393

>  <pose_kind>  (96) 
conformer

$$$$
6fnk.A
     RDKit          3D

 27 29  0  0  0  0  0  0  0  0999 V2000
    2.6685   17.6150   44.1464 C   0  0  0  0  0  0  0  0  0  0  0  0
    2.8775   16.5583   45.0328 C   0  0  0  0  0  0  0  0  0  0  0  0
    3.9515   15.7001   44.8468 C   0  0  0  0  0  0  0  0  0  0  0  0
    4.8248   15.8975   43.7737 N   0  0  0  0  0  0  0  0  0  0  0  0
    4.6112   16.9603   42.8829 C   0  0  0  0  0  0  0  0  0  0  0  0
    3.5315   17.8220   43.0676 C   0  0  0  0  0  0  0  0  0  0  0  0
    3.3198   18.8791   42.1767 C   0  0  0  0  0  0  0  0  0  0  0  0
    2.1984   19.6112   42.2279 N   0  0  0  0  0  0  0  0  0  0  0  0
    4.2484   19.1738   41.2613 N   0  0  0  0  0  0  0  0  0  0  0  0
    4.0767   20.1771   40.3823 C   0  0  0  0  0  0  0  0  0  0  0  0
    4.8446   20.6401   39.3842 N   0  0  0  0  0  0  0  0  0  0  0  0
    6.1584   20.1186   38.9955 C   0  0  0  0  0  0  0  0  0  0  0  0
    4.2985   21.5913   38.8236 N   0  0  0  0  0  0  0  0  0  0  0  0
    3.1387   21.8215   39.4607 C   0  0  0  0  0  0  0  0  0  0  0  0
    2.9729   20.9161   40.4342 C   0  0  0  0  0  0  0  0  0  0  0  0
    2.0236   20.6314   41.3676 C   0  0  0  0  0  0  0  0  0  0  0  0
    0.8849   21.3617   41.4466 N   0  0  0  0  0  0  0  0  0  0  0  0
    1.8152   18.2923   44.2985 H   0  0  0  0  0  0  0  0  0  0  0  0
    2.1912   16.4056   45.8788 H   0  0  0  0  0  0  0  0  0  0  0  0
    4.1155   14.8648   45.5434 H   0  0  0  0  0  0  0  0  0  0  0  0
    5.2973   17.1138   42.0368 H   0  0  0  0  0  0  0  0  0  0  0  0
    6.1646   19.9083   37.9158 H   0  0  0  0  0  0  0  0  0  0  0  0
    6.9325   20.8647   39.2282 H   0  0  0  0  0  0  0  0  0  0  0  0
    6.3638   19.1916   39.5509 H   0  0  0  0  0  0  0  0  0  0  0  0
    2.4327   22.6301   39.2200 H   0  0  0  0  0  0  0  0  0  0  0  0
    0.7305   22.1469   40.7981 H   0  0  0  0  0  0  0  0  0  0  0  0
    0.1736   21.1316   42.1552 H   0  0  0  0  0  0  0  0  0  0  0  0
  1  2  2  0
  1  6  1  0
  2  3  1  0
  3  4  2  0
  4  5  1  0
  5  6  2  0
  6  7  1  0
  7  8  2  0
  7  9  1  0
  8 16  1  0
  9 10  2  0
 10 11  1  0
 10 15  1  0
 11 12  1  0
 11 13  1  0
 13 14  2  0
 14 15  1  0
 15 16  2  0
 16 17  1  0
  1 18  1  0
  2 19  1  0
  3 20  1  0
  5 21  1  0
 12 22  1  0
 12 23  1  0
 12 24  1  0
 14 25  1  0
 17 26  1  0
 17 27  1  0
M  END
>  <mol_id>  (97) 
2026-09-18-6fnk-s0-n100-r4-0097

>  <rmsd_to_ref>  (97) 
4.862244897961232

>  <pose_kind>  (97) 
rigid

$$$$
6fnk.A
     RDKit          3D

 27 29  0  0  0  0  0  0  0  0999 V2000
    3.1855   17.4016   41.9194 C   0  0  0  0  0  0  0  0  0  0  0  0
    4.0219   16.9433   42.9301 C   0  0  0  0  0  0  0  0  0  0  0  0
    3.9065   17.5676   44.1598 C   0  0  0  0  0  0  0  0  0  0  0  0
    3.0233   18.5693   44.3557 N   0  0  0  0  0  0  0  0  0  0  0  0
    2.2243   19.0038   43.3820 C   0  0  0  0  0  0  0  0  0  0  0  0
    2.2870   18.4264   42.1327 C   0  0  0  0  0  0  0  0  0  0  0  0
    1.4274   18.8778   41.0463 C   0  0  0  0  0  0  0  0  0  0  0  0
    0.5496   19.8754   41.2461 N   0  0  0  0  0  0  0  0  0  0  0  0
    1.5016   18.3081   39.8451 N   0  0  0  0  0  0  0  0  0  0  0  0
    0.7262   18.6882   38.7989 C   0  0  0  0  0  0  0  0  0  0  0  0
    0.6137   18.2792   37.5147 N   0  0  0  0  0  0  0  0  0  0  0  0
    1.4390   17.2012   36.9852 C   0  0  0  0  0  0  0  0  0  0  0  0
   -0.3107   18.9946   36.9073 N   0  0  0  0  0  0  0  0  0  0  0  0
   -0.8322   19.8959   37.7792 C   0  0  0  0  0  0  0  0  0  0  0  0
   -0.1809   19.7151   38.9956 C   0  0  0  0  0  0  0  0  0  0  0  0
   -0.2597   20.3073   40.2399 C   0  0  0  0  0  0  0  0  0  0  0  0
   -1.1978   21.3611   40.4233 N   0  0  0  0  0  0  0  0  0  0  0  0
    3.2359   16.9417   40.9257 H   0  0  0  0  0  0  0  0  0  0  0  0
    4.7026   16.1465   42.7187 H   0  0  0  0  0  0  0  0  0  0  0  0
    4.5637   17.2026   44.9417 H   0  0  0  0  0  0  0  0  0  0  0  0
    1.5389   19.8078   43.5991 H   0  0  0  0  0  0  0  0  0  0  0  0
    0.9120   16.6734   36.1556 H   0  0  0  0  0  0  0  0  0  0  0  0
    1.6209   16.4177   37.7635 H   0  0  0  0  0  0  0  0  0  0  0  0
    2.4056   17.6361   36.6955 H   0  0  0  0  0  0  0  0  0  0  0  0
   -1.6093   20.6272   37.5853 H   0  0  0  0  0  0  0  0  0  0  0  0
   -1.4826   21.9596   39.6192 H   0  0  0  0  0  0  0  0  0  0  0  0
   -1.6409   21.5892   41.3423 H   0  0  0  0  0  0  0  0  0  0  0  0
  1  2  2  0
  1  6  1  0
  2  3  1  0
  3  4  2  0
  4  5  1  0
  5  6  2  0
  6  7  1  0
  7  8  2  0
  7  9  1  0
  8 16  1  0
  9 10  2  0
 10 11  1  0
 10 15  1  0
 11 12  1  0
 11 13  1  0
 13 14  2  0
 14 15  1  0
 15 16  2  0
 16 17  1  0
  1 18  1  0
  2 19  1  0
  3 20  1  0
  5 21  1  0
 12 22  1  0
 12 23  1  0
 12 24  1  0
 14 25  1  0
 17 26  1  0
 17 27  1  0
M  END
>  <mol_id>  (98) 
2026-09-18-6fnk-s0-n100-r4-0098

>  <rmsd_to_ref>  (98) 
4.908163265306582

>  <pose_kind>  (98) 
conformer

$$$$
6fnk.A
     RDKit          3D

 27 29  0  0  0  0  0  0  0  0999 V2000
   -2.3289   16.7634   42.1917 C   0  0  0  0  0  0  0  0  0  0  0  0
   -3.0331   15.8328   42.9559 C   0  0  0  0  0  0  0  0  0  0  0  0
   -2.4897   14.5789   43.1944 C   0  0  0  0  0  0  0  0  0  0  0  0
   -1.2356   14.2509   42.6719 N   0  0  0  0  0  0  0  0  0  0  0  0
   -0.5303   15.1885   41.9023 C   0  0  0  0  0  0  0  0  0  0  0  0
   -1.0760   16.4478   41.6604 C   0  0  0  0  0  0  0  0  0  0  0  0
   -0.3716   17.3794   40.8910 C   0  0  0  0  0  0  0  0  0  0  0  0
   -0.9451   18.5253   40.4983 N   0  0  0  0  0  0  0  0  0  0  0  0
    0.8955   17.1330   40.5434 N   0  0  0  0  0  0  0  0  0  0  0  0
    1.6020   18.0005   39.7971 C   0  0  0  0  0  0  0  0  0  0  0  0
    2.8558   17.9644   39.3206 N   0  0  0  0  0  0  0  0  0  0  0  0
    3.8245   16.8837   39.5270 C   0  0  0  0  0  0  0  0  0  0  0  0
    3.1036   18.9850   38.6771 N   0  0  0  0  0  0  0  0  0  0  0  0
    2.0135   19.7679   38.7293 C   0  0  0  0  0  0  0  0  0  0  0  0
    1.0449   19.1451   39.4139 C   0  0  0  0  0  0  0  0  0  0  0  0
   -0.2421   19.4115   39.7690 C   0  0  0  0  0  0  0  0  0  0  0  0
   -0.8425   20.5666   39.3927 N   0  0  0  0  0  0  0  0  0  0  0  0
   -2.7646   17.7561   42.0055 H   0  0  0  0  0  0  0  0  0  0  0  0
   -4.0188   16.0931   43.3691 H   0  0  0  0  0  0  0  0  0  0  0  0
   -3.0455   13.8433   43.7944 H   0  0  0  0  0  0  0  0  0  0  0  0
    0.4555   14.9289   41.4890 H   0  0  0  0  0  0  0  0  0  0  0  0
    4.2320   16.5661   38.5558 H   0  0  0  0  0  0  0  0  0  0  0  0
    4.6430   17.2425   40.1683 H   0  0  0  0  0  0  0  0  0  0  0  0
    3.3256   16.0316   40.0117 H   0  0  0  0  0  0  0  0  0  0  0  0
    1.9290   20.7679   38.2788 H   0  0  0  0  0  0  0  0  0  0  0  0
   -0.3231   21.2588   38.8342 H   0  0  0  0  0  0  0  0  0  0  0  0
   -1.8183   20.7523   39.6651 H   0  0  0  0  0  0  0  0  0  0  0  0
  1  2  2  0
  1  6  1  0
  2  3  1  0
  3  4  2  0
  4  5  1  0
  5  6  2  0
  6  7  1  0
  7  8  2  0
  7  9  1  0
  8 16  1  0
  9 10  2  0
 10 11  1  0
 10 15  1  0
 11 12  1  0
 11 13  1  0
 13 14  2  0
 14 15  1  0
 15 16  2  0
 16 17  1  0
  1 18  1  0
  2 19  1  0
  3 20  1  0
  5 21  1  0
 12 22  1  0
 12 23  1  0
 12 24  1  0
 14 25  1  0
 17 26  1  0
 17 27  1  0
M  END
>  <mol_id>  (99) 
2026-09-18-6fnk-s0-n100-r4-0099

>  <rmsd_to_ref>  (99) 
4.954081632655723

>  <pose_kind>  (99) 
rigid

$$$$
6fnk.A
     RDKit          3D

 27 29  0  0  0  0  0  0  0  0999 V2000
    2.3949   19.8467   47.3544 C   0  0  0  0  0  0  0  0  0  0  0  0
    2.9468   19.6076   48.5967 C   0  0  0  0  0  0  0  0  0  0  0  0
    3.3891   18.3145   48.8827 C   0  0  0  0  0  0  0  0  0  0  0  0
    3.2778   17.3279   47.9654 N   0  0  0  0  0  0  0  0  0  0  0  0
    2.7392   17.5524   46.7475 C   0  0  0  0  0  0  0  0  0  0  0  0
    2.2894   18.8277   46.4310 C   0  0  0  0  0  0  0  0  0  0  0  0
    1.7016   19.0906   45.1132 C   0  0  0  0  0  0  0  0  0  0  0  0
    1.2508   20.3290   44.7704 N   0  0  0  0  0  0  0  0  0  0  0  0
    1.6039   18.0928   44.2230 N   0  0  0  0  0  0  0  0  0  0  0  0
    1.0761   18.2388   42.9818 C   0  0  0  0  0  0  0  0  0  0  0  0
    0.8811   17.4196   41.9606 N   0  0  0  0  0  0  0  0  0  0  0  0
    1.2348   16.0170   41.9519 C   0  0  0  0  0  0  0  0  0  0  0  0
    0.3187   18.1185   40.9880 N   0  0  0  0  0  0  0  0  0  0  0  0
    0.1367   19.3836   41.3427 C   0  0  0  0  0  0  0  0  0  0  0  0
    0.6141   19.5049   42.6287 C   0  0  0  0  0  0  0  0  0  0  0  0
    0.7079   20.5466   43.5371 C   0  0  0  0  0  0  0  0  0  0  0  0
    0.2382   21.8463   43.1860 N   0  0  0  0  0  0  0  0  0  0  0  0
    2.0457   20.8655   47.1274 H   0  0  0  0  0  0  0  0  0  0  0  0
    3.0257   20.4128   49.3149 H   0  0  0  0  0  0  0  0  0  0  0  0
    3.8163   18.1625   49.8655 H   0  0  0  0  0  0  0  0  0  0  0  0
    2.6353   16.7886   45.9923 H   0  0  0  0  0  0  0  0  0  0  0  0
    1.2117   15.5822   42.9866 H   0  0  0  0  0  0  0  0  0  0  0  0
    0.4897   15.3873   41.3847 H   0  0  0  0  0  0  0  0  0  0  0  0
    2.1958   15.8122   41.4317 H   0  0  0  0  0  0  0  0  0  0  0  0
   -0.2889   20.2231   40.8066 H   0  0  0  0  0  0  0  0  0  0  0  0
   -0.7903   22.0517   43.1420 H   0  0  0  0  0  0  0  0  0  0  0  0
    0.9712   22.5601   42.9812 H   0  0  0  0  0  0  0  0  0  0  0  0
  1  2  2  0
  1  6  1  0
  2  3  1  0
  3  4  2  0
  4  5  1  0
  5  6  2  0
  6  7  1  0
  7  8  2  0
  7  9  1  0
  8 16  1  0
  9 10  2  0
 10 11  1  0
 10 15  1  0
 11 12  1  0
 11 13  1  0
 13 14  2  0
 14 15  1  0
 15 16  2  0
 16 17  1  0
  1 18  1  0
  2 19  1  0
  3 20  1  0
  5 21  1  0
 12 22  1  0
 12 23  1  0
 12 24  1  0
 14 25  1  0
 17 26  1  0
 17 27  1  0
M  END
>  <mol_id>  (100) 
2026-09-18-6fnk-s0-n100-r4-0100

>  <rmsd_to_ref>  (100) 
5.000000000000263

>  <pose_kind>  (100) 
conformer

$$$$
