6tgu.A
     RDKit          3D

 32 34  0  0  0  0  0  0  0  0999 V2000
    3.2704   20.0816   36.9100 C   0  0  0  0  0  0  0  0  0  0  0  0
    2.7239   19.8375   38.3194 C   0  0  0  0  0  0  0  0  0  0  0  0
    1.9745   20.8172   38.9669 C   0  0  0  0  0  0  0  0  0  0  0  0
    1.3019   20.5646   40.1670 C   0  0  0  0  0  0  0  0  0  0  0  0
    1.5079   19.3565   40.8488 C   0  0  0  0  0  0  0  0  0  0  0  0
    0.4444   17.8615   42.6087 C   0  0  0  0  0  0  0  0  0  0  0  0
    0.4288   15.6073   42.9153 C   0  0  0  0  0  0  0  0  0  0  0  0
    0.8553   14.2304   42.6635 C   0  0  0  0  0  0  0  0  0  0  0  0
    0.2328   13.1351   43.2790 C   0  0  0  0  0  0  0  0  0  0  0  0
    0.6322   11.8319   42.9995 C   0  0  0  0  0  0  0  0  0  0  0  0
    1.6306   11.6302   42.0652 C   0  0  0  0  0  0  0  0  0  0  0  0
    2.2690   12.6840   41.4288 C   0  0  0  0  0  0  0  0  0  0  0  0
    1.8629   13.9810   41.7304 C   0  0  0  0  0  0  0  0  0  0  0  0
   -0.5843   15.9508   43.7709 C   0  0  0  0  0  0  0  0  0  0  0  0
    2.2504   18.3557   40.2060 C   0  0  0  0  0  0  0  0  0  0  0  0
    2.8437   18.6148   38.9691 C   0  0  0  0  0  0  0  0  0  0  0  0
    0.7803   19.0569   42.0413 N   0  0  0  0  0  0  0  0  0  0  0  0
    0.9791   16.6716   42.1626 N   0  0  0  0  0  0  0  0  0  0  0  0
    2.8674   21.1275   36.3211 O   0  0  0  0  0  0  0  0  0  0  0  0
    4.0035   19.1925   36.4244 O   0  0  0  0  0  0  0  0  0  0  0  0
    3.4800   17.5959   38.3007 O   0  0  0  0  0  0  0  0  0  0  0  0
   -0.9334   17.6347   43.6687 S   0  0  0  0  0  0  0  0  0  0  0  0
    2.1103   10.0114   41.6767 Cl  0  0  0  0  0  0  0  0  0  0  0  0
    1.9097   21.8205   38.5206 H   0  0  0  0  0  0  0  0  0  0  0  0
    0.6099   21.3151   40.5769 H   0  0  0  0  0  0  0  0  0  0  0  0
   -0.5845   13.3089   43.9944 H   0  0  0  0  0  0  0  0  0  0  0  0
    0.1628   10.9792   43.5119 H   0  0  0  0  0  0  0  0  0  0  0  0
    3.0758   12.4998   40.7041 H   0  0  0  0  0  0  0  0  0  0  0  0
    2.3468   14.8280   41.2221 H   0  0  0  0  0  0  0  0  0  0  0  0
   -1.1055   15.2454   44.4348 H   0  0  0  0  0  0  0  0  0  0  0  0
    2.3653   17.3677   40.6757 H   0  0  0  0  0  0  0  0  0  0  0  0
    0.4535   19.8836   42.5615 H   0  0  0  0  0  0  0  0  0  0  0  0
  1  2  1  0
  1 19  1  0
  1 20  2  0
  2  3  1  0
  2 16  2  0
  3  4  2  0
  4  5  1  0
  5 15  2  0
  5 17  1  0
  6 17  1  0
  6 18  2  0
  6 22  1  0
  7  8  1  0
  7 14  2  0
  7 18  1  0
  8  9  1  0
  8 13  2  0
  9 10  2  0
 10 11  1  0
 11 12  2  0
 11 23  1  0
 12 13  1  0
 14 22  1  0
 15 16  1  0
 16 21  1  0
  3 24  1  0
  4 25  1  0
  9 26  1  0
 10 27  1  0
 12 28  1  0
 13 29  1  0
 14 30  1  0
 15 31  1  0
 17 32  1  0
M  CHG  2  19  -1  21  -1
M  END
>  <mol_id>  (1) 
2026-08-23-6tgu-s0-n100-r4-0001

>  <rmsd_to_ref>  (1) 
0.0

$$$$
6tgu.A
     RDKit          3D

 32 34  0  0  0  0  0  0  0  0999 V2000
    2.8042   20.1370   36.8918 C   0  0  0  0  0  0  0  0  0  0  0  0
    2.1816   19.8479   38.1760 C   0  0  0  0  0  0  0  0  0  0  0  0
    1.5707   20.8532   38.8904 C   0  0  0  0  0  0  0  0  0  0  0  0
    0.9854   20.5714   40.1019 C   0  0  0  0  0  0  0  0  0  0  0  0
    0.9823   19.2842   40.6526 C   0  0  0  0  0  0  0  0  0  0  0  0
    0.3675   17.7446   42.4536 C   0  0  0  0  0  0  0  0  0  0  0  0
    0.5609   15.5686   43.0172 C   0  0  0  0  0  0  0  0  0  0  0  0
    1.0472   14.2359   42.6760 C   0  0  0  0  0  0  0  0  0  0  0  0
    0.8347   13.1646   43.5276 C   0  0  0  0  0  0  0  0  0  0  0  0
    1.2900   11.9034   43.2139 C   0  0  0  0  0  0  0  0  0  0  0  0
    1.9758   11.6470   42.0432 C   0  0  0  0  0  0  0  0  0  0  0  0
    2.1949   12.7017   41.1861 C   0  0  0  0  0  0  0  0  0  0  0  0
    1.7345   13.9585   41.5112 C   0  0  0  0  0  0  0  0  0  0  0  0
   -0.1430   15.8226   44.2229 C   0  0  0  0  0  0  0  0  0  0  0  0
    1.6049   18.3084   39.9039 C   0  0  0  0  0  0  0  0  0  0  0  0
    2.2036   18.5658   38.6777 C   0  0  0  0  0  0  0  0  0  0  0  0
    0.3717   19.0501   41.8911 N   0  0  0  0  0  0  0  0  0  0  0  0
    0.7034   16.6509   42.2913 N   0  0  0  0  0  0  0  0  0  0  0  0
    3.4213   19.1259   36.1682 O   0  0  0  0  0  0  0  0  0  0  0  0
    2.7798   21.3297   36.4326 O   0  0  0  0  0  0  0  0  0  0  0  0
    2.8216   17.5719   37.9452 O   0  0  0  0  0  0  0  0  0  0  0  0
   -0.4977   17.5817   44.1376 S   0  0  0  0  0  0  0  0  0  0  0  0
    2.5579   10.0475   41.6365 Cl  0  0  0  0  0  0  0  0  0  0  0  0
    1.5630   21.8625   38.4775 H   0  0  0  0  0  0  0  0  0  0  0  0
    0.5036   21.3796   40.6589 H   0  0  0  0  0  0  0  0  0  0  0  0
    0.3063   13.2913   44.4599 H   0  0  0  0  0  0  0  0  0  0  0  0
    1.1171   11.0776   43.8874 H   0  0  0  0  0  0  0  0  0  0  0  0
    2.7354   12.5476   40.2429 H   0  0  0  0  0  0  0  0  0  0  0  0
    1.9050   14.7928   40.8385 H   0  0  0  0  0  0  0  0  0  0  0  0
   -0.4077   15.1440   45.0053 H   0  0  0  0  0  0  0  0  0  0  0  0
    1.6494   17.2980   40.2485 H   0  0  0  0  0  0  0  0  0  0  0  0
   -0.0761   19.8832   42.3725 H   0  0  0  0  0  0  0  0  0  0  0  0
  1  2  1  0
  1 19  1  0
  1 20  2  0
  2  3  1  0
  2 16  2  0
  3  4  2  0
  4  5  1  0
  5 15  2  0
  5 17  1  0
  6 17  1  0
  6 18  2  0
  6 22  1  0
  7  8  1  0
  7 14  2  0
  7 18  1  0
  8  9  1  0
  8 13  2  0
  9 10  2  0
 10 11  1  0
 11 12  2  0
 11 23  1  0
 12 13  1  0
 14 22  1  0
 15 16  1  0
 16 21  1  0
  3 24  1  0
  4 25  1  0
  9 26  1  0
 10 27  1  0
 12 28  1  0
 13 29  1  0
 14 30  1  0
 15 31  1  0
 17 32  1  0
M  CHG  2  19  -1  21  -1
M  END
>  <mol_id>  (2) 
2026-08-23-6tgu-s0-n100-r4-0002

>  <rmsd_to_ref>  (2) 
0.5000000000023628

$$$$
6tgu.A
     RDKit          3D

 32 34  0  0  0  0  0  0  0  0999 V2000
    3.9493   20.4067   37.4242 C   0  0  0  0  0  0  0  0  0  0  0  0
    3.1351   20.1159   38.6879 C   0  0  0  0  0  0  0  0  0  0  0  0
    2.2378   21.0592   39.1838 C   0  0  0  0  0  0  0  0  0  0  0  0
    1.3431   20.7609   40.2168 C   0  0  0  0  0  0  0  0  0  0  0  0
    1.4451   19.5445   40.9072 C   0  0  0  0  0  0  0  0  0  0  0  0
    0.0943   17.9811   42.3887 C   0  0  0  0  0  0  0  0  0  0  0  0
    0.0902   15.7212   42.6501 C   0  0  0  0  0  0  0  0  0  0  0  0
    0.6038   14.3630   42.4693 C   0  0  0  0  0  0  0  0  0  0  0  0
   -0.0951   13.2369   42.9272 C   0  0  0  0  0  0  0  0  0  0  0  0
    0.3953   11.9522   42.7149 C   0  0  0  0  0  0  0  0  0  0  0  0
    1.5693   11.8000   42.0015 C   0  0  0  0  0  0  0  0  0  0  0  0
    2.2894   12.8855   41.5258 C   0  0  0  0  0  0  0  0  0  0  0  0
    1.7881   14.1633   41.7583 C   0  0  0  0  0  0  0  0  0  0  0  0
   -1.0868   16.0164   43.2857 C   0  0  0  0  0  0  0  0  0  0  0  0
    2.3353   18.5799   40.4143 C   0  0  0  0  0  0  0  0  0  0  0  0
    3.1597   18.8832   39.3291 C   0  0  0  0  0  0  0  0  0  0  0  0
    0.4997   19.1979   41.9208 N   0  0  0  0  0  0  0  0  0  0  0  0
    0.7474   16.8172   42.0427 N   0  0  0  0  0  0  0  0  0  0  0  0
    3.6409   21.4533   36.7818 O   0  0  0  0  0  0  0  0  0  0  0  0
    4.7947   19.5499   37.0849 O   0  0  0  0  0  0  0  0  0  0  0  0
    3.9519   17.8980   38.7891 O   0  0  0  0  0  0  0  0  0  0  0  0
   -1.4625   17.6914   43.1407 S   0  0  0  0  0  0  0  0  0  0  0  0
    2.1708   10.2046   41.6940 Cl  0  0  0  0  0  0  0  0  0  0  0  0
    2.2326   22.0698   38.7494 H   0  0  0  0  0  0  0  0  0  0  0  0
    0.5580   21.4820   40.4882 H   0  0  0  0  0  0  0  0  0  0  0  0
   -1.0463   13.3714   43.4629 H   0  0  0  0  0  0  0  0  0  0  0  0
   -0.1407   11.0753   43.1069 H   0  0  0  0  0  0  0  0  0  0  0  0
    3.2326   12.7406   40.9786 H   0  0  0  0  0  0  0  0  0  0  0  0
    2.3376   15.0349   41.3731 H   0  0  0  0  0  0  0  0  0  0  0  0
   -1.7092   15.2819   43.8178 H   0  0  0  0  0  0  0  0  0  0  0  0
    2.3842   17.5855   40.8820 H   0  0  0  0  0  0  0  0  0  0  0  0
    0.0468   20.0032   42.3761 H   0  0  0  0  0  0  0  0  0  0  0  0
  1  2  1  0
  1 19  1  0
  1 20  2  0
  2  3  1  0
  2 16  2  0
  3  4  2  0
  4  5  1  0
  5 15  2  0
  5 17  1  0
  6 17  1  0
  6 18  2  0
  6 22  1  0
  7  8  1  0
  7 14  2  0
  7 18  1  0
  8  9  1  0
  8 13  2  0
  9 10  2  0
 10 11  1  0
 11 12  2  0
 11 23  1  0
 12 13  1  0
 14 22  1  0
 15 16  1  0
 16 21  1  0
  3 24  1  0
  4 25  1  0
  9 26  1  0
 10 27  1  0
 12 28  1  0
 13 29  1  0
 14 30  1  0
 15 31  1  0
 17 32  1  0
M  CHG  2  19  -1  21  -1
M  END
>  <mol_id>  (3) 
2026-08-23-6tgu-s0-n100-r4-0003

>  <rmsd_to_ref>  (3) 
0.5459183673497238

$$$$
6tgu.A
     RDKit          3D

 32 34  0  0  0  0  0  0  0  0999 V2000
    3.2430   20.5526   37.4369 C   0  0  0  0  0  0  0  0  0  0  0  0
    2.3964   20.1325   38.5447 C   0  0  0  0  0  0  0  0  0  0  0  0
    1.5593   21.0370   39.1572 C   0  0  0  0  0  0  0  0  0  0  0  0
    0.7635   20.6318   40.2023 C   0  0  0  0  0  0  0  0  0  0  0  0
    0.7657   19.3162   40.6811 C   0  0  0  0  0  0  0  0  0  0  0  0
   -0.0644   17.6200   42.2386 C   0  0  0  0  0  0  0  0  0  0  0  0
    0.2093   15.4355   42.7317 C   0  0  0  0  0  0  0  0  0  0  0  0
    0.8779   14.1713   42.4422 C   0  0  0  0  0  0  0  0  0  0  0  0
    0.5936   13.0341   43.1799 C   0  0  0  0  0  0  0  0  0  0  0  0
    1.2197   11.8368   42.9138 C   0  0  0  0  0  0  0  0  0  0  0  0
    2.1550   11.7124   41.9056 C   0  0  0  0  0  0  0  0  0  0  0  0
    2.4484   12.8339   41.1634 C   0  0  0  0  0  0  0  0  0  0  0  0
    1.8154   14.0257   41.4393 C   0  0  0  0  0  0  0  0  0  0  0  0
   -0.7506   15.5538   43.7701 C   0  0  0  0  0  0  0  0  0  0  0  0
    1.6186   18.4441   40.0389 C   0  0  0  0  0  0  0  0  0  0  0  0
    2.4328   18.8271   38.9813 C   0  0  0  0  0  0  0  0  0  0  0  0
   -0.0648   18.9546   41.7493 N   0  0  0  0  0  0  0  0  0  0  0  0
    0.3983   16.5699   42.1024 N   0  0  0  0  0  0  0  0  0  0  0  0
    4.0886   19.6434   36.8166 O   0  0  0  0  0  0  0  0  0  0  0  0
    3.2037   21.7662   37.0374 O   0  0  0  0  0  0  0  0  0  0  0  0
    3.2795   17.9356   38.3532 O   0  0  0  0  0  0  0  0  0  0  0  0
   -1.2422   17.2800   43.6906 S   0  0  0  0  0  0  0  0  0  0  0  0
    2.9554   10.1949   41.5606 Cl  0  0  0  0  0  0  0  0  0  0  0  0
    1.5437   22.0666   38.7981 H   0  0  0  0  0  0  0  0  0  0  0  0
    0.1031   21.3609   40.6797 H   0  0  0  0  0  0  0  0  0  0  0  0
   -0.1268   13.0577   43.9830 H   0  0  0  0  0  0  0  0  0  0  0  0
    0.9881   10.9585   43.4972 H   0  0  0  0  0  0  0  0  0  0  0  0
    3.1855   12.7848   40.3509 H   0  0  0  0  0  0  0  0  0  0  0  0
    2.0438   14.9122   40.8566 H   0  0  0  0  0  0  0  0  0  0  0  0
   -1.1081   14.8074   44.4468 H   0  0  0  0  0  0  0  0  0  0  0  0
    1.6843   17.4208   40.3393 H   0  0  0  0  0  0  0  0  0  0  0  0
   -0.6786   19.7161   42.1613 H   0  0  0  0  0  0  0  0  0  0  0  0
  1  2  1  0
  1 19  1  0
  1 20  2  0
  2  3  1  0
  2 16  2  0
  3  4  2  0
  4  5  1  0
  5 15  2  0
  5 17  1  0
  6 17  1  0
  6 18  2  0
  6 22  1  0
  7  8  1  0
  7 14  2  0
  7 18  1  0
  8  9  1  0
  8 13  2  0
  9 10  2  0
 10 11  1  0
 11 12  2  0
 11 23  1  0
 12 13  1  0
 14 22  1  0
 15 16  1  0
 16 21  1  0
  3 24  1  0
  4 25  1  0
  9 26  1  0
 10 27  1  0
 12 28  1  0
 13 29  1  0
 14 30  1  0
 15 31  1  0
 17 32  1  0
M  CHG  2  19  -1  21  -1
M  END
>  <mol_id>  (4) 
2026-08-23-6tgu-s0-n100-r4-0004

>  <rmsd_to_ref>  (4) 
0.5918367347004955

$$$$
6tgu.A
     RDKit          3D

 32 34  0  0  0  0  0  0  0  0999 V2000
    3.8704   19.4867   36.8867 C   0  0  0  0  0  0  0  0  0  0  0  0
    3.2010   19.4412   38.2631 C   0  0  0  0  0  0  0  0  0  0  0  0
    2.4916   20.5407   38.7413 C   0  0  0  0  0  0  0  0  0  0  0  0
    1.7119   20.4736   39.9006 C   0  0  0  0  0  0  0  0  0  0  0  0
    1.7624   19.3352   40.7181 C   0  0  0  0  0  0  0  0  0  0  0  0
    0.4463   18.1283   42.5277 C   0  0  0  0  0  0  0  0  0  0  0  0
    0.2153   15.9292   43.0627 C   0  0  0  0  0  0  0  0  0  0  0  0
    0.5404   14.5043   42.9907 C   0  0  0  0  0  0  0  0  0  0  0  0
   -0.2177   13.5342   43.6617 C   0  0  0  0  0  0  0  0  0  0  0  0
    0.0887   12.1814   43.5524 C   0  0  0  0  0  0  0  0  0  0  0  0
    1.1334   11.8023   42.7306 C   0  0  0  0  0  0  0  0  0  0  0  0
    1.9054   12.7278   42.0445 C   0  0  0  0  0  0  0  0  0  0  0  0
    1.5900   14.0774   42.1758 C   0  0  0  0  0  0  0  0  0  0  0  0
   -0.8260   16.4413   43.7906 C   0  0  0  0  0  0  0  0  0  0  0  0
    2.4627   18.2159   40.2462 C   0  0  0  0  0  0  0  0  0  0  0  0
    3.1670   18.2915   39.0432 C   0  0  0  0  0  0  0  0  0  0  0  0
    0.9246   19.2250   41.8701 N   0  0  0  0  0  0  0  0  0  0  0  0
    0.9093   16.8591   42.2529 N   0  0  0  0  0  0  0  0  0  0  0  0
    3.6034   20.4896   36.1615 O   0  0  0  0  0  0  0  0  0  0  0  0
    4.5592   18.4960   36.5584 O   0  0  0  0  0  0  0  0  0  0  0  0
    3.7622   17.1596   38.5389 O   0  0  0  0  0  0  0  0  0  0  0  0
   -1.0214   18.1257   43.4865 S   0  0  0  0  0  0  0  0  0  0  0  0
    1.5009   10.1186   42.5525 Cl  0  0  0  0  0  0  0  0  0  0  0  0
    2.5463   21.4910   38.1900 H   0  0  0  0  0  0  0  0  0  0  0  0
    1.0578   21.3154   40.1716 H   0  0  0  0  0  0  0  0  0  0  0  0
   -1.0685   13.8477   44.2845 H   0  0  0  0  0  0  0  0  0  0  0  0
   -0.4888   11.4286   44.1089 H   0  0  0  0  0  0  0  0  0  0  0  0
    2.7455   12.4038   41.4127 H   0  0  0  0  0  0  0  0  0  0  0  0
    2.1812   14.8239   41.6251 H   0  0  0  0  0  0  0  0  0  0  0  0
   -1.4538   15.8551   44.4778 H   0  0  0  0  0  0  0  0  0  0  0  0
    2.4573   17.2794   40.8233 H   0  0  0  0  0  0  0  0  0  0  0  0
    0.6315   20.1264   42.2732 H   0  0  0  0  0  0  0  0  0  0  0  0
  1  2  1  0
  1 19  1  0
  1 20  2  0
  2  3  1  0
  2 16  2  0
  3  4  2  0
  4  5  1  0
  5 15  2  0
  5 17  1  0
  6 17  1  0
  6 18  2  0
  6 22  1  0
  7  8  1  0
  7 14  2  0
  7 18  1  0
  8  9  1  0
  8 13  2  0
  9 10  2  0
 10 11  1  0
 11 12  2  0
 11 23  1  0
 12 13  1  0
 14 22  1  0
 15 16  1  0
 16 21  1  0
  3 24  1  0
  4 25  1  0
  9 26  1  0
 10 27  1  0
 12 28  1  0
 13 29  1  0
 14 30  1  0
 15 31  1  0
 17 32  1  0
M  CHG  2  19  -1  21  -1
M  END
>  <mol_id>  (5) 
2026-08-23-6tgu-s0-n100-r4-0005

>  <rmsd_to_ref>  (5) 
0.6377551020435769

$$$$
6tgu.A
     RDKit          3D

 32 34  0  0  0  0  0  0  0  0999 V2000
    3.3832   20.3943   37.5779 C   0  0  0  0  0  0  0  0  0  0  0  0
    2.4489   19.9551   38.6117 C   0  0  0  0  0  0  0  0  0  0  0  0
    1.5445   20.8637   39.1028 C   0  0  0  0  0  0  0  0  0  0  0  0
    0.6548   20.4795   40.0742 C   0  0  0  0  0  0  0  0  0  0  0  0
    0.6279   19.1791   40.5957 C   0  0  0  0  0  0  0  0  0  0  0  0
   -0.3255   17.5178   42.1137 C   0  0  0  0  0  0  0  0  0  0  0  0
   -0.0272   15.3342   42.6712 C   0  0  0  0  0  0  0  0  0  0  0  0
    0.6870   14.0815   42.4876 C   0  0  0  0  0  0  0  0  0  0  0  0
    0.3719   12.9520   43.2110 C   0  0  0  0  0  0  0  0  0  0  0  0
    1.0391   11.7531   43.0503 C   0  0  0  0  0  0  0  0  0  0  0  0
    2.0672   11.6514   42.1362 C   0  0  0  0  0  0  0  0  0  0  0  0
    2.4028   12.7671   41.3992 C   0  0  0  0  0  0  0  0  0  0  0  0
    1.7161   13.9678   41.5771 C   0  0  0  0  0  0  0  0  0  0  0  0
   -1.1043   15.4181   43.6373 C   0  0  0  0  0  0  0  0  0  0  0  0
    1.5578   18.3125   40.0648 C   0  0  0  0  0  0  0  0  0  0  0  0
    2.4643   18.6737   39.0867 C   0  0  0  0  0  0  0  0  0  0  0  0
   -0.3032   18.8195   41.5960 N   0  0  0  0  0  0  0  0  0  0  0  0
    0.1747   16.4448   42.0600 N   0  0  0  0  0  0  0  0  0  0  0  0
    4.3194   19.5026   37.0508 O   0  0  0  0  0  0  0  0  0  0  0  0
    3.3853   21.5788   37.1236 O   0  0  0  0  0  0  0  0  0  0  0  0
    3.3775   17.7720   38.5847 O   0  0  0  0  0  0  0  0  0  0  0  0
   -1.6362   17.1937   43.4521 S   0  0  0  0  0  0  0  0  0  0  0  0
    2.8872   10.1163   41.9624 Cl  0  0  0  0  0  0  0  0  0  0  0  0
    1.5100   21.8949   38.7410 H   0  0  0  0  0  0  0  0  0  0  0  0
   -0.0477   21.2124   40.4454 H   0  0  0  0  0  0  0  0  0  0  0  0
   -0.4358   12.9850   43.9470 H   0  0  0  0  0  0  0  0  0  0  0  0
    0.7338   10.9089   43.6558 H   0  0  0  0  0  0  0  0  0  0  0  0
    3.2037   12.7101   40.6786 H   0  0  0  0  0  0  0  0  0  0  0  0
    1.9791   14.8602   40.9926 H   0  0  0  0  0  0  0  0  0  0  0  0
   -1.5072   14.7326   44.2724 H   0  0  0  0  0  0  0  0  0  0  0  0
    1.6113   17.2889   40.4061 H   0  0  0  0  0  0  0  0  0  0  0  0
   -0.9609   19.5828   41.9140 H   0  0  0  0  0  0  0  0  0  0  0  0
  1  2  1  0
  1 19  1  0
  1 20  2  0
  2  3  1  0
  2 16  2  0
  3  4  2  0
  4  5  1  0
  5 15  2  0
  5 17  1  0
  6 17  1  0
  6 18  2  0
  6 22  1  0
  7  8  1  0
  7 14  2  0
  7 18  1  0
  8  9  1  0
  8 13  2  0
  9 10  2  0
 10 11  1  0
 11 12  2  0
 11 23  1  0
 12 13  1  0
 14 22  1  0
 15 16  1  0
 16 21  1  0
  3 24  1  0
  4 25  1  0
  9 26  1  0
 10 27  1  0
 12 28  1  0
 13 29  1  0
 14 30  1  0
 15 31  1  0
 17 32  1  0
M  CHG  2  19  -1  21  -1
M  END
>  <mol_id>  (6) 
2026-08-23-6tgu-s0-n100-r4-0006

>  <rmsd_to_ref>  (6) 
0.6836734693925228

$$$$
6tgu.A
     RDKit          3D

 32 34  0  0  0  0  0  0  0  0999 V2000
    2.8836   19.5516   36.1901 C   0  0  0  0  0  0  0  0  0  0  0  0
    2.4899   19.5250   37.6697 C   0  0  0  0  0  0  0  0  0  0  0  0
    1.7842   20.5859   38.2329 C   0  0  0  0  0  0  0  0  0  0  0  0
    1.2441   20.5168   39.5213 C   0  0  0  0  0  0  0  0  0  0  0  0
    1.5506   19.4324   40.3561 C   0  0  0  0  0  0  0  0  0  0  0  0
    0.7119   18.2196   42.4271 C   0  0  0  0  0  0  0  0  0  0  0  0
    0.7879   16.0410   43.0779 C   0  0  0  0  0  0  0  0  0  0  0  0
    1.2233   14.6463   42.9985 C   0  0  0  0  0  0  0  0  0  0  0  0
    0.6962   13.6541   43.8373 C   0  0  0  0  0  0  0  0  0  0  0  0
    1.0999   12.3276   43.7221 C   0  0  0  0  0  0  0  0  0  0  0  0
    2.0032   11.9929   42.7309 C   0  0  0  0  0  0  0  0  0  0  0  0
    2.5451   12.9410   41.8763 C   0  0  0  0  0  0  0  0  0  0  0  0
    2.1372   14.2648   42.0149 C   0  0  0  0  0  0  0  0  0  0  0  0
   -0.1418   16.5033   43.9714 C   0  0  0  0  0  0  0  0  0  0  0  0
    2.2505   18.3514   39.8014 C   0  0  0  0  0  0  0  0  0  0  0  0
    2.7078   18.4203   38.4842 C   0  0  0  0  0  0  0  0  0  0  0  0
    0.9563   19.3152   41.6500 N   0  0  0  0  0  0  0  0  0  0  0  0
    1.2302   16.9804   42.1166 N   0  0  0  0  0  0  0  0  0  0  0  0
    2.3950   20.4883   35.4923 O   0  0  0  0  0  0  0  0  0  0  0  0
    3.5871   18.6054   35.7736 O   0  0  0  0  0  0  0  0  0  0  0  0
    3.3000   17.3162   37.9182 O   0  0  0  0  0  0  0  0  0  0  0  0
   -0.5445   18.1467   43.6476 S   0  0  0  0  0  0  0  0  0  0  0  0
    2.4841   10.3385   42.5490 Cl  0  0  0  0  0  0  0  0  0  0  0  0
    1.6476   21.5063   37.6464 H   0  0  0  0  0  0  0  0  0  0  0  0
    0.5775   21.3147   39.8805 H   0  0  0  0  0  0  0  0  0  0  0  0
   -0.0486   13.9289   44.5988 H   0  0  0  0  0  0  0  0  0  0  0  0
    0.7079   11.5605   44.4062 H   0  0  0  0  0  0  0  0  0  0  0  0
    3.2787   12.6544   41.1084 H   0  0  0  0  0  0  0  0  0  0  0  0
    2.5441   15.0271   41.3341 H   0  0  0  0  0  0  0  0  0  0  0  0
   -0.5738   15.9048   44.7871 H   0  0  0  0  0  0  0  0  0  0  0  0
    2.4389   17.4502   40.4034 H   0  0  0  0  0  0  0  0  0  0  0  0
    0.6620   20.2095   42.0677 H   0  0  0  0  0  0  0  0  0  0  0  0
  1  2  1  0
  1 19  1  0
  1 20  2  0
  2  3  1  0
  2 16  2  0
  3  4  2  0
  4  5  1  0
  5 15  2  0
  5 17  1  0
  6 17  1  0
  6 18  2  0
  6 22  1  0
  7  8  1  0
  7 14  2  0
  7 18  1  0
  8  9  1  0
  8 13  2  0
  9 10  2  0
 10 11  1  0
 11 12  2  0
 11 23  1  0
 12 13  1  0
 14 22  1  0
 15 16  1  0
 16 21  1  0
  3 24  1  0
  4 25  1  0
  9 26  1  0
 10 27  1  0
 12 28  1  0
 13 29  1  0
 14 30  1  0
 15 31  1  0
 17 32  1  0
M  CHG  2  19  -1  21  -1
M  END
>  <mol_id>  (7) 
2026-08-23-6tgu-s0-n100-r4-0007

>  <rmsd_to_ref>  (7) 
0.7295918367370001

$$$$
6tgu.A
     RDKit          3D

 32 34  0  0  0  0  0  0  0  0999 V2000
    3.3642   19.6334   36.6394 C   0  0  0  0  0  0  0  0  0  0  0  0
    2.5699   19.4097   37.8450 C   0  0  0  0  0  0  0  0  0  0  0  0
    1.7533   20.4214   38.2857 C   0  0  0  0  0  0  0  0  0  0  0  0
    0.9957   20.2396   39.4153 C   0  0  0  0  0  0  0  0  0  0  0  0
    1.0190   19.0473   40.1510 C   0  0  0  0  0  0  0  0  0  0  0  0
    0.2520   17.7017   42.0416 C   0  0  0  0  0  0  0  0  0  0  0  0
    0.5888   15.6330   42.9220 C   0  0  0  0  0  0  0  0  0  0  0  0
    1.2528   14.3412   42.8652 C   0  0  0  0  0  0  0  0  0  0  0  0
    1.0201   13.3620   43.8061 C   0  0  0  0  0  0  0  0  0  0  0  0
    1.6415   12.1288   43.7685 C   0  0  0  0  0  0  0  0  0  0  0  0
    2.5365   11.8362   42.7604 C   0  0  0  0  0  0  0  0  0  0  0  0
    2.7874   12.7988   41.8059 C   0  0  0  0  0  0  0  0  0  0  0  0
    2.1491   14.0374   41.8625 C   0  0  0  0  0  0  0  0  0  0  0  0
   -0.3481   15.9186   43.9903 C   0  0  0  0  0  0  0  0  0  0  0  0
    1.8563   18.0692   39.6610 C   0  0  0  0  0  0  0  0  0  0  0  0
    2.6292   18.2265   38.5267 C   0  0  0  0  0  0  0  0  0  0  0  0
    0.2246   18.8962   41.3099 N   0  0  0  0  0  0  0  0  0  0  0  0
    0.7240   16.6168   42.1085 N   0  0  0  0  0  0  0  0  0  0  0  0
    4.2079   18.6311   36.1565 O   0  0  0  0  0  0  0  0  0  0  0  0
    3.3236   20.7238   35.9923 O   0  0  0  0  0  0  0  0  0  0  0  0
    3.4533   17.2195   38.0730 O   0  0  0  0  0  0  0  0  0  0  0  0
   -0.8729   17.6568   43.5737 S   0  0  0  0  0  0  0  0  0  0  0  0
    3.3024   10.2638   42.7479 Cl  0  0  0  0  0  0  0  0  0  0  0  0
    1.6865   21.3777   37.7600 H   0  0  0  0  0  0  0  0  0  0  0  0
    0.3605   21.0505   39.7428 H   0  0  0  0  0  0  0  0  0  0  0  0
    0.3187   13.5487   44.6236 H   0  0  0  0  0  0  0  0  0  0  0  0
    1.4070   11.4104   44.5441 H   0  0  0  0  0  0  0  0  0  0  0  0
    3.4838   12.5913   41.0085 H   0  0  0  0  0  0  0  0  0  0  0  0
    2.3452   14.8084   41.1047 H   0  0  0  0  0  0  0  0  0  0  0  0
   -0.6728   15.3653   44.7801 H   0  0  0  0  0  0  0  0  0  0  0  0
    1.9393   17.1163   40.1629 H   0  0  0  0  0  0  0  0  0  0  0  0
   -0.3729   19.7264   41.5746 H   0  0  0  0  0  0  0  0  0  0  0  0
  1  2  1  0
  1 19  1  0
  1 20  2  0
  2  3  1  0
  2 16  2  0
  3  4  2  0
  4  5  1  0
  5 15  2  0
  5 17  1  0
  6 17  1  0
  6 18  2  0
  6 22  1  0
  7  8  1  0
  7 14  2  0
  7 18  1  0
  8  9  1  0
  8 13  2  0
  9 10  2  0
 10 11  1  0
 11 12  2  0
 11 23  1  0
 12 13  1  0
 14 22  1  0
 15 16  1  0
 16 21  1  0
  3 24  1  0
  4 25  1  0
  9 26  1  0
 10 27  1  0
 12 28  1  0
 13 29  1  0
 14 30  1  0
 15 31  1  0
 17 32  1  0
M  CHG  2  19  -1  21  -1
M  END
>  <mol_id>  (8) 
2026-08-23-6tgu-s0-n100-r4-0008

>  <rmsd_to_ref>  (8) 
0.7755102040873149

$$$$
6tgu.A
     RDKit          3D

 32 34  0  0  0  0  0  0  0  0999 V2000
    3.9051   19.4980   36.6130 C   0  0  0  0  0  0  0  0  0  0  0  0
    3.1814   19.5206   37.9621 C   0  0  0  0  0  0  0  0  0  0  0  0
    2.4211   20.6255   38.3386 C   0  0  0  0  0  0  0  0  0  0  0  0
    1.5967   20.6088   39.4684 C   0  0  0  0  0  0  0  0  0  0  0  0
    1.6467   19.5280   40.3606 C   0  0  0  0  0  0  0  0  0  0  0  0
    0.2932   18.3995   42.1930 C   0  0  0  0  0  0  0  0  0  0  0  0
    0.1048   16.2334   42.8626 C   0  0  0  0  0  0  0  0  0  0  0  0
    0.4740   14.8180   42.8976 C   0  0  0  0  0  0  0  0  0  0  0  0
   -0.2823   13.8697   43.6009 C   0  0  0  0  0  0  0  0  0  0  0  0
    0.0678   12.5231   43.5932 C   0  0  0  0  0  0  0  0  0  0  0  0
    1.1560   12.1251   42.8398 C   0  0  0  0  0  0  0  0  0  0  0  0
    1.9281   13.0283   42.1248 C   0  0  0  0  0  0  0  0  0  0  0  0
    1.5684   14.3728   42.1543 C   0  0  0  0  0  0  0  0  0  0  0  0
   -0.9800   16.7582   43.5138 C   0  0  0  0  0  0  0  0  0  0  0  0
    2.3983   18.4034   39.9914 C   0  0  0  0  0  0  0  0  0  0  0  0
    3.1489   18.4233   38.8144 C   0  0  0  0  0  0  0  0  0  0  0  0
    0.7658   19.4660   41.4838 N   0  0  0  0  0  0  0  0  0  0  0  0
    0.8040   17.1306   42.0210 N   0  0  0  0  0  0  0  0  0  0  0  0
    3.6390   20.4429   35.8133 O   0  0  0  0  0  0  0  0  0  0  0  0
    4.6355   18.5106   36.3779 O   0  0  0  0  0  0  0  0  0  0  0  0
    3.7972   17.2806   38.4096 O   0  0  0  0  0  0  0  0  0  0  0  0
   -1.2119   18.4122   43.0918 S   0  0  0  0  0  0  0  0  0  0  0  0
    1.5796   10.4459   42.7877 Cl  0  0  0  0  0  0  0  0  0  0  0  0
    2.4706   21.5394   37.7284 H   0  0  0  0  0  0  0  0  0  0  0  0
    0.9076   21.4452   39.6575 H   0  0  0  0  0  0  0  0  0  0  0  0
   -1.1668   14.1956   44.1680 H   0  0  0  0  0  0  0  0  0  0  0  0
   -0.5099   11.7899   44.1752 H   0  0  0  0  0  0  0  0  0  0  0  0
    2.8026   12.6910   41.5491 H   0  0  0  0  0  0  0  0  0  0  0  0
    2.1596   15.1005   41.5791 H   0  0  0  0  0  0  0  0  0  0  0  0
   -1.6182   16.1980   44.2131 H   0  0  0  0  0  0  0  0  0  0  0  0
    2.3966   17.5065   40.6283 H   0  0  0  0  0  0  0  0  0  0  0  0
    0.4303   20.3818   41.8147 H   0  0  0  0  0  0  0  0  0  0  0  0
  1  2  1  0
  1 19  1  0
  1 20  2  0
  2  3  1  0
  2 16  2  0
  3  4  2  0
  4  5  1  0
  5 15  2  0
  5 17  1  0
  6 17  1  0
  6 18  2  0
  6 22  1  0
  7  8  1  0
  7 14  2  0
  7 18  1  0
  8  9  1  0
  8 13  2  0
  9 10  2  0
 10 11  1  0
 11 12  2  0
 11 23  1  0
 12 13  1  0
 14 22  1  0
 15 16  1  0
 16 21  1  0
  3 24  1  0
  4 25  1  0
  9 26  1  0
 10 27  1  0
 12 28  1  0
 13 29  1  0
 14 30  1  0
 15 31  1  0
 17 32  1  0
M  CHG  2  19  -1  21  -1
M  END
>  <mol_id>  (9) 
2026-08-23-6tgu-s0-n100-r4-0009

>  <rmsd_to_ref>  (9) 
0.821428571430619

$$$$
6tgu.A
     RDKit          3D

 32 34  0  0  0  0  0  0  0  0999 V2000
    4.2927   20.3669   37.6605 C   0  0  0  0  0  0  0  0  0  0  0  0
    3.3265   20.0374   38.7032 C   0  0  0  0  0  0  0  0  0  0  0  0
    2.6975   21.0651   39.3716 C   0  0  0  0  0  0  0  0  0  0  0  0
    1.8001   20.7472   40.3402 C   0  0  0  0  0  0  0  0  0  0  0  0
    1.4725   19.4461   40.7037 C   0  0  0  0  0  0  0  0  0  0  0  0
    0.2081   17.8620   42.0786 C   0  0  0  0  0  0  0  0  0  0  0  0
   -0.0414   15.6532   42.3669 C   0  0  0  0  0  0  0  0  0  0  0  0
    0.3365   14.2963   41.9723 C   0  0  0  0  0  0  0  0  0  0  0  0
    1.2679   14.0449   40.9719 C   0  0  0  0  0  0  0  0  0  0  0  0
    1.6080   12.7545   40.6172 C   0  0  0  0  0  0  0  0  0  0  0  0
    1.0423   11.6631   41.2359 C   0  0  0  0  0  0  0  0  0  0  0  0
    0.1178   11.8909   42.2290 C   0  0  0  0  0  0  0  0  0  0  0  0
   -0.2137   13.1839   42.5745 C   0  0  0  0  0  0  0  0  0  0  0  0
   -0.9769   15.8797   43.3720 C   0  0  0  0  0  0  0  0  0  0  0  0
    2.1321   18.4495   40.0021 C   0  0  0  0  0  0  0  0  0  0  0  0
    3.0552   18.7277   39.0061 C   0  0  0  0  0  0  0  0  0  0  0  0
    0.5354   19.2101   41.7143 N   0  0  0  0  0  0  0  0  0  0  0  0
    0.4175   16.7821   41.8629 N   0  0  0  0  0  0  0  0  0  0  0  0
    4.9438   19.3668   36.9681 O   0  0  0  0  0  0  0  0  0  0  0  0
    4.5737   21.5671   37.3480 O   0  0  0  0  0  0  0  0  0  0  0  0
    3.6940   17.6888   38.3273 O   0  0  0  0  0  0  0  0  0  0  0  0
   -1.0922   17.7055   43.4798 S   0  0  0  0  0  0  0  0  0  0  0  0
    1.4638   10.0204   40.7968 Cl  0  0  0  0  0  0  0  0  0  0  0  0
    2.9439   22.0820   39.0979 H   0  0  0  0  0  0  0  0  0  0  0  0
    1.3092   21.5618   40.8617 H   0  0  0  0  0  0  0  0  0  0  0  0
    1.7186   14.9121   40.4790 H   0  0  0  0  0  0  0  0  0  0  0  0
    2.3381   12.5962   39.8327 H   0  0  0  0  0  0  0  0  0  0  0  0
   -0.3362   11.0495   42.7253 H   0  0  0  0  0  0  0  0  0  0  0  0
   -0.9447   13.3168   43.3602 H   0  0  0  0  0  0  0  0  0  0  0  0
   -1.5539   15.1971   43.9992 H   0  0  0  0  0  0  0  0  0  0  0  0
    1.9466   17.4212   40.2103 H   0  0  0  0  0  0  0  0  0  0  0  0
    0.0978   20.0436   42.1778 H   0  0  0  0  0  0  0  0  0  0  0  0
  1  2  1  0
  1 19  1  0
  1 20  2  0
  2  3  1  0
  2 16  2  0
  3  4  2  0
  4  5  1  0
  5 15  2  0
  5 17  1  0
  6 17  1  0
  6 18  2  0
  6 22  1  0
  7  8  1  0
  7 14  2  0
  7 18  1  0
  8  9  1  0
  8 13  2  0
  9 10  2  0
 10 11  1  0
 11 12  2  0
 11 23  1  0
 12 13  1  0
 14 22  1  0
 15 16  1  0
 16 21  1  0
  3 24  1  0
  4 25  1  0
  9 26  1  0
 10 27  1  0
 12 28  1  0
 13 29  1  0
 14 30  1  0
 15 31  1  0
 17 32  1  0
M  CHG  2  19  -1  21  -1
M  END
>  <mol_id>  (10) 
2026-08-23-6tgu-s0-n100-r4-0010

>  <rmsd_to_ref>  (10) 
0.8673469387783282

$$$$
6tgu.A
     RDKit          3D

 32 34  0  0  0  0  0  0  0  0999 V2000
    3.4822   20.9623   37.9507 C   0  0  0  0  0  0  0  0  0  0  0  0
    2.8715   20.4120   39.2425 C   0  0  0  0  0  0  0  0  0  0  0  0
    2.0585   21.2155   40.0388 C   0  0  0  0  0  0  0  0  0  0  0  0
    1.3331   20.6991   41.1174 C   0  0  0  0  0  0  0  0  0  0  0  0
    1.5422   19.3778   41.5384 C   0  0  0  0  0  0  0  0  0  0  0  0
    0.4376   17.5204   42.8775 C   0  0  0  0  0  0  0  0  0  0  0  0
    0.4786   15.2528   42.6981 C   0  0  0  0  0  0  0  0  0  0  0  0
    0.9616   13.9703   42.1852 C   0  0  0  0  0  0  0  0  0  0  0  0
    0.3436   12.7565   42.5178 C   0  0  0  0  0  0  0  0  0  0  0  0
    0.7986   11.5513   41.9920 C   0  0  0  0  0  0  0  0  0  0  0  0
    1.8500   11.5740   41.0951 C   0  0  0  0  0  0  0  0  0  0  0  0
    2.4863   12.7521   40.7342 C   0  0  0  0  0  0  0  0  0  0  0  0
    2.0237   13.9463   41.2799 C   0  0  0  0  0  0  0  0  0  0  0  0
   -0.5880   15.3851   43.5474 C   0  0  0  0  0  0  0  0  0  0  0  0
    2.3488   18.5525   40.7419 C   0  0  0  0  0  0  0  0  0  0  0  0
    2.9968   19.0815   39.6242 C   0  0  0  0  0  0  0  0  0  0  0  0
    0.7638   18.8159   42.5965 N   0  0  0  0  0  0  0  0  0  0  0  0
    1.0326   16.4642   42.2209 N   0  0  0  0  0  0  0  0  0  0  0  0
    3.0768   22.1013   37.5746 O   0  0  0  0  0  0  0  0  0  0  0  0
    4.2677   20.2124   37.3306 O   0  0  0  0  0  0  0  0  0  0  0  0
    3.6993   18.2419   38.7928 O   0  0  0  0  0  0  0  0  0  0  0  0
   -0.9853   17.0446   43.7844 S   0  0  0  0  0  0  0  0  0  0  0  0
    2.4010   10.0855   40.4006 Cl  0  0  0  0  0  0  0  0  0  0  0  0
    1.9847   22.2894   39.8122 H   0  0  0  0  0  0  0  0  0  0  0  0
    0.5971   21.3305   41.6365 H   0  0  0  0  0  0  0  0  0  0  0  0
   -0.5149   12.7570   43.2056 H   0  0  0  0  0  0  0  0  0  0  0  0
    0.3309   10.5995   42.2842 H   0  0  0  0  0  0  0  0  0  0  0  0
    3.3351   12.7432   40.0345 H   0  0  0  0  0  0  0  0  0  0  0  0
    2.5058   14.8920   40.9913 H   0  0  0  0  0  0  0  0  0  0  0  0
   -1.1200   14.5439   44.0157 H   0  0  0  0  0  0  0  0  0  0  0  0
    2.4709   17.4896   40.9974 H   0  0  0  0  0  0  0  0  0  0  0  0
    0.3841   19.5058   43.2605 H   0  0  0  0  0  0  0  0  0  0  0  0
  1  2  1  0
  1 19  1  0
  1 20  2  0
  2  3  1  0
  2 16  2  0
  3  4  2  0
  4  5  1  0
  5 15  2  0
  5 17  1  0
  6 17  1  0
  6 18  2  0
  6 22  1  0
  7  8  1  0
  7 14  2  0
  7 18  1  0
  8  9  1  0
  8 13  2  0
  9 10  2  0
 10 11  1  0
 11 12  2  0
 11 23  1  0
 12 13  1  0
 14 22  1  0
 15 16  1  0
 16 21  1  0
  3 24  1  0
  4 25  1  0
  9 26  1  0
 10 27  1  0
 12 28  1  0
 13 29  1  0
 14 30  1  0
 15 31  1  0
 17 32  1  0
M  CHG  2  19  -1  21  -1
M  END
>  <mol_id>  (11) 
2026-08-23-6tgu-s0-n100-r4-0011

>  <rmsd_to_ref>  (11) 
0.9132653061252715

$$$$
6tgu.A
     RDKit          3D

 32 34  0  0  0  0  0  0  0  0999 V2000
    2.7117   20.9653   37.5144 C   0  0  0  0  0  0  0  0  0  0  0  0
    1.9925   20.4103   38.6524 C   0  0  0  0  0  0  0  0  0  0  0  0
    1.1520   21.2077   39.3953 C   0  0  0  0  0  0  0  0  0  0  0  0
    0.4770   20.6754   40.4680 C   0  0  0  0  0  0  0  0  0  0  0  0
    0.6079   19.3340   40.8465 C   0  0  0  0  0  0  0  0  0  0  0  0
    0.0287   17.4797   42.3360 C   0  0  0  0  0  0  0  0  0  0  0  0
    0.4888   15.2925   42.6428 C   0  0  0  0  0  0  0  0  0  0  0  0
    1.2133   14.1029   42.2080 C   0  0  0  0  0  0  0  0  0  0  0  0
    1.0695   12.9005   42.8800 C   0  0  0  0  0  0  0  0  0  0  0  0
    1.7492   11.7728   42.4769 C   0  0  0  0  0  0  0  0  0  0  0  0
    2.6014   11.7856   41.3905 C   0  0  0  0  0  0  0  0  0  0  0  0
    2.7550   12.9734   40.7120 C   0  0  0  0  0  0  0  0  0  0  0  0
    2.0696   14.0945   41.1251 C   0  0  0  0  0  0  0  0  0  0  0  0
   -0.3850   15.2697   43.7607 C   0  0  0  0  0  0  0  0  0  0  0  0
    1.4594   18.5719   40.0754 C   0  0  0  0  0  0  0  0  0  0  0  0
    2.1531   19.0842   38.9870 C   0  0  0  0  0  0  0  0  0  0  0  0
   -0.1025   18.8411   41.9483 N   0  0  0  0  0  0  0  0  0  0  0  0
    0.5473   16.4778   42.0859 N   0  0  0  0  0  0  0  0  0  0  0  0
    3.5602   20.1643   36.7627 O   0  0  0  0  0  0  0  0  0  0  0  0
    2.5575   22.1972   37.2100 O   0  0  0  0  0  0  0  0  0  0  0  0
    3.0010   18.3015   38.2289 O   0  0  0  0  0  0  0  0  0  0  0  0
   -0.9957   16.9570   43.8486 S   0  0  0  0  0  0  0  0  0  0  0  0
    3.4692   10.3574   40.8712 Cl  0  0  0  0  0  0  0  0  0  0  0  0
    1.0372   22.2555   39.1156 H   0  0  0  0  0  0  0  0  0  0  0  0
   -0.1875   21.3204   41.0494 H   0  0  0  0  0  0  0  0  0  0  0  0
    0.4202   12.8168   43.7379 H   0  0  0  0  0  0  0  0  0  0  0  0
    1.6273   10.8422   43.0104 H   0  0  0  0  0  0  0  0  0  0  0  0
    3.4218   13.0334   39.8416 H   0  0  0  0  0  0  0  0  0  0  0  0
    2.1877   15.0329   40.5931 H   0  0  0  0  0  0  0  0  0  0  0  0
   -0.6328   14.4549   44.4069 H   0  0  0  0  0  0  0  0  0  0  0  0
    1.6187   17.5380   40.2930 H   0  0  0  0  0  0  0  0  0  0  0  0
   -0.7285   19.5261   42.4634 H   0  0  0  0  0  0  0  0  0  0  0  0
  1  2  1  0
  1 19  1  0
  1 20  2  0
  2  3  1  0
  2 16  2  0
  3  4  2  0
  4  5  1  0
  5 15  2  0
  5 17  1  0
  6 17  1  0
  6 18  2  0
  6 22  1  0
  7  8  1  0
  7 14  2  0
  7 18  1  0
  8  9  1  0
  8 13  2  0
  9 10  2  0
 10 11  1  0
 11 12  2  0
 11 23  1  0
 12 13  1  0
 14 22  1  0
 15 16  1  0
 16 21  1  0
  3 24  1  0
  4 25  1  0
  9 26  1  0
 10 27  1  0
 12 28  1  0
 13 29  1  0
 14 30  1  0
 15 31  1  0
 17 32  1  0
M  CHG  2  19  -1  21  -1
M  END
>  <mol_id>  (12) 
2026-08-23-6tgu-s0-n100-r4-0012

>  <rmsd_to_ref>  (12) 
0.9591836734785685

$$$$
6tgu.A
     RDKit          3D

 32 34  0  0  0  0  0  0  0  0999 V2000
    2.0471   19.6188   36.0968 C   0  0  0  0  0  0  0  0  0  0  0  0
    1.8823   19.6161   37.6192 C   0  0  0  0  0  0  0  0  0  0  0  0
    1.3211   20.7115   38.2718 C   0  0  0  0  0  0  0  0  0  0  0  0
    0.9806   20.6728   39.6279 C   0  0  0  0  0  0  0  0  0  0  0  0
    1.3593   19.5777   40.4179 C   0  0  0  0  0  0  0  0  0  0  0  0
    0.7894   18.4135   42.6050 C   0  0  0  0  0  0  0  0  0  0  0  0
    0.8612   16.2360   43.2598 C   0  0  0  0  0  0  0  0  0  0  0  0
    1.2135   14.8217   43.1300 C   0  0  0  0  0  0  0  0  0  0  0  0
    0.7741   13.8588   44.0496 C   0  0  0  0  0  0  0  0  0  0  0  0
    1.0928   12.5140   43.8885 C   0  0  0  0  0  0  0  0  0  0  0  0
    1.8181   12.1331   42.7753 C   0  0  0  0  0  0  0  0  0  0  0  0
    2.2676   13.0512   41.8383 C   0  0  0  0  0  0  0  0  0  0  0  0
    1.9482   14.3935   42.0231 C   0  0  0  0  0  0  0  0  0  0  0  0
    0.1010   16.7453   44.2791 C   0  0  0  0  0  0  0  0  0  0  0  0
    1.9151   18.4625   39.7749 C   0  0  0  0  0  0  0  0  0  0  0  0
    2.1695   18.5049   38.4028 C   0  0  0  0  0  0  0  0  0  0  0  0
    0.9639   19.4935   41.7882 N   0  0  0  0  0  0  0  0  0  0  0  0
    1.1957   17.1498   42.2325 N   0  0  0  0  0  0  0  0  0  0  0  0
    1.5026   20.5755   35.4713 O   0  0  0  0  0  0  0  0  0  0  0  0
    2.6339   18.6385   35.5884 O   0  0  0  0  0  0  0  0  0  0  0  0
    2.6161   17.3718   37.7653 O   0  0  0  0  0  0  0  0  0  0  0  0
   -0.2687   18.4051   44.0027 S   0  0  0  0  0  0  0  0  0  0  0  0
    2.1875   10.4568   42.5400 Cl  0  0  0  0  0  0  0  0  0  0  0  0
    1.1402   21.6355   37.7030 H   0  0  0  0  0  0  0  0  0  0  0  0
    0.4147   21.5030   40.0756 H   0  0  0  0  0  0  0  0  0  0  0  0
    0.1676   14.1716   44.9124 H   0  0  0  0  0  0  0  0  0  0  0  0
    0.7739   11.7689   44.6323 H   0  0  0  0  0  0  0  0  0  0  0  0
    2.8616   12.7271   40.9710 H   0  0  0  0  0  0  0  0  0  0  0  0
    2.2821   15.1330   41.2805 H   0  0  0  0  0  0  0  0  0  0  0  0
   -0.2295   16.1710   45.1572 H   0  0  0  0  0  0  0  0  0  0  0  0
    2.1504   17.5553   40.3508 H   0  0  0  0  0  0  0  0  0  0  0  0
    0.7789   20.4023   42.2362 H   0  0  0  0  0  0  0  0  0  0  0  0
  1  2  1  0
  1 19  1  0
  1 20  2  0
  2  3  1  0
  2 16  2  0
  3  4  2  0
  4  5  1  0
  5 15  2  0
  5 17  1  0
  6 17  1  0
  6 18  2  0
  6 22  1  0
  7  8  1  0
  7 14  2  0
  7 18  1  0
  8  9  1  0
  8 13  2  0
  9 10  2  0
 10 11  1  0
 11 12  2  0
 11 23  1  0
 12 13  1  0
 14 22  1  0
 15 16  1  0
 16 21  1  0
  3 24  1  0
  4 25  1  0
  9 26  1  0
 10 27  1  0
 12 28  1  0
 13 29  1  0
 14 30  1  0
 15 31  1  0
 17 32  1  0
M  CHG  2  19  -1  21  -1
M  END
>  <mol_id>  (13) 
2026-08-23-6tgu-s0-n100-r4-0013

>  <rmsd_to_ref>  (13) 
1.005102040822393

$$$$
6tgu.A
     RDKit          3D

 32 34  0  0  0  0  0  0  0  0999 V2000
    4.0902   19.0967   36.9370 C   0  0  0  0  0  0  0  0  0  0  0  0
    3.2377   19.1317   38.1170 C   0  0  0  0  0  0  0  0  0  0  0  0
    2.8168   20.3371   38.6307 C   0  0  0  0  0  0  0  0  0  0  0  0
    2.0121   20.3608   39.7450 C   0  0  0  0  0  0  0  0  0  0  0  0
    1.5934   19.1928   40.3934 C   0  0  0  0  0  0  0  0  0  0  0  0
    0.3469   18.0880   42.1872 C   0  0  0  0  0  0  0  0  0  0  0  0
   -0.1192   16.0189   42.9562 C   0  0  0  0  0  0  0  0  0  0  0  0
    0.0439   14.5757   42.8154 C   0  0  0  0  0  0  0  0  0  0  0  0
   -0.5608   13.7041   43.7057 C   0  0  0  0  0  0  0  0  0  0  0  0
   -0.4124   12.3408   43.5807 C   0  0  0  0  0  0  0  0  0  0  0  0
    0.3412   11.7801   42.5686 C   0  0  0  0  0  0  0  0  0  0  0  0
    0.9487   12.6335   41.6754 C   0  0  0  0  0  0  0  0  0  0  0  0
    0.7926   13.9952   41.8112 C   0  0  0  0  0  0  0  0  0  0  0  0
   -0.8957   16.5860   43.9998 C   0  0  0  0  0  0  0  0  0  0  0  0
    2.0380   18.0085   39.8455 C   0  0  0  0  0  0  0  0  0  0  0  0
    2.8512   17.9562   38.7211 C   0  0  0  0  0  0  0  0  0  0  0  0
    0.7732   19.2720   41.5259 N   0  0  0  0  0  0  0  0  0  0  0  0
    0.4038   16.9339   42.1766 N   0  0  0  0  0  0  0  0  0  0  0  0
    4.5168   17.8830   36.4158 O   0  0  0  0  0  0  0  0  0  0  0  0
    4.4449   20.1921   36.3818 O   0  0  0  0  0  0  0  0  0  0  0  0
    3.2844   16.7577   38.1899 O   0  0  0  0  0  0  0  0  0  0  0  0
   -0.7609   18.3537   43.7082 S   0  0  0  0  0  0  0  0  0  0  0  0
    0.5352   10.0488   42.4021 Cl  0  0  0  0  0  0  0  0  0  0  0  0
    3.1328   21.2579   38.1391 H   0  0  0  0  0  0  0  0  0  0  0  0
    1.6851   21.3255   40.1425 H   0  0  0  0  0  0  0  0  0  0  0  0
   -1.1644   14.0718   44.5212 H   0  0  0  0  0  0  0  0  0  0  0  0
   -0.8897   11.6733   44.2822 H   0  0  0  0  0  0  0  0  0  0  0  0
    1.5582   12.2350   40.8536 H   0  0  0  0  0  0  0  0  0  0  0  0
    1.2697   14.6716   41.1094 H   0  0  0  0  0  0  0  0  0  0  0  0
   -1.4375   16.0962   44.7803 H   0  0  0  0  0  0  0  0  0  0  0  0
    1.7666   17.0692   40.2763 H   0  0  0  0  0  0  0  0  0  0  0  0
    0.4960   20.2428   41.8529 H   0  0  0  0  0  0  0  0  0  0  0  0
  1  2  1  0
  1 19  1  0
  1 20  2  0
  2  3  1  0
  2 16  2  0
  3  4  2  0
  4  5  1  0
  5 15  2  0
  5 17  1  0
  6 17  1  0
  6 18  2  0
  6 22  1  0
  7  8  1  0
  7 14  2  0
  7 18  1  0
  8  9  1  0
  8 13  2  0
  9 10  2  0
 10 11  1  0
 11 12  2  0
 11 23  1  0
 12 13  1  0
 14 22  1  0
 15 16  1  0
 16 21  1  0
  3 24  1  0
  4 25  1  0
  9 26  1  0
 10 27  1  0
 12 28  1  0
 13 29  1  0
 14 30  1  0
 15 31  1  0
 17 32  1  0
M  CHG  2  19  -1  21  -1
M  END
>  <mol_id>  (14) 
2026-08-23-6tgu-s0-n100-r4-0014

>  <rmsd_to_ref>  (14) 
1.0510204081682086

$$$$
6tgu.A
     RDKit          3D

 32 34  0  0  0  0  0  0  0  0999 V2000
    2.5991   20.1970   36.8575 C   0  0  0  0  0  0  0  0  0  0  0  0
    2.6353   19.7894   38.3330 C   0  0  0  0  0  0  0  0  0  0  0  0
    2.4374   20.7380   39.3339 C   0  0  0  0  0  0  0  0  0  0  0  0
    2.2745   20.3780   40.6756 C   0  0  0  0  0  0  0  0  0  0  0  0
    2.4820   19.0508   41.0787 C   0  0  0  0  0  0  0  0  0  0  0  0
    1.9391   17.4402   42.9693 C   0  0  0  0  0  0  0  0  0  0  0  0
    1.5778   15.1949   43.0295 C   0  0  0  0  0  0  0  0  0  0  0  0
    1.5663   13.8371   42.4840 C   0  0  0  0  0  0  0  0  0  0  0  0
    1.0338   12.7539   43.1975 C   0  0  0  0  0  0  0  0  0  0  0  0
    1.0023   11.4768   42.6461 C   0  0  0  0  0  0  0  0  0  0  0  0
    1.4679   11.2994   41.3569 C   0  0  0  0  0  0  0  0  0  0  0  0
    1.9974   12.3436   40.6137 C   0  0  0  0  0  0  0  0  0  0  0  0
    2.0306   13.6118   41.1871 C   0  0  0  0  0  0  0  0  0  0  0  0
    1.0969   15.5264   44.2685 C   0  0  0  0  0  0  0  0  0  0  0  0
    2.6713   18.0819   40.0830 C   0  0  0  0  0  0  0  0  0  0  0  0
    2.7500   18.4665   38.7432 C   0  0  0  0  0  0  0  0  0  0  0  0
    2.2573   18.6546   42.4329 N   0  0  0  0  0  0  0  0  0  0  0  0
    1.9839   16.2830   42.2213 N   0  0  0  0  0  0  0  0  0  0  0  0
    2.2203   21.3789   36.6070 O   0  0  0  0  0  0  0  0  0  0  0  0
    2.8673   19.3101   36.0176 O   0  0  0  0  0  0  0  0  0  0  0  0
    2.8306   17.5002   37.7688 O   0  0  0  0  0  0  0  0  0  0  0  0
    1.0975   17.2344   44.4934 S   0  0  0  0  0  0  0  0  0  0  0  0
    1.3974    9.7228   40.6421 Cl  0  0  0  0  0  0  0  0  0  0  0  0
    2.4084   21.8031   39.0605 H   0  0  0  0  0  0  0  0  0  0  0  0
    1.9831   21.1373   41.4162 H   0  0  0  0  0  0  0  0  0  0  0  0
    0.6343   12.9164   44.2094 H   0  0  0  0  0  0  0  0  0  0  0  0
    0.6147   10.6254   43.2248 H   0  0  0  0  0  0  0  0  0  0  0  0
    2.3815   12.1742   39.5970 H   0  0  0  0  0  0  0  0  0  0  0  0
    2.4315   14.4548   40.6053 H   0  0  0  0  0  0  0  0  0  0  0  0
    0.7557   14.7990   45.0198 H   0  0  0  0  0  0  0  0  0  0  0  0
    2.7575   17.0201   40.3571 H   0  0  0  0  0  0  0  0  0  0  0  0
    2.3514   19.4146   43.1217 H   0  0  0  0  0  0  0  0  0  0  0  0
  1  2  1  0
  1 19  1  0
  1 20  2  0
  2  3  1  0
  2 16  2  0
  3  4  2  0
  4  5  1  0
  5 15  2  0
  5 17  1  0
  6 17  1  0
  6 18  2  0
  6 22  1  0
  7  8  1  0
  7 14  2  0
  7 18  1  0
  8  9  1  0
  8 13  2  0
  9 10  2  0
 10 11  1  0
 11 12  2  0
 11 23  1  0
 12 13  1  0
 14 22  1  0
 15 16  1  0
 16 21  1  0
  3 24  1  0
  4 25  1  0
  9 26  1  0
 10 27  1  0
 12 28  1  0
 13 29  1  0
 14 30  1  0
 15 31  1  0
 17 32  1  0
M  CHG  2  19  -1  21  -1
M  END
>  <mol_id>  (15) 
2026-08-23-6tgu-s0-n100-r4-0015

>  <rmsd_to_ref>  (15) 
1.0969387755116116

$$$$
6tgu.A
     RDKit          3D

 32 34  0  0  0  0  0  0  0  0999 V2000
    3.1244   20.3193   36.5073 C   0  0  0  0  0  0  0  0  0  0  0  0
    2.6383   19.9408   37.8410 C   0  0  0  0  0  0  0  0  0  0  0  0
    2.8181   20.8255   38.8731 C   0  0  0  0  0  0  0  0  0  0  0  0
    2.3882   20.5158   40.1352 C   0  0  0  0  0  0  0  0  0  0  0  0
    1.7581   19.2962   40.4016 C   0  0  0  0  0  0  0  0  0  0  0  0
    0.5645   17.8345   42.0242 C   0  0  0  0  0  0  0  0  0  0  0  0
    0.0589   15.6584   42.5682 C   0  0  0  0  0  0  0  0  0  0  0  0
    0.4174   14.2402   42.8542 C   0  0  0  0  0  0  0  0  0  0  0  0
   -0.5517   13.3136   43.1540 C   0  0  0  0  0  0  0  0  0  0  0  0
   -0.1680   12.0189   43.4028 C   0  0  0  0  0  0  0  0  0  0  0  0
    1.1527   11.5969   43.3670 C   0  0  0  0  0  0  0  0  0  0  0  0
    2.1265   12.5257   43.0666 C   0  0  0  0  0  0  0  0  0  0  0  0
    1.7361   13.8240   42.8177 C   0  0  0  0  0  0  0  0  0  0  0  0
   -1.2969   16.0367   42.5975 C   0  0  0  0  0  0  0  0  0  0  0  0
    1.5854   18.4170   39.3477 C   0  0  0  0  0  0  0  0  0  0  0  0
    2.0129   18.7078   38.0579 C   0  0  0  0  0  0  0  0  0  0  0  0
    1.3183   18.9617   41.7068 N   0  0  0  0  0  0  0  0  0  0  0  0
    0.9242   16.5606   42.2868 N   0  0  0  0  0  0  0  0  0  0  0  0
    2.9660   19.4208   35.4371 O   0  0  0  0  0  0  0  0  0  0  0  0
    3.6831   21.4376   36.3069 O   0  0  0  0  0  0  0  0  0  0  0  0
    1.8306   17.8083   37.0028 O   0  0  0  0  0  0  0  0  0  0  0  0
   -1.2277   17.8035   42.1843 S   0  0  0  0  0  0  0  0  0  0  0  0
    1.5039    9.9201   43.7036 Cl  0  0  0  0  0  0  0  0  0  0  0  0
    3.3038   21.8003   38.7333 H   0  0  0  0  0  0  0  0  0  0  0  0
    2.5451   21.2418   40.9402 H   0  0  0  0  0  0  0  0  0  0  0  0
   -1.5965   13.5764   43.1983 H   0  0  0  0  0  0  0  0  0  0  0  0
   -0.9554   11.3142   43.6371 H   0  0  0  0  0  0  0  0  0  0  0  0
    3.1699   12.2170   43.0333 H   0  0  0  0  0  0  0  0  0  0  0  0
    2.4705   14.5809   42.5778 H   0  0  0  0  0  0  0  0  0  0  0  0
   -2.1686   15.4782   42.8009 H   0  0  0  0  0  0  0  0  0  0  0  0
    1.1062   17.4539   39.4825 H   0  0  0  0  0  0  0  0  0  0  0  0
    1.5808   19.6138   42.4971 H   0  0  0  0  0  0  0  0  0  0  0  0
  1  2  1  0
  1 19  1  0
  1 20  2  0
  2  3  1  0
  2 16  2  0
  3  4  2  0
  4  5  1  0
  5 15  2  0
  5 17  1  0
  6 17  1  0
  6 18  2  0
  6 22  1  0
  7  8  1  0
  7 14  2  0
  7 18  1  0
  8  9  1  0
  8 13  2  0
  9 10  2  0
 10 11  1  0
 11 12  2  0
 11 23  1  0
 12 13  1  0
 14 22  1  0
 15 16  1  0
 16 21  1  0
  3 24  1  0
  4 25  1  0
  9 26  1  0
 10 27  1  0
 12 28  1  0
 13 29  1  0
 14 30  1  0
 15 31  1  0
 17 32  1  0
M  CHG  2  19  -1  21  -1
M  END
>  <mol_id>  (16) 
2026-08-23-6tgu-s0-n100-r4-0016

>  <rmsd_to_ref>  (16) 
1.142857142858537

$$$$
6tgu.A
     RDKit          3D

 32 34  0  0  0  0  0  0  0  0999 V2000
    3.2587   21.2243   37.9471 C   0  0  0  0  0  0  0  0  0  0  0  0
    2.7770   20.5711   39.2455 C   0  0  0  0  0  0  0  0  0  0  0  0
    2.0227   21.2967   40.1649 C   0  0  0  0  0  0  0  0  0  0  0  0
    1.4070   20.6888   41.2638 C   0  0  0  0  0  0  0  0  0  0  0  0
    1.6788   19.3476   41.5704 C   0  0  0  0  0  0  0  0  0  0  0  0
    0.7350   17.3747   42.8667 C   0  0  0  0  0  0  0  0  0  0  0  0
    0.8044   15.1266   42.5245 C   0  0  0  0  0  0  0  0  0  0  0  0
    1.2647   13.8953   41.8818 C   0  0  0  0  0  0  0  0  0  0  0  0
    0.7029   12.6459   42.1808 C   0  0  0  0  0  0  0  0  0  0  0  0
    1.1327   11.4919   41.5331 C   0  0  0  0  0  0  0  0  0  0  0  0
    2.0991   11.6032   40.5512 C   0  0  0  0  0  0  0  0  0  0  0  0
    2.6773   12.8194   40.2200 C   0  0  0  0  0  0  0  0  0  0  0  0
    2.2419   13.9610   40.8873 C   0  0  0  0  0  0  0  0  0  0  0  0
   -0.1844   15.1727   43.4714 C   0  0  0  0  0  0  0  0  0  0  0  0
    2.4270   18.6001   40.6498 C   0  0  0  0  0  0  0  0  0  0  0  0
    2.9619   19.2212   39.5197 C   0  0  0  0  0  0  0  0  0  0  0  0
    1.0093   18.6945   42.6504 N   0  0  0  0  0  0  0  0  0  0  0  0
    1.2897   16.3818   42.0873 N   0  0  0  0  0  0  0  0  0  0  0  0
    2.7991   22.3756   37.6896 O   0  0  0  0  0  0  0  0  0  0  0  0
    4.0002   20.5393   37.2091 O   0  0  0  0  0  0  0  0  0  0  0  0
    3.6036   18.4591   38.5725 O   0  0  0  0  0  0  0  0  0  0  0  0
   -0.5914   16.8012   43.8591 S   0  0  0  0  0  0  0  0  0  0  0  0
    2.6149   10.1807   39.7076 Cl  0  0  0  0  0  0  0  0  0  0  0  0
    1.9079   22.3814   40.0221 H   0  0  0  0  0  0  0  0  0  0  0  0
    0.7080   21.2640   41.8889 H   0  0  0  0  0  0  0  0  0  0  0  0
   -0.0905   12.5770   42.9396 H   0  0  0  0  0  0  0  0  0  0  0  0
    0.7118   10.5105   41.7972 H   0  0  0  0  0  0  0  0  0  0  0  0
    3.4601   12.8805   39.4496 H   0  0  0  0  0  0  0  0  0  0  0  0
    2.6776   14.9364   40.6250 H   0  0  0  0  0  0  0  0  0  0  0  0
   -0.6557   14.2878   43.9239 H   0  0  0  0  0  0  0  0  0  0  0  0
    2.5923   17.5256   40.8178 H   0  0  0  0  0  0  0  0  0  0  0  0
    0.6770   19.3271   43.3922 H   0  0  0  0  0  0  0  0  0  0  0  0
  1  2  1  0
  1 19  1  0
  1 20  2  0
  2  3  1  0
  2 16  2  0
  3  4  2  0
  4  5  1  0
  5 15  2  0
  5 17  1  0
  6 17  1  0
  6 18  2  0
  6 22  1  0
  7  8  1  0
  7 14  2  0
  7 18  1  0
  8  9  1  0
  8 13  2  0
  9 10  2  0
 10 11  1  0
 11 12  2  0
 11 23  1  0
 12 13  1  0
 14 22  1  0
 15 16  1  0
 16 21  1  0
  3 24  1  0
  4 25  1  0
  9 26  1  0
 10 27  1  0
 12 28  1  0
 13 29  1  0
 14 30  1  0
 15 31  1  0
 17 32  1  0
M  CHG  2  19  -1  21  -1
M  END
>  <mol_id>  (17) 
2026-08-23-6tgu-s0-n100-r4-0017

>  <rmsd_to_ref>  (17) 
1.1887755102104098

$$$$
6tgu.A
     RDKit          3D

 32 34  0  0  0  0  0  0  0  0999 V2000
    1.8205   20.3651   36.5718 C   0  0  0  0  0  0  0  0  0  0  0  0
    1.5080   20.0307   37.9574 C   0  0  0  0  0  0  0  0  0  0  0  0
    0.9418   20.9970   38.7600 C   0  0  0  0  0  0  0  0  0  0  0  0
    0.6549   20.6751   40.0479 C   0  0  0  0  0  0  0  0  0  0  0  0
    0.8962   19.4281   40.6127 C   0  0  0  0  0  0  0  0  0  0  0  0
    0.8241   17.8917   42.5188 C   0  0  0  0  0  0  0  0  0  0  0  0
    1.3641   15.7814   43.0475 C   0  0  0  0  0  0  0  0  0  0  0  0
    1.9204   14.4963   42.6249 C   0  0  0  0  0  0  0  0  0  0  0  0
    2.3879   14.2763   41.3348 C   0  0  0  0  0  0  0  0  0  0  0  0
    2.9088   13.0537   40.9599 C   0  0  0  0  0  0  0  0  0  0  0  0
    2.9884   12.0016   41.8435 C   0  0  0  0  0  0  0  0  0  0  0  0
    2.5308   12.1993   43.1259 C   0  0  0  0  0  0  0  0  0  0  0  0
    2.0127   13.4246   43.4884 C   0  0  0  0  0  0  0  0  0  0  0  0
    0.9021   15.9776   44.3454 C   0  0  0  0  0  0  0  0  0  0  0  0
    1.4663   18.4921   39.7645 C   0  0  0  0  0  0  0  0  0  0  0  0
    1.7756   18.7767   38.4436 C   0  0  0  0  0  0  0  0  0  0  0  0
    0.5687   19.1833   41.9500 N   0  0  0  0  0  0  0  0  0  0  0  0
    1.2283   16.8669   42.3110 N   0  0  0  0  0  0  0  0  0  0  0  0
    2.3880   19.4258   35.7357 O   0  0  0  0  0  0  0  0  0  0  0  0
    1.5890   21.5150   36.0806 O   0  0  0  0  0  0  0  0  0  0  0  0
    2.3492   17.8000   37.6281 O   0  0  0  0  0  0  0  0  0  0  0  0
    0.3198   17.7151   44.3608 S   0  0  0  0  0  0  0  0  0  0  0  0
    3.6467   10.4450   41.3826 Cl  0  0  0  0  0  0  0  0  0  0  0  0
    0.7491   21.9715   38.3321 H   0  0  0  0  0  0  0  0  0  0  0  0
    0.2094   21.4411   40.6734 H   0  0  0  0  0  0  0  0  0  0  0  0
    2.3252   15.1122   40.6309 H   0  0  0  0  0  0  0  0  0  0  0  0
    3.2639   12.9182   39.9455 H   0  0  0  0  0  0  0  0  0  0  0  0
    2.5845   11.3878   43.8324 H   0  0  0  0  0  0  0  0  0  0  0  0
    1.6646   13.5358   44.5062 H   0  0  0  0  0  0  0  0  0  0  0  0
    0.8575   15.3149   45.2121 H   0  0  0  0  0  0  0  0  0  0  0  0
    1.6881   17.5081   40.1076 H   0  0  0  0  0  0  0  0  0  0  0  0
    0.1399   19.9684   42.4985 H   0  0  0  0  0  0  0  0  0  0  0  0
  1  2  1  0
  1 19  1  0
  1 20  2  0
  2  3  1  0
  2 16  2  0
  3  4  2  0
  4  5  1  0
  5 15  2  0
  5 17  1  0
  6 17  1  0
  6 18  2  0
  6 22  1  0
  7  8  1  0
  7 14  2  0
  7 18  1  0
  8  9  1  0
  8 13  2  0
  9 10  2  0
 10 11  1  0
 11 12  2  0
 11 23  1  0
 12 13  1  0
 14 22  1  0
 15 16  1  0
 16 21  1  0
  3 24  1  0
  4 25  1  0
  9 26  1  0
 10 27  1  0
 12 28  1  0
 13 29  1  0
 14 30  1  0
 15 31  1  0
 17 32  1  0
M  CHG  2  19  -1  21  -1
M  END
>  <mol_id>  (18) 
2026-08-23-6tgu-s0-n100-r4-0018

>  <rmsd_to_ref>  (18) 
1.234693877558122

$$$$
6tgu.A
     RDKit          3D

 32 34  0  0  0  0  0  0  0  0999 V2000
    3.2646   21.1428   38.3371 C   0  0  0  0  0  0  0  0  0  0  0  0
    2.4313   20.5248   39.4633 C   0  0  0  0  0  0  0  0  0  0  0  0
    1.2498   21.1314   39.8836 C   0  0  0  0  0  0  0  0  0  0  0  0
    0.3683   20.5042   40.7703 C   0  0  0  0  0  0  0  0  0  0  0  0
    0.7382   19.3085   41.4028 C   0  0  0  0  0  0  0  0  0  0  0  0
   -0.2624   17.3044   42.6052 C   0  0  0  0  0  0  0  0  0  0  0  0
    0.3564   15.1195   42.7439 C   0  0  0  0  0  0  0  0  0  0  0  0
    1.2572   13.9809   42.5619 C   0  0  0  0  0  0  0  0  0  0  0  0
    0.8660   12.6682   42.8619 C   0  0  0  0  0  0  0  0  0  0  0  0
    1.7271   11.5961   42.6495 C   0  0  0  0  0  0  0  0  0  0  0  0
    2.9680   11.8424   42.0928 C   0  0  0  0  0  0  0  0  0  0  0  0
    3.3931   13.1238   41.7759 C   0  0  0  0  0  0  0  0  0  0  0  0
    2.5214   14.1845   42.0064 C   0  0  0  0  0  0  0  0  0  0  0  0
   -0.9198   15.0161   43.2308 C   0  0  0  0  0  0  0  0  0  0  0  0
    1.9189   18.6792   40.9833 C   0  0  0  0  0  0  0  0  0  0  0  0
    2.7379   19.2961   40.0359 C   0  0  0  0  0  0  0  0  0  0  0  0
   -0.1753   18.6225   42.2609 N   0  0  0  0  0  0  0  0  0  0  0  0
    0.7336   16.4051   42.2888 N   0  0  0  0  0  0  0  0  0  0  0  0
    2.7421   22.1143   37.7155 O   0  0  0  0  0  0  0  0  0  0  0  0
    4.3540   20.5904   38.0693 O   0  0  0  0  0  0  0  0  0  0  0  0
    3.8367   18.6239   39.5555 O   0  0  0  0  0  0  0  0  0  0  0  0
   -1.7441   16.5251   43.1255 S   0  0  0  0  0  0  0  0  0  0  0  0
    4.0352   10.5128   41.7847 Cl  0  0  0  0  0  0  0  0  0  0  0  0
    1.0024   22.1347   39.5066 H   0  0  0  0  0  0  0  0  0  0  0  0
   -0.6170   20.9498   40.9718 H   0  0  0  0  0  0  0  0  0  0  0  0
   -0.1378   12.4830   43.2717 H   0  0  0  0  0  0  0  0  0  0  0  0
    1.4263   10.5730   42.9193 H   0  0  0  0  0  0  0  0  0  0  0  0
    4.3936   13.2977   41.3532 H   0  0  0  0  0  0  0  0  0  0  0  0
    2.8358   15.2056   41.7449 H   0  0  0  0  0  0  0  0  0  0  0  0
   -1.3597   14.0925   43.6351 H   0  0  0  0  0  0  0  0  0  0  0  0
    2.1994   17.7006   41.4001 H   0  0  0  0  0  0  0  0  0  0  0  0
   -0.8899   19.2252   42.6934 H   0  0  0  0  0  0  0  0  0  0  0  0
  1  2  1  0
  1 19  1  0
  1 20  2  0
  2  3  1  0
  2 16  2  0
  3  4  2  0
  4  5  1  0
  5 15  2  0
  5 17  1  0
  6 17  1  0
  6 18  2  0
  6 22  1  0
  7  8  1  0
  7 14  2  0
  7 18  1  0
  8  9  1  0
  8 13  2  0
  9 10  2  0
 10 11  1  0
 11 12  2  0
 11 23  1  0
 12 13  1  0
 14 22  1  0
 15 16  1  0
 16 21  1  0
  3 24  1  0
  4 25  1  0
  9 26  1  0
 10 27  1  0
 12 28  1  0
 13 29  1  0
 14 30  1  0
 15 31  1  0
 17 32  1  0
M  CHG  2  19  -1  21  -1
M  END
>  <mol_id>  (19) 
2026-08-23-6tgu-s0-n100-r4-0019

>  <rmsd_to_ref>  (19) 
1.2806122449025927

$$$$
6tgu.A
     RDKit          3D

 32 34  0  0  0  0  0  0  0  0999 V2000
    2.4637   20.2992   37.4523 C   0  0  0  0  0  0  0  0  0  0  0  0
    1.7562   19.7102   38.5868 C   0  0  0  0  0  0  0  0  0  0  0  0
    0.7242   20.4180   39.1511 C   0  0  0  0  0  0  0  0  0  0  0  0
    0.0416   19.8896   40.2179 C   0  0  0  0  0  0  0  0  0  0  0  0
    0.3566   18.6389   40.7657 C   0  0  0  0  0  0  0  0  0  0  0  0
   -0.0495   16.8756   42.4086 C   0  0  0  0  0  0  0  0  0  0  0  0
    0.7815   14.8372   42.9762 C   0  0  0  0  0  0  0  0  0  0  0  0
    1.7359   13.7655   42.7446 C   0  0  0  0  0  0  0  0  0  0  0  0
    1.7528   12.6267   43.5198 C   0  0  0  0  0  0  0  0  0  0  0  0
    2.6520   11.5981   43.3147 C   0  0  0  0  0  0  0  0  0  0  0  0
    3.5828   11.6857   42.3004 C   0  0  0  0  0  0  0  0  0  0  0  0
    3.5874   12.8150   41.5097 C   0  0  0  0  0  0  0  0  0  0  0  0
    2.6708   13.8418   41.7340 C   0  0  0  0  0  0  0  0  0  0  0  0
   -0.1878   14.7237   44.0477 C   0  0  0  0  0  0  0  0  0  0  0  0
    1.4002   17.9760   40.1583 C   0  0  0  0  0  0  0  0  0  0  0  0
    2.1035   18.4852   39.0836 C   0  0  0  0  0  0  0  0  0  0  0  0
   -0.3688   18.1268   41.8649 N   0  0  0  0  0  0  0  0  0  0  0  0
    0.6699   15.9376   42.3247 N   0  0  0  0  0  0  0  0  0  0  0  0
    3.5195   19.6134   36.8484 O   0  0  0  0  0  0  0  0  0  0  0  0
    2.1572   21.4344   36.9762 O   0  0  0  0  0  0  0  0  0  0  0  0
    3.1416   17.7858   38.5073 O   0  0  0  0  0  0  0  0  0  0  0  0
   -1.1181   16.3292   43.8830 S   0  0  0  0  0  0  0  0  0  0  0  0
    4.7038   10.3625   42.0731 Cl  0  0  0  0  0  0  0  0  0  0  0  0
    0.4253   21.3997   38.7740 H   0  0  0  0  0  0  0  0  0  0  0  0
   -0.7671   20.4654   40.6454 H   0  0  0  0  0  0  0  0  0  0  0  0
    1.0338   12.5129   44.3353 H   0  0  0  0  0  0  0  0  0  0  0  0
    2.6032   10.7343   43.9658 H   0  0  0  0  0  0  0  0  0  0  0  0
    4.3067   12.9046   40.7107 H   0  0  0  0  0  0  0  0  0  0  0  0
    2.6697   14.7442   41.1071 H   0  0  0  0  0  0  0  0  0  0  0  0
   -0.3637   13.9944   44.7353 H   0  0  0  0  0  0  0  0  0  0  0  0
    1.7137   17.0050   40.5129 H   0  0  0  0  0  0  0  0  0  0  0  0
   -1.1461   18.7398   42.2344 H   0  0  0  0  0  0  0  0  0  0  0  0
  1  2  1  0
  1 19  1  0
  1 20  2  0
  2  3  1  0
  2 16  2  0
  3  4  2  0
  4  5  1  0
  5 15  2  0
  5 17  1  0
  6 17  1  0
  6 18  2  0
  6 22  1  0
  7  8  1  0
  7 14  2  0
  7 18  1  0
  8  9  1  0
  8 13  2  0
  9 10  2  0
 10 11  1  0
 11 12  2  0
 11 23  1  0
 12 13  1  0
 14 22  1  0
 15 16  1  0
 16 21  1  0
  3 24  1  0
  4 25  1  0
  9 26  1  0
 10 27  1  0
 12 28  1  0
 13 29  1  0
 14 30  1  0
 15 31  1  0
 17 32  1  0
M  CHG  2  19  -1  21  -1
M  END
>  <mol_id>  (20) 
2026-08-23-6tgu-s0-n100-r4-0020

>  <rmsd_to_ref>  (20) 
1.3265306122503357

$$$$
6tgu.A
     RDKit          3D

 32 34  0  0  0  0  0  0  0  0999 V2000
    2.1753   19.1032   36.1257 C   0  0  0  0  0  0  0  0  0  0  0  0
    2.0171   19.2698   37.6396 C   0  0  0  0  0  0  0  0  0  0  0  0
    1.4538   20.4289   38.1685 C   0  0  0  0  0  0  0  0  0  0  0  0
    1.1194   20.5405   39.5221 C   0  0  0  0  0  0  0  0  0  0  0  0
    1.5064   19.5420   40.4276 C   0  0  0  0  0  0  0  0  0  0  0  0
    0.9513   18.6270   42.7337 C   0  0  0  0  0  0  0  0  0  0  0  0
    1.0357   16.5365   43.6271 C   0  0  0  0  0  0  0  0  0  0  0  0
    1.3938   15.1180   43.6543 C   0  0  0  0  0  0  0  0  0  0  0  0
    0.9627   14.2620   44.6778 C   0  0  0  0  0  0  0  0  0  0  0  0
    1.2868   12.9089   44.6663 C   0  0  0  0  0  0  0  0  0  0  0  0
    2.0089   12.4090   43.5991 C   0  0  0  0  0  0  0  0  0  0  0  0
    2.4503   13.2185   42.5632 C   0  0  0  0  0  0  0  0  0  0  0  0
    2.1255   14.5718   42.5986 C   0  0  0  0  0  0  0  0  0  0  0  0
    0.2776   17.1534   44.5868 C   0  0  0  0  0  0  0  0  0  0  0  0
    2.0644   18.3641   39.9104 C   0  0  0  0  0  0  0  0  0  0  0  0
    2.3126   18.2541   38.5410 C   0  0  0  0  0  0  0  0  0  0  0  0
    1.1173   19.6097   41.8006 N   0  0  0  0  0  0  0  0  0  0  0  0
    1.3616   17.3312   42.5027 N   0  0  0  0  0  0  0  0  0  0  0  0
    1.6237   19.9819   35.3999 O   0  0  0  0  0  0  0  0  0  0  0  0
    2.7642   18.0746   35.7271 O   0  0  0  0  0  0  0  0  0  0  0  0
    2.7616   17.0587   38.0318 O   0  0  0  0  0  0  0  0  0  0  0  0
   -0.1007   18.7704   44.1287 S   0  0  0  0  0  0  0  0  0  0  0  0
    2.3849   10.7184   43.5506 Cl  0  0  0  0  0  0  0  0  0  0  0  0
    1.2662   21.2829   37.5010 H   0  0  0  0  0  0  0  0  0  0  0  0
    0.5516   21.4132   39.8770 H   0  0  0  0  0  0  0  0  0  0  0  0
    0.3586   14.6667   45.5031 H   0  0  0  0  0  0  0  0  0  0  0  0
    0.9745   12.2503   45.4901 H   0  0  0  0  0  0  0  0  0  0  0  0
    3.0419   12.8020   41.7347 H   0  0  0  0  0  0  0  0  0  0  0  0
    2.4529   15.2251   41.7764 H   0  0  0  0  0  0  0  0  0  0  0  0
   -0.0465   16.6794   45.5251 H   0  0  0  0  0  0  0  0  0  0  0  0
    2.3063   17.5279   40.5829 H   0  0  0  0  0  0  0  0  0  0  0  0
    0.9302   20.5621   42.1452 H   0  0  0  0  0  0  0  0  0  0  0  0
  1  2  1  0
  1 19  1  0
  1 20  2  0
  2  3  1  0
  2 16  2  0
  3  4  2  0
  4  5  1  0
  5 15  2  0
  5 17  1  0
  6 17  1  0
  6 18  2  0
  6 22  1  0
  7  8  1  0
  7 14  2  0
  7 18  1  0
  8  9  1  0
  8 13  2  0
  9 10  2  0
 10 11  1  0
 11 12  2  0
 11 23  1  0
 12 13  1  0
 14 22  1  0
 15 16  1  0
 16 21  1  0
  3 24  1  0
  4 25  1  0
  9 26  1  0
 10 27  1  0
 12 28  1  0
 13 29  1  0
 14 30  1  0
 15 31  1  0
 17 32  1  0
M  CHG  2  19  -1  21  -1
M  END
>  <mol_id>  (21) 
2026-08-23-6tgu-s0-n100-r4-0021

>  <rmsd_to_ref>  (21) 
1.3724489795952697

$$$$
6tgu.A
     RDKit          3D

 32 34  0  0  0  0  0  0  0  0999 V2000
    2.5066   21.2049   37.3289 C   0  0  0  0  0  0  0  0  0  0  0  0
    1.8897   20.5104   38.4729 C   0  0  0  0  0  0  0  0  0  0  0  0
    0.7004   20.9887   38.9867 C   0  0  0  0  0  0  0  0  0  0  0  0
    0.1561   20.2986   40.0664 C   0  0  0  0  0  0  0  0  0  0  0  0
    0.7743   19.1811   40.6068 C   0  0  0  0  0  0  0  0  0  0  0  0
    0.7692   17.3813   42.3490 C   0  0  0  0  0  0  0  0  0  0  0  0
    1.4714   15.3649   43.0346 C   0  0  0  0  0  0  0  0  0  0  0  0
    1.4605   13.9057   42.8204 C   0  0  0  0  0  0  0  0  0  0  0  0
    0.7679   13.3113   41.7903 C   0  0  0  0  0  0  0  0  0  0  0  0
    0.7453   11.9418   41.5783 C   0  0  0  0  0  0  0  0  0  0  0  0
    1.4496   11.1291   42.4385 C   0  0  0  0  0  0  0  0  0  0  0  0
    2.1563   11.6948   43.4842 C   0  0  0  0  0  0  0  0  0  0  0  0
    2.1566   13.0585   43.6648 C   0  0  0  0  0  0  0  0  0  0  0  0
    2.1803   15.9448   44.0710 C   0  0  0  0  0  0  0  0  0  0  0  0
    1.9748   18.7349   40.0547 C   0  0  0  0  0  0  0  0  0  0  0  0
    2.5325   19.4063   38.9813 C   0  0  0  0  0  0  0  0  0  0  0  0
    0.1763   18.5057   41.7045 N   0  0  0  0  0  0  0  0  0  0  0  0
    0.8261   16.2212   42.2733 N   0  0  0  0  0  0  0  0  0  0  0  0
    1.9236   22.3298   36.7680 O   0  0  0  0  0  0  0  0  0  0  0  0
    3.5945   20.7568   36.8542 O   0  0  0  0  0  0  0  0  0  0  0  0
    3.7410   18.9306   38.4492 O   0  0  0  0  0  0  0  0  0  0  0  0
    1.8692   17.7141   43.8824 S   0  0  0  0  0  0  0  0  0  0  0  0
    1.4332    9.3845   42.1843 Cl  0  0  0  0  0  0  0  0  0  0  0  0
    0.1890   21.8648   38.5832 H   0  0  0  0  0  0  0  0  0  0  0  0
   -0.7813   20.6279   40.5138 H   0  0  0  0  0  0  0  0  0  0  0  0
    0.2069   13.9343   41.1009 H   0  0  0  0  0  0  0  0  0  0  0  0
    0.1732   11.5666   40.7434 H   0  0  0  0  0  0  0  0  0  0  0  0
    2.7168   11.0729   44.1711 H   0  0  0  0  0  0  0  0  0  0  0  0
    2.7255   13.4497   44.4963 H   0  0  0  0  0  0  0  0  0  0  0  0
    2.7908   15.5053   44.8395 H   0  0  0  0  0  0  0  0  0  0  0  0
    2.4916   17.8591   40.4526 H   0  0  0  0  0  0  0  0  0  0  0  0
   -0.7379   18.8232   42.0759 H   0  0  0  0  0  0  0  0  0  0  0  0
  1  2  1  0
  1 19  1  0
  1 20  2  0
  2  3  1  0
  2 16  2  0
  3  4  2  0
  4  5  1  0
  5 15  2  0
  5 17  1  0
  6 17  1  0
  6 18  2  0
  6 22  1  0
  7  8  1  0
  7 14  2  0
  7 18  1  0
  8  9  1  0
  8 13  2  0
  9 10  2  0
 10 11  1  0
 11 12  2  0
 11 23  1  0
 12 13  1  0
 14 22  1  0
 15 16  1  0
 16 21  1  0
  3 24  1  0
  4 25  1  0
  9 26  1  0
 10 27  1  0
 12 28  1  0
 13 29  1  0
 14 30  1  0
 15 31  1  0
 17 32  1  0
M  CHG  2  19  -1  21  -1
M  END
>  <mol_id>  (22) 
2026-08-23-6tgu-s0-n100-r4-0022

>  <rmsd_to_ref>  (22) 
1.4183673469417364

$$$$
6tgu.A
     RDKit          3D

 32 34  0  0  0  0  0  0  0  0999 V2000
    1.1860   20.5340   36.7593 C   0  0  0  0  0  0  0  0  0  0  0  0
    1.1387   20.0715   38.2183 C   0  0  0  0  0  0  0  0  0  0  0  0
    0.4211   20.7963   39.1671 C   0  0  0  0  0  0  0  0  0  0  0  0
    0.1970   20.3093   40.4590 C   0  0  0  0  0  0  0  0  0  0  0  0
    0.8436   19.1433   40.8939 C   0  0  0  0  0  0  0  0  0  0  0  0
    0.6810   17.3216   42.6598 C   0  0  0  0  0  0  0  0  0  0  0  0
    1.2329   15.1146   42.6572 C   0  0  0  0  0  0  0  0  0  0  0  0
    1.8488   13.9009   42.1198 C   0  0  0  0  0  0  0  0  0  0  0  0
    1.6794   12.6492   42.7285 C   0  0  0  0  0  0  0  0  0  0  0  0
    2.2463   11.5022   42.1817 C   0  0  0  0  0  0  0  0  0  0  0  0
    2.9480   11.6100   40.9958 C   0  0  0  0  0  0  0  0  0  0  0  0
    3.1349   12.8267   40.3573 C   0  0  0  0  0  0  0  0  0  0  0  0
    2.5695   13.9646   40.9262 C   0  0  0  0  0  0  0  0  0  0  0  0
    0.4646   15.1459   43.7908 C   0  0  0  0  0  0  0  0  0  0  0  0
    1.5607   18.3961   39.9486 C   0  0  0  0  0  0  0  0  0  0  0  0
    1.6987   18.8728   38.6437 C   0  0  0  0  0  0  0  0  0  0  0  0
    0.5759   18.5981   42.1871 N   0  0  0  0  0  0  0  0  0  0  0  0
    1.3016   16.3281   41.9328 N   0  0  0  0  0  0  0  0  0  0  0  0
    0.4170   21.4893   36.4443 O   0  0  0  0  0  0  0  0  0  0  0  0
    1.9165   19.8822   35.9814 O   0  0  0  0  0  0  0  0  0  0  0  0
    2.3130   18.0843   37.7001 O   0  0  0  0  0  0  0  0  0  0  0  0
   -0.2473   16.6993   44.0105 S   0  0  0  0  0  0  0  0  0  0  0  0
    3.6248   10.1840   40.2815 Cl  0  0  0  0  0  0  0  0  0  0  0  0
    0.0181   21.7822   38.8918 H   0  0  0  0  0  0  0  0  0  0  0  0
   -0.4879   20.8419   41.1353 H   0  0  0  0  0  0  0  0  0  0  0  0
    1.0887   12.5728   43.6533 H   0  0  0  0  0  0  0  0  0  0  0  0
    2.1382   10.5292   42.6832 H   0  0  0  0  0  0  0  0  0  0  0  0
    3.7152   12.8911   39.4251 H   0  0  0  0  0  0  0  0  0  0  0  0
    2.6935   14.9353   40.4239 H   0  0  0  0  0  0  0  0  0  0  0  0
    0.3212   14.2929   44.4704 H   0  0  0  0  0  0  0  0  0  0  0  0
    2.0139   17.4356   40.2348 H   0  0  0  0  0  0  0  0  0  0  0  0
    0.2477   19.2850   42.8809 H   0  0  0  0  0  0  0  0  0  0  0  0
  1  2  1  0
  1 19  1  0
  1 20  2  0
  2  3  1  0
  2 16  2  0
  3  4  2  0
  4  5  1  0
  5 15  2  0
  5 17  1  0
  6 17  1  0
  6 18  2  0
  6 22  1  0
  7  8  1  0
  7 14  2  0
  7 18  1  0
  8  9  1  0
  8 13  2  0
  9 10  2  0
 10 11  1  0
 11 12  2  0
 11 23  1  0
 12 13  1  0
 14 22  1  0
 15 16  1  0
 16 21  1  0
  3 24  1  0
  4 25  1  0
  9 26  1  0
 10 27  1  0
 12 28  1  0
 13 29  1  0
 14 30  1  0
 15 31  1  0
 17 32  1  0
M  CHG  2  19  -1  21  -1
M  END
>  <mol_id>  (23) 
2026-08-23-6tgu-s0-n100-r4-0023

>  <rmsd_to_ref>  (23) 
1.4642857142887284

$$$$
6tgu.A
     RDKit          3D

 32 34  0  0  0  0  0  0  0  0999 V2000
    4.1942   20.6979   37.0304 C   0  0  0  0  0  0  0  0  0  0  0  0
    3.3123   20.2514   38.1069 C   0  0  0  0  0  0  0  0  0  0  0  0
    2.1189   20.9380   38.2815 C   0  0  0  0  0  0  0  0  0  0  0  0
    1.2520   20.5374   39.3034 C   0  0  0  0  0  0  0  0  0  0  0  0
    1.5952   19.4597   40.1294 C   0  0  0  0  0  0  0  0  0  0  0  0
    1.0135   17.9170   42.0133 C   0  0  0  0  0  0  0  0  0  0  0  0
    1.2441   15.9219   43.0239 C   0  0  0  0  0  0  0  0  0  0  0  0
    0.9426   14.4957   43.0101 C   0  0  0  0  0  0  0  0  0  0  0  0
    1.4035   13.6587   44.0105 C   0  0  0  0  0  0  0  0  0  0  0  0
    1.1396   12.3043   44.0380 C   0  0  0  0  0  0  0  0  0  0  0  0
    0.3833   11.7335   43.0329 C   0  0  0  0  0  0  0  0  0  0  0  0
   -0.0908   12.5304   42.0246 C   0  0  0  0  0  0  0  0  0  0  0  0
    0.1880   13.8943   42.0176 C   0  0  0  0  0  0  0  0  0  0  0  0
    1.9906   16.5103   44.0230 C   0  0  0  0  0  0  0  0  0  0  0  0
    2.7890   18.7715   39.9554 C   0  0  0  0  0  0  0  0  0  0  0  0
    3.6531   19.1767   38.9312 C   0  0  0  0  0  0  0  0  0  0  0  0
    0.7173   19.0535   41.1702 N   0  0  0  0  0  0  0  0  0  0  0  0
    0.8465   16.7886   42.1118 N   0  0  0  0  0  0  0  0  0  0  0  0
    5.4026   20.0420   36.8178 O   0  0  0  0  0  0  0  0  0  0  0  0
    3.9044   21.6626   36.2777 O   0  0  0  0  0  0  0  0  0  0  0  0
    4.8723   18.5041   38.7231 O   0  0  0  0  0  0  0  0  0  0  0  0
    2.0764   18.2994   43.5830 S   0  0  0  0  0  0  0  0  0  0  0  0
    0.0170   10.0230   43.0133 Cl  0  0  0  0  0  0  0  0  0  0  0  0
    1.8271   21.7744   37.6587 H   0  0  0  0  0  0  0  0  0  0  0  0
    0.3008   21.0630   39.4630 H   0  0  0  0  0  0  0  0  0  0  0  0
    1.9933   14.0585   44.8099 H   0  0  0  0  0  0  0  0  0  0  0  0
    1.5301   11.6964   44.8529 H   0  0  0  0  0  0  0  0  0  0  0  0
   -0.6836   12.1434   41.2160 H   0  0  0  0  0  0  0  0  0  0  0  0
   -0.2001   14.5003   41.2079 H   0  0  0  0  0  0  0  0  0  0  0  0
    2.4883   16.0976   44.9506 H   0  0  0  0  0  0  0  0  0  0  0  0
    3.0616   17.9413   40.5864 H   0  0  0  0  0  0  0  0  0  0  0  0
   -0.1677   19.5959   41.3273 H   0  0  0  0  0  0  0  0  0  0  0  0
  1  2  1  0
  1 19  1  0
  1 20  2  0
  2  3  1  0
  2 16  2  0
  3  4  2  0
  4  5  1  0
  5 15  2  0
  5 17  1  0
  6 17  1  0
  6 18  2  0
  6 22  1  0
  7  8  1  0
  7 14  2  0
  7 18  1  0
  8  9  1  0
  8 13  2  0
  9 10  2  0
 10 11  1  0
 11 12  2  0
 11 23  1  0
 12 13  1  0
 14 22  1  0
 15 16  1  0
 16 21  1  0
  3 24  1  0
  4 25  1  0
  9 26  1  0
 10 27  1  0
 12 28  1  0
 13 29  1  0
 14 30  1  0
 15 31  1  0
 17 32  1  0
M  CHG  2  19  -1  21  -1
M  END
>  <mol_id>  (24) 
2026-08-23-6tgu-s0-n100-r4-0024

>  <rmsd_to_ref>  (24) 
1.5102040816345323

$$$$
6tgu.A
     RDKit          3D

 32 34  0  0  0  0  0  0  0  0999 V2000
    4.1949   19.0192   37.1925 C   0  0  0  0  0  0  0  0  0  0  0  0
    3.6575   19.0293   38.6263 C   0  0  0  0  0  0  0  0  0  0  0  0
    3.4377   20.2339   39.2908 C   0  0  0  0  0  0  0  0  0  0  0  0
    2.7742   20.2925   40.5207 C   0  0  0  0  0  0  0  0  0  0  0  0
    2.4627   19.1114   41.2097 C   0  0  0  0  0  0  0  0  0  0  0  0
    0.9308   18.2186   43.0317 C   0  0  0  0  0  0  0  0  0  0  0  0
   -0.0514   16.1945   43.3689 C   0  0  0  0  0  0  0  0  0  0  0  0
   -0.2780   14.7707   43.1184 C   0  0  0  0  0  0  0  0  0  0  0  0
   -1.2883   14.0523   43.7736 C   0  0  0  0  0  0  0  0  0  0  0  0
   -1.5084   12.7069   43.4955 C   0  0  0  0  0  0  0  0  0  0  0  0
   -0.7383   12.0959   42.5238 C   0  0  0  0  0  0  0  0  0  0  0  0
    0.2673   12.7701   41.8477 C   0  0  0  0  0  0  0  0  0  0  0  0
    0.4796   14.1128   42.1482 C   0  0  0  0  0  0  0  0  0  0  0  0
   -0.7763   16.9399   44.2607 C   0  0  0  0  0  0  0  0  0  0  0  0
    2.6673   17.8908   40.5505 C   0  0  0  0  0  0  0  0  0  0  0  0
    3.2607   17.8728   39.2869 C   0  0  0  0  0  0  0  0  0  0  0  0
    1.7290   19.1517   42.4349 N   0  0  0  0  0  0  0  0  0  0  0  0
    0.8746   16.9172   42.5801 N   0  0  0  0  0  0  0  0  0  0  0  0
    4.2626   20.1396   36.6066 O   0  0  0  0  0  0  0  0  0  0  0  0
    4.4463   17.9024   36.6893 O   0  0  0  0  0  0  0  0  0  0  0  0
    3.3608   16.6823   38.6068 O   0  0  0  0  0  0  0  0  0  0  0  0
   -0.3616   18.6084   44.1502 S   0  0  0  0  0  0  0  0  0  0  0  0
   -1.0282   10.4320   42.1378 Cl  0  0  0  0  0  0  0  0  0  0  0  0
    3.7971   21.1678   38.8340 H   0  0  0  0  0  0  0  0  0  0  0  0
    2.4962   21.2670   40.9485 H   0  0  0  0  0  0  0  0  0  0  0  0
   -1.9170   14.5606   44.5195 H   0  0  0  0  0  0  0  0  0  0  0  0
   -2.2798   12.1408   44.0381 H   0  0  0  0  0  0  0  0  0  0  0  0
    0.8816   12.2571   41.0931 H   0  0  0  0  0  0  0  0  0  0  0  0
    1.2618   14.6674   41.6091 H   0  0  0  0  0  0  0  0  0  0  0  0
   -1.5237   16.5281   44.9548 H   0  0  0  0  0  0  0  0  0  0  0  0
    2.3606   16.9487   41.0283 H   0  0  0  0  0  0  0  0  0  0  0  0
    1.8173   20.0352   42.9570 H   0  0  0  0  0  0  0  0  0  0  0  0
  1  2  1  0
  1 19  1  0
  1 20  2  0
  2  3  1  0
  2 16  2  0
  3  4  2  0
  4  5  1  0
  5 15  2  0
  5 17  1  0
  6 17  1  0
  6 18  2  0
  6 22  1  0
  7  8  1  0
  7 14  2  0
  7 18  1  0
  8  9  1  0
  8 13  2  0
  9 10  2  0
 10 11  1  0
 11 12  2  0
 11 23  1  0
 12 13  1  0
 14 22  1  0
 15 16  1  0
 16 21  1  0
  3 24  1  0
  4 25  1  0
  9 26  1  0
 10 27  1  0
 12 28  1  0
 13 29  1  0
 14 30  1  0
 15 31  1  0
 17 32  1  0
M  CHG  2  19  -1  21  -1
M  END
>  <mol_id>  (25) 
2026-08-23-6tgu-s0-n100-r4-0025

>  <rmsd_to_ref>  (25) 
1.556122448982941

$$$$
6tgu.A
     RDKit          3D

 32 34  0  0  0  0  0  0  0  0999 V2000
    2.5817   18.9983   35.9533 C   0  0  0  0  0  0  0  0  0  0  0  0
    2.2535   19.1959   37.3614 C   0  0  0  0  0  0  0  0  0  0  0  0
    2.1640   20.4825   37.8461 C   0  0  0  0  0  0  0  0  0  0  0  0
    1.8579   20.6550   39.1580 C   0  0  0  0  0  0  0  0  0  0  0  0
    1.6278   19.6130   40.0489 C   0  0  0  0  0  0  0  0  0  0  0  0
    1.0834   18.7968   42.2931 C   0  0  0  0  0  0  0  0  0  0  0  0
    0.7871   16.8682   43.3961 C   0  0  0  0  0  0  0  0  0  0  0  0
    0.7673   15.4059   43.3626 C   0  0  0  0  0  0  0  0  0  0  0  0
    1.0269   14.6850   42.2031 C   0  0  0  0  0  0  0  0  0  0  0  0
    1.0022   13.3044   42.1969 C   0  0  0  0  0  0  0  0  0  0  0  0
    0.7205   12.5826   43.3342 C   0  0  0  0  0  0  0  0  0  0  0  0
    0.4608   13.2779   44.4927 C   0  0  0  0  0  0  0  0  0  0  0  0
    0.4883   14.6564   44.4865 C   0  0  0  0  0  0  0  0  0  0  0  0
    0.5238   17.5680   44.5698 C   0  0  0  0  0  0  0  0  0  0  0  0
    1.7298   18.3393   39.5124 C   0  0  0  0  0  0  0  0  0  0  0  0
    2.0397   18.1165   38.1798 C   0  0  0  0  0  0  0  0  0  0  0  0
    1.3178   19.8825   41.3856 N   0  0  0  0  0  0  0  0  0  0  0  0
    1.0398   17.6807   42.3887 N   0  0  0  0  0  0  0  0  0  0  0  0
    2.6808   17.7259   35.4293 O   0  0  0  0  0  0  0  0  0  0  0  0
    2.7876   19.9705   35.1598 O   0  0  0  0  0  0  0  0  0  0  0  0
    2.1311   16.8143   37.6860 O   0  0  0  0  0  0  0  0  0  0  0  0
    0.6705   19.3302   44.0885 S   0  0  0  0  0  0  0  0  0  0  0  0
    0.6856   10.8311   43.3418 Cl  0  0  0  0  0  0  0  0  0  0  0  0
    2.3409   21.3019   37.1626 H   0  0  0  0  0  0  0  0  0  0  0  0
    1.7893   21.6708   39.5320 H   0  0  0  0  0  0  0  0  0  0  0  0
    1.2510   15.2579   41.2978 H   0  0  0  0  0  0  0  0  0  0  0  0
    1.2095   12.7755   41.2745 H   0  0  0  0  0  0  0  0  0  0  0  0
    0.2381   12.7307   45.3935 H   0  0  0  0  0  0  0  0  0  0  0  0
    0.2782   15.1621   45.4189 H   0  0  0  0  0  0  0  0  0  0  0  0
    0.2795   17.2332   45.5799 H   0  0  0  0  0  0  0  0  0  0  0  0
    1.5703   17.4775   40.1183 H   0  0  0  0  0  0  0  0  0  0  0  0
    1.2671   20.8881   41.6812 H   0  0  0  0  0  0  0  0  0  0  0  0
  1  2  1  0
  1 19  1  0
  1 20  2  0
  2  3  1  0
  2 16  2  0
  3  4  2  0
  4  5  1  0
  5 15  2  0
  5 17  1  0
  6 17  1  0
  6 18  2  0
  6 22  1  0
  7  8  1  0
  7 14  2  0
  7 18  1  0
  8  9  1  0
  8 13  2  0
  9 10  2  0
 10 11  1  0
 11 12  2  0
 11 23  1  0
 12 13  1  0
 14 22  1  0
 15 16  1  0
 16 21  1  0
  3 24  1  0
  4 25  1  0
  9 26  1  0
 10 27  1  0
 12 28  1  0
 13 29  1  0
 14 30  1  0
 15 31  1  0
 17 32  1  0
M  CHG  2  19  -1  21  -1
M  END
>  <mol_id>  (26) 
2026-08-23-6tgu-s0-n100-r4-0026

>  <rmsd_to_ref>  (26) 
1.6020408163326394

$$$$
6tgu.A
     RDKit          3D

 32 34  0  0  0  0  0  0  0  0999 V2000
    3.2607   18.6543   36.6107 C   0  0  0  0  0  0  0  0  0  0  0  0
    3.0239   18.7606   38.1198 C   0  0  0  0  0  0  0  0  0  0  0  0
    2.9600   20.0066   38.7396 C   0  0  0  0  0  0  0  0  0  0  0  0
    2.5593   20.1529   40.0717 C   0  0  0  0  0  0  0  0  0  0  0  0
    2.3765   19.0218   40.8803 C   0  0  0  0  0  0  0  0  0  0  0  0
    1.2313   18.2754   43.0238 C   0  0  0  0  0  0  0  0  0  0  0  0
    0.3087   16.3004   43.6749 C   0  0  0  0  0  0  0  0  0  0  0  0
    0.0159   14.8711   43.5627 C   0  0  0  0  0  0  0  0  0  0  0  0
   -0.8515   14.2181   44.4501 C   0  0  0  0  0  0  0  0  0  0  0  0
   -1.1423   12.8653   44.3049 C   0  0  0  0  0  0  0  0  0  0  0  0
   -0.5930   12.1796   43.2378 C   0  0  0  0  0  0  0  0  0  0  0  0
    0.2650   12.7874   42.3336 C   0  0  0  0  0  0  0  0  0  0  0  0
    0.5526   14.1390   42.5025 C   0  0  0  0  0  0  0  0  0  0  0  0
   -0.2107   17.1145   44.6464 C   0  0  0  0  0  0  0  0  0  0  0  0
    2.4264   17.7605   40.2697 C   0  0  0  0  0  0  0  0  0  0  0  0
    2.7522   17.6546   38.9163 C   0  0  0  0  0  0  0  0  0  0  0  0
    1.9058   19.1514   42.2230 N   0  0  0  0  0  0  0  0  0  0  0  0
    1.0665   16.9522   42.6734 N   0  0  0  0  0  0  0  0  0  0  0  0
    3.2247   19.7372   35.9555 O   0  0  0  0  0  0  0  0  0  0  0  0
    3.3894   17.5043   36.1367 O   0  0  0  0  0  0  0  0  0  0  0  0
    2.6960   16.4250   38.3042 O   0  0  0  0  0  0  0  0  0  0  0  0
    0.1969   18.7623   44.3529 S   0  0  0  0  0  0  0  0  0  0  0  0
   -0.9785   10.5046   43.0207 Cl  0  0  0  0  0  0  0  0  0  0  0  0
    3.2330   20.9031   38.1636 H   0  0  0  0  0  0  0  0  0  0  0  0
    2.3872   21.1573   40.4859 H   0  0  0  0  0  0  0  0  0  0  0  0
   -1.3094   14.7846   45.2743 H   0  0  0  0  0  0  0  0  0  0  0  0
   -1.7963   12.3516   45.0249 H   0  0  0  0  0  0  0  0  0  0  0  0
    0.7069   12.2161   41.5040 H   0  0  0  0  0  0  0  0  0  0  0  0
    1.2177   14.6411   41.7845 H   0  0  0  0  0  0  0  0  0  0  0  0
   -0.8084   16.7628   45.5003 H   0  0  0  0  0  0  0  0  0  0  0  0
    2.2090   16.8557   40.8562 H   0  0  0  0  0  0  0  0  0  0  0  0
    2.1102   20.0607   42.6615 H   0  0  0  0  0  0  0  0  0  0  0  0
  1  2  1  0
  1 19  1  0
  1 20  2  0
  2  3  1  0
  2 16  2  0
  3  4  2  0
  4  5  1  0
  5 15  2  0
  5 17  1  0
  6 17  1  0
  6 18  2  0
  6 22  1  0
  7  8  1  0
  7 14  2  0
  7 18  1  0
  8  9  1  0
  8 13  2  0
  9 10  2  0
 10 11  1  0
 11 12  2  0
 11 23  1  0
 12 13  1  0
 14 22  1  0
 15 16  1  0
 16 21  1  0
  3 24  1  0
  4 25  1  0
  9 26  1  0
 10 27  1  0
 12 28  1  0
 13 29  1  0
 14 30  1  0
 15 31  1  0
 17 32  1  0
M  CHG  2  19  -1  21  -1
M  END
>  <mol_id>  (27) 
2026-08-23-6tgu-s0-n100-r4-0027

>  <rmsd_to_ref>  (27) 
1.647959183674826

$$$$
6tgu.A
     RDKit          3D

 32 34  0  0  0  0  0  0  0  0999 V2000
    1.9048   19.9312   36.7613 C   0  0  0  0  0  0  0  0  0  0  0  0
    1.6089   19.7348   38.1832 C   0  0  0  0  0  0  0  0  0  0  0  0
    1.6588   18.4539   38.6602 C   0  0  0  0  0  0  0  0  0  0  0  0
    1.3817   18.2468   40.0042 C   0  0  0  0  0  0  0  0  0  0  0  0
    1.0615   19.2645   40.8718 C   0  0  0  0  0  0  0  0  0  0  0  0
    0.8132   17.7786   42.7879 C   0  0  0  0  0  0  0  0  0  0  0  0
    0.9653   15.5770   43.3170 C   0  0  0  0  0  0  0  0  0  0  0  0
    1.2234   14.2029   42.9219 C   0  0  0  0  0  0  0  0  0  0  0  0
    1.5543   13.8759   41.6290 C   0  0  0  0  0  0  0  0  0  0  0  0
    1.8056   12.6071   41.2065 C   0  0  0  0  0  0  0  0  0  0  0  0
    1.7303   11.5731   42.1077 C   0  0  0  0  0  0  0  0  0  0  0  0
    1.3968   11.8760   43.4253 C   0  0  0  0  0  0  0  0  0  0  0  0
    1.1446   13.1786   43.8337 C   0  0  0  0  0  0  0  0  0  0  0  0
    0.6090   15.9637   44.6902 C   0  0  0  0  0  0  0  0  0  0  0  0
    1.0305   20.5480   40.3091 C   0  0  0  0  0  0  0  0  0  0  0  0
    1.2972   20.7850   38.9951 C   0  0  0  0  0  0  0  0  0  0  0  0
    0.7744   19.0906   42.2420 N   0  0  0  0  0  0  0  0  0  0  0  0
    1.0002   16.6541   42.5720 N   0  0  0  0  0  0  0  0  0  0  0  0
    1.8609   21.2366   36.2446 O   0  0  0  0  0  0  0  0  0  0  0  0
    2.1952   18.9883   35.9856 O   0  0  0  0  0  0  0  0  0  0  0  0
    1.2545   22.0758   38.4806 O   0  0  0  0  0  0  0  0  0  0  0  0
    0.4048   17.6636   44.6673 S   0  0  0  0  0  0  0  0  0  0  0  0
    2.0290    9.9225   41.6833 Cl  0  0  0  0  0  0  0  0  0  0  0  0
    1.9082   17.5966   38.0201 H   0  0  0  0  0  0  0  0  0  0  0  0
    1.4290   17.2337   40.3466 H   0  0  0  0  0  0  0  0  0  0  0  0
    1.6171   14.6980   40.8993 H   0  0  0  0  0  0  0  0  0  0  0  0
    2.0580   12.4165   40.1882 H   0  0  0  0  0  0  0  0  0  0  0  0
    1.3341   11.0666   44.1475 H   0  0  0  0  0  0  0  0  0  0  0  0
    0.8942   13.3136   44.8732 H   0  0  0  0  0  0  0  0  0  0  0  0
    0.5177   15.1856   45.5224 H   0  0  0  0  0  0  0  0  0  0  0  0
    0.7839   21.4122   40.9333 H   0  0  0  0  0  0  0  0  0  0  0  0
    0.5445   19.9491   42.7938 H   0  0  0  0  0  0  0  0  0  0  0  0
  1  2  1  0
  1 19  1  0
  1 20  2  0
  2  3  1  0
  2 16  2  0
  3  4  2  0
  4  5  1  0
  5 15  2  0
  5 17  1  0
  6 17  1  0
  6 18  2  0
  6 22  1  0
  7  8  1  0
  7 14  2  0
  7 18  1  0
  8  9  1  0
  8 13  2  0
  9 10  2  0
 10 11  1  0
 11 12  2  0
 11 23  1  0
 12 13  1  0
 14 22  1  0
 15 16  1  0
 16 21  1  0
  3 24  1  0
  4 25  1  0
  9 26  1  0
 10 27  1  0
 12 28  1  0
 13 29  1  0
 14 30  1  0
 15 31  1  0
 17 32  1  0
M  CHG  2  19  -1  21  -1
M  END
>  <mol_id>  (28) 
2026-08-23-6tgu-s0-n100-r4-0028

>  <rmsd_to_ref>  (28) 
1.693877551022183

$$$$
6tgu.A
     RDKit          3D

 32 34  0  0  0  0  0  0  0  0999 V2000
    5.4455   19.2807   37.6034 C   0  0  0  0  0  0  0  0  0  0  0  0
    4.5859   19.3169   38.8700 C   0  0  0  0  0  0  0  0  0  0  0  0
    4.1608   20.5323   39.4017 C   0  0  0  0  0  0  0  0  0  0  0  0
    3.2245   20.6017   40.4386 C   0  0  0  0  0  0  0  0  0  0  0  0
    2.8143   19.4329   41.0962 C   0  0  0  0  0  0  0  0  0  0  0  0
    0.9394   18.5272   42.5549 C   0  0  0  0  0  0  0  0  0  0  0  0
   -0.0004   16.4653   42.7584 C   0  0  0  0  0  0  0  0  0  0  0  0
   -0.0959   15.0222   42.5359 C   0  0  0  0  0  0  0  0  0  0  0  0
   -1.1978   14.2740   42.9740 C   0  0  0  0  0  0  0  0  0  0  0  0
   -1.2841   12.9083   42.7223 C   0  0  0  0  0  0  0  0  0  0  0  0
   -0.2798   12.3041   41.9898 C   0  0  0  0  0  0  0  0  0  0  0  0
    0.8246   13.0072   41.5325 C   0  0  0  0  0  0  0  0  0  0  0  0
    0.8982   14.3706   41.8043 C   0  0  0  0  0  0  0  0  0  0  0  0
   -0.9483   17.2030   43.4169 C   0  0  0  0  0  0  0  0  0  0  0  0
    3.2242   18.2008   40.5669 C   0  0  0  0  0  0  0  0  0  0  0  0
    4.0985   18.1667   39.4790 C   0  0  0  0  0  0  0  0  0  0  0  0
    1.8118   19.4798   42.1131 N   0  0  0  0  0  0  0  0  0  0  0  0
    1.0510   17.2078   42.1706 N   0  0  0  0  0  0  0  0  0  0  0  0
    5.5976   20.3791   36.9922 O   0  0  0  0  0  0  0  0  0  0  0  0
    5.8595   18.1609   37.2310 O   0  0  0  0  0  0  0  0  0  0  0  0
    4.4105   16.9579   38.9034 O   0  0  0  0  0  0  0  0  0  0  0  0
   -0.5964   18.8867   43.3199 S   0  0  0  0  0  0  0  0  0  0  0  0
   -0.3938   10.6125   41.6334 Cl  0  0  0  0  0  0  0  0  0  0  0  0
    4.5742   21.4664   38.9936 H   0  0  0  0  0  0  0  0  0  0  0  0
    2.8091   21.5749   40.7388 H   0  0  0  0  0  0  0  0  0  0  0  0
   -2.0071   14.7748   43.5256 H   0  0  0  0  0  0  0  0  0  0  0  0
   -2.1347   12.3211   43.0988 H   0  0  0  0  0  0  0  0  0  0  0  0
    1.6222   12.5006   40.9693 H   0  0  0  0  0  0  0  0  0  0  0  0
    1.7589   14.9471   41.4343 H   0  0  0  0  0  0  0  0  0  0  0  0
   -1.8183   16.7771   43.9382 H   0  0  0  0  0  0  0  0  0  0  0  0
    2.8573   17.2624   41.0082 H   0  0  0  0  0  0  0  0  0  0  0  0
    1.7340   20.3868   42.5948 H   0  0  0  0  0  0  0  0  0  0  0  0
  1  2  1  0
  1 19  1  0
  1 20  2  0
  2  3  1  0
  2 16  2  0
  3  4  2  0
  4  5  1  0
  5 15  2  0
  5 17  1  0
  6 17  1  0
  6 18  2  0
  6 22  1  0
  7  8  1  0
  7 14  2  0
  7 18  1  0
  8  9  1  0
  8 13  2  0
  9 10  2  0
 10 11  1  0
 11 12  2  0
 11 23  1  0
 12 13  1  0
 14 22  1  0
 15 16  1  0
 16 21  1  0
  3 24  1  0
  4 25  1  0
  9 26  1  0
 10 27  1  0
 12 28  1  0
 13 29  1  0
 14 30  1  0
 15 31  1  0
 17 32  1  0
M  CHG  2  19  -1  21  -1
M  END
>  <mol_id>  (29) 
2026-08-23-6tgu-s0-n100-r4-0029

>  <rmsd_to_ref>  (29) 
1.7397959183753744

$$$$
6tgu.A
     RDKit          3D

 32 34  0  0  0  0  0  0  0  0999 V2000
    2.5251   21.8475   37.4063 C   0  0  0  0  0  0  0  0  0  0  0  0
    2.5221   20.8785   38.5066 C   0  0  0  0  0  0  0  0  0  0  0  0
    1.4192   20.1038   38.7951 C   0  0  0  0  0  0  0  0  0  0  0  0
    1.4772   19.2112   39.8527 C   0  0  0  0  0  0  0  0  0  0  0  0
    2.6171   19.0913   40.6135 C   0  0  0  0  0  0  0  0  0  0  0  0
    1.7869   17.2378   42.0827 C   0  0  0  0  0  0  0  0  0  0  0  0
    0.7354   15.2225   42.4610 C   0  0  0  0  0  0  0  0  0  0  0  0
    0.6591   13.7574   42.4645 C   0  0  0  0  0  0  0  0  0  0  0  0
   -0.4392   13.0643   42.8738 C   0  0  0  0  0  0  0  0  0  0  0  0
   -0.4743   11.6934   42.8732 C   0  0  0  0  0  0  0  0  0  0  0  0
    0.6240   10.9579   42.4492 C   0  0  0  0  0  0  0  0  0  0  0  0
    1.7209   11.6777   42.0408 C   0  0  0  0  0  0  0  0  0  0  0  0
    1.7859   13.0510   42.0299 C   0  0  0  0  0  0  0  0  0  0  0  0
   -0.4671   15.9735   42.9562 C   0  0  0  0  0  0  0  0  0  0  0  0
    3.7144   19.8937   40.2889 C   0  0  0  0  0  0  0  0  0  0  0  0
    3.6995   20.7898   39.2499 C   0  0  0  0  0  0  0  0  0  0  0  0
    2.7351   18.2029   41.7146 N   0  0  0  0  0  0  0  0  0  0  0  0
    1.6958   15.9341   42.0925 N   0  0  0  0  0  0  0  0  0  0  0  0
    1.3573   21.9565   36.6457 O   0  0  0  0  0  0  0  0  0  0  0  0
    3.5536   22.5332   37.1870 O   0  0  0  0  0  0  0  0  0  0  0  0
    4.8145   21.5789   38.9479 O   0  0  0  0  0  0  0  0  0  0  0  0
    0.0948   17.7102   42.7673 S   0  0  0  0  0  0  0  0  0  0  0  0
    0.6468    9.2162   42.4201 Cl  0  0  0  0  0  0  0  0  0  0  0  0
    0.5059   20.1927   38.1960 H   0  0  0  0  0  0  0  0  0  0  0  0
    0.6433   18.5751   40.1318 H   0  0  0  0  0  0  0  0  0  0  0  0
   -1.3124   13.5836   43.2125 H   0  0  0  0  0  0  0  0  0  0  0  0
   -1.3689   11.1953   43.2083 H   0  0  0  0  0  0  0  0  0  0  0  0
    2.6078   11.1527   41.6976 H   0  0  0  0  0  0  0  0  0  0  0  0
    2.6756   13.5892   41.6997 H   0  0  0  0  0  0  0  0  0  0  0  0
   -1.3287   15.6073   43.2904 H   0  0  0  0  0  0  0  0  0  0  0  0
    4.6171   19.8083   40.8747 H   0  0  0  0  0  0  0  0  0  0  0  0
    3.6063   18.2618   42.3177 H   0  0  0  0  0  0  0  0  0  0  0  0
  1  2  1  0
  1 19  1  0
  1 20  2  0
  2  3  1  0
  2 16  2  0
  3  4  2  0
  4  5  1  0
  5 15  2  0
  5 17  1  0
  6 17  1  0
  6 18  2  0
  6 22  1  0
  7  8  1  0
  7 14  2  0
  7 18  1  0
  8  9  1  0
  8 13  2  0
  9 10  2  0
 10 11  1  0
 11 12  2  0
 11 23  1  0
 12 13  1  0
 14 22  1  0
 15 16  1  0
 16 21  1  0
  3 24  1  0
  4 25  1  0
  9 26  1  0
 10 27  1  0
 12 28  1  0
 13 29  1  0
 14 30  1  0
 15 31  1  0
 17 32  1  0
M  CHG  2  19  -1  21  -1
M  END
>  <mol_id>  (30) 
2026-08-23-6tgu-s0-n100-r4-0030

>  <rmsd_to_ref>  (30) 
1.7857142857163286

$$$$
6tgu.A
     RDKit          3D

 32 34  0  0  0  0  0  0  0  0999 V2000
    5.2388   19.5779   37.2695 C   0  0  0  0  0  0  0  0  0  0  0  0
    4.6015   19.4559   38.6564 C   0  0  0  0  0  0  0  0  0  0  0  0
    4.4203   20.5842   39.4532 C   0  0  0  0  0  0  0  0  0  0  0  0
    3.6757   20.5450   40.6367 C   0  0  0  0  0  0  0  0  0  0  0  0
    3.2326   19.3172   41.1494 C   0  0  0  0  0  0  0  0  0  0  0  0
    1.5140   18.3334   42.7437 C   0  0  0  0  0  0  0  0  0  0  0  0
    0.3692   16.3674   42.7593 C   0  0  0  0  0  0  0  0  0  0  0  0
    0.0610   15.0073   42.3165 C   0  0  0  0  0  0  0  0  0  0  0  0
   -1.0421   14.2967   42.8106 C   0  0  0  0  0  0  0  0  0  0  0  0
   -1.3363   13.0169   42.3508 C   0  0  0  0  0  0  0  0  0  0  0  0
   -0.5434   12.4697   41.3597 C   0  0  0  0  0  0  0  0  0  0  0  0
    0.5535   13.1394   40.8389 C   0  0  0  0  0  0  0  0  0  0  0  0
    0.8381   14.4144   41.3200 C   0  0  0  0  0  0  0  0  0  0  0  0
   -0.3635   17.0539   43.6912 C   0  0  0  0  0  0  0  0  0  0  0  0
    3.3972   18.1736   40.3548 C   0  0  0  0  0  0  0  0  0  0  0  0
    4.0773   18.2626   39.1388 C   0  0  0  0  0  0  0  0  0  0  0  0
    2.4172   19.2660   42.3214 N   0  0  0  0  0  0  0  0  0  0  0  0
    1.3985   17.1052   42.1281 N   0  0  0  0  0  0  0  0  0  0  0  0
    5.4277   20.7524   36.8359 O   0  0  0  0  0  0  0  0  0  0  0  0
    5.4461   18.5143   36.6454 O   0  0  0  0  0  0  0  0  0  0  0  0
    4.1416   17.1597   38.3208 O   0  0  0  0  0  0  0  0  0  0  0  0
    0.1752   18.6852   43.8195 S   0  0  0  0  0  0  0  0  0  0  0  0
   -0.9219   10.8934   40.7483 Cl  0  0  0  0  0  0  0  0  0  0  0  0
    4.8769   21.5354   39.1421 H   0  0  0  0  0  0  0  0  0  0  0  0
    3.4373   21.4791   41.1663 H   0  0  0  0  0  0  0  0  0  0  0  0
   -1.6854   14.7586   43.5741 H   0  0  0  0  0  0  0  0  0  0  0  0
   -2.1830   12.4518   42.7678 H   0  0  0  0  0  0  0  0  0  0  0  0
    1.1827   12.6751   40.0653 H   0  0  0  0  0  0  0  0  0  0  0  0
    1.6944   14.9669   40.9058 H   0  0  0  0  0  0  0  0  0  0  0  0
   -1.1862   16.6211   44.2792 H   0  0  0  0  0  0  0  0  0  0  0  0
    2.9909   17.2076   40.6891 H   0  0  0  0  0  0  0  0  0  0  0  0
    2.5299   20.0695   42.9558 H   0  0  0  0  0  0  0  0  0  0  0  0
  1  2  1  0
  1 19  1  0
  1 20  2  0
  2  3  1  0
  2 16  2  0
  3  4  2  0
  4  5  1  0
  5 15  2  0
  5 17  1  0
  6 17  1  0
  6 18  2  0
  6 22  1  0
  7  8  1  0
  7 14  2  0
  7 18  1  0
  8  9  1  0
  8 13  2  0
  9 10  2  0
 10 11  1  0
 11 12  2  0
 11 23  1  0
 12 13  1  0
 14 22  1  0
 15 16  1  0
 16 21  1  0
  3 24  1  0
  4 25  1  0
  9 26  1  0
 10 27  1  0
 12 28  1  0
 13 29  1  0
 14 30  1  0
 15 31  1  0
 17 32  1  0
M  CHG  2  19  -1  21  -1
M  END
>  <mol_id>  (31) 
2026-08-23-6tgu-s0-n100-r4-0031

>  <rmsd_to_ref>  (31) 
1.8316326530644282

$$$$
6tgu.A
     RDKit          3D

 32 34  0  0  0  0  0  0  0  0999 V2000
    4.4782   18.1919   36.1557 C   0  0  0  0  0  0  0  0  0  0  0  0
    3.8845   18.4241   37.4684 C   0  0  0  0  0  0  0  0  0  0  0  0
    3.9526   19.6886   38.0114 C   0  0  0  0  0  0  0  0  0  0  0  0
    3.3969   19.8937   39.2336 C   0  0  0  0  0  0  0  0  0  0  0  0
    2.7604   18.9063   39.9768 C   0  0  0  0  0  0  0  0  0  0  0  0
    1.5619   18.1769   41.9843 C   0  0  0  0  0  0  0  0  0  0  0  0
    0.6320   16.3335   42.8569 C   0  0  0  0  0  0  0  0  0  0  0  0
    0.3207   14.9112   42.7167 C   0  0  0  0  0  0  0  0  0  0  0  0
    0.6848   14.1773   41.5941 C   0  0  0  0  0  0  0  0  0  0  0  0
    0.3794   12.8351   41.4851 C   0  0  0  0  0  0  0  0  0  0  0  0
   -0.2967   12.1658   42.4795 C   0  0  0  0  0  0  0  0  0  0  0  0
   -0.6660   12.8747   43.5993 C   0  0  0  0  0  0  0  0  0  0  0  0
   -0.3555   14.2146   43.6967 C   0  0  0  0  0  0  0  0  0  0  0  0
    0.2568   17.0473   43.9911 C   0  0  0  0  0  0  0  0  0  0  0  0
    2.7187   17.6529   39.3870 C   0  0  0  0  0  0  0  0  0  0  0  0
    3.2725   17.3984   38.1420 C   0  0  0  0  0  0  0  0  0  0  0  0
    2.2152   19.2064   41.2290 N   0  0  0  0  0  0  0  0  0  0  0  0
    1.2695   17.0947   41.9891 N   0  0  0  0  0  0  0  0  0  0  0  0
    4.4311   16.9401   35.5775 O   0  0  0  0  0  0  0  0  0  0  0  0
    5.0549   19.1143   35.4971 O   0  0  0  0  0  0  0  0  0  0  0  0
    3.2050   16.1184   37.5893 O   0  0  0  0  0  0  0  0  0  0  0  0
    0.8680   18.7465   43.6792 S   0  0  0  0  0  0  0  0  0  0  0  0
   -0.6912   10.4635   42.3555 Cl  0  0  0  0  0  0  0  0  0  0  0  0
    4.4454   20.4656   37.4428 H   0  0  0  0  0  0  0  0  0  0  0  0
    3.4546   20.8917   39.6543 H   0  0  0  0  0  0  0  0  0  0  0  0
    1.2226   14.7084   40.8023 H   0  0  0  0  0  0  0  0  0  0  0  0
    0.6789   12.2947   40.5953 H   0  0  0  0  0  0  0  0  0  0  0  0
   -1.1961   12.3686   44.3888 H   0  0  0  0  0  0  0  0  0  0  0  0
   -0.6648   14.7328   44.5940 H   0  0  0  0  0  0  0  0  0  0  0  0
   -0.2754   16.7506   44.8972 H   0  0  0  0  0  0  0  0  0  0  0  0
    2.2516   16.8326   39.8809 H   0  0  0  0  0  0  0  0  0  0  0  0
    2.3057   20.1923   41.5766 H   0  0  0  0  0  0  0  0  0  0  0  0
  1  2  1  0
  1 19  1  0
  1 20  2  0
  2  3  1  0
  2 16  2  0
  3  4  2  0
  4  5  1  0
  5 15  2  0
  5 17  1  0
  6 17  1  0
  6 18  2  0
  6 22  1  0
  7  8  1  0
  7 14  2  0
  7 18  1  0
  8  9  1  0
  8 13  2  0
  9 10  2  0
 10 11  1  0
 11 12  2  0
 11 23  1  0
 12 13  1  0
 14 22  1  0
 15 16  1  0
 16 21  1  0
  3 24  1  0
  4 25  1  0
  9 26  1  0
 10 27  1  0
 12 28  1  0
 13 29  1  0
 14 30  1  0
 15 31  1  0
 17 32  1  0
M  CHG  2  19  -1  21  -1
M  END
>  <mol_id>  (32) 
2026-08-23-6tgu-s0-n100-r4-0032

>  <rmsd_to_ref>  (32) 
1.8775510204124513

$$$$
6tgu.A
     RDKit          3D

 32 34  0  0  0  0  0  0  0  0999 V2000
    3.7887   19.3362   36.1948 C   0  0  0  0  0  0  0  0  0  0  0  0
    2.9008   19.2913   37.4414 C   0  0  0  0  0  0  0  0  0  0  0  0
    1.6466   19.8976   37.4387 C   0  0  0  0  0  0  0  0  0  0  0  0
    0.7333   19.7181   38.4828 C   0  0  0  0  0  0  0  0  0  0  0  0
    1.1258   19.0567   39.6555 C   0  0  0  0  0  0  0  0  0  0  0  0
    0.1607   17.8479   41.6732 C   0  0  0  0  0  0  0  0  0  0  0  0
    0.9142   16.1167   42.9423 C   0  0  0  0  0  0  0  0  0  0  0  0
    1.9047   15.1468   43.4108 C   0  0  0  0  0  0  0  0  0  0  0  0
    1.5797   14.1355   44.3261 C   0  0  0  0  0  0  0  0  0  0  0  0
    2.5288   13.2029   44.7326 C   0  0  0  0  0  0  0  0  0  0  0  0
    3.7954   13.2627   44.1824 C   0  0  0  0  0  0  0  0  0  0  0  0
    4.1578   14.2422   43.2702 C   0  0  0  0  0  0  0  0  0  0  0  0
    3.1972   15.1732   42.8846 C   0  0  0  0  0  0  0  0  0  0  0  0
   -0.3909   16.1398   43.3577 C   0  0  0  0  0  0  0  0  0  0  0  0
    2.3807   18.4313   39.6706 C   0  0  0  0  0  0  0  0  0  0  0  0
    3.2382   18.5646   38.5770 C   0  0  0  0  0  0  0  0  0  0  0  0
    0.1874   18.8090   40.7040 N   0  0  0  0  0  0  0  0  0  0  0  0
    1.2414   17.0245   41.9075 N   0  0  0  0  0  0  0  0  0  0  0  0
    3.2592   19.7952   35.1402 O   0  0  0  0  0  0  0  0  0  0  0  0
    4.9338   18.8440   36.2963 O   0  0  0  0  0  0  0  0  0  0  0  0
    4.4202   17.8629   38.5585 O   0  0  0  0  0  0  0  0  0  0  0  0
   -1.3047   17.2885   42.4560 S   0  0  0  0  0  0  0  0  0  0  0  0
    4.9759   12.0832   44.6482 Cl  0  0  0  0  0  0  0  0  0  0  0  0
    1.3657   20.5374   36.5890 H   0  0  0  0  0  0  0  0  0  0  0  0
   -0.2948   20.0964   38.3839 H   0  0  0  0  0  0  0  0  0  0  0  0
    0.5578   14.0786   44.7292 H   0  0  0  0  0  0  0  0  0  0  0  0
    2.2763   12.4334   45.4770 H   0  0  0  0  0  0  0  0  0  0  0  0
    5.1783   14.2826   42.8616 H   0  0  0  0  0  0  0  0  0  0  0  0
    3.4627   15.9467   42.1489 H   0  0  0  0  0  0  0  0  0  0  0  0
   -0.8008   15.5088   44.1601 H   0  0  0  0  0  0  0  0  0  0  0  0
    2.6891   17.8364   40.5429 H   0  0  0  0  0  0  0  0  0  0  0  0
   -0.6038   19.4678   40.7337 H   0  0  0  0  0  0  0  0  0  0  0  0
  1  2  1  0
  1 19  1  0
  1 20  2  0
  2  3  1  0
  2 16  2  0
  3  4  2  0
  4  5  1  0
  5 15  2  0
  5 17  1  0
  6 17  1  0
  6 18  2  0
  6 22  1  0
  7  8  1  0
  7 14  2  0
  7 18  1  0
  8  9  1  0
  8 13  2  0
  9 10  2  0
 10 11  1  0
 11 12  2  0
 11 23  1  0
 12 13  1  0
 14 22  1  0
 15 16  1  0
 16 21  1  0
  3 24  1  0
  4 25  1  0
  9 26  1  0
 10 27  1  0
 12 28  1  0
 13 29  1  0
 14 30  1  0
 15 31  1  0
 17 32  1  0
M  CHG  2  19  -1  21  -1
M  END
>  <mol_id>  (33) 
2026-08-23-6tgu-s0-n100-r4-0033

>  <rmsd_to_ref>  (33) 
1.9234693877558033

$$$$
6tgu.A
     RDKit          3D

 32 34  0  0  0  0  0  0  0  0999 V2000
    3.0354   20.6379   37.1757 C   0  0  0  0  0  0  0  0  0  0  0  0
    3.1677   19.7739   38.3530 C   0  0  0  0  0  0  0  0  0  0  0  0
    4.3907   19.6971   38.9790 C   0  0  0  0  0  0  0  0  0  0  0  0
    4.4707   18.8671   40.0912 C   0  0  0  0  0  0  0  0  0  0  0  0
    3.3551   18.1513   40.5415 C   0  0  0  0  0  0  0  0  0  0  0  0
    2.4366   16.4822   42.1037 C   0  0  0  0  0  0  0  0  0  0  0  0
    1.0105   14.7059   42.4903 C   0  0  0  0  0  0  0  0  0  0  0  0
    0.6692   13.2615   42.3598 C   0  0  0  0  0  0  0  0  0  0  0  0
   -0.4935   12.7681   42.8917 C   0  0  0  0  0  0  0  0  0  0  0  0
   -0.7390   11.4198   42.7390 C   0  0  0  0  0  0  0  0  0  0  0  0
    0.1168   10.5577   42.0861 C   0  0  0  0  0  0  0  0  0  0  0  0
    1.2864   11.0523   41.5509 C   0  0  0  0  0  0  0  0  0  0  0  0
    1.5410   12.3961   41.6978 C   0  0  0  0  0  0  0  0  0  0  0  0
    0.1457   15.5565   43.1754 C   0  0  0  0  0  0  0  0  0  0  0  0
    2.1330   18.2644   39.8695 C   0  0  0  0  0  0  0  0  0  0  0  0
    2.0457   19.0845   38.7661 C   0  0  0  0  0  0  0  0  0  0  0  0
    3.4579   17.3043   41.7068 N   0  0  0  0  0  0  0  0  0  0  0  0
    2.0814   15.2173   42.0076 N   0  0  0  0  0  0  0  0  0  0  0  0
    4.1362   21.3701   36.6944 O   0  0  0  0  0  0  0  0  0  0  0  0
    1.8986   20.7120   36.5958 O   0  0  0  0  0  0  0  0  0  0  0  0
    0.8157   19.1640   38.1342 O   0  0  0  0  0  0  0  0  0  0  0  0
    0.9468   17.1851   43.1062 S   0  0  0  0  0  0  0  0  0  0  0  0
   -0.2451    8.8356   41.9196 Cl  0  0  0  0  0  0  0  0  0  0  0  0
    5.2743   20.2448   38.6471 H   0  0  0  0  0  0  0  0  0  0  0  0
    5.4075   18.7490   40.6471 H   0  0  0  0  0  0  0  0  0  0  0  0
   -1.2019   13.3856   43.4095 H   0  0  0  0  0  0  0  0  0  0  0  0
   -1.6588   11.0487   43.1642 H   0  0  0  0  0  0  0  0  0  0  0  0
    1.9999   10.4182   41.0247 H   0  0  0  0  0  0  0  0  0  0  0  0
    2.4694   12.7573   41.2665 H   0  0  0  0  0  0  0  0  0  0  0  0
   -0.8589   15.3555   43.6923 H   0  0  0  0  0  0  0  0  0  0  0  0
    1.2482   17.7150   40.2055 H   0  0  0  0  0  0  0  0  0  0  0  0
    4.3510   17.3419   42.2454 H   0  0  0  0  0  0  0  0  0  0  0  0
  1  2  1  0
  1 19  1  0
  1 20  2  0
  2  3  1  0
  2 16  2  0
  3  4  2  0
  4  5  1  0
  5 15  2  0
  5 17  1  0
  6 17  1  0
  6 18  2  0
  6 22  1  0
  7  8  1  0
  7 14  2  0
  7 18  1  0
  8  9  1  0
  8 13  2  0
  9 10  2  0
 10 11  1  0
 11 12  2  0
 11 23  1  0
 12 13  1  0
 14 22  1  0
 15 16  1  0
 16 21  1  0
  3 24  1  0
  4 25  1  0
  9 26  1  0
 10 27  1  0
 12 28  1  0
 13 29  1  0
 14 30  1  0
 15 31  1  0
 17 32  1  0
M  CHG  2  19  -1  21  -1
M  END
>  <mol_id>  (34) 
2026-08-23-6tgu-s0-n100-r4-0034

>  <rmsd_to_ref>  (34) 
1.9693877551045293

$$$$
6tgu.A
     RDKit          3D

 32 34  0  0  0  0  0  0  0  0999 V2000
    5.6703   19.7283   37.9690 C   0  0  0  0  0  0  0  0  0  0  0  0
    4.6164   19.6745   39.0785 C   0  0  0  0  0  0  0  0  0  0  0  0
    4.0841   20.8489   39.6059 C   0  0  0  0  0  0  0  0  0  0  0  0
    2.9910   20.8417   40.4785 C   0  0  0  0  0  0  0  0  0  0  0  0
    2.5056   19.6291   40.9892 C   0  0  0  0  0  0  0  0  0  0  0  0
    0.4398   18.6110   42.0658 C   0  0  0  0  0  0  0  0  0  0  0  0
   -0.4748   16.5293   41.9892 C   0  0  0  0  0  0  0  0  0  0  0  0
   -0.5012   15.1020   41.6680 C   0  0  0  0  0  0  0  0  0  0  0  0
   -1.6427   14.3145   41.8749 C   0  0  0  0  0  0  0  0  0  0  0  0
   -1.6569   12.9664   41.5310 C   0  0  0  0  0  0  0  0  0  0  0  0
   -0.5341   12.4216   40.9369 C   0  0  0  0  0  0  0  0  0  0  0  0
    0.6139   13.1653   40.7088 C   0  0  0  0  0  0  0  0  0  0  0  0
    0.6124   14.5097   41.0703 C   0  0  0  0  0  0  0  0  0  0  0  0
   -1.5329   17.2127   42.5275 C   0  0  0  0  0  0  0  0  0  0  0  0
    3.0229   18.4378   40.4607 C   0  0  0  0  0  0  0  0  0  0  0  0
    4.0623   18.4825   39.5297 C   0  0  0  0  0  0  0  0  0  0  0  0
    1.3509   19.5999   41.8300 N   0  0  0  0  0  0  0  0  0  0  0  0
    0.6412   17.3199   41.6263 N   0  0  0  0  0  0  0  0  0  0  0  0
    5.8950   20.8647   37.4579 O   0  0  0  0  0  0  0  0  0  0  0  0
    6.1637   18.6393   37.6026 O   0  0  0  0  0  0  0  0  0  0  0  0
    4.4900   17.3161   38.9411 O   0  0  0  0  0  0  0  0  0  0  0  0
   -1.2072   18.9033   42.5905 S   0  0  0  0  0  0  0  0  0  0  0  0
   -0.5516   10.7545   40.4658 Cl  0  0  0  0  0  0  0  0  0  0  0  0
    4.5374   21.8117   39.3274 H   0  0  0  0  0  0  0  0  0  0  0  0
    2.5110   21.7892   40.7649 H   0  0  0  0  0  0  0  0  0  0  0  0
   -2.5415   14.7699   42.3163 H   0  0  0  0  0  0  0  0  0  0  0  0
   -2.5440   12.3465   41.7279 H   0  0  0  0  0  0  0  0  0  0  0  0
    1.5031   12.7046   40.2537 H   0  0  0  0  0  0  0  0  0  0  0  0
    1.5087   15.1186   40.8808 H   0  0  0  0  0  0  0  0  0  0  0  0
   -2.4661   16.7445   42.8736 H   0  0  0  0  0  0  0  0  0  0  0  0
    2.6102   17.4691   40.7792 H   0  0  0  0  0  0  0  0  0  0  0  0
    1.1761   20.4739   42.3463 H   0  0  0  0  0  0  0  0  0  0  0  0
  1  2  1  0
  1 19  1  0
  1 20  2  0
  2  3  1  0
  2 16  2  0
  3  4  2  0
  4  5  1  0
  5 15  2  0
  5 17  1  0
  6 17  1  0
  6 18  2  0
  6 22  1  0
  7  8  1  0
  7 14  2  0
  7 18  1  0
  8  9  1  0
  8 13  2  0
  9 10  2  0
 10 11  1  0
 11 12  2  0
 11 23  1  0
 12 13  1  0
 14 22  1  0
 15 16  1  0
 16 21  1  0
  3 24  1  0
  4 25  1  0
  9 26  1  0
 10 27  1  0
 12 28  1  0
 13 29  1  0
 14 30  1  0
 15 31  1  0
 17 32  1  0
M  CHG  2  19  -1  21  -1
M  END
>  <mol_id>  (35) 
2026-08-23-6tgu-s0-n100-r4-0035

>  <rmsd_to_ref>  (35) 
2.0153061224506015

$$$$
6tgu.A
     RDKit          3D

 32 34  0  0  0  0  0  0  0  0999 V2000
    2.9911   22.3203   39.4550 C   0  0  0  0  0  0  0  0  0  0  0  0
    2.1613   21.2156   39.9315 C   0  0  0  0  0  0  0  0  0  0  0  0
    0.7995   21.2815   39.6725 C   0  0  0  0  0  0  0  0  0  0  0  0
   -0.0238   20.2412   40.1156 C   0  0  0  0  0  0  0  0  0  0  0  0
    0.5302   19.1572   40.8081 C   0  0  0  0  0  0  0  0  0  0  0  0
    0.2345   16.9431   41.9384 C   0  0  0  0  0  0  0  0  0  0  0  0
    1.0945   14.9687   42.5846 C   0  0  0  0  0  0  0  0  0  0  0  0
    1.5618   13.6449   42.1921 C   0  0  0  0  0  0  0  0  0  0  0  0
    2.0373   12.7477   43.1317 C   0  0  0  0  0  0  0  0  0  0  0  0
    2.4865   11.4844   42.8046 C   0  0  0  0  0  0  0  0  0  0  0  0
    2.4711   11.0723   41.4863 C   0  0  0  0  0  0  0  0  0  0  0  0
    2.0073   11.9330   40.5269 C   0  0  0  0  0  0  0  0  0  0  0  0
    1.5591   13.2027   40.8803 C   0  0  0  0  0  0  0  0  0  0  0  0
    1.0951   15.3944   43.8963 C   0  0  0  0  0  0  0  0  0  0  0  0
    1.8930   19.0899   41.0676 C   0  0  0  0  0  0  0  0  0  0  0  0
    2.7125   20.1338   40.6220 C   0  0  0  0  0  0  0  0  0  0  0  0
   -0.3052   18.1012   41.2619 N   0  0  0  0  0  0  0  0  0  0  0  0
    0.6280   15.8835   41.7558 N   0  0  0  0  0  0  0  0  0  0  0  0
    4.3617   22.2999   39.6926 O   0  0  0  0  0  0  0  0  0  0  0  0
    2.5134   23.3020   38.8312 O   0  0  0  0  0  0  0  0  0  0  0  0
    4.0987   20.1018   40.8654 O   0  0  0  0  0  0  0  0  0  0  0  0
    0.4151   17.1084   43.8567 S   0  0  0  0  0  0  0  0  0  0  0  0
    3.0286    9.4837   41.0107 Cl  0  0  0  0  0  0  0  0  0  0  0  0
    0.3431   22.1064   39.1398 H   0  0  0  0  0  0  0  0  0  0  0  0
   -1.1050   20.2679   39.9234 H   0  0  0  0  0  0  0  0  0  0  0  0
    2.0668   13.0250   44.1657 H   0  0  0  0  0  0  0  0  0  0  0  0
    2.8493   10.8223   43.5895 H   0  0  0  0  0  0  0  0  0  0  0  0
    1.9717   11.6689   39.4858 H   0  0  0  0  0  0  0  0  0  0  0  0
    1.1974   13.8623   40.1007 H   0  0  0  0  0  0  0  0  0  0  0  0
    1.4128   14.8987   44.8616 H   0  0  0  0  0  0  0  0  0  0  0  0
    2.3281   18.2599   41.6000 H   0  0  0  0  0  0  0  0  0  0  0  0
   -1.3402   18.1683   41.0999 H   0  0  0  0  0  0  0  0  0  0  0  0
  1  2  1  0
  1 19  1  0
  1 20  2  0
  2  3  1  0
  2 16  2  0
  3  4  2  0
  4  5  1  0
  5 15  2  0
  5 17  1  0
  6 17  1  0
  6 18  2  0
  6 22  1  0
  7  8  1  0
  7 14  2  0
  7 18  1  0
  8  9  1  0
  8 13  2  0
  9 10  2  0
 10 11  1  0
 11 12  2  0
 11 23  1  0
 12 13  1  0
 14 22  1  0
 15 16  1  0
 16 21  1  0
  3 24  1  0
  4 25  1  0
  9 26  1  0
 10 27  1  0
 12 28  1  0
 13 29  1  0
 14 30  1  0
 15 31  1  0
 17 32  1  0
M  CHG  2  19  -1  21  -1
M  END
>  <mol_id>  (36) 
2026-08-23-6tgu-s0-n100-r4-0036

>  <rmsd_to_ref>  (36) 
2.061224489796195

$$$$
6tgu.A
     RDKit          3D

 32 34  0  0  0  0  0  0  0  0999 V2000
    0.6687   20.3592   36.5694 C   0  0  0  0  0  0  0  0  0  0  0  0
    0.7706   19.9332   38.0367 C   0  0  0  0  0  0  0  0  0  0  0  0
   -0.0275   20.5371   39.0056 C   0  0  0  0  0  0  0  0  0  0  0  0
   -0.1018   20.0502   40.3147 C   0  0  0  0  0  0  0  0  0  0  0  0
    0.7678   19.0349   40.7387 C   0  0  0  0  0  0  0  0  0  0  0  0
    1.0217   17.2600   42.5410 C   0  0  0  0  0  0  0  0  0  0  0  0
    1.9726   15.1932   42.5502 C   0  0  0  0  0  0  0  0  0  0  0  0
    2.7791   14.1007   42.0053 C   0  0  0  0  0  0  0  0  0  0  0  0
    2.8710   12.8551   42.6425 C   0  0  0  0  0  0  0  0  0  0  0  0
    3.6167   11.8188   42.0894 C   0  0  0  0  0  0  0  0  0  0  0  0
    4.2346   12.0239   40.8702 C   0  0  0  0  0  0  0  0  0  0  0  0
    4.1652   13.2376   40.2030 C   0  0  0  0  0  0  0  0  0  0  0  0
    3.4236   14.2658   40.7783 C   0  0  0  0  0  0  0  0  0  0  0  0
    1.2612   15.1112   43.7179 C   0  0  0  0  0  0  0  0  0  0  0  0
    1.5697   18.4089   39.7737 C   0  0  0  0  0  0  0  0  0  0  0  0
    1.5608   18.8696   38.4558 C   0  0  0  0  0  0  0  0  0  0  0  0
    0.6616   18.4827   42.0521 N   0  0  0  0  0  0  0  0  0  0  0  0
    1.7839   16.3798   41.8028 N   0  0  0  0  0  0  0  0  0  0  0  0
   -0.2769   21.1480   36.2746 O   0  0  0  0  0  0  0  0  0  0  0  0
    1.4732   19.8337   35.7693 O   0  0  0  0  0  0  0  0  0  0  0  0
    2.2697   18.1841   37.4979 O   0  0  0  0  0  0  0  0  0  0  0  0
    0.2838   16.5117   43.9442 S   0  0  0  0  0  0  0  0  0  0  0  0
    5.1328   10.7295   40.1494 Cl  0  0  0  0  0  0  0  0  0  0  0  0
   -0.6177   21.4244   38.7327 H   0  0  0  0  0  0  0  0  0  0  0  0
   -0.8438   20.4644   41.0131 H   0  0  0  0  0  0  0  0  0  0  0  0
    2.3450   12.6946   43.5952 H   0  0  0  0  0  0  0  0  0  0  0  0
    3.7125   10.8556   42.6119 H   0  0  0  0  0  0  0  0  0  0  0  0
    4.6830   13.3842   39.2436 H   0  0  0  0  0  0  0  0  0  0  0  0
    3.3438   15.2296   40.2542 H   0  0  0  0  0  0  0  0  0  0  0  0
    1.3077   14.2639   44.4179 H   0  0  0  0  0  0  0  0  0  0  0  0
    2.2050   17.5560   40.0546 H   0  0  0  0  0  0  0  0  0  0  0  0
    0.2419   19.1147   42.7487 H   0  0  0  0  0  0  0  0  0  0  0  0
  1  2  1  0
  1 19  1  0
  1 20  2  0
  2  3  1  0
  2 16  2  0
  3  4  2  0
  4  5  1  0
  5 15  2  0
  5 17  1  0
  6 17  1  0
  6 18  2  0
  6 22  1  0
  7  8  1  0
  7 14  2  0
  7 18  1  0
  8  9  1  0
  8 13  2  0
  9 10  2  0
 10 11  1  0
 11 12  2  0
 11 23  1  0
 12 13  1  0
 14 22  1  0
 15 16  1  0
 16 21  1  0
  3 24  1  0
  4 25  1  0
  9 26  1  0
 10 27  1  0
 12 28  1  0
 13 29  1  0
 14 30  1  0
 15 31  1  0
 17 32  1  0
M  CHG  2  19  -1  21  -1
M  END
>  <mol_id>  (37) 
2026-08-23-6tgu-s0-n100-r4-0037

>  <rmsd_to_ref>  (37) 
2.10714285714693

$$$$
6tgu.A
     RDKit          3D

 32 34  0  0  0  0  0  0  0  0999 V2000
    5.8423   19.6806   38.5725 C   0  0  0  0  0  0  0  0  0  0  0  0
    4.5035   19.6284   39.1429 C   0  0  0  0  0  0  0  0  0  0  0  0
    3.8472   20.7917   39.4747 C   0  0  0  0  0  0  0  0  0  0  0  0
    2.5835   20.7331   40.0127 C   0  0  0  0  0  0  0  0  0  0  0  0
    1.9212   19.5213   40.2427 C   0  0  0  0  0  0  0  0  0  0  0  0
   -0.0416   18.2880   41.0292 C   0  0  0  0  0  0  0  0  0  0  0  0
   -0.7833   16.1693   41.2550 C   0  0  0  0  0  0  0  0  0  0  0  0
   -0.5336   14.7416   41.0866 C   0  0  0  0  0  0  0  0  0  0  0  0
   -1.4875   13.8073   41.4544 C   0  0  0  0  0  0  0  0  0  0  0  0
   -1.2607   12.4579   41.2992 C   0  0  0  0  0  0  0  0  0  0  0  0
   -0.0795   11.9739   40.7728 C   0  0  0  0  0  0  0  0  0  0  0  0
    0.8787   12.8902   40.4024 C   0  0  0  0  0  0  0  0  0  0  0  0
    0.6399   14.2372   40.5627 C   0  0  0  0  0  0  0  0  0  0  0  0
   -2.0004   16.6575   41.7970 C   0  0  0  0  0  0  0  0  0  0  0  0
    2.6149   18.3816   39.8959 C   0  0  0  0  0  0  0  0  0  0  0  0
    3.8918   18.4125   39.3511 C   0  0  0  0  0  0  0  0  0  0  0  0
    0.6334   19.5166   40.7934 N   0  0  0  0  0  0  0  0  0  0  0  0
    0.0425   17.1387   40.9435 N   0  0  0  0  0  0  0  0  0  0  0  0
    6.5075   18.5097   38.2364 O   0  0  0  0  0  0  0  0  0  0  0  0
    6.4036   20.8132   38.3822 O   0  0  0  0  0  0  0  0  0  0  0  0
    4.5675   17.2574   39.0113 O   0  0  0  0  0  0  0  0  0  0  0  0
   -1.7806   18.4405   41.7799 S   0  0  0  0  0  0  0  0  0  0  0  0
    0.2173   10.2609   40.5720 Cl  0  0  0  0  0  0  0  0  0  0  0  0
    4.3471   21.7455   39.3027 H   0  0  0  0  0  0  0  0  0  0  0  0
    2.0737   21.6651   40.2717 H   0  0  0  0  0  0  0  0  0  0  0  0
   -2.4340   14.1135   41.8726 H   0  0  0  0  0  0  0  0  0  0  0  0
   -2.0134   11.7410   41.5903 H   0  0  0  0  0  0  0  0  0  0  0  0
    1.8343   12.5538   39.9789 H   0  0  0  0  0  0  0  0  0  0  0  0
    1.3924   14.9630   40.2720 H   0  0  0  0  0  0  0  0  0  0  0  0
   -2.8538   16.1117   42.1386 H   0  0  0  0  0  0  0  0  0  0  0  0
    2.1849   17.4138   40.0374 H   0  0  0  0  0  0  0  0  0  0  0  0
    0.2024   20.4600   41.0184 H   0  0  0  0  0  0  0  0  0  0  0  0
  1  2  1  0
  1 19  1  0
  1 20  2  0
  2  3  1  0
  2 16  2  0
  3  4  2  0
  4  5  1  0
  5 15  2  0
  5 17  1  0
  6 17  1  0
  6 18  2  0
  6 22  1  0
  7  8  1  0
  7 14  2  0
  7 18  1  0
  8  9  1  0
  8 13  2  0
  9 10  2  0
 10 11  1  0
 11 12  2  0
 11 23  1  0
 12 13  1  0
 14 22  1  0
 15 16  1  0
 16 21  1  0
  3 24  1  0
  4 25  1  0
  9 26  1  0
 10 27  1  0
 12 28  1  0
 13 29  1  0
 14 30  1  0
 15 31  1  0
 17 32  1  0
M  CHG  2  19  -1  21  -1
M  END
>  <mol_id>  (38) 
2026-08-23-6tgu-s0-n100-r4-0038

>  <rmsd_to_ref>  (38) 
2.153061224491494

$$$$
6tgu.A
     RDKit          3D

 32 34  0  0  0  0  0  0  0  0999 V2000
    0.5872   19.0846   35.5801 C   0  0  0  0  0  0  0  0  0  0  0  0
    0.6195   19.2890   37.0973 C   0  0  0  0  0  0  0  0  0  0  0  0
   -0.1722   20.2664   37.6963 C   0  0  0  0  0  0  0  0  0  0  0  0
   -0.3143   20.3578   39.0848 C   0  0  0  0  0  0  0  0  0  0  0  0
    0.4823   19.5693   39.9276 C   0  0  0  0  0  0  0  0  0  0  0  0
    0.5787   18.6732   42.3048 C   0  0  0  0  0  0  0  0  0  0  0  0
    1.4089   16.7531   43.1989 C   0  0  0  0  0  0  0  0  0  0  0  0
    2.1679   15.5021   43.1853 C   0  0  0  0  0  0  0  0  0  0  0  0
    2.1686   14.6212   44.2762 C   0  0  0  0  0  0  0  0  0  0  0  0
    2.8704   13.4207   44.2292 C   0  0  0  0  0  0  0  0  0  0  0  0
    3.5362   13.0869   43.0649 C   0  0  0  0  0  0  0  0  0  0  0  0
    3.5569   13.9256   41.9608 C   0  0  0  0  0  0  0  0  0  0  0  0
    2.8581   15.1276   42.0315 C   0  0  0  0  0  0  0  0  0  0  0  0
    0.6584   17.1819   44.2616 C   0  0  0  0  0  0  0  0  0  0  0  0
    1.2763   18.5733   39.3413 C   0  0  0  0  0  0  0  0  0  0  0  0
    1.3342   18.4575   37.9512 C   0  0  0  0  0  0  0  0  0  0  0  0
    0.3044   19.6042   41.3447 N   0  0  0  0  0  0  0  0  0  0  0  0
    1.3115   17.5391   42.0264 N   0  0  0  0  0  0  0  0  0  0  0  0
   -0.3022   19.7220   34.9430 O   0  0  0  0  0  0  0  0  0  0  0  0
    1.3845   18.2473   35.1038 O   0  0  0  0  0  0  0  0  0  0  0  0
    2.0317   17.4138   37.3908 O   0  0  0  0  0  0  0  0  0  0  0  0
   -0.2437   18.5909   43.8509 S   0  0  0  0  0  0  0  0  0  0  0  0
    4.3804   11.5766   42.9772 Cl  0  0  0  0  0  0  0  0  0  0  0  0
   -0.7018   20.9885   37.0576 H   0  0  0  0  0  0  0  0  0  0  0  0
   -1.0525   21.0497   39.5165 H   0  0  0  0  0  0  0  0  0  0  0  0
    1.6053   14.8835   45.1839 H   0  0  0  0  0  0  0  0  0  0  0  0
    2.8948   12.7506   45.1012 H   0  0  0  0  0  0  0  0  0  0  0  0
    4.1114   13.6482   41.0521 H   0  0  0  0  0  0  0  0  0  0  0  0
    2.8498   15.7970   41.1586 H   0  0  0  0  0  0  0  0  0  0  0  0
    0.6348   16.6918   45.2462 H   0  0  0  0  0  0  0  0  0  0  0  0
    1.8527   17.8840   39.9758 H   0  0  0  0  0  0  0  0  0  0  0  0
   -0.0996   20.4813   41.7031 H   0  0  0  0  0  0  0  0  0  0  0  0
  1  2  1  0
  1 19  1  0
  1 20  2  0
  2  3  1  0
  2 16  2  0
  3  4  2  0
  4  5  1  0
  5 15  2  0
  5 17  1  0
  6 17  1  0
  6 18  2  0
  6 22  1  0
  7  8  1  0
  7 14  2  0
  7 18  1  0
  8  9  1  0
  8 13  2  0
  9 10  2  0
 10 11  1  0
 11 12  2  0
 11 23  1  0
 12 13  1  0
 14 22  1  0
 15 16  1  0
 16 21  1  0
  3 24  1  0
  4 25  1  0
  9 26  1  0
 10 27  1  0
 12 28  1  0
 13 29  1  0
 14 30  1  0
 15 31  1  0
 17 32  1  0
M  CHG  2  19  -1  21  -1
M  END
>  <mol_id>  (39) 
2026-08-23-6tgu-s0-n100-r4-0039

>  <rmsd_to_ref>  (39) 
2.1989795918457955

$$$$
6tgu.A
     RDKit          3D

 32 34  0  0  0  0  0  0  0  0999 V2000
    4.1403   22.4502   39.6765 C   0  0  0  0  0  0  0  0  0  0  0  0
    3.1121   21.4148   39.7568 C   0  0  0  0  0  0  0  0  0  0  0  0
    2.1965   21.3415   38.7165 C   0  0  0  0  0  0  0  0  0  0  0  0
    1.1984   20.3627   38.7623 C   0  0  0  0  0  0  0  0  0  0  0  0
    1.1357   19.4777   39.8460 C   0  0  0  0  0  0  0  0  0  0  0  0
    0.0506   17.5234   40.9733 C   0  0  0  0  0  0  0  0  0  0  0  0
    0.1917   15.7781   42.3837 C   0  0  0  0  0  0  0  0  0  0  0  0
    0.7009   14.4342   42.6280 C   0  0  0  0  0  0  0  0  0  0  0  0
    0.4401   13.7769   43.8170 C   0  0  0  0  0  0  0  0  0  0  0  0
    0.8997   12.5043   44.0886 C   0  0  0  0  0  0  0  0  0  0  0  0
    1.6567   11.8343   43.1473 C   0  0  0  0  0  0  0  0  0  0  0  0
    1.9360   12.4527   41.9574 C   0  0  0  0  0  0  0  0  0  0  0  0
    1.4617   13.7370   41.7053 C   0  0  0  0  0  0  0  0  0  0  0  0
   -0.5720   16.4591   43.3082 C   0  0  0  0  0  0  0  0  0  0  0  0
    2.0517   19.5498   40.8876 C   0  0  0  0  0  0  0  0  0  0  0  0
    3.0486   20.5314   40.8369 C   0  0  0  0  0  0  0  0  0  0  0  0
    0.1204   18.4849   39.8958 N   0  0  0  0  0  0  0  0  0  0  0  0
    0.3937   16.4756   41.2818 N   0  0  0  0  0  0  0  0  0  0  0  0
    5.0793   22.5642   40.6968 O   0  0  0  0  0  0  0  0  0  0  0  0
    4.2141   23.2538   38.7122 O   0  0  0  0  0  0  0  0  0  0  0  0
    3.9955   20.6361   41.8734 O   0  0  0  0  0  0  0  0  0  0  0  0
   -0.9581   18.0837   42.5251 S   0  0  0  0  0  0  0  0  0  0  0  0
    2.2679   10.2205   43.4351 Cl  0  0  0  0  0  0  0  0  0  0  0  0
    2.2201   22.0116   37.8662 H   0  0  0  0  0  0  0  0  0  0  0  0
    0.4614   20.2822   37.9517 H   0  0  0  0  0  0  0  0  0  0  0  0
   -0.1433   14.2586   44.5750 H   0  0  0  0  0  0  0  0  0  0  0  0
    0.6611   12.0384   45.0437 H   0  0  0  0  0  0  0  0  0  0  0  0
    2.5199   11.9820   41.1877 H   0  0  0  0  0  0  0  0  0  0  0  0
    1.6977   14.2015   40.7555 H   0  0  0  0  0  0  0  0  0  0  0  0
   -0.9433   16.1895   44.3416 H   0  0  0  0  0  0  0  0  0  0  0  0
    2.0110   18.8733   41.7257 H   0  0  0  0  0  0  0  0  0  0  0  0
   -0.5953   18.4530   39.1286 H   0  0  0  0  0  0  0  0  0  0  0  0
  1  2  1  0
  1 19  1  0
  1 20  2  0
  2  3  1  0
  2 16  2  0
  3  4  2  0
  4  5  1  0
  5 15  2  0
  5 17  1  0
  6 17  1  0
  6 18  2  0
  6 22  1  0
  7  8  1  0
  7 14  2  0
  7 18  1  0
  8  9  1  0
  8 13  2  0
  9 10  2  0
 10 11  1  0
 11 12  2  0
 11 23  1  0
 12 13  1  0
 14 22  1  0
 15 16  1  0
 16 21  1  0
  3 24  1  0
  4 25  1  0
  9 26  1  0
 10 27  1  0
 12 28  1  0
 13 29  1  0
 14 30  1  0
 15 31  1  0
 17 32  1  0
M  CHG  2  19  -1  21  -1
M  END
>  <mol_id>  (40) 
2026-08-23-6tgu-s0-n100-r4-0040

>  <rmsd_to_ref>  (40) 
2.244897959184589

$$$$
6tgu.A
     RDKit          3D

 32 34  0  0  0  0  0  0  0  0999 V2000
    0.3401   20.1589   37.2657 C   0  0  0  0  0  0  0  0  0  0  0  0
    0.1608   19.6156   38.6860 C   0  0  0  0  0  0  0  0  0  0  0  0
   -0.9469   19.9802   39.4481 C   0  0  0  0  0  0  0  0  0  0  0  0
   -1.2443   19.3630   40.6675 C   0  0  0  0  0  0  0  0  0  0  0  0
   -0.3297   18.4715   41.2469 C   0  0  0  0  0  0  0  0  0  0  0  0
   -0.1939   16.5979   42.9599 C   0  0  0  0  0  0  0  0  0  0  0  0
    1.0949   14.7288   43.1054 C   0  0  0  0  0  0  0  0  0  0  0  0
    2.1989   13.8450   42.7294 C   0  0  0  0  0  0  0  0  0  0  0  0
    2.3642   12.5766   43.3036 C   0  0  0  0  0  0  0  0  0  0  0  0
    3.4018   11.7386   42.9071 C   0  0  0  0  0  0  0  0  0  0  0  0
    4.2476   12.1617   41.8991 C   0  0  0  0  0  0  0  0  0  0  0  0
    4.1168   13.4056   41.3001 C   0  0  0  0  0  0  0  0  0  0  0  0
    3.0793   14.2341   41.7186 C   0  0  0  0  0  0  0  0  0  0  0  0
    0.1496   14.4157   44.0460 C   0  0  0  0  0  0  0  0  0  0  0  0
    0.7847   18.0855   40.4884 C   0  0  0  0  0  0  0  0  0  0  0  0
    1.0099   18.6639   39.2379 C   0  0  0  0  0  0  0  0  0  0  0  0
   -0.6464   17.7845   42.4589 N   0  0  0  0  0  0  0  0  0  0  0  0
    0.8751   15.9338   42.3970 N   0  0  0  0  0  0  0  0  0  0  0  0
   -0.6357   20.8028   36.7797 O   0  0  0  0  0  0  0  0  0  0  0  0
    1.3983   19.8558   36.6722 O   0  0  0  0  0  0  0  0  0  0  0  0
    2.0451   18.2032   38.4594 O   0  0  0  0  0  0  0  0  0  0  0  0
   -1.0972   15.6038   44.0866 S   0  0  0  0  0  0  0  0  0  0  0  0
    5.5191   11.1124   41.3664 Cl  0  0  0  0  0  0  0  0  0  0  0  0
   -1.6081   20.7783   39.0794 H   0  0  0  0  0  0  0  0  0  0  0  0
   -2.1974   19.5771   41.1730 H   0  0  0  0  0  0  0  0  0  0  0  0
    1.6623   12.2385   44.0801 H   0  0  0  0  0  0  0  0  0  0  0  0
    3.5460   10.7590   43.3861 H   0  0  0  0  0  0  0  0  0  0  0  0
    4.8151   13.7293   40.5142 H   0  0  0  0  0  0  0  0  0  0  0  0
    2.9505   15.2172   41.2422 H   0  0  0  0  0  0  0  0  0  0  0  0
    0.1823   13.5243   44.6898 H   0  0  0  0  0  0  0  0  0  0  0  0
    1.4805   17.3280   40.8782 H   0  0  0  0  0  0  0  0  0  0  0  0
   -1.3329   18.2666   43.0565 H   0  0  0  0  0  0  0  0  0  0  0  0
  1  2  1  0
  1 19  1  0
  1 20  2  0
  2  3  1  0
  2 16  2  0
  3  4  2  0
  4  5  1  0
  5 15  2  0
  5 17  1  0
  6 17  1  0
  6 18  2  0
  6 22  1  0
  7  8  1  0
  7 14  2  0
  7 18  1  0
  8  9  1  0
  8 13  2  0
  9 10  2  0
 10 11  1  0
 11 12  2  0
 11 23  1  0
 12 13  1  0
 14 22  1  0
 15 16  1  0
 16 21  1  0
  3 24  1  0
  4 25  1  0
  9 26  1  0
 10 27  1  0
 12 28  1  0
 13 29  1  0
 14 30  1  0
 15 31  1  0
 17 32  1  0
M  CHG  2  19  -1  21  -1
M  END
>  <mol_id>  (41) 
2026-08-23-6tgu-s0-n100-r4-0041

>  <rmsd_to_ref>  (41) 
2.2908163265311936

$$$$
6tgu.A
     RDKit          3D

 32 34  0  0  0  0  0  0  0  0999 V2000
    2.8142   22.3030   37.7507 C   0  0  0  0  0  0  0  0  0  0  0  0
    2.2749   21.1998   38.5493 C   0  0  0  0  0  0  0  0  0  0  0  0
    1.4636   21.4721   39.6411 C   0  0  0  0  0  0  0  0  0  0  0  0
    0.9501   20.4463   40.4045 C   0  0  0  0  0  0  0  0  0  0  0  0
    1.2168   19.1018   40.1212 C   0  0  0  0  0  0  0  0  0  0  0  0
    1.1478   16.8523   41.2438 C   0  0  0  0  0  0  0  0  0  0  0  0
    1.6013   14.7453   41.9642 C   0  0  0  0  0  0  0  0  0  0  0  0
    1.1686   13.5406   42.7077 C   0  0  0  0  0  0  0  0  0  0  0  0
   -0.0515   13.4624   43.3290 C   0  0  0  0  0  0  0  0  0  0  0  0
   -0.4684   12.3489   44.0192 C   0  0  0  0  0  0  0  0  0  0  0  0
    0.3568   11.2509   44.1050 C   0  0  0  0  0  0  0  0  0  0  0  0
    1.5802   11.3316   43.4812 C   0  0  0  0  0  0  0  0  0  0  0  0
    1.9963   12.4486   42.7899 C   0  0  0  0  0  0  0  0  0  0  0  0
    2.8616   14.8265   41.3224 C   0  0  0  0  0  0  0  0  0  0  0  0
    2.0189   18.8669   39.0382 C   0  0  0  0  0  0  0  0  0  0  0  0
    2.5446   19.8878   38.2587 C   0  0  0  0  0  0  0  0  0  0  0  0
    0.6352   18.1305   40.9487 N   0  0  0  0  0  0  0  0  0  0  0  0
    0.8895   15.8123   41.8312 N   0  0  0  0  0  0  0  0  0  0  0  0
    3.6253   22.0173   36.6597 O   0  0  0  0  0  0  0  0  0  0  0  0
    2.5569   23.5171   38.0331 O   0  0  0  0  0  0  0  0  0  0  0  0
    3.3585   19.6168   37.1617 O   0  0  0  0  0  0  0  0  0  0  0  0
    2.9022   16.4008   40.6014 S   0  0  0  0  0  0  0  0  0  0  0  0
   -0.1568    9.8205   44.9797 Cl  0  0  0  0  0  0  0  0  0  0  0  0
    1.2267   22.5043   39.9034 H   0  0  0  0  0  0  0  0  0  0  0  0
    0.3254   20.7090   41.2413 H   0  0  0  0  0  0  0  0  0  0  0  0
   -0.7002   14.3234   43.2624 H   0  0  0  0  0  0  0  0  0  0  0  0
   -1.4503   12.3846   44.4752 H   0  0  0  0  0  0  0  0  0  0  0  0
    2.2241   10.4693   43.5497 H   0  0  0  0  0  0  0  0  0  0  0  0
    2.9764   12.3987   42.3407 H   0  0  0  0  0  0  0  0  0  0  0  0
    3.6591   13.9928   41.3117 H   0  0  0  0  0  0  0  0  0  0  0  0
    2.2705   17.8657   38.7315 H   0  0  0  0  0  0  0  0  0  0  0  0
   -0.2865   18.3674   41.4045 H   0  0  0  0  0  0  0  0  0  0  0  0
  1  2  1  0
  1 19  1  0
  1 20  2  0
  2  3  1  0
  2 16  2  0
  3  4  2  0
  4  5  1  0
  5 15  2  0
  5 17  1  0
  6 17  1  0
  6 18  2  0
  6 22  1  0
  7  8  1  0
  7 14  2  0
  7 18  1  0
  8  9  1  0
  8 13  2  0
  9 10  2  0
 10 11  1  0
 11 12  2  0
 11 23  1  0
 12 13  1  0
 14 22  1  0
 15 16  1  0
 16 21  1  0
  3 24  1  0
  4 25  1  0
  9 26  1  0
 10 27  1  0
 12 28  1  0
 13 29  1  0
 14 30  1  0
 15 31  1  0
 17 32  1  0
M  CHG  2  19  -1  21  -1
M  END
>  <mol_id>  (42) 
2026-08-23-6tgu-s0-n100-r4-0042

>  <rmsd_to_ref>  (42) 
2.3367346938778124

$$$$
6tgu.A
     RDKit          3D

 32 34  0  0  0  0  0  0  0  0999 V2000
   -0.5971   20.8046   37.5199 C   0  0  0  0  0  0  0  0  0  0  0  0
   -0.0754   20.4678   38.9196 C   0  0  0  0  0  0  0  0  0  0  0  0
   -0.4361   21.2484   40.0156 C   0  0  0  0  0  0  0  0  0  0  0  0
   -0.1386   20.8672   41.3280 C   0  0  0  0  0  0  0  0  0  0  0  0
    0.6928   19.7639   41.5695 C   0  0  0  0  0  0  0  0  0  0  0  0
    1.3036   18.0963   43.3887 C   0  0  0  0  0  0  0  0  0  0  0  0
    1.9497   15.9158   43.3312 C   0  0  0  0  0  0  0  0  0  0  0  0
    2.3973   14.6805   42.6871 C   0  0  0  0  0  0  0  0  0  0  0  0
    2.5409   13.4809   43.3988 C   0  0  0  0  0  0  0  0  0  0  0  0
    2.9356   12.3097   42.7598 C   0  0  0  0  0  0  0  0  0  0  0  0
    3.1433   12.3373   41.3936 C   0  0  0  0  0  0  0  0  0  0  0  0
    3.0072   13.5000   40.6502 C   0  0  0  0  0  0  0  0  0  0  0  0
    2.6226   14.6641   41.3098 C   0  0  0  0  0  0  0  0  0  0  0  0
    1.6524   16.0200   44.6643 C   0  0  0  0  0  0  0  0  0  0  0  0
    1.0557   18.9613   40.4785 C   0  0  0  0  0  0  0  0  0  0  0  0
    0.6741   19.3283   39.1867 C   0  0  0  0  0  0  0  0  0  0  0  0
    0.9540   19.3235   42.9033 N   0  0  0  0  0  0  0  0  0  0  0  0
    1.6724   17.0642   42.5524 N   0  0  0  0  0  0  0  0  0  0  0  0
   -1.4849   21.7046   37.4493 O   0  0  0  0  0  0  0  0  0  0  0  0
   -0.1660   20.1117   36.5723 O   0  0  0  0  0  0  0  0  0  0  0  0
    0.9448   18.4814   38.1383 O   0  0  0  0  0  0  0  0  0  0  0  0
    0.9778   17.5632   45.0267 S   0  0  0  0  0  0  0  0  0  0  0  0
    3.5954   10.8774   40.5776 Cl  0  0  0  0  0  0  0  0  0  0  0  0
   -0.9716   22.1937   39.8435 H   0  0  0  0  0  0  0  0  0  0  0  0
   -0.5575   21.4341   42.1726 H   0  0  0  0  0  0  0  0  0  0  0  0
    2.3381   13.4656   44.4799 H   0  0  0  0  0  0  0  0  0  0  0  0
    3.0795   11.3804   43.3305 H   0  0  0  0  0  0  0  0  0  0  0  0
    3.1984   13.5025   39.5670 H   0  0  0  0  0  0  0  0  0  0  0  0
    2.4932   15.5916   40.7326 H   0  0  0  0  0  0  0  0  0  0  0  0
    1.8217   15.2244   45.4047 H   0  0  0  0  0  0  0  0  0  0  0  0
    1.6402   18.0436   40.6403 H   0  0  0  0  0  0  0  0  0  0  0  0
    0.8630   20.0568   43.6209 H   0  0  0  0  0  0  0  0  0  0  0  0
  1  2  1  0
  1 19  1  0
  1 20  2  0
  2  3  1  0
  2 16  2  0
  3  4  2  0
  4  5  1  0
  5 15  2  0
  5 17  1  0
  6 17  1  0
  6 18  2  0
  6 22  1  0
  7  8  1  0
  7 14  2  0
  7 18  1  0
  8  9  1  0
  8 13  2  0
  9 10  2  0
 10 11  1  0
 11 12  2  0
 11 23  1  0
 12 13  1  0
 14 22  1  0
 15 16  1  0
 16 21  1  0
  3 24  1  0
  4 25  1  0
  9 26  1  0
 10 27  1  0
 12 28  1  0
 13 29  1  0
 14 30  1  0
 15 31  1  0
 17 32  1  0
M  CHG  2  19  -1  21  -1
M  END
>  <mol_id>  (43) 
2026-08-23-6tgu-s0-n100-r4-0043

>  <rmsd_to_ref>  (43) 
2.382653061227837

$$$$
6tgu.A
     RDKit          3D

 32 34  0  0  0  0  0  0  0  0999 V2000
    3.4775   22.2456   38.0214 C   0  0  0  0  0  0  0  0  0  0  0  0
    2.9650   20.9395   38.4480 C   0  0  0  0  0  0  0  0  0  0  0  0
    2.1512   20.7668   39.5345 C   0  0  0  0  0  0  0  0  0  0  0  0
    1.6642   19.5290   39.9449 C   0  0  0  0  0  0  0  0  0  0  0  0
    2.0389   18.4315   39.1953 C   0  0  0  0  0  0  0  0  0  0  0  0
    1.4837   16.5616   40.7784 C   0  0  0  0  0  0  0  0  0  0  0  0
    1.0770   15.2746   42.5905 C   0  0  0  0  0  0  0  0  0  0  0  0
    0.5765   14.0086   43.1379 C   0  0  0  0  0  0  0  0  0  0  0  0
    0.0870   13.0173   42.3141 C   0  0  0  0  0  0  0  0  0  0  0  0
   -0.3920   11.8049   42.8271 C   0  0  0  0  0  0  0  0  0  0  0  0
   -0.3766   11.5900   44.1839 C   0  0  0  0  0  0  0  0  0  0  0  0
    0.1131   12.5786   45.0199 C   0  0  0  0  0  0  0  0  0  0  0  0
    0.5889   13.7860   44.4963 C   0  0  0  0  0  0  0  0  0  0  0  0
    1.5640   16.3121   43.4065 C   0  0  0  0  0  0  0  0  0  0  0  0
    2.8676   18.6084   38.0891 C   0  0  0  0  0  0  0  0  0  0  0  0
    3.3409   19.8340   37.6958 C   0  0  0  0  0  0  0  0  0  0  0  0
    1.6576   17.1023   39.4851 N   0  0  0  0  0  0  0  0  0  0  0  0
    1.1294   15.6159   41.3215 N   0  0  0  0  0  0  0  0  0  0  0  0
    3.1474   23.4162   38.7192 O   0  0  0  0  0  0  0  0  0  0  0  0
    4.2325   22.2757   36.9955 O   0  0  0  0  0  0  0  0  0  0  0  0
    4.1675   19.9365   36.5782 O   0  0  0  0  0  0  0  0  0  0  0  0
    2.0397   17.6543   42.2708 S   0  0  0  0  0  0  0  0  0  0  0  0
   -0.9815   10.0646   44.8018 Cl  0  0  0  0  0  0  0  0  0  0  0  0
    1.8593   21.6491   40.1238 H   0  0  0  0  0  0  0  0  0  0  0  0
    1.0177   19.4063   40.8003 H   0  0  0  0  0  0  0  0  0  0  0  0
    0.0672   13.1715   41.2335 H   0  0  0  0  0  0  0  0  0  0  0  0
   -0.7523   11.0977   42.1170 H   0  0  0  0  0  0  0  0  0  0  0  0
    0.1150   12.3918   46.0714 H   0  0  0  0  0  0  0  0  0  0  0  0
    0.9487   14.4948   45.2248 H   0  0  0  0  0  0  0  0  0  0  0  0
    1.6692   16.3656   44.5485 H   0  0  0  0  0  0  0  0  0  0  0  0
    3.1670   17.7552   37.4958 H   0  0  0  0  0  0  0  0  0  0  0  0
    1.4904   16.4602   38.6842 H   0  0  0  0  0  0  0  0  0  0  0  0
  1  2  1  0
  1 19  1  0
  1 20  2  0
  2  3  1  0
  2 16  2  0
  3  4  2  0
  4  5  1  0
  5 15  2  0
  5 17  1  0
  6 17  1  0
  6 18  2  0
  6 22  1  0
  7  8  1  0
  7 14  2  0
  7 18  1  0
  8  9  1  0
  8 13  2  0
  9 10  2  0
 10 11  1  0
 11 12  2  0
 11 23  1  0
 12 13  1  0
 14 22  1  0
 15 16  1  0
 16 21  1  0
  3 24  1  0
  4 25  1  0
  9 26  1  0
 10 27  1  0
 12 28  1  0
 13 29  1  0
 14 30  1  0
 15 31  1  0
 17 32  1  0
M  CHG  2  19  -1  21  -1
M  END
>  <mol_id>  (44) 
2026-08-23-6tgu-s0-n100-r4-0044

>  <rmsd_to_ref>  (44) 
2.428571428572554

$$$$
6tgu.A
     RDKit          3D

 32 34  0  0  0  0  0  0  0  0999 V2000
    5.3012   18.2802   36.5809 C   0  0  0  0  0  0  0  0  0  0  0  0
    4.1571   18.7297   37.4939 C   0  0  0  0  0  0  0  0  0  0  0  0
    3.3802   19.8372   37.1614 C   0  0  0  0  0  0  0  0  0  0  0  0
    2.2156   20.1644   37.8636 C   0  0  0  0  0  0  0  0  0  0  0  0
    1.8891   19.4801   39.0434 C   0  0  0  0  0  0  0  0  0  0  0  0
   -0.0802   18.9840   40.5728 C   0  0  0  0  0  0  0  0  0  0  0  0
   -0.6169   17.1921   41.8677 C   0  0  0  0  0  0  0  0  0  0  0  0
   -0.3671   15.9136   42.5342 C   0  0  0  0  0  0  0  0  0  0  0  0
   -1.3751   15.2261   43.2250 C   0  0  0  0  0  0  0  0  0  0  0  0
   -1.1244   13.9951   43.8231 C   0  0  0  0  0  0  0  0  0  0  0  0
    0.1321   13.4354   43.6872 C   0  0  0  0  0  0  0  0  0  0  0  0
    1.1562   14.0780   43.0079 C   0  0  0  0  0  0  0  0  0  0  0  0
    0.8887   15.3141   42.4261 C   0  0  0  0  0  0  0  0  0  0  0  0
   -1.8272   17.8335   41.8705 C   0  0  0  0  0  0  0  0  0  0  0  0
    2.6542   18.3562   39.3863 C   0  0  0  0  0  0  0  0  0  0  0  0
    3.7662   18.0097   38.6166 C   0  0  0  0  0  0  0  0  0  0  0  0
    0.6713   19.7586   39.7367 N   0  0  0  0  0  0  0  0  0  0  0  0
    0.3826   17.7785   41.0557 N   0  0  0  0  0  0  0  0  0  0  0  0
    5.3853   18.8551   35.4559 O   0  0  0  0  0  0  0  0  0  0  0  0
    6.0080   17.3305   36.9835 O   0  0  0  0  0  0  0  0  0  0  0  0
    4.4458   16.8488   38.8995 O   0  0  0  0  0  0  0  0  0  0  0  0
   -1.8001   19.2062   40.8298 S   0  0  0  0  0  0  0  0  0  0  0  0
    0.4473   11.8843   44.3916 Cl  0  0  0  0  0  0  0  0  0  0  0  0
    3.6922   20.4740   36.3205 H   0  0  0  0  0  0  0  0  0  0  0  0
    1.5545   20.9602   37.4897 H   0  0  0  0  0  0  0  0  0  0  0  0
   -2.3804   15.6670   43.2952 H   0  0  0  0  0  0  0  0  0  0  0  0
   -1.9104   13.4777   44.3927 H   0  0  0  0  0  0  0  0  0  0  0  0
    2.1545   13.6225   42.9308 H   0  0  0  0  0  0  0  0  0  0  0  0
    1.6847   15.8298   41.8690 H   0  0  0  0  0  0  0  0  0  0  0  0
   -2.7002   17.5147   42.4589 H   0  0  0  0  0  0  0  0  0  0  0  0
    2.3786   17.7483   40.2606 H   0  0  0  0  0  0  0  0  0  0  0  0
    0.2965   20.7049   39.5789 H   0  0  0  0  0  0  0  0  0  0  0  0
  1  2  1  0
  1 19  1  0
  1 20  2  0
  2  3  1  0
  2 16  2  0
  3  4  2  0
  4  5  1  0
  5 15  2  0
  5 17  1  0
  6 17  1  0
  6 18  2  0
  6 22  1  0
  7  8  1  0
  7 14  2  0
  7 18  1  0
  8  9  1  0
  8 13  2  0
  9 10  2  0
 10 11  1  0
 11 12  2  0
 11 23  1  0
 12 13  1  0
 14 22  1  0
 15 16  1  0
 16 21  1  0
  3 24  1  0
  4 25  1  0
  9 26  1  0
 10 27  1  0
 12 28  1  0
 13 29  1  0
 14 30  1  0
 15 31  1  0
 17 32  1  0
M  CHG  2  19  -1  21  -1
M  END
>  <mol_id>  (45) 
2026-08-23-6tgu-s0-n100-r4-0045

>  <rmsd_to_ref>  (45) 
2.47448979592623

$$$$
6tgu.A
     RDKit          3D

 32 34  0  0  0  0  0  0  0  0999 V2000
    1.2568   22.7301   38.8823 C   0  0  0  0  0  0  0  0  0  0  0  0
    1.4272   21.5585   39.7265 C   0  0  0  0  0  0  0  0  0  0  0  0
    0.6980   20.3962   39.5030 C   0  0  0  0  0  0  0  0  0  0  0  0
    0.8663   19.2986   40.3081 C   0  0  0  0  0  0  0  0  0  0  0  0
    1.7592   19.3165   41.3559 C   0  0  0  0  0  0  0  0  0  0  0  0
    1.2521   16.9903   42.1296 C   0  0  0  0  0  0  0  0  0  0  0  0
    0.5211   14.8841   41.9125 C   0  0  0  0  0  0  0  0  0  0  0  0
    0.8384   13.4559   41.6878 C   0  0  0  0  0  0  0  0  0  0  0  0
   -0.1608   12.4970   41.6616 C   0  0  0  0  0  0  0  0  0  0  0  0
    0.1701   11.1661   41.4588 C   0  0  0  0  0  0  0  0  0  0  0  0
    1.4713   10.7428   41.2786 C   0  0  0  0  0  0  0  0  0  0  0  0
    2.4665   11.6943   41.3045 C   0  0  0  0  0  0  0  0  0  0  0  0
    2.1254   13.0069   41.5061 C   0  0  0  0  0  0  0  0  0  0  0  0
   -0.7827   15.2937   42.1130 C   0  0  0  0  0  0  0  0  0  0  0  0
    2.4691   20.4782   41.5545 C   0  0  0  0  0  0  0  0  0  0  0  0
    2.3349   21.6046   40.7757 C   0  0  0  0  0  0  0  0  0  0  0  0
    1.9551   18.2221   42.2202 N   0  0  0  0  0  0  0  0  0  0  0  0
    1.3870   15.8737   41.9570 N   0  0  0  0  0  0  0  0  0  0  0  0
    0.3541   22.7079   37.8226 O   0  0  0  0  0  0  0  0  0  0  0  0
    1.9448   23.7461   39.1422 O   0  0  0  0  0  0  0  0  0  0  0  0
    3.0714   22.7351   41.0256 O   0  0  0  0  0  0  0  0  0  0  0  0
   -0.6601   17.0802   42.3522 S   0  0  0  0  0  0  0  0  0  0  0  0
    1.8631    9.0549   41.0260 Cl  0  0  0  0  0  0  0  0  0  0  0  0
   -0.0002   20.4158   38.6615 H   0  0  0  0  0  0  0  0  0  0  0  0
    0.2840   18.4023   40.1140 H   0  0  0  0  0  0  0  0  0  0  0  0
   -1.1896   12.7838   41.7986 H   0  0  0  0  0  0  0  0  0  0  0  0
   -0.6450   10.4251   41.4415 H   0  0  0  0  0  0  0  0  0  0  0  0
    3.5040   11.4162   41.1683 H   0  0  0  0  0  0  0  0  0  0  0  0
    2.9208   13.7446   41.5261 H   0  0  0  0  0  0  0  0  0  0  0  0
   -1.7151   14.7240   42.1358 H   0  0  0  0  0  0  0  0  0  0  0  0
    3.1703   20.5109   42.3631 H   0  0  0  0  0  0  0  0  0  0  0  0
    2.6621   18.2870   42.9953 H   0  0  0  0  0  0  0  0  0  0  0  0
  1  2  1  0
  1 19  1  0
  1 20  2  0
  2  3  1  0
  2 16  2  0
  3  4  2  0
  4  5  1  0
  5 15  2  0
  5 17  1  0
  6 17  1  0
  6 18  2  0
  6 22  1  0
  7  8  1  0
  7 14  2  0
  7 18  1  0
  8  9  1  0
  8 13  2  0
  9 10  2  0
 10 11  1  0
 11 12  2  0
 11 23  1  0
 12 13  1  0
 14 22  1  0
 15 16  1  0
 16 21  1  0
  3 24  1  0
  4 25  1  0
  9 26  1  0
 10 27  1  0
 12 28  1  0
 13 29  1  0
 14 30  1  0
 15 31  1  0
 17 32  1  0
M  CHG  2  19  -1  21  -1
M  END
>  <mol_id>  (46) 
2026-08-23-6tgu-s0-n100-r4-0046

>  <rmsd_to_ref>  (46) 
2.5204081632693858

$$$$
6tgu.A
     RDKit          3D

 32 34  0  0  0  0  0  0  0  0999 V2000
    3.9211   21.2789   39.8912 C   0  0  0  0  0  0  0  0  0  0  0  0
    3.1677   20.2736   40.7666 C   0  0  0  0  0  0  0  0  0  0  0  0
    2.1924   20.7069   41.6620 C   0  0  0  0  0  0  0  0  0  0  0  0
    1.3547   19.8128   42.3367 C   0  0  0  0  0  0  0  0  0  0  0  0
    1.5919   18.4326   42.2618 C   0  0  0  0  0  0  0  0  0  0  0  0
    0.4357   16.1956   42.6120 C   0  0  0  0  0  0  0  0  0  0  0  0
    0.6614   14.1666   41.6081 C   0  0  0  0  0  0  0  0  0  0  0  0
    1.3030   13.1796   40.7391 C   0  0  0  0  0  0  0  0  0  0  0  0
    0.7295   11.9247   40.4893 C   0  0  0  0  0  0  0  0  0  0  0  0
    1.3400   11.0139   39.6328 C   0  0  0  0  0  0  0  0  0  0  0  0
    2.5074   11.3852   38.9927 C   0  0  0  0  0  0  0  0  0  0  0  0
    3.1056   12.6179   39.2062 C   0  0  0  0  0  0  0  0  0  0  0  0
    2.4854   13.5111   40.0755 C   0  0  0  0  0  0  0  0  0  0  0  0
   -0.5248   13.9566   42.2602 C   0  0  0  0  0  0  0  0  0  0  0  0
    2.5624   17.9792   41.3569 C   0  0  0  0  0  0  0  0  0  0  0  0
    3.3285   18.8991   40.6387 C   0  0  0  0  0  0  0  0  0  0  0  0
    0.7081   17.5037   42.8921 N   0  0  0  0  0  0  0  0  0  0  0  0
    1.1932   15.4735   41.7144 N   0  0  0  0  0  0  0  0  0  0  0  0
    3.4965   22.4716   39.9073 O   0  0  0  0  0  0  0  0  0  0  0  0
    4.8396   20.8280   39.1723 O   0  0  0  0  0  0  0  0  0  0  0  0
    4.2024   18.4447   39.6797 O   0  0  0  0  0  0  0  0  0  0  0  0
   -1.0678   15.3979   43.0319 S   0  0  0  0  0  0  0  0  0  0  0  0
    3.2571   10.2772   37.8919 Cl  0  0  0  0  0  0  0  0  0  0  0  0
    2.0776   21.7856   41.8441 H   0  0  0  0  0  0  0  0  0  0  0  0
    0.5081   20.1929   42.9272 H   0  0  0  0  0  0  0  0  0  0  0  0
   -0.2184   11.6560   40.9785 H   0  0  0  0  0  0  0  0  0  0  0  0
    0.9024   10.0181   39.4684 H   0  0  0  0  0  0  0  0  0  0  0  0
    4.0463   12.8833   38.7015 H   0  0  0  0  0  0  0  0  0  0  0  0
    2.9372   14.4999   40.2432 H   0  0  0  0  0  0  0  0  0  0  0  0
   -1.0594   12.9956   42.2874 H   0  0  0  0  0  0  0  0  0  0  0  0
    2.7198   16.9000   41.2132 H   0  0  0  0  0  0  0  0  0  0  0  0
    0.1877   17.8862   43.6945 H   0  0  0  0  0  0  0  0  0  0  0  0
  1  2  1  0
  1 19  1  0
  1 20  2  0
  2  3  1  0
  2 16  2  0
  3  4  2  0
  4  5  1  0
  5 15  2  0
  5 17  1  0
  6 17  1  0
  6 18  2  0
  6 22  1  0
  7  8  1  0
  7 14  2  0
  7 18  1  0
  8  9  1  0
  8 13  2  0
  9 10  2  0
 10 11  1  0
 11 12  2  0
 11 23  1  0
 12 13  1  0
 14 22  1  0
 15 16  1  0
 16 21  1  0
  3 24  1  0
  4 25  1  0
  9 26  1  0
 10 27  1  0
 12 28  1  0
 13 29  1  0
 14 30  1  0
 15 31  1  0
 17 32  1  0
M  CHG  2  19  -1  21  -1
M  END
>  <mol_id>  (47) 
2026-08-23-6tgu-s0-n100-r4-0047

>  <rmsd_to_ref>  (47) 
2.566326530612679

$$$$
6tgu.A
     RDKit          3D

 32 34  0  0  0  0  0  0  0  0999 V2000
    2.9586   19.7131   35.9405 C   0  0  0  0  0  0  0  0  0  0  0  0
    2.3574   19.6798   37.2775 C   0  0  0  0  0  0  0  0  0  0  0  0
    2.1438   20.8707   37.9330 C   0  0  0  0  0  0  0  0  0  0  0  0
    1.5712   20.7925   39.1972 C   0  0  0  0  0  0  0  0  0  0  0  0
    1.2331   19.5576   39.7632 C   0  0  0  0  0  0  0  0  0  0  0  0
    0.4056   18.3158   41.7236 C   0  0  0  0  0  0  0  0  0  0  0  0
    0.5191   16.4454   43.0753 C   0  0  0  0  0  0  0  0  0  0  0  0
    1.1915   15.6527   44.1427 C   0  0  0  0  0  0  0  0  0  0  0  0
    0.6730   14.4519   44.5519 C   0  0  0  0  0  0  0  0  0  0  0  0
    1.3448   13.7778   45.5497 C   0  0  0  0  0  0  0  0  0  0  0  0
    2.4962   14.2473   46.1460 C   0  0  0  0  0  0  0  0  0  0  0  0
    3.0187   15.4547   45.7358 C   0  0  0  0  0  0  0  0  0  0  0  0
    2.3561   16.1354   44.7410 C   0  0  0  0  0  0  0  0  0  0  0  0
   -0.6572   15.9668   42.5026 C   0  0  0  0  0  0  0  0  0  0  0  0
    1.4706   18.3745   39.0547 C   0  0  0  0  0  0  0  0  0  0  0  0
    2.0382   18.4435   37.8015 C   0  0  0  0  0  0  0  0  0  0  0  0
    0.6277   19.5008   41.0732 N   0  0  0  0  0  0  0  0  0  0  0  0
    0.9652   17.5702   42.6543 N   0  0  0  0  0  0  0  0  0  0  0  0
    3.3125   20.9362   35.3420 O   0  0  0  0  0  0  0  0  0  0  0  0
    3.1543   18.6071   35.3300 O   0  0  0  0  0  0  0  0  0  0  0  0
    2.2541   17.2463   37.1393 O   0  0  0  0  0  0  0  0  0  0  0  0
   -1.1288   17.2321   41.2878 S   0  0  0  0  0  0  0  0  0  0  0  0
    3.3180   13.3435   47.4236 Cl  0  0  0  0  0  0  0  0  0  0  0  0
    2.3986   21.8452   37.5130 H   0  0  0  0  0  0  0  0  0  0  0  0
    1.3679   21.6935   39.7867 H   0  0  0  0  0  0  0  0  0  0  0  0
   -0.2179   14.0304   44.1276 H   0  0  0  0  0  0  0  0  0  0  0  0
    0.9222   12.8343   45.8596 H   0  0  0  0  0  0  0  0  0  0  0  0
    3.9253   15.8749   46.1710 H   0  0  0  0  0  0  0  0  0  0  0  0
    2.7903   17.0833   44.4385 H   0  0  0  0  0  0  0  0  0  0  0  0
   -1.2546   15.0064   42.6956 H   0  0  0  0  0  0  0  0  0  0  0  0
    1.2126   17.3988   39.4779 H   0  0  0  0  0  0  0  0  0  0  0  0
    0.3598   20.4082   41.5136 H   0  0  0  0  0  0  0  0  0  0  0  0
  1  2  1  0
  1 19  1  0
  1 20  2  0
  2  3  1  0
  2 16  2  0
  3  4  2  0
  4  5  1  0
  5 15  2  0
  5 17  1  0
  6 17  1  0
  6 18  2  0
  6 22  1  0
  7  8  1  0
  7 14  2  0
  7 18  1  0
  8  9  1  0
  8 13  2  0
  9 10  2  0
 10 11  1  0
 11 12  2  0
 11 23  1  0
 12 13  1  0
 14 22  1  0
 15 16  1  0
 16 21  1  0
  3 24  1  0
  4 25  1  0
  9 26  1  0
 10 27  1  0
 12 28  1  0
 13 29  1  0
 14 30  1  0
 15 31  1  0
 17 32  1  0
M  CHG  2  19  -1  21  -1
M  END
>  <mol_id>  (48) 
2026-08-23-6tgu-s0-n100-r4-0048

>  <rmsd_to_ref>  (48) 
2.612244897964442

$$$$
6tgu.A
     RDKit          3D

 32 34  0  0  0  0  0  0  0  0999 V2000
    3.9841   20.9968   40.2188 C   0  0  0  0  0  0  0  0  0  0  0  0
    3.2866   20.0156   41.1651 C   0  0  0  0  0  0  0  0  0  0  0  0
    2.5782   20.4815   42.2704 C   0  0  0  0  0  0  0  0  0  0  0  0
    1.7746   19.6390   43.0456 C   0  0  0  0  0  0  0  0  0  0  0  0
    1.7976   18.2529   42.8335 C   0  0  0  0  0  0  0  0  0  0  0  0
    0.4337   16.1526   43.2715 C   0  0  0  0  0  0  0  0  0  0  0  0
    0.1710   14.2123   42.1132 C   0  0  0  0  0  0  0  0  0  0  0  0
    0.4838   13.2379   41.0673 C   0  0  0  0  0  0  0  0  0  0  0  0
   -0.2969   12.0915   40.8619 C   0  0  0  0  0  0  0  0  0  0  0  0
   -0.0012   11.1951   39.8397 C   0  0  0  0  0  0  0  0  0  0  0  0
    1.0563   11.4772   38.9955 C   0  0  0  0  0  0  0  0  0  0  0  0
    1.8507   12.6020   39.1590 C   0  0  0  0  0  0  0  0  0  0  0  0
    1.5457   13.4809   40.1946 C   0  0  0  0  0  0  0  0  0  0  0  0
   -0.8799   14.0908   42.9834 C   0  0  0  0  0  0  0  0  0  0  0  0
    2.4967   17.7687   41.7187 C   0  0  0  0  0  0  0  0  0  0  0  0
    3.2258   18.6494   40.9176 C   0  0  0  0  0  0  0  0  0  0  0  0
    0.9356   17.3859   43.5728 N   0  0  0  0  0  0  0  0  0  0  0  0
    0.8901   15.4284   42.1908 N   0  0  0  0  0  0  0  0  0  0  0  0
    3.7415   22.2261   40.4004 O   0  0  0  0  0  0  0  0  0  0  0  0
    4.6700   20.5043   39.2964 O   0  0  0  0  0  0  0  0  0  0  0  0
    3.8203   18.1810   39.7700 O   0  0  0  0  0  0  0  0  0  0  0  0
   -1.0530   15.5109   43.9432 S   0  0  0  0  0  0  0  0  0  0  0  0
    1.4112   10.3912   37.6931 Cl  0  0  0  0  0  0  0  0  0  0  0  0
    2.6531   21.5448   42.5420 H   0  0  0  0  0  0  0  0  0  0  0  0
    1.1232   20.0646   43.8232 H   0  0  0  0  0  0  0  0  0  0  0  0
   -1.1571   11.8976   41.5196 H   0  0  0  0  0  0  0  0  0  0  0  0
   -0.5971   10.2802   39.7060 H   0  0  0  0  0  0  0  0  0  0  0  0
    2.7003   12.7949   38.4874 H   0  0  0  0  0  0  0  0  0  0  0  0
    2.1550   14.3870   40.3281 H   0  0  0  0  0  0  0  0  0  0  0  0
   -1.5270   13.2045   43.0592 H   0  0  0  0  0  0  0  0  0  0  0  0
    2.4707   16.6962   41.4756 H   0  0  0  0  0  0  0  0  0  0  0  0
    0.6431   17.7541   44.4892 H   0  0  0  0  0  0  0  0  0  0  0  0
  1  2  1  0
  1 19  1  0
  1 20  2  0
  2  3  1  0
  2 16  2  0
  3  4  2  0
  4  5  1  0
  5 15  2  0
  5 17  1  0
  6 17  1  0
  6 18  2  0
  6 22  1  0
  7  8  1  0
  7 14  2  0
  7 18  1  0
  8  9  1  0
  8 13  2  0
  9 10  2  0
 10 11  1  0
 11 12  2  0
 11 23  1  0
 12 13  1  0
 14 22  1  0
 15 16  1  0
 16 21  1  0
  3 24  1  0
  4 25  1  0
  9 26  1  0
 10 27  1  0
 12 28  1  0
 13 29  1  0
 14 30  1  0
 15 31  1  0
 17 32  1  0
M  CHG  2  19  -1  21  -1
M  END
>  <mol_id>  (49) 
2026-08-23-6tgu-s0-n100-r4-0049

>  <rmsd_to_ref>  (49) 
2.6581632653112695

$$$$
6tgu.A
     RDKit          3D

 32 34  0  0  0  0  0  0  0  0999 V2000
    2.2871   21.2111   36.3642 C   0  0  0  0  0  0  0  0  0  0  0  0
    2.0736   20.3813   37.5424 C   0  0  0  0  0  0  0  0  0  0  0  0
    0.9177   20.5407   38.2730 C   0  0  0  0  0  0  0  0  0  0  0  0
    0.6391   19.7862   39.4066 C   0  0  0  0  0  0  0  0  0  0  0  0
    1.5537   18.8207   39.8432 C   0  0  0  0  0  0  0  0  0  0  0  0
    1.6757   16.7978   41.3195 C   0  0  0  0  0  0  0  0  0  0  0  0
    2.0118   14.8500   42.4292 C   0  0  0  0  0  0  0  0  0  0  0  0
    1.8398   13.9899   43.6233 C   0  0  0  0  0  0  0  0  0  0  0  0
    1.1426   14.4565   44.7100 C   0  0  0  0  0  0  0  0  0  0  0  0
    0.9595   13.6947   45.8367 C   0  0  0  0  0  0  0  0  0  0  0  0
    1.4827   12.4219   45.8978 C   0  0  0  0  0  0  0  0  0  0  0  0
    2.1934   11.9508   44.7851 C   0  0  0  0  0  0  0  0  0  0  0  0
    2.3700   12.7276   43.6588 C   0  0  0  0  0  0  0  0  0  0  0  0
    2.7463   14.3581   41.2942 C   0  0  0  0  0  0  0  0  0  0  0  0
    2.6986   18.6800   39.1003 C   0  0  0  0  0  0  0  0  0  0  0  0
    2.9703   19.4336   37.9724 C   0  0  0  0  0  0  0  0  0  0  0  0
    1.2292   18.0960   41.0027 N   0  0  0  0  0  0  0  0  0  0  0  0
    1.5548   16.0334   42.3048 N   0  0  0  0  0  0  0  0  0  0  0  0
    1.3652   22.1414   35.9747 O   0  0  0  0  0  0  0  0  0  0  0  0
    3.3714   21.0195   35.7266 O   0  0  0  0  0  0  0  0  0  0  0  0
    4.1402   19.2607   37.2476 O   0  0  0  0  0  0  0  0  0  0  0  0
    2.6615   15.7509   40.1628 S   0  0  0  0  0  0  0  0  0  0  0  0
    1.2716   11.4039   47.3260 Cl  0  0  0  0  0  0  0  0  0  0  0  0
    0.1926   21.2655   37.9765 H   0  0  0  0  0  0  0  0  0  0  0  0
   -0.2940   19.9353   39.9723 H   0  0  0  0  0  0  0  0  0  0  0  0
    0.7352   15.4559   44.6563 H   0  0  0  0  0  0  0  0  0  0  0  0
    0.4167   14.0401   46.7036 H   0  0  0  0  0  0  0  0  0  0  0  0
    2.6155   10.9545   44.8062 H   0  0  0  0  0  0  0  0  0  0  0  0
    2.9250   12.3051   42.8402 H   0  0  0  0  0  0  0  0  0  0  0  0
    3.2033   13.4405   41.1649 H   0  0  0  0  0  0  0  0  0  0  0  0
    3.4522   17.9625   39.3828 H   0  0  0  0  0  0  0  0  0  0  0  0
    0.5951   18.5478   41.7147 H   0  0  0  0  0  0  0  0  0  0  0  0
  1  2  1  0
  1 19  1  0
  1 20  2  0
  2  3  1  0
  2 16  2  0
  3  4  2  0
  4  5  1  0
  5 15  2  0
  5 17  1  0
  6 17  1  0
  6 18  2  0
  6 22  1  0
  7  8  1  0
  7 14  2  0
  7 18  1  0
  8  9  1  0
  8 13  2  0
  9 10  2  0
 10 11  1  0
 11 12  2  0
 11 23  1  0
 12 13  1  0
 14 22  1  0
 15 16  1  0
 16 21  1  0
  3 24  1  0
  4 25  1  0
  9 26  1  0
 10 27  1  0
 12 28  1  0
 13 29  1  0
 14 30  1  0
 15 31  1  0
 17 32  1  0
M  CHG  2  19  -1  21  -1
M  END
>  <mol_id>  (50) 
2026-08-23-6tgu-s0-n100-r4-0050

>  <rmsd_to_ref>  (50) 
2.704081632653742

$$$$
6tgu.A
     RDKit          3D

 32 34  0  0  0  0  0  0  0  0999 V2000
    5.2213   19.8385   40.9086 C   0  0  0  0  0  0  0  0  0  0  0  0
    3.7775   19.3426   41.0270 C   0  0  0  0  0  0  0  0  0  0  0  0
    2.7301   20.0762   40.4741 C   0  0  0  0  0  0  0  0  0  0  0  0
    1.4294   19.5682   40.3946 C   0  0  0  0  0  0  0  0  0  0  0  0
    1.1039   18.3630   41.0337 C   0  0  0  0  0  0  0  0  0  0  0  0
   -0.6340   16.5076   41.0105 C   0  0  0  0  0  0  0  0  0  0  0  0
   -0.5187   14.2780   41.4483 C   0  0  0  0  0  0  0  0  0  0  0  0
    0.1167   13.0508   41.9293 C   0  0  0  0  0  0  0  0  0  0  0  0
   -0.4855   11.7936   41.7783 C   0  0  0  0  0  0  0  0  0  0  0  0
    0.1516   10.6355   42.2129 C   0  0  0  0  0  0  0  0  0  0  0  0
    1.4164   10.7399   42.7604 C   0  0  0  0  0  0  0  0  0  0  0  0
    2.0510   11.9622   42.9232 C   0  0  0  0  0  0  0  0  0  0  0  0
    1.3924   13.1106   42.4925 C   0  0  0  0  0  0  0  0  0  0  0  0
   -1.7429   14.3169   40.8349 C   0  0  0  0  0  0  0  0  0  0  0  0
    2.1480   17.6070   41.5854 C   0  0  0  0  0  0  0  0  0  0  0  0
    3.4507   18.1091   41.5774 C   0  0  0  0  0  0  0  0  0  0  0  0
   -0.2027   17.7988   40.9084 N   0  0  0  0  0  0  0  0  0  0  0  0
    0.1858   15.5047   41.4826 N   0  0  0  0  0  0  0  0  0  0  0  0
    5.4160   20.8360   40.1534 O   0  0  0  0  0  0  0  0  0  0  0  0
    6.0995   19.1730   41.4998 O   0  0  0  0  0  0  0  0  0  0  0  0
    4.4807   17.3165   42.0256 O   0  0  0  0  0  0  0  0  0  0  0  0
   -2.0820   15.8956   40.2345 S   0  0  0  0  0  0  0  0  0  0  0  0
    2.2389    9.3023   43.2686 Cl  0  0  0  0  0  0  0  0  0  0  0  0
    2.9324   21.0862   40.0881 H   0  0  0  0  0  0  0  0  0  0  0  0
    0.6601   20.1150   39.8297 H   0  0  0  0  0  0  0  0  0  0  0  0
   -1.4776   11.7217   41.3087 H   0  0  0  0  0  0  0  0  0  0  0  0
   -0.3416    9.6564   42.1226 H   0  0  0  0  0  0  0  0  0  0  0  0
    3.0493   12.0227   43.3810 H   0  0  0  0  0  0  0  0  0  0  0  0
    1.8884   14.0867   42.5983 H   0  0  0  0  0  0  0  0  0  0  0  0
   -2.4193   13.4548   40.7384 H   0  0  0  0  0  0  0  0  0  0  0  0
    1.9410   16.6197   42.0239 H   0  0  0  0  0  0  0  0  0  0  0  0
   -0.9459   18.4828   40.7065 H   0  0  0  0  0  0  0  0  0  0  0  0
  1  2  1  0
  1 19  1  0
  1 20  2  0
  2  3  1  0
  2 16  2  0
  3  4  2  0
  4  5  1  0
  5 15  2  0
  5 17  1  0
  6 17  1  0
  6 18  2  0
  6 22  1  0
  7  8  1  0
  7 14  2  0
  7 18  1  0
  8  9  1  0
  8 13  2  0
  9 10  2  0
 10 11  1  0
 11 12  2  0
 11 23  1  0
 12 13  1  0
 14 22  1  0
 15 16  1  0
 16 21  1  0
  3 24  1  0
  4 25  1  0
  9 26  1  0
 10 27  1  0
 12 28  1  0
 13 29  1  0
 14 30  1  0
 15 31  1  0
 17 32  1  0
M  CHG  2  19  -1  21  -1
M  END
>  <mol_id>  (51) 
2026-08-23-6tgu-s0-n100-r4-0051

>  <rmsd_to_ref>  (51) 
2.7500000000036824

$$$$
6tgu.A
     RDKit          3D

 32 34  0  0  0  0  0  0  0  0999 V2000
    3.3031   20.3983   36.2661 C   0  0  0  0  0  0  0  0  0  0  0  0
    2.7960   19.8166   37.5015 C   0  0  0  0  0  0  0  0  0  0  0  0
    1.9339   20.5171   38.3151 C   0  0  0  0  0  0  0  0  0  0  0  0
    1.4640   19.9563   39.4765 C   0  0  0  0  0  0  0  0  0  0  0  0
    1.8269   18.6672   39.8914 C   0  0  0  0  0  0  0  0  0  0  0  0
    1.0996   16.8535   41.4876 C   0  0  0  0  0  0  0  0  0  0  0  0
    0.6075   14.9593   42.5751 C   0  0  0  0  0  0  0  0  0  0  0  0
    0.1586   14.3025   43.8134 C   0  0  0  0  0  0  0  0  0  0  0  0
   -0.1584   15.0109   44.9558 C   0  0  0  0  0  0  0  0  0  0  0  0
   -0.5781   14.4039   46.1150 C   0  0  0  0  0  0  0  0  0  0  0  0
   -0.6992   13.0315   46.1755 C   0  0  0  0  0  0  0  0  0  0  0  0
   -0.3872   12.3026   45.0434 C   0  0  0  0  0  0  0  0  0  0  0  0
    0.0330   12.9303   43.8875 C   0  0  0  0  0  0  0  0  0  0  0  0
    0.9207   14.2214   41.4357 C   0  0  0  0  0  0  0  0  0  0  0  0
    2.6855   17.9959   39.0625 C   0  0  0  0  0  0  0  0  0  0  0  0
    3.1770   18.5477   37.8736 C   0  0  0  0  0  0  0  0  0  0  0  0
    1.2996   18.2061   41.1031 N   0  0  0  0  0  0  0  0  0  0  0  0
    0.7567   16.2444   42.4087 N   0  0  0  0  0  0  0  0  0  0  0  0
    2.9160   21.6875   35.8892 O   0  0  0  0  0  0  0  0  0  0  0  0
    4.0815   19.7982   35.5072 O   0  0  0  0  0  0  0  0  0  0  0  0
    4.0464   17.8365   37.0569 O   0  0  0  0  0  0  0  0  0  0  0  0
    1.3990   15.4645   40.2407 S   0  0  0  0  0  0  0  0  0  0  0  0
   -1.2289   12.2041   47.6258 Cl  0  0  0  0  0  0  0  0  0  0  0  0
    1.6356   21.5225   38.0143 H   0  0  0  0  0  0  0  0  0  0  0  0
    0.7912   20.5532   40.0739 H   0  0  0  0  0  0  0  0  0  0  0  0
   -0.0661   16.1036   44.9208 H   0  0  0  0  0  0  0  0  0  0  0  0
   -0.8183   14.9886   46.9921 H   0  0  0  0  0  0  0  0  0  0  0  0
   -0.4659   11.2054   45.0363 H   0  0  0  0  0  0  0  0  0  0  0  0
    0.2637   12.2999   43.0304 H   0  0  0  0  0  0  0  0  0  0  0  0
    0.8934   13.1592   41.2756 H   0  0  0  0  0  0  0  0  0  0  0  0
    3.0320   17.0155   39.2942 H   0  0  0  0  0  0  0  0  0  0  0  0
    1.0176   18.9163   41.8171 H   0  0  0  0  0  0  0  0  0  0  0  0
  1  2  1  0
  1 19  1  0
  1 20  2  0
  2  3  1  0
  2 16  2  0
  3  4  2  0
  4  5  1  0
  5 15  2  0
  5 17  1  0
  6 17  1  0
  6 18  2  0
  6 22  1  0
  7  8  1  0
  7 14  2  0
  7 18  1  0
  8  9  1  0
  8 13  2  0
  9 10  2  0
 10 11  1  0
 11 12  2  0
 11 23  1  0
 12 13  1  0
 14 22  1  0
 15 16  1  0
 16 21  1  0
  3 24  1  0
  4 25  1  0
  9 26  1  0
 10 27  1  0
 12 28  1  0
 13 29  1  0
 14 30  1  0
 15 31  1  0
 17 32  1  0
M  CHG  2  19  -1  21  -1
M  END
>  <mol_id>  (52) 
2026-08-23-6tgu-s0-n100-r4-0052

>  <rmsd_to_ref>  (52) 
2.795918367349636

$$$$
6tgu.A
     RDKit          3D

 32 34  0  0  0  0  0  0  0  0999 V2000
    1.2931   18.1635   36.2233 C   0  0  0  0  0  0  0  0  0  0  0  0
    0.6755   18.3005   37.6178 C   0  0  0  0  0  0  0  0  0  0  0  0
   -0.6347   18.7485   37.7701 C   0  0  0  0  0  0  0  0  0  0  0  0
   -1.2944   18.7070   39.0028 C   0  0  0  0  0  0  0  0  0  0  0  0
   -0.5892   18.3720   40.1679 C   0  0  0  0  0  0  0  0  0  0  0  0
   -0.9555   17.5456   42.5441 C   0  0  0  0  0  0  0  0  0  0  0  0
    0.2832   16.2359   43.9319 C   0  0  0  0  0  0  0  0  0  0  0  0
    1.4822   15.5108   44.3534 C   0  0  0  0  0  0  0  0  0  0  0  0
    1.4968   14.7001   45.4973 C   0  0  0  0  0  0  0  0  0  0  0  0
    2.6383   13.9926   45.8614 C   0  0  0  0  0  0  0  0  0  0  0  0
    3.7528   14.0675   45.0473 C   0  0  0  0  0  0  0  0  0  0  0  0
    3.7798   14.8523   43.9043 C   0  0  0  0  0  0  0  0  0  0  0  0
    2.6315   15.5616   43.5631 C   0  0  0  0  0  0  0  0  0  0  0  0
   -0.9070   16.2069   44.6093 C   0  0  0  0  0  0  0  0  0  0  0  0
    0.7270   17.9083   40.0308 C   0  0  0  0  0  0  0  0  0  0  0  0
    1.3304   17.8878   38.7720 C   0  0  0  0  0  0  0  0  0  0  0  0
   -1.2620   18.2627   41.4235 N   0  0  0  0  0  0  0  0  0  0  0  0
    0.2639   16.9200   42.6934 N   0  0  0  0  0  0  0  0  0  0  0  0
    0.5087   18.3138   35.2408 O   0  0  0  0  0  0  0  0  0  0  0  0
    2.4986   17.8360   36.1668 O   0  0  0  0  0  0  0  0  0  0  0  0
    2.5813   17.3347   38.6337 O   0  0  0  0  0  0  0  0  0  0  0  0
   -2.1416   17.0169   43.7218 S   0  0  0  0  0  0  0  0  0  0  0  0
    5.1679   13.1599   45.4659 Cl  0  0  0  0  0  0  0  0  0  0  0  0
   -1.1670   19.1471   36.8939 H   0  0  0  0  0  0  0  0  0  0  0  0
   -2.3685   18.9377   39.0586 H   0  0  0  0  0  0  0  0  0  0  0  0
    0.5913   14.6221   46.1169 H   0  0  0  0  0  0  0  0  0  0  0  0
    2.6535   13.3859   46.7788 H   0  0  0  0  0  0  0  0  0  0  0  0
    4.6856   14.9129   43.2831 H   0  0  0  0  0  0  0  0  0  0  0  0
    2.6300   16.1756   42.6504 H   0  0  0  0  0  0  0  0  0  0  0  0
   -1.0549   15.7299   45.5894 H   0  0  0  0  0  0  0  0  0  0  0  0
    1.2833   17.5612   40.9139 H   0  0  0  0  0  0  0  0  0  0  0  0
   -2.1252   18.8200   41.4957 H   0  0  0  0  0  0  0  0  0  0  0  0
  1  2  1  0
  1 19  1  0
  1 20  2  0
  2  3  1  0
  2 16  2  0
  3  4  2  0
  4  5  1  0
  5 15  2  0
  5 17  1  0
  6 17  1  0
  6 18  2  0
  6 22  1  0
  7  8  1  0
  7 14  2  0
  7 18  1  0
  8  9  1  0
  8 13  2  0
  9 10  2  0
 10 11  1  0
 11 12  2  0
 11 23  1  0
 12 13  1  0
 14 22  1  0
 15 16  1  0
 16 21  1  0
  3 24  1  0
  4 25  1  0
  9 26  1  0
 10 27  1  0
 12 28  1  0
 13 29  1  0
 14 30  1  0
 15 31  1  0
 17 32  1  0
M  CHG  2  19  -1  21  -1
M  END
>  <mol_id>  (53) 
2026-08-23-6tgu-s0-n100-r4-0053

>  <rmsd_to_ref>  (53) 
2.8418367347024596

$$$$
6tgu.A
     RDKit          3D

 32 34  0  0  0  0  0  0  0  0999 V2000
    1.5104   22.1979   39.6433 C   0  0  0  0  0  0  0  0  0  0  0  0
    1.3322   21.0139   40.5091 C   0  0  0  0  0  0  0  0  0  0  0  0
    0.2037   20.2195   40.3442 C   0  0  0  0  0  0  0  0  0  0  0  0
    0.0214   19.0844   41.1436 C   0  0  0  0  0  0  0  0  0  0  0  0
    0.9386   18.7304   42.0970 C   0  0  0  0  0  0  0  0  0  0  0  0
    0.8350   16.3097   42.2737 C   0  0  0  0  0  0  0  0  0  0  0  0
    1.1523   14.1631   41.6666 C   0  0  0  0  0  0  0  0  0  0  0  0
    1.8414   12.8895   41.8157 C   0  0  0  0  0  0  0  0  0  0  0  0
    2.8189   12.7676   42.7836 C   0  0  0  0  0  0  0  0  0  0  0  0
    3.4541   11.5561   42.8786 C   0  0  0  0  0  0  0  0  0  0  0  0
    3.2020   10.4616   42.0968 C   0  0  0  0  0  0  0  0  0  0  0  0
    2.2127   10.5875   41.1209 C   0  0  0  0  0  0  0  0  0  0  0  0
    1.5509   11.8081   41.0012 C   0  0  0  0  0  0  0  0  0  0  0  0
    0.1722   14.3069   40.6022 C   0  0  0  0  0  0  0  0  0  0  0  0
    2.0491   19.5401   42.2394 C   0  0  0  0  0  0  0  0  0  0  0  0
    2.2646   20.6689   41.4696 C   0  0  0  0  0  0  0  0  0  0  0  0
    0.8794   17.5823   42.9194 N   0  0  0  0  0  0  0  0  0  0  0  0
    1.2734   15.2745   42.3100 N   0  0  0  0  0  0  0  0  0  0  0  0
    2.6449   22.9808   39.8029 O   0  0  0  0  0  0  0  0  0  0  0  0
    0.6154   22.4652   38.7758 O   0  0  0  0  0  0  0  0  0  0  0  0
    3.3766   21.4726   41.6170 O   0  0  0  0  0  0  0  0  0  0  0  0
   -0.3622   16.0860   40.7906 S   0  0  0  0  0  0  0  0  0  0  0  0
    4.0405    8.9339   42.2598 Cl  0  0  0  0  0  0  0  0  0  0  0  0
   -0.5378   20.4910   39.5803 H   0  0  0  0  0  0  0  0  0  0  0  0
   -0.8732   18.5096   40.9958 H   0  0  0  0  0  0  0  0  0  0  0  0
    3.0753   13.5955   43.4458 H   0  0  0  0  0  0  0  0  0  0  0  0
    4.2283   11.4572   43.6516 H   0  0  0  0  0  0  0  0  0  0  0  0
    1.9557    9.7521   40.4594 H   0  0  0  0  0  0  0  0  0  0  0  0
    0.7833   11.8684   40.2261 H   0  0  0  0  0  0  0  0  0  0  0  0
   -0.1689   13.6467   39.9029 H   0  0  0  0  0  0  0  0  0  0  0  0
    2.8177   19.3169   42.9721 H   0  0  0  0  0  0  0  0  0  0  0  0
    0.8661   17.6313   43.9611 H   0  0  0  0  0  0  0  0  0  0  0  0
  1  2  1  0
  1 19  1  0
  1 20  2  0
  2  3  1  0
  2 16  2  0
  3  4  2  0
  4  5  1  0
  5 15  2  0
  5 17  1  0
  6 17  1  0
  6 18  2  0
  6 22  1  0
  7  8  1  0
  7 14  2  0
  7 18  1  0
  8  9  1  0
  8 13  2  0
  9 10  2  0
 10 11  1  0
 11 12  2  0
 11 23  1  0
 12 13  1  0
 14 22  1  0
 15 16  1  0
 16 21  1  0
  3 24  1  0
  4 25  1  0
  9 26  1  0
 10 27  1  0
 12 28  1  0
 13 29  1  0
 14 30  1  0
 15 31  1  0
 17 32  1  0
M  CHG  2  19  -1  21  -1
M  END
>  <mol_id>  (54) 
2026-08-23-6tgu-s0-n100-r4-0054

>  <rmsd_to_ref>  (54) 
2.887755102044286

$$$$
6tgu.A
     RDKit          3D

 32 34  0  0  0  0  0  0  0  0999 V2000
    5.0203   17.5011   37.6907 C   0  0  0  0  0  0  0  0  0  0  0  0
    4.2217   17.8652   38.9454 C   0  0  0  0  0  0  0  0  0  0  0  0
    4.2271   19.1700   39.4333 C   0  0  0  0  0  0  0  0  0  0  0  0
    3.3674   19.5832   40.4564 C   0  0  0  0  0  0  0  0  0  0  0  0
    2.5898   18.6415   41.1460 C   0  0  0  0  0  0  0  0  0  0  0  0
    0.5194   18.4640   42.6106 C   0  0  0  0  0  0  0  0  0  0  0  0
   -1.0556   16.8427   42.8684 C   0  0  0  0  0  0  0  0  0  0  0  0
   -1.6279   15.5078   42.6908 C   0  0  0  0  0  0  0  0  0  0  0  0
   -2.9167   15.1859   43.1395 C   0  0  0  0  0  0  0  0  0  0  0  0
   -3.4545   13.9198   42.9302 C   0  0  0  0  0  0  0  0  0  0  0  0
   -2.7095   12.9905   42.2290 C   0  0  0  0  0  0  0  0  0  0  0  0
   -1.4334   13.2684   41.7626 C   0  0  0  0  0  0  0  0  0  0  0  0
   -0.9084   14.5372   41.9919 C   0  0  0  0  0  0  0  0  0  0  0  0
   -1.7026   17.8765   43.4920 C   0  0  0  0  0  0  0  0  0  0  0  0
    2.5645   17.3262   40.6608 C   0  0  0  0  0  0  0  0  0  0  0  0
    3.3776   16.9652   39.5849 C   0  0  0  0  0  0  0  0  0  0  0  0
    1.6603   19.0550   42.1490 N   0  0  0  0  0  0  0  0  0  0  0  0
    0.1838   17.1710   42.2697 N   0  0  0  0  0  0  0  0  0  0  0  0
    5.5310   18.4643   37.0468 O   0  0  0  0  0  0  0  0  0  0  0  0
    5.0363   16.2955   37.3590 O   0  0  0  0  0  0  0  0  0  0  0  0
    3.2678   15.7029   39.0516 O   0  0  0  0  0  0  0  0  0  0  0  0
   -0.8082   19.3416   43.3458 S   0  0  0  0  0  0  0  0  0  0  0  0
   -3.3823   11.4231   41.9252 Cl  0  0  0  0  0  0  0  0  0  0  0  0
    4.9291   19.8980   39.0006 H   0  0  0  0  0  0  0  0  0  0  0  0
    3.3011   20.6489   40.7207 H   0  0  0  0  0  0  0  0  0  0  0  0
   -3.5123   15.9466   43.6654 H   0  0  0  0  0  0  0  0  0  0  0  0
   -4.4525   13.6636   43.3152 H   0  0  0  0  0  0  0  0  0  0  0  0
   -0.8509   12.5056   41.2251 H   0  0  0  0  0  0  0  0  0  0  0  0
    0.0956   14.7802   41.6138 H   0  0  0  0  0  0  0  0  0  0  0  0
   -2.6652   17.7836   44.0164 H   0  0  0  0  0  0  0  0  0  0  0  0
    1.9049   16.5797   41.1274 H   0  0  0  0  0  0  0  0  0  0  0  0
    1.8899   19.9516   42.6008 H   0  0  0  0  0  0  0  0  0  0  0  0
  1  2  1  0
  1 19  1  0
  1 20  2  0
  2  3  1  0
  2 16  2  0
  3  4  2  0
  4  5  1  0
  5 15  2  0
  5 17  1  0
  6 17  1  0
  6 18  2  0
  6 22  1  0
  7  8  1  0
  7 14  2  0
  7 18  1  0
  8  9  1  0
  8 13  2  0
  9 10  2  0
 10 11  1  0
 11 12  2  0
 11 23  1  0
 12 13  1  0
 14 22  1  0
 15 16  1  0
 16 21  1  0
  3 24  1  0
  4 25  1  0
  9 26  1  0
 10 27  1  0
 12 28  1  0
 13 29  1  0
 14 30  1  0
 15 31  1  0
 17 32  1  0
M  CHG  2  19  -1  21  -1
M  END
>  <mol_id>  (55) 
2026-08-23-6tgu-s0-n100-r4-0055

>  <rmsd_to_ref>  (55) 
2.933673469391544

$$$$
6tgu.A
     RDKit          3D

 32 34  0  0  0  0  0  0  0  0999 V2000
    5.1385   21.9102   40.7059 C   0  0  0  0  0  0  0  0  0  0  0  0
    4.2291   20.9199   41.2909 C   0  0  0  0  0  0  0  0  0  0  0  0
    4.0960   20.8761   42.6598 C   0  0  0  0  0  0  0  0  0  0  0  0
    3.2230   19.9229   43.1712 C   0  0  0  0  0  0  0  0  0  0  0  0
    2.5203   19.0573   42.3246 C   0  0  0  0  0  0  0  0  0  0  0  0
    1.0050   17.1273   42.1032 C   0  0  0  0  0  0  0  0  0  0  0  0
    0.4110   15.1940   40.9860 C   0  0  0  0  0  0  0  0  0  0  0  0
    0.6285   13.7527   40.6776 C   0  0  0  0  0  0  0  0  0  0  0  0
   -0.1997   13.0922   39.8082 C   0  0  0  0  0  0  0  0  0  0  0  0
    0.0577   11.7573   39.5771 C   0  0  0  0  0  0  0  0  0  0  0  0
    1.0934   11.0663   40.1701 C   0  0  0  0  0  0  0  0  0  0  0  0
    1.9269   11.7290   41.0447 C   0  0  0  0  0  0  0  0  0  0  0  0
    1.6788   13.0610   41.2823 C   0  0  0  0  0  0  0  0  0  0  0  0
   -0.6558   15.8688   40.3968 C   0  0  0  0  0  0  0  0  0  0  0  0
    2.6907   19.1428   40.9384 C   0  0  0  0  0  0  0  0  0  0  0  0
    3.5544   20.0845   40.4238 C   0  0  0  0  0  0  0  0  0  0  0  0
    1.6089   18.0826   42.8772 N   0  0  0  0  0  0  0  0  0  0  0  0
    1.1587   15.8577   41.7872 N   0  0  0  0  0  0  0  0  0  0  0  0
    5.8620   22.7946   41.5267 O   0  0  0  0  0  0  0  0  0  0  0  0
    5.2599   21.9532   39.4341 O   0  0  0  0  0  0  0  0  0  0  0  0
    3.6900   20.1309   39.0462 O   0  0  0  0  0  0  0  0  0  0  0  0
   -0.5539   17.5592   41.0534 S   0  0  0  0  0  0  0  0  0  0  0  0
    1.3786    9.3533   39.8403 Cl  0  0  0  0  0  0  0  0  0  0  0  0
    4.6326   21.5396   43.3401 H   0  0  0  0  0  0  0  0  0  0  0  0
    3.0595   19.8213   44.2498 H   0  0  0  0  0  0  0  0  0  0  0  0
   -1.0216   13.5721   39.3129 H   0  0  0  0  0  0  0  0  0  0  0  0
   -0.6046   11.2531   38.8901 H   0  0  0  0  0  0  0  0  0  0  0  0
    2.7609   11.2342   41.5424 H   0  0  0  0  0  0  0  0  0  0  0  0
    2.3511   13.5568   41.9755 H   0  0  0  0  0  0  0  0  0  0  0  0
   -1.4583   15.5134   39.6576 H   0  0  0  0  0  0  0  0  0  0  0  0
    2.1500   18.4770   40.2586 H   0  0  0  0  0  0  0  0  0  0  0  0
    1.4225   18.1329   43.9028 H   0  0  0  0  0  0  0  0  0  0  0  0
  1  2  1  0
  1 19  1  0
  1 20  2  0
  2  3  1  0
  2 16  2  0
  3  4  2  0
  4  5  1  0
  5 15  2  0
  5 17  1  0
  6 17  1  0
  6 18  2  0
  6 22  1  0
  7  8  1  0
  7 14  2  0
  7 18  1  0
  8  9  1  0
  8 13  2  0
  9 10  2  0
 10 11  1  0
 11 12  2  0
 11 23  1  0
 12 13  1  0
 14 22  1  0
 15 16  1  0
 16 21  1  0
  3 24  1  0
  4 25  1  0
  9 26  1  0
 10 27  1  0
 12 28  1  0
 13 29  1  0
 14 30  1  0
 15 31  1  0
 17 32  1  0
M  CHG  2  19  -1  21  -1
M  END
>  <mol_id>  (56) 
2026-08-23-6tgu-s0-n100-r4-0056

>  <rmsd_to_ref>  (56) 
2.9795918367401923

$$$$
6tgu.A
     RDKit          3D

 32 34  0  0  0  0  0  0  0  0999 V2000
    1.9401   22.6665   40.2526 C   0  0  0  0  0  0  0  0  0  0  0  0
    1.7378   21.4797   41.1988 C   0  0  0  0  0  0  0  0  0  0  0  0
    1.0109   21.6308   42.3775 C   0  0  0  0  0  0  0  0  0  0  0  0
    0.6442   20.5370   43.1684 C   0  0  0  0  0  0  0  0  0  0  0  0
    1.1530   19.2612   42.8852 C   0  0  0  0  0  0  0  0  0  0  0  0
    0.6966   16.7982   43.3197 C   0  0  0  0  0  0  0  0  0  0  0  0
    1.0581   14.9199   42.0881 C   0  0  0  0  0  0  0  0  0  0  0  0
    1.6098   14.1493   40.9732 C   0  0  0  0  0  0  0  0  0  0  0  0
    1.2871   12.7999   40.7706 C   0  0  0  0  0  0  0  0  0  0  0  0
    1.7965   12.0950   39.6845 C   0  0  0  0  0  0  0  0  0  0  0  0
    2.5970   12.7629   38.7769 C   0  0  0  0  0  0  0  0  0  0  0  0
    2.9366   14.0980   38.9357 C   0  0  0  0  0  0  0  0  0  0  0  0
    2.4261   14.7829   40.0349 C   0  0  0  0  0  0  0  0  0  0  0  0
    0.2074   14.4032   43.0292 C   0  0  0  0  0  0  0  0  0  0  0  0
    1.8772   19.0898   41.6968 C   0  0  0  0  0  0  0  0  0  0  0  0
    2.1586   20.1922   40.8877 C   0  0  0  0  0  0  0  0  0  0  0  0
    0.7380   18.1238   43.6436 N   0  0  0  0  0  0  0  0  0  0  0  0
    1.2868   16.3137   42.1717 N   0  0  0  0  0  0  0  0  0  0  0  0
    1.2823   23.7162   40.5144 O   0  0  0  0  0  0  0  0  0  0  0  0
    2.6724   22.4790   39.2565 O   0  0  0  0  0  0  0  0  0  0  0  0
    2.7771   19.9976   39.6756 O   0  0  0  0  0  0  0  0  0  0  0  0
   -0.3856   15.6411   44.0703 S   0  0  0  0  0  0  0  0  0  0  0  0
    3.2054   11.9090   37.3977 Cl  0  0  0  0  0  0  0  0  0  0  0  0
    0.7161   22.6415   42.6960 H   0  0  0  0  0  0  0  0  0  0  0  0
   -0.0448   20.6777   44.0143 H   0  0  0  0  0  0  0  0  0  0  0  0
    0.6203   12.2903   41.4817 H   0  0  0  0  0  0  0  0  0  0  0  0
    1.5669   11.0276   39.5508 H   0  0  0  0  0  0  0  0  0  0  0  0
    3.5927   14.6030   38.2114 H   0  0  0  0  0  0  0  0  0  0  0  0
    2.6714   15.8471   40.1670 H   0  0  0  0  0  0  0  0  0  0  0  0
   -0.0614   13.3396   43.1096 H   0  0  0  0  0  0  0  0  0  0  0  0
    2.2232   18.0880   41.4024 H   0  0  0  0  0  0  0  0  0  0  0  0
    0.4150   18.3408   44.5973 H   0  0  0  0  0  0  0  0  0  0  0  0
  1  2  1  0
  1 19  1  0
  1 20  2  0
  2  3  1  0
  2 16  2  0
  3  4  2  0
  4  5  1  0
  5 15  2  0
  5 17  1  0
  6 17  1  0
  6 18  2  0
  6 22  1  0
  7  8  1  0
  7 14  2  0
  7 18  1  0
  8  9  1  0
  8 13  2  0
  9 10  2  0
 10 11  1  0
 11 12  2  0
 11 23  1  0
 12 13  1  0
 14 22  1  0
 15 16  1  0
 16 21  1  0
  3 24  1  0
  4 25  1  0
  9 26  1  0
 10 27  1  0
 12 28  1  0
 13 29  1  0
 14 30  1  0
 15 31  1  0
 17 32  1  0
M  CHG  2  19  -1  21  -1
M  END
>  <mol_id>  (57) 
2026-08-23-6tgu-s0-n100-r4-0057

>  <rmsd_to_ref>  (57) 
3.0255102040905126

$$$$
6tgu.A
     RDKit          3D

 32 34  0  0  0  0  0  0  0  0999 V2000
    1.3352   22.9025   38.9158 C   0  0  0  0  0  0  0  0  0  0  0  0
    1.7228   21.5969   39.4348 C   0  0  0  0  0  0  0  0  0  0  0  0
    0.7885   20.5883   39.5447 C   0  0  0  0  0  0  0  0  0  0  0  0
    1.1603   19.3408   40.0409 C   0  0  0  0  0  0  0  0  0  0  0  0
    2.4451   19.0516   40.4380 C   0  0  0  0  0  0  0  0  0  0  0  0
    2.3452   16.5452   40.7051 C   0  0  0  0  0  0  0  0  0  0  0  0
    1.9000   14.3414   40.7140 C   0  0  0  0  0  0  0  0  0  0  0  0
    2.2384   13.0080   41.2339 C   0  0  0  0  0  0  0  0  0  0  0  0
    3.2584   12.7910   42.1355 C   0  0  0  0  0  0  0  0  0  0  0  0
    3.5750   11.5411   42.6213 C   0  0  0  0  0  0  0  0  0  0  0  0
    2.8462   10.4602   42.1922 C   0  0  0  0  0  0  0  0  0  0  0  0
    1.8156   10.6340   41.2891 C   0  0  0  0  0  0  0  0  0  0  0  0
    1.5273   11.9004   40.8244 C   0  0  0  0  0  0  0  0  0  0  0  0
    0.8988   14.5623   39.8287 C   0  0  0  0  0  0  0  0  0  0  0  0
    3.3607   20.0908   40.3139 C   0  0  0  0  0  0  0  0  0  0  0  0
    3.0170   21.3324   39.8266 C   0  0  0  0  0  0  0  0  0  0  0  0
    2.9067   17.8343   40.9260 N   0  0  0  0  0  0  0  0  0  0  0  0
    2.5379   15.4409   41.0613 N   0  0  0  0  0  0  0  0  0  0  0  0
    0.0317   23.1347   38.5334 O   0  0  0  0  0  0  0  0  0  0  0  0
    2.2056   23.8084   38.8236 O   0  0  0  0  0  0  0  0  0  0  0  0
    3.9476   22.3616   39.7094 O   0  0  0  0  0  0  0  0  0  0  0  0
    0.9113   16.2912   39.5370 S   0  0  0  0  0  0  0  0  0  0  0  0
    3.1778    8.8483   42.7537 Cl  0  0  0  0  0  0  0  0  0  0  0  0
   -0.2272   20.8018   39.2354 H   0  0  0  0  0  0  0  0  0  0  0  0
    0.3759   18.6125   40.1073 H   0  0  0  0  0  0  0  0  0  0  0  0
    3.8376   13.6339   42.4795 H   0  0  0  0  0  0  0  0  0  0  0  0
    4.3855   11.3882   43.3342 H   0  0  0  0  0  0  0  0  0  0  0  0
    1.2436    9.7964   40.9504 H   0  0  0  0  0  0  0  0  0  0  0  0
    0.7032   11.9853   40.1116 H   0  0  0  0  0  0  0  0  0  0  0  0
    0.1656   13.7958   39.3425 H   0  0  0  0  0  0  0  0  0  0  0  0
    4.3935   19.9270   40.6114 H   0  0  0  0  0  0  0  0  0  0  0  0
    3.7752   17.8276   41.5390 H   0  0  0  0  0  0  0  0  0  0  0  0
  1  2  1  0
  1 19  1  0
  1 20  2  0
  2  3  1  0
  2 16  2  0
  3  4  2  0
  4  5  1  0
  5 15  2  0
  5 17  1  0
  6 17  1  0
  6 18  2  0
  6 22  1  0
  7  8  1  0
  7 14  2  0
  7 18  1  0
  8  9  1  0
  8 13  2  0
  9 10  2  0
 10 11  1  0
 11 12  2  0
 11 23  1  0
 12 13  1  0
 14 22  1  0
 15 16  1  0
 16 21  1  0
  3 24  1  0
  4 25  1  0
  9 26  1  0
 10 27  1  0
 12 28  1  0
 13 29  1  0
 14 30  1  0
 15 31  1  0
 17 32  1  0
M  CHG  2  19  -1  21  -1
M  END
>  <mol_id>  (58) 
2026-08-23-6tgu-s0-n100-r4-0058

>  <rmsd_to_ref>  (58) 
3.0714285714300598

$$$$
6tgu.A
     RDKit          3D

 32 34  0  0  0  0  0  0  0  0999 V2000
    1.5759   17.0061   34.9551 C   0  0  0  0  0  0  0  0  0  0  0  0
    1.4931   17.8203   36.2494 C   0  0  0  0  0  0  0  0  0  0  0  0
    0.9058   19.0835   36.2540 C   0  0  0  0  0  0  0  0  0  0  0  0
    0.6411   19.7743   37.4410 C   0  0  0  0  0  0  0  0  0  0  0  0
    1.1236   19.2845   38.6633 C   0  0  0  0  0  0  0  0  0  0  0  0
    0.7391   19.4701   41.1695 C   0  0  0  0  0  0  0  0  0  0  0  0
    0.9705   17.9896   42.8813 C   0  0  0  0  0  0  0  0  0  0  0  0
    1.3958   16.7351   43.5030 C   0  0  0  0  0  0  0  0  0  0  0  0
    1.0621   16.4104   44.8256 C   0  0  0  0  0  0  0  0  0  0  0  0
    1.4483   15.1970   45.3864 C   0  0  0  0  0  0  0  0  0  0  0  0
    2.1336   14.2909   44.5992 C   0  0  0  0  0  0  0  0  0  0  0  0
    2.4791   14.5687   43.2852 C   0  0  0  0  0  0  0  0  0  0  0  0
    2.0935   15.7928   42.7458 C   0  0  0  0  0  0  0  0  0  0  0  0
    0.2379   18.9526   43.5234 C   0  0  0  0  0  0  0  0  0  0  0  0
    1.7072   18.0096   38.6778 C   0  0  0  0  0  0  0  0  0  0  0  0
    1.8850   17.3116   37.4819 C   0  0  0  0  0  0  0  0  0  0  0  0
    0.8075   19.9436   39.8909 N   0  0  0  0  0  0  0  0  0  0  0  0
    1.1966   18.2129   41.5025 N   0  0  0  0  0  0  0  0  0  0  0  0
    0.9447   17.4647   33.9579 O   0  0  0  0  0  0  0  0  0  0  0  0
    2.1898   15.9180   35.0082 O   0  0  0  0  0  0  0  0  0  0  0  0
    2.3611   16.0225   37.5188 O   0  0  0  0  0  0  0  0  0  0  0  0
   -0.2405   20.1949   42.4299 S   0  0  0  0  0  0  0  0  0  0  0  0
    2.5854   12.7593   45.2712 Cl  0  0  0  0  0  0  0  0  0  0  0  0
    0.6420   19.5521   35.2944 H   0  0  0  0  0  0  0  0  0  0  0  0
    0.0532   20.7037   37.4158 H   0  0  0  0  0  0  0  0  0  0  0  0
    0.4857   17.1266   45.4296 H   0  0  0  0  0  0  0  0  0  0  0  0
    1.2128   14.9635   46.4352 H   0  0  0  0  0  0  0  0  0  0  0  0
    3.0434   13.8403   42.6844 H   0  0  0  0  0  0  0  0  0  0  0  0
    2.3443   16.0225   41.6997 H   0  0  0  0  0  0  0  0  0  0  0  0
   -0.0117   18.9351   44.5946 H   0  0  0  0  0  0  0  0  0  0  0  0
    2.0245   17.5601   39.6303 H   0  0  0  0  0  0  0  0  0  0  0  0
    0.5950   20.9468   39.7948 H   0  0  0  0  0  0  0  0  0  0  0  0
  1  2  1  0
  1 19  1  0
  1 20  2  0
  2  3  1  0
  2 16  2  0
  3  4  2  0
  4  5  1  0
  5 15  2  0
  5 17  1  0
  6 17  1  0
  6 18  2  0
  6 22  1  0
  7  8  1  0
  7 14  2  0
  7 18  1  0
  8  9  1  0
  8 13  2  0
  9 10  2  0
 10 11  1  0
 11 12  2  0
 11 23  1  0
 12 13  1  0
 14 22  1  0
 15 16  1  0
 16 21  1  0
  3 24  1  0
  4 25  1  0
  9 26  1  0
 10 27  1  0
 12 28  1  0
 13 29  1  0
 14 30  1  0
 15 31  1  0
 17 32  1  0
M  CHG  2  19  -1  21  -1
M  END
>  <mol_id>  (59) 
2026-08-23-6tgu-s0-n100-r4-0059

>  <rmsd_to_ref>  (59) 
3.1173469387768606

$$$$
6tgu.A
     RDKit          3D

 32 34  0  0  0  0  0  0  0  0999 V2000
    6.9724   18.3883   38.2394 C   0  0  0  0  0  0  0  0  0  0  0  0
    5.5813   18.5003   38.6519 C   0  0  0  0  0  0  0  0  0  0  0  0
    5.0558   17.5899   39.5435 C   0  0  0  0  0  0  0  0  0  0  0  0
    3.7204   17.6890   39.9376 C   0  0  0  0  0  0  0  0  0  0  0  0
    2.9320   18.7098   39.4230 C   0  0  0  0  0  0  0  0  0  0  0  0
    1.0294   18.0575   40.8721 C   0  0  0  0  0  0  0  0  0  0  0  0
    0.1367   16.6639   42.3865 C   0  0  0  0  0  0  0  0  0  0  0  0
   -0.4058   15.3087   42.6678 C   0  0  0  0  0  0  0  0  0  0  0  0
   -0.8613   14.9726   43.9214 C   0  0  0  0  0  0  0  0  0  0  0  0
   -1.3677   13.7513   44.2718 C   0  0  0  0  0  0  0  0  0  0  0  0
   -1.4177   12.7880   43.2725 C   0  0  0  0  0  0  0  0  0  0  0  0
   -0.9720   13.0841   42.0060 C   0  0  0  0  0  0  0  0  0  0  0  0
   -0.4654   14.3364   41.6925 C   0  0  0  0  0  0  0  0  0  0  0  0
    0.2147   17.6103   43.3640 C   0  0  0  0  0  0  0  0  0  0  0  0
    3.4891   19.6253   38.5160 C   0  0  0  0  0  0  0  0  0  0  0  0
    4.8020   19.5347   38.1241 C   0  0  0  0  0  0  0  0  0  0  0  0
    1.5726   18.8376   39.8080 N   0  0  0  0  0  0  0  0  0  0  0  0
    0.5866   17.0641   41.2161 N   0  0  0  0  0  0  0  0  0  0  0  0
    7.5607   19.2617   37.3400 O   0  0  0  0  0  0  0  0  0  0  0  0
    7.6846   17.4601   38.7141 O   0  0  0  0  0  0  0  0  0  0  0  0
    5.3655   20.4448   37.2204 O   0  0  0  0  0  0  0  0  0  0  0  0
    0.9568   19.0694   42.5097 S   0  0  0  0  0  0  0  0  0  0  0  0
   -2.0428   11.1921   43.5938 Cl  0  0  0  0  0  0  0  0  0  0  0  0
    5.6161   16.7748   39.9778 H   0  0  0  0  0  0  0  0  0  0  0  0
    3.3219   16.9538   40.6466 H   0  0  0  0  0  0  0  0  0  0  0  0
   -0.8224   15.7291   44.7023 H   0  0  0  0  0  0  0  0  0  0  0  0
   -1.7095   13.5562   45.2792 H   0  0  0  0  0  0  0  0  0  0  0  0
   -0.9888   12.3621   41.1877 H   0  0  0  0  0  0  0  0  0  0  0  0
   -0.1173   14.5621   40.6956 H   0  0  0  0  0  0  0  0  0  0  0  0
   -0.0539   17.6330   44.4122 H   0  0  0  0  0  0  0  0  0  0  0  0
    2.8388   20.4099   38.1382 H   0  0  0  0  0  0  0  0  0  0  0  0
    0.9458   19.5027   39.3266 H   0  0  0  0  0  0  0  0  0  0  0  0
  1  2  1  0
  1 19  1  0
  1 20  2  0
  2  3  1  0
  2 16  2  0
  3  4  2  0
  4  5  1  0
  5 15  2  0
  5 17  1  0
  6 17  1  0
  6 18  2  0
  6 22  1  0
  7  8  1  0
  7 14  2  0
  7 18  1  0
  8  9  1  0
  8 13  2  0
  9 10  2  0
 10 11  1  0
 11 12  2  0
 11 23  1  0
 12 13  1  0
 14 22  1  0
 15 16  1  0
 16 21  1  0
  3 24  1  0
  4 25  1  0
  9 26  1  0
 10 27  1  0
 12 28  1  0
 13 29  1  0
 14 30  1  0
 15 31  1  0
 17 32  1  0
M  CHG  2  19  -1  21  -1
M  END
>  <mol_id>  (60) 
2026-08-23-6tgu-s0-n100-r4-0060

>  <rmsd_to_ref>  (60) 
3.1632653061258065

$$$$
6tgu.A
     RDKit          3D

 32 34  0  0  0  0  0  0  0  0999 V2000
    5.3259   19.6537   41.8013 C   0  0  0  0  0  0  0  0  0  0  0  0
    3.8772   19.1660   41.8903 C   0  0  0  0  0  0  0  0  0  0  0  0
    2.8197   20.0658   41.7769 C   0  0  0  0  0  0  0  0  0  0  0  0
    1.4922   19.6401   41.6628 C   0  0  0  0  0  0  0  0  0  0  0  0
    1.1695   18.2864   41.8365 C   0  0  0  0  0  0  0  0  0  0  0  0
   -0.6587   16.5971   41.3194 C   0  0  0  0  0  0  0  0  0  0  0  0
   -0.6191   14.3666   40.8733 C   0  0  0  0  0  0  0  0  0  0  0  0
   -0.0047   13.0416   40.7830 C   0  0  0  0  0  0  0  0  0  0  0  0
   -0.6858   11.9418   40.2421 C   0  0  0  0  0  0  0  0  0  0  0  0
   -0.0707   10.6984   40.1347 C   0  0  0  0  0  0  0  0  0  0  0  0
    1.2472   10.5738   40.5322 C   0  0  0  0  0  0  0  0  0  0  0  0
    1.9598   11.6365   41.0671 C   0  0  0  0  0  0  0  0  0  0  0  0
    1.3232   12.8697   41.1769 C   0  0  0  0  0  0  0  0  0  0  0  0
   -1.8957   14.6482   40.4642 C   0  0  0  0  0  0  0  0  0  0  0  0
    2.2225   17.3663   41.9407 C   0  0  0  0  0  0  0  0  0  0  0  0
    3.5426   17.8196   41.9719 C   0  0  0  0  0  0  0  0  0  0  0  0
   -0.1714   17.8261   41.6598 N   0  0  0  0  0  0  0  0  0  0  0  0
    0.1501   15.4811   41.2837 N   0  0  0  0  0  0  0  0  0  0  0  0
    5.4956   20.8606   41.4580 O   0  0  0  0  0  0  0  0  0  0  0  0
    6.2229   18.8043   41.9949 O   0  0  0  0  0  0  0  0  0  0  0  0
    4.5689   16.9050   41.9688 O   0  0  0  0  0  0  0  0  0  0  0  0
   -2.2091   16.3404   40.5425 S   0  0  0  0  0  0  0  0  0  0  0  0
    2.0390    9.0418   40.3665 Cl  0  0  0  0  0  0  0  0  0  0  0  0
    3.0354   21.1444   41.7770 H   0  0  0  0  0  0  0  0  0  0  0  0
    0.6997   20.3686   41.4363 H   0  0  0  0  0  0  0  0  0  0  0  0
   -1.7231   12.0640   39.8971 H   0  0  0  0  0  0  0  0  0  0  0  0
   -0.6223    9.8318   39.7413 H   0  0  0  0  0  0  0  0  0  0  0  0
    3.0015   11.5082   41.3963 H   0  0  0  0  0  0  0  0  0  0  0  0
    1.8791   13.7276   41.5831 H   0  0  0  0  0  0  0  0  0  0  0  0
   -2.6237   13.8943   40.1301 H   0  0  0  0  0  0  0  0  0  0  0  0
    2.0087   16.2888   41.9979 H   0  0  0  0  0  0  0  0  0  0  0  0
   -0.8936   18.5438   41.8158 H   0  0  0  0  0  0  0  0  0  0  0  0
  1  2  1  0
  1 19  1  0
  1 20  2  0
  2  3  1  0
  2 16  2  0
  3  4  2  0
  4  5  1  0
  5 15  2  0
  5 17  1  0
  6 17  1  0
  6 18  2  0
  6 22  1  0
  7  8  1  0
  7 14  2  0
  7 18  1  0
  8  9  1  0
  8 13  2  0
  9 10  2  0
 10 11  1  0
 11 12  2  0
 11 23  1  0
 12 13  1  0
 14 22  1  0
 15 16  1  0
 16 21  1  0
  3 24  1  0
  4 25  1  0
  9 26  1  0
 10 27  1  0
 12 28  1  0
 13 29  1  0
 14 30  1  0
 15 31  1  0
 17 32  1  0
M  CHG  2  19  -1  21  -1
M  END
>  <mol_id>  (61) 
2026-08-23-6tgu-s0-n100-r4-0061

>  <rmsd_to_ref>  (61) 
3.209183673469737

$$$$
6tgu.A
     RDKit          3D

 32 34  0  0  0  0  0  0  0  0999 V2000
    2.9318   18.3125   36.1162 C   0  0  0  0  0  0  0  0  0  0  0  0
    2.8172   18.1644   37.5664 C   0  0  0  0  0  0  0  0  0  0  0  0
    1.6248   17.8657   38.1849 C   0  0  0  0  0  0  0  0  0  0  0  0
    1.5173   17.7238   39.5548 C   0  0  0  0  0  0  0  0  0  0  0  0
    2.6737   17.8962   40.2958 C   0  0  0  0  0  0  0  0  0  0  0  0
    1.3718   17.5029   42.3782 C   0  0  0  0  0  0  0  0  0  0  0  0
   -0.5710   16.6807   43.1734 C   0  0  0  0  0  0  0  0  0  0  0  0
   -1.6050   15.6211   43.1618 C   0  0  0  0  0  0  0  0  0  0  0  0
   -1.5065   14.5206   42.3382 C   0  0  0  0  0  0  0  0  0  0  0  0
   -2.4706   13.5189   42.3046 C   0  0  0  0  0  0  0  0  0  0  0  0
   -3.5808   13.6480   43.1475 C   0  0  0  0  0  0  0  0  0  0  0  0
   -3.7126   14.7424   43.9898 C   0  0  0  0  0  0  0  0  0  0  0  0
   -2.7155   15.6992   43.9703 C   0  0  0  0  0  0  0  0  0  0  0  0
   -0.6990   17.8081   44.0102 C   0  0  0  0  0  0  0  0  0  0  0  0
    3.8900   18.1982   39.6990 C   0  0  0  0  0  0  0  0  0  0  0  0
    3.9793   18.3375   38.3154 C   0  0  0  0  0  0  0  0  0  0  0  0
    2.6033   17.7472   41.7088 N   0  0  0  0  0  0  0  0  0  0  0  0
    0.4892   16.6784   42.4406 N   0  0  0  0  0  0  0  0  0  0  0  0
    1.7922   18.1434   35.3077 O   0  0  0  0  0  0  0  0  0  0  0  0
    4.0606   18.5891   35.6343 O   0  0  0  0  0  0  0  0  0  0  0  0
    5.2024   18.6405   37.7249 O   0  0  0  0  0  0  0  0  0  0  0  0
    0.7538   18.7751   43.6486 S   0  0  0  0  0  0  0  0  0  0  0  0
   -4.8487   12.4212   43.1616 Cl  0  0  0  0  0  0  0  0  0  0  0  0
    0.7394   17.7386   37.5601 H   0  0  0  0  0  0  0  0  0  0  0  0
    0.5556   17.4875   40.0066 H   0  0  0  0  0  0  0  0  0  0  0  0
   -0.6693   14.3961   41.6850 H   0  0  0  0  0  0  0  0  0  0  0  0
   -2.3946   12.6533   41.6572 H   0  0  0  0  0  0  0  0  0  0  0  0
   -4.5572   14.8701   44.6527 H   0  0  0  0  0  0  0  0  0  0  0  0
   -2.8512   16.5493   44.6484 H   0  0  0  0  0  0  0  0  0  0  0  0
   -1.4750   18.0417   44.7029 H   0  0  0  0  0  0  0  0  0  0  0  0
    4.8053   18.3344   40.2965 H   0  0  0  0  0  0  0  0  0  0  0  0
    3.4713   17.8187   42.2876 H   0  0  0  0  0  0  0  0  0  0  0  0
  1  2  1  0
  1 19  1  0
  1 20  2  0
  2  3  1  0
  2 16  2  0
  3  4  2  0
  4  5  1  0
  5 15  2  0
  5 17  1  0
  6 17  1  0
  6 18  2  0
  6 22  1  0
  7  8  1  0
  7 14  2  0
  7 18  1  0
  8  9  1  0
  8 13  2  0
  9 10  2  0
 10 11  1  0
 11 12  2  0
 11 23  1  0
 12 13  1  0
 14 22  1  0
 15 16  1  0
 16 21  1  0
  3 24  1  0
  4 25  1  0
  9 26  1  0
 10 27  1  0
 12 28  1  0
 13 29  1  0
 14 30  1  0
 15 31  1  0
 17 32  1  0
M  CHG  2  19  -1  21  -1
M  END
>  <mol_id>  (62) 
2026-08-23-6tgu-s0-n100-r4-0062

>  <rmsd_to_ref>  (62) 
3.2551020408228095

$$$$
6tgu.A
     RDKit          3D

 32 34  0  0  0  0  0  0  0  0999 V2000
    1.0380   16.2473   34.8878 C   0  0  0  0  0  0  0  0  0  0  0  0
    0.8587   17.0727   36.1650 C   0  0  0  0  0  0  0  0  0  0  0  0
    0.0421   18.2014   36.1690 C   0  0  0  0  0  0  0  0  0  0  0  0
   -0.2968   18.8678   37.3511 C   0  0  0  0  0  0  0  0  0  0  0  0
    0.3235   18.5181   38.5592 C   0  0  0  0  0  0  0  0  0  0  0  0
    0.0215   18.7088   41.0763 C   0  0  0  0  0  0  0  0  0  0  0  0
    0.6059   17.3552   42.8089 C   0  0  0  0  0  0  0  0  0  0  0  0
    1.2894   16.2247   43.4381 C   0  0  0  0  0  0  0  0  0  0  0  0
    1.0823   15.8859   44.7829 C   0  0  0  0  0  0  0  0  0  0  0  0
    1.7170   14.7863   45.3522 C   0  0  0  0  0  0  0  0  0  0  0  0
    2.5271   14.0012   44.5536 C   0  0  0  0  0  0  0  0  0  0  0  0
    2.7551   14.2966   43.2180 C   0  0  0  0  0  0  0  0  0  0  0  0
    2.1199   15.4074   42.6697 C   0  0  0  0  0  0  0  0  0  0  0  0
   -0.2678   18.1825   43.4636 C   0  0  0  0  0  0  0  0  0  0  0  0
    1.1395   17.3779   38.5748 C   0  0  0  0  0  0  0  0  0  0  0  0
    1.3942   16.6877   37.3883 C   0  0  0  0  0  0  0  0  0  0  0  0
   -0.0580   19.1449   39.7851 N   0  0  0  0  0  0  0  0  0  0  0  0
    0.7244   17.5724   41.4157 N   0  0  0  0  0  0  0  0  0  0  0  0
    0.2877   16.5455   33.9125 O   0  0  0  0  0  0  0  0  0  0  0  0
    1.8498   15.2974   34.9360 O   0  0  0  0  0  0  0  0  0  0  0  0
    2.1084   15.5139   37.4320 O   0  0  0  0  0  0  0  0  0  0  0  0
   -1.0218   19.2756   42.3661 S   0  0  0  0  0  0  0  0  0  0  0  0
    3.2916   12.6054   45.2383 Cl  0  0  0  0  0  0  0  0  0  0  0  0
   -0.3481   18.5802   35.2128 H   0  0  0  0  0  0  0  0  0  0  0  0
   -1.0516   19.6678   37.3331 H   0  0  0  0  0  0  0  0  0  0  0  0
    0.4071   16.4992   45.3976 H   0  0  0  0  0  0  0  0  0  0  0  0
    1.5768   14.5467   46.4166 H   0  0  0  0  0  0  0  0  0  0  0  0
    3.4209   13.6690   42.6073 H   0  0  0  0  0  0  0  0  0  0  0  0
    2.2761   15.6464   41.6074 H   0  0  0  0  0  0  0  0  0  0  0  0
   -0.4621   18.1528   44.5459 H   0  0  0  0  0  0  0  0  0  0  0  0
    1.5783   17.0276   39.5208 H   0  0  0  0  0  0  0  0  0  0  0  0
   -0.4619   20.0862   39.6761 H   0  0  0  0  0  0  0  0  0  0  0  0
  1  2  1  0
  1 19  1  0
  1 20  2  0
  2  3  1  0
  2 16  2  0
  3  4  2  0
  4  5  1  0
  5 15  2  0
  5 17  1  0
  6 17  1  0
  6 18  2  0
  6 22  1  0
  7  8  1  0
  7 14  2  0
  7 18  1  0
  8  9  1  0
  8 13  2  0
  9 10  2  0
 10 11  1  0
 11 12  2  0
 11 23  1  0
 12 13  1  0
 14 22  1  0
 15 16  1  0
 16 21  1  0
  3 24  1  0
  4 25  1  0
  9 26  1  0
 10 27  1  0
 12 28  1  0
 13 29  1  0
 14 30  1  0
 15 31  1  0
 17 32  1  0
M  CHG  2  19  -1  21  -1
M  END
>  <mol_id>  (63) 
2026-08-23-6tgu-s0-n100-r4-0063

>  <rmsd_to_ref>  (63) 
3.301020408170581

$$$$
6tgu.A
     RDKit          3D

 32 34  0  0  0  0  0  0  0  0999 V2000
    5.7623   19.2849   37.5428 C   0  0  0  0  0  0  0  0  0  0  0  0
    4.3220   19.2752   37.7728 C   0  0  0  0  0  0  0  0  0  0  0  0
    3.7830   18.5238   38.7935 C   0  0  0  0  0  0  0  0  0  0  0  0
    2.4096   18.5374   38.9842 C   0  0  0  0  0  0  0  0  0  0  0  0
    1.5453   19.2668   38.2035 C   0  0  0  0  0  0  0  0  0  0  0  0
   -0.4539   18.5417   39.4121 C   0  0  0  0  0  0  0  0  0  0  0  0
   -1.0664   17.2306   41.1433 C   0  0  0  0  0  0  0  0  0  0  0  0
   -0.6692   16.3098   42.2344 C   0  0  0  0  0  0  0  0  0  0  0  0
   -1.6062   15.7511   43.0742 C   0  0  0  0  0  0  0  0  0  0  0  0
   -1.1896   14.8899   44.0877 C   0  0  0  0  0  0  0  0  0  0  0  0
    0.1439   14.5751   44.2799 C   0  0  0  0  0  0  0  0  0  0  0  0
    1.0811   15.1341   43.4396 C   0  0  0  0  0  0  0  0  0  0  0  0
    0.6482   15.9708   42.4591 C   0  0  0  0  0  0  0  0  0  0  0  0
   -2.3982   17.5511   40.9439 C   0  0  0  0  0  0  0  0  0  0  0  0
    2.1380   20.0147   37.1790 C   0  0  0  0  0  0  0  0  0  0  0  0
    3.4956   20.0231   36.9631 C   0  0  0  0  0  0  0  0  0  0  0  0
    0.1519   19.2916   38.3832 N   0  0  0  0  0  0  0  0  0  0  0  0
   -0.2329   17.7852   40.3243 N   0  0  0  0  0  0  0  0  0  0  0  0
    6.6073   18.5358   38.3512 O   0  0  0  0  0  0  0  0  0  0  0  0
    6.2014   20.0005   36.5820 O   0  0  0  0  0  0  0  0  0  0  0  0
    4.0233   20.7969   35.9163 O   0  0  0  0  0  0  0  0  0  0  0  0
   -2.3397   18.6735   39.5321 S   0  0  0  0  0  0  0  0  0  0  0  0
    0.6372   13.4879   45.5644 Cl  0  0  0  0  0  0  0  0  0  0  0  0
    4.4236   17.9312   39.4372 H   0  0  0  0  0  0  0  0  0  0  0  0
    2.0417   17.9338   39.7942 H   0  0  0  0  0  0  0  0  0  0  0  0
   -2.6517   15.9851   42.9395 H   0  0  0  0  0  0  0  0  0  0  0  0
   -1.9493   14.4652   44.7333 H   0  0  0  0  0  0  0  0  0  0  0  0
    2.1347   14.9205   43.5475 H   0  0  0  0  0  0  0  0  0  0  0  0
    1.4063   16.4065   41.8001 H   0  0  0  0  0  0  0  0  0  0  0  0
   -3.2817   17.2455   41.4594 H   0  0  0  0  0  0  0  0  0  0  0  0
    1.5322   20.6177   36.5171 H   0  0  0  0  0  0  0  0  0  0  0  0
   -0.4003   19.8983   37.7084 H   0  0  0  0  0  0  0  0  0  0  0  0
  1  2  1  0
  1 19  1  0
  1 20  2  0
  2  3  1  0
  2 16  2  0
  3  4  2  0
  4  5  1  0
  5 15  2  0
  5 17  1  0
  6 17  1  0
  6 18  2  0
  6 22  1  0
  7  8  1  0
  7 14  2  0
  7 18  1  0
  8  9  1  0
  8 13  2  0
  9 10  2  0
 10 11  1  0
 11 12  2  0
 11 23  1  0
 12 13  1  0
 14 22  1  0
 15 16  1  0
 16 21  1  0
  3 24  1  0
  4 25  1  0
  9 26  1  0
 10 27  1  0
 12 28  1  0
 13 29  1  0
 14 30  1  0
 15 31  1  0
 17 32  1  0
M  CHG  2  19  -1  21  -1
M  END
>  <mol_id>  (64) 
2026-08-23-6tgu-s0-n100-r4-0064

>  <rmsd_to_ref>  (64) 
3.3469387755144955

$$$$
6tgu.A
     RDKit          3D

 32 34  0  0  0  0  0  0  0  0999 V2000
    3.0704   15.9677   34.8556 C   0  0  0  0  0  0  0  0  0  0  0  0
    2.9929   16.8701   36.0903 C   0  0  0  0  0  0  0  0  0  0  0  0
    2.8431   18.2481   35.9509 C   0  0  0  0  0  0  0  0  0  0  0  0
    2.5791   19.0801   37.0439 C   0  0  0  0  0  0  0  0  0  0  0  0
    2.6313   18.5671   38.3481 C   0  0  0  0  0  0  0  0  0  0  0  0
    1.8363   19.0621   40.7116 C   0  0  0  0  0  0  0  0  0  0  0  0
    1.2475   17.7243   42.4549 C   0  0  0  0  0  0  0  0  0  0  0  0
    1.1255   16.4543   43.1714 C   0  0  0  0  0  0  0  0  0  0  0  0
    0.4518   16.3541   44.3970 C   0  0  0  0  0  0  0  0  0  0  0  0
    0.3185   15.1301   45.0451 C   0  0  0  0  0  0  0  0  0  0  0  0
    0.8264   13.9982   44.4356 C   0  0  0  0  0  0  0  0  0  0  0  0
    1.4945   14.0511   43.2216 C   0  0  0  0  0  0  0  0  0  0  0  0
    1.6276   15.2868   42.5944 C   0  0  0  0  0  0  0  0  0  0  0  0
    0.7423   18.9129   42.9117 C   0  0  0  0  0  0  0  0  0  0  0  0
    2.7702   17.1807   38.5055 C   0  0  0  0  0  0  0  0  0  0  0  0
    2.9530   16.3676   37.3854 C   0  0  0  0  0  0  0  0  0  0  0  0
    2.3016   19.3877   39.4701 N   0  0  0  0  0  0  0  0  0  0  0  0
    1.8006   17.7565   41.1529 N   0  0  0  0  0  0  0  0  0  0  0  0
    2.8257   16.5144   33.7401 O   0  0  0  0  0  0  0  0  0  0  0  0
    3.2884   14.7526   35.0544 O   0  0  0  0  0  0  0  0  0  0  0  0
    2.9832   15.0022   37.5420 O   0  0  0  0  0  0  0  0  0  0  0  0
    0.9046   20.1493   41.7231 S   0  0  0  0  0  0  0  0  0  0  0  0
    0.6320   12.4612   45.2110 Cl  0  0  0  0  0  0  0  0  0  0  0  0
    2.9353   18.6957   34.9503 H   0  0  0  0  0  0  0  0  0  0  0  0
    2.3300   20.1389   36.8801 H   0  0  0  0  0  0  0  0  0  0  0  0
    0.0218   17.2578   44.8536 H   0  0  0  0  0  0  0  0  0  0  0  0
   -0.1811   15.0645   46.0229 H   0  0  0  0  0  0  0  0  0  0  0  0
    1.9089   13.1397   42.7658 H   0  0  0  0  0  0  0  0  0  0  0  0
    2.1397   15.3443   41.6226 H   0  0  0  0  0  0  0  0  0  0  0  0
    0.2930   19.0584   43.9051 H   0  0  0  0  0  0  0  0  0  0  0  0
    2.7352   16.7343   39.5102 H   0  0  0  0  0  0  0  0  0  0  0  0
    2.4382   20.3970   39.3161 H   0  0  0  0  0  0  0  0  0  0  0  0
  1  2  1  0
  1 19  1  0
  1 20  2  0
  2  3  1  0
  2 16  2  0
  3  4  2  0
  4  5  1  0
  5 15  2  0
  5 17  1  0
  6 17  1  0
  6 18  2  0
  6 22  1  0
  7  8  1  0
  7 14  2  0
  7 18  1  0
  8  9  1  0
  8 13  2  0
  9 10  2  0
 10 11  1  0
 11 12  2  0
 11 23  1  0
 12 13  1  0
 14 22  1  0
 15 16  1  0
 16 21  1  0
  3 24  1  0
  4 25  1  0
  9 26  1  0
 10 27  1  0
 12 28  1  0
 13 29  1  0
 14 30  1  0
 15 31  1  0
 17 32  1  0
M  CHG  2  19  -1  21  -1
M  END
>  <mol_id>  (65) 
2026-08-23-6tgu-s0-n100-r4-0065

>  <rmsd_to_ref>  (65) 
3.3928571428642487

$$$$
6tgu.A
     RDKit          3D

 32 34  0  0  0  0  0  0  0  0999 V2000
    0.4876   18.5692   35.6578 C   0  0  0  0  0  0  0  0  0  0  0  0
    0.5425   18.4275   37.1044 C   0  0  0  0  0  0  0  0  0  0  0  0
    1.6245   17.8587   37.7604 C   0  0  0  0  0  0  0  0  0  0  0  0
    1.6403   17.7402   39.1518 C   0  0  0  0  0  0  0  0  0  0  0  0
    0.5615   18.1959   39.8918 C   0  0  0  0  0  0  0  0  0  0  0  0
    1.7185   17.5197   41.9497 C   0  0  0  0  0  0  0  0  0  0  0  0
    3.3072   16.2327   42.8954 C   0  0  0  0  0  0  0  0  0  0  0  0
    3.7775   14.8860   43.2791 C   0  0  0  0  0  0  0  0  0  0  0  0
    3.0314   13.7543   43.0231 C   0  0  0  0  0  0  0  0  0  0  0  0
    3.5213   12.5050   43.4052 C   0  0  0  0  0  0  0  0  0  0  0  0
    4.7248   12.3477   44.0313 C   0  0  0  0  0  0  0  0  0  0  0  0
    5.4724   13.4691   44.2893 C   0  0  0  0  0  0  0  0  0  0  0  0
    4.9821   14.7116   43.9076 C   0  0  0  0  0  0  0  0  0  0  0  0
    4.0800   17.3867   43.1598 C   0  0  0  0  0  0  0  0  0  0  0  0
   -0.5180   18.7628   39.2437 C   0  0  0  0  0  0  0  0  0  0  0  0
   -0.5265   18.8780   37.8520 C   0  0  0  0  0  0  0  0  0  0  0  0
    0.5809   18.0732   41.3154 N   0  0  0  0  0  0  0  0  0  0  0  0
    2.1862   16.4955   42.2991 N   0  0  0  0  0  0  0  0  0  0  0  0
    1.5542   18.1223   34.8722 O   0  0  0  0  0  0  0  0  0  0  0  0
   -0.5422   19.1002   35.1700 O   0  0  0  0  0  0  0  0  0  0  0  0
   -1.6553   19.4617   37.2904 O   0  0  0  0  0  0  0  0  0  0  0  0
    3.1020   18.7292   42.5169 S   0  0  0  0  0  0  0  0  0  0  0  0
    5.3480   10.7745   44.5152 Cl  0  0  0  0  0  0  0  0  0  0  0  0
    2.4815   17.4957   37.1813 H   0  0  0  0  0  0  0  0  0  0  0  0
    2.5133   17.2850   39.6356 H   0  0  0  0  0  0  0  0  0  0  0  0
    2.0801   13.8627   42.5297 H   0  0  0  0  0  0  0  0  0  0  0  0
    2.9324   11.5961   43.2050 H   0  0  0  0  0  0  0  0  0  0  0  0
    6.4268   13.3908   44.7806 H   0  0  0  0  0  0  0  0  0  0  0  0
    5.6138   15.5546   44.1369 H   0  0  0  0  0  0  0  0  0  0  0  0
    5.0473   17.4480   43.6427 H   0  0  0  0  0  0  0  0  0  0  0  0
   -1.3800   19.1280   39.8240 H   0  0  0  0  0  0  0  0  0  0  0  0
   -0.2487   18.3962   41.8587 H   0  0  0  0  0  0  0  0  0  0  0  0
  1  2  1  0
  1 19  1  0
  1 20  2  0
  2  3  1  0
  2 16  2  0
  3  4  2  0
  4  5  1  0
  5 15  2  0
  5 17  1  0
  6 17  1  0
  6 18  2  0
  6 22  1  0
  7  8  1  0
  7 14  2  0
  7 18  1  0
  8  9  1  0
  8 13  2  0
  9 10  2  0
 10 11  1  0
 11 12  2  0
 11 23  1  0
 12 13  1  0
 14 22  1  0
 15 16  1  0
 16 21  1  0
  3 24  1  0
  4 25  1  0
  9 26  1  0
 10 27  1  0
 12 28  1  0
 13 29  1  0
 14 30  1  0
 15 31  1  0
 17 32  1  0
M  CHG  2  19  -1  21  -1
M  END
>  <mol_id>  (66) 
2026-08-23-6tgu-s0-n100-r4-0066

>  <rmsd_to_ref>  (66) 
3.4387755102121007

$$$$
6tgu.A
     RDKit          3D

 32 34  0  0  0  0  0  0  0  0999 V2000
    2.4613   16.5661   35.1387 C   0  0  0  0  0  0  0  0  0  0  0  0
    2.2285   17.5208   36.3130 C   0  0  0  0  0  0  0  0  0  0  0  0
    1.6016   18.7487   36.1127 C   0  0  0  0  0  0  0  0  0  0  0  0
    1.2021   19.5606   37.1793 C   0  0  0  0  0  0  0  0  0  0  0  0
    1.5820   19.2383   38.4902 C   0  0  0  0  0  0  0  0  0  0  0  0
    0.9544   19.6972   40.9107 C   0  0  0  0  0  0  0  0  0  0  0  0
    1.0708   18.4377   42.8017 C   0  0  0  0  0  0  0  0  0  0  0  0
    1.4765   17.2842   43.6055 C   0  0  0  0  0  0  0  0  0  0  0  0
    1.0293   17.1012   44.9218 C   0  0  0  0  0  0  0  0  0  0  0  0
    1.4005   15.9797   45.6568 C   0  0  0  0  0  0  0  0  0  0  0  0
    2.1876   15.0194   45.0495 C   0  0  0  0  0  0  0  0  0  0  0  0
    2.6472   15.1574   43.7485 C   0  0  0  0  0  0  0  0  0  0  0  0
    2.2743   16.2921   43.0333 C   0  0  0  0  0  0  0  0  0  0  0  0
    0.2487   19.4354   43.2545 C   0  0  0  0  0  0  0  0  0  0  0  0
    2.2037   18.0009   38.7105 C   0  0  0  0  0  0  0  0  0  0  0  0
    2.5178   17.1771   37.6281 C   0  0  0  0  0  0  0  0  0  0  0  0
    1.1285   20.0211   39.5960 N   0  0  0  0  0  0  0  0  0  0  0  0
    1.4198   18.5088   41.4323 N   0  0  0  0  0  0  0  0  0  0  0  0
    1.9131   16.8770   34.0406 O   0  0  0  0  0  0  0  0  0  0  0  0
    3.1033   15.5199   35.3775 O   0  0  0  0  0  0  0  0  0  0  0  0
    3.0309   15.9234   37.8626 O   0  0  0  0  0  0  0  0  0  0  0  0
   -0.1644   20.5195   41.9809 S   0  0  0  0  0  0  0  0  0  0  0  0
    2.6241   13.5980   45.9387 Cl  0  0  0  0  0  0  0  0  0  0  0  0
    1.4150   19.0903   35.0838 H   0  0  0  0  0  0  0  0  0  0  0  0
    0.5887   20.4537   36.9894 H   0  0  0  0  0  0  0  0  0  0  0  0
    0.3744   17.8565   45.3807 H   0  0  0  0  0  0  0  0  0  0  0  0
    1.0741   15.8596   46.7004 H   0  0  0  0  0  0  0  0  0  0  0  0
    3.2902   14.3898   43.2931 H   0  0  0  0  0  0  0  0  0  0  0  0
    2.6158   16.4094   41.9943 H   0  0  0  0  0  0  0  0  0  0  0  0
   -0.1011   19.5316   44.2929 H   0  0  0  0  0  0  0  0  0  0  0  0
    2.4436   17.6798   39.7349 H   0  0  0  0  0  0  0  0  0  0  0  0
    0.8928   20.9959   39.3613 H   0  0  0  0  0  0  0  0  0  0  0  0
  1  2  1  0
  1 19  1  0
  1 20  2  0
  2  3  1  0
  2 16  2  0
  3  4  2  0
  4  5  1  0
  5 15  2  0
  5 17  1  0
  6 17  1  0
  6 18  2  0
  6 22  1  0
  7  8  1  0
  7 14  2  0
  7 18  1  0
  8  9  1  0
  8 13  2  0
  9 10  2  0
 10 11  1  0
 11 12  2  0
 11 23  1  0
 12 13  1  0
 14 22  1  0
 15 16  1  0
 16 21  1  0
  3 24  1  0
  4 25  1  0
  9 26  1  0
 10 27  1  0
 12 28  1  0
 13 29  1  0
 14 30  1  0
 15 31  1  0
 17 32  1  0
M  CHG  2  19  -1  21  -1
M  END
>  <mol_id>  (67) 
2026-08-23-6tgu-s0-n100-r4-0067

>  <rmsd_to_ref>  (67) 
3.484693877559502

$$$$
6tgu.A
     RDKit          3D

 32 34  0  0  0  0  0  0  0  0999 V2000
   -0.1232   22.8619   40.2496 C   0  0  0  0  0  0  0  0  0  0  0  0
   -0.2610   21.4201   40.4062 C   0  0  0  0  0  0  0  0  0  0  0  0
   -1.4331   20.7539   40.1495 C   0  0  0  0  0  0  0  0  0  0  0  0
   -1.5289   19.4018   40.3059 C   0  0  0  0  0  0  0  0  0  0  0  0
   -0.4478   18.6121   40.7343 C   0  0  0  0  0  0  0  0  0  0  0  0
    0.2806   16.2049   40.8330 C   0  0  0  0  0  0  0  0  0  0  0  0
    1.2819   14.1867   40.8923 C   0  0  0  0  0  0  0  0  0  0  0  0
    1.2014   12.7476   41.1046 C   0  0  0  0  0  0  0  0  0  0  0  0
    0.0164   12.1312   41.4411 C   0  0  0  0  0  0  0  0  0  0  0  0
   -0.0898   10.7676   41.6499 C   0  0  0  0  0  0  0  0  0  0  0  0
    1.0502    9.9839   41.5139 C   0  0  0  0  0  0  0  0  0  0  0  0
    2.2502   10.5784   41.1772 C   0  0  0  0  0  0  0  0  0  0  0  0
    2.3098   11.9406   40.9785 C   0  0  0  0  0  0  0  0  0  0  0  0
    2.5476   14.8049   40.5380 C   0  0  0  0  0  0  0  0  0  0  0  0
    0.7120   19.2995   40.9852 C   0  0  0  0  0  0  0  0  0  0  0  0
    0.8127   20.6691   40.8278 C   0  0  0  0  0  0  0  0  0  0  0  0
   -0.6699   17.2503   40.8720 N   0  0  0  0  0  0  0  0  0  0  0  0
    0.3365   15.0556   40.9766 N   0  0  0  0  0  0  0  0  0  0  0  0
   -1.1780   23.6517   39.8284 O   0  0  0  0  0  0  0  0  0  0  0  0
    1.0104   23.3698   40.5167 O   0  0  0  0  0  0  0  0  0  0  0  0
    2.0290   21.3015   41.1026 O   0  0  0  0  0  0  0  0  0  0  0  0
    2.0835   16.5796   40.3969 S   0  0  0  0  0  0  0  0  0  0  0  0
    0.9887    8.2581   41.7626 Cl  0  0  0  0  0  0  0  0  0  0  0  0
   -2.2834   21.3581   39.8152 H   0  0  0  0  0  0  0  0  0  0  0  0
   -2.4867   18.9170   40.0875 H   0  0  0  0  0  0  0  0  0  0  0  0
   -0.8748   12.7355   41.5487 H   0  0  0  0  0  0  0  0  0  0  0  0
   -1.0543   10.3247   41.9159 H   0  0  0  0  0  0  0  0  0  0  0  0
    3.1292    9.9720   41.0728 H   0  0  0  0  0  0  0  0  0  0  0  0
    3.2777   12.3504   40.7160 H   0  0  0  0  0  0  0  0  0  0  0  0
    3.4629   14.3940   40.3981 H   0  0  0  0  0  0  0  0  0  0  0  0
    1.5772   18.7861   41.3248 H   0  0  0  0  0  0  0  0  0  0  0  0
   -1.6726   16.9187   41.0296 H   0  0  0  0  0  0  0  0  0  0  0  0
  1  2  1  0
  1 19  1  0
  1 20  2  0
  2  3  1  0
  2 16  2  0
  3  4  2  0
  4  5  1  0
  5 15  2  0
  5 17  1  0
  6 17  1  0
  6 18  2  0
  6 22  1  0
  7  8  1  0
  7 14  2  0
  7 18  1  0
  8  9  1  0
  8 13  2  0
  9 10  2  0
 10 11  1  0
 11 12  2  0
 11 23  1  0
 12 13  1  0
 14 22  1  0
 15 16  1  0
 16 21  1  0
  3 24  1  0
  4 25  1  0
  9 26  1  0
 10 27  1  0
 12 28  1  0
 13 29  1  0
 14 30  1  0
 15 31  1  0
 17 32  1  0
M  CHG  2  19  -1  21  -1
M  END
>  <mol_id>  (68) 
2026-08-23-6tgu-s0-n100-r4-0068

>  <rmsd_to_ref>  (68) 
3.5306122449004507

$$$$
6tgu.A
     RDKit          3D

 32 34  0  0  0  0  0  0  0  0999 V2000
    4.2035   21.0731   40.2465 C   0  0  0  0  0  0  0  0  0  0  0  0
    3.3076   20.0730   40.9826 C   0  0  0  0  0  0  0  0  0  0  0  0
    2.7264   20.4091   42.2032 C   0  0  0  0  0  0  0  0  0  0  0  0
    1.7574   19.6036   42.8104 C   0  0  0  0  0  0  0  0  0  0  0  0
    1.4680   18.3349   42.2875 C   0  0  0  0  0  0  0  0  0  0  0  0
   -0.3305   16.5383   42.3124 C   0  0  0  0  0  0  0  0  0  0  0  0
   -1.0267   15.0284   40.7596 C   0  0  0  0  0  0  0  0  0  0  0  0
   -0.9448   14.2824   39.5034 C   0  0  0  0  0  0  0  0  0  0  0  0
   -1.9637   13.4138   39.0870 C   0  0  0  0  0  0  0  0  0  0  0  0
   -1.8809   12.7399   37.8725 C   0  0  0  0  0  0  0  0  0  0  0  0
   -0.7906   12.9755   37.0563 C   0  0  0  0  0  0  0  0  0  0  0  0
    0.2366   13.8304   37.4263 C   0  0  0  0  0  0  0  0  0  0  0  0
    0.1409   14.4867   38.6503 C   0  0  0  0  0  0  0  0  0  0  0  0
   -2.0744   14.9374   41.6373 C   0  0  0  0  0  0  0  0  0  0  0  0
    2.0360   17.9857   41.0540 C   0  0  0  0  0  0  0  0  0  0  0  0
    2.9408   18.8497   40.4345 C   0  0  0  0  0  0  0  0  0  0  0  0
    0.4366   17.5272   42.8576 N   0  0  0  0  0  0  0  0  0  0  0  0
   -0.0527   16.0064   41.0711 N   0  0  0  0  0  0  0  0  0  0  0  0
    4.2436   22.2481   40.7166 O   0  0  0  0  0  0  0  0  0  0  0  0
    4.7575   20.6738   39.1990 O   0  0  0  0  0  0  0  0  0  0  0  0
    3.4103   18.5459   39.1787 O   0  0  0  0  0  0  0  0  0  0  0  0
   -1.9205   16.0955   42.9033 S   0  0  0  0  0  0  0  0  0  0  0  0
   -0.6938   12.1748   35.5230 Cl  0  0  0  0  0  0  0  0  0  0  0  0
    3.0391   21.3367   42.7049 H   0  0  0  0  0  0  0  0  0  0  0  0
    1.2214   19.9660   43.7000 H   0  0  0  0  0  0  0  0  0  0  0  0
   -2.8427   13.2627   39.7308 H   0  0  0  0  0  0  0  0  0  0  0  0
   -2.6674   12.0337   37.5680 H   0  0  0  0  0  0  0  0  0  0  0  0
    1.1050   13.9862   36.7693 H   0  0  0  0  0  0  0  0  0  0  0  0
    0.9385   15.1816   38.9519 H   0  0  0  0  0  0  0  0  0  0  0  0
   -2.9036   14.2204   41.5459 H   0  0  0  0  0  0  0  0  0  0  0  0
    1.7690   17.0321   40.5750 H   0  0  0  0  0  0  0  0  0  0  0  0
    0.2379   17.7247   43.8487 H   0  0  0  0  0  0  0  0  0  0  0  0
  1  2  1  0
  1 19  1  0
  1 20  2  0
  2  3  1  0
  2 16  2  0
  3  4  2  0
  4  5  1  0
  5 15  2  0
  5 17  1  0
  6 17  1  0
  6 18  2  0
  6 22  1  0
  7  8  1  0
  7 14  2  0
  7 18  1  0
  8  9  1  0
  8 13  2  0
  9 10  2  0
 10 11  1  0
 11 12  2  0
 11 23  1  0
 12 13  1  0
 14 22  1  0
 15 16  1  0
 16 21  1  0
  3 24  1  0
  4 25  1  0
  9 26  1  0
 10 27  1  0
 12 28  1  0
 13 29  1  0
 14 30  1  0
 15 31  1  0
 17 32  1  0
M  CHG  2  19  -1  21  -1
M  END
>  <mol_id>  (69) 
2026-08-23-6tgu-s0-n100-r4-0069

>  <rmsd_to_ref>  (69) 
3.5765306122452007

$$$$
6tgu.A
     RDKit          3D

 32 34  0  0  0  0  0  0  0  0999 V2000
    4.2493   20.8475   35.0795 C   0  0  0  0  0  0  0  0  0  0  0  0
    3.7271   19.9495   36.1000 C   0  0  0  0  0  0  0  0  0  0  0  0
    3.9724   20.0988   37.4402 C   0  0  0  0  0  0  0  0  0  0  0  0
    3.4350   19.1956   38.3556 C   0  0  0  0  0  0  0  0  0  0  0  0
    2.6550   18.1368   38.0089 C   0  0  0  0  0  0  0  0  0  0  0  0
    1.6598   17.4121   40.2178 C   0  0  0  0  0  0  0  0  0  0  0  0
    0.9054   17.2556   42.3228 C   0  0  0  0  0  0  0  0  0  0  0  0
    0.3477   16.4026   43.3914 C   0  0  0  0  0  0  0  0  0  0  0  0
    0.0467   16.9399   44.6230 C   0  0  0  0  0  0  0  0  0  0  0  0
   -0.4764   16.1420   45.6170 C   0  0  0  0  0  0  0  0  0  0  0  0
   -0.7158   14.7978   45.4235 C   0  0  0  0  0  0  0  0  0  0  0  0
   -0.4193   14.2380   44.1900 C   0  0  0  0  0  0  0  0  0  0  0  0
    0.1025   15.0603   43.2160 C   0  0  0  0  0  0  0  0  0  0  0  0
    1.1423   18.6006   42.5029 C   0  0  0  0  0  0  0  0  0  0  0  0
    2.4132   17.9984   36.6223 C   0  0  0  0  0  0  0  0  0  0  0  0
    2.9408   18.8861   35.7131 C   0  0  0  0  0  0  0  0  0  0  0  0
    2.0590   17.2008   38.8329 N   0  0  0  0  0  0  0  0  0  0  0  0
    1.2318   16.8536   41.1072 N   0  0  0  0  0  0  0  0  0  0  0  0
    5.0401   21.9080   35.5292 O   0  0  0  0  0  0  0  0  0  0  0  0
    3.9830   20.6489   33.8734 O   0  0  0  0  0  0  0  0  0  0  0  0
    2.6667   18.6972   34.3546 O   0  0  0  0  0  0  0  0  0  0  0  0
    1.8077   19.1671   40.9243 S   0  0  0  0  0  0  0  0  0  0  0  0
   -1.3843   13.8460   46.7375 Cl  0  0  0  0  0  0  0  0  0  0  0  0
    4.5890   20.9321   37.7440 H   0  0  0  0  0  0  0  0  0  0  0  0
    3.6881   19.3757   39.3847 H   0  0  0  0  0  0  0  0  0  0  0  0
    0.2207   17.9816   44.8073 H   0  0  0  0  0  0  0  0  0  0  0  0
   -0.6976   16.6189   46.5764 H   0  0  0  0  0  0  0  0  0  0  0  0
   -0.6073   13.1813   44.0369 H   0  0  0  0  0  0  0  0  0  0  0  0
    0.3376   14.6222   42.2412 H   0  0  0  0  0  0  0  0  0  0  0  0
    0.9822   19.2696   43.4067 H   0  0  0  0  0  0  0  0  0  0  0  0
    1.7975   17.1744   36.2564 H   0  0  0  0  0  0  0  0  0  0  0  0
    1.8529   16.2435   38.4898 H   0  0  0  0  0  0  0  0  0  0  0  0
  1  2  1  0
  1 19  1  0
  1 20  2  0
  2  3  1  0
  2 16  2  0
  3  4  2  0
  4  5  1  0
  5 15  2  0
  5 17  1  0
  6 17  1  0
  6 18  2  0
  6 22  1  0
  7  8  1  0
  7 14  2  0
  7 18  1  0
  8  9  1  0
  8 13  2  0
  9 10  2  0
 10 11  1  0
 11 12  2  0
 11 23  1  0
 12 13  1  0
 14 22  1  0
 15 16  1  0
 16 21  1  0
  3 24  1  0
  4 25  1  0
  9 26  1  0
 10 27  1  0
 12 28  1  0
 13 29  1  0
 14 30  1  0
 15 31  1  0
 17 32  1  0
M  CHG  2  19  -1  21  -1
M  END
>  <mol_id>  (70) 
2026-08-23-6tgu-s0-n100-r4-0070

>  <rmsd_to_ref>  (70) 
3.6224489795955623

$$$$
6tgu.A
     RDKit          3D

 32 34  0  0  0  0  0  0  0  0999 V2000
    2.1661   20.6296   39.9914 C   0  0  0  0  0  0  0  0  0  0  0  0
    2.8122   19.3618   40.5571 C   0  0  0  0  0  0  0  0  0  0  0  0
    3.7504   19.4438   41.5836 C   0  0  0  0  0  0  0  0  0  0  0  0
    4.2190   18.3085   42.2529 C   0  0  0  0  0  0  0  0  0  0  0  0
    3.8846   17.0285   41.7874 C   0  0  0  0  0  0  0  0  0  0  0  0
    3.7678   14.6053   42.5473 C   0  0  0  0  0  0  0  0  0  0  0  0
    2.3964   12.8770   41.9920 C   0  0  0  0  0  0  0  0  0  0  0  0
    1.3689   12.1991   41.2010 C   0  0  0  0  0  0  0  0  0  0  0  0
    0.8675   10.9390   41.5572 C   0  0  0  0  0  0  0  0  0  0  0  0
   -0.1337   10.3271   40.8096 C   0  0  0  0  0  0  0  0  0  0  0  0
   -0.6615   11.0053   39.7270 C   0  0  0  0  0  0  0  0  0  0  0  0
   -0.1993   12.2551   39.3430 C   0  0  0  0  0  0  0  0  0  0  0  0
    0.8109   12.8458   40.0971 C   0  0  0  0  0  0  0  0  0  0  0  0
    2.9666   12.3493   43.1202 C   0  0  0  0  0  0  0  0  0  0  0  0
    2.9331   16.9282   40.7623 C   0  0  0  0  0  0  0  0  0  0  0  0
    2.4250   18.0850   40.1683 C   0  0  0  0  0  0  0  0  0  0  0  0
    4.3019   15.8606   42.4966 N   0  0  0  0  0  0  0  0  0  0  0  0
    2.7662   14.2083   41.6870 N   0  0  0  0  0  0  0  0  0  0  0  0
    2.4020   21.7085   40.6106 O   0  0  0  0  0  0  0  0  0  0  0  0
    1.3962   20.4868   39.0164 O   0  0  0  0  0  0  0  0  0  0  0  0
    1.4178   17.9781   39.2388 O   0  0  0  0  0  0  0  0  0  0  0  0
    3.9889   13.5017   43.8914 S   0  0  0  0  0  0  0  0  0  0  0  0
   -1.9370   10.2736   38.8111 Cl  0  0  0  0  0  0  0  0  0  0  0  0
    4.1347   20.4319   41.8768 H   0  0  0  0  0  0  0  0  0  0  0  0
    4.8511   18.4198   43.1462 H   0  0  0  0  0  0  0  0  0  0  0  0
    1.2723   10.4260   42.4421 H   0  0  0  0  0  0  0  0  0  0  0  0
   -0.4981    9.3236   41.0747 H   0  0  0  0  0  0  0  0  0  0  0  0
   -0.6202   12.7668   38.4649 H   0  0  0  0  0  0  0  0  0  0  0  0
    1.1775   13.8444   39.8168 H   0  0  0  0  0  0  0  0  0  0  0  0
    2.7946   11.3259   43.4851 H   0  0  0  0  0  0  0  0  0  0  0  0
    2.5874   15.9394   40.4267 H   0  0  0  0  0  0  0  0  0  0  0  0
    5.1502   15.9874   43.0669 H   0  0  0  0  0  0  0  0  0  0  0  0
  1  2  1  0
  1 19  1  0
  1 20  2  0
  2  3  1  0
  2 16  2  0
  3  4  2  0
  4  5  1  0
  5 15  2  0
  5 17  1  0
  6 17  1  0
  6 18  2  0
  6 22  1  0
  7  8  1  0
  7 14  2  0
  7 18  1  0
  8  9  1  0
  8 13  2  0
  9 10  2  0
 10 11  1  0
 11 12  2  0
 11 23  1  0
 12 13  1  0
 14 22  1  0
 15 16  1  0
 16 21  1  0
  3 24  1  0
  4 25  1  0
  9 26  1  0
 10 27  1  0
 12 28  1  0
 13 29  1  0
 14 30  1  0
 15 31  1  0
 17 32  1  0
M  CHG  2  19  -1  21  -1
M  END
>  <mol_id>  (71) 
2026-08-23-6tgu-s0-n100-r4-0071

>  <rmsd_to_ref>  (71) 
3.668367346940074

$$$$
6tgu.A
     RDKit          3D

 32 34  0  0  0  0  0  0  0  0999 V2000
    4.3137   19.2524   35.7156 C   0  0  0  0  0  0  0  0  0  0  0  0
    3.6630   18.3994   36.6773 C   0  0  0  0  0  0  0  0  0  0  0  0
    3.3434   18.9048   37.9126 C   0  0  0  0  0  0  0  0  0  0  0  0
    2.7148   18.1123   38.8662 C   0  0  0  0  0  0  0  0  0  0  0  0
    2.3749   16.8033   38.6539 C   0  0  0  0  0  0  0  0  0  0  0  0
    0.8209   16.3070   40.5773 C   0  0  0  0  0  0  0  0  0  0  0  0
   -0.6075   16.3151   42.3182 C   0  0  0  0  0  0  0  0  0  0  0  0
   -1.2940   15.5643   43.3620 C   0  0  0  0  0  0  0  0  0  0  0  0
   -2.1555   16.1916   44.2375 C   0  0  0  0  0  0  0  0  0  0  0  0
   -2.8281   15.5246   45.2391 C   0  0  0  0  0  0  0  0  0  0  0  0
   -2.6525   14.1620   45.3998 C   0  0  0  0  0  0  0  0  0  0  0  0
   -1.7963   13.5104   44.5376 C   0  0  0  0  0  0  0  0  0  0  0  0
   -1.1283   14.2020   43.5349 C   0  0  0  0  0  0  0  0  0  0  0  0
   -0.7737   17.6683   42.1415 C   0  0  0  0  0  0  0  0  0  0  0  0
    2.7080   16.2952   37.3843 C   0  0  0  0  0  0  0  0  0  0  0  0
    3.3297   17.0770   36.4389 C   0  0  0  0  0  0  0  0  0  0  0  0
    1.7306   15.9412   39.5302 N   0  0  0  0  0  0  0  0  0  0  0  0
    0.2325   15.8242   41.4308 N   0  0  0  0  0  0  0  0  0  0  0  0
    4.6359   18.7281   34.4560 O   0  0  0  0  0  0  0  0  0  0  0  0
    4.6065   20.4642   35.9667 O   0  0  0  0  0  0  0  0  0  0  0  0
    3.6571   16.5599   35.1744 O   0  0  0  0  0  0  0  0  0  0  0  0
    0.2871   18.1300   40.7176 S   0  0  0  0  0  0  0  0  0  0  0  0
   -3.5140   13.3584   46.6670 Cl  0  0  0  0  0  0  0  0  0  0  0  0
    3.5909   19.9458   38.1398 H   0  0  0  0  0  0  0  0  0  0  0  0
    2.5147   18.5877   39.8100 H   0  0  0  0  0  0  0  0  0  0  0  0
   -2.3191   17.2532   44.1447 H   0  0  0  0  0  0  0  0  0  0  0  0
   -3.4915   16.0754   45.8946 H   0  0  0  0  0  0  0  0  0  0  0  0
   -1.6394   12.4478   44.6384 H   0  0  0  0  0  0  0  0  0  0  0  0
   -0.4527   13.7049   42.8490 H   0  0  0  0  0  0  0  0  0  0  0  0
   -1.4145   18.4462   42.7045 H   0  0  0  0  0  0  0  0  0  0  0  0
    2.4769   15.2619   37.1229 H   0  0  0  0  0  0  0  0  0  0  0  0
    1.9019   14.9126   39.4501 H   0  0  0  0  0  0  0  0  0  0  0  0
  1  2  1  0
  1 19  1  0
  1 20  2  0
  2  3  1  0
  2 16  2  0
  3  4  2  0
  4  5  1  0
  5 15  2  0
  5 17  1  0
  6 17  1  0
  6 18  2  0
  6 22  1  0
  7  8  1  0
  7 14  2  0
  7 18  1  0
  8  9  1  0
  8 13  2  0
  9 10  2  0
 10 11  1  0
 11 12  2  0
 11 23  1  0
 12 13  1  0
 14 22  1  0
 15 16  1  0
 16 21  1  0
  3 24  1  0
  4 25  1  0
  9 26  1  0
 10 27  1  0
 12 28  1  0
 13 29  1  0
 14 30  1  0
 15 31  1  0
 17 32  1  0
M  CHG  2  19  -1  21  -1
M  END
>  <mol_id>  (72) 
2026-08-23-6tgu-s0-n100-r4-0072

>  <rmsd_to_ref>  (72) 
3.7142857142930543

$$$$
6tgu.A
     RDKit          3D

 32 34  0  0  0  0  0  0  0  0999 V2000
    5.0768   15.9955   36.0115 C   0  0  0  0  0  0  0  0  0  0  0  0
    4.5089   16.8692   37.1334 C   0  0  0  0  0  0  0  0  0  0  0  0
    4.6892   18.2504   37.1145 C   0  0  0  0  0  0  0  0  0  0  0  0
    4.0297   19.0972   38.0114 C   0  0  0  0  0  0  0  0  0  0  0  0
    3.2955   18.5586   39.0781 C   0  0  0  0  0  0  0  0  0  0  0  0
    1.4644   19.1620   40.7353 C   0  0  0  0  0  0  0  0  0  0  0  0
   -0.1737   17.9430   41.7384 C   0  0  0  0  0  0  0  0  0  0  0  0
   -0.8678   16.7128   42.1204 C   0  0  0  0  0  0  0  0  0  0  0  0
   -2.0944   16.7317   42.7994 C   0  0  0  0  0  0  0  0  0  0  0  0
   -2.7540   15.5501   43.1234 C   0  0  0  0  0  0  0  0  0  0  0  0
   -2.1985   14.3494   42.7235 C   0  0  0  0  0  0  0  0  0  0  0  0
   -0.9905   14.2851   42.0454 C   0  0  0  0  0  0  0  0  0  0  0  0
   -0.3403   15.4777   41.7405 C   0  0  0  0  0  0  0  0  0  0  0  0
   -0.6365   19.2017   42.0175 C   0  0  0  0  0  0  0  0  0  0  0  0
    3.0951   17.1711   39.1056 C   0  0  0  0  0  0  0  0  0  0  0  0
    3.7047   16.3604   38.1463 C   0  0  0  0  0  0  0  0  0  0  0  0
    2.5640   19.4075   39.9643 N   0  0  0  0  0  0  0  0  0  0  0  0
    0.9818   17.8844   40.9238 N   0  0  0  0  0  0  0  0  0  0  0  0
    5.5566   16.6036   35.0099 O   0  0  0  0  0  0  0  0  0  0  0  0
    4.9489   14.7579   36.1367 O   0  0  0  0  0  0  0  0  0  0  0  0
    3.4179   15.0162   38.1199 O   0  0  0  0  0  0  0  0  0  0  0  0
    0.3359   20.4001   41.2519 S   0  0  0  0  0  0  0  0  0  0  0  0
   -3.0288   12.8721   43.0839 Cl  0  0  0  0  0  0  0  0  0  0  0  0
    5.3715   18.6887   36.3713 H   0  0  0  0  0  0  0  0  0  0  0  0
    4.0869   20.1878   37.8798 H   0  0  0  0  0  0  0  0  0  0  0  0
   -2.5425   17.6961   43.0805 H   0  0  0  0  0  0  0  0  0  0  0  0
   -3.6987   15.5713   43.6864 H   0  0  0  0  0  0  0  0  0  0  0  0
   -0.5572   13.3164   41.7558 H   0  0  0  0  0  0  0  0  0  0  0  0
    0.6104   15.4459   41.1879 H   0  0  0  0  0  0  0  0  0  0  0  0
   -1.5124   19.4183   42.6467 H   0  0  0  0  0  0  0  0  0  0  0  0
    2.4584   16.7219   39.8820 H   0  0  0  0  0  0  0  0  0  0  0  0
    2.9283   20.3685   40.0333 H   0  0  0  0  0  0  0  0  0  0  0  0
  1  2  1  0
  1 19  1  0
  1 20  2  0
  2  3  1  0
  2 16  2  0
  3  4  2  0
  4  5  1  0
  5 15  2  0
  5 17  1  0
  6 17  1  0
  6 18  2  0
  6 22  1  0
  7  8  1  0
  7 14  2  0
  7 18  1  0
  8  9  1  0
  8 13  2  0
  9 10  2  0
 10 11  1  0
 11 12  2  0
 11 23  1  0
 12 13  1  0
 14 22  1  0
 15 16  1  0
 16 21  1  0
  3 24  1  0
  4 25  1  0
  9 26  1  0
 10 27  1  0
 12 28  1  0
 13 29  1  0
 14 30  1  0
 15 31  1  0
 17 32  1  0
M  CHG  2  19  -1  21  -1
M  END
>  <mol_id>  (73) 
2026-08-23-6tgu-s0-n100-r4-0073

>  <rmsd_to_ref>  (73) 
3.7602040816394426

$$$$
6tgu.A
     RDKit          3D

 32 34  0  0  0  0  0  0  0  0999 V2000
    5.8490   19.2399   37.7894 C   0  0  0  0  0  0  0  0  0  0  0  0
    4.7133   18.8238   38.5872 C   0  0  0  0  0  0  0  0  0  0  0  0
    3.7358   19.7530   38.9421 C   0  0  0  0  0  0  0  0  0  0  0  0
    2.6401   19.4054   39.6985 C   0  0  0  0  0  0  0  0  0  0  0  0
    2.4514   18.0936   40.1518 C   0  0  0  0  0  0  0  0  0  0  0  0
    0.6900   16.5745   41.1083 C   0  0  0  0  0  0  0  0  0  0  0  0
   -0.7400   14.9993   41.8520 C   0  0  0  0  0  0  0  0  0  0  0  0
   -1.8830   14.6331   42.7050 C   0  0  0  0  0  0  0  0  0  0  0  0
   -2.5290   15.5455   43.5101 C   0  0  0  0  0  0  0  0  0  0  0  0
   -3.5978   15.2108   44.3117 C   0  0  0  0  0  0  0  0  0  0  0  0
   -4.0536   13.8891   44.3143 C   0  0  0  0  0  0  0  0  0  0  0  0
   -3.4159   12.9694   43.5140 C   0  0  0  0  0  0  0  0  0  0  0  0
   -2.3490   13.3392   42.7242 C   0  0  0  0  0  0  0  0  0  0  0  0
   -0.0892   14.0701   41.0406 C   0  0  0  0  0  0  0  0  0  0  0  0
    3.4165   17.1989   39.7960 C   0  0  0  0  0  0  0  0  0  0  0  0
    4.5306   17.5445   39.0288 C   0  0  0  0  0  0  0  0  0  0  0  0
    1.3175   17.8500   40.9240 N   0  0  0  0  0  0  0  0  0  0  0  0
   -0.2417   16.2079   41.7824 N   0  0  0  0  0  0  0  0  0  0  0  0
    6.8065   18.2960   37.4515 O   0  0  0  0  0  0  0  0  0  0  0  0
    6.0031   20.4416   37.3853 O   0  0  0  0  0  0  0  0  0  0  0  0
    5.4868   16.5968   38.6917 O   0  0  0  0  0  0  0  0  0  0  0  0
    1.1898   15.0582   40.2547 S   0  0  0  0  0  0  0  0  0  0  0  0
   -5.4165   13.4030   45.3192 Cl  0  0  0  0  0  0  0  0  0  0  0  0
    3.8786   20.7702   38.5927 H   0  0  0  0  0  0  0  0  0  0  0  0
    1.9232   20.1928   39.9314 H   0  0  0  0  0  0  0  0  0  0  0  0
   -2.1550   16.5817   43.4939 H   0  0  0  0  0  0  0  0  0  0  0  0
   -4.1078   15.9416   44.9504 H   0  0  0  0  0  0  0  0  0  0  0  0
   -3.7443   11.9202   43.4879 H   0  0  0  0  0  0  0  0  0  0  0  0
   -1.8817   12.5560   42.1060 H   0  0  0  0  0  0  0  0  0  0  0  0
   -0.2708   13.0265   40.8923 H   0  0  0  0  0  0  0  0  0  0  0  0
    3.3694   16.1708   40.1032 H   0  0  0  0  0  0  0  0  0  0  0  0
    0.8583   18.6421   41.4281 H   0  0  0  0  0  0  0  0  0  0  0  0
  1  2  1  0
  1 19  1  0
  1 20  2  0
  2  3  1  0
  2 16  2  0
  3  4  2  0
  4  5  1  0
  5 15  2  0
  5 17  1  0
  6 17  1  0
  6 18  2  0
  6 22  1  0
  7  8  1  0
  7 14  2  0
  7 18  1  0
  8  9  1  0
  8 13  2  0
  9 10  2  0
 10 11  1  0
 11 12  2  0
 11 23  1  0
 12 13  1  0
 14 22  1  0
 15 16  1  0
 16 21  1  0
  3 24  1  0
  4 25  1  0
  9 26  1  0
 10 27  1  0
 12 28  1  0
 13 29  1  0
 14 30  1  0
 15 31  1  0
 17 32  1  0
M  CHG  2  19  -1  21  -1
M  END
>  <mol_id>  (74) 
2026-08-23-6tgu-s0-n100-r4-0074

>  <rmsd_to_ref>  (74) 
3.806122448981848

$$$$
6tgu.A
     RDKit          3D

 32 34  0  0  0  0  0  0  0  0999 V2000
    1.8032   16.2170   34.7427 C   0  0  0  0  0  0  0  0  0  0  0  0
    2.1434   17.1450   35.9122 C   0  0  0  0  0  0  0  0  0  0  0  0
    2.2155   18.5234   35.7235 C   0  0  0  0  0  0  0  0  0  0  0  0
    2.3347   19.4138   36.7956 C   0  0  0  0  0  0  0  0  0  0  0  0
    2.5626   18.9289   38.0916 C   0  0  0  0  0  0  0  0  0  0  0  0
    2.3728   19.6153   40.5321 C   0  0  0  0  0  0  0  0  0  0  0  0
    1.9276   18.4492   42.4342 C   0  0  0  0  0  0  0  0  0  0  0  0
    1.7322   17.2402   43.2350 C   0  0  0  0  0  0  0  0  0  0  0  0
    1.3188   17.2942   44.5738 C   0  0  0  0  0  0  0  0  0  0  0  0
    1.1065   16.1309   45.3071 C   0  0  0  0  0  0  0  0  0  0  0  0
    1.2684   14.9112   44.6775 C   0  0  0  0  0  0  0  0  0  0  0  0
    1.6705   14.8120   43.3540 C   0  0  0  0  0  0  0  0  0  0  0  0
    1.8889   15.9872   42.6404 C   0  0  0  0  0  0  0  0  0  0  0  0
    1.7470   19.7207   42.9106 C   0  0  0  0  0  0  0  0  0  0  0  0
    2.4822   17.5447   38.3006 C   0  0  0  0  0  0  0  0  0  0  0  0
    2.2827   16.6874   37.2170 C   0  0  0  0  0  0  0  0  0  0  0  0
    2.6225   19.8211   39.2059 N   0  0  0  0  0  0  0  0  0  0  0  0
    2.1972   18.3491   41.0488 N   0  0  0  0  0  0  0  0  0  0  0  0
    1.4350   16.7750   33.6674 O   0  0  0  0  0  0  0  0  0  0  0  0
    1.8380   14.9872   34.9663 O   0  0  0  0  0  0  0  0  0  0  0  0
    2.1013   15.3440   37.4456 O   0  0  0  0  0  0  0  0  0  0  0  0
    1.8780   20.8789   41.6420 S   0  0  0  0  0  0  0  0  0  0  0  0
    0.9679   13.4546   45.5662 Cl  0  0  0  0  0  0  0  0  0  0  0  0
    2.1776   18.9239   34.6997 H   0  0  0  0  0  0  0  0  0  0  0  0
    2.2494   20.4967   36.6218 H   0  0  0  0  0  0  0  0  0  0  0  0
    1.1597   18.2719   45.0520 H   0  0  0  0  0  0  0  0  0  0  0  0
    0.8156   16.1810   46.3668 H   0  0  0  0  0  0  0  0  0  0  0  0
    1.8132   13.8296   42.8801 H   0  0  0  0  0  0  0  0  0  0  0  0
    2.1916   15.9270   41.5846 H   0  0  0  0  0  0  0  0  0  0  0  0
    1.5452   19.9692   43.9630 H   0  0  0  0  0  0  0  0  0  0  0  0
    2.5763   17.1349   39.3171 H   0  0  0  0  0  0  0  0  0  0  0  0
    2.9016   20.7836   38.9680 H   0  0  0  0  0  0  0  0  0  0  0  0
  1  2  1  0
  1 19  1  0
  1 20  2  0
  2  3  1  0
  2 16  2  0
  3  4  2  0
  4  5  1  0
  5 15  2  0
  5 17  1  0
  6 17  1  0
  6 18  2  0
  6 22  1  0
  7  8  1  0
  7 14  2  0
  7 18  1  0
  8  9  1  0
  8 13  2  0
  9 10  2  0
 10 11  1  0
 11 12  2  0
 11 23  1  0
 12 13  1  0
 14 22  1  0
 15 16  1  0
 16 21  1  0
  3 24  1  0
  4 25  1  0
  9 26  1  0
 10 27  1  0
 12 28  1  0
 13 29  1  0
 14 30  1  0
 15 31  1  0
 17 32  1  0
M  CHG  2  19  -1  21  -1
M  END
>  <mol_id>  (75) 
2026-08-23-6tgu-s0-n100-r4-0075

>  <rmsd_to_ref>  (75) 
3.852040816328008

$$$$
6tgu.A
     RDKit          3D

 32 34  0  0  0  0  0  0  0  0999 V2000
    2.4224   21.2013   39.8781 C   0  0  0  0  0  0  0  0  0  0  0  0
    3.1733   20.0700   40.4125 C   0  0  0  0  0  0  0  0  0  0  0  0
    4.3666   20.3127   41.0572 C   0  0  0  0  0  0  0  0  0  0  0  0
    5.0573   19.2526   41.5508 C   0  0  0  0  0  0  0  0  0  0  0  0
    4.6374   17.9314   41.4477 C   0  0  0  0  0  0  0  0  0  0  0  0
    4.9669   15.5418   41.8712 C   0  0  0  0  0  0  0  0  0  0  0  0
    3.9575   13.5749   41.5013 C   0  0  0  0  0  0  0  0  0  0  0  0
    2.8218   12.8459   40.9371 C   0  0  0  0  0  0  0  0  0  0  0  0
    1.7752   13.4878   40.2859 C   0  0  0  0  0  0  0  0  0  0  0  0
    0.7138   12.7773   39.7615 C   0  0  0  0  0  0  0  0  0  0  0  0
    0.6444   11.4063   39.8595 C   0  0  0  0  0  0  0  0  0  0  0  0
    1.6709   10.7519   40.5006 C   0  0  0  0  0  0  0  0  0  0  0  0
    2.7255   11.4723   41.0202 C   0  0  0  0  0  0  0  0  0  0  0  0
    4.9939   12.9095   42.1491 C   0  0  0  0  0  0  0  0  0  0  0  0
    3.4320   17.7408   40.7909 C   0  0  0  0  0  0  0  0  0  0  0  0
    2.6938   18.7929   40.2716 C   0  0  0  0  0  0  0  0  0  0  0  0
    5.4131   16.9000   41.9859 N   0  0  0  0  0  0  0  0  0  0  0  0
    4.1517   14.8791   41.4801 N   0  0  0  0  0  0  0  0  0  0  0  0
    1.2233   21.0004   39.2260 O   0  0  0  0  0  0  0  0  0  0  0  0
    2.8303   22.4009   39.9867 O   0  0  0  0  0  0  0  0  0  0  0  0
    1.4847   18.5502   39.6180 O   0  0  0  0  0  0  0  0  0  0  0  0
    6.1404   14.2452   42.6589 S   0  0  0  0  0  0  0  0  0  0  0  0
   -0.6955   10.4912   39.1993 Cl  0  0  0  0  0  0  0  0  0  0  0  0
    4.7041   21.3366   41.1439 H   0  0  0  0  0  0  0  0  0  0  0  0
    5.9957   19.4518   42.0569 H   0  0  0  0  0  0  0  0  0  0  0  0
    1.8291   14.5783   40.2073 H   0  0  0  0  0  0  0  0  0  0  0  0
   -0.0846   13.3111   39.2604 H   0  0  0  0  0  0  0  0  0  0  0  0
    1.6349    9.6788   40.5875 H   0  0  0  0  0  0  0  0  0  0  0  0
    3.5104   10.9176   41.5158 H   0  0  0  0  0  0  0  0  0  0  0  0
    5.1672   11.8507   42.3520 H   0  0  0  0  0  0  0  0  0  0  0  0
    3.0289   16.7630   40.6629 H   0  0  0  0  0  0  0  0  0  0  0  0
    6.3101   17.1625   42.4630 H   0  0  0  0  0  0  0  0  0  0  0  0
  1  2  1  0
  1 19  1  0
  1 20  2  0
  2  3  1  0
  2 16  2  0
  3  4  2  0
  4  5  1  0
  5 15  2  0
  5 17  1  0
  6 17  1  0
  6 18  2  0
  6 22  1  0
  7  8  1  0
  7 14  2  0
  7 18  1  0
  8  9  1  0
  8 13  2  0
  9 10  2  0
 10 11  1  0
 11 12  2  0
 11 23  1  0
 12 13  1  0
 14 22  1  0
 15 16  1  0
 16 21  1  0
  3 24  1  0
  4 25  1  0
  9 26  1  0
 10 27  1  0
 12 28  1  0
 13 29  1  0
 14 30  1  0
 15 31  1  0
 17 32  1  0
M  CHG  2  19  -1  21  -1
M  END
>  <mol_id>  (76) 
2026-08-23-6tgu-s0-n100-r4-0076

>  <rmsd_to_ref>  (76) 
3.897959183675378

$$$$
6tgu.A
     RDKit          3D

 32 34  0  0  0  0  0  0  0  0999 V2000
    4.1918   20.1639   38.6571 C   0  0  0  0  0  0  0  0  0  0  0  0
    3.1783   19.1438   39.1833 C   0  0  0  0  0  0  0  0  0  0  0  0
    2.3826   18.4173   38.3003 C   0  0  0  0  0  0  0  0  0  0  0  0
    1.5867   17.3488   38.7260 C   0  0  0  0  0  0  0  0  0  0  0  0
    1.4325   17.0875   40.0953 C   0  0  0  0  0  0  0  0  0  0  0  0
    0.7444   15.2403   41.7008 C   0  0  0  0  0  0  0  0  0  0  0  0
    1.4017   14.7049   43.8119 C   0  0  0  0  0  0  0  0  0  0  0  0
    2.0875   14.9273   45.0853 C   0  0  0  0  0  0  0  0  0  0  0  0
    2.1404   13.9433   46.0827 C   0  0  0  0  0  0  0  0  0  0  0  0
    2.8268   14.1635   47.2728 C   0  0  0  0  0  0  0  0  0  0  0  0
    3.4979   15.3602   47.4397 C   0  0  0  0  0  0  0  0  0  0  0  0
    3.4767   16.3582   46.4770 C   0  0  0  0  0  0  0  0  0  0  0  0
    2.7749   16.1232   45.2979 C   0  0  0  0  0  0  0  0  0  0  0  0
    0.7453   13.5472   43.4876 C   0  0  0  0  0  0  0  0  0  0  0  0
    2.2344   17.8021   40.9966 C   0  0  0  0  0  0  0  0  0  0  0  0
    3.0787   18.8109   40.5289 C   0  0  0  0  0  0  0  0  0  0  0  0
    0.6755   15.9620   40.5439 N   0  0  0  0  0  0  0  0  0  0  0  0
    1.4994   15.6621   42.7745 N   0  0  0  0  0  0  0  0  0  0  0  0
    4.3770   20.1820   37.4047 O   0  0  0  0  0  0  0  0  0  0  0  0
    4.8116   20.8382   39.5085 O   0  0  0  0  0  0  0  0  0  0  0  0
    3.9355   19.4325   41.4059 O   0  0  0  0  0  0  0  0  0  0  0  0
    0.2275   13.5714   41.8448 S   0  0  0  0  0  0  0  0  0  0  0  0
    4.3908   15.6323   48.8992 Cl  0  0  0  0  0  0  0  0  0  0  0  0
    2.3800   18.6926   37.2353 H   0  0  0  0  0  0  0  0  0  0  0  0
    1.0808   16.7120   37.9854 H   0  0  0  0  0  0  0  0  0  0  0  0
    1.6311   12.9817   45.9218 H   0  0  0  0  0  0  0  0  0  0  0  0
    2.8352   13.4004   48.0651 H   0  0  0  0  0  0  0  0  0  0  0  0
    4.0010   17.3112   46.6410 H   0  0  0  0  0  0  0  0  0  0  0  0
    2.7619   16.8973   44.5164 H   0  0  0  0  0  0  0  0  0  0  0  0
    0.5720   12.7131   44.1836 H   0  0  0  0  0  0  0  0  0  0  0  0
    2.1983   17.5683   42.0708 H   0  0  0  0  0  0  0  0  0  0  0  0
   -0.0448   15.6401   39.8818 H   0  0  0  0  0  0  0  0  0  0  0  0
  1  2  1  0
  1 19  1  0
  1 20  2  0
  2  3  1  0
  2 16  2  0
  3  4  2  0
  4  5  1  0
  5 15  2  0
  5 17  1  0
  6 17  1  0
  6 18  2  0
  6 22  1  0
  7  8  1  0
  7 14  2  0
  7 18  1  0
  8  9  1  0
  8 13  2  0
  9 10  2  0
 10 11  1  0
 11 12  2  0
 11 23  1  0
 12 13  1  0
 14 22  1  0
 15 16  1  0
 16 21  1  0
  3 24  1  0
  4 25  1  0
  9 26  1  0
 10 27  1  0
 12 28  1  0
 13 29  1  0
 14 30  1  0
 15 31  1  0
 17 32  1  0
M  CHG  2  19  -1  21  -1
M  END
>  <mol_id>  (77) 
2026-08-23-6tgu-s0-n100-r4-0077

>  <rmsd_to_ref>  (77) 
3.9438775510205364

$$$$
6tgu.A
     RDKit          3D

 32 34  0  0  0  0  0  0  0  0999 V2000
   -1.5374   21.1093   39.1306 C   0  0  0  0  0  0  0  0  0  0  0  0
   -0.6331   19.9555   39.1669 C   0  0  0  0  0  0  0  0  0  0  0  0
   -0.9542   18.7638   39.7581 C   0  0  0  0  0  0  0  0  0  0  0  0
   -0.0985   17.6666   39.7975 C   0  0  0  0  0  0  0  0  0  0  0  0
    1.1366   17.8169   39.1985 C   0  0  0  0  0  0  0  0  0  0  0  0
    2.3886   15.8812   40.1965 C   0  0  0  0  0  0  0  0  0  0  0  0
    3.1523   14.2138   41.5165 C   0  0  0  0  0  0  0  0  0  0  0  0
    4.0109   13.0339   41.6694 C   0  0  0  0  0  0  0  0  0  0  0  0
    4.7942   12.5801   40.6295 C   0  0  0  0  0  0  0  0  0  0  0  0
    5.6180   11.4553   40.7661 C   0  0  0  0  0  0  0  0  0  0  0  0
    5.6527   10.7821   41.9632 C   0  0  0  0  0  0  0  0  0  0  0  0
    4.8704   11.2297   43.0138 C   0  0  0  0  0  0  0  0  0  0  0  0
    4.0511   12.3544   42.8659 C   0  0  0  0  0  0  0  0  0  0  0  0
    2.3274   14.6890   42.5526 C   0  0  0  0  0  0  0  0  0  0  0  0
    1.4626   19.0307   38.5967 C   0  0  0  0  0  0  0  0  0  0  0  0
    0.6100   20.1044   38.5654 C   0  0  0  0  0  0  0  0  0  0  0  0
    2.1337   16.8164   39.1692 N   0  0  0  0  0  0  0  0  0  0  0  0
    3.0221   14.9566   40.4391 N   0  0  0  0  0  0  0  0  0  0  0  0
   -2.8130   21.0483   39.7096 O   0  0  0  0  0  0  0  0  0  0  0  0
   -1.1205   22.1666   38.5546 O   0  0  0  0  0  0  0  0  0  0  0  0
    1.0032   21.2895   37.9459 O   0  0  0  0  0  0  0  0  0  0  0  0
    1.4613   16.1391   41.8710 S   0  0  0  0  0  0  0  0  0  0  0  0
    6.6916    9.3772   42.1095 Cl  0  0  0  0  0  0  0  0  0  0  0  0
   -1.9416   18.6561   40.2320 H   0  0  0  0  0  0  0  0  0  0  0  0
   -0.3656   16.7295   40.2616 H   0  0  0  0  0  0  0  0  0  0  0  0
    4.7787   13.1029   39.6713 H   0  0  0  0  0  0  0  0  0  0  0  0
    6.1870   11.1762   39.9101 H   0  0  0  0  0  0  0  0  0  0  0  0
    4.9112   10.6913   43.9353 H   0  0  0  0  0  0  0  0  0  0  0  0
    3.4782   12.6257   43.7382 H   0  0  0  0  0  0  0  0  0  0  0  0
    2.1851   14.2962   43.6219 H   0  0  0  0  0  0  0  0  0  0  0  0
    2.4274   19.1586   38.1252 H   0  0  0  0  0  0  0  0  0  0  0  0
    2.7370   16.7576   38.3239 H   0  0  0  0  0  0  0  0  0  0  0  0
  1  2  1  0
  1 19  1  0
  1 20  2  0
  2  3  1  0
  2 16  2  0
  3  4  2  0
  4  5  1  0
  5 15  2  0
  5 17  1  0
  6 17  1  0
  6 18  2  0
  6 22  1  0
  7  8  1  0
  7 14  2  0
  7 18  1  0
  8  9  1  0
  8 13  2  0
  9 10  2  0
 10 11  1  0
 11 12  2  0
 11 23  1  0
 12 13  1  0
 14 22  1  0
 15 16  1  0
 16 21  1  0
  3 24  1  0
  4 25  1  0
  9 26  1  0
 10 27  1  0
 12 28  1  0
 13 29  1  0
 14 30  1  0
 15 31  1  0
 17 32  1  0
M  CHG  2  19  -1  21  -1
M  END
>  <mol_id>  (78) 
2026-08-23-6tgu-s0-n100-r4-0078

>  <rmsd_to_ref>  (78) 
3.9897959183712155

$$$$
6tgu.A
     RDKit          3D

 32 34  0  0  0  0  0  0  0  0999 V2000
   -1.9981   18.1485   37.5375 C   0  0  0  0  0  0  0  0  0  0  0  0
   -1.5498   18.3988   38.9801 C   0  0  0  0  0  0  0  0  0  0  0  0
   -2.4416   18.9126   39.9188 C   0  0  0  0  0  0  0  0  0  0  0  0
   -2.1300   18.9767   41.2809 C   0  0  0  0  0  0  0  0  0  0  0  0
   -0.8308   18.6838   41.7204 C   0  0  0  0  0  0  0  0  0  0  0  0
    0.4586   18.0233   43.8096 C   0  0  0  0  0  0  0  0  0  0  0  0
    2.3137   16.7489   44.1410 C   0  0  0  0  0  0  0  0  0  0  0  0
    3.5005   15.9992   43.7277 C   0  0  0  0  0  0  0  0  0  0  0  0
    4.2683   15.2611   44.6396 C   0  0  0  0  0  0  0  0  0  0  0  0
    5.3738   14.5280   44.2193 C   0  0  0  0  0  0  0  0  0  0  0  0
    5.6797   14.5031   42.8717 C   0  0  0  0  0  0  0  0  0  0  0  0
    4.9441   15.2136   41.9351 C   0  0  0  0  0  0  0  0  0  0  0  0
    3.8485   15.9502   42.3769 C   0  0  0  0  0  0  0  0  0  0  0  0
    1.8606   16.8143   45.4321 C   0  0  0  0  0  0  0  0  0  0  0  0
    0.0757   18.1551   40.7905 C   0  0  0  0  0  0  0  0  0  0  0  0
   -0.2951   18.0300   39.4504 C   0  0  0  0  0  0  0  0  0  0  0  0
   -0.5134   18.6824   43.1135 N   0  0  0  0  0  0  0  0  0  0  0  0
    1.4813   17.3551   43.1706 N   0  0  0  0  0  0  0  0  0  0  0  0
   -3.2358   18.2720   37.3010 O   0  0  0  0  0  0  0  0  0  0  0  0
   -1.1232   17.7654   36.7303 O   0  0  0  0  0  0  0  0  0  0  0  0
    0.5621   17.4149   38.5690 O   0  0  0  0  0  0  0  0  0  0  0  0
    0.3407   17.6213   45.5119 S   0  0  0  0  0  0  0  0  0  0  0  0
    7.0288   13.5617   42.3283 Cl  0  0  0  0  0  0  0  0  0  0  0  0
   -3.4213   19.2792   39.5784 H   0  0  0  0  0  0  0  0  0  0  0  0
   -2.9054   19.2575   42.0087 H   0  0  0  0  0  0  0  0  0  0  0  0
    3.9924   15.2616   45.7044 H   0  0  0  0  0  0  0  0  0  0  0  0
    5.9918   13.9792   44.9452 H   0  0  0  0  0  0  0  0  0  0  0  0
    5.2193   15.1956   40.8703 H   0  0  0  0  0  0  0  0  0  0  0  0
    3.2437   16.5059   41.6452 H   0  0  0  0  0  0  0  0  0  0  0  0
    2.3959   16.4060   46.3020 H   0  0  0  0  0  0  0  0  0  0  0  0
    1.0777   17.8392   41.1165 H   0  0  0  0  0  0  0  0  0  0  0  0
   -1.1215   19.2805   43.6909 H   0  0  0  0  0  0  0  0  0  0  0  0
  1  2  1  0
  1 19  1  0
  1 20  2  0
  2  3  1  0
  2 16  2  0
  3  4  2  0
  4  5  1  0
  5 15  2  0
  5 17  1  0
  6 17  1  0
  6 18  2  0
  6 22  1  0
  7  8  1  0
  7 14  2  0
  7 18  1  0
  8  9  1  0
  8 13  2  0
  9 10  2  0
 10 11  1  0
 11 12  2  0
 11 23  1  0
 12 13  1  0
 14 22  1  0
 15 16  1  0
 16 21  1  0
  3 24  1  0
  4 25  1  0
  9 26  1  0
 10 27  1  0
 12 28  1  0
 13 29  1  0
 14 30  1  0
 15 31  1  0
 17 32  1  0
M  CHG  2  19  -1  21  -1
M  END
>  <mol_id>  (79) 
2026-08-23-6tgu-s0-n100-r4-0079

>  <rmsd_to_ref>  (79) 
4.035714285720542

$$$$
6tgu.A
     RDKit          3D

 32 34  0  0  0  0  0  0  0  0999 V2000
    1.4614   18.7150   34.0407 C   0  0  0  0  0  0  0  0  0  0  0  0
    1.5128   18.0879   35.3553 C   0  0  0  0  0  0  0  0  0  0  0  0
    0.8618   16.8844   35.5281 C   0  0  0  0  0  0  0  0  0  0  0  0
    0.8826   16.2545   36.7592 C   0  0  0  0  0  0  0  0  0  0  0  0
    1.5588   16.8182   37.8492 C   0  0  0  0  0  0  0  0  0  0  0  0
    1.5610   16.6312   40.3533 C   0  0  0  0  0  0  0  0  0  0  0  0
    1.6114   16.8526   42.6057 C   0  0  0  0  0  0  0  0  0  0  0  0
    1.6679   16.2250   43.9186 C   0  0  0  0  0  0  0  0  0  0  0  0
    1.6663   17.0040   45.0532 C   0  0  0  0  0  0  0  0  0  0  0  0
    1.7184   16.4132   46.3151 C   0  0  0  0  0  0  0  0  0  0  0  0
    1.7721   15.0272   46.4246 C   0  0  0  0  0  0  0  0  0  0  0  0
    1.7751   14.2261   45.2962 C   0  0  0  0  0  0  0  0  0  0  0  0
    1.7221   14.8583   44.0641 C   0  0  0  0  0  0  0  0  0  0  0  0
    1.5506   18.2891   42.4181 C   0  0  0  0  0  0  0  0  0  0  0  0
    2.2076   18.0142   37.6815 C   0  0  0  0  0  0  0  0  0  0  0  0
    2.1838   18.6497   36.4307 C   0  0  0  0  0  0  0  0  0  0  0  0
    1.5206   16.0776   39.0506 N   0  0  0  0  0  0  0  0  0  0  0  0
    1.6055   16.2266   41.4609 N   0  0  0  0  0  0  0  0  0  0  0  0
    2.1229   19.9268   33.8755 O   0  0  0  0  0  0  0  0  0  0  0  0
    0.8345   18.1838   33.0610 O   0  0  0  0  0  0  0  0  0  0  0  0
    2.8470   19.8784   36.2488 O   0  0  0  0  0  0  0  0  0  0  0  0
    1.4960   18.4771   40.6239 S   0  0  0  0  0  0  0  0  0  0  0  0
    1.8425   14.2119   47.9703 Cl  0  0  0  0  0  0  0  0  0  0  0  0
    0.3335   16.4486   34.6665 H   0  0  0  0  0  0  0  0  0  0  0  0
    0.3596   15.2938   36.8807 H   0  0  0  0  0  0  0  0  0  0  0  0
    1.6252   18.0986   45.0249 H   0  0  0  0  0  0  0  0  0  0  0  0
    1.7205   16.9662   47.2185 H   0  0  0  0  0  0  0  0  0  0  0  0
    1.8173   13.1581   45.3497 H   0  0  0  0  0  0  0  0  0  0  0  0
    1.7242   14.2605   43.1646 H   0  0  0  0  0  0  0  0  0  0  0  0
    1.5420   19.0278   43.1441 H   0  0  0  0  0  0  0  0  0  0  0  0
    2.7498   18.4746   38.4933 H   0  0  0  0  0  0  0  0  0  0  0  0
    1.4595   15.0371   39.0007 H   0  0  0  0  0  0  0  0  0  0  0  0
  1  2  1  0
  1 19  1  0
  1 20  2  0
  2  3  1  0
  2 16  2  0
  3  4  2  0
  4  5  1  0
  5 15  2  0
  5 17  1  0
  6 17  1  0
  6 18  2  0
  6 22  1  0
  7  8  1  0
  7 14  2  0
  7 18  1  0
  8  9  1  0
  8 13  2  0
  9 10  2  0
 10 11  1  0
 11 12  2  0
 11 23  1  0
 12 13  1  0
 14 22  1  0
 15 16  1  0
 16 21  1  0
  3 24  1  0
  4 25  1  0
  9 26  1  0
 10 27  1  0
 12 28  1  0
 13 29  1  0
 14 30  1  0
 15 31  1  0
 17 32  1  0
M  CHG  2  19  -1  21  -1
M  END
>  <mol_id>  (80) 
2026-08-23-6tgu-s0-n100-r4-0080

>  <rmsd_to_ref>  (80) 
4.081632653063435

$$$$
6tgu.A
     RDKit          3D

 32 34  0  0  0  0  0  0  0  0999 V2000
    2.6988   16.0204   35.5643 C   0  0  0  0  0  0  0  0  0  0  0  0
    2.1453   17.0924   36.5073 C   0  0  0  0  0  0  0  0  0  0  0  0
    1.2512   18.0527   36.0392 C   0  0  0  0  0  0  0  0  0  0  0  0
    0.5806   18.9254   36.9024 C   0  0  0  0  0  0  0  0  0  0  0  0
    0.9247   18.9744   38.2611 C   0  0  0  0  0  0  0  0  0  0  0  0
    0.0155   19.7182   40.5157 C   0  0  0  0  0  0  0  0  0  0  0  0
    0.2922   18.9255   42.6302 C   0  0  0  0  0  0  0  0  0  0  0  0
    0.9071   18.0961   43.6670 C   0  0  0  0  0  0  0  0  0  0  0  0
    0.4176   18.0639   44.9805 C   0  0  0  0  0  0  0  0  0  0  0  0
    0.9966   17.2423   45.9426 C   0  0  0  0  0  0  0  0  0  0  0  0
    2.0423   16.4191   45.5694 C   0  0  0  0  0  0  0  0  0  0  0  0
    2.5538   16.4149   44.2804 C   0  0  0  0  0  0  0  0  0  0  0  0
    1.9682   17.2523   43.3350 C   0  0  0  0  0  0  0  0  0  0  0  0
   -0.7846   19.7450   42.8436 C   0  0  0  0  0  0  0  0  0  0  0  0
    1.8147   18.0077   38.7505 C   0  0  0  0  0  0  0  0  0  0  0  0
    2.4070   17.0985   37.8722 C   0  0  0  0  0  0  0  0  0  0  0  0
    0.2061   19.8133   39.1673 N   0  0  0  0  0  0  0  0  0  0  0  0
    0.7187   18.8161   41.2855 N   0  0  0  0  0  0  0  0  0  0  0  0
    2.1784   15.9585   34.4118 O   0  0  0  0  0  0  0  0  0  0  0  0
    3.5595   15.2433   36.0325 O   0  0  0  0  0  0  0  0  0  0  0  0
    3.1950   16.0910   38.3760 O   0  0  0  0  0  0  0  0  0  0  0  0
   -1.3526   20.4153   41.3617 S   0  0  0  0  0  0  0  0  0  0  0  0
    2.7466   15.3608   46.7464 Cl  0  0  0  0  0  0  0  0  0  0  0  0
    1.0669   18.1269   34.9573 H   0  0  0  0  0  0  0  0  0  0  0  0
   -0.2184   19.5745   36.5148 H   0  0  0  0  0  0  0  0  0  0  0  0
   -0.4381   18.6985   45.2549 H   0  0  0  0  0  0  0  0  0  0  0  0
    0.6295   17.2478   46.9796 H   0  0  0  0  0  0  0  0  0  0  0  0
    3.4006   15.7663   44.0118 H   0  0  0  0  0  0  0  0  0  0  0  0
    2.3503   17.2491   42.3035 H   0  0  0  0  0  0  0  0  0  0  0  0
   -1.2275   19.9480   43.8298 H   0  0  0  0  0  0  0  0  0  0  0  0
    2.0458   17.9658   39.8251 H   0  0  0  0  0  0  0  0  0  0  0  0
   -0.2448   20.6288   38.7284 H   0  0  0  0  0  0  0  0  0  0  0  0
  1  2  1  0
  1 19  1  0
  1 20  2  0
  2  3  1  0
  2 16  2  0
  3  4  2  0
  4  5  1  0
  5 15  2  0
  5 17  1  0
  6 17  1  0
  6 18  2  0
  6 22  1  0
  7  8  1  0
  7 14  2  0
  7 18  1  0
  8  9  1  0
  8 13  2  0
  9 10  2  0
 10 11  1  0
 11 12  2  0
 11 23  1  0
 12 13  1  0
 14 22  1  0
 15 16  1  0
 16 21  1  0
  3 24  1  0
  4 25  1  0
  9 26  1  0
 10 27  1  0
 12 28  1  0
 13 29  1  0
 14 30  1  0
 15 31  1  0
 17 32  1  0
M  CHG  2  19  -1  21  -1
M  END
>  <mol_id>  (81) 
2026-08-23-6tgu-s0-n100-r4-0081

>  <rmsd_to_ref>  (81) 
4.127551020413431

$$$$
6tgu.A
     RDKit          3D

 32 34  0  0  0  0  0  0  0  0999 V2000
    6.0997   18.4341   36.5238 C   0  0  0  0  0  0  0  0  0  0  0  0
    5.1188   18.4393   37.6008 C   0  0  0  0  0  0  0  0  0  0  0  0
    4.0951   19.3509   37.6686 C   0  0  0  0  0  0  0  0  0  0  0  0
    3.1921   19.3281   38.6913 C   0  0  0  0  0  0  0  0  0  0  0  0
    3.2496   18.3820   39.7293 C   0  0  0  0  0  0  0  0  0  0  0  0
    1.8301   17.4450   41.5846 C   0  0  0  0  0  0  0  0  0  0  0  0
    0.7553   16.2893   43.1935 C   0  0  0  0  0  0  0  0  0  0  0  0
   -0.1704   16.2616   44.3180 C   0  0  0  0  0  0  0  0  0  0  0  0
   -0.7981   17.4027   44.7666 C   0  0  0  0  0  0  0  0  0  0  0  0
   -1.6806   17.4069   45.8323 C   0  0  0  0  0  0  0  0  0  0  0  0
   -1.9461   16.2058   46.4796 C   0  0  0  0  0  0  0  0  0  0  0  0
   -1.3293   15.0480   46.0486 C   0  0  0  0  0  0  0  0  0  0  0  0
   -0.4571   15.0904   44.9828 C   0  0  0  0  0  0  0  0  0  0  0  0
    1.4002   15.0673   42.7456 C   0  0  0  0  0  0  0  0  0  0  0  0
    4.2809   17.4824   39.6407 C   0  0  0  0  0  0  0  0  0  0  0  0
    5.1973   17.5023   38.6062 C   0  0  0  0  0  0  0  0  0  0  0  0
    2.2863   18.4684   40.7229 N   0  0  0  0  0  0  0  0  0  0  0  0
    1.1148   17.3023   42.4860 N   0  0  0  0  0  0  0  0  0  0  0  0
    6.0555   19.3585   35.4955 O   0  0  0  0  0  0  0  0  0  0  0  0
    7.0038   17.5423   36.5654 O   0  0  0  0  0  0  0  0  0  0  0  0
    6.2226   16.5521   38.5823 O   0  0  0  0  0  0  0  0  0  0  0  0
    2.4289   15.6662   41.3428 S   0  0  0  0  0  0  0  0  0  0  0  0
   -3.0482   16.1380   47.8304 Cl  0  0  0  0  0  0  0  0  0  0  0  0
    4.0394   20.0938   36.8656 H   0  0  0  0  0  0  0  0  0  0  0  0
    2.3929   20.0774   38.6996 H   0  0  0  0  0  0  0  0  0  0  0  0
   -0.5957   18.3411   44.2672 H   0  0  0  0  0  0  0  0  0  0  0  0
   -2.1542   18.3402   46.1514 H   0  0  0  0  0  0  0  0  0  0  0  0
   -1.5353   14.1218   46.5496 H   0  0  0  0  0  0  0  0  0  0  0  0
   -0.0038   14.1511   44.6895 H   0  0  0  0  0  0  0  0  0  0  0  0
    1.3243   14.1190   43.0936 H   0  0  0  0  0  0  0  0  0  0  0  0
    4.4097   16.7387   40.3876 H   0  0  0  0  0  0  0  0  0  0  0  0
    1.8129   19.4121   40.8824 H   0  0  0  0  0  0  0  0  0  0  0  0
  1  2  1  0
  1 19  1  0
  1 20  2  0
  2  3  1  0
  2 16  2  0
  3  4  2  0
  4  5  1  0
  5 15  2  0
  5 17  1  0
  6 17  1  0
  6 18  2  0
  6 22  1  0
  7  8  1  0
  7 14  2  0
  7 18  1  0
  8  9  1  0
  8 13  2  0
  9 10  2  0
 10 11  1  0
 11 12  2  0
 11 23  1  0
 12 13  1  0
 14 22  1  0
 15 16  1  0
 16 21  1  0
  3 24  1  0
  4 25  1  0
  9 26  1  0
 10 27  1  0
 12 28  1  0
 13 29  1  0
 14 30  1  0
 15 31  1  0
 17 32  1  0
M  CHG  2  19  -1  21  -1
M  END
>  <mol_id>  (82) 
2026-08-23-6tgu-s0-n100-r4-0082

>  <rmsd_to_ref>  (82) 
4.173469387755912

$$$$
6tgu.A
     RDKit          3D

 32 34  0  0  0  0  0  0  0  0999 V2000
   -0.9188   21.7258   38.4592 C   0  0  0  0  0  0  0  0  0  0  0  0
   -0.8441   20.4728   39.3361 C   0  0  0  0  0  0  0  0  0  0  0  0
   -1.9801   19.9957   39.9862 C   0  0  0  0  0  0  0  0  0  0  0  0
   -1.9976   18.7578   40.6372 C   0  0  0  0  0  0  0  0  0  0  0  0
   -0.8085   18.0334   40.8044 C   0  0  0  0  0  0  0  0  0  0  0  0
    0.0365   15.6837   41.2825 C   0  0  0  0  0  0  0  0  0  0  0  0
    1.9010   14.5517   40.6362 C   0  0  0  0  0  0  0  0  0  0  0  0
    3.2291   14.4132   40.0378 C   0  0  0  0  0  0  0  0  0  0  0  0
    3.8481   13.1646   39.8830 C   0  0  0  0  0  0  0  0  0  0  0  0
    5.0972   13.0522   39.2806 C   0  0  0  0  0  0  0  0  0  0  0  0
    5.7040   14.1947   38.7938 C   0  0  0  0  0  0  0  0  0  0  0  0
    5.1250   15.4484   38.9205 C   0  0  0  0  0  0  0  0  0  0  0  0
    3.8800   15.5415   39.5364 C   0  0  0  0  0  0  0  0  0  0  0  0
    1.1603   13.5005   41.1081 C   0  0  0  0  0  0  0  0  0  0  0  0
    0.3413   18.4939   40.1473 C   0  0  0  0  0  0  0  0  0  0  0  0
    0.3038   19.6960   39.4383 C   0  0  0  0  0  0  0  0  0  0  0  0
   -0.8200   16.7392   41.4096 N   0  0  0  0  0  0  0  0  0  0  0  0
    1.2482   15.8071   40.6366 N   0  0  0  0  0  0  0  0  0  0  0  0
   -2.0755   22.1876   38.2311 O   0  0  0  0  0  0  0  0  0  0  0  0
    0.1556   22.1434   37.9746 O   0  0  0  0  0  0  0  0  0  0  0  0
    1.4047   20.0846   38.7126 O   0  0  0  0  0  0  0  0  0  0  0  0
   -0.4203   14.0143   41.5614 S   0  0  0  0  0  0  0  0  0  0  0  0
    7.2409   14.0650   38.0048 Cl  0  0  0  0  0  0  0  0  0  0  0  0
   -2.8916   20.6115   39.9876 H   0  0  0  0  0  0  0  0  0  0  0  0
   -2.9460   18.3517   41.0187 H   0  0  0  0  0  0  0  0  0  0  0  0
    3.3378   12.2593   40.2437 H   0  0  0  0  0  0  0  0  0  0  0  0
    5.5921   12.0736   39.1936 H   0  0  0  0  0  0  0  0  0  0  0  0
    5.6366   16.3465   38.5440 H   0  0  0  0  0  0  0  0  0  0  0  0
    3.3985   16.5261   39.6300 H   0  0  0  0  0  0  0  0  0  0  0  0
    1.5260   12.4661   41.1870 H   0  0  0  0  0  0  0  0  0  0  0  0
    1.2718   17.9088   40.1904 H   0  0  0  0  0  0  0  0  0  0  0  0
   -1.6088   16.5745   42.0512 H   0  0  0  0  0  0  0  0  0  0  0  0
  1  2  1  0
  1 19  1  0
  1 20  2  0
  2  3  1  0
  2 16  2  0
  3  4  2  0
  4  5  1  0
  5 15  2  0
  5 17  1  0
  6 17  1  0
  6 18  2  0
  6 22  1  0
  7  8  1  0
  7 14  2  0
  7 18  1  0
  8  9  1  0
  8 13  2  0
  9 10  2  0
 10 11  1  0
 11 12  2  0
 11 23  1  0
 12 13  1  0
 14 22  1  0
 15 16  1  0
 16 21  1  0
  3 24  1  0
  4 25  1  0
  9 26  1  0
 10 27  1  0
 12 28  1  0
 13 29  1  0
 14 30  1  0
 15 31  1  0
 17 32  1  0
M  CHG  2  19  -1  21  -1
M  END
>  <mol_id>  (83) 
2026-08-23-6tgu-s0-n100-r4-0083

>  <rmsd_to_ref>  (83) 
4.219387755105592

$$$$
6tgu.A
     RDKit          3D

 32 34  0  0  0  0  0  0  0  0999 V2000
    1.0013   23.0060   39.1846 C   0  0  0  0  0  0  0  0  0  0  0  0
    0.8265   21.7310   39.8852 C   0  0  0  0  0  0  0  0  0  0  0  0
    1.6643   20.6696   39.5904 C   0  0  0  0  0  0  0  0  0  0  0  0
    1.4990   19.4611   40.2539 C   0  0  0  0  0  0  0  0  0  0  0  0
    0.4950   19.3472   41.1988 C   0  0  0  0  0  0  0  0  0  0  0  0
    1.1660   17.0290   41.5957 C   0  0  0  0  0  0  0  0  0  0  0  0
    2.9213   15.5848   41.6882 C   0  0  0  0  0  0  0  0  0  0  0  0
    4.1995   15.1573   42.2754 C   0  0  0  0  0  0  0  0  0  0  0  0
    4.7684   15.8843   43.3006 C   0  0  0  0  0  0  0  0  0  0  0  0
    5.9695   15.5103   43.8755 C   0  0  0  0  0  0  0  0  0  0  0  0
    6.6373   14.3873   43.4332 C   0  0  0  0  0  0  0  0  0  0  0  0
    6.0629   13.6473   42.3931 C   0  0  0  0  0  0  0  0  0  0  0  0
    4.8637   14.0474   41.8413 C   0  0  0  0  0  0  0  0  0  0  0  0
    2.3314   14.8456   40.6381 C   0  0  0  0  0  0  0  0  0  0  0  0
   -0.3391   20.4254   41.4831 C   0  0  0  0  0  0  0  0  0  0  0  0
   -0.1862   21.6350   40.8303 C   0  0  0  0  0  0  0  0  0  0  0  0
    0.3193   18.1205   41.8791 N   0  0  0  0  0  0  0  0  0  0  0  0
    2.2440   16.6221   42.0520 N   0  0  0  0  0  0  0  0  0  0  0  0
    1.9953   23.1510   38.2352 O   0  0  0  0  0  0  0  0  0  0  0  0
    0.2230   23.9540   39.4745 O   0  0  0  0  0  0  0  0  0  0  0  0
   -1.0183   22.7099   41.1141 O   0  0  0  0  0  0  0  0  0  0  0  0
    0.7732   15.7882   40.2735 S   0  0  0  0  0  0  0  0  0  0  0  0
    8.1634   13.8591   44.1194 Cl  0  0  0  0  0  0  0  0  0  0  0  0
    2.4602   20.7614   38.8406 H   0  0  0  0  0  0  0  0  0  0  0  0
    2.1462   18.6155   40.0372 H   0  0  0  0  0  0  0  0  0  0  0  0
    4.2715   16.7864   43.6853 H   0  0  0  0  0  0  0  0  0  0  0  0
    6.4023   16.0842   44.6729 H   0  0  0  0  0  0  0  0  0  0  0  0
    6.5299   12.7580   41.9971 H   0  0  0  0  0  0  0  0  0  0  0  0
    4.4278   13.4586   41.0294 H   0  0  0  0  0  0  0  0  0  0  0  0
    2.6275   13.9565   40.1166 H   0  0  0  0  0  0  0  0  0  0  0  0
   -1.1349   20.3263   42.2359 H   0  0  0  0  0  0  0  0  0  0  0  0
   -0.4361   18.0128   42.5945 H   0  0  0  0  0  0  0  0  0  0  0  0
  1  2  1  0
  1 19  1  0
  1 20  2  0
  2  3  1  0
  2 16  2  0
  3  4  2  0
  4  5  1  0
  5 15  2  0
  5 17  1  0
  6 17  1  0
  6 18  2  0
  6 22  1  0
  7  8  1  0
  7 14  2  0
  7 18  1  0
  8  9  1  0
  8 13  2  0
  9 10  2  0
 10 11  1  0
 11 12  2  0
 11 23  1  0
 12 13  1  0
 14 22  1  0
 15 16  1  0
 16 21  1  0
  3 24  1  0
  4 25  1  0
  9 26  1  0
 10 27  1  0
 12 28  1  0
 13 29  1  0
 14 30  1  0
 15 31  1  0
 17 32  1  0
M  CHG  2  19  -1  21  -1
M  END
>  <mol_id>  (84) 
2026-08-23-6tgu-s0-n100-r4-0084

>  <rmsd_to_ref>  (84) 
4.265306122451814

$$$$
6tgu.A
     RDKit          3D

 32 34  0  0  0  0  0  0  0  0999 V2000
   -4.0828   19.1837   38.5827 C   0  0  0  0  0  0  0  0  0  0  0  0
   -2.7523   19.1749   39.3407 C   0  0  0  0  0  0  0  0  0  0  0  0
   -2.5288   20.0664   40.3875 C   0  0  0  0  0  0  0  0  0  0  0  0
   -1.4113   19.9652   41.2225 C   0  0  0  0  0  0  0  0  0  0  0  0
   -0.3843   19.0600   40.9177 C   0  0  0  0  0  0  0  0  0  0  0  0
    1.5731   17.8413   41.9885 C   0  0  0  0  0  0  0  0  0  0  0  0
    2.5207   15.8082   41.6089 C   0  0  0  0  0  0  0  0  0  0  0  0
    2.7437   14.5645   40.8707 C   0  0  0  0  0  0  0  0  0  0  0  0
    3.5615   13.5406   41.3695 C   0  0  0  0  0  0  0  0  0  0  0  0
    3.7330   12.3520   40.6666 C   0  0  0  0  0  0  0  0  0  0  0  0
    3.0445   12.1775   39.4809 C   0  0  0  0  0  0  0  0  0  0  0  0
    2.2213   13.1614   38.9543 C   0  0  0  0  0  0  0  0  0  0  0  0
    2.0716   14.3480   39.6668 C   0  0  0  0  0  0  0  0  0  0  0  0
    3.0912   16.0917   42.8215 C   0  0  0  0  0  0  0  0  0  0  0  0
   -0.5981   18.1482   39.8742 C   0  0  0  0  0  0  0  0  0  0  0  0
   -1.7633   18.2264   39.1091 C   0  0  0  0  0  0  0  0  0  0  0  0
    0.7323   18.8992   41.7944 N   0  0  0  0  0  0  0  0  0  0  0  0
    1.5723   16.7504   41.1454 N   0  0  0  0  0  0  0  0  0  0  0  0
   -5.0013   19.9114   39.0621 O   0  0  0  0  0  0  0  0  0  0  0  0
   -4.1818   18.4137   37.6024 O   0  0  0  0  0  0  0  0  0  0  0  0
   -2.0106   17.2646   38.1585 O   0  0  0  0  0  0  0  0  0  0  0  0
    2.4539   17.5521   43.4764 S   0  0  0  0  0  0  0  0  0  0  0  0
    3.2162   10.6866   38.6153 Cl  0  0  0  0  0  0  0  0  0  0  0  0
   -3.2537   20.8750   40.5629 H   0  0  0  0  0  0  0  0  0  0  0  0
   -1.3377   20.5968   42.1201 H   0  0  0  0  0  0  0  0  0  0  0  0
    4.0757   13.6791   42.3319 H   0  0  0  0  0  0  0  0  0  0  0  0
    4.4031   11.5670   41.0470 H   0  0  0  0  0  0  0  0  0  0  0  0
    1.6998   13.0081   37.9980 H   0  0  0  0  0  0  0  0  0  0  0  0
    1.4089   15.1323   39.2721 H   0  0  0  0  0  0  0  0  0  0  0  0
    3.8545   15.4697   43.3119 H   0  0  0  0  0  0  0  0  0  0  0  0
    0.1512   17.3723   39.6586 H   0  0  0  0  0  0  0  0  0  0  0  0
    0.9380   19.7214   42.3796 H   0  0  0  0  0  0  0  0  0  0  0  0
  1  2  1  0
  1 19  1  0
  1 20  2  0
  2  3  1  0
  2 16  2  0
  3  4  2  0
  4  5  1  0
  5 15  2  0
  5 17  1  0
  6 17  1  0
  6 18  2  0
  6 22  1  0
  7  8  1  0
  7 14  2  0
  7 18  1  0
  8  9  1  0
  8 13  2  0
  9 10  2  0
 10 11  1  0
 11 12  2  0
 11 23  1  0
 12 13  1  0
 14 22  1  0
 15 16  1  0
 16 21  1  0
  3 24  1  0
  4 25  1  0
  9 26  1  0
 10 27  1  0
 12 28  1  0
 13 29  1  0
 14 30  1  0
 15 31  1  0
 17 32  1  0
M  CHG  2  19  -1  21  -1
M  END
>  <mol_id>  (85) 
2026-08-23-6tgu-s0-n100-r4-0085

>  <rmsd_to_ref>  (85) 
4.311224489802048

$$$$
6tgu.A
     RDKit          3D

 32 34  0  0  0  0  0  0  0  0999 V2000
   -1.6429   22.1024   42.6611 C   0  0  0  0  0  0  0  0  0  0  0  0
   -0.9441   20.9297   42.1246 C   0  0  0  0  0  0  0  0  0  0  0  0
   -1.3472   19.6600   42.5232 C   0  0  0  0  0  0  0  0  0  0  0  0
   -0.6861   18.5339   42.0200 C   0  0  0  0  0  0  0  0  0  0  0  0
    0.3602   18.6278   41.1360 C   0  0  0  0  0  0  0  0  0  0  0  0
    1.2183   16.3339   41.2917 C   0  0  0  0  0  0  0  0  0  0  0  0
    1.8787   14.1362   41.6381 C   0  0  0  0  0  0  0  0  0  0  0  0
    2.5219   12.8554   41.2229 C   0  0  0  0  0  0  0  0  0  0  0  0
    3.0841   12.7363   39.9731 C   0  0  0  0  0  0  0  0  0  0  0  0
    3.7017   11.5876   39.5177 C   0  0  0  0  0  0  0  0  0  0  0  0
    3.7402   10.5194   40.3891 C   0  0  0  0  0  0  0  0  0  0  0  0
    3.1733   10.6338   41.6531 C   0  0  0  0  0  0  0  0  0  0  0  0
    2.5682   11.7880   42.0718 C   0  0  0  0  0  0  0  0  0  0  0  0
    1.3166   14.2067   42.9381 C   0  0  0  0  0  0  0  0  0  0  0  0
    0.7494   19.8983   40.7488 C   0  0  0  0  0  0  0  0  0  0  0  0
    0.1120   21.0433   41.2308 C   0  0  0  0  0  0  0  0  0  0  0  0
    1.0864   17.5401   40.6107 N   0  0  0  0  0  0  0  0  0  0  0  0
    1.8179   15.1529   40.8843 N   0  0  0  0  0  0  0  0  0  0  0  0
   -1.2338   23.3582   42.2691 O   0  0  0  0  0  0  0  0  0  0  0  0
   -2.5897   21.9742   43.4577 O   0  0  0  0  0  0  0  0  0  0  0  0
    0.5347   22.3058   40.8152 O   0  0  0  0  0  0  0  0  0  0  0  0
    0.6732   15.9378   42.9633 S   0  0  0  0  0  0  0  0  0  0  0  0
    4.4917    8.9842   39.9615 Cl  0  0  0  0  0  0  0  0  0  0  0  0
   -2.1682   19.5280   43.2214 H   0  0  0  0  0  0  0  0  0  0  0  0
   -1.0487   17.5942   42.3560 H   0  0  0  0  0  0  0  0  0  0  0  0
    3.0395   13.5815   39.3201 H   0  0  0  0  0  0  0  0  0  0  0  0
    4.1411   11.5037   38.5337 H   0  0  0  0  0  0  0  0  0  0  0  0
    3.1941    9.8079   42.3452 H   0  0  0  0  0  0  0  0  0  0  0  0
    2.1418   11.8179   43.0725 H   0  0  0  0  0  0  0  0  0  0  0  0
    1.2378   13.4928   43.7628 H   0  0  0  0  0  0  0  0  0  0  0  0
    1.5796   20.0622   40.0444 H   0  0  0  0  0  0  0  0  0  0  0  0
    1.5476   17.6297   39.6774 H   0  0  0  0  0  0  0  0  0  0  0  0
  1  2  1  0
  1 19  1  0
  1 20  2  0
  2  3  1  0
  2 16  2  0
  3  4  2  0
  4  5  1  0
  5 15  2  0
  5 17  1  0
  6 17  1  0
  6 18  2  0
  6 22  1  0
  7  8  1  0
  7 14  2  0
  7 18  1  0
  8  9  1  0
  8 13  2  0
  9 10  2  0
 10 11  1  0
 11 12  2  0
 11 23  1  0
 12 13  1  0
 14 22  1  0
 15 16  1  0
 16 21  1  0
  3 24  1  0
  4 25  1  0
  9 26  1  0
 10 27  1  0
 12 28  1  0
 13 29  1  0
 14 30  1  0
 15 31  1  0
 17 32  1  0
M  CHG  2  19  -1  21  -1
M  END
>  <mol_id>  (86) 
2026-08-23-6tgu-s0-n100-r4-0086

>  <rmsd_to_ref>  (86) 
4.3571428571455035

$$$$
6tgu.A
     RDKit          3D

 32 34  0  0  0  0  0  0  0  0999 V2000
    7.5899   16.6568   40.0742 C   0  0  0  0  0  0  0  0  0  0  0  0
    6.4146   17.5753   40.4200 C   0  0  0  0  0  0  0  0  0  0  0  0
    6.4049   18.9020   39.9951 C   0  0  0  0  0  0  0  0  0  0  0  0
    5.2739   19.7145   40.1251 C   0  0  0  0  0  0  0  0  0  0  0  0
    4.1629   19.2637   40.8527 C   0  0  0  0  0  0  0  0  0  0  0  0
    1.6765   19.6984   41.1560 C   0  0  0  0  0  0  0  0  0  0  0  0
   -0.0780   18.3416   41.6622 C   0  0  0  0  0  0  0  0  0  0  0  0
   -0.7103   17.0951   42.0956 C   0  0  0  0  0  0  0  0  0  0  0  0
   -2.1020   16.9246   42.0842 C   0  0  0  0  0  0  0  0  0  0  0  0
   -2.6808   15.7191   42.4686 C   0  0  0  0  0  0  0  0  0  0  0  0
   -1.8540   14.6696   42.8228 C   0  0  0  0  0  0  0  0  0  0  0  0
   -0.4729   14.7930   42.8426 C   0  0  0  0  0  0  0  0  0  0  0  0
    0.0867   16.0107   42.4656 C   0  0  0  0  0  0  0  0  0  0  0  0
   -0.7706   19.4420   41.2312 C   0  0  0  0  0  0  0  0  0  0  0  0
    4.1520   17.9275   41.2778 C   0  0  0  0  0  0  0  0  0  0  0  0
    5.2692   17.1189   41.0613 C   0  0  0  0  0  0  0  0  0  0  0  0
    2.9766   20.0549   40.9405 N   0  0  0  0  0  0  0  0  0  0  0  0
    1.3298   18.4219   41.5448 N   0  0  0  0  0  0  0  0  0  0  0  0
    8.4439   17.1145   39.2591 O   0  0  0  0  0  0  0  0  0  0  0  0
    7.5702   15.5041   40.5587 O   0  0  0  0  0  0  0  0  0  0  0  0
    5.2084   15.7848   41.3875 O   0  0  0  0  0  0  0  0  0  0  0  0
    0.3012   20.6458   40.6228 S   0  0  0  0  0  0  0  0  0  0  0  0
   -2.5590   13.1499   43.2645 Cl  0  0  0  0  0  0  0  0  0  0  0  0
    7.3150   19.3236   39.5434 H   0  0  0  0  0  0  0  0  0  0  0  0
    5.2557   20.7091   39.6556 H   0  0  0  0  0  0  0  0  0  0  0  0
   -2.7466   17.7572   41.7662 H   0  0  0  0  0  0  0  0  0  0  0  0
   -3.7745   15.6035   42.4902 H   0  0  0  0  0  0  0  0  0  0  0  0
    0.1643   13.9501   43.1485 H   0  0  0  0  0  0  0  0  0  0  0  0
    1.1812   16.1206   42.4591 H   0  0  0  0  0  0  0  0  0  0  0  0
   -1.8653   19.5435   41.2684 H   0  0  0  0  0  0  0  0  0  0  0  0
    3.2642   17.5170   41.7811 H   0  0  0  0  0  0  0  0  0  0  0  0
    3.1279   21.0667   40.8207 H   0  0  0  0  0  0  0  0  0  0  0  0
  1  2  1  0
  1 19  1  0
  1 20  2  0
  2  3  1  0
  2 16  2  0
  3  4  2  0
  4  5  1  0
  5 15  2  0
  5 17  1  0
  6 17  1  0
  6 18  2  0
  6 22  1  0
  7  8  1  0
  7 14  2  0
  7 18  1  0
  8  9  1  0
  8 13  2  0
  9 10  2  0
 10 11  1  0
 11 12  2  0
 11 23  1  0
 12 13  1  0
 14 22  1  0
 15 16  1  0
 16 21  1  0
  3 24  1  0
  4 25  1  0
  9 26  1  0
 10 27  1  0
 12 28  1  0
 13 29  1  0
 14 30  1  0
 15 31  1  0
 17 32  1  0
M  CHG  2  19  -1  21  -1
M  END
>  <mol_id>  (87) 
2026-08-23-6tgu-s0-n100-r4-0087

>  <rmsd_to_ref>  (87) 
4.4030612244985825

$$$$
6tgu.A
     RDKit          3D

 32 34  0  0  0  0  0  0  0  0999 V2000
    1.6490   20.4430   36.1593 C   0  0  0  0  0  0  0  0  0  0  0  0
    1.0615   19.1364   36.4257 C   0  0  0  0  0  0  0  0  0  0  0  0
    0.8377   18.7352   37.7241 C   0  0  0  0  0  0  0  0  0  0  0  0
    0.2784   17.4883   37.9391 C   0  0  0  0  0  0  0  0  0  0  0  0
   -0.0656   16.6286   36.9183 C   0  0  0  0  0  0  0  0  0  0  0  0
   -0.8912   14.8831   38.4116 C   0  0  0  0  0  0  0  0  0  0  0  0
   -1.1291   14.5270   40.6564 C   0  0  0  0  0  0  0  0  0  0  0  0
   -0.9692   15.0009   42.0464 C   0  0  0  0  0  0  0  0  0  0  0  0
   -1.3463   14.2353   43.1171 C   0  0  0  0  0  0  0  0  0  0  0  0
   -1.1695   14.7382   44.3930 C   0  0  0  0  0  0  0  0  0  0  0  0
   -0.6308   15.9767   44.6505 C   0  0  0  0  0  0  0  0  0  0  0  0
   -0.2514   16.7467   43.5695 C   0  0  0  0  0  0  0  0  0  0  0  0
   -0.4300   16.2407   42.3042 C   0  0  0  0  0  0  0  0  0  0  0  0
   -1.7048   13.2083   40.4402 C   0  0  0  0  0  0  0  0  0  0  0  0
    0.1913   17.1050   35.6244 C   0  0  0  0  0  0  0  0  0  0  0  0
    0.7379   18.3200   35.3704 C   0  0  0  0  0  0  0  0  0  0  0  0
   -0.6387   15.3493   37.1194 N   0  0  0  0  0  0  0  0  0  0  0  0
   -0.8162   15.1494   39.6062 N   0  0  0  0  0  0  0  0  0  0  0  0
    1.9921   21.3025   37.2009 O   0  0  0  0  0  0  0  0  0  0  0  0
    1.8415   20.7807   34.9489 O   0  0  0  0  0  0  0  0  0  0  0  0
    0.9664   18.7323   34.0769 O   0  0  0  0  0  0  0  0  0  0  0  0
   -1.6601   13.1564   38.5482 S   0  0  0  0  0  0  0  0  0  0  0  0
   -0.4535   16.5110   46.3027 Cl  0  0  0  0  0  0  0  0  0  0  0  0
    1.1076   19.4098   38.5233 H   0  0  0  0  0  0  0  0  0  0  0  0
    0.1181   17.2087   38.9655 H   0  0  0  0  0  0  0  0  0  0  0  0
   -1.7769   13.2509   42.9804 H   0  0  0  0  0  0  0  0  0  0  0  0
   -1.4836   14.0941   45.2089 H   0  0  0  0  0  0  0  0  0  0  0  0
    0.1675   17.7090   43.7602 H   0  0  0  0  0  0  0  0  0  0  0  0
   -0.1256   16.8594   41.4481 H   0  0  0  0  0  0  0  0  0  0  0  0
   -2.0342   12.5104   41.0177 H   0  0  0  0  0  0  0  0  0  0  0  0
   -0.0664   16.4552   34.7883 H   0  0  0  0  0  0  0  0  0  0  0  0
   -0.8545   14.7924   36.2626 H   0  0  0  0  0  0  0  0  0  0  0  0
  1  2  1  0
  1 19  1  0
  1 20  2  0
  2  3  1  0
  2 16  2  0
  3  4  2  0
  4  5  1  0
  5 15  2  0
  5 17  1  0
  6 17  1  0
  6 18  2  0
  6 22  1  0
  7  8  1  0
  7 14  2  0
  7 18  1  0
  8  9  1  0
  8 13  2  0
  9 10  2  0
 10 11  1  0
 11 12  2  0
 11 23  1  0
 12 13  1  0
 14 22  1  0
 15 16  1  0
 16 21  1  0
  3 24  1  0
  4 25  1  0
  9 26  1  0
 10 27  1  0
 12 28  1  0
 13 29  1  0
 14 30  1  0
 15 31  1  0
 17 32  1  0
M  CHG  2  19  -1  21  -1
M  END
>  <mol_id>  (88) 
2026-08-23-6tgu-s0-n100-r4-0088

>  <rmsd_to_ref>  (88) 
4.448979591838801

$$$$
6tgu.A
     RDKit          3D

 32 34  0  0  0  0  0  0  0  0999 V2000
   -0.9691   18.4695   35.3360 C   0  0  0  0  0  0  0  0  0  0  0  0
   -1.3514   18.2066   36.7952 C   0  0  0  0  0  0  0  0  0  0  0  0
   -2.6043   17.6887   37.1158 C   0  0  0  0  0  0  0  0  0  0  0  0
   -2.9208   17.2590   38.4088 C   0  0  0  0  0  0  0  0  0  0  0  0
   -2.0346   17.5018   39.4682 C   0  0  0  0  0  0  0  0  0  0  0  0
   -1.4805   16.7050   41.8179 C   0  0  0  0  0  0  0  0  0  0  0  0
    0.4687   16.5694   42.9832 C   0  0  0  0  0  0  0  0  0  0  0  0
    1.8892   16.8215   43.2281 C   0  0  0  0  0  0  0  0  0  0  0  0
    2.5686   16.2519   44.3144 C   0  0  0  0  0  0  0  0  0  0  0  0
    3.9276   16.4778   44.5096 C   0  0  0  0  0  0  0  0  0  0  0  0
    4.6123   17.2429   43.5842 C   0  0  0  0  0  0  0  0  0  0  0  0
    3.9811   17.8203   42.4929 C   0  0  0  0  0  0  0  0  0  0  0  0
    2.6185   17.5919   42.3212 C   0  0  0  0  0  0  0  0  0  0  0  0
   -0.3190   15.7853   43.7839 C   0  0  0  0  0  0  0  0  0  0  0  0
   -0.7652   18.0123   39.1612 C   0  0  0  0  0  0  0  0  0  0  0  0
   -0.4532   18.3575   37.8449 C   0  0  0  0  0  0  0  0  0  0  0  0
   -2.3137   17.0132   40.7814 N   0  0  0  0  0  0  0  0  0  0  0  0
   -0.1428   17.0379   41.7963 N   0  0  0  0  0  0  0  0  0  0  0  0
   -1.7716   18.0405   34.4556 O   0  0  0  0  0  0  0  0  0  0  0  0
    0.1383   19.0122   35.1291 O   0  0  0  0  0  0  0  0  0  0  0  0
    0.8258   18.7577   37.5387 O   0  0  0  0  0  0  0  0  0  0  0  0
   -1.8778   15.5609   43.0854 S   0  0  0  0  0  0  0  0  0  0  0  0
    6.3132   17.4990   43.7919 Cl  0  0  0  0  0  0  0  0  0  0  0  0
   -3.3683   17.6153   36.3278 H   0  0  0  0  0  0  0  0  0  0  0  0
   -3.8669   16.7296   38.5950 H   0  0  0  0  0  0  0  0  0  0  0  0
    2.0184   15.6161   45.0236 H   0  0  0  0  0  0  0  0  0  0  0  0
    4.4467   16.0560   45.3829 H   0  0  0  0  0  0  0  0  0  0  0  0
    4.5426   18.4431   41.7809 H   0  0  0  0  0  0  0  0  0  0  0  0
    2.1055   18.0282   41.4515 H   0  0  0  0  0  0  0  0  0  0  0  0
    0.0010   15.3562   44.7448 H   0  0  0  0  0  0  0  0  0  0  0  0
   -0.0161   18.1405   39.9564 H   0  0  0  0  0  0  0  0  0  0  0  0
   -3.3141   16.8688   40.9798 H   0  0  0  0  0  0  0  0  0  0  0  0
  1  2  1  0
  1 19  1  0
  1 20  2  0
  2  3  1  0
  2 16  2  0
  3  4  2  0
  4  5  1  0
  5 15  2  0
  5 17  1  0
  6 17  1  0
  6 18  2  0
  6 22  1  0
  7  8  1  0
  7 14  2  0
  7 18  1  0
  8  9  1  0
  8 13  2  0
  9 10  2  0
 10 11  1  0
 11 12  2  0
 11 23  1  0
 12 13  1  0
 14 22  1  0
 15 16  1  0
 16 21  1  0
  3 24  1  0
  4 25  1  0
  9 26  1  0
 10 27  1  0
 12 28  1  0
 13 29  1  0
 14 30  1  0
 15 31  1  0
 17 32  1  0
M  CHG  2  19  -1  21  -1
M  END
>  <mol_id>  (89) 
2026-08-23-6tgu-s0-n100-r4-0089

>  <rmsd_to_ref>  (89) 
4.494897959188684

$$$$
6tgu.A
     RDKit          3D

 32 34  0  0  0  0  0  0  0  0999 V2000
    3.5202   22.3138   42.8771 C   0  0  0  0  0  0  0  0  0  0  0  0
    3.3719   21.1170   42.0464 C   0  0  0  0  0  0  0  0  0  0  0  0
    2.1603   20.5520   41.7518 C   0  0  0  0  0  0  0  0  0  0  0  0
    2.0371   19.4108   40.9631 C   0  0  0  0  0  0  0  0  0  0  0  0
    3.1538   18.8003   40.4428 C   0  0  0  0  0  0  0  0  0  0  0  0
    2.2151   16.5827   39.7325 C   0  0  0  0  0  0  0  0  0  0  0  0
    1.0506   14.6977   39.3789 C   0  0  0  0  0  0  0  0  0  0  0  0
    0.8712   13.4987   38.5292 C   0  0  0  0  0  0  0  0  0  0  0  0
    1.6538   13.2369   37.4361 C   0  0  0  0  0  0  0  0  0  0  0  0
    1.4526   12.1089   36.6695 C   0  0  0  0  0  0  0  0  0  0  0  0
    0.4596   11.1922   36.9621 C   0  0  0  0  0  0  0  0  0  0  0  0
   -0.3341   11.4432   38.0578 C   0  0  0  0  0  0  0  0  0  0  0  0
   -0.1233   12.5785   38.8205 C   0  0  0  0  0  0  0  0  0  0  0  0
    0.2532   14.9421   40.4527 C   0  0  0  0  0  0  0  0  0  0  0  0
    4.3791   19.3892   40.7524 C   0  0  0  0  0  0  0  0  0  0  0  0
    4.4983   20.5119   41.5288 C   0  0  0  0  0  0  0  0  0  0  0  0
    3.1702   17.6455   39.6613 N   0  0  0  0  0  0  0  0  0  0  0  0
    1.9699   15.6055   39.1603 N   0  0  0  0  0  0  0  0  0  0  0  0
    2.3798   22.9102   43.3814 O   0  0  0  0  0  0  0  0  0  0  0  0
    4.6910   22.7530   43.0986 O   0  0  0  0  0  0  0  0  0  0  0  0
    5.7737   21.0337   41.7883 O   0  0  0  0  0  0  0  0  0  0  0  0
    0.9462   16.5691   41.0959 S   0  0  0  0  0  0  0  0  0  0  0  0
    0.2108    9.7676   35.9835 Cl  0  0  0  0  0  0  0  0  0  0  0  0
    1.2610   20.9771   42.1221 H   0  0  0  0  0  0  0  0  0  0  0  0
    1.0533   19.0214   40.7583 H   0  0  0  0  0  0  0  0  0  0  0  0
    2.4319   13.9533   37.2069 H   0  0  0  0  0  0  0  0  0  0  0  0
    2.0664   11.8983   35.8073 H   0  0  0  0  0  0  0  0  0  0  0  0
   -1.1295   10.7572   38.3348 H   0  0  0  0  0  0  0  0  0  0  0  0
   -0.7530   12.7501   39.6685 H   0  0  0  0  0  0  0  0  0  0  0  0
   -0.5629   14.4707   40.9342 H   0  0  0  0  0  0  0  0  0  0  0  0
    5.2987   18.9488   40.3679 H   0  0  0  0  0  0  0  0  0  0  0  0
    3.9268   17.5191   38.9616 H   0  0  0  0  0  0  0  0  0  0  0  0
  1  2  1  0
  1 19  1  0
  1 20  2  0
  2  3  1  0
  2 16  2  0
  3  4  2  0
  4  5  1  0
  5 15  2  0
  5 17  1  0
  6 17  1  0
  6 18  2  0
  6 22  1  0
  7  8  1  0
  7 14  2  0
  7 18  1  0
  8  9  1  0
  8 13  2  0
  9 10  2  0
 10 11  1  0
 11 12  2  0
 11 23  1  0
 12 13  1  0
 14 22  1  0
 15 16  1  0
 16 21  1  0
  3 24  1  0
  4 25  1  0
  9 26  1  0
 10 27  1  0
 12 28  1  0
 13 29  1  0
 14 30  1  0
 15 31  1  0
 17 32  1  0
M  CHG  2  19  -1  21  -1
M  END
>  <mol_id>  (90) 
2026-08-23-6tgu-s0-n100-r4-0090

>  <rmsd_to_ref>  (90) 
4.540816326532038

$$$$
6tgu.A
     RDKit          3D

 32 34  0  0  0  0  0  0  0  0999 V2000
    5.9231   16.4710   35.6283 C   0  0  0  0  0  0  0  0  0  0  0  0
    5.5687   16.6638   37.1055 C   0  0  0  0  0  0  0  0  0  0  0  0
    6.4381   17.3394   37.9590 C   0  0  0  0  0  0  0  0  0  0  0  0
    6.0699   17.7005   39.2592 C   0  0  0  0  0  0  0  0  0  0  0  0
    4.8652   17.2340   39.8051 C   0  0  0  0  0  0  0  0  0  0  0  0
    3.1998   17.7317   41.6603 C   0  0  0  0  0  0  0  0  0  0  0  0
    0.9465   17.4648   41.8254 C   0  0  0  0  0  0  0  0  0  0  0  0
   -0.3668   16.9766   41.4036 C   0  0  0  0  0  0  0  0  0  0  0  0
   -1.5446   17.3395   42.0723 C   0  0  0  0  0  0  0  0  0  0  0  0
   -2.7865   16.8907   41.6338 C   0  0  0  0  0  0  0  0  0  0  0  0
   -2.8455   16.1113   40.4939 C   0  0  0  0  0  0  0  0  0  0  0  0
   -1.7064   15.7337   39.7989 C   0  0  0  0  0  0  0  0  0  0  0  0
   -0.4722   16.1834   40.2600 C   0  0  0  0  0  0  0  0  0  0  0  0
    1.1478   18.2895   42.9005 C   0  0  0  0  0  0  0  0  0  0  0  0
    3.9740   16.5621   38.9563 C   0  0  0  0  0  0  0  0  0  0  0  0
    4.3416   16.2868   37.6379 C   0  0  0  0  0  0  0  0  0  0  0  0
    4.4449   17.6457   41.1070 N   0  0  0  0  0  0  0  0  0  0  0  0
    2.0912   17.1996   41.0370 N   0  0  0  0  0  0  0  0  0  0  0  0
    6.9422   17.0925   35.2060 O   0  0  0  0  0  0  0  0  0  0  0  0
    5.1359   15.7837   34.9416 O   0  0  0  0  0  0  0  0  0  0  0  0
    3.4222   15.7219   36.7863 O   0  0  0  0  0  0  0  0  0  0  0  0
    2.7880   18.8106   42.9793 S   0  0  0  0  0  0  0  0  0  0  0  0
   -4.3883   15.5790   39.9126 Cl  0  0  0  0  0  0  0  0  0  0  0  0
    7.4452   17.5969   37.5993 H   0  0  0  0  0  0  0  0  0  0  0  0
    6.7267   18.3516   39.8548 H   0  0  0  0  0  0  0  0  0  0  0  0
   -1.4858   17.9894   42.9578 H   0  0  0  0  0  0  0  0  0  0  0  0
   -3.7031   17.1511   42.1834 H   0  0  0  0  0  0  0  0  0  0  0  0
   -1.7763   15.0951   38.9060 H   0  0  0  0  0  0  0  0  0  0  0  0
    0.4401   15.9076   39.7108 H   0  0  0  0  0  0  0  0  0  0  0  0
    0.3663   18.5803   43.6179 H   0  0  0  0  0  0  0  0  0  0  0  0
    2.9865   16.2523   39.3288 H   0  0  0  0  0  0  0  0  0  0  0  0
    5.2118   17.9251   41.7352 H   0  0  0  0  0  0  0  0  0  0  0  0
  1  2  1  0
  1 19  1  0
  1 20  2  0
  2  3  1  0
  2 16  2  0
  3  4  2  0
  4  5  1  0
  5 15  2  0
  5 17  1  0
  6 17  1  0
  6 18  2  0
  6 22  1  0
  7  8  1  0
  7 14  2  0
  7 18  1  0
  8  9  1  0
  8 13  2  0
  9 10  2  0
 10 11  1  0
 11 12  2  0
 11 23  1  0
 12 13  1  0
 14 22  1  0
 15 16  1  0
 16 21  1  0
  3 24  1  0
  4 25  1  0
  9 26  1  0
 10 27  1  0
 12 28  1  0
 13 29  1  0
 14 30  1  0
 15 31  1  0
 17 32  1  0
M  CHG  2  19  -1  21  -1
M  END
>  <mol_id>  (91) 
2026-08-23-6tgu-s0-n100-r4-0091

>  <rmsd_to_ref>  (91) 
4.586734693883645

$$$$
6tgu.A
     RDKit          3D

 32 34  0  0  0  0  0  0  0  0999 V2000
   -2.0639   16.1299   37.1257 C   0  0  0  0  0  0  0  0  0  0  0  0
   -1.4609   16.3590   38.4365 C   0  0  0  0  0  0  0  0  0  0  0  0
   -2.1540   17.1124   39.3512 C   0  0  0  0  0  0  0  0  0  0  0  0
   -1.6123   17.3442   40.5905 C   0  0  0  0  0  0  0  0  0  0  0  0
   -0.3622   16.8375   40.9700 C   0  0  0  0  0  0  0  0  0  0  0  0
    1.4145   16.5877   42.6296 C   0  0  0  0  0  0  0  0  0  0  0  0
    3.4467   15.5883   42.8281 C   0  0  0  0  0  0  0  0  0  0  0  0
    4.5064   14.7800   42.2478 C   0  0  0  0  0  0  0  0  0  0  0  0
    5.6493   14.4661   42.9503 C   0  0  0  0  0  0  0  0  0  0  0  0
    6.6666   13.6995   42.4157 C   0  0  0  0  0  0  0  0  0  0  0  0
    6.5630   13.2142   41.1286 C   0  0  0  0  0  0  0  0  0  0  0  0
    5.4294   13.5137   40.4036 C   0  0  0  0  0  0  0  0  0  0  0  0
    4.4141   14.2894   40.9625 C   0  0  0  0  0  0  0  0  0  0  0  0
    3.5768   16.0876   44.1824 C   0  0  0  0  0  0  0  0  0  0  0  0
    0.2858   16.0897   40.0115 C   0  0  0  0  0  0  0  0  0  0  0  0
   -0.2371   15.8416   38.7570 C   0  0  0  0  0  0  0  0  0  0  0  0
    0.1640   17.0969   42.2556 N   0  0  0  0  0  0  0  0  0  0  0  0
    2.3440   15.9437   42.2752 N   0  0  0  0  0  0  0  0  0  0  0  0
   -1.3932   15.3695   36.1658 O   0  0  0  0  0  0  0  0  0  0  0  0
   -3.1983   16.6010   36.8086 O   0  0  0  0  0  0  0  0  0  0  0  0
    0.4476   15.0871   37.8291 O   0  0  0  0  0  0  0  0  0  0  0  0
    1.9808   17.0254   44.3909 S   0  0  0  0  0  0  0  0  0  0  0  0
    7.8723   12.2475   40.4880 Cl  0  0  0  0  0  0  0  0  0  0  0  0
   -3.1344   17.5383   39.1216 H   0  0  0  0  0  0  0  0  0  0  0  0
   -2.1767   17.9402   41.2937 H   0  0  0  0  0  0  0  0  0  0  0  0
    5.7755   14.8287   43.9739 H   0  0  0  0  0  0  0  0  0  0  0  0
    7.5344   13.4952   43.0301 H   0  0  0  0  0  0  0  0  0  0  0  0
    5.3274   13.1445   39.3950 H   0  0  0  0  0  0  0  0  0  0  0  0
    3.5084   14.5313   40.3895 H   0  0  0  0  0  0  0  0  0  0  0  0
    4.3117   15.9886   44.8793 H   0  0  0  0  0  0  0  0  0  0  0  0
    1.2552   15.6586   40.2149 H   0  0  0  0  0  0  0  0  0  0  0  0
   -0.4382   17.6857   42.8935 H   0  0  0  0  0  0  0  0  0  0  0  0
  1  2  1  0
  1 19  1  0
  1 20  2  0
  2  3  1  0
  2 16  2  0
  3  4  2  0
  4  5  1  0
  5 15  2  0
  5 17  1  0
  6 17  1  0
  6 18  2  0
  6 22  1  0
  7  8  1  0
  7 14  2  0
  7 18  1  0
  8  9  1  0
  8 13  2  0
  9 10  2  0
 10 11  1  0
 11 12  2  0
 11 23  1  0
 12 13  1  0
 14 22  1  0
 15 16  1  0
 16 21  1  0
  3 24  1  0
  4 25  1  0
  9 26  1  0
 10 27  1  0
 12 28  1  0
 13 29  1  0
 14 30  1  0
 15 31  1  0
 17 32  1  0
M  CHG  2  19  -1  21  -1
M  END
>  <mol_id>  (92) 
2026-08-23-6tgu-s0-n100-r4-0092

>  <rmsd_to_ref>  (92) 
4.632653061232715

$$$$
6tgu.A
     RDKit          3D

 32 34  0  0  0  0  0  0  0  0999 V2000
    3.2443   22.4624   41.6632 C   0  0  0  0  0  0  0  0  0  0  0  0
    2.8841   21.0188   42.0250 C   0  0  0  0  0  0  0  0  0  0  0  0
    2.8661   20.6066   43.3555 C   0  0  0  0  0  0  0  0  0  0  0  0
    2.3621   19.3595   43.7392 C   0  0  0  0  0  0  0  0  0  0  0  0
    2.0178   18.4097   42.7665 C   0  0  0  0  0  0  0  0  0  0  0  0
    0.6308   16.3028   42.4496 C   0  0  0  0  0  0  0  0  0  0  0  0
   -0.5021   15.4529   40.6692 C   0  0  0  0  0  0  0  0  0  0  0  0
   -0.8980   15.3736   39.2628 C   0  0  0  0  0  0  0  0  0  0  0  0
   -1.8904   14.4882   38.8187 C   0  0  0  0  0  0  0  0  0  0  0  0
   -2.2753   14.4530   37.4820 C   0  0  0  0  0  0  0  0  0  0  0  0
   -1.6906   15.3420   36.5999 C   0  0  0  0  0  0  0  0  0  0  0  0
   -0.7098   16.2381   36.9974 C   0  0  0  0  0  0  0  0  0  0  0  0
   -0.3302   16.2501   38.3368 C   0  0  0  0  0  0  0  0  0  0  0  0
   -1.0381   14.6743   41.6606 C   0  0  0  0  0  0  0  0  0  0  0  0
    2.0198   18.8120   41.4233 C   0  0  0  0  0  0  0  0  0  0  0  0
    2.4547   20.0937   41.0810 C   0  0  0  0  0  0  0  0  0  0  0  0
    1.4420   17.1566   43.1400 N   0  0  0  0  0  0  0  0  0  0  0  0
    0.3916   16.4613   41.1011 N   0  0  0  0  0  0  0  0  0  0  0  0
    3.3539   23.2759   42.6272 O   0  0  0  0  0  0  0  0  0  0  0  0
    3.3215   22.7395   40.4462 O   0  0  0  0  0  0  0  0  0  0  0  0
    2.3540   20.5128   39.7756 O   0  0  0  0  0  0  0  0  0  0  0  0
   -0.4746   15.1743   43.2099 S   0  0  0  0  0  0  0  0  0  0  0  0
   -2.1892   15.3377   34.9407 Cl  0  0  0  0  0  0  0  0  0  0  0  0
    3.2605   21.2827   44.1284 H   0  0  0  0  0  0  0  0  0  0  0  0
    2.2355   19.1232   44.8060 H   0  0  0  0  0  0  0  0  0  0  0  0
   -2.3724   13.8104   39.5386 H   0  0  0  0  0  0  0  0  0  0  0  0
   -3.0298   13.7320   37.1343 H   0  0  0  0  0  0  0  0  0  0  0  0
   -0.2435   16.9219   36.2729 H   0  0  0  0  0  0  0  0  0  0  0  0
    0.4342   16.9663   38.6727 H   0  0  0  0  0  0  0  0  0  0  0  0
   -1.7355   13.8409   41.4902 H   0  0  0  0  0  0  0  0  0  0  0  0
    1.6791   18.1186   40.6402 H   0  0  0  0  0  0  0  0  0  0  0  0
    1.6794   16.8443   44.0924 H   0  0  0  0  0  0  0  0  0  0  0  0
  1  2  1  0
  1 19  1  0
  1 20  2  0
  2  3  1  0
  2 16  2  0
  3  4  2  0
  4  5  1  0
  5 15  2  0
  5 17  1  0
  6 17  1  0
  6 18  2  0
  6 22  1  0
  7  8  1  0
  7 14  2  0
  7 18  1  0
  8  9  1  0
  8 13  2  0
  9 10  2  0
 10 11  1  0
 11 12  2  0
 11 23  1  0
 12 13  1  0
 14 22  1  0
 15 16  1  0
 16 21  1  0
  3 24  1  0
  4 25  1  0
  9 26  1  0
 10 27  1  0
 12 28  1  0
 13 29  1  0
 14 30  1  0
 15 31  1  0
 17 32  1  0
M  CHG  2  19  -1  21  -1
M  END
>  <mol_id>  (93) 
2026-08-23-6tgu-s0-n100-r4-0093

>  <rmsd_to_ref>  (93) 
4.678571428577785

$$$$
6tgu.A
     RDKit          3D

 32 34  0  0  0  0  0  0  0  0999 V2000
   -1.1364   19.7261   42.1515 C   0  0  0  0  0  0  0  0  0  0  0  0
    0.0391   18.9453   42.5103 C   0  0  0  0  0  0  0  0  0  0  0  0
    0.9540   19.4454   43.4086 C   0  0  0  0  0  0  0  0  0  0  0  0
    2.0610   18.7014   43.7415 C   0  0  0  0  0  0  0  0  0  0  0  0
    2.3048   17.4343   43.1984 C   0  0  0  0  0  0  0  0  0  0  0  0
    3.6995   15.4305   43.0210 C   0  0  0  0  0  0  0  0  0  0  0  0
    3.7569   13.4462   41.9489 C   0  0  0  0  0  0  0  0  0  0  0  0
    3.1291   12.5244   41.0080 C   0  0  0  0  0  0  0  0  0  0  0  0
    3.7118   11.3020   40.7180 C   0  0  0  0  0  0  0  0  0  0  0  0
    3.1267   10.4257   39.8314 C   0  0  0  0  0  0  0  0  0  0  0  0
    1.9387   10.7211   39.1926 C   0  0  0  0  0  0  0  0  0  0  0  0
    1.3470   11.9326   39.4704 C   0  0  0  0  0  0  0  0  0  0  0  0
    1.9422   12.8004   40.3591 C   0  0  0  0  0  0  0  0  0  0  0  0
    4.9781   13.1340   42.6007 C   0  0  0  0  0  0  0  0  0  0  0  0
    1.3633   16.9724   42.3036 C   0  0  0  0  0  0  0  0  0  0  0  0
    0.2367   17.7031   41.9499 C   0  0  0  0  0  0  0  0  0  0  0  0
    3.4484   16.7170   43.5712 N   0  0  0  0  0  0  0  0  0  0  0  0
    3.2981   14.6237   42.2976 N   0  0  0  0  0  0  0  0  0  0  0  0
   -2.0615   19.2252   41.2460 O   0  0  0  0  0  0  0  0  0  0  0  0
   -1.3129   20.8784   42.6759 O   0  0  0  0  0  0  0  0  0  0  0  0
   -0.6931   17.2198   41.0509 O   0  0  0  0  0  0  0  0  0  0  0  0
    5.2894   14.5798   43.6207 S   0  0  0  0  0  0  0  0  0  0  0  0
    1.1880    9.6136   38.0645 Cl  0  0  0  0  0  0  0  0  0  0  0  0
    0.7811   20.4309   43.8423 H   0  0  0  0  0  0  0  0  0  0  0  0
    2.7797   19.1110   44.4565 H   0  0  0  0  0  0  0  0  0  0  0  0
    4.6406   11.0048   41.1802 H   0  0  0  0  0  0  0  0  0  0  0  0
    3.5924    9.4761   39.6149 H   0  0  0  0  0  0  0  0  0  0  0  0
    0.4016   12.2124   38.9872 H   0  0  0  0  0  0  0  0  0  0  0  0
    1.4793   13.7564   40.5810 H   0  0  0  0  0  0  0  0  0  0  0  0
    5.5819   12.2558   42.5176 H   0  0  0  0  0  0  0  0  0  0  0  0
    1.4700   16.0152   41.8409 H   0  0  0  0  0  0  0  0  0  0  0  0
    4.0998   17.1785   44.2705 H   0  0  0  0  0  0  0  0  0  0  0  0
  1  2  1  0
  1 19  1  0
  1 20  2  0
  2  3  1  0
  2 16  2  0
  3  4  2  0
  4  5  1  0
  5 15  2  0
  5 17  1  0
  6 17  1  0
  6 18  2  0
  6 22  1  0
  7  8  1  0
  7 14  2  0
  7 18  1  0
  8  9  1  0
  8 13  2  0
  9 10  2  0
 10 11  1  0
 11 12  2  0
 11 23  1  0
 12 13  1  0
 14 22  1  0
 15 16  1  0
 16 21  1  0
  3 24  1  0
  4 25  1  0
  9 26  1  0
 10 27  1  0
 12 28  1  0
 13 29  1  0
 14 30  1  0
 15 31  1  0
 17 32  1  0
M  CHG  2  19  -1  21  -1
M  END
>  <mol_id>  (94) 
2026-08-23-6tgu-s0-n100-r4-0094

>  <rmsd_to_ref>  (94) 
4.724489795921215

$$$$
6tgu.A
     RDKit          3D

 32 34  0  0  0  0  0  0  0  0999 V2000
    5.9071   16.9514   39.5462 C   0  0  0  0  0  0  0  0  0  0  0  0
    5.1161   16.8900   40.8559 C   0  0  0  0  0  0  0  0  0  0  0  0
    5.6793   17.3490   42.0445 C   0  0  0  0  0  0  0  0  0  0  0  0
    4.9289   17.4858   43.2169 C   0  0  0  0  0  0  0  0  0  0  0  0
    3.6165   16.9947   43.2742 C   0  0  0  0  0  0  0  0  0  0  0  0
    1.4606   17.2358   44.5997 C   0  0  0  0  0  0  0  0  0  0  0  0
   -0.7338   17.0680   44.0231 C   0  0  0  0  0  0  0  0  0  0  0  0
   -1.8527   16.7385   43.1396 C   0  0  0  0  0  0  0  0  0  0  0  0
   -3.1801   17.0374   43.4782 C   0  0  0  0  0  0  0  0  0  0  0  0
   -4.2261   16.7457   42.6082 C   0  0  0  0  0  0  0  0  0  0  0  0
   -3.9298   16.1924   41.3768 C   0  0  0  0  0  0  0  0  0  0  0  0
   -2.6311   15.8860   40.9991 C   0  0  0  0  0  0  0  0  0  0  0  0
   -1.5994   16.1750   41.8880 C   0  0  0  0  0  0  0  0  0  0  0  0
   -0.8749   17.6697   45.2456 C   0  0  0  0  0  0  0  0  0  0  0  0
    3.0310   16.5396   42.0841 C   0  0  0  0  0  0  0  0  0  0  0  0
    3.7862   16.4903   40.9110 C   0  0  0  0  0  0  0  0  0  0  0  0
    2.8156   17.1838   44.4421 N   0  0  0  0  0  0  0  0  0  0  0  0
    0.5984   16.8887   43.5813 N   0  0  0  0  0  0  0  0  0  0  0  0
    7.0044   17.5823   39.5780 O   0  0  0  0  0  0  0  0  0  0  0  0
    5.3709   16.4459   38.5359 O   0  0  0  0  0  0  0  0  0  0  0  0
    3.1743   16.1424   39.7302 O   0  0  0  0  0  0  0  0  0  0  0  0
    0.6602   18.0762   45.9136 S   0  0  0  0  0  0  0  0  0  0  0  0
   -5.2181   15.8615   40.2667 Cl  0  0  0  0  0  0  0  0  0  0  0  0
    6.7473   17.6119   42.0615 H   0  0  0  0  0  0  0  0  0  0  0  0
    5.3690   17.9797   44.0957 H   0  0  0  0  0  0  0  0  0  0  0  0
   -3.3981   17.5101   44.4472 H   0  0  0  0  0  0  0  0  0  0  0  0
   -5.2680   16.9514   42.8948 H   0  0  0  0  0  0  0  0  0  0  0  0
   -2.4215   15.4264   40.0220 H   0  0  0  0  0  0  0  0  0  0  0  0
   -0.5616   15.9543   41.5976 H   0  0  0  0  0  0  0  0  0  0  0  0
   -1.8398   17.8671   45.7355 H   0  0  0  0  0  0  0  0  0  0  0  0
    1.9779   16.2219   42.0749 H   0  0  0  0  0  0  0  0  0  0  0  0
    3.3520   17.3008   45.3136 H   0  0  0  0  0  0  0  0  0  0  0  0
  1  2  1  0
  1 19  1  0
  1 20  2  0
  2  3  1  0
  2 16  2  0
  3  4  2  0
  4  5  1  0
  5 15  2  0
  5 17  1  0
  6 17  1  0
  6 18  2  0
  6 22  1  0
  7  8  1  0
  7 14  2  0
  7 18  1  0
  8  9  1  0
  8 13  2  0
  9 10  2  0
 10 11  1  0
 11 12  2  0
 11 23  1  0
 12 13  1  0
 14 22  1  0
 15 16  1  0
 16 21  1  0
  3 24  1  0
  4 25  1  0
  9 26  1  0
 10 27  1  0
 12 28  1  0
 13 29  1  0
 14 30  1  0
 15 31  1  0
 17 32  1  0
M  CHG  2  19  -1  21  -1
M  END
>  <mol_id>  (95) 
2026-08-23-6tgu-s0-n100-r4-0095

>  <rmsd_to_ref>  (95) 
4.770408163270323

$$$$
6tgu.A
     RDKit          3D

 32 34  0  0  0  0  0  0  0  0999 V2000
   -1.2641   21.5520   41.0474 C   0  0  0  0  0  0  0  0  0  0  0  0
   -0.5970   20.2583   41.0957 C   0  0  0  0  0  0  0  0  0  0  0  0
   -0.5731   19.5234   42.2599 C   0  0  0  0  0  0  0  0  0  0  0  0
    0.0450   18.3112   42.3315 C   0  0  0  0  0  0  0  0  0  0  0  0
    0.6986   17.7281   41.2280 C   0  0  0  0  0  0  0  0  0  0  0  0
    2.4057   15.9568   40.6611 C   0  0  0  0  0  0  0  0  0  0  0  0
    4.0348   14.6425   39.8641 C   0  0  0  0  0  0  0  0  0  0  0  0
    4.6998   13.3264   39.8833 C   0  0  0  0  0  0  0  0  0  0  0  0
    4.2692   12.2951   40.7025 C   0  0  0  0  0  0  0  0  0  0  0  0
    4.8974   11.0602   40.7168 C   0  0  0  0  0  0  0  0  0  0  0  0
    5.9959   10.8395   39.8861 C   0  0  0  0  0  0  0  0  0  0  0  0
    6.4351   11.8727   39.0587 C   0  0  0  0  0  0  0  0  0  0  0  0
    5.7803   13.0696   39.0837 C   0  0  0  0  0  0  0  0  0  0  0  0
    4.4671   15.6588   39.0498 C   0  0  0  0  0  0  0  0  0  0  0  0
    0.6616   18.4787   40.0771 C   0  0  0  0  0  0  0  0  0  0  0  0
    0.0360   19.7134   39.9927 C   0  0  0  0  0  0  0  0  0  0  0  0
    1.2729   16.4916   41.4159 N   0  0  0  0  0  0  0  0  0  0  0  0
    2.9928   14.9681   40.6013 N   0  0  0  0  0  0  0  0  0  0  0  0
   -1.2519   22.2492   39.8362 O   0  0  0  0  0  0  0  0  0  0  0  0
   -1.8402   22.0340   42.0737 O   0  0  0  0  0  0  0  0  0  0  0  0
    0.0266   20.4395   38.7975 O   0  0  0  0  0  0  0  0  0  0  0  0
    3.2931   17.0335   39.4354 S   0  0  0  0  0  0  0  0  0  0  0  0
    6.8224    9.2853   39.8736 Cl  0  0  0  0  0  0  0  0  0  0  0  0
   -1.0610   19.9209   43.1457 H   0  0  0  0  0  0  0  0  0  0  0  0
    0.0270   17.7843   43.2770 H   0  0  0  0  0  0  0  0  0  0  0  0
    3.4201   12.4534   41.3503 H   0  0  0  0  0  0  0  0  0  0  0  0
    4.5303   10.2665   41.3772 H   0  0  0  0  0  0  0  0  0  0  0  0
    7.2808   11.7209   38.4105 H   0  0  0  0  0  0  0  0  0  0  0  0
    6.1454   13.8513   38.4304 H   0  0  0  0  0  0  0  0  0  0  0  0
    5.2729   15.7623   38.3223 H   0  0  0  0  0  0  0  0  0  0  0  0
    1.1184   18.1179   39.1745 H   0  0  0  0  0  0  0  0  0  0  0  0
    0.9167   15.8433   42.1353 H   0  0  0  0  0  0  0  0  0  0  0  0
  1  2  1  0
  1 19  1  0
  1 20  2  0
  2  3  1  0
  2 16  2  0
  3  4  2  0
  4  5  1  0
  5 15  2  0
  5 17  1  0
  6 17  1  0
  6 18  2  0
  6 22  1  0
  7  8  1  0
  7 14  2  0
  7 18  1  0
  8  9  1  0
  8 13  2  0
  9 10  2  0
 10 11  1  0
 11 12  2  0
 11 23  1  0
 12 13  1  0
 14 22  1  0
 15 16  1  0
 16 21  1  0
  3 24  1  0
  4 25  1  0
  9 26  1  0
 10 27  1  0
 12 28  1  0
 13 29  1  0
 14 30  1  0
 15 31  1  0
 17 32  1  0
M  CHG  2  19  -1  21  -1
M  END
>  <mol_id>  (96) 
2026-08-23-6tgu-s0-n100-r4-0096

>  <rmsd_to_ref>  (96) 
4.816326530615955

$$$$
6tgu.A
     RDKit          3D

 32 34  0  0  0  0  0  0  0  0999 V2000
    4.6601   12.9390   37.2944 C   0  0  0  0  0  0  0  0  0  0  0  0
    4.0268   14.2295   37.8219 C   0  0  0  0  0  0  0  0  0  0  0  0
    3.6890   15.2602   36.9477 C   0  0  0  0  0  0  0  0  0  0  0  0
    2.9411   16.3678   37.3602 C   0  0  0  0  0  0  0  0  0  0  0  0
    2.6565   16.5582   38.7202 C   0  0  0  0  0  0  0  0  0  0  0  0
    1.0618   17.8009   40.2617 C   0  0  0  0  0  0  0  0  0  0  0  0
    0.1849   17.3048   42.3014 C   0  0  0  0  0  0  0  0  0  0  0  0
    0.0635   16.5421   43.5443 C   0  0  0  0  0  0  0  0  0  0  0  0
   -0.9431   16.8072   44.4838 C   0  0  0  0  0  0  0  0  0  0  0  0
   -1.0609   16.0475   45.6435 C   0  0  0  0  0  0  0  0  0  0  0  0
   -0.1906   14.9911   45.8356 C   0  0  0  0  0  0  0  0  0  0  0  0
    0.8154   14.6902   44.9298 C   0  0  0  0  0  0  0  0  0  0  0  0
    0.9242   15.4691   43.7810 C   0  0  0  0  0  0  0  0  0  0  0  0
   -0.6433   18.3390   41.9536 C   0  0  0  0  0  0  0  0  0  0  0  0
    2.9797   15.5254   39.6117 C   0  0  0  0  0  0  0  0  0  0  0  0
    3.6577   14.3950   39.1514 C   0  0  0  0  0  0  0  0  0  0  0  0
    1.8401   17.6489   39.1504 N   0  0  0  0  0  0  0  0  0  0  0  0
    1.1163   16.9097   41.3122 N   0  0  0  0  0  0  0  0  0  0  0  0
    4.6987   12.8018   36.0363 O   0  0  0  0  0  0  0  0  0  0  0  0
    5.0131   12.0923   38.1443 O   0  0  0  0  0  0  0  0  0  0  0  0
    3.8765   13.3446   40.0107 O   0  0  0  0  0  0  0  0  0  0  0  0
   -0.3251   18.8699   40.3460 S   0  0  0  0  0  0  0  0  0  0  0  0
   -0.3511   14.0109   47.2551 Cl  0  0  0  0  0  0  0  0  0  0  0  0
    4.0207   15.2011   35.9005 H   0  0  0  0  0  0  0  0  0  0  0  0
    2.5755   17.0911   36.6164 H   0  0  0  0  0  0  0  0  0  0  0  0
   -1.6510   17.6290   44.3010 H   0  0  0  0  0  0  0  0  0  0  0  0
   -1.8313   16.2830   46.3925 H   0  0  0  0  0  0  0  0  0  0  0  0
    1.5099   13.8574   45.1143 H   0  0  0  0  0  0  0  0  0  0  0  0
    1.7057   15.2337   43.0436 H   0  0  0  0  0  0  0  0  0  0  0  0
   -1.4095   18.7727   42.6131 H   0  0  0  0  0  0  0  0  0  0  0  0
    2.6996   15.6056   40.6724 H   0  0  0  0  0  0  0  0  0  0  0  0
    1.8383   18.4585   38.5136 H   0  0  0  0  0  0  0  0  0  0  0  0
  1  2  1  0
  1 19  1  0
  1 20  2  0
  2  3  1  0
  2 16  2  0
  3  4  2  0
  4  5  1  0
  5 15  2  0
  5 17  1  0
  6 17  1  0
  6 18  2  0
  6 22  1  0
  7  8  1  0
  7 14  2  0
  7 18  1  0
  8  9  1  0
  8 13  2  0
  9 10  2  0
 10 11  1  0
 11 12  2  0
 11 23  1  0
 12 13  1  0
 14 22  1  0
 15 16  1  0
 16 21  1  0
  3 24  1  0
  4 25  1  0
  9 26  1  0
 10 27  1  0
 12 28  1  0
 13 29  1  0
 14 30  1  0
 15 31  1  0
 17 32  1  0
M  CHG  2  19  -1  21  -1
M  END
>  <mol_id>  (97) 
2026-08-23-6tgu-s0-n100-r4-0097

>  <rmsd_to_ref>  (97) 
4.862244897965432

$$$$
6tgu.A
     RDKit          3D

 32 34  0  0  0  0  0  0  0  0999 V2000
   -0.3922   21.0239   41.4602 C   0  0  0  0  0  0  0  0  0  0  0  0
   -0.1197   19.6222   41.7008 C   0  0  0  0  0  0  0  0  0  0  0  0
   -1.1561   18.7240   41.5034 C   0  0  0  0  0  0  0  0  0  0  0  0
   -0.8826   17.4022   41.7241 C   0  0  0  0  0  0  0  0  0  0  0  0
    0.3704   16.9362   42.1305 C   0  0  0  0  0  0  0  0  0  0  0  0
    1.7289   14.8370   42.3825 C   0  0  0  0  0  0  0  0  0  0  0  0
    3.6931   13.8330   41.9595 C   0  0  0  0  0  0  0  0  0  0  0  0
    4.7508   13.5772   40.9473 C   0  0  0  0  0  0  0  0  0  0  0  0
    4.6539   14.1059   39.6667 C   0  0  0  0  0  0  0  0  0  0  0  0
    5.6380   13.8678   38.7128 C   0  0  0  0  0  0  0  0  0  0  0  0
    6.7398   13.0859   39.0415 C   0  0  0  0  0  0  0  0  0  0  0  0
    6.8560   12.5426   40.3242 C   0  0  0  0  0  0  0  0  0  0  0  0
    5.8447   12.8053   41.2596 C   0  0  0  0  0  0  0  0  0  0  0  0
    3.7429   13.3720   43.2278 C   0  0  0  0  0  0  0  0  0  0  0  0
    1.3881   17.8435   42.3227 C   0  0  0  0  0  0  0  0  0  0  0  0
    1.1259   19.1894   42.1025 C   0  0  0  0  0  0  0  0  0  0  0  0
    0.4981   15.5386   42.2981 N   0  0  0  0  0  0  0  0  0  0  0  0
    2.6251   14.5464   41.6979 N   0  0  0  0  0  0  0  0  0  0  0  0
    0.6225   21.9538   41.6418 O   0  0  0  0  0  0  0  0  0  0  0  0
   -1.5185   21.4422   41.0895 O   0  0  0  0  0  0  0  0  0  0  0  0
    2.1142   20.1266   42.2826 O   0  0  0  0  0  0  0  0  0  0  0  0
    2.2427   13.9917   43.9911 S   0  0  0  0  0  0  0  0  0  0  0  0
    7.9922   12.7818   37.8414 Cl  0  0  0  0  0  0  0  0  0  0  0  0
   -2.1530   19.0453   41.1831 H   0  0  0  0  0  0  0  0  0  0  0  0
   -1.7016   16.6771   41.5702 H   0  0  0  0  0  0  0  0  0  0  0  0
    3.7994   14.7105   39.4248 H   0  0  0  0  0  0  0  0  0  0  0  0
    5.5081   14.3079   37.7321 H   0  0  0  0  0  0  0  0  0  0  0  0
    7.6999   11.9312   40.6050 H   0  0  0  0  0  0  0  0  0  0  0  0
    5.9802   12.3578   42.2384 H   0  0  0  0  0  0  0  0  0  0  0  0
    4.5002   12.7475   43.7580 H   0  0  0  0  0  0  0  0  0  0  0  0
    2.3604   17.4934   42.6385 H   0  0  0  0  0  0  0  0  0  0  0  0
   -0.3698   14.9263   42.3759 H   0  0  0  0  0  0  0  0  0  0  0  0
  1  2  1  0
  1 19  1  0
  1 20  2  0
  2  3  1  0
  2 16  2  0
  3  4  2  0
  4  5  1  0
  5 15  2  0
  5 17  1  0
  6 17  1  0
  6 18  2  0
  6 22  1  0
  7  8  1  0
  7 14  2  0
  7 18  1  0
  8  9  1  0
  8 13  2  0
  9 10  2  0
 10 11  1  0
 11 12  2  0
 11 23  1  0
 12 13  1  0
 14 22  1  0
 15 16  1  0
 16 21  1  0
  3 24  1  0
  4 25  1  0
  9 26  1  0
 10 27  1  0
 12 28  1  0
 13 29  1  0
 14 30  1  0
 15 31  1  0
 17 32  1  0
M  CHG  2  19  -1  21  -1
M  END
>  <mol_id>  (98) 
2026-08-23-6tgu-s0-n100-r4-0098

>  <rmsd_to_ref>  (98) 
4.908163265308932

$$$$
6tgu.A
     RDKit          3D

 32 34  0  0  0  0  0  0  0  0999 V2000
    0.6656   22.4290   41.2150 C   0  0  0  0  0  0  0  0  0  0  0  0
    0.2015   21.2536   40.3503 C   0  0  0  0  0  0  0  0  0  0  0  0
   -0.7293   21.4487   39.3323 C   0  0  0  0  0  0  0  0  0  0  0  0
   -1.0344   20.4478   38.4041 C   0  0  0  0  0  0  0  0  0  0  0  0
   -0.5354   19.1490   38.5796 C   0  0  0  0  0  0  0  0  0  0  0  0
   -0.0863   17.0021   37.2940 C   0  0  0  0  0  0  0  0  0  0  0  0
    1.4996   15.3837   37.4967 C   0  0  0  0  0  0  0  0  0  0  0  0
    2.6013   14.6796   38.1537 C   0  0  0  0  0  0  0  0  0  0  0  0
    3.2711   13.6110   37.5409 C   0  0  0  0  0  0  0  0  0  0  0  0
    4.3383   12.9772   38.1697 C   0  0  0  0  0  0  0  0  0  0  0  0
    4.7595   13.4495   39.3984 C   0  0  0  0  0  0  0  0  0  0  0  0
    4.1297   14.5069   40.0375 C   0  0  0  0  0  0  0  0  0  0  0  0
    3.0566   15.1205   39.3973 C   0  0  0  0  0  0  0  0  0  0  0  0
    1.0166   15.0615   36.2561 C   0  0  0  0  0  0  0  0  0  0  0  0
    0.4110   18.9382   39.5925 C   0  0  0  0  0  0  0  0  0  0  0  0
    0.7531   19.9822   40.4539 C   0  0  0  0  0  0  0  0  0  0  0  0
   -0.7849   18.1325   37.6071 N   0  0  0  0  0  0  0  0  0  0  0  0
    0.9512   16.5497   38.0813 N   0  0  0  0  0  0  0  0  0  0  0  0
    0.2927   23.5821   40.8482 O   0  0  0  0  0  0  0  0  0  0  0  0
    1.4383   22.1655   42.1622 O   0  0  0  0  0  0  0  0  0  0  0  0
    1.7565   19.7944   41.3747 O   0  0  0  0  0  0  0  0  0  0  0  0
   -0.1439   16.2193   35.7265 S   0  0  0  0  0  0  0  0  0  0  0  0
    6.1130   12.6966   40.1748 Cl  0  0  0  0  0  0  0  0  0  0  0  0
   -1.2402   22.4199   39.2562 H   0  0  0  0  0  0  0  0  0  0  0  0
   -1.6671   20.6799   37.5347 H   0  0  0  0  0  0  0  0  0  0  0  0
    2.9476   13.2682   36.5470 H   0  0  0  0  0  0  0  0  0  0  0  0
    4.8368   12.1174   37.6982 H   0  0  0  0  0  0  0  0  0  0  0  0
    4.4695   14.8519   41.0252 H   0  0  0  0  0  0  0  0  0  0  0  0
    2.5563   15.9717   39.8823 H   0  0  0  0  0  0  0  0  0  0  0  0
    1.3281   14.1808   35.6753 H   0  0  0  0  0  0  0  0  0  0  0  0
    0.8834   17.9516   39.7082 H   0  0  0  0  0  0  0  0  0  0  0  0
   -1.6370   18.2771   37.0469 H   0  0  0  0  0  0  0  0  0  0  0  0
  1  2  1  0
  1 19  1  0
  1 20  2  0
  2  3  1  0
  2 16  2  0
  3  4  2  0
  4  5  1  0
  5 15  2  0
  5 17  1  0
  6 17  1  0
  6 18  2  0
  6 22  1  0
  7  8  1  0
  7 14  2  0
  7 18  1  0
  8  9  1  0
  8 13  2  0
  9 10  2  0
 10 11  1  0
 11 12  2  0
 11 23  1  0
 12 13  1  0
 14 22  1  0
 15 16  1  0
 16 21  1  0
  3 24  1  0
  4 25  1  0
  9 26  1  0
 10 27  1  0
 12 28  1  0
 13 29  1  0
 14 30  1  0
 15 31  1  0
 17 32  1  0
M  CHG  2  19  -1  21  -1
M  END
>  <mol_id>  (99) 
2026-08-23-6tgu-s0-n100-r4-0099

>  <rmsd_to_ref>  (99) 
4.954081632655062

$$$$
6tgu.A
     RDKit          3D

 32 34  0  0  0  0  0  0  0  0999 V2000
   -2.2632   21.8976   38.5918 C   0  0  0  0  0  0  0  0  0  0  0  0
   -1.3938   20.8206   38.1405 C   0  0  0  0  0  0  0  0  0  0  0  0
   -0.2885   21.0969   37.3717 C   0  0  0  0  0  0  0  0  0  0  0  0
    0.5405   20.0870   36.9325 C   0  0  0  0  0  0  0  0  0  0  0  0
    0.3063   18.7454   37.2401 C   0  0  0  0  0  0  0  0  0  0  0  0
    0.9193   16.3711   36.9110 C   0  0  0  0  0  0  0  0  0  0  0  0
    0.8307   14.1940   37.6292 C   0  0  0  0  0  0  0  0  0  0  0  0
    1.2094   13.1121   38.5779 C   0  0  0  0  0  0  0  0  0  0  0  0
    2.0303   13.3544   39.6548 C   0  0  0  0  0  0  0  0  0  0  0  0
    2.3846   12.3161   40.5272 C   0  0  0  0  0  0  0  0  0  0  0  0
    1.9076   11.0418   40.3054 C   0  0  0  0  0  0  0  0  0  0  0  0
    1.0779   10.7964   39.2183 C   0  0  0  0  0  0  0  0  0  0  0  0
    0.7555   11.8295   38.3927 C   0  0  0  0  0  0  0  0  0  0  0  0
    0.0085   13.9076   36.5514 C   0  0  0  0  0  0  0  0  0  0  0  0
   -0.8029   18.4682   38.0128 C   0  0  0  0  0  0  0  0  0  0  0  0
   -1.6332   19.4944   38.4510 C   0  0  0  0  0  0  0  0  0  0  0  0
    1.1770   17.7270   36.7640 N   0  0  0  0  0  0  0  0  0  0  0  0
    1.2472   15.4137   37.7581 N   0  0  0  0  0  0  0  0  0  0  0  0
   -1.9557   23.2116   38.2377 O   0  0  0  0  0  0  0  0  0  0  0  0
   -3.2904   21.7148   39.2908 O   0  0  0  0  0  0  0  0  0  0  0  0
   -2.7575   19.2120   39.2347 O   0  0  0  0  0  0  0  0  0  0  0  0
   -0.1306   15.5473   35.7121 S   0  0  0  0  0  0  0  0  0  0  0  0
    2.2906    9.6775   41.3276 Cl  0  0  0  0  0  0  0  0  0  0  0  0
   -0.0453   22.0959   37.0954 H   0  0  0  0  0  0  0  0  0  0  0  0
    1.4079   20.3340   36.3249 H   0  0  0  0  0  0  0  0  0  0  0  0
    2.4161   14.3452   39.8479 H   0  0  0  0  0  0  0  0  0  0  0  0
    3.0177   12.4625   41.3728 H   0  0  0  0  0  0  0  0  0  0  0  0
    0.6832    9.8099   39.0107 H   0  0  0  0  0  0  0  0  0  0  0  0
    0.0947   11.5909   37.5446 H   0  0  0  0  0  0  0  0  0  0  0  0
   -0.4847   13.0037   36.1924 H   0  0  0  0  0  0  0  0  0  0  0  0
   -1.0260   17.4312   38.2807 H   0  0  0  0  0  0  0  0  0  0  0  0
    2.0663   18.0156   36.2750 H   0  0  0  0  0  0  0  0  0  0  0  0
  1  2  1  0
  1 19  1  0
  1 20  2  0
  2  3  1  0
  2 16  2  0
  3  4  2  0
  4  5  1  0
  5 15  2  0
  5 17  1  0
  6 17  1  0
  6 18  2  0
  6 22  1  0
  7  8  1  0
  7 14  2  0
  7 18  1  0
  8  9  1  0
  8 13  2  0
  9 10  2  0
 10 11  1  0
 11 12  2  0
 11 23  1  0
 12 13  1  0
 14 22  1  0
 15 16  1  0
 16 21  1  0
  3 24  1  0
  4 25  1  0
  9 26  1  0
 10 27  1  0
 12 28  1  0
 13 29  1  0
 14 30  1  0
 15 31  1  0
 17 32  1  0
M  CHG  2  19  -1  21  -1
M  END
>  <mol_id>  (100) 
2026-08-23-6tgu-s0-n100-r4-0100

>  <rmsd_to_ref>  (100) 
5.000000000000088

$$$$
