3war.A
     RDKit          3D

 13 13  0  0  0  0  0  0  0  0999 V2000
    2.0001   18.6245   40.6926 N   0  0  0  0  0  0  0  0  0  0  0  0
    2.5782   18.5757   39.4013 C   0  0  0  0  0  0  0  0  0  0  0  0
    2.4967   19.7718   38.6000 C   0  0  0  0  0  0  0  0  0  0  0  0
    1.8538   20.9004   39.0765 C   0  0  0  0  0  0  0  0  0  0  0  0
    1.3289   20.9112   40.3502 C   0  0  0  0  0  0  0  0  0  0  0  0
    1.3818   19.7712   41.1205 C   0  0  0  0  0  0  0  0  0  0  0  0
    3.0116   19.7599   37.1684 C   0  0  0  0  0  0  0  0  0  0  0  0
    3.7306   18.7870   36.7954 O   0  0  0  0  0  0  0  0  0  0  0  0
    2.6655   20.7081   36.4973 O   0  0  0  0  0  0  0  0  0  0  0  0
    3.0681   17.6653   39.0256 H   0  0  0  0  0  0  0  0  0  0  0  0
    1.7616   21.7908   38.4372 H   0  0  0  0  0  0  0  0  0  0  0  0
    0.8693   21.8270   40.7502 H   0  0  0  0  0  0  0  0  0  0  0  0
    0.9112   19.7806   42.1147 H   0  0  0  0  0  0  0  0  0  0  0  0
  1  2  1  0
  1  6  2  0
  2  3  2  0
  3  4  1  0
  3  7  1  0
  4  5  2  0
  5  6  1  0
  7  8  1  0
  7  9  2  0
  2 10  1  0
  4 11  1  0
  5 12  1  0
  6 13  1  0
M  CHG  1   8  -1
M  END
>  <mol_id>  (1) 
2026-09-18-3war-s0-n100-r5-0001

>  <rmsd_to_ref>  (1) 
0.0

>  <pose_kind>  (1) 
native

$$$$
3war.A
     RDKit          3D

 13 13  0  0  0  0  0  0  0  0999 V2000
    2.1565   19.0755   40.7412 N   0  0  0  0  0  0  0  0  0  0  0  0
    2.7507   18.7946   39.5467 C   0  0  0  0  0  0  0  0  0  0  0  0
    2.6556   19.7243   38.5317 C   0  0  0  0  0  0  0  0  0  0  0  0
    1.9891   20.9253   38.6636 C   0  0  0  0  0  0  0  0  0  0  0  0
    1.3982   21.1776   39.8878 C   0  0  0  0  0  0  0  0  0  0  0  0
    1.5002   20.2406   40.8946 C   0  0  0  0  0  0  0  0  0  0  0  0
    3.2908   19.4197   37.2612 C   0  0  0  0  0  0  0  0  0  0  0  0
    3.2478   20.2948   36.1822 O   0  0  0  0  0  0  0  0  0  0  0  0
    3.9248   18.3335   37.0592 O   0  0  0  0  0  0  0  0  0  0  0  0
    3.2888   17.8498   39.4069 H   0  0  0  0  0  0  0  0  0  0  0  0
    1.9184   21.6565   37.8541 H   0  0  0  0  0  0  0  0  0  0  0  0
    0.8512   22.0897   40.0962 H   0  0  0  0  0  0  0  0  0  0  0  0
    1.0483   20.4067   41.8676 H   0  0  0  0  0  0  0  0  0  0  0  0
  1  2  1  0
  1  6  2  0
  2  3  2  0
  3  4  1  0
  3  7  1  0
  4  5  2  0
  5  6  1  0
  7  8  1  0
  7  9  2  0
  2 10  1  0
  4 11  1  0
  5 12  1  0
  6 13  1  0
M  CHG  1   8  -1
M  END
>  <mol_id>  (2) 
2026-09-18-3war-s0-n100-r5-0002

>  <rmsd_to_ref>  (2) 
0.5000000000034105

>  <pose_kind>  (2) 
conformer

$$$$
3war.A
     RDKit          3D

 13 13  0  0  0  0  0  0  0  0999 V2000
    2.6496   18.6226   40.6339 N   0  0  0  0  0  0  0  0  0  0  0  0
    3.0597   18.5297   39.2822 C   0  0  0  0  0  0  0  0  0  0  0  0
    2.5144   19.4975   38.3627 C   0  0  0  0  0  0  0  0  0  0  0  0
    1.6095   20.4513   38.7935 C   0  0  0  0  0  0  0  0  0  0  0  0
    1.2594   20.5211   40.1241 C   0  0  0  0  0  0  0  0  0  0  0  0
    1.7566   19.5925   41.0109 C   0  0  0  0  0  0  0  0  0  0  0  0
    2.8371   19.3973   36.8793 C   0  0  0  0  0  0  0  0  0  0  0  0
    3.7767   18.6297   36.5182 O   0  0  0  0  0  0  0  0  0  0  0  0
    2.1353   20.0760   36.1609 O   0  0  0  0  0  0  0  0  0  0  0  0
    3.7636   17.7533   38.9478 H   0  0  0  0  0  0  0  0  0  0  0  0
    1.1689   21.1553   38.0723 H   0  0  0  0  0  0  0  0  0  0  0  0
    0.5852   21.3155   40.4768 H   0  0  0  0  0  0  0  0  0  0  0  0
    1.4257   19.6301   42.0593 H   0  0  0  0  0  0  0  0  0  0  0  0
  1  2  1  0
  1  6  2  0
  2  3  2  0
  3  4  1  0
  3  7  1  0
  4  5  2  0
  5  6  1  0
  7  8  1  0
  7  9  2  0
  2 10  1  0
  4 11  1  0
  5 12  1  0
  6 13  1  0
M  CHG  1   8  -1
M  END
>  <mol_id>  (3) 
2026-09-18-3war-s0-n100-r5-0003

>  <rmsd_to_ref>  (3) 
0.5459183673477733

>  <pose_kind>  (3) 
rigid

$$$$
3war.A
     RDKit          3D

 13 13  0  0  0  0  0  0  0  0999 V2000
    1.6642   18.0841   40.1786 N   0  0  0  0  0  0  0  0  0  0  0  0
    2.1609   18.2022   38.9320 C   0  0  0  0  0  0  0  0  0  0  0  0
    2.4077   19.4739   38.4551 C   0  0  0  0  0  0  0  0  0  0  0  0
    2.1653   20.6061   39.2030 C   0  0  0  0  0  0  0  0  0  0  0  0
    1.6539   20.4386   40.4810 C   0  0  0  0  0  0  0  0  0  0  0  0
    1.4099   19.1528   40.9493 C   0  0  0  0  0  0  0  0  0  0  0  0
    2.9477   19.6059   37.1004 C   0  0  0  0  0  0  0  0  0  0  0  0
    3.2133   20.8776   36.5756 O   0  0  0  0  0  0  0  0  0  0  0  0
    3.1926   18.6156   36.3625 O   0  0  0  0  0  0  0  0  0  0  0  0
    2.3675   17.3321   38.3057 H   0  0  0  0  0  0  0  0  0  0  0  0
    2.3564   21.5989   38.8349 H   0  0  0  0  0  0  0  0  0  0  0  0
    1.4564   21.3054   41.0841 H   0  0  0  0  0  0  0  0  0  0  0  0
    1.0099   19.0095   41.9475 H   0  0  0  0  0  0  0  0  0  0  0  0
  1  2  1  0
  1  6  2  0
  2  3  2  0
  3  4  1  0
  3  7  1  0
  4  5  2  0
  5  6  1  0
  7  8  1  0
  7  9  2  0
  2 10  1  0
  4 11  1  0
  5 12  1  0
  6 13  1  0
M  CHG  1   8  -1
M  END
>  <mol_id>  (4) 
2026-09-18-3war-s0-n100-r5-0004

>  <rmsd_to_ref>  (4) 
0.5918367346971034

>  <pose_kind>  (4) 
conformer

$$$$
3war.A
     RDKit          3D

 13 13  0  0  0  0  0  0  0  0999 V2000
    1.7006   18.5735   40.9424 N   0  0  0  0  0  0  0  0  0  0  0  0
    2.5933   18.4632   39.8493 C   0  0  0  0  0  0  0  0  0  0  0  0
    2.5229   19.4890   38.8383 C   0  0  0  0  0  0  0  0  0  0  0  0
    1.5987   20.5142   38.9334 C   0  0  0  0  0  0  0  0  0  0  0  0
    0.7676   20.5964   40.0290 C   0  0  0  0  0  0  0  0  0  0  0  0
    0.8094   19.6144   40.9933 C   0  0  0  0  0  0  0  0  0  0  0  0
    3.3856   19.3812   37.5897 C   0  0  0  0  0  0  0  0  0  0  0  0
    4.3292   18.5373   37.5811 O   0  0  0  0  0  0  0  0  0  0  0  0
    3.0713   20.1304   36.6901 O   0  0  0  0  0  0  0  0  0  0  0  0
    3.3092   17.6315   39.7743 H   0  0  0  0  0  0  0  0  0  0  0  0
    1.5274   21.2651   38.1327 H   0  0  0  0  0  0  0  0  0  0  0  0
    0.0733   21.4432   40.1331 H   0  0  0  0  0  0  0  0  0  0  0  0
    0.1026   19.6668   41.8346 H   0  0  0  0  0  0  0  0  0  0  0  0
  1  2  1  0
  1  6  2  0
  2  3  2  0
  3  4  1  0
  3  7  1  0
  4  5  2  0
  5  6  1  0
  7  8  1  0
  7  9  2  0
  2 10  1  0
  4 11  1  0
  5 12  1  0
  6 13  1  0
M  CHG  1   8  -1
M  END
>  <mol_id>  (5) 
2026-09-18-3war-s0-n100-r5-0005

>  <rmsd_to_ref>  (5) 
0.637755102045533

>  <pose_kind>  (5) 
rigid

$$$$
3war.A
     RDKit          3D

 13 13  0  0  0  0  0  0  0  0999 V2000
    1.7287   18.8880   40.8492 N   0  0  0  0  0  0  0  0  0  0  0  0
    2.2667   18.5106   39.6526 C   0  0  0  0  0  0  0  0  0  0  0  0
    2.4054   19.4105   38.6170 C   0  0  0  0  0  0  0  0  0  0  0  0
    2.0016   20.7429   38.7503 C   0  0  0  0  0  0  0  0  0  0  0  0
    1.4557   21.0991   39.9838 C   0  0  0  0  0  0  0  0  0  0  0  0
    1.3337   20.1706   40.9945 C   0  0  0  0  0  0  0  0  0  0  0  0
    2.9878   18.9443   37.3636 C   0  0  0  0  0  0  0  0  0  0  0  0
    3.1555   19.8000   36.2812 O   0  0  0  0  0  0  0  0  0  0  0  0
    3.3620   17.7426   37.2163 O   0  0  0  0  0  0  0  0  0  0  0  0
    2.5706   17.4755   39.5762 H   0  0  0  0  0  0  0  0  0  0  0  0
    2.1177   21.4223   37.9372 H   0  0  0  0  0  0  0  0  0  0  0  0
    1.1300   22.1387   40.1168 H   0  0  0  0  0  0  0  0  0  0  0  0
    0.9068   20.4735   41.9416 H   0  0  0  0  0  0  0  0  0  0  0  0
  1  2  1  0
  1  6  2  0
  2  3  2  0
  3  4  1  0
  3  7  1  0
  4  5  2  0
  5  6  1  0
  7  8  1  0
  7  9  2  0
  2 10  1  0
  4 11  1  0
  5 12  1  0
  6 13  1  0
M  CHG  1   8  -1
M  END
>  <mol_id>  (6) 
2026-09-18-3war-s0-n100-r5-0006

>  <rmsd_to_ref>  (6) 
0.6836734693877652

>  <pose_kind>  (6) 
conformer

$$$$
3war.A
     RDKit          3D

 13 13  0  0  0  0  0  0  0  0999 V2000
    1.2307   18.6884   40.2851 N   0  0  0  0  0  0  0  0  0  0  0  0
    1.8833   18.3416   39.0777 C   0  0  0  0  0  0  0  0  0  0  0  0
    2.4196   19.4221   38.2876 C   0  0  0  0  0  0  0  0  0  0  0  0
    2.2702   20.7367   38.6923 C   0  0  0  0  0  0  0  0  0  0  0  0
    1.6511   21.0257   39.8886 C   0  0  0  0  0  0  0  0  0  0  0  0
    1.1169   20.0067   40.6450 C   0  0  0  0  0  0  0  0  0  0  0  0
    3.0484   19.1295   36.9334 C   0  0  0  0  0  0  0  0  0  0  0  0
    3.3202   17.9276   36.6431 O   0  0  0  0  0  0  0  0  0  0  0  0
    3.2258   20.1046   36.2356 O   0  0  0  0  0  0  0  0  0  0  0  0
    1.9771   17.2938   38.7563 H   0  0  0  0  0  0  0  0  0  0  0  0
    2.6464   21.5526   38.0576 H   0  0  0  0  0  0  0  0  0  0  0  0
    1.5838   22.0665   40.2382 H   0  0  0  0  0  0  0  0  0  0  0  0
    0.5796   20.2592   41.5710 H   0  0  0  0  0  0  0  0  0  0  0  0
  1  2  1  0
  1  6  2  0
  2  3  2  0
  3  4  1  0
  3  7  1  0
  4  5  2  0
  5  6  1  0
  7  8  1  0
  7  9  2  0
  2 10  1  0
  4 11  1  0
  5 12  1  0
  6 13  1  0
M  CHG  1   8  -1
M  END
>  <mol_id>  (7) 
2026-09-18-3war-s0-n100-r5-0007

>  <rmsd_to_ref>  (7) 
0.7295918367383049

>  <pose_kind>  (7) 
rigid

$$$$
3war.A
     RDKit          3D

 13 13  0  0  0  0  0  0  0  0999 V2000
    1.9767   18.0112   40.4947 N   0  0  0  0  0  0  0  0  0  0  0  0
    2.7854   18.3040   39.4581 C   0  0  0  0  0  0  0  0  0  0  0  0
    2.6548   19.4263   38.6809 C   0  0  0  0  0  0  0  0  0  0  0  0
    1.6227   20.2999   38.9967 C   0  0  0  0  0  0  0  0  0  0  0  0
    0.7997   19.9899   40.0614 C   0  0  0  0  0  0  0  0  0  0  0  0
    0.9799   18.8537   40.8007 C   0  0  0  0  0  0  0  0  0  0  0  0
    3.5634   19.6718   37.5836 C   0  0  0  0  0  0  0  0  0  0  0  0
    3.3948   20.8382   36.8085 O   0  0  0  0  0  0  0  0  0  0  0  0
    4.4922   18.8647   37.3164 O   0  0  0  0  0  0  0  0  0  0  0  0
    3.5886   17.6232   39.2132 H   0  0  0  0  0  0  0  0  0  0  0  0
    1.4982   21.1838   38.4061 H   0  0  0  0  0  0  0  0  0  0  0  0
    0.0105   20.6861   40.2800 H   0  0  0  0  0  0  0  0  0  0  0  0
    0.3473   18.6123   41.6216 H   0  0  0  0  0  0  0  0  0  0  0  0
  1  2  1  0
  1  6  2  0
  2  3  2  0
  3  4  1  0
  3  7  1  0
  4  5  2  0
  5  6  1  0
  7  8  1  0
  7  9  2  0
  2 10  1  0
  4 11  1  0
  5 12  1  0
  6 13  1  0
M  CHG  1   8  -1
M  END
>  <mol_id>  (8) 
2026-09-18-3war-s0-n100-r5-0008

>  <rmsd_to_ref>  (8) 
0.7755102040847092

>  <pose_kind>  (8) 
conformer

$$$$
3war.A
     RDKit          3D

 13 13  0  0  0  0  0  0  0  0999 V2000
    1.6593   19.3807   40.9448 N   0  0  0  0  0  0  0  0  0  0  0  0
    2.2271   18.8404   39.7659 C   0  0  0  0  0  0  0  0  0  0  0  0
    2.1175   19.6288   38.5635 C   0  0  0  0  0  0  0  0  0  0  0  0
    1.4587   20.8454   38.5725 C   0  0  0  0  0  0  0  0  0  0  0  0
    0.9446   21.3445   39.7492 C   0  0  0  0  0  0  0  0  0  0  0  0
    1.0244   20.5953   40.9016 C   0  0  0  0  0  0  0  0  0  0  0  0
    2.6202   19.0670   37.2420 C   0  0  0  0  0  0  0  0  0  0  0  0
    3.3532   18.0351   37.2665 O   0  0  0  0  0  0  0  0  0  0  0  0
    2.2516   19.6744   36.2599 O   0  0  0  0  0  0  0  0  0  0  0  0
    2.7299   17.8620   39.7671 H   0  0  0  0  0  0  0  0  0  0  0  0
    1.3452   21.4152   37.6385 H   0  0  0  0  0  0  0  0  0  0  0  0
    0.4722   22.3378   39.7679 H   0  0  0  0  0  0  0  0  0  0  0  0
    0.5622   20.9851   41.8206 H   0  0  0  0  0  0  0  0  0  0  0  0
  1  2  1  0
  1  6  2  0
  2  3  2  0
  3  4  1  0
  3  7  1  0
  4  5  2  0
  5  6  1  0
  7  8  1  0
  7  9  2  0
  2 10  1  0
  4 11  1  0
  5 12  1  0
  6 13  1  0
M  CHG  1   8  -1
M  END
>  <mol_id>  (9) 
2026-09-18-3war-s0-n100-r5-0009

>  <rmsd_to_ref>  (9) 
0.8214285714290479

>  <pose_kind>  (9) 
rigid

$$$$
3war.A
     RDKit          3D

 13 13  0  0  0  0  0  0  0  0999 V2000
    2.0068   19.0678   41.2551 N   0  0  0  0  0  0  0  0  0  0  0  0
    2.2483   18.6384   40.0015 C   0  0  0  0  0  0  0  0  0  0  0  0
    2.3121   19.4658   38.9098 C   0  0  0  0  0  0  0  0  0  0  0  0
    2.1136   20.8224   39.1296 C   0  0  0  0  0  0  0  0  0  0  0  0
    1.8668   21.2517   40.4188 C   0  0  0  0  0  0  0  0  0  0  0  0
    1.8150   20.3772   41.4689 C   0  0  0  0  0  0  0  0  0  0  0  0
    2.5761   18.9291   37.5936 C   0  0  0  0  0  0  0  0  0  0  0  0
    2.6336   19.8143   36.4969 O   0  0  0  0  0  0  0  0  0  0  0  0
    2.7529   17.6948   37.4189 O   0  0  0  0  0  0  0  0  0  0  0  0
    2.4027   17.5819   39.8315 H   0  0  0  0  0  0  0  0  0  0  0  0
    2.1581   21.4907   38.2948 H   0  0  0  0  0  0  0  0  0  0  0  0
    1.7175   22.3073   40.5556 H   0  0  0  0  0  0  0  0  0  0  0  0
    1.6250   20.7052   42.4631 H   0  0  0  0  0  0  0  0  0  0  0  0
  1  2  1  0
  1  6  2  0
  2  3  2  0
  3  4  1  0
  3  7  1  0
  4  5  2  0
  5  6  1  0
  7  8  1  0
  7  9  2  0
  2 10  1  0
  4 11  1  0
  5 12  1  0
  6 13  1  0
M  CHG  1   8  -1
M  END
>  <mol_id>  (10) 
2026-09-18-3war-s0-n100-r5-0010

>  <rmsd_to_ref>  (10) 
0.8673469387806383

>  <pose_kind>  (10) 
conformer

$$$$
3war.A
     RDKit          3D

 13 13  0  0  0  0  0  0  0  0999 V2000
    3.1522   18.7282   40.3352 N   0  0  0  0  0  0  0  0  0  0  0  0
    3.1507   18.8463   38.9245 C   0  0  0  0  0  0  0  0  0  0  0  0
    2.6438   20.0769   38.3694 C   0  0  0  0  0  0  0  0  0  0  0  0
    2.1580   21.0773   39.1923 C   0  0  0  0  0  0  0  0  0  0  0  0
    2.2038   20.9296   40.5613 C   0  0  0  0  0  0  0  0  0  0  0  0
    2.6672   19.7532   41.1063 C   0  0  0  0  0  0  0  0  0  0  0  0
    2.5242   20.2336   36.8608 C   0  0  0  0  0  0  0  0  0  0  0  0
    3.1080   19.3894   36.1197 O   0  0  0  0  0  0  0  0  0  0  0  0
    1.8520   21.1758   36.5007 O   0  0  0  0  0  0  0  0  0  0  0  0
    3.5201   18.0350   38.2801 H   0  0  0  0  0  0  0  0  0  0  0  0
    1.7344   21.9924   38.7528 H   0  0  0  0  0  0  0  0  0  0  0  0
    1.8715   21.7484   41.2164 H   0  0  0  0  0  0  0  0  0  0  0  0
    2.6476   19.6311   42.1993 H   0  0  0  0  0  0  0  0  0  0  0  0
  1  2  1  0
  1  6  2  0
  2  3  2  0
  3  4  1  0
  3  7  1  0
  4  5  2  0
  5  6  1  0
  7  8  1  0
  7  9  2  0
  2 10  1  0
  4 11  1  0
  5 12  1  0
  6 13  1  0
M  CHG  1   8  -1
M  END
>  <mol_id>  (11) 
2026-09-18-3war-s0-n100-r5-0011

>  <rmsd_to_ref>  (11) 
0.9132653061252372

>  <pose_kind>  (11) 
rigid

$$$$
3war.A
     RDKit          3D

 13 13  0  0  0  0  0  0  0  0999 V2000
    2.8852   18.6979   41.0895 N   0  0  0  0  0  0  0  0  0  0  0  0
    2.7698   18.6213   39.7490 C   0  0  0  0  0  0  0  0  0  0  0  0
    2.4514   19.7475   39.0155 C   0  0  0  0  0  0  0  0  0  0  0  0
    2.2533   20.9433   39.6578 C   0  0  0  0  0  0  0  0  0  0  0  0
    2.3761   21.0096   41.0504 C   0  0  0  0  0  0  0  0  0  0  0  0
    2.6960   19.8662   41.7605 C   0  0  0  0  0  0  0  0  0  0  0  0
    2.3297   19.6530   37.5710 C   0  0  0  0  0  0  0  0  0  0  0  0
    2.5309   18.4406   36.9232 O   0  0  0  0  0  0  0  0  0  0  0  0
    2.0401   20.6691   36.8855 O   0  0  0  0  0  0  0  0  0  0  0  0
    2.9203   17.6871   39.2041 H   0  0  0  0  0  0  0  0  0  0  0  0
    1.9996   21.8503   39.0947 H   0  0  0  0  0  0  0  0  0  0  0  0
    2.2323   21.9153   41.6004 H   0  0  0  0  0  0  0  0  0  0  0  0
    2.7965   19.8957   42.8456 H   0  0  0  0  0  0  0  0  0  0  0  0
  1  2  1  0
  1  6  2  0
  2  3  2  0
  3  4  1  0
  3  7  1  0
  4  5  2  0
  5  6  1  0
  7  8  1  0
  7  9  2  0
  2 10  1  0
  4 11  1  0
  5 12  1  0
  6 13  1  0
M  CHG  1   8  -1
M  END
>  <mol_id>  (12) 
2026-09-18-3war-s0-n100-r5-0012

>  <rmsd_to_ref>  (12) 
0.9591836734740404

>  <pose_kind>  (12) 
conformer

$$$$
3war.A
     RDKit          3D

 13 13  0  0  0  0  0  0  0  0999 V2000
    1.8880   19.0373   41.3551 N   0  0  0  0  0  0  0  0  0  0  0  0
    2.7626   18.6641   40.3064 C   0  0  0  0  0  0  0  0  0  0  0  0
    2.5925   19.3332   39.0404 C   0  0  0  0  0  0  0  0  0  0  0  0
    1.5952   20.2762   38.8667 C   0  0  0  0  0  0  0  0  0  0  0  0
    0.7841   20.6274   39.9234 C   0  0  0  0  0  0  0  0  0  0  0  0
    0.9214   19.9842   41.1331 C   0  0  0  0  0  0  0  0  0  0  0  0
    3.4338   18.9139   37.8440 C   0  0  0  0  0  0  0  0  0  0  0  0
    4.4385   18.1706   38.0456 O   0  0  0  0  0  0  0  0  0  0  0  0
    3.0440   19.3369   36.7770 O   0  0  0  0  0  0  0  0  0  0  0  0
    3.5380   17.8974   40.4509 H   0  0  0  0  0  0  0  0  0  0  0  0
    1.4497   20.7465   37.8830 H   0  0  0  0  0  0  0  0  0  0  0  0
    0.0297   21.4186   39.8013 H   0  0  0  0  0  0  0  0  0  0  0  0
    0.2310   20.2391   41.9506 H   0  0  0  0  0  0  0  0  0  0  0  0
  1  2  1  0
  1  6  2  0
  2  3  2  0
  3  4  1  0
  3  7  1  0
  4  5  2  0
  5  6  1  0
  7  8  1  0
  7  9  2  0
  2 10  1  0
  4 11  1  0
  5 12  1  0
  6 13  1  0
M  CHG  1   8  -1
M  END
>  <mol_id>  (13) 
2026-09-18-3war-s0-n100-r5-0013

>  <rmsd_to_ref>  (13) 
1.0051020408190097

>  <pose_kind>  (13) 
rigid

$$$$
3war.A
     RDKit          3D

 13 13  0  0  0  0  0  0  0  0999 V2000
    1.4382   18.8022   40.3660 N   0  0  0  0  0  0  0  0  0  0  0  0
    2.3857   18.6252   39.4280 C   0  0  0  0  0  0  0  0  0  0  0  0
    2.4078   19.3649   38.2533 C   0  0  0  0  0  0  0  0  0  0  0  0
    1.4426   20.3222   38.0045 C   0  0  0  0  0  0  0  0  0  0  0  0
    0.4637   20.4967   38.9867 C   0  0  0  0  0  0  0  0  0  0  0  0
    0.4860   19.7265   40.1518 C   0  0  0  0  0  0  0  0  0  0  0  0
    3.4431   19.1617   37.2436 C   0  0  0  0  0  0  0  0  0  0  0  0
    4.4591   18.2475   37.3604 O   0  0  0  0  0  0  0  0  0  0  0  0
    3.3839   19.8778   36.2093 O   0  0  0  0  0  0  0  0  0  0  0  0
    3.1425   17.8905   39.5983 H   0  0  0  0  0  0  0  0  0  0  0  0
    1.4090   20.9238   37.1151 H   0  0  0  0  0  0  0  0  0  0  0  0
   -0.2992   21.2436   38.8052 H   0  0  0  0  0  0  0  0  0  0  0  0
   -0.2822   19.8726   40.9083 H   0  0  0  0  0  0  0  0  0  0  0  0
  1  2  1  0
  1  6  2  0
  2  3  2  0
  3  4  1  0
  3  7  1  0
  4  5  2  0
  5  6  1  0
  7  8  1  0
  7  9  2  0
  2 10  1  0
  4 11  1  0
  5 12  1  0
  6 13  1  0
M  CHG  1   8  -1
M  END
>  <mol_id>  (14) 
2026-09-18-3war-s0-n100-r5-0014

>  <rmsd_to_ref>  (14) 
1.0510204081673211

>  <pose_kind>  (14) 
conformer

$$$$
3war.A
     RDKit          3D

 13 13  0  0  0  0  0  0  0  0999 V2000
    1.0836   18.2916   39.9595 N   0  0  0  0  0  0  0  0  0  0  0  0
    2.0722   18.0299   38.9805 C   0  0  0  0  0  0  0  0  0  0  0  0
    2.8653   19.1482   38.5334 C   0  0  0  0  0  0  0  0  0  0  0  0
    2.6386   20.4198   39.0291 C   0  0  0  0  0  0  0  0  0  0  0  0
    1.6834   20.6229   40.0008 C   0  0  0  0  0  0  0  0  0  0  0  0
    0.9050   19.5692   40.4244 C   0  0  0  0  0  0  0  0  0  0  0  0
    3.8793   18.9574   37.4153 C   0  0  0  0  0  0  0  0  0  0  0  0
    4.1896   17.7771   37.0790 O   0  0  0  0  0  0  0  0  0  0  0  0
    4.2995   19.9862   36.9311 O   0  0  0  0  0  0  0  0  0  0  0  0
    2.2285   17.0180   38.5786 H   0  0  0  0  0  0  0  0  0  0  0  0
    3.2221   21.2702   38.6466 H   0  0  0  0  0  0  0  0  0  0  0  0
    1.5431   21.6232   40.4366 H   0  0  0  0  0  0  0  0  0  0  0  0
    0.1114   19.7590   41.1621 H   0  0  0  0  0  0  0  0  0  0  0  0
  1  2  1  0
  1  6  2  0
  2  3  2  0
  3  4  1  0
  3  7  1  0
  4  5  2  0
  5  6  1  0
  7  8  1  0
  7  9  2  0
  2 10  1  0
  4 11  1  0
  5 12  1  0
  6 13  1  0
M  CHG  1   8  -1
M  END
>  <mol_id>  (15) 
2026-09-18-3war-s0-n100-r5-0015

>  <rmsd_to_ref>  (15) 
1.096938775510874

>  <pose_kind>  (15) 
rigid

$$$$
3war.A
     RDKit          3D

 13 13  0  0  0  0  0  0  0  0999 V2000
    1.4286   18.5941   39.8587 N   0  0  0  0  0  0  0  0  0  0  0  0
    2.5320   18.5076   39.0639 C   0  0  0  0  0  0  0  0  0  0  0  0
    2.9543   19.5911   38.3300 C   0  0  0  0  0  0  0  0  0  0  0  0
    2.2436   20.7706   38.4097 C   0  0  0  0  0  0  0  0  0  0  0  0
    1.1243   20.8823   39.2068 C   0  0  0  0  0  0  0  0  0  0  0  0
    0.7465   19.7596   39.9223 C   0  0  0  0  0  0  0  0  0  0  0  0
    4.1317   19.5417   37.4653 C   0  0  0  0  0  0  0  0  0  0  0  0
    4.8456   18.3385   37.3924 O   0  0  0  0  0  0  0  0  0  0  0  0
    4.4455   20.5672   36.8353 O   0  0  0  0  0  0  0  0  0  0  0  0
    3.0703   17.5959   39.0106 H   0  0  0  0  0  0  0  0  0  0  0  0
    2.5555   21.6162   37.8502 H   0  0  0  0  0  0  0  0  0  0  0  0
    0.5338   21.7698   39.3085 H   0  0  0  0  0  0  0  0  0  0  0  0
   -0.1251   19.7492   40.5804 H   0  0  0  0  0  0  0  0  0  0  0  0
  1  2  1  0
  1  6  2  0
  2  3  2  0
  3  4  1  0
  3  7  1  0
  4  5  2  0
  5  6  1  0
  7  8  1  0
  7  9  2  0
  2 10  1  0
  4 11  1  0
  5 12  1  0
  6 13  1  0
M  CHG  1   8  -1
M  END
>  <mol_id>  (16) 
2026-09-18-3war-s0-n100-r5-0016

>  <rmsd_to_ref>  (16) 
1.1428571428598602

>  <pose_kind>  (16) 
conformer

$$$$
3war.A
     RDKit          3D

 13 13  0  0  0  0  0  0  0  0999 V2000
    2.0134   19.4254   40.6245 N   0  0  0  0  0  0  0  0  0  0  0  0
    2.6205   18.6697   39.5928 C   0  0  0  0  0  0  0  0  0  0  0  0
    2.7002   19.2827   38.2900 C   0  0  0  0  0  0  0  0  0  0  0  0
    2.1764   20.5439   38.0681 C   0  0  0  0  0  0  0  0  0  0  0  0
    1.6183   21.2537   39.1086 C   0  0  0  0  0  0  0  0  0  0  0  0
    1.5176   20.6749   40.3538 C   0  0  0  0  0  0  0  0  0  0  0  0
    3.2529   18.4913   37.1141 C   0  0  0  0  0  0  0  0  0  0  0  0
    3.8669   17.4100   37.3517 O   0  0  0  0  0  0  0  0  0  0  0  0
    3.0377   18.9819   36.0268 O   0  0  0  0  0  0  0  0  0  0  0  0
    3.0142   17.6592   39.7769 H   0  0  0  0  0  0  0  0  0  0  0  0
    2.2057   20.9806   37.0589 H   0  0  0  0  0  0  0  0  0  0  0  0
    1.2546   22.2789   38.9451 H   0  0  0  0  0  0  0  0  0  0  0  0
    1.0216   21.2349   41.1603 H   0  0  0  0  0  0  0  0  0  0  0  0
  1  2  1  0
  1  6  2  0
  2  3  2  0
  3  4  1  0
  3  7  1  0
  4  5  2  0
  5  6  1  0
  7  8  1  0
  7  9  2  0
  2 10  1  0
  4 11  1  0
  5 12  1  0
  6 13  1  0
M  CHG  1   8  -1
M  END
>  <mol_id>  (17) 
2026-09-18-3war-s0-n100-r5-0017

>  <rmsd_to_ref>  (17) 
1.1887755102099706

>  <pose_kind>  (17) 
rigid

$$$$
3war.A
     RDKit          3D

 13 13  0  0  0  0  0  0  0  0999 V2000
    2.0633   20.2036   41.0931 N   0  0  0  0  0  0  0  0  0  0  0  0
    2.2934   19.4750   39.9705 C   0  0  0  0  0  0  0  0  0  0  0  0
    2.4087   20.1372   38.7636 C   0  0  0  0  0  0  0  0  0  0  0  0
    2.2926   21.5235   38.6914 C   0  0  0  0  0  0  0  0  0  0  0  0
    2.0586   22.2198   39.8614 C   0  0  0  0  0  0  0  0  0  0  0  0
    1.9479   21.5449   41.0448 C   0  0  0  0  0  0  0  0  0  0  0  0
    2.6568   19.3660   37.5443 C   0  0  0  0  0  0  0  0  0  0  0  0
    2.7741   20.0247   36.3256 O   0  0  0  0  0  0  0  0  0  0  0  0
    2.7640   18.0967   37.6041 O   0  0  0  0  0  0  0  0  0  0  0  0
    2.3856   18.3794   40.0247 H   0  0  0  0  0  0  0  0  0  0  0  0
    2.3830   22.0558   37.7368 H   0  0  0  0  0  0  0  0  0  0  0  0
    1.9649   23.2978   39.8282 H   0  0  0  0  0  0  0  0  0  0  0  0
    1.7631   22.0403   42.0022 H   0  0  0  0  0  0  0  0  0  0  0  0
  1  2  1  0
  1  6  2  0
  2  3  2  0
  3  4  1  0
  3  7  1  0
  4  5  2  0
  5  6  1  0
  7  8  1  0
  7  9  2  0
  2 10  1  0
  4 11  1  0
  5 12  1  0
  6 13  1  0
M  CHG  1   8  -1
M  END
>  <mol_id>  (18) 
2026-09-18-3war-s0-n100-r5-0018

>  <rmsd_to_ref>  (18) 
1.2346938775512435

>  <pose_kind>  (18) 
conformer

$$$$
3war.A
     RDKit          3D

 13 13  0  0  0  0  0  0  0  0999 V2000
    2.6025   19.9984   40.9135 N   0  0  0  0  0  0  0  0  0  0  0  0
    2.5571   19.3788   39.6414 C   0  0  0  0  0  0  0  0  0  0  0  0
    1.8990   20.1025   38.5819 C   0  0  0  0  0  0  0  0  0  0  0  0
    1.3183   21.3352   38.8214 C   0  0  0  0  0  0  0  0  0  0  0  0
    1.4104   21.9122   40.0691 C   0  0  0  0  0  0  0  0  0  0  0  0
    2.0187   21.2256   41.0959 C   0  0  0  0  0  0  0  0  0  0  0  0
    1.7296   19.4554   37.2154 C   0  0  0  0  0  0  0  0  0  0  0  0
    2.3913   18.4069   36.9598 O   0  0  0  0  0  0  0  0  0  0  0  0
    0.9452   20.0176   36.4820 O   0  0  0  0  0  0  0  0  0  0  0  0
    3.0041   18.3887   39.4688 H   0  0  0  0  0  0  0  0  0  0  0  0
    0.7821   21.8556   38.0142 H   0  0  0  0  0  0  0  0  0  0  0  0
    0.9995   22.9174   40.2442 H   0  0  0  0  0  0  0  0  0  0  0  0
    2.0369   21.6778   42.0985 H   0  0  0  0  0  0  0  0  0  0  0  0
  1  2  1  0
  1  6  2  0
  2  3  2  0
  3  4  1  0
  3  7  1  0
  4  5  2  0
  5  6  1  0
  7  8  1  0
  7  9  2  0
  2 10  1  0
  4 11  1  0
  5 12  1  0
  6 13  1  0
M  CHG  1   8  -1
M  END
>  <mol_id>  (19) 
2026-09-18-3war-s0-n100-r5-0019

>  <rmsd_to_ref>  (19) 
1.2806122448987294

>  <pose_kind>  (19) 
rigid

$$$$
3war.A
     RDKit          3D

 13 13  0  0  0  0  0  0  0  0999 V2000
    1.1373   20.1800   40.3737 N   0  0  0  0  0  0  0  0  0  0  0  0
    1.8215   19.4929   39.4437 C   0  0  0  0  0  0  0  0  0  0  0  0
    2.4980   20.2177   38.4871 C   0  0  0  0  0  0  0  0  0  0  0  0
    2.4926   21.6029   38.4582 C   0  0  0  0  0  0  0  0  0  0  0  0
    1.7620   22.2527   39.4535 C   0  0  0  0  0  0  0  0  0  0  0  0
    1.0760   21.5212   40.4233 C   0  0  0  0  0  0  0  0  0  0  0  0
    3.2504   19.4636   37.4645 C   0  0  0  0  0  0  0  0  0  0  0  0
    3.9565   20.1317   36.4686 O   0  0  0  0  0  0  0  0  0  0  0  0
    3.2767   18.1994   37.4613 O   0  0  0  0  0  0  0  0  0  0  0  0
    1.8068   18.4256   39.4922 H   0  0  0  0  0  0  0  0  0  0  0  0
    3.0334   22.1534   37.6944 H   0  0  0  0  0  0  0  0  0  0  0  0
    1.7198   23.3376   39.4835 H   0  0  0  0  0  0  0  0  0  0  0  0
    0.5024   21.9972   41.2055 H   0  0  0  0  0  0  0  0  0  0  0  0
  1  2  1  0
  1  6  2  0
  2  3  2  0
  3  4  1  0
  3  7  1  0
  4  5  2  0
  5  6  1  0
  7  8  1  0
  7  9  2  0
  2 10  1  0
  4 11  1  0
  5 12  1  0
  6 13  1  0
M  CHG  1   8  -1
M  END
>  <mol_id>  (20) 
2026-09-18-3war-s0-n100-r5-0020

>  <rmsd_to_ref>  (20) 
1.3265306122469118

>  <pose_kind>  (20) 
conformer

$$$$
3war.A
     RDKit          3D

 13 13  0  0  0  0  0  0  0  0999 V2000
    2.7851   18.1808   39.8465 N   0  0  0  0  0  0  0  0  0  0  0  0
    2.4905   18.2692   38.4646 C   0  0  0  0  0  0  0  0  0  0  0  0
    2.4875   19.5861   37.8770 C   0  0  0  0  0  0  0  0  0  0  0  0
    2.7365   20.7064   38.6497 C   0  0  0  0  0  0  0  0  0  0  0  0
    3.0450   20.5704   39.9855 C   0  0  0  0  0  0  0  0  0  0  0  0
    3.0332   19.3217   40.5656 C   0  0  0  0  0  0  0  0  0  0  0  0
    2.0857   19.7636   36.4204 C   0  0  0  0  0  0  0  0  0  0  0  0
    2.0125   18.7348   35.6865 O   0  0  0  0  0  0  0  0  0  0  0  0
    1.8574   20.9083   36.0935 O   0  0  0  0  0  0  0  0  0  0  0  0
    2.2733   17.3727   37.8654 H   0  0  0  0  0  0  0  0  0  0  0  0
    2.6879   21.7076   38.1967 H   0  0  0  0  0  0  0  0  0  0  0  0
    3.2999   21.4559   40.5862 H   0  0  0  0  0  0  0  0  0  0  0  0
    3.2298   19.2363   41.6445 H   0  0  0  0  0  0  0  0  0  0  0  0
  1  2  1  0
  1  6  2  0
  2  3  2  0
  3  4  1  0
  3  7  1  0
  4  5  2  0
  5  6  1  0
  7  8  1  0
  7  9  2  0
  2 10  1  0
  4 11  1  0
  5 12  1  0
  6 13  1  0
M  CHG  1   8  -1
M  END
>  <mol_id>  (21) 
2026-09-18-3war-s0-n100-r5-0021

>  <rmsd_to_ref>  (21) 
1.3724489795945787

>  <pose_kind>  (21) 
rigid

$$$$
3war.A
     RDKit          3D

 13 13  0  0  0  0  0  0  0  0999 V2000
    2.3644   19.5713   41.0685 N   0  0  0  0  0  0  0  0  0  0  0  0
    2.1083   19.4208   39.7448 C   0  0  0  0  0  0  0  0  0  0  0  0
    2.3482   20.4656   38.8889 C   0  0  0  0  0  0  0  0  0  0  0  0
    2.8452   21.6649   39.3545 C   0  0  0  0  0  0  0  0  0  0  0  0
    3.0854   21.7564   40.7119 C   0  0  0  0  0  0  0  0  0  0  0  0
    2.8489   20.7128   41.5869 C   0  0  0  0  0  0  0  0  0  0  0  0
    2.0640   20.2838   37.4538 C   0  0  0  0  0  0  0  0  0  0  0  0
    2.2800   21.2884   36.5353 O   0  0  0  0  0  0  0  0  0  0  0  0
    1.6040   19.1732   37.0236 O   0  0  0  0  0  0  0  0  0  0  0  0
    1.7155   18.4868   39.3441 H   0  0  0  0  0  0  0  0  0  0  0  0
    3.0423   22.4922   38.7239 H   0  0  0  0  0  0  0  0  0  0  0  0
    3.4802   22.6972   41.1095 H   0  0  0  0  0  0  0  0  0  0  0  0
    3.0590   20.8500   42.6416 H   0  0  0  0  0  0  0  0  0  0  0  0
  1  2  1  0
  1  6  2  0
  2  3  2  0
  3  4  1  0
  3  7  1  0
  4  5  2  0
  5  6  1  0
  7  8  1  0
  7  9  2  0
  2 10  1  0
  4 11  1  0
  5 12  1  0
  6 13  1  0
M  CHG  1   8  -1
M  END
>  <mol_id>  (22) 
2026-09-18-3war-s0-n100-r5-0022

>  <rmsd_to_ref>  (22) 
1.4183673469418747

>  <pose_kind>  (22) 
conformer

$$$$
3war.A
     RDKit          3D

 13 13  0  0  0  0  0  0  0  0999 V2000
    3.4946   18.0848   39.8676 N   0  0  0  0  0  0  0  0  0  0  0  0
    3.5957   18.8341   38.6707 C   0  0  0  0  0  0  0  0  0  0  0  0
    3.0031   20.1487   38.6671 C   0  0  0  0  0  0  0  0  0  0  0  0
    2.3439   20.6308   39.7839 C   0  0  0  0  0  0  0  0  0  0  0  0
    2.2934   19.8772   40.9360 C   0  0  0  0  0  0  0  0  0  0  0  0
    2.8377   18.6125   40.9494 C   0  0  0  0  0  0  0  0  0  0  0  0
    2.9910   20.9696   37.3862 C   0  0  0  0  0  0  0  0  0  0  0  0
    3.7234   20.5947   36.4241 O   0  0  0  0  0  0  0  0  0  0  0  0
    2.2507   21.9292   37.4061 O   0  0  0  0  0  0  0  0  0  0  0  0
    4.1041   18.4311   37.7824 H   0  0  0  0  0  0  0  0  0  0  0  0
    1.8593   21.6178   39.7518 H   0  0  0  0  0  0  0  0  0  0  0  0
    1.8200   20.2842   41.8417 H   0  0  0  0  0  0  0  0  0  0  0  0
    2.7422   18.0037   41.8606 H   0  0  0  0  0  0  0  0  0  0  0  0
  1  2  1  0
  1  6  2  0
  2  3  2  0
  3  4  1  0
  3  7  1  0
  4  5  2  0
  5  6  1  0
  7  8  1  0
  7  9  2  0
  2 10  1  0
  4 11  1  0
  5 12  1  0
  6 13  1  0
M  CHG  1   8  -1
M  END
>  <mol_id>  (23) 
2026-09-18-3war-s0-n100-r5-0023

>  <rmsd_to_ref>  (23) 
1.4642857142899202

>  <pose_kind>  (23) 
rigid

$$$$
3war.A
     RDKit          3D

 13 13  0  0  0  0  0  0  0  0999 V2000
    1.2382   18.5541   40.0386 N   0  0  0  0  0  0  0  0  0  0  0  0
    2.3961   18.7761   39.3908 C   0  0  0  0  0  0  0  0  0  0  0  0
    2.9135   20.0585   39.3528 C   0  0  0  0  0  0  0  0  0  0  0  0
    2.2259   21.0958   39.9859 C   0  0  0  0  0  0  0  0  0  0  0  0
    1.0393   20.8251   40.6406 C   0  0  0  0  0  0  0  0  0  0  0  0
    0.5361   19.5182   40.6649 C   0  0  0  0  0  0  0  0  0  0  0  0
    4.1742   20.3030   38.6480 C   0  0  0  0  0  0  0  0  0  0  0  0
    4.6684   21.6184   38.6309 O   0  0  0  0  0  0  0  0  0  0  0  0
    4.8288   19.4188   38.0672 O   0  0  0  0  0  0  0  0  0  0  0  0
    2.8835   17.9453   38.9216 H   0  0  0  0  0  0  0  0  0  0  0  0
    2.6001   22.0953   39.9737 H   0  0  0  0  0  0  0  0  0  0  0  0
    0.5159   21.6419   41.1283 H   0  0  0  0  0  0  0  0  0  0  0  0
   -0.3992   19.2978   41.1795 H   0  0  0  0  0  0  0  0  0  0  0  0
  1  2  1  0
  1  6  2  0
  2  3  2  0
  3  4  1  0
  3  7  1  0
  4  5  2  0
  5  6  1  0
  7  8  1  0
  7  9  2  0
  2 10  1  0
  4 11  1  0
  5 12  1  0
  6 13  1  0
M  CHG  1   8  -1
M  END
>  <mol_id>  (24) 
2026-09-18-3war-s0-n100-r5-0024

>  <rmsd_to_ref>  (24) 
1.5102040816368612

>  <pose_kind>  (24) 
conformer

$$$$
3war.A
     RDKit          3D

 13 13  0  0  0  0  0  0  0  0999 V2000
    2.4687   17.8632   41.0820 N   0  0  0  0  0  0  0  0  0  0  0  0
    3.4656   18.4675   40.2789 C   0  0  0  0  0  0  0  0  0  0  0  0
    3.0290   19.4542   39.3222 C   0  0  0  0  0  0  0  0  0  0  0  0
    1.6875   19.7651   39.1884 C   0  0  0  0  0  0  0  0  0  0  0  0
    0.7548   19.1711   40.0101 C   0  0  0  0  0  0  0  0  0  0  0  0
    1.1534   18.2133   40.9154 C   0  0  0  0  0  0  0  0  0  0  0  0
    4.0336   20.0731   38.3617 C   0  0  0  0  0  0  0  0  0  0  0  0
    5.2673   19.9045   38.5899 O   0  0  0  0  0  0  0  0  0  0  0  0
    3.5414   20.6798   37.4349 O   0  0  0  0  0  0  0  0  0  0  0  0
    4.5269   18.1963   40.3802 H   0  0  0  0  0  0  0  0  0  0  0  0
    1.3651   20.4878   38.4244 H   0  0  0  0  0  0  0  0  0  0  0  0
   -0.3042   19.4610   39.9433 H   0  0  0  0  0  0  0  0  0  0  0  0
    0.3893   17.7109   41.5268 H   0  0  0  0  0  0  0  0  0  0  0  0
  1  2  1  0
  1  6  2  0
  2  3  2  0
  3  4  1  0
  3  7  1  0
  4  5  2  0
  5  6  1  0
  7  8  1  0
  7  9  2  0
  2 10  1  0
  4 11  1  0
  5 12  1  0
  6 13  1  0
M  CHG  1   8  -1
M  END
>  <mol_id>  (25) 
2026-09-18-3war-s0-n100-r5-0025

>  <rmsd_to_ref>  (25) 
1.5561224489811913

>  <pose_kind>  (25) 
rigid

$$$$
3war.A
     RDKit          3D

 13 13  0  0  0  0  0  0  0  0999 V2000
    2.1916   19.7955   40.7170 N   0  0  0  0  0  0  0  0  0  0  0  0
    2.7965   18.9122   39.8838 C   0  0  0  0  0  0  0  0  0  0  0  0
    3.0844   19.2514   38.5772 C   0  0  0  0  0  0  0  0  0  0  0  0
    2.7441   20.5146   38.1281 C   0  0  0  0  0  0  0  0  0  0  0  0
    2.1200   21.4339   38.9785 C   0  0  0  0  0  0  0  0  0  0  0  0
    1.8494   21.0431   40.2926 C   0  0  0  0  0  0  0  0  0  0  0  0
    3.7378   18.2891   37.6871 C   0  0  0  0  0  0  0  0  0  0  0  0
    4.0110   18.6676   36.3793 O   0  0  0  0  0  0  0  0  0  0  0  0
    4.0337   17.1428   38.1346 O   0  0  0  0  0  0  0  0  0  0  0  0
    3.0551   17.9189   40.2651 H   0  0  0  0  0  0  0  0  0  0  0  0
    2.9647   20.7831   37.1167 H   0  0  0  0  0  0  0  0  0  0  0  0
    1.8505   22.4318   38.6259 H   0  0  0  0  0  0  0  0  0  0  0  0
    1.3675   21.7186   40.9902 H   0  0  0  0  0  0  0  0  0  0  0  0
  1  2  1  0
  1  6  2  0
  2  3  2  0
  3  4  1  0
  3  7  1  0
  4  5  2  0
  5  6  1  0
  7  8  1  0
  7  9  2  0
  2 10  1  0
  4 11  1  0
  5 12  1  0
  6 13  1  0
M  CHG  1   8  -1
M  END
>  <mol_id>  (26) 
2026-09-18-3war-s0-n100-r5-0026

>  <rmsd_to_ref>  (26) 
1.6020408163321265

>  <pose_kind>  (26) 
conformer

$$$$
3war.A
     RDKit          3D

 13 13  0  0  0  0  0  0  0  0999 V2000
    1.0597   20.6570   40.9388 N   0  0  0  0  0  0  0  0  0  0  0  0
    1.6401   19.7820   39.9893 C   0  0  0  0  0  0  0  0  0  0  0  0
    2.6545   20.3317   39.1243 C   0  0  0  0  0  0  0  0  0  0  0  0
    3.0134   21.6649   39.2126 C   0  0  0  0  0  0  0  0  0  0  0  0
    2.4408   22.4731   40.1701 C   0  0  0  0  0  0  0  0  0  0  0  0
    1.4573   21.9683   40.9909 C   0  0  0  0  0  0  0  0  0  0  0  0
    3.2515   19.4742   38.0184 C   0  0  0  0  0  0  0  0  0  0  0  0
    3.0371   18.2267   38.0418 O   0  0  0  0  0  0  0  0  0  0  0  0
    3.8876   20.0876   37.1887 O   0  0  0  0  0  0  0  0  0  0  0  0
    1.3310   18.7290   39.9147 H   0  0  0  0  0  0  0  0  0  0  0  0
    3.7574   22.0804   38.5170 H   0  0  0  0  0  0  0  0  0  0  0  0
    2.7681   23.5177   40.2786 H   0  0  0  0  0  0  0  0  0  0  0  0
    0.9733   22.6409   41.7142 H   0  0  0  0  0  0  0  0  0  0  0  0
  1  2  1  0
  1  6  2  0
  2  3  2  0
  3  4  1  0
  3  7  1  0
  4  5  2  0
  5  6  1  0
  7  8  1  0
  7  9  2  0
  2 10  1  0
  4 11  1  0
  5 12  1  0
  6 13  1  0
M  CHG  1   8  -1
M  END
>  <mol_id>  (27) 
2026-09-18-3war-s0-n100-r5-0027

>  <rmsd_to_ref>  (27) 
1.647959183674367

>  <pose_kind>  (27) 
rigid

$$$$
3war.A
     RDKit          3D

 13 13  0  0  0  0  0  0  0  0999 V2000
    0.5988   19.2318   39.7162 N   0  0  0  0  0  0  0  0  0  0  0  0
    1.7436   18.7815   39.1571 C   0  0  0  0  0  0  0  0  0  0  0  0
    2.2857   19.4057   38.0515 C   0  0  0  0  0  0  0  0  0  0  0  0
    1.6353   20.5173   37.5100 C   0  0  0  0  0  0  0  0  0  0  0  0
    0.4843   20.9471   38.0951 C   0  0  0  0  0  0  0  0  0  0  0  0
   -0.0482   20.3115   39.2037 C   0  0  0  0  0  0  0  0  0  0  0  0
    3.5330   18.8957   37.4619 C   0  0  0  0  0  0  0  0  0  0  0  0
    4.0793   19.5121   36.3604 O   0  0  0  0  0  0  0  0  0  0  0  0
    4.1394   17.8962   37.9297 O   0  0  0  0  0  0  0  0  0  0  0  0
    2.2155   17.9240   39.6013 H   0  0  0  0  0  0  0  0  0  0  0  0
    2.0603   20.9926   36.6573 H   0  0  0  0  0  0  0  0  0  0  0  0
   -0.0258   21.8157   37.6736 H   0  0  0  0  0  0  0  0  0  0  0  0
   -0.9760   20.6643   39.6690 H   0  0  0  0  0  0  0  0  0  0  0  0
  1  2  1  0
  1  6  2  0
  2  3  2  0
  3  4  1  0
  3  7  1  0
  4  5  2  0
  5  6  1  0
  7  8  1  0
  7  9  2  0
  2 10  1  0
  4 11  1  0
  5 12  1  0
  6 13  1  0
M  CHG  1   8  -1
M  END
>  <mol_id>  (28) 
2026-09-18-3war-s0-n100-r5-0028

>  <rmsd_to_ref>  (28) 
1.6938775510244615

>  <pose_kind>  (28) 
conformer

$$$$
3war.A
     RDKit          3D

 13 13  0  0  0  0  0  0  0  0999 V2000
    2.1135   18.1639   38.7361 N   0  0  0  0  0  0  0  0  0  0  0  0
    2.3660   18.9828   37.6093 C   0  0  0  0  0  0  0  0  0  0  0  0
    2.7285   20.3552   37.8632 C   0  0  0  0  0  0  0  0  0  0  0  0
    2.7951   20.8419   39.1565 C   0  0  0  0  0  0  0  0  0  0  0  0
    2.5673   20.0015   40.2241 C   0  0  0  0  0  0  0  0  0  0  0  0
    2.2016   18.6935   39.9979 C   0  0  0  0  0  0  0  0  0  0  0  0
    2.9199   21.3150   36.6983 C   0  0  0  0  0  0  0  0  0  0  0  0
    3.0110   20.8341   35.5308 O   0  0  0  0  0  0  0  0  0  0  0  0
    2.9586   22.4863   37.0077 O   0  0  0  0  0  0  0  0  0  0  0  0
    2.2890   18.5894   36.5849 H   0  0  0  0  0  0  0  0  0  0  0  0
    3.0304   21.9019   39.3327 H   0  0  0  0  0  0  0  0  0  0  0  0
    2.6772   20.3740   41.2533 H   0  0  0  0  0  0  0  0  0  0  0  0
    1.9718   18.0504   40.8602 H   0  0  0  0  0  0  0  0  0  0  0  0
  1  2  1  0
  1  6  2  0
  2  3  2  0
  3  4  1  0
  3  7  1  0
  4  5  2  0
  5  6  1  0
  7  8  1  0
  7  9  2  0
  2 10  1  0
  4 11  1  0
  5 12  1  0
  6 13  1  0
M  CHG  1   8  -1
M  END
>  <mol_id>  (29) 
2026-09-18-3war-s0-n100-r5-0029

>  <rmsd_to_ref>  (29) 
1.7397959183715455

>  <pose_kind>  (29) 
rigid

$$$$
3war.A
     RDKit          3D

 13 13  0  0  0  0  0  0  0  0999 V2000
    3.2730   19.4865   41.5818 N   0  0  0  0  0  0  0  0  0  0  0  0
    2.7604   18.8791   40.4791 C   0  0  0  0  0  0  0  0  0  0  0  0
    2.1192   19.5851   39.4817 C   0  0  0  0  0  0  0  0  0  0  0  0
    2.0053   20.9702   39.6328 C   0  0  0  0  0  0  0  0  0  0  0  0
    2.5291   21.5974   40.7613 C   0  0  0  0  0  0  0  0  0  0  0  0
    3.1583   20.8295   41.7204 C   0  0  0  0  0  0  0  0  0  0  0  0
    1.5820   18.8951   38.3122 C   0  0  0  0  0  0  0  0  0  0  0  0
    0.9419   19.6770   37.3368 O   0  0  0  0  0  0  0  0  0  0  0  0
    1.6831   17.6334   38.1694 O   0  0  0  0  0  0  0  0  0  0  0  0
    2.8463   17.8032   40.3570 H   0  0  0  0  0  0  0  0  0  0  0  0
    1.5110   21.5607   38.8761 H   0  0  0  0  0  0  0  0  0  0  0  0
    2.4496   22.6638   40.8928 H   0  0  0  0  0  0  0  0  0  0  0  0
    3.5905   21.2437   42.6246 H   0  0  0  0  0  0  0  0  0  0  0  0
  1  2  1  0
  1  6  2  0
  2  3  2  0
  3  4  1  0
  3  7  1  0
  4  5  2  0
  5  6  1  0
  7  8  1  0
  7  9  2  0
  2 10  1  0
  4 11  1  0
  5 12  1  0
  6 13  1  0
M  CHG  1   8  -1
M  END
>  <mol_id>  (30) 
2026-09-18-3war-s0-n100-r5-0030

>  <rmsd_to_ref>  (30) 
1.7857142857158257

>  <pose_kind>  (30) 
conformer

$$$$
3war.A
     RDKit          3D

 13 13  0  0  0  0  0  0  0  0999 V2000
    2.0255   17.6247   38.7702 N   0  0  0  0  0  0  0  0  0  0  0  0
    3.0044   18.3007   38.0029 C   0  0  0  0  0  0  0  0  0  0  0  0
    3.5039   19.5475   38.5276 C   0  0  0  0  0  0  0  0  0  0  0  0
    3.0170   20.0607   39.7166 C   0  0  0  0  0  0  0  0  0  0  0  0
    2.0835   19.3549   40.4434 C   0  0  0  0  0  0  0  0  0  0  0  0
    1.5827   18.1724   39.9467 C   0  0  0  0  0  0  0  0  0  0  0  0
    4.4855   20.3735   37.7097 C   0  0  0  0  0  0  0  0  0  0  0  0
    5.0401   19.8320   36.7088 O   0  0  0  0  0  0  0  0  0  0  0  0
    4.6408   21.5102   38.1009 O   0  0  0  0  0  0  0  0  0  0  0  0
    3.3682   17.8928   37.0483 H   0  0  0  0  0  0  0  0  0  0  0  0
    3.3759   21.0341   40.0823 H   0  0  0  0  0  0  0  0  0  0  0  0
    1.7395   19.7346   41.4169 H   0  0  0  0  0  0  0  0  0  0  0  0
    0.7994   17.6483   40.5140 H   0  0  0  0  0  0  0  0  0  0  0  0
  1  2  1  0
  1  6  2  0
  2  3  2  0
  3  4  1  0
  3  7  1  0
  4  5  2  0
  5  6  1  0
  7  8  1  0
  7  9  2  0
  2 10  1  0
  4 11  1  0
  5 12  1  0
  6 13  1  0
M  CHG  1   8  -1
M  END
>  <mol_id>  (31) 
2026-09-18-3war-s0-n100-r5-0031

>  <rmsd_to_ref>  (31) 
1.8316326530629665

>  <pose_kind>  (31) 
rigid

$$$$
3war.A
     RDKit          3D

 13 13  0  0  0  0  0  0  0  0999 V2000
    4.2959   18.3831   40.8073 N   0  0  0  0  0  0  0  0  0  0  0  0
    3.9775   18.5416   39.5012 C   0  0  0  0  0  0  0  0  0  0  0  0
    2.6880   18.8505   39.1088 C   0  0  0  0  0  0  0  0  0  0  0  0
    1.7050   18.9988   40.0922 C   0  0  0  0  0  0  0  0  0  0  0  0
    2.0619   18.8297   41.4320 C   0  0  0  0  0  0  0  0  0  0  0  0
    3.3694   18.5201   41.7759 C   0  0  0  0  0  0  0  0  0  0  0  0
    2.3665   19.0170   37.6934 C   0  0  0  0  0  0  0  0  0  0  0  0
    1.0627   19.3269   37.3320 O   0  0  0  0  0  0  0  0  0  0  0  0
    3.2940   18.8729   36.8265 O   0  0  0  0  0  0  0  0  0  0  0  0
    4.7584   18.4223   38.7411 H   0  0  0  0  0  0  0  0  0  0  0  0
    0.6807   19.2417   39.8173 H   0  0  0  0  0  0  0  0  0  0  0  0
    1.3292   18.9360   42.2276 H   0  0  0  0  0  0  0  0  0  0  0  0
    3.7013   18.3786   42.7893 H   0  0  0  0  0  0  0  0  0  0  0  0
  1  2  1  0
  1  6  2  0
  2  3  2  0
  3  4  1  0
  3  7  1  0
  4  5  2  0
  5  6  1  0
  7  8  1  0
  7  9  2  0
  2 10  1  0
  4 11  1  0
  5 12  1  0
  6 13  1  0
M  CHG  1   8  -1
M  END
>  <mol_id>  (32) 
2026-09-18-3war-s0-n100-r5-0032

>  <rmsd_to_ref>  (32) 
1.8775510204089514

>  <pose_kind>  (32) 
conformer

$$$$
3war.A
     RDKit          3D

 13 13  0  0  0  0  0  0  0  0999 V2000
    3.0195   17.9758   40.6530 N   0  0  0  0  0  0  0  0  0  0  0  0
    2.2916   18.1015   39.4454 C   0  0  0  0  0  0  0  0  0  0  0  0
    1.6657   19.3744   39.1857 C   0  0  0  0  0  0  0  0  0  0  0  0
    1.7590   20.4085   40.1001 C   0  0  0  0  0  0  0  0  0  0  0  0
    2.5005   20.2497   41.2502 C   0  0  0  0  0  0  0  0  0  0  0  0
    3.0882   19.0345   41.5217 C   0  0  0  0  0  0  0  0  0  0  0  0
    0.7893   19.5494   37.9544 C   0  0  0  0  0  0  0  0  0  0  0  0
    0.8341   18.6621   37.0527 O   0  0  0  0  0  0  0  0  0  0  0  0
    0.1027   20.5483   37.9587 O   0  0  0  0  0  0  0  0  0  0  0  0
    2.2070   17.2649   38.7362 H   0  0  0  0  0  0  0  0  0  0  0  0
    1.2400   21.3593   39.9084 H   0  0  0  0  0  0  0  0  0  0  0  0
    2.6227   21.0905   41.9489 H   0  0  0  0  0  0  0  0  0  0  0  0
    3.6323   18.9085   42.4694 H   0  0  0  0  0  0  0  0  0  0  0  0
  1  2  1  0
  1  6  2  0
  2  3  2  0
  3  4  1  0
  3  7  1  0
  4  5  2  0
  5  6  1  0
  7  8  1  0
  7  9  2  0
  2 10  1  0
  4 11  1  0
  5 12  1  0
  6 13  1  0
M  CHG  1   8  -1
M  END
>  <mol_id>  (33) 
2026-09-18-3war-s0-n100-r5-0033

>  <rmsd_to_ref>  (33) 
1.9234693877579514

>  <pose_kind>  (33) 
rigid

$$$$
3war.A
     RDKit          3D

 13 13  0  0  0  0  0  0  0  0999 V2000
    2.1698   19.9450   41.0411 N   0  0  0  0  0  0  0  0  0  0  0  0
    2.9465   18.9925   40.4534 C   0  0  0  0  0  0  0  0  0  0  0  0
    3.1525   19.0015   39.0899 C   0  0  0  0  0  0  0  0  0  0  0  0
    2.5645   19.9856   38.3224 C   0  0  0  0  0  0  0  0  0  0  0  0
    1.7694   20.9562   38.9446 C   0  0  0  0  0  0  0  0  0  0  0  0
    1.5814   20.9209   40.3130 C   0  0  0  0  0  0  0  0  0  0  0  0
    3.9792   17.9979   38.4178 C   0  0  0  0  0  0  0  0  0  0  0  0
    4.5997   16.9808   39.1284 O   0  0  0  0  0  0  0  0  0  0  0  0
    4.0893   18.1179   37.1591 O   0  0  0  0  0  0  0  0  0  0  0  0
    3.3994   18.2302   41.0646 H   0  0  0  0  0  0  0  0  0  0  0  0
    2.6800   20.0538   37.2666 H   0  0  0  0  0  0  0  0  0  0  0  0
    1.2977   21.7361   38.3718 H   0  0  0  0  0  0  0  0  0  0  0  0
    0.9588   21.6850   40.7818 H   0  0  0  0  0  0  0  0  0  0  0  0
  1  2  1  0
  1  6  2  0
  2  3  2  0
  3  4  1  0
  3  7  1  0
  4  5  2  0
  5  6  1  0
  7  8  1  0
  7  9  2  0
  2 10  1  0
  4 11  1  0
  5 12  1  0
  6 13  1  0
M  CHG  1   8  -1
M  END
>  <mol_id>  (34) 
2026-09-18-3war-s0-n100-r5-0034

>  <rmsd_to_ref>  (34) 
1.9693877551038073

>  <pose_kind>  (34) 
conformer

$$$$
3war.A
     RDKit          3D

 13 13  0  0  0  0  0  0  0  0999 V2000
    1.7204   18.7122   39.0868 N   0  0  0  0  0  0  0  0  0  0  0  0
    2.9978   19.2078   38.7310 C   0  0  0  0  0  0  0  0  0  0  0  0
    3.3293   20.5416   39.1673 C   0  0  0  0  0  0  0  0  0  0  0  0
    2.4170   21.3010   39.8780 C   0  0  0  0  0  0  0  0  0  0  0  0
    1.1951   20.7677   40.2252 C   0  0  0  0  0  0  0  0  0  0  0  0
    0.8561   19.5028   39.7999 C   0  0  0  0  0  0  0  0  0  0  0  0
    4.6460   21.1723   38.7391 C   0  0  0  0  0  0  0  0  0  0  0  0
    5.5325   20.4268   38.2282 O   0  0  0  0  0  0  0  0  0  0  0  0
    4.7196   22.3678   38.9250 O   0  0  0  0  0  0  0  0  0  0  0  0
    3.7065   18.6019   38.1473 H   0  0  0  0  0  0  0  0  0  0  0  0
    2.6677   22.3325   40.1664 H   0  0  0  0  0  0  0  0  0  0  0  0
    0.4930   21.3502   40.8398 H   0  0  0  0  0  0  0  0  0  0  0  0
   -0.1437   19.1125   40.0407 H   0  0  0  0  0  0  0  0  0  0  0  0
  1  2  1  0
  1  6  2  0
  2  3  2  0
  3  4  1  0
  3  7  1  0
  4  5  2  0
  5  6  1  0
  7  8  1  0
  7  9  2  0
  2 10  1  0
  4 11  1  0
  5 12  1  0
  6 13  1  0
M  CHG  1   8  -1
M  END
>  <mol_id>  (35) 
2026-09-18-3war-s0-n100-r5-0035

>  <rmsd_to_ref>  (35) 
2.0153061224537314

>  <pose_kind>  (35) 
rigid

$$$$
3war.A
     RDKit          3D

 13 13  0  0  0  0  0  0  0  0999 V2000
    3.2764   17.1581   39.8069 N   0  0  0  0  0  0  0  0  0  0  0  0
    2.5269   17.5561   38.7608 C   0  0  0  0  0  0  0  0  0  0  0  0
    2.0747   18.8549   38.6489 C   0  0  0  0  0  0  0  0  0  0  0  0
    2.3909   19.7694   39.6210 C   0  0  0  0  0  0  0  0  0  0  0  0
    3.1579   19.3807   40.7006 C   0  0  0  0  0  0  0  0  0  0  0  0
    3.5856   18.0691   40.7658 C   0  0  0  0  0  0  0  0  0  0  0  0
    1.2692   19.2466   37.5071 C   0  0  0  0  0  0  0  0  0  0  0  0
    0.9424   18.3329   36.5177 O   0  0  0  0  0  0  0  0  0  0  0  0
    0.8509   20.4280   37.3936 O   0  0  0  0  0  0  0  0  0  0  0  0
    2.2675   16.8397   37.9799 H   0  0  0  0  0  0  0  0  0  0  0  0
    2.0494   20.7790   39.5506 H   0  0  0  0  0  0  0  0  0  0  0  0
    3.4500   20.0304   41.5031 H   0  0  0  0  0  0  0  0  0  0  0  0
    4.1949   17.6986   41.5932 H   0  0  0  0  0  0  0  0  0  0  0  0
  1  2  1  0
  1  6  2  0
  2  3  2  0
  3  4  1  0
  3  7  1  0
  4  5  2  0
  5  6  1  0
  7  8  1  0
  7  9  2  0
  2 10  1  0
  4 11  1  0
  5 12  1  0
  6 13  1  0
M  CHG  1   8  -1
M  END
>  <mol_id>  (36) 
2026-09-18-3war-s0-n100-r5-0036

>  <rmsd_to_ref>  (36) 
2.0612244898008583

>  <pose_kind>  (36) 
conformer

$$$$
3war.A
     RDKit          3D

 13 13  0  0  0  0  0  0  0  0999 V2000
    4.4675   19.3777   39.9807 N   0  0  0  0  0  0  0  0  0  0  0  0
    3.5940   19.2985   38.8695 C   0  0  0  0  0  0  0  0  0  0  0  0
    2.9026   20.5059   38.4907 C   0  0  0  0  0  0  0  0  0  0  0  0
    3.0754   21.6755   39.2093 C   0  0  0  0  0  0  0  0  0  0  0  0
    3.9564   21.7129   40.2677 C   0  0  0  0  0  0  0  0  0  0  0  0
    4.6096   20.5639   40.6537 C   0  0  0  0  0  0  0  0  0  0  0  0
    1.8773   20.4699   37.3672 C   0  0  0  0  0  0  0  0  0  0  0  0
    1.8386   19.4486   36.6202 O   0  0  0  0  0  0  0  0  0  0  0  0
    1.1663   21.4492   37.2981 O   0  0  0  0  0  0  0  0  0  0  0  0
    3.4489   18.3572   38.3192 H   0  0  0  0  0  0  0  0  0  0  0  0
    2.5082   22.5772   38.9350 H   0  0  0  0  0  0  0  0  0  0  0  0
    4.1374   22.6570   40.8024 H   0  0  0  0  0  0  0  0  0  0  0  0
    5.2690   20.5988   41.5335 H   0  0  0  0  0  0  0  0  0  0  0  0
  1  2  1  0
  1  6  2  0
  2  3  2  0
  3  4  1  0
  3  7  1  0
  4  5  2  0
  5  6  1  0
  7  8  1  0
  7  9  2  0
  2 10  1  0
  4 11  1  0
  5 12  1  0
  6 13  1  0
M  CHG  1   8  -1
M  END
>  <mol_id>  (37) 
2026-09-18-3war-s0-n100-r5-0037

>  <rmsd_to_ref>  (37) 
2.1071428571440673

>  <pose_kind>  (37) 
rigid

$$$$
3war.A
     RDKit          3D

 13 13  0  0  0  0  0  0  0  0999 V2000
    1.1406   20.4130   41.0621 N   0  0  0  0  0  0  0  0  0  0  0  0
    1.8528   19.4552   40.4021 C   0  0  0  0  0  0  0  0  0  0  0  0
    1.5065   19.0724   39.1279 C   0  0  0  0  0  0  0  0  0  0  0  0
    0.4229   19.6721   38.5200 C   0  0  0  0  0  0  0  0  0  0  0  0
   -0.2952   20.6510   39.2103 C   0  0  0  0  0  0  0  0  0  0  0  0
    0.0785   21.0178   40.4984 C   0  0  0  0  0  0  0  0  0  0  0  0
    2.2680   18.0496   38.4246 C   0  0  0  0  0  0  0  0  0  0  0  0
    3.3551   17.4477   39.0340 O   0  0  0  0  0  0  0  0  0  0  0  0
    1.9354   17.7126   37.2584 O   0  0  0  0  0  0  0  0  0  0  0  0
    2.6983   18.9884   40.8784 H   0  0  0  0  0  0  0  0  0  0  0  0
    0.1018   19.4104   37.5137 H   0  0  0  0  0  0  0  0  0  0  0  0
   -1.1551   21.1492   38.7699 H   0  0  0  0  0  0  0  0  0  0  0  0
   -0.4918   21.7785   41.0149 H   0  0  0  0  0  0  0  0  0  0  0  0
  1  2  1  0
  1  6  2  0
  2  3  2  0
  3  4  1  0
  3  7  1  0
  4  5  2  0
  5  6  1  0
  7  8  1  0
  7  9  2  0
  2 10  1  0
  4 11  1  0
  5 12  1  0
  6 13  1  0
M  CHG  1   8  -1
M  END
>  <mol_id>  (38) 
2026-09-18-3war-s0-n100-r5-0038

>  <rmsd_to_ref>  (38) 
2.1530612244908554

>  <pose_kind>  (38) 
conformer

$$$$
3war.A
     RDKit          3D

 13 13  0  0  0  0  0  0  0  0999 V2000
   -0.2862   20.1864   39.9904 N   0  0  0  0  0  0  0  0  0  0  0  0
    0.9870   19.5838   39.8490 C   0  0  0  0  0  0  0  0  0  0  0  0
    2.0524   20.4119   39.3405 C   0  0  0  0  0  0  0  0  0  0  0  0
    1.8174   21.7281   38.9848 C   0  0  0  0  0  0  0  0  0  0  0  0
    0.5682   22.2805   39.1647 C   0  0  0  0  0  0  0  0  0  0  0  0
   -0.4640   21.4978   39.6312 C   0  0  0  0  0  0  0  0  0  0  0  0
    3.4212   19.8040   39.0732 C   0  0  0  0  0  0  0  0  0  0  0  0
    3.6713   18.6547   39.5413 O   0  0  0  0  0  0  0  0  0  0  0  0
    4.1620   20.4958   38.4083 O   0  0  0  0  0  0  0  0  0  0  0  0
    1.1561   18.5300   40.1153 H   0  0  0  0  0  0  0  0  0  0  0  0
    2.6295   22.3347   38.5576 H   0  0  0  0  0  0  0  0  0  0  0  0
    0.3962   23.3427   38.9366 H   0  0  0  0  0  0  0  0  0  0  0  0
   -1.4673   21.9403   39.7189 H   0  0  0  0  0  0  0  0  0  0  0  0
  1  2  1  0
  1  6  2  0
  2  3  2  0
  3  4  1  0
  3  7  1  0
  4  5  2  0
  5  6  1  0
  7  8  1  0
  7  9  2  0
  2 10  1  0
  4 11  1  0
  5 12  1  0
  6 13  1  0
M  CHG  1   8  -1
M  END
>  <mol_id>  (39) 
2026-09-18-3war-s0-n100-r5-0039

>  <rmsd_to_ref>  (39) 
2.1989795918378547

>  <pose_kind>  (39) 
rigid

$$$$
3war.A
     RDKit          3D

 13 13  0  0  0  0  0  0  0  0999 V2000
    1.3594   19.6636   40.1900 N   0  0  0  0  0  0  0  0  0  0  0  0
    2.6445   19.2277   40.0665 C   0  0  0  0  0  0  0  0  0  0  0  0
    3.5428   19.9074   39.2778 C   0  0  0  0  0  0  0  0  0  0  0  0
    3.1241   21.0401   38.6113 C   0  0  0  0  0  0  0  0  0  0  0  0
    1.8292   21.5004   38.7207 C   0  0  0  0  0  0  0  0  0  0  0  0
    0.9698   20.7761   39.5281 C   0  0  0  0  0  0  0  0  0  0  0  0
    4.9297   19.4748   39.1176 C   0  0  0  0  0  0  0  0  0  0  0  0
    5.3437   18.3230   39.7993 O   0  0  0  0  0  0  0  0  0  0  0  0
    5.6774   20.1468   38.3853 O   0  0  0  0  0  0  0  0  0  0  0  0
    2.9550   18.3558   40.5835 H   0  0  0  0  0  0  0  0  0  0  0  0
    3.8041   21.5764   37.9988 H   0  0  0  0  0  0  0  0  0  0  0  0
    1.4477   22.3714   38.2284 H   0  0  0  0  0  0  0  0  0  0  0  0
   -0.0740   21.0608   39.6779 H   0  0  0  0  0  0  0  0  0  0  0  0
  1  2  1  0
  1  6  2  0
  2  3  2  0
  3  4  1  0
  3  7  1  0
  4  5  2  0
  5  6  1  0
  7  8  1  0
  7  9  2  0
  2 10  1  0
  4 11  1  0
  5 12  1  0
  6 13  1  0
M  CHG  1   8  -1
M  END
>  <mol_id>  (40) 
2026-09-18-3war-s0-n100-r5-0040

>  <rmsd_to_ref>  (40) 
2.2448979591857166

>  <pose_kind>  (40) 
conformer

$$$$
3war.A
     RDKit          3D

 13 13  0  0  0  0  0  0  0  0999 V2000
    0.8769   19.7150   38.3502 N   0  0  0  0  0  0  0  0  0  0  0  0
    2.0718   18.9735   38.1870 C   0  0  0  0  0  0  0  0  0  0  0  0
    3.2778   19.7205   37.9288 C   0  0  0  0  0  0  0  0  0  0  0  0
    3.2467   21.0994   37.8207 C   0  0  0  0  0  0  0  0  0  0  0  0
    2.0654   21.7816   38.0135 C   0  0  0  0  0  0  0  0  0  0  0  0
    0.9019   21.0817   38.2418 C   0  0  0  0  0  0  0  0  0  0  0  0
    4.5789   18.9834   37.6484 C   0  0  0  0  0  0  0  0  0  0  0  0
    4.6349   17.7440   37.9003 O   0  0  0  0  0  0  0  0  0  0  0  0
    5.4628   19.6727   37.1871 O   0  0  0  0  0  0  0  0  0  0  0  0
    2.0798   17.8755   38.2542 H   0  0  0  0  0  0  0  0  0  0  0  0
    4.1669   21.6522   37.5803 H   0  0  0  0  0  0  0  0  0  0  0  0
    2.0518   22.8811   37.9851 H   0  0  0  0  0  0  0  0  0  0  0  0
   -0.0414   21.6388   38.3409 H   0  0  0  0  0  0  0  0  0  0  0  0
  1  2  1  0
  1  6  2  0
  2  3  2  0
  3  4  1  0
  3  7  1  0
  4  5  2  0
  5  6  1  0
  7  8  1  0
  7  9  2  0
  2 10  1  0
  4 11  1  0
  5 12  1  0
  6 13  1  0
M  CHG  1   8  -1
M  END
>  <mol_id>  (41) 
2026-09-18-3war-s0-n100-r5-0041

>  <rmsd_to_ref>  (41) 
2.2908163265308272

>  <pose_kind>  (41) 
rigid

$$$$
3war.A
     RDKit          3D

 13 13  0  0  0  0  0  0  0  0999 V2000
   -0.6513   20.5421   39.7229 N   0  0  0  0  0  0  0  0  0  0  0  0
    0.4387   19.8629   39.2858 C   0  0  0  0  0  0  0  0  0  0  0  0
    1.7129   20.3404   39.5177 C   0  0  0  0  0  0  0  0  0  0  0  0
    1.8615   21.5300   40.2073 C   0  0  0  0  0  0  0  0  0  0  0  0
    0.7446   22.2391   40.6629 C   0  0  0  0  0  0  0  0  0  0  0  0
   -0.5244   21.7145   40.4032 C   0  0  0  0  0  0  0  0  0  0  0  0
    2.8820   19.5981   39.0409 C   0  0  0  0  0  0  0  0  0  0  0  0
    4.1474   20.1108   39.2937 O   0  0  0  0  0  0  0  0  0  0  0  0
    2.7056   18.5132   38.4135 O   0  0  0  0  0  0  0  0  0  0  0  0
    0.2925   18.9236   38.7425 H   0  0  0  0  0  0  0  0  0  0  0  0
    2.8463   21.9049   40.3900 H   0  0  0  0  0  0  0  0  0  0  0  0
    0.8597   23.1787   41.2076 H   0  0  0  0  0  0  0  0  0  0  0  0
   -1.4208   22.2259   40.7351 H   0  0  0  0  0  0  0  0  0  0  0  0
  1  2  1  0
  1  6  2  0
  2  3  2  0
  3  4  1  0
  3  7  1  0
  4  5  2  0
  5  6  1  0
  7  8  1  0
  7  9  2  0
  2 10  1  0
  4 11  1  0
  5 12  1  0
  6 13  1  0
M  CHG  1   8  -1
M  END
>  <mol_id>  (42) 
2026-09-18-3war-s0-n100-r5-0042

>  <rmsd_to_ref>  (42) 
2.336734693880123

>  <pose_kind>  (42) 
conformer

$$$$
3war.A
     RDKit          3D

 13 13  0  0  0  0  0  0  0  0999 V2000
    5.0876   18.0010   39.2893 N   0  0  0  0  0  0  0  0  0  0  0  0
    4.5061   18.7789   38.2594 C   0  0  0  0  0  0  0  0  0  0  0  0
    3.3083   19.5119   38.5872 C   0  0  0  0  0  0  0  0  0  0  0  0
    2.7491   19.4259   39.8497 C   0  0  0  0  0  0  0  0  0  0  0  0
    3.3646   18.6774   40.8290 C   0  0  0  0  0  0  0  0  0  0  0  0
    4.4981   17.9567   40.5266 C   0  0  0  0  0  0  0  0  0  0  0  0
    2.5779   20.2912   37.5036 C   0  0  0  0  0  0  0  0  0  0  0  0
    3.1708   20.4923   36.4034 O   0  0  0  0  0  0  0  0  0  0  0  0
    1.4588   20.6481   37.8029 O   0  0  0  0  0  0  0  0  0  0  0  0
    4.9485   18.8223   37.2533 H   0  0  0  0  0  0  0  0  0  0  0  0
    1.8113   19.9562   40.0721 H   0  0  0  0  0  0  0  0  0  0  0  0
    2.9520   18.6557   41.8484 H   0  0  0  0  0  0  0  0  0  0  0  0
    4.9468   17.3225   41.3054 H   0  0  0  0  0  0  0  0  0  0  0  0
  1  2  1  0
  1  6  2  0
  2  3  2  0
  3  4  1  0
  3  7  1  0
  4  5  2  0
  5  6  1  0
  7  8  1  0
  7  9  2  0
  2 10  1  0
  4 11  1  0
  5 12  1  0
  6 13  1  0
M  CHG  1   8  -1
M  END
>  <mol_id>  (43) 
2026-09-18-3war-s0-n100-r5-0043

>  <rmsd_to_ref>  (43) 
2.3826530612291603

>  <pose_kind>  (43) 
rigid

$$$$
3war.A
     RDKit          3D

 13 13  0  0  0  0  0  0  0  0999 V2000
    3.5478   17.3143   38.3101 N   0  0  0  0  0  0  0  0  0  0  0  0
    3.9519   18.5192   37.8775 C   0  0  0  0  0  0  0  0  0  0  0  0
    3.0572   19.5735   37.8027 C   0  0  0  0  0  0  0  0  0  0  0  0
    1.7398   19.3390   38.1883 C   0  0  0  0  0  0  0  0  0  0  0  0
    1.3309   18.0896   38.6344 C   0  0  0  0  0  0  0  0  0  0  0  0
    2.2749   17.0851   38.6834 C   0  0  0  0  0  0  0  0  0  0  0  0
    3.5087   20.8793   37.3306 C   0  0  0  0  0  0  0  0  0  0  0  0
    2.5619   21.9021   37.2772 O   0  0  0  0  0  0  0  0  0  0  0  0
    4.6739   21.1323   36.9768 O   0  0  0  0  0  0  0  0  0  0  0  0
    4.9713   18.7152   37.5751 H   0  0  0  0  0  0  0  0  0  0  0  0
    1.0226   20.1730   38.1314 H   0  0  0  0  0  0  0  0  0  0  0  0
    0.2997   17.9552   38.9226 H   0  0  0  0  0  0  0  0  0  0  0  0
    1.9305   16.1151   39.0363 H   0  0  0  0  0  0  0  0  0  0  0  0
  1  2  1  0
  1  6  2  0
  2  3  2  0
  3  4  1  0
  3  7  1  0
  4  5  2  0
  5  6  1  0
  7  8  1  0
  7  9  2  0
  2 10  1  0
  4 11  1  0
  5 12  1  0
  6 13  1  0
M  CHG  1   8  -1
M  END
>  <mol_id>  (44) 
2026-09-18-3war-s0-n100-r5-0044

>  <rmsd_to_ref>  (44) 
2.4285714285736484

>  <pose_kind>  (44) 
conformer

$$$$
3war.A
     RDKit          3D

 13 13  0  0  0  0  0  0  0  0999 V2000
    2.4603   18.5769   39.1937 N   0  0  0  0  0  0  0  0  0  0  0  0
    2.5898   19.8666   38.6246 C   0  0  0  0  0  0  0  0  0  0  0  0
    1.7284   20.9014   39.1409 C   0  0  0  0  0  0  0  0  0  0  0  0
    0.8021   20.6230   40.1300 C   0  0  0  0  0  0  0  0  0  0  0  0
    0.7297   19.3591   40.6735 C   0  0  0  0  0  0  0  0  0  0  0  0
    1.5319   18.3556   40.1783 C   0  0  0  0  0  0  0  0  0  0  0  0
    1.7471   22.2858   38.5102 C   0  0  0  0  0  0  0  0  0  0  0  0
    2.6941   22.5752   37.7215 O   0  0  0  0  0  0  0  0  0  0  0  0
    0.8190   22.9989   38.8252 O   0  0  0  0  0  0  0  0  0  0  0  0
    3.3156   20.0704   37.8236 H   0  0  0  0  0  0  0  0  0  0  0  0
    0.1221   21.4122   40.4832 H   0  0  0  0  0  0  0  0  0  0  0  0
    0.0337   19.1525   41.4999 H   0  0  0  0  0  0  0  0  0  0  0  0
    1.4242   17.3401   40.5871 H   0  0  0  0  0  0  0  0  0  0  0  0
  1  2  1  0
  1  6  2  0
  2  3  2  0
  3  4  1  0
  3  7  1  0
  4  5  2  0
  5  6  1  0
  7  8  1  0
  7  9  2  0
  2 10  1  0
  4 11  1  0
  5 12  1  0
  6 13  1  0
M  CHG  1   8  -1
M  END
>  <mol_id>  (45) 
2026-09-18-3war-s0-n100-r5-0045

>  <rmsd_to_ref>  (45) 
2.4744897959221657

>  <pose_kind>  (45) 
rigid

$$$$
3war.A
     RDKit          3D

 13 13  0  0  0  0  0  0  0  0999 V2000
    2.4728   20.0837   41.4983 N   0  0  0  0  0  0  0  0  0  0  0  0
    2.2809   18.8596   40.9868 C   0  0  0  0  0  0  0  0  0  0  0  0
    2.1024   18.7323   39.6249 C   0  0  0  0  0  0  0  0  0  0  0  0
    2.1236   19.8573   38.8131 C   0  0  0  0  0  0  0  0  0  0  0  0
    2.3221   21.0991   39.3631 C   0  0  0  0  0  0  0  0  0  0  0  0
    2.4979   21.1903   40.7350 C   0  0  0  0  0  0  0  0  0  0  0  0
    1.8918   17.4100   39.0453 C   0  0  0  0  0  0  0  0  0  0  0  0
    1.7109   17.2694   37.6755 O   0  0  0  0  0  0  0  0  0  0  0  0
    1.8728   16.3880   39.7849 O   0  0  0  0  0  0  0  0  0  0  0  0
    2.2572   17.9627   41.5778 H   0  0  0  0  0  0  0  0  0  0  0  0
    1.9828   19.7283   37.7641 H   0  0  0  0  0  0  0  0  0  0  0  0
    2.3419   21.9881   38.7470 H   0  0  0  0  0  0  0  0  0  0  0  0
    2.6604   22.1416   41.2423 H   0  0  0  0  0  0  0  0  0  0  0  0
  1  2  1  0
  1  6  2  0
  2  3  2  0
  3  4  1  0
  3  7  1  0
  4  5  2  0
  5  6  1  0
  7  8  1  0
  7  9  2  0
  2 10  1  0
  4 11  1  0
  5 12  1  0
  6 13  1  0
M  CHG  1   8  -1
M  END
>  <mol_id>  (46) 
2026-09-18-3war-s0-n100-r5-0046

>  <rmsd_to_ref>  (46) 
2.520408163269005

>  <pose_kind>  (46) 
conformer

$$$$
3war.A
     RDKit          3D

 13 13  0  0  0  0  0  0  0  0999 V2000
    2.4288   21.1346   39.5961 N   0  0  0  0  0  0  0  0  0  0  0  0
    2.0427   20.3702   38.4690 C   0  0  0  0  0  0  0  0  0  0  0  0
    0.6551   19.9880   38.3791 C   0  0  0  0  0  0  0  0  0  0  0  0
   -0.2410   20.3375   39.3735 C   0  0  0  0  0  0  0  0  0  0  0  0
    0.1739   21.1053   40.4395 C   0  0  0  0  0  0  0  0  0  0  0  0
    1.4992   21.4621   40.5495 C   0  0  0  0  0  0  0  0  0  0  0  0
    0.1907   19.0862   37.2452 C   0  0  0  0  0  0  0  0  0  0  0  0
    0.9706   18.9010   36.2654 O   0  0  0  0  0  0  0  0  0  0  0  0
   -0.9127   18.6081   37.3972 O   0  0  0  0  0  0  0  0  0  0  0  0
    2.7692   20.0804   37.6955 H   0  0  0  0  0  0  0  0  0  0  0  0
   -1.2868   20.0018   39.3129 H   0  0  0  0  0  0  0  0  0  0  0  0
   -0.5508   21.4320   41.1999 H   0  0  0  0  0  0  0  0  0  0  0  0
    1.8239   22.0301   41.4338 H   0  0  0  0  0  0  0  0  0  0  0  0
  1  2  1  0
  1  6  2  0
  2  3  2  0
  3  4  1  0
  3  7  1  0
  4  5  2  0
  5  6  1  0
  7  8  1  0
  7  9  2  0
  2 10  1  0
  4 11  1  0
  5 12  1  0
  6 13  1  0
M  CHG  1   8  -1
M  END
>  <mol_id>  (47) 
2026-09-18-3war-s0-n100-r5-0047

>  <rmsd_to_ref>  (47) 
2.5663265306157887

>  <pose_kind>  (47) 
rigid

$$$$
3war.A
     RDKit          3D

 13 13  0  0  0  0  0  0  0  0999 V2000
    2.8666   19.7920   39.7722 N   0  0  0  0  0  0  0  0  0  0  0  0
    2.3930   19.0196   38.7780 C   0  0  0  0  0  0  0  0  0  0  0  0
    3.1666   18.8266   37.6537 C   0  0  0  0  0  0  0  0  0  0  0  0
    4.4240   19.4174   37.5351 C   0  0  0  0  0  0  0  0  0  0  0  0
    4.8787   20.2134   38.5922 C   0  0  0  0  0  0  0  0  0  0  0  0
    4.0801   20.3944   39.7184 C   0  0  0  0  0  0  0  0  0  0  0  0
    2.6628   17.9906   36.5690 C   0  0  0  0  0  0  0  0  0  0  0  0
    3.4067   17.7722   35.4261 O   0  0  0  0  0  0  0  0  0  0  0  0
    1.5211   17.4457   36.6609 O   0  0  0  0  0  0  0  0  0  0  0  0
    1.4195   18.5633   38.8721 H   0  0  0  0  0  0  0  0  0  0  0  0
    5.0320   19.2638   36.6480 H   0  0  0  0  0  0  0  0  0  0  0  0
    5.8628   20.6820   38.5111 H   0  0  0  0  0  0  0  0  0  0  0  0
    4.4162   21.0071   40.5457 H   0  0  0  0  0  0  0  0  0  0  0  0
  1  2  1  0
  1  6  2  0
  2  3  2  0
  3  4  1  0
  3  7  1  0
  4  5  2  0
  5  6  1  0
  7  8  1  0
  7  9  2  0
  2 10  1  0
  4 11  1  0
  5 12  1  0
  6 13  1  0
M  CHG  1   8  -1
M  END
>  <mol_id>  (48) 
2026-09-18-3war-s0-n100-r5-0048

>  <rmsd_to_ref>  (48) 
2.6122448979596102

>  <pose_kind>  (48) 
conformer

$$$$
3war.A
     RDKit          3D

 13 13  0  0  0  0  0  0  0  0999 V2000
    1.5807   20.0360   41.2251 N   0  0  0  0  0  0  0  0  0  0  0  0
    2.5098   19.2562   40.4952 C   0  0  0  0  0  0  0  0  0  0  0  0
    1.9739   18.2238   39.6430 C   0  0  0  0  0  0  0  0  0  0  0  0
    0.6104   17.9998   39.5743 C   0  0  0  0  0  0  0  0  0  0  0  0
   -0.2584   18.8011   40.2821 C   0  0  0  0  0  0  0  0  0  0  0  0
    0.2384   19.7786   41.1148 C   0  0  0  0  0  0  0  0  0  0  0  0
    2.9180   17.2867   38.9045 C   0  0  0  0  0  0  0  0  0  0  0  0
    4.1455   17.5910   38.8475 O   0  0  0  0  0  0  0  0  0  0  0  0
    2.3900   16.3021   38.4344 O   0  0  0  0  0  0  0  0  0  0  0  0
    3.5931   19.4303   40.5746 H   0  0  0  0  0  0  0  0  0  0  0  0
    0.2193   17.1803   38.9534 H   0  0  0  0  0  0  0  0  0  0  0  0
   -1.3448   18.6605   40.1823 H   0  0  0  0  0  0  0  0  0  0  0  0
   -0.4668   20.3743   41.7131 H   0  0  0  0  0  0  0  0  0  0  0  0
  1  2  1  0
  1  6  2  0
  2  3  2  0
  3  4  1  0
  3  7  1  0
  4  5  2  0
  5  6  1  0
  7  8  1  0
  7  9  2  0
  2 10  1  0
  4 11  1  0
  5 12  1  0
  6 13  1  0
M  CHG  1   8  -1
M  END
>  <mol_id>  (49) 
2026-09-18-3war-s0-n100-r5-0049

>  <rmsd_to_ref>  (49) 
2.6581632653075946

>  <pose_kind>  (49) 
rigid

$$$$
3war.A
     RDKit          3D

 13 13  0  0  0  0  0  0  0  0999 V2000
   -0.2909   19.3206   39.5400 N   0  0  0  0  0  0  0  0  0  0  0  0
    0.7341   20.0691   39.1074 C   0  0  0  0  0  0  0  0  0  0  0  0
    1.6717   20.5669   40.0055 C   0  0  0  0  0  0  0  0  0  0  0  0
    1.5088   20.2635   41.3507 C   0  0  0  0  0  0  0  0  0  0  0  0
    0.4348   19.4852   41.7625 C   0  0  0  0  0  0  0  0  0  0  0  0
   -0.4732   19.0111   40.8370 C   0  0  0  0  0  0  0  0  0  0  0  0
    2.7775   21.3784   39.5113 C   0  0  0  0  0  0  0  0  0  0  0  0
    3.6904   21.8523   40.4601 O   0  0  0  0  0  0  0  0  0  0  0  0
    2.9193   21.6514   38.2783 O   0  0  0  0  0  0  0  0  0  0  0  0
    0.8334   20.2879   38.0538 H   0  0  0  0  0  0  0  0  0  0  0  0
    2.2351   20.6472   42.0599 H   0  0  0  0  0  0  0  0  0  0  0  0
    0.3071   19.2464   42.8235 H   0  0  0  0  0  0  0  0  0  0  0  0
   -1.3042   18.4061   41.1748 H   0  0  0  0  0  0  0  0  0  0  0  0
  1  2  1  0
  1  6  2  0
  2  3  2  0
  3  4  1  0
  3  7  1  0
  4  5  2  0
  5  6  1  0
  7  8  1  0
  7  9  2  0
  2 10  1  0
  4 11  1  0
  5 12  1  0
  6 13  1  0
M  CHG  1   8  -1
M  END
>  <mol_id>  (50) 
2026-09-18-3war-s0-n100-r5-0050

>  <rmsd_to_ref>  (50) 
2.7040816326559374

>  <pose_kind>  (50) 
conformer

$$$$
3war.A
     RDKit          3D

 13 13  0  0  0  0  0  0  0  0999 V2000
    3.7192   19.3853   38.6536 N   0  0  0  0  0  0  0  0  0  0  0  0
    3.1949   19.0774   37.3752 C   0  0  0  0  0  0  0  0  0  0  0  0
    1.9478   18.3546   37.3339 C   0  0  0  0  0  0  0  0  0  0  0  0
    1.3181   17.9624   38.5017 C   0  0  0  0  0  0  0  0  0  0  0  0
    1.8514   18.3074   39.7242 C   0  0  0  0  0  0  0  0  0  0  0  0
    3.0511   18.9807   39.7807 C   0  0  0  0  0  0  0  0  0  0  0  0
    1.3764   17.9076   35.9966 C   0  0  0  0  0  0  0  0  0  0  0  0
    1.8676   18.3981   34.9379 O   0  0  0  0  0  0  0  0  0  0  0  0
    0.4836   17.0914   36.0741 O   0  0  0  0  0  0  0  0  0  0  0  0
    3.7160   19.3764   36.4538 H   0  0  0  0  0  0  0  0  0  0  0  0
    0.3900   17.3739   38.4540 H   0  0  0  0  0  0  0  0  0  0  0  0
    1.3207   18.0460   40.6517 H   0  0  0  0  0  0  0  0  0  0  0  0
    3.4892   19.2020   40.7651 H   0  0  0  0  0  0  0  0  0  0  0  0
  1  2  1  0
  1  6  2  0
  2  3  2  0
  3  4  1  0
  3  7  1  0
  4  5  2  0
  5  6  1  0
  7  8  1  0
  7  9  2  0
  2 10  1  0
  4 11  1  0
  5 12  1  0
  6 13  1  0
M  CHG  1   8  -1
M  END
>  <mol_id>  (51) 
2026-09-18-3war-s0-n100-r5-0051

>  <rmsd_to_ref>  (51) 
2.7500000000003606

>  <pose_kind>  (51) 
rigid

$$$$
3war.A
     RDKit          3D

 13 13  0  0  0  0  0  0  0  0999 V2000
    0.5935   21.3074   38.9048 N   0  0  0  0  0  0  0  0  0  0  0  0
    1.0806   20.0607   38.8015 C   0  0  0  0  0  0  0  0  0  0  0  0
    1.8687   19.7033   37.7203 C   0  0  0  0  0  0  0  0  0  0  0  0
    2.1329   20.6738   36.7573 C   0  0  0  0  0  0  0  0  0  0  0  0
    1.6248   21.9605   36.8724 C   0  0  0  0  0  0  0  0  0  0  0  0
    0.8475   22.2473   37.9752 C   0  0  0  0  0  0  0  0  0  0  0  0
    2.3927   18.3442   37.6191 C   0  0  0  0  0  0  0  0  0  0  0  0
    3.1800   18.0439   36.5078 O   0  0  0  0  0  0  0  0  0  0  0  0
    2.1819   17.4476   38.4550 O   0  0  0  0  0  0  0  0  0  0  0  0
    0.8835   19.2976   39.5416 H   0  0  0  0  0  0  0  0  0  0  0  0
    2.7590   20.3966   35.8945 H   0  0  0  0  0  0  0  0  0  0  0  0
    1.8563   22.6790   36.1013 H   0  0  0  0  0  0  0  0  0  0  0  0
    0.4608   23.2622   38.0432 H   0  0  0  0  0  0  0  0  0  0  0  0
  1  2  1  0
  1  6  2  0
  2  3  2  0
  3  4  1  0
  3  7  1  0
  4  5  2  0
  5  6  1  0
  7  8  1  0
  7  9  2  0
  2 10  1  0
  4 11  1  0
  5 12  1  0
  6 13  1  0
M  CHG  1   8  -1
M  END
>  <mol_id>  (52) 
2026-09-18-3war-s0-n100-r5-0052

>  <rmsd_to_ref>  (52) 
2.795918367347124

>  <pose_kind>  (52) 
conformer

$$$$
3war.A
     RDKit          3D

 13 13  0  0  0  0  0  0  0  0999 V2000
    4.6576   21.1063   40.9612 N   0  0  0  0  0  0  0  0  0  0  0  0
    4.0955   19.9645   40.3412 C   0  0  0  0  0  0  0  0  0  0  0  0
    2.6606   19.9330   40.2013 C   0  0  0  0  0  0  0  0  0  0  0  0
    1.8798   20.9688   40.6824 C   0  0  0  0  0  0  0  0  0  0  0  0
    2.4722   22.0729   41.2550 C   0  0  0  0  0  0  0  0  0  0  0  0
    3.8395   22.1097   41.4130 C   0  0  0  0  0  0  0  0  0  0  0  0
    1.9830   18.6955   39.6318 C   0  0  0  0  0  0  0  0  0  0  0  0
    2.7018   17.8268   39.0561 O   0  0  0  0  0  0  0  0  0  0  0  0
    0.7830   18.6533   39.7972 O   0  0  0  0  0  0  0  0  0  0  0  0
    4.7257   19.1376   39.9819 H   0  0  0  0  0  0  0  0  0  0  0  0
    0.7839   20.9107   40.6075 H   0  0  0  0  0  0  0  0  0  0  0  0
    1.8553   22.9219   41.5846 H   0  0  0  0  0  0  0  0  0  0  0  0
    4.2917   22.9749   41.9199 H   0  0  0  0  0  0  0  0  0  0  0  0
  1  2  1  0
  1  6  2  0
  2  3  2  0
  3  4  1  0
  3  7  1  0
  4  5  2  0
  5  6  1  0
  7  8  1  0
  7  9  2  0
  2 10  1  0
  4 11  1  0
  5 12  1  0
  6 13  1  0
M  CHG  1   8  -1
M  END
>  <mol_id>  (53) 
2026-09-18-3war-s0-n100-r5-0053

>  <rmsd_to_ref>  (53) 
2.841836734695353

>  <pose_kind>  (53) 
rigid

$$$$
3war.A
     RDKit          3D

 13 13  0  0  0  0  0  0  0  0999 V2000
   -0.3114   17.8600   37.5705 N   0  0  0  0  0  0  0  0  0  0  0  0
    0.9339   17.7654   38.0391 C   0  0  0  0  0  0  0  0  0  0  0  0
    1.7373   18.8847   38.1143 C   0  0  0  0  0  0  0  0  0  0  0  0
    1.2107   20.0827   37.6932 C   0  0  0  0  0  0  0  0  0  0  0  0
   -0.0784   20.2131   37.2018 C   0  0  0  0  0  0  0  0  0  0  0  0
   -0.8247   19.0332   37.1590 C   0  0  0  0  0  0  0  0  0  0  0  0
    3.0965   18.7791   38.6262 C   0  0  0  0  0  0  0  0  0  0  0  0
    3.8727   19.9471   38.6822 O   0  0  0  0  0  0  0  0  0  0  0  0
    3.5721   17.6733   39.0112 O   0  0  0  0  0  0  0  0  0  0  0  0
    1.3676   16.8334   38.3754 H   0  0  0  0  0  0  0  0  0  0  0  0
    1.8299   20.9787   37.7447 H   0  0  0  0  0  0  0  0  0  0  0  0
   -0.4867   21.1561   36.8726 H   0  0  0  0  0  0  0  0  0  0  0  0
   -1.8362   19.0922   36.7818 H   0  0  0  0  0  0  0  0  0  0  0  0
  1  2  1  0
  1  6  2  0
  2  3  2  0
  3  4  1  0
  3  7  1  0
  4  5  2  0
  5  6  1  0
  7  8  1  0
  7  9  2  0
  2 10  1  0
  4 11  1  0
  5 12  1  0
  6 13  1  0
M  CHG  1   8  -1
M  END
>  <mol_id>  (54) 
2026-09-18-3war-s0-n100-r5-0054

>  <rmsd_to_ref>  (54) 
2.8877551020445655

>  <pose_kind>  (54) 
conformer

$$$$
3war.A
     RDKit          3D

 13 13  0  0  0  0  0  0  0  0999 V2000
    1.4858   18.8873   42.5972 N   0  0  0  0  0  0  0  0  0  0  0  0
    1.6401   19.9866   41.7187 C   0  0  0  0  0  0  0  0  0  0  0  0
    1.1059   19.8428   40.3871 C   0  0  0  0  0  0  0  0  0  0  0  0
    0.4966   18.6650   39.9924 C   0  0  0  0  0  0  0  0  0  0  0  0
    0.3447   17.6307   40.8896 C   0  0  0  0  0  0  0  0  0  0  0  0
    0.8661   17.7453   42.1588 C   0  0  0  0  0  0  0  0  0  0  0  0
    1.3207   20.9467   39.3624 C   0  0  0  0  0  0  0  0  0  0  0  0
    1.7354   22.0720   39.7680 O   0  0  0  0  0  0  0  0  0  0  0  0
    1.0758   20.6309   38.2181 O   0  0  0  0  0  0  0  0  0  0  0  0
    2.1455   20.9100   42.0380 H   0  0  0  0  0  0  0  0  0  0  0  0
    0.1328   18.5543   38.9602 H   0  0  0  0  0  0  0  0  0  0  0  0
   -0.1911   16.7169   40.5932 H   0  0  0  0  0  0  0  0  0  0  0  0
    0.7827   16.8901   42.8456 H   0  0  0  0  0  0  0  0  0  0  0  0
  1  2  1  0
  1  6  2  0
  2  3  2  0
  3  4  1  0
  3  7  1  0
  4  5  2  0
  5  6  1  0
  7  8  1  0
  7  9  2  0
  2 10  1  0
  4 11  1  0
  5 12  1  0
  6 13  1  0
M  CHG  1   8  -1
M  END
>  <mol_id>  (55) 
2026-09-18-3war-s0-n100-r5-0055

>  <rmsd_to_ref>  (55) 
2.933673469388646

>  <pose_kind>  (55) 
rigid

$$$$
3war.A
     RDKit          3D

 13 13  0  0  0  0  0  0  0  0999 V2000
    5.5230   20.7301   37.8521 N   0  0  0  0  0  0  0  0  0  0  0  0
    4.5394   20.3308   37.0212 C   0  0  0  0  0  0  0  0  0  0  0  0
    3.2433   20.2966   37.5115 C   0  0  0  0  0  0  0  0  0  0  0  0
    2.9916   20.6673   38.8232 C   0  0  0  0  0  0  0  0  0  0  0  0
    4.0374   21.0689   39.6327 C   0  0  0  0  0  0  0  0  0  0  0  0
    5.3346   21.0998   39.1312 C   0  0  0  0  0  0  0  0  0  0  0  0
    2.1726   19.8678   36.6255 C   0  0  0  0  0  0  0  0  0  0  0  0
    0.8605   19.8372   37.1349 O   0  0  0  0  0  0  0  0  0  0  0  0
    2.3509   19.5223   35.4291 O   0  0  0  0  0  0  0  0  0  0  0  0
    4.7422   20.0456   36.0081 H   0  0  0  0  0  0  0  0  0  0  0  0
    1.9721   20.6334   39.1861 H   0  0  0  0  0  0  0  0  0  0  0  0
    3.8126   21.3534   40.6539 H   0  0  0  0  0  0  0  0  0  0  0  0
    6.1634   21.4167   39.7683 H   0  0  0  0  0  0  0  0  0  0  0  0
  1  2  1  0
  1  6  2  0
  2  3  2  0
  3  4  1  0
  3  7  1  0
  4  5  2  0
  5  6  1  0
  7  8  1  0
  7  9  2  0
  2 10  1  0
  4 11  1  0
  5 12  1  0
  6 13  1  0
M  CHG  1   8  -1
M  END
>  <mol_id>  (56) 
2026-09-18-3war-s0-n100-r5-0056

>  <rmsd_to_ref>  (56) 
2.9795918367367973

>  <pose_kind>  (56) 
conformer

$$$$
3war.A
     RDKit          3D

 13 13  0  0  0  0  0  0  0  0999 V2000
    1.1225   20.2040   38.5266 N   0  0  0  0  0  0  0  0  0  0  0  0
    0.7653   19.1585   37.6415 C   0  0  0  0  0  0  0  0  0  0  0  0
    1.8335   18.3304   37.1388 C   0  0  0  0  0  0  0  0  0  0  0  0
    3.1476   18.5775   37.4939 C   0  0  0  0  0  0  0  0  0  0  0  0
    3.4458   19.5897   38.3796 C   0  0  0  0  0  0  0  0  0  0  0  0
    2.4395   20.4012   38.8536 C   0  0  0  0  0  0  0  0  0  0  0  0
    1.5333   17.2503   36.1102 C   0  0  0  0  0  0  0  0  0  0  0  0
    0.3254   16.9288   35.9099 O   0  0  0  0  0  0  0  0  0  0  0  0
    2.5095   16.7927   35.5561 O   0  0  0  0  0  0  0  0  0  0  0  0
   -0.2811   18.9853   37.3500 H   0  0  0  0  0  0  0  0  0  0  0  0
    3.9558   17.9647   37.0682 H   0  0  0  0  0  0  0  0  0  0  0  0
    4.4838   19.7491   38.7069 H   0  0  0  0  0  0  0  0  0  0  0  0
    2.7014   21.2376   39.5183 H   0  0  0  0  0  0  0  0  0  0  0  0
  1  2  1  0
  1  6  2  0
  2  3  2  0
  3  4  1  0
  3  7  1  0
  4  5  2  0
  5  6  1  0
  7  8  1  0
  7  9  2  0
  2 10  1  0
  4 11  1  0
  5 12  1  0
  6 13  1  0
M  CHG  1   8  -1
M  END
>  <mol_id>  (57) 
2026-09-18-3war-s0-n100-r5-0057

>  <rmsd_to_ref>  (57) 
3.0255102040844677

>  <pose_kind>  (57) 
rigid

$$$$
3war.A
     RDKit          3D

 13 13  0  0  0  0  0  0  0  0999 V2000
   -0.5515   20.1952   37.9096 N   0  0  0  0  0  0  0  0  0  0  0  0
   -0.1661   18.9535   37.5550 C   0  0  0  0  0  0  0  0  0  0  0  0
    1.1287   18.5355   37.7927 C   0  0  0  0  0  0  0  0  0  0  0  0
    2.0196   19.3898   38.3910 C   0  0  0  0  0  0  0  0  0  0  0  0
    1.6069   20.6768   38.7545 C   0  0  0  0  0  0  0  0  0  0  0  0
    0.3041   21.0696   38.5048 C   0  0  0  0  0  0  0  0  0  0  0  0
    1.5328   17.1947   37.4061 C   0  0  0  0  0  0  0  0  0  0  0  0
    0.6283   16.3317   36.8003 O   0  0  0  0  0  0  0  0  0  0  0  0
    2.7091   16.7959   37.6148 O   0  0  0  0  0  0  0  0  0  0  0  0
   -0.8474   18.2466   37.0770 H   0  0  0  0  0  0  0  0  0  0  0  0
    3.0530   19.0784   38.5892 H   0  0  0  0  0  0  0  0  0  0  0  0
    2.2600   21.3820   39.2231 H   0  0  0  0  0  0  0  0  0  0  0  0
   -0.0380   22.0675   38.7798 H   0  0  0  0  0  0  0  0  0  0  0  0
  1  2  1  0
  1  6  2  0
  2  3  2  0
  3  4  1  0
  3  7  1  0
  4  5  2  0
  5  6  1  0
  7  8  1  0
  7  9  2  0
  2 10  1  0
  4 11  1  0
  5 12  1  0
  6 13  1  0
M  CHG  1   8  -1
M  END
>  <mol_id>  (58) 
2026-09-18-3war-s0-n100-r5-0058

>  <rmsd_to_ref>  (58) 
3.0714285714307334

>  <pose_kind>  (58) 
conformer

$$$$
3war.A
     RDKit          3D

 13 13  0  0  0  0  0  0  0  0999 V2000
    2.7225   18.7178   38.5494 N   0  0  0  0  0  0  0  0  0  0  0  0
    3.5119   19.8877   38.6586 C   0  0  0  0  0  0  0  0  0  0  0  0
    3.5443   20.7668   37.5160 C   0  0  0  0  0  0  0  0  0  0  0  0
    2.8507   20.4520   36.3610 C   0  0  0  0  0  0  0  0  0  0  0  0
    2.0735   19.3157   36.3093 C   0  0  0  0  0  0  0  0  0  0  0  0
    2.0472   18.4565   37.3849 C   0  0  0  0  0  0  0  0  0  0  0  0
    4.4469   21.9915   37.5290 C   0  0  0  0  0  0  0  0  0  0  0  0
    4.9519   22.3554   38.6314 O   0  0  0  0  0  0  0  0  0  0  0  0
    4.6094   22.5130   36.4470 O   0  0  0  0  0  0  0  0  0  0  0  0
    4.0759   20.1163   39.5749 H   0  0  0  0  0  0  0  0  0  0  0  0
    2.9199   21.1103   35.4825 H   0  0  0  0  0  0  0  0  0  0  0  0
    1.4763   19.0956   35.4121 H   0  0  0  0  0  0  0  0  0  0  0  0
    1.4637   17.5273   37.3072 H   0  0  0  0  0  0  0  0  0  0  0  0
  1  2  1  0
  1  6  2  0
  2  3  2  0
  3  4  1  0
  3  7  1  0
  4  5  2  0
  5  6  1  0
  7  8  1  0
  7  9  2  0
  2 10  1  0
  4 11  1  0
  5 12  1  0
  6 13  1  0
M  CHG  1   8  -1
M  END
>  <mol_id>  (59) 
2026-09-18-3war-s0-n100-r5-0059

>  <rmsd_to_ref>  (59) 
3.117346938777532

>  <pose_kind>  (59) 
rigid

$$$$
3war.A
     RDKit          3D

 13 13  0  0  0  0  0  0  0  0999 V2000
    3.7430   19.8075   38.7899 N   0  0  0  0  0  0  0  0  0  0  0  0
    3.0890   18.6271   38.6823 C   0  0  0  0  0  0  0  0  0  0  0  0
    2.1866   18.4087   37.6739 C   0  0  0  0  0  0  0  0  0  0  0  0
    1.9625   19.4409   36.7610 C   0  0  0  0  0  0  0  0  0  0  0  0
    2.6175   20.6510   36.8518 C   0  0  0  0  0  0  0  0  0  0  0  0
    3.5131   20.8061   37.8901 C   0  0  0  0  0  0  0  0  0  0  0  0
    1.4744   17.1442   37.5441 C   0  0  0  0  0  0  0  0  0  0  0  0
    0.5704   16.9771   36.5023 O   0  0  0  0  0  0  0  0  0  0  0  0
    1.6924   16.2249   38.3804 O   0  0  0  0  0  0  0  0  0  0  0  0
    3.3114   17.8777   39.4206 H   0  0  0  0  0  0  0  0  0  0  0  0
    1.2483   19.2749   35.9588 H   0  0  0  0  0  0  0  0  0  0  0  0
    2.4602   21.4527   36.1639 H   0  0  0  0  0  0  0  0  0  0  0  0
    4.0598   21.7190   38.0250 H   0  0  0  0  0  0  0  0  0  0  0  0
  1  2  1  0
  1  6  2  0
  2  3  2  0
  3  4  1  0
  3  7  1  0
  4  5  2  0
  5  6  1  0
  7  8  1  0
  7  9  2  0
  2 10  1  0
  4 11  1  0
  5 12  1  0
  6 13  1  0
M  CHG  1   8  -1
M  END
>  <mol_id>  (60) 
2026-09-18-3war-s0-n100-r5-0060

>  <rmsd_to_ref>  (60) 
3.163265306125847

>  <pose_kind>  (60) 
conformer

$$$$
3war.A
     RDKit          3D

 13 13  0  0  0  0  0  0  0  0999 V2000
    6.2578   20.9413   39.7917 N   0  0  0  0  0  0  0  0  0  0  0  0
    5.3202   21.2602   38.7801 C   0  0  0  0  0  0  0  0  0  0  0  0
    4.1211   20.4613   38.7211 C   0  0  0  0  0  0  0  0  0  0  0  0
    3.9238   19.4148   39.6042 C   0  0  0  0  0  0  0  0  0  0  0  0
    4.8513   19.1576   40.5899 C   0  0  0  0  0  0  0  0  0  0  0  0
    6.0101   19.8991   40.6476 C   0  0  0  0  0  0  0  0  0  0  0  0
    3.1164   20.6866   37.6011 C   0  0  0  0  0  0  0  0  0  0  0  0
    3.2231   21.7342   36.8983 O   0  0  0  0  0  0  0  0  0  0  0  0
    2.2891   19.8093   37.4781 O   0  0  0  0  0  0  0  0  0  0  0  0
    5.4984   22.0814   38.0703 H   0  0  0  0  0  0  0  0  0  0  0  0
    3.0247   18.7869   39.5192 H   0  0  0  0  0  0  0  0  0  0  0  0
    4.6669   18.3631   41.3278 H   0  0  0  0  0  0  0  0  0  0  0  0
    6.7641   19.6462   41.4076 H   0  0  0  0  0  0  0  0  0  0  0  0
  1  2  1  0
  1  6  2  0
  2  3  2  0
  3  4  1  0
  3  7  1  0
  4  5  2  0
  5  6  1  0
  7  8  1  0
  7  9  2  0
  2 10  1  0
  4 11  1  0
  5 12  1  0
  6 13  1  0
M  CHG  1   8  -1
M  END
>  <mol_id>  (61) 
2026-09-18-3war-s0-n100-r5-0061

>  <rmsd_to_ref>  (61) 
3.209183673469568

>  <pose_kind>  (61) 
rigid

$$$$
3war.A
     RDKit          3D

 13 13  0  0  0  0  0  0  0  0999 V2000
    3.2106   18.3186   39.6226 N   0  0  0  0  0  0  0  0  0  0  0  0
    3.6682   19.5307   39.9998 C   0  0  0  0  0  0  0  0  0  0  0  0
    2.7790   20.4845   40.4743 C   0  0  0  0  0  0  0  0  0  0  0  0
    1.4313   20.1752   40.5530 C   0  0  0  0  0  0  0  0  0  0  0  0
    0.9855   18.9087   40.1543 C   0  0  0  0  0  0  0  0  0  0  0  0
    1.9012   17.9903   39.6890 C   0  0  0  0  0  0  0  0  0  0  0  0
    3.2907   21.7884   40.8773 C   0  0  0  0  0  0  0  0  0  0  0  0
    2.3932   22.7389   41.3518 O   0  0  0  0  0  0  0  0  0  0  0  0
    4.5032   22.1089   40.8218 O   0  0  0  0  0  0  0  0  0  0  0  0
    4.7297   19.7193   39.9177 H   0  0  0  0  0  0  0  0  0  0  0  0
    0.7171   20.9056   40.9211 H   0  0  0  0  0  0  0  0  0  0  0  0
   -0.0870   18.6684   40.2191 H   0  0  0  0  0  0  0  0  0  0  0  0
    1.5959   16.9982   39.3704 H   0  0  0  0  0  0  0  0  0  0  0  0
  1  2  1  0
  1  6  2  0
  2  3  2  0
  3  4  1  0
  3  7  1  0
  4  5  2  0
  5  6  1  0
  7  8  1  0
  7  9  2  0
  2 10  1  0
  4 11  1  0
  5 12  1  0
  6 13  1  0
M  CHG  1   8  -1
M  END
>  <mol_id>  (62) 
2026-09-18-3war-s0-n100-r5-0062

>  <rmsd_to_ref>  (62) 
3.2551020408179374

>  <pose_kind>  (62) 
conformer

$$$$
3war.A
     RDKit          3D

 13 13  0  0  0  0  0  0  0  0999 V2000
    1.1332   23.3928   39.2144 N   0  0  0  0  0  0  0  0  0  0  0  0
    0.8512   22.0201   39.0145 C   0  0  0  0  0  0  0  0  0  0  0  0
    1.9092   21.2049   38.4709 C   0  0  0  0  0  0  0  0  0  0  0  0
    3.1316   21.7612   38.1387 C   0  0  0  0  0  0  0  0  0  0  0  0
    3.3706   23.0971   38.3757 C   0  0  0  0  0  0  0  0  0  0  0  0
    2.3645   23.8927   38.8763 C   0  0  0  0  0  0  0  0  0  0  0  0
    1.6449   19.7434   38.1412 C   0  0  0  0  0  0  0  0  0  0  0  0
    0.5882   19.2073   38.5869 O   0  0  0  0  0  0  0  0  0  0  0  0
    2.4932   19.2174   37.4535 O   0  0  0  0  0  0  0  0  0  0  0  0
   -0.1320   21.5939   39.2629 H   0  0  0  0  0  0  0  0  0  0  0  0
    3.9142   21.1357   37.6846 H   0  0  0  0  0  0  0  0  0  0  0  0
    4.3613   23.5266   38.1657 H   0  0  0  0  0  0  0  0  0  0  0  0
    2.5553   24.9678   39.0099 H   0  0  0  0  0  0  0  0  0  0  0  0
  1  2  1  0
  1  6  2  0
  2  3  2  0
  3  4  1  0
  3  7  1  0
  4  5  2  0
  5  6  1  0
  7  8  1  0
  7  9  2  0
  2 10  1  0
  4 11  1  0
  5 12  1  0
  6 13  1  0
M  CHG  1   8  -1
M  END
>  <mol_id>  (63) 
2026-09-18-3war-s0-n100-r5-0063

>  <rmsd_to_ref>  (63) 
3.301020408163619

>  <pose_kind>  (63) 
rigid

$$$$
3war.A
     RDKit          3D

 13 13  0  0  0  0  0  0  0  0999 V2000
    4.7233   17.1867   38.4326 N   0  0  0  0  0  0  0  0  0  0  0  0
    3.8740   18.2289   38.1979 C   0  0  0  0  0  0  0  0  0  0  0  0
    3.1383   18.7364   39.2476 C   0  0  0  0  0  0  0  0  0  0  0  0
    3.2373   18.2152   40.5419 C   0  0  0  0  0  0  0  0  0  0  0  0
    4.1048   17.1605   40.7508 C   0  0  0  0  0  0  0  0  0  0  0  0
    4.8238   16.6801   39.6756 C   0  0  0  0  0  0  0  0  0  0  0  0
    2.2330   19.8502   38.9881 C   0  0  0  0  0  0  0  0  0  0  0  0
    1.4722   20.3852   40.0412 O   0  0  0  0  0  0  0  0  0  0  0  0
    2.0839   20.3765   37.8582 O   0  0  0  0  0  0  0  0  0  0  0  0
    3.8011   18.6269   37.1997 H   0  0  0  0  0  0  0  0  0  0  0  0
    2.6399   18.6425   41.3464 H   0  0  0  0  0  0  0  0  0  0  0  0
    4.2056   16.7339   41.7389 H   0  0  0  0  0  0  0  0  0  0  0  0
    5.4937   15.8523   39.8788 H   0  0  0  0  0  0  0  0  0  0  0  0
  1  2  1  0
  1  6  2  0
  2  3  2  0
  3  4  1  0
  3  7  1  0
  4  5  2  0
  5  6  1  0
  7  8  1  0
  7  9  2  0
  2 10  1  0
  4 11  1  0
  5 12  1  0
  6 13  1  0
M  CHG  1   8  -1
M  END
>  <mol_id>  (64) 
2026-09-18-3war-s0-n100-r5-0064

>  <rmsd_to_ref>  (64) 
3.3469387755145728

>  <pose_kind>  (64) 
conformer

$$$$
3war.A
     RDKit          3D

 13 13  0  0  0  0  0  0  0  0999 V2000
    0.8866   18.9124   35.6813 N   0  0  0  0  0  0  0  0  0  0  0  0
    1.8977   19.7264   36.2462 C   0  0  0  0  0  0  0  0  0  0  0  0
    1.6173   20.3276   37.5266 C   0  0  0  0  0  0  0  0  0  0  0  0
    0.3978   20.1299   38.1494 C   0  0  0  0  0  0  0  0  0  0  0  0
   -0.5467   19.3079   37.5749 C   0  0  0  0  0  0  0  0  0  0  0  0
   -0.3017   18.7419   36.3439 C   0  0  0  0  0  0  0  0  0  0  0  0
    2.6197   21.2897   38.1464 C   0  0  0  0  0  0  0  0  0  0  0  0
    3.7851   21.3439   37.6550 O   0  0  0  0  0  0  0  0  0  0  0  0
    2.1907   21.9403   39.0748 O   0  0  0  0  0  0  0  0  0  0  0  0
    2.8552   19.8930   35.7311 H   0  0  0  0  0  0  0  0  0  0  0  0
    0.1820   20.6301   39.1050 H   0  0  0  0  0  0  0  0  0  0  0  0
   -1.4930   19.1045   38.0977 H   0  0  0  0  0  0  0  0  0  0  0  0
   -1.0874   18.1311   35.8752 H   0  0  0  0  0  0  0  0  0  0  0  0
  1  2  1  0
  1  6  2  0
  2  3  2  0
  3  4  1  0
  3  7  1  0
  4  5  2  0
  5  6  1  0
  7  8  1  0
  7  9  2  0
  2 10  1  0
  4 11  1  0
  5 12  1  0
  6 13  1  0
M  CHG  1   8  -1
M  END
>  <mol_id>  (65) 
2026-09-18-3war-s0-n100-r5-0065

>  <rmsd_to_ref>  (65) 
3.39285714285807

>  <pose_kind>  (65) 
rigid

$$$$
3war.A
     RDKit          3D

 13 13  0  0  0  0  0  0  0  0999 V2000
    3.6580   19.1964   41.2618 N   0  0  0  0  0  0  0  0  0  0  0  0
    4.0815   20.4699   41.1151 C   0  0  0  0  0  0  0  0  0  0  0  0
    4.2547   20.9960   39.8510 C   0  0  0  0  0  0  0  0  0  0  0  0
    3.9974   20.2280   38.7261 C   0  0  0  0  0  0  0  0  0  0  0  0
    3.5631   18.9223   38.8801 C   0  0  0  0  0  0  0  0  0  0  0  0
    3.4011   18.4297   40.1766 C   0  0  0  0  0  0  0  0  0  0  0  0
    4.7124   22.3720   39.6854 C   0  0  0  0  0  0  0  0  0  0  0  0
    4.8957   22.9285   38.4486 O   0  0  0  0  0  0  0  0  0  0  0  0
    4.9493   23.0791   40.7159 O   0  0  0  0  0  0  0  0  0  0  0  0
    4.2993   21.1205   41.9590 H   0  0  0  0  0  0  0  0  0  0  0  0
    4.1481   20.6852   37.7595 H   0  0  0  0  0  0  0  0  0  0  0  0
    3.3714   18.3502   38.0059 H   0  0  0  0  0  0  0  0  0  0  0  0
    3.0641   17.4161   40.3227 H   0  0  0  0  0  0  0  0  0  0  0  0
  1  2  1  0
  1  6  2  0
  2  3  2  0
  3  4  1  0
  3  7  1  0
  4  5  2  0
  5  6  1  0
  7  8  1  0
  7  9  2  0
  2 10  1  0
  4 11  1  0
  5 12  1  0
  6 13  1  0
M  CHG  1   8  -1
M  END
>  <mol_id>  (66) 
2026-09-18-3war-s0-n100-r5-0066

>  <rmsd_to_ref>  (66) 
3.4387755102063626

>  <pose_kind>  (66) 
conformer

$$$$
3war.A
     RDKit          3D

 13 13  0  0  0  0  0  0  0  0999 V2000
    3.0089   21.9053   41.0270 N   0  0  0  0  0  0  0  0  0  0  0  0
    3.6040   22.6701   39.9951 C   0  0  0  0  0  0  0  0  0  0  0  0
    4.4748   21.9737   39.0807 C   0  0  0  0  0  0  0  0  0  0  0  0
    4.7289   20.6225   39.2357 C   0  0  0  0  0  0  0  0  0  0  0  0
    4.1064   19.9126   40.2389 C   0  0  0  0  0  0  0  0  0  0  0  0
    3.2872   20.5667   41.1315 C   0  0  0  0  0  0  0  0  0  0  0  0
    5.2222   22.7509   38.0074 C   0  0  0  0  0  0  0  0  0  0  0  0
    4.8703   23.9442   37.7732 O   0  0  0  0  0  0  0  0  0  0  0  0
    6.1180   22.1375   37.4684 O   0  0  0  0  0  0  0  0  0  0  0  0
    3.4107   23.7483   39.8951 H   0  0  0  0  0  0  0  0  0  0  0  0
    5.4294   20.1142   38.5568 H   0  0  0  0  0  0  0  0  0  0  0  0
    4.2631   18.8273   40.3263 H   0  0  0  0  0  0  0  0  0  0  0  0
    2.8400   19.9950   41.9581 H   0  0  0  0  0  0  0  0  0  0  0  0
  1  2  1  0
  1  6  2  0
  2  3  2  0
  3  4  1  0
  3  7  1  0
  4  5  2  0
  5  6  1  0
  7  8  1  0
  7  9  2  0
  2 10  1  0
  4 11  1  0
  5 12  1  0
  6 13  1  0
M  CHG  1   8  -1
M  END
>  <mol_id>  (67) 
2026-09-18-3war-s0-n100-r5-0067

>  <rmsd_to_ref>  (67) 
3.484693877552686

>  <pose_kind>  (67) 
rigid

$$$$
3war.A
     RDKit          3D

 13 13  0  0  0  0  0  0  0  0999 V2000
    2.1407   18.1396   37.1405 N   0  0  0  0  0  0  0  0  0  0  0  0
    1.3267   19.2232   37.1175 C   0  0  0  0  0  0  0  0  0  0  0  0
    0.6105   19.5369   38.2358 C   0  0  0  0  0  0  0  0  0  0  0  0
    0.7121   18.7625   39.3764 C   0  0  0  0  0  0  0  0  0  0  0  0
    1.5503   17.6470   39.3995 C   0  0  0  0  0  0  0  0  0  0  0  0
    2.2583   17.3655   38.2430 C   0  0  0  0  0  0  0  0  0  0  0  0
   -0.2724   20.6926   38.2457 C   0  0  0  0  0  0  0  0  0  0  0  0
   -0.3888   21.4886   37.1015 O   0  0  0  0  0  0  0  0  0  0  0  0
   -0.9424   21.0004   39.2664 O   0  0  0  0  0  0  0  0  0  0  0  0
    1.2790   19.7929   36.2151 H   0  0  0  0  0  0  0  0  0  0  0  0
    0.1387   19.0247   40.2520 H   0  0  0  0  0  0  0  0  0  0  0  0
    1.6576   17.0210   40.2626 H   0  0  0  0  0  0  0  0  0  0  0  0
    2.9365   16.5187   38.1625 H   0  0  0  0  0  0  0  0  0  0  0  0
  1  2  1  0
  1  6  2  0
  2  3  2  0
  3  4  1  0
  3  7  1  0
  4  5  2  0
  5  6  1  0
  7  8  1  0
  7  9  2  0
  2 10  1  0
  4 11  1  0
  5 12  1  0
  6 13  1  0
M  CHG  1   8  -1
M  END
>  <mol_id>  (68) 
2026-09-18-3war-s0-n100-r5-0068

>  <rmsd_to_ref>  (68) 
3.530612244901102

>  <pose_kind>  (68) 
conformer

$$$$
3war.A
     RDKit          3D

 13 13  0  0  0  0  0  0  0  0999 V2000
    2.7633   18.3476   37.3566 N   0  0  0  0  0  0  0  0  0  0  0  0
    3.1045   19.6254   37.8616 C   0  0  0  0  0  0  0  0  0  0  0  0
    2.8634   20.7571   37.0011 C   0  0  0  0  0  0  0  0  0  0  0  0
    2.3467   20.5820   35.7297 C   0  0  0  0  0  0  0  0  0  0  0  0
    2.0042   19.3221   35.2900 C   0  0  0  0  0  0  0  0  0  0  0  0
    2.2459   18.2295   36.0923 C   0  0  0  0  0  0  0  0  0  0  0  0
    3.2945   22.1480   37.4418 C   0  0  0  0  0  0  0  0  0  0  0  0
    3.6186   22.3222   38.6531 O   0  0  0  0  0  0  0  0  0  0  0  0
    3.2960   22.9810   36.5613 O   0  0  0  0  0  0  0  0  0  0  0  0
    3.5346   19.7495   38.8664 H   0  0  0  0  0  0  0  0  0  0  0  0
    2.2089   21.4504   35.0687 H   0  0  0  0  0  0  0  0  0  0  0  0
    1.5396   19.1895   34.3018 H   0  0  0  0  0  0  0  0  0  0  0  0
    2.0156   17.2260   35.7051 H   0  0  0  0  0  0  0  0  0  0  0  0
  1  2  1  0
  1  6  2  0
  2  3  2  0
  3  4  1  0
  3  7  1  0
  4  5  2  0
  5  6  1  0
  7  8  1  0
  7  9  2  0
  2 10  1  0
  4 11  1  0
  5 12  1  0
  6 13  1  0
M  CHG  1   8  -1
M  END
>  <mol_id>  (69) 
2026-09-18-3war-s0-n100-r5-0069

>  <rmsd_to_ref>  (69) 
3.5765306122464584

>  <pose_kind>  (69) 
rigid

$$$$
3war.A
     RDKit          3D

 13 13  0  0  0  0  0  0  0  0999 V2000
    3.3814   17.1749   38.6567 N   0  0  0  0  0  0  0  0  0  0  0  0
    4.1213   17.7600   39.6087 C   0  0  0  0  0  0  0  0  0  0  0  0
    3.5561   18.8006   40.3028 C   0  0  0  0  0  0  0  0  0  0  0  0
    2.2696   19.2643   40.0626 C   0  0  0  0  0  0  0  0  0  0  0  0
    1.5408   18.6336   39.0731 C   0  0  0  0  0  0  0  0  0  0  0  0
    2.1117   17.5880   38.3772 C   0  0  0  0  0  0  0  0  0  0  0  0
    4.3236   19.4572   41.3377 C   0  0  0  0  0  0  0  0  0  0  0  0
    5.6272   19.0521   41.6429 O   0  0  0  0  0  0  0  0  0  0  0  0
    3.8754   20.4176   42.0173 O   0  0  0  0  0  0  0  0  0  0  0  0
    5.1290   17.4355   39.8337 H   0  0  0  0  0  0  0  0  0  0  0  0
    1.8219   20.0764   40.6009 H   0  0  0  0  0  0  0  0  0  0  0  0
    0.5544   18.9808   38.8811 H   0  0  0  0  0  0  0  0  0  0  0  0
    1.5476   17.0719   37.5846 H   0  0  0  0  0  0  0  0  0  0  0  0
  1  2  1  0
  1  6  2  0
  2  3  2  0
  3  4  1  0
  3  7  1  0
  4  5  2  0
  5  6  1  0
  7  8  1  0
  7  9  2  0
  2 10  1  0
  4 11  1  0
  5 12  1  0
  6 13  1  0
M  CHG  1   8  -1
M  END
>  <mol_id>  (70) 
2026-09-18-3war-s0-n100-r5-0070

>  <rmsd_to_ref>  (70) 
3.622448979592918

>  <pose_kind>  (70) 
conformer

$$$$
3war.A
     RDKit          3D

 13 13  0  0  0  0  0  0  0  0999 V2000
    4.4637   22.3688   38.8106 N   0  0  0  0  0  0  0  0  0  0  0  0
    3.4860   21.3450   38.8187 C   0  0  0  0  0  0  0  0  0  0  0  0
    2.3267   21.5510   39.6513 C   0  0  0  0  0  0  0  0  0  0  0  0
    2.2039   22.6923   40.4236 C   0  0  0  0  0  0  0  0  0  0  0  0
    3.1678   23.6748   40.3636 C   0  0  0  0  0  0  0  0  0  0  0  0
    4.2896   23.4846   39.5883 C   0  0  0  0  0  0  0  0  0  0  0  0
    1.2839   20.4509   39.7817 C   0  0  0  0  0  0  0  0  0  0  0  0
    1.3208   19.4863   38.9628 O   0  0  0  0  0  0  0  0  0  0  0  0
    0.4980   20.6028   40.6920 O   0  0  0  0  0  0  0  0  0  0  0  0
    3.6053   20.4324   38.2163 H   0  0  0  0  0  0  0  0  0  0  0  0
    1.3350   22.8155   41.0867 H   0  0  0  0  0  0  0  0  0  0  0  0
    3.0417   24.6075   40.9329 H   0  0  0  0  0  0  0  0  0  0  0  0
    5.0743   24.2555   39.5929 H   0  0  0  0  0  0  0  0  0  0  0  0
  1  2  1  0
  1  6  2  0
  2  3  2  0
  3  4  1  0
  3  7  1  0
  4  5  2  0
  5  6  1  0
  7  8  1  0
  7  9  2  0
  2 10  1  0
  4 11  1  0
  5 12  1  0
  6 13  1  0
M  CHG  1   8  -1
M  END
>  <mol_id>  (71) 
2026-09-18-3war-s0-n100-r5-0071

>  <rmsd_to_ref>  (71) 
3.66836734693975

>  <pose_kind>  (71) 
rigid

$$$$
3war.A
     RDKit          3D

 13 13  0  0  0  0  0  0  0  0999 V2000
    2.9864   21.7522   36.8603 N   0  0  0  0  0  0  0  0  0  0  0  0
    4.0980   21.3227   37.5013 C   0  0  0  0  0  0  0  0  0  0  0  0
    4.1216   21.3701   38.8803 C   0  0  0  0  0  0  0  0  0  0  0  0
    3.0506   21.8398   39.6135 C   0  0  0  0  0  0  0  0  0  0  0  0
    1.9185   22.2759   38.9265 C   0  0  0  0  0  0  0  0  0  0  0  0
    1.9136   22.2200   37.5296 C   0  0  0  0  0  0  0  0  0  0  0  0
    5.3220   20.9061   39.5695 C   0  0  0  0  0  0  0  0  0  0  0  0
    5.4144   20.9254   40.9550 O   0  0  0  0  0  0  0  0  0  0  0  0
    6.3294   20.4658   38.9179 O   0  0  0  0  0  0  0  0  0  0  0  0
    4.9618   20.9459   36.9615 H   0  0  0  0  0  0  0  0  0  0  0  0
    3.0695   21.8776   40.7130 H   0  0  0  0  0  0  0  0  0  0  0  0
    1.0491   22.6540   39.4438 H   0  0  0  0  0  0  0  0  0  0  0  0
    1.0623   22.5452   36.9467 H   0  0  0  0  0  0  0  0  0  0  0  0
  1  2  1  0
  1  6  2  0
  2  3  2  0
  3  4  1  0
  3  7  1  0
  4  5  2  0
  5  6  1  0
  7  8  1  0
  7  9  2  0
  2 10  1  0
  4 11  1  0
  5 12  1  0
  6 13  1  0
M  CHG  1   8  -1
M  END
>  <mol_id>  (72) 
2026-09-18-3war-s0-n100-r5-0072

>  <rmsd_to_ref>  (72) 
3.714285714287204

>  <pose_kind>  (72) 
conformer

$$$$
3war.A
     RDKit          3D

 13 13  0  0  0  0  0  0  0  0999 V2000
    0.5540   18.7847   36.5058 N   0  0  0  0  0  0  0  0  0  0  0  0
    1.2253   19.2952   37.6429 C   0  0  0  0  0  0  0  0  0  0  0  0
    0.5977   20.3914   38.3384 C   0  0  0  0  0  0  0  0  0  0  0  0
   -0.5944   20.9275   37.8851 C   0  0  0  0  0  0  0  0  0  0  0  0
   -1.2259   20.3811   36.7894 C   0  0  0  0  0  0  0  0  0  0  0  0
   -0.6302   19.3467   36.1032 C   0  0  0  0  0  0  0  0  0  0  0  0
    1.3098   21.0508   39.5101 C   0  0  0  0  0  0  0  0  0  0  0  0
    2.3128   20.4640   40.0124 O   0  0  0  0  0  0  0  0  0  0  0  0
    0.8401   22.1134   39.8559 O   0  0  0  0  0  0  0  0  0  0  0  0
    2.1836   18.8741   37.9810 H   0  0  0  0  0  0  0  0  0  0  0  0
   -1.0389   21.7916   38.4006 H   0  0  0  0  0  0  0  0  0  0  0  0
   -2.2022   20.7697   36.4640 H   0  0  0  0  0  0  0  0  0  0  0  0
   -1.1219   18.9571   35.1995 H   0  0  0  0  0  0  0  0  0  0  0  0
  1  2  1  0
  1  6  2  0
  2  3  2  0
  3  4  1  0
  3  7  1  0
  4  5  2  0
  5  6  1  0
  7  8  1  0
  7  9  2  0
  2 10  1  0
  4 11  1  0
  5 12  1  0
  6 13  1  0
M  CHG  1   8  -1
M  END
>  <mol_id>  (73) 
2026-09-18-3war-s0-n100-r5-0073

>  <rmsd_to_ref>  (73) 
3.7602040816355617

>  <pose_kind>  (73) 
rigid

$$$$
3war.A
     RDKit          3D

 13 13  0  0  0  0  0  0  0  0999 V2000
    2.1363   19.7287   38.5433 N   0  0  0  0  0  0  0  0  0  0  0  0
    1.0493   20.5466   38.6430 C   0  0  0  0  0  0  0  0  0  0  0  0
    1.0389   21.8199   38.1211 C   0  0  0  0  0  0  0  0  0  0  0  0
    2.1649   22.3005   37.4693 C   0  0  0  0  0  0  0  0  0  0  0  0
    3.2665   21.4645   37.3713 C   0  0  0  0  0  0  0  0  0  0  0  0
    3.2460   20.1859   37.9078 C   0  0  0  0  0  0  0  0  0  0  0  0
   -0.1591   22.6460   38.2621 C   0  0  0  0  0  0  0  0  0  0  0  0
   -0.1391   23.9451   37.7174 O   0  0  0  0  0  0  0  0  0  0  0  0
   -1.1913   22.2147   38.8558 O   0  0  0  0  0  0  0  0  0  0  0  0
    0.1850   20.1279   39.1639 H   0  0  0  0  0  0  0  0  0  0  0  0
    2.1577   23.3082   37.0559 H   0  0  0  0  0  0  0  0  0  0  0  0
    4.1623   21.8104   36.8678 H   0  0  0  0  0  0  0  0  0  0  0  0
    4.1224   19.5648   37.8115 H   0  0  0  0  0  0  0  0  0  0  0  0
  1  2  1  0
  1  6  2  0
  2  3  2  0
  3  4  1  0
  3  7  1  0
  4  5  2  0
  5  6  1  0
  7  8  1  0
  7  9  2  0
  2 10  1  0
  4 11  1  0
  5 12  1  0
  6 13  1  0
M  CHG  1   8  -1
M  END
>  <mol_id>  (74) 
2026-09-18-3war-s0-n100-r5-0074

>  <rmsd_to_ref>  (74) 
3.806122448981313

>  <pose_kind>  (74) 
conformer

$$$$
3war.A
     RDKit          3D

 13 13  0  0  0  0  0  0  0  0999 V2000
    2.5628   20.5971   37.6398 N   0  0  0  0  0  0  0  0  0  0  0  0
    2.8820   21.8280   38.2621 C   0  0  0  0  0  0  0  0  0  0  0  0
    2.8311   21.8678   39.7027 C   0  0  0  0  0  0  0  0  0  0  0  0
    2.4578   20.7509   40.4288 C   0  0  0  0  0  0  0  0  0  0  0  0
    2.1816   19.5663   39.7820 C   0  0  0  0  0  0  0  0  0  0  0  0
    2.2073   19.5171   38.4062 C   0  0  0  0  0  0  0  0  0  0  0  0
    3.0685   23.1817   40.4320 C   0  0  0  0  0  0  0  0  0  0  0  0
    3.5574   24.1515   39.7815 O   0  0  0  0  0  0  0  0  0  0  0  0
    2.7479   23.1778   41.6010 O   0  0  0  0  0  0  0  0  0  0  0  0
    3.1567   22.7151   37.6726 H   0  0  0  0  0  0  0  0  0  0  0  0
    2.3814   20.8088   41.5246 H   0  0  0  0  0  0  0  0  0  0  0  0
    1.9416   18.6632   40.3624 H   0  0  0  0  0  0  0  0  0  0  0  0
    1.9327   18.5778   37.9039 H   0  0  0  0  0  0  0  0  0  0  0  0
  1  2  1  0
  1  6  2  0
  2  3  2  0
  3  4  1  0
  3  7  1  0
  4  5  2  0
  5  6  1  0
  7  8  1  0
  7  9  2  0
  2 10  1  0
  4 11  1  0
  5 12  1  0
  6 13  1  0
M  CHG  1   8  -1
M  END
>  <mol_id>  (75) 
2026-09-18-3war-s0-n100-r5-0075

>  <rmsd_to_ref>  (75) 
3.8520408163265376

>  <pose_kind>  (75) 
rigid

$$$$
3war.A
     RDKit          3D

 13 13  0  0  0  0  0  0  0  0999 V2000
    1.8133   15.8503   40.0614 N   0  0  0  0  0  0  0  0  0  0  0  0
    2.0022   17.1960   40.1079 C   0  0  0  0  0  0  0  0  0  0  0  0
    3.2665   17.6990   39.8712 C   0  0  0  0  0  0  0  0  0  0  0  0
    4.3173   16.8508   39.5929 C   0  0  0  0  0  0  0  0  0  0  0  0
    4.1176   15.4856   39.5475 C   0  0  0  0  0  0  0  0  0  0  0  0
    2.8432   15.0133   39.7883 C   0  0  0  0  0  0  0  0  0  0  0  0
    3.4867   19.1527   39.9180 C   0  0  0  0  0  0  0  0  0  0  0  0
    2.4464   20.0060   40.1944 O   0  0  0  0  0  0  0  0  0  0  0  0
    4.6640   19.5621   39.6938 O   0  0  0  0  0  0  0  0  0  0  0  0
    1.2046   17.8655   40.3208 H   0  0  0  0  0  0  0  0  0  0  0  0
    5.3205   17.1995   39.4019 H   0  0  0  0  0  0  0  0  0  0  0  0
    4.9210   14.7940   39.3319 H   0  0  0  0  0  0  0  0  0  0  0  0
    2.7102   13.9380   39.7473 H   0  0  0  0  0  0  0  0  0  0  0  0
  1  2  1  0
  1  6  2  0
  2  3  2  0
  3  4  1  0
  3  7  1  0
  4  5  2  0
  5  6  1  0
  7  8  1  0
  7  9  2  0
  2 10  1  0
  4 11  1  0
  5 12  1  0
  6 13  1  0
M  CHG  1   8  -1
M  END
>  <mol_id>  (76) 
2026-09-18-3war-s0-n100-r5-0076

>  <rmsd_to_ref>  (76) 
3.8979591836735663

>  <pose_kind>  (76) 
conformer

$$$$
3war.A
     RDKit          3D

 13 13  0  0  0  0  0  0  0  0999 V2000
   -0.8662   22.4870   40.2349 N   0  0  0  0  0  0  0  0  0  0  0  0
    0.4497   22.9922   40.3668 C   0  0  0  0  0  0  0  0  0  0  0  0
    1.5246   22.0310   40.3696 C   0  0  0  0  0  0  0  0  0  0  0  0
    1.2624   20.6759   40.2745 C   0  0  0  0  0  0  0  0  0  0  0  0
   -0.0324   20.2313   40.1208 C   0  0  0  0  0  0  0  0  0  0  0  0
   -1.0712   21.1349   40.1354 C   0  0  0  0  0  0  0  0  0  0  0  0
    2.9543   22.4956   40.6036 C   0  0  0  0  0  0  0  0  0  0  0  0
    3.2036   23.7348   40.5339 O   0  0  0  0  0  0  0  0  0  0  0  0
    3.7416   21.6079   40.8518 O   0  0  0  0  0  0  0  0  0  0  0  0
    0.6436   24.0707   40.4630 H   0  0  0  0  0  0  0  0  0  0  0  0
    2.0894   19.9521   40.3217 H   0  0  0  0  0  0  0  0  0  0  0  0
   -0.2356   19.1585   39.9868 H   0  0  0  0  0  0  0  0  0  0  0  0
   -2.1024   20.7586   40.0647 H   0  0  0  0  0  0  0  0  0  0  0  0
  1  2  1  0
  1  6  2  0
  2  3  2  0
  3  4  1  0
  3  7  1  0
  4  5  2  0
  5  6  1  0
  7  8  1  0
  7  9  2  0
  2 10  1  0
  4 11  1  0
  5 12  1  0
  6 13  1  0
M  CHG  1   8  -1
M  END
>  <mol_id>  (77) 
2026-09-18-3war-s0-n100-r5-0077

>  <rmsd_to_ref>  (77) 
3.9438775510210853

>  <pose_kind>  (77) 
rigid

$$$$
3war.A
     RDKit          3D

 13 13  0  0  0  0  0  0  0  0999 V2000
    2.1420   19.9691   37.2769 N   0  0  0  0  0  0  0  0  0  0  0  0
    2.7370   21.1781   37.2104 C   0  0  0  0  0  0  0  0  0  0  0  0
    4.0064   21.3463   36.6977 C   0  0  0  0  0  0  0  0  0  0  0  0
    4.7346   20.2735   36.2239 C   0  0  0  0  0  0  0  0  0  0  0  0
    4.1161   19.0237   36.2941 C   0  0  0  0  0  0  0  0  0  0  0  0
    2.8382   18.8881   36.8154 C   0  0  0  0  0  0  0  0  0  0  0  0
    4.6009   22.6733   36.6496 C   0  0  0  0  0  0  0  0  0  0  0  0
    3.8814   23.7777   37.1246 O   0  0  0  0  0  0  0  0  0  0  0  0
    5.7358   22.8854   36.2008 O   0  0  0  0  0  0  0  0  0  0  0  0
    2.2015   22.0580   37.5728 H   0  0  0  0  0  0  0  0  0  0  0  0
    5.7226   20.3544   35.8171 H   0  0  0  0  0  0  0  0  0  0  0  0
    4.6925   18.1874   35.9209 H   0  0  0  0  0  0  0  0  0  0  0  0
    2.3843   17.8964   36.8555 H   0  0  0  0  0  0  0  0  0  0  0  0
  1  2  1  0
  1  6  2  0
  2  3  2  0
  3  4  1  0
  3  7  1  0
  4  5  2  0
  5  6  1  0
  7  8  1  0
  7  9  2  0
  2 10  1  0
  4 11  1  0
  5 12  1  0
  6 13  1  0
M  CHG  1   8  -1
M  END
>  <mol_id>  (78) 
2026-09-18-3war-s0-n100-r5-0078

>  <rmsd_to_ref>  (78) 
3.989795918369119

>  <pose_kind>  (78) 
conformer

$$$$
3war.A
     RDKit          3D

 13 13  0  0  0  0  0  0  0  0999 V2000
   -1.7029   21.3043   38.4079 N   0  0  0  0  0  0  0  0  0  0  0  0
   -0.4744   21.1198   39.0867 C   0  0  0  0  0  0  0  0  0  0  0  0
    0.0399   19.7745   39.1591 C   0  0  0  0  0  0  0  0  0  0  0  0
   -0.6627   18.7177   38.6082 C   0  0  0  0  0  0  0  0  0  0  0  0
   -1.8415   18.9480   37.9334 C   0  0  0  0  0  0  0  0  0  0  0  0
   -2.3553   20.2239   37.8719 C   0  0  0  0  0  0  0  0  0  0  0  0
    1.3049   19.4900   39.9551 C   0  0  0  0  0  0  0  0  0  0  0  0
    2.0194   20.4693   40.3200 O   0  0  0  0  0  0  0  0  0  0  0  0
    1.5096   18.3166   40.1793 O   0  0  0  0  0  0  0  0  0  0  0  0
    0.0642   21.9655   39.5391 H   0  0  0  0  0  0  0  0  0  0  0  0
   -0.2794   17.6916   38.7093 H   0  0  0  0  0  0  0  0  0  0  0  0
   -2.3700   18.1158   37.4455 H   0  0  0  0  0  0  0  0  0  0  0  0
   -3.3238   20.3822   37.3750 H   0  0  0  0  0  0  0  0  0  0  0  0
  1  2  1  0
  1  6  2  0
  2  3  2  0
  3  4  1  0
  3  7  1  0
  4  5  2  0
  5  6  1  0
  7  8  1  0
  7  9  2  0
  2 10  1  0
  4 11  1  0
  5 12  1  0
  6 13  1  0
M  CHG  1   8  -1
M  END
>  <mol_id>  (79) 
2026-09-18-3war-s0-n100-r5-0079

>  <rmsd_to_ref>  (79) 
4.035714285715374

>  <pose_kind>  (79) 
rigid

$$$$
3war.A
     RDKit          3D

 13 13  0  0  0  0  0  0  0  0999 V2000
    1.2576   18.5788   34.7621 N   0  0  0  0  0  0  0  0  0  0  0  0
    1.9327   19.2638   35.7292 C   0  0  0  0  0  0  0  0  0  0  0  0
    1.6876   18.9495   37.0527 C   0  0  0  0  0  0  0  0  0  0  0  0
    0.7971   17.9809   37.4383 C   0  0  0  0  0  0  0  0  0  0  0  0
    0.1218   17.2969   36.4397 C   0  0  0  0  0  0  0  0  0  0  0  0
    0.3797   17.6247   35.1214 C   0  0  0  0  0  0  0  0  0  0  0  0
    2.4085   19.6809   38.0892 C   0  0  0  0  0  0  0  0  0  0  0  0
    3.3295   20.6786   37.7956 O   0  0  0  0  0  0  0  0  0  0  0  0
    2.1924   19.4019   39.3027 O   0  0  0  0  0  0  0  0  0  0  0  0
    2.6248   20.0160   35.4470 H   0  0  0  0  0  0  0  0  0  0  0  0
    0.6008   17.7299   38.4781 H   0  0  0  0  0  0  0  0  0  0  0  0
   -0.5898   16.5250   36.6919 H   0  0  0  0  0  0  0  0  0  0  0  0
   -0.1449   17.0946   34.3130 H   0  0  0  0  0  0  0  0  0  0  0  0
  1  2  1  0
  1  6  2  0
  2  3  2  0
  3  4  1  0
  3  7  1  0
  4  5  2  0
  5  6  1  0
  7  8  1  0
  7  9  2  0
  2 10  1  0
  4 11  1  0
  5 12  1  0
  6 13  1  0
M  CHG  1   8  -1
M  END
>  <mol_id>  (80) 
2026-09-18-3war-s0-n100-r5-0080

>  <rmsd_to_ref>  (80) 
4.081632653063409

>  <pose_kind>  (80) 
conformer

$$$$
3war.A
     RDKit          3D

 13 13  0  0  0  0  0  0  0  0999 V2000
    4.6703   23.4082   36.4471 N   0  0  0  0  0  0  0  0  0  0  0  0
    3.7057   22.3958   36.2269 C   0  0  0  0  0  0  0  0  0  0  0  0
    3.5621   21.3918   37.2520 C   0  0  0  0  0  0  0  0  0  0  0  0
    4.3594   21.4155   38.3824 C   0  0  0  0  0  0  0  0  0  0  0  0
    5.2669   22.4355   38.5672 C   0  0  0  0  0  0  0  0  0  0  0  0
    5.4292   23.3909   37.5891 C   0  0  0  0  0  0  0  0  0  0  0  0
    2.6132   20.2220   37.0377 C   0  0  0  0  0  0  0  0  0  0  0  0
    1.7822   20.2878   36.0849 O   0  0  0  0  0  0  0  0  0  0  0  0
    2.7542   19.3053   37.8181 O   0  0  0  0  0  0  0  0  0  0  0  0
    3.0925   22.3758   35.3139 H   0  0  0  0  0  0  0  0  0  0  0  0
    4.2686   20.6185   39.1351 H   0  0  0  0  0  0  0  0  0  0  0  0
    5.8594   22.4865   39.4926 H   0  0  0  0  0  0  0  0  0  0  0  0
    6.1951   24.1680   37.7287 H   0  0  0  0  0  0  0  0  0  0  0  0
  1  2  1  0
  1  6  2  0
  2  3  2  0
  3  4  1  0
  3  7  1  0
  4  5  2  0
  5  6  1  0
  7  8  1  0
  7  9  2  0
  2 10  1  0
  4 11  1  0
  5 12  1  0
  6 13  1  0
M  CHG  1   8  -1
M  END
>  <mol_id>  (81) 
2026-09-18-3war-s0-n100-r5-0081

>  <rmsd_to_ref>  (81) 
4.127551020408482

>  <pose_kind>  (81) 
rigid

$$$$
3war.A
     RDKit          3D

 13 13  0  0  0  0  0  0  0  0999 V2000
    0.2783   17.7320   37.4222 N   0  0  0  0  0  0  0  0  0  0  0  0
    0.5066   18.7206   38.3317 C   0  0  0  0  0  0  0  0  0  0  0  0
    0.7280   18.4188   39.6549 C   0  0  0  0  0  0  0  0  0  0  0  0
    0.7157   17.0973   40.0504 C   0  0  0  0  0  0  0  0  0  0  0  0
    0.4869   16.0799   39.1487 C   0  0  0  0  0  0  0  0  0  0  0  0
    0.2705   16.4434   37.8311 C   0  0  0  0  0  0  0  0  0  0  0  0
    0.9768   19.4476   40.6629 C   0  0  0  0  0  0  0  0  0  0  0  0
    0.9869   20.7862   40.2496 O   0  0  0  0  0  0  0  0  0  0  0  0
    1.1677   19.0891   41.8384 O   0  0  0  0  0  0  0  0  0  0  0  0
    0.5137   19.7327   38.0162 H   0  0  0  0  0  0  0  0  0  0  0  0
    0.8846   16.8469   41.0673 H   0  0  0  0  0  0  0  0  0  0  0  0
    0.4656   15.0384   39.3965 H   0  0  0  0  0  0  0  0  0  0  0  0
    0.0807   15.7104   37.0439 H   0  0  0  0  0  0  0  0  0  0  0  0
  1  2  1  0
  1  6  2  0
  2  3  2  0
  3  4  1  0
  3  7  1  0
  4  5  2  0
  5  6  1  0
  7  8  1  0
  7  9  2  0
  2 10  1  0
  4 11  1  0
  5 12  1  0
  6 13  1  0
M  CHG  1   8  -1
M  END
>  <mol_id>  (82) 
2026-09-18-3war-s0-n100-r5-0082

>  <rmsd_to_ref>  (82) 
4.17346938775752

>  <pose_kind>  (82) 
conformer

$$$$
3war.A
     RDKit          3D

 13 13  0  0  0  0  0  0  0  0999 V2000
    0.3127   21.1933   38.6746 N   0  0  0  0  0  0  0  0  0  0  0  0
    1.1472   21.8460   39.6137 C   0  0  0  0  0  0  0  0  0  0  0  0
    1.3772   21.1718   40.8675 C   0  0  0  0  0  0  0  0  0  0  0  0
    0.7787   19.9537   41.1362 C   0  0  0  0  0  0  0  0  0  0  0  0
   -0.0047   19.3427   40.1818 C   0  0  0  0  0  0  0  0  0  0  0  0
   -0.2493   19.9822   38.9872 C   0  0  0  0  0  0  0  0  0  0  0  0
    2.1849   21.8585   41.9587 C   0  0  0  0  0  0  0  0  0  0  0  0
    2.8525   22.8903   41.6545 O   0  0  0  0  0  0  0  0  0  0  0  0
    2.1020   21.3418   43.0520 O   0  0  0  0  0  0  0  0  0  0  0  0
    1.6003   22.8245   39.3964 H   0  0  0  0  0  0  0  0  0  0  0  0
    0.9286   19.4723   42.1138 H   0  0  0  0  0  0  0  0  0  0  0  0
   -0.4330   18.3478   40.3733 H   0  0  0  0  0  0  0  0  0  0  0  0
   -0.9197   19.5045   38.2575 H   0  0  0  0  0  0  0  0  0  0  0  0
  1  2  1  0
  1  6  2  0
  2  3  2  0
  3  4  1  0
  3  7  1  0
  4  5  2  0
  5  6  1  0
  7  8  1  0
  7  9  2  0
  2 10  1  0
  4 11  1  0
  5 12  1  0
  6 13  1  0
M  CHG  1   8  -1
M  END
>  <mol_id>  (83) 
2026-09-18-3war-s0-n100-r5-0083

>  <rmsd_to_ref>  (83) 
4.219387755102227

>  <pose_kind>  (83) 
rigid

$$$$
3war.A
     RDKit          3D

 13 13  0  0  0  0  0  0  0  0999 V2000
    2.2621   18.9045   37.2691 N   0  0  0  0  0  0  0  0  0  0  0  0
    2.7078   18.0106   38.1970 C   0  0  0  0  0  0  0  0  0  0  0  0
    1.8325   17.0465   38.6530 C   0  0  0  0  0  0  0  0  0  0  0  0
    0.5274   16.9405   38.2176 C   0  0  0  0  0  0  0  0  0  0  0  0
    0.1087   17.8628   37.2767 C   0  0  0  0  0  0  0  0  0  0  0  0
    0.9929   18.8217   36.8285 C   0  0  0  0  0  0  0  0  0  0  0  0
    2.3129   16.0967   39.6417 C   0  0  0  0  0  0  0  0  0  0  0  0
    1.5039   15.0917   40.1587 O   0  0  0  0  0  0  0  0  0  0  0  0
    3.5033   16.1273   40.0943 O   0  0  0  0  0  0  0  0  0  0  0  0
    3.7390   18.0655   38.5652 H   0  0  0  0  0  0  0  0  0  0  0  0
   -0.1597   16.1735   38.5842 H   0  0  0  0  0  0  0  0  0  0  0  0
   -0.8955   17.8678   36.8692 H   0  0  0  0  0  0  0  0  0  0  0  0
    0.6972   19.5609   36.0905 H   0  0  0  0  0  0  0  0  0  0  0  0
  1  2  1  0
  1  6  2  0
  2  3  2  0
  3  4  1  0
  3  7  1  0
  4  5  2  0
  5  6  1  0
  7  8  1  0
  7  9  2  0
  2 10  1  0
  4 11  1  0
  5 12  1  0
  6 13  1  0
M  CHG  1   8  -1
M  END
>  <mol_id>  (84) 
2026-09-18-3war-s0-n100-r5-0084

>  <rmsd_to_ref>  (84) 
4.265306122450628

>  <pose_kind>  (84) 
conformer

$$$$
3war.A
     RDKit          3D

 13 13  0  0  0  0  0  0  0  0999 V2000
   -1.0850   16.9592   38.8089 N   0  0  0  0  0  0  0  0  0  0  0  0
   -0.7750   17.6733   39.9912 C   0  0  0  0  0  0  0  0  0  0  0  0
    0.4396   18.4506   39.9892 C   0  0  0  0  0  0  0  0  0  0  0  0
    1.2687   18.4650   38.8818 C   0  0  0  0  0  0  0  0  0  0  0  0
    0.9133   17.7759   37.7429 C   0  0  0  0  0  0  0  0  0  0  0  0
   -0.2334   17.0139   37.7356 C   0  0  0  0  0  0  0  0  0  0  0  0
    0.8827   19.1651   41.2572 C   0  0  0  0  0  0  0  0  0  0  0  0
    0.0528   19.2764   42.2067 O   0  0  0  0  0  0  0  0  0  0  0  0
    2.0272   19.5638   41.2409 O   0  0  0  0  0  0  0  0  0  0  0  0
   -1.4318   17.6368   40.8729 H   0  0  0  0  0  0  0  0  0  0  0  0
    2.2135   19.0276   38.9106 H   0  0  0  0  0  0  0  0  0  0  0  0
    1.5432   17.8344   36.8430 H   0  0  0  0  0  0  0  0  0  0  0  0
   -0.4749   16.4279   36.8365 H   0  0  0  0  0  0  0  0  0  0  0  0
  1  2  1  0
  1  6  2  0
  2  3  2  0
  3  4  1  0
  3  7  1  0
  4  5  2  0
  5  6  1  0
  7  8  1  0
  7  9  2  0
  2 10  1  0
  4 11  1  0
  5 12  1  0
  6 13  1  0
M  CHG  1   8  -1
M  END
>  <mol_id>  (85) 
2026-09-18-3war-s0-n100-r5-0085

>  <rmsd_to_ref>  (85) 
4.311224489797604

>  <pose_kind>  (85) 
rigid

$$$$
3war.A
     RDKit          3D

 13 13  0  0  0  0  0  0  0  0999 V2000
    1.7378   21.1174   38.0699 N   0  0  0  0  0  0  0  0  0  0  0  0
    0.4126   21.3468   37.9147 C   0  0  0  0  0  0  0  0  0  0  0  0
   -0.3723   20.4627   37.2070 C   0  0  0  0  0  0  0  0  0  0  0  0
    0.1916   19.3226   36.6437 C   0  0  0  0  0  0  0  0  0  0  0  0
    1.5454   19.1206   36.8217 C   0  0  0  0  0  0  0  0  0  0  0  0
    2.3193   20.0149   37.5332 C   0  0  0  0  0  0  0  0  0  0  0  0
   -1.7989   20.6917   37.0292 C   0  0  0  0  0  0  0  0  0  0  0  0
   -2.3673   21.8440   37.5989 O   0  0  0  0  0  0  0  0  0  0  0  0
   -2.4816   19.8662   36.3795 O   0  0  0  0  0  0  0  0  0  0  0  0
   -0.0387   22.2356   38.3513 H   0  0  0  0  0  0  0  0  0  0  0  0
   -0.3776   18.6072   36.0856 H   0  0  0  0  0  0  0  0  0  0  0  0
    2.0512   18.2606   36.4146 H   0  0  0  0  0  0  0  0  0  0  0  0
    3.3819   19.8384   37.6621 H   0  0  0  0  0  0  0  0  0  0  0  0
  1  2  1  0
  1  6  2  0
  2  3  2  0
  3  4  1  0
  3  7  1  0
  4  5  2  0
  5  6  1  0
  7  8  1  0
  7  9  2  0
  2 10  1  0
  4 11  1  0
  5 12  1  0
  6 13  1  0
M  CHG  1   8  -1
M  END
>  <mol_id>  (86) 
2026-09-18-3war-s0-n100-r5-0086

>  <rmsd_to_ref>  (86) 
4.3571428571446855

>  <pose_kind>  (86) 
conformer

$$$$
3war.A
     RDKit          3D

 13 13  0  0  0  0  0  0  0  0999 V2000
    1.3264   18.9600   38.9417 N   0  0  0  0  0  0  0  0  0  0  0  0
    1.0451   18.1948   40.0990 C   0  0  0  0  0  0  0  0  0  0  0  0
    2.1499   17.9065   40.9798 C   0  0  0  0  0  0  0  0  0  0  0  0
    3.4278   18.3424   40.6783 C   0  0  0  0  0  0  0  0  0  0  0  0
    3.6502   19.1074   39.5544 C   0  0  0  0  0  0  0  0  0  0  0  0
    2.6095   19.3752   38.6935 C   0  0  0  0  0  0  0  0  0  0  0  0
    1.9381   17.0095   42.1903 C   0  0  0  0  0  0  0  0  0  0  0  0
    0.7515   16.7458   42.5440 O   0  0  0  0  0  0  0  0  0  0  0  0
    2.9579   16.6123   42.7115 O   0  0  0  0  0  0  0  0  0  0  0  0
    0.0284   17.8359   40.3168 H   0  0  0  0  0  0  0  0  0  0  0  0
    4.2679   18.0778   41.3373 H   0  0  0  0  0  0  0  0  0  0  0  0
    4.6552   19.5028   39.3455 H   0  0  0  0  0  0  0  0  0  0  0  0
    2.8148   19.9424   37.7736 H   0  0  0  0  0  0  0  0  0  0  0  0
  1  2  1  0
  1  6  2  0
  2  3  2  0
  3  4  1  0
  3  7  1  0
  4  5  2  0
  5  6  1  0
  7  8  1  0
  7  9  2  0
  2 10  1  0
  4 11  1  0
  5 12  1  0
  6 13  1  0
M  CHG  1   8  -1
M  END
>  <mol_id>  (87) 
2026-09-18-3war-s0-n100-r5-0087

>  <rmsd_to_ref>  (87) 
4.4030612244907035

>  <pose_kind>  (87) 
rigid

$$$$
3war.A
     RDKit          3D

 13 13  0  0  0  0  0  0  0  0999 V2000
    4.0366   19.1524   40.2869 N   0  0  0  0  0  0  0  0  0  0  0  0
    3.7302   19.6193   41.5122 C   0  0  0  0  0  0  0  0  0  0  0  0
    2.4653   20.1015   41.7688 C   0  0  0  0  0  0  0  0  0  0  0  0
    1.5018   20.1075   40.7638 C   0  0  0  0  0  0  0  0  0  0  0  0
    1.8799   19.6156   39.5313 C   0  0  0  0  0  0  0  0  0  0  0  0
    3.1510   19.1308   39.2727 C   0  0  0  0  0  0  0  0  0  0  0  0
    2.1323   20.6075   43.0959 C   0  0  0  0  0  0  0  0  0  0  0  0
    0.8540   21.0930   43.3491 O   0  0  0  0  0  0  0  0  0  0  0  0
    2.9994   20.6133   44.0374 O   0  0  0  0  0  0  0  0  0  0  0  0
    4.4422   19.6379   42.3315 H   0  0  0  0  0  0  0  0  0  0  0  0
    0.5006   20.4842   40.9501 H   0  0  0  0  0  0  0  0  0  0  0  0
    1.1239   19.6213   38.7458 H   0  0  0  0  0  0  0  0  0  0  0  0
    3.4431   18.7432   38.2956 H   0  0  0  0  0  0  0  0  0  0  0  0
  1  2  1  0
  1  6  2  0
  2  3  2  0
  3  4  1  0
  3  7  1  0
  4  5  2  0
  5  6  1  0
  7  8  1  0
  7  9  2  0
  2 10  1  0
  4 11  1  0
  5 12  1  0
  6 13  1  0
M  CHG  1   8  -1
M  END
>  <mol_id>  (88) 
2026-09-18-3war-s0-n100-r5-0088

>  <rmsd_to_ref>  (88) 
4.448979591836854

>  <pose_kind>  (88) 
conformer

$$$$
3war.A
     RDKit          3D

 13 13  0  0  0  0  0  0  0  0999 V2000
   -0.0393   20.6294   35.8785 N   0  0  0  0  0  0  0  0  0  0  0  0
   -0.0474   21.4252   37.0493 C   0  0  0  0  0  0  0  0  0  0  0  0
    0.0833   20.7387   38.3106 C   0  0  0  0  0  0  0  0  0  0  0  0
    0.1835   19.3597   38.3587 C   0  0  0  0  0  0  0  0  0  0  0  0
    0.2140   18.6276   37.1920 C   0  0  0  0  0  0  0  0  0  0  0  0
    0.0711   19.2664   35.9807 C   0  0  0  0  0  0  0  0  0  0  0  0
   -0.0136   21.5215   39.6116 C   0  0  0  0  0  0  0  0  0  0  0  0
    0.0515   22.7847   39.5603 O   0  0  0  0  0  0  0  0  0  0  0  0
   -0.1583   20.8401   40.6036 O   0  0  0  0  0  0  0  0  0  0  0  0
   -0.1490   22.5194   36.9990 H   0  0  0  0  0  0  0  0  0  0  0  0
    0.2388   18.8468   39.3302 H   0  0  0  0  0  0  0  0  0  0  0  0
    0.3520   17.5369   37.2281 H   0  0  0  0  0  0  0  0  0  0  0  0
    0.0445   18.6619   35.0622 H   0  0  0  0  0  0  0  0  0  0  0  0
  1  2  1  0
  1  6  2  0
  2  3  2  0
  3  4  1  0
  3  7  1  0
  4  5  2  0
  5  6  1  0
  7  8  1  0
  7  9  2  0
  2 10  1  0
  4 11  1  0
  5 12  1  0
  6 13  1  0
M  CHG  1   8  -1
M  END
>  <mol_id>  (89) 
2026-09-18-3war-s0-n100-r5-0089

>  <rmsd_to_ref>  (89) 
4.494897959185324

>  <pose_kind>  (89) 
rigid

$$$$
3war.A
     RDKit          3D

 13 13  0  0  0  0  0  0  0  0999 V2000
    1.8303   21.6874   38.9610 N   0  0  0  0  0  0  0  0  0  0  0  0
    2.0713   22.3149   40.1426 C   0  0  0  0  0  0  0  0  0  0  0  0
    2.5299   21.5660   41.2048 C   0  0  0  0  0  0  0  0  0  0  0  0
    2.7574   20.2080   41.1292 C   0  0  0  0  0  0  0  0  0  0  0  0
    2.5031   19.5909   39.9099 C   0  0  0  0  0  0  0  0  0  0  0  0
    2.0492   20.3456   38.8670 C   0  0  0  0  0  0  0  0  0  0  0  0
    2.7824   22.2647   42.4678 C   0  0  0  0  0  0  0  0  0  0  0  0
    3.2508   21.5513   43.5842 O   0  0  0  0  0  0  0  0  0  0  0  0
    2.6047   23.4901   42.6274 O   0  0  0  0  0  0  0  0  0  0  0  0
    1.8988   23.3726   40.2170 H   0  0  0  0  0  0  0  0  0  0  0  0
    3.1146   19.6715   41.9852 H   0  0  0  0  0  0  0  0  0  0  0  0
    2.6640   18.5195   39.7890 H   0  0  0  0  0  0  0  0  0  0  0  0
    1.8543   19.8572   37.9229 H   0  0  0  0  0  0  0  0  0  0  0  0
  1  2  1  0
  1  6  2  0
  2  3  2  0
  3  4  1  0
  3  7  1  0
  4  5  2  0
  5  6  1  0
  7  8  1  0
  7  9  2  0
  2 10  1  0
  4 11  1  0
  5 12  1  0
  6 13  1  0
M  CHG  1   8  -1
M  END
>  <mol_id>  (90) 
2026-09-18-3war-s0-n100-r5-0090

>  <rmsd_to_ref>  (90) 
4.540816326532574

>  <pose_kind>  (90) 
conformer

$$$$
3war.A
     RDKit          3D

 13 13  0  0  0  0  0  0  0  0999 V2000
    5.4676   22.1921   40.7303 N   0  0  0  0  0  0  0  0  0  0  0  0
    4.2832   22.1616   41.5051 C   0  0  0  0  0  0  0  0  0  0  0  0
    3.1970   21.3513   41.0122 C   0  0  0  0  0  0  0  0  0  0  0  0
    3.3135   20.6620   39.8182 C   0  0  0  0  0  0  0  0  0  0  0  0
    4.4950   20.6995   39.1107 C   0  0  0  0  0  0  0  0  0  0  0  0
    5.5346   21.4836   39.5582 C   0  0  0  0  0  0  0  0  0  0  0  0
    1.8629   21.3483   41.7436 C   0  0  0  0  0  0  0  0  0  0  0  0
    1.8121   21.8494   42.9050 O   0  0  0  0  0  0  0  0  0  0  0  0
    0.9447   20.8596   41.1212 O   0  0  0  0  0  0  0  0  0  0  0  0
    4.1953   22.7311   42.4421 H   0  0  0  0  0  0  0  0  0  0  0  0
    2.4611   20.0830   39.4332 H   0  0  0  0  0  0  0  0  0  0  0  0
    4.6074   20.1053   38.1919 H   0  0  0  0  0  0  0  0  0  0  0  0
    6.4517   21.5438   38.9538 H   0  0  0  0  0  0  0  0  0  0  0  0
  1  2  1  0
  1  6  2  0
  2  3  2  0
  3  4  1  0
  3  7  1  0
  4  5  2  0
  5  6  1  0
  7  8  1  0
  7  9  2  0
  2 10  1  0
  4 11  1  0
  5 12  1  0
  6 13  1  0
M  CHG  1   8  -1
M  END
>  <mol_id>  (91) 
2026-09-18-3war-s0-n100-r5-0091

>  <rmsd_to_ref>  (91) 
4.586734693879104

>  <pose_kind>  (91) 
rigid

$$$$
3war.A
     RDKit          3D

 13 13  0  0  0  0  0  0  0  0999 V2000
    0.8600   16.2142   39.4663 N   0  0  0  0  0  0  0  0  0  0  0  0
    0.5637   16.8029   40.6431 C   0  0  0  0  0  0  0  0  0  0  0  0
    1.3409   17.8635   41.0626 C   0  0  0  0  0  0  0  0  0  0  0  0
    2.3936   18.3038   40.2898 C   0  0  0  0  0  0  0  0  0  0  0  0
    2.6902   17.6903   39.0791 C   0  0  0  0  0  0  0  0  0  0  0  0
    1.8874   16.6347   38.6995 C   0  0  0  0  0  0  0  0  0  0  0  0
    1.0328   18.5100   42.3326 C   0  0  0  0  0  0  0  0  0  0  0  0
    1.8216   19.5876   42.7597 O   0  0  0  0  0  0  0  0  0  0  0  0
    0.0599   18.1091   43.0552 O   0  0  0  0  0  0  0  0  0  0  0  0
   -0.2464   16.4948   41.2793 H   0  0  0  0  0  0  0  0  0  0  0  0
    2.9817   19.1368   40.6482 H   0  0  0  0  0  0  0  0  0  0  0  0
    3.5104   18.0446   38.4920 H   0  0  0  0  0  0  0  0  0  0  0  0
    2.0728   16.1119   37.7552 H   0  0  0  0  0  0  0  0  0  0  0  0
  1  2  1  0
  1  6  2  0
  2  3  2  0
  3  4  1  0
  3  7  1  0
  4  5  2  0
  5  6  1  0
  7  8  1  0
  7  9  2  0
  2 10  1  0
  4 11  1  0
  5 12  1  0
  6 13  1  0
M  CHG  1   8  -1
M  END
>  <mol_id>  (92) 
2026-09-18-3war-s0-n100-r5-0092

>  <rmsd_to_ref>  (92) 
4.632653061225736

>  <pose_kind>  (92) 
conformer

$$$$
3war.A
     RDKit          3D

 13 13  0  0  0  0  0  0  0  0999 V2000
    3.7444   23.9460   37.5816 N   0  0  0  0  0  0  0  0  0  0  0  0
    2.8610   23.4756   38.5827 C   0  0  0  0  0  0  0  0  0  0  0  0
    3.2445   22.2766   39.2860 C   0  0  0  0  0  0  0  0  0  0  0  0
    4.4145   21.6116   38.9651 C   0  0  0  0  0  0  0  0  0  0  0  0
    5.2573   22.1208   38.0016 C   0  0  0  0  0  0  0  0  0  0  0  0
    4.8962   23.2541   37.3080 C   0  0  0  0  0  0  0  0  0  0  0  0
    2.2978   21.6625   40.3065 C   0  0  0  0  0  0  0  0  0  0  0  0
    1.3129   22.3510   40.7045 O   0  0  0  0  0  0  0  0  0  0  0  0
    2.5802   20.5332   40.6446 O   0  0  0  0  0  0  0  0  0  0  0  0
    1.9230   24.0017   38.8140 H   0  0  0  0  0  0  0  0  0  0  0  0
    4.6722   20.6744   39.4802 H   0  0  0  0  0  0  0  0  0  0  0  0
    6.2151   21.6240   37.7874 H   0  0  0  0  0  0  0  0  0  0  0  0
    5.5553   23.6173   36.5057 H   0  0  0  0  0  0  0  0  0  0  0  0
  1  2  1  0
  1  6  2  0
  2  3  2  0
  3  4  1  0
  3  7  1  0
  4  5  2  0
  5  6  1  0
  7  8  1  0
  7  9  2  0
  2 10  1  0
  4 11  1  0
  5 12  1  0
  6 13  1  0
M  CHG  1   8  -1
M  END
>  <mol_id>  (93) 
2026-09-18-3war-s0-n100-r5-0093

>  <rmsd_to_ref>  (93) 
4.678571428571468

>  <pose_kind>  (93) 
rigid

$$$$
3war.A
     RDKit          3D

 13 13  0  0  0  0  0  0  0  0999 V2000
    3.4453   18.0392   38.4470 N   0  0  0  0  0  0  0  0  0  0  0  0
    2.5029   18.2297   39.4159 C   0  0  0  0  0  0  0  0  0  0  0  0
    1.8490   17.1294   39.9677 C   0  0  0  0  0  0  0  0  0  0  0  0
    2.1549   15.8568   39.5350 C   0  0  0  0  0  0  0  0  0  0  0  0
    3.1163   15.6660   38.5470 C   0  0  0  0  0  0  0  0  0  0  0  0
    3.7355   16.7835   38.0318 C   0  0  0  0  0  0  0  0  0  0  0  0
    0.8445   17.2941   40.9967 C   0  0  0  0  0  0  0  0  0  0  0  0
    0.4447   18.4958   41.5173 O   0  0  0  0  0  0  0  0  0  0  0  0
    0.3011   16.2360   41.4413 O   0  0  0  0  0  0  0  0  0  0  0  0
    2.2774   19.2380   39.7418 H   0  0  0  0  0  0  0  0  0  0  0  0
    1.6712   14.9787   39.9370 H   0  0  0  0  0  0  0  0  0  0  0  0
    3.3558   14.6654   38.2078 H   0  0  0  0  0  0  0  0  0  0  0  0
    4.4816   16.6038   37.2619 H   0  0  0  0  0  0  0  0  0  0  0  0
  1  2  1  0
  1  6  2  0
  2  3  2  0
  3  4  1  0
  3  7  1  0
  4  5  2  0
  5  6  1  0
  7  8  1  0
  7  9  2  0
  2 10  1  0
  4 11  1  0
  5 12  1  0
  6 13  1  0
M  CHG  1   8  -1
M  END
>  <mol_id>  (94) 
2026-09-18-3war-s0-n100-r5-0094

>  <rmsd_to_ref>  (94) 
4.724489795919728

>  <pose_kind>  (94) 
conformer

$$$$
3war.A
     RDKit          3D

 13 13  0  0  0  0  0  0  0  0999 V2000
   -0.6694   20.5890   37.6113 N   0  0  0  0  0  0  0  0  0  0  0  0
   -1.2227   20.7493   38.9045 C   0  0  0  0  0  0  0  0  0  0  0  0
   -0.3206   21.1352   39.9612 C   0  0  0  0  0  0  0  0  0  0  0  0
    1.0289   21.3101   39.7110 C   0  0  0  0  0  0  0  0  0  0  0  0
    1.5187   21.1695   38.4311 C   0  0  0  0  0  0  0  0  0  0  0  0
    0.6738   20.7828   37.4150 C   0  0  0  0  0  0  0  0  0  0  0  0
   -0.8286   21.2319   41.3920 C   0  0  0  0  0  0  0  0  0  0  0  0
   -2.0792   21.2246   41.5885 O   0  0  0  0  0  0  0  0  0  0  0  0
    0.0399   21.2991   42.2349 O   0  0  0  0  0  0  0  0  0  0  0  0
   -2.2938   20.5866   39.0949 H   0  0  0  0  0  0  0  0  0  0  0  0
    1.7119   21.5620   40.5357 H   0  0  0  0  0  0  0  0  0  0  0  0
    2.5807   21.3653   38.2217 H   0  0  0  0  0  0  0  0  0  0  0  0
    1.0912   20.6237   36.4098 H   0  0  0  0  0  0  0  0  0  0  0  0
  1  2  1  0
  1  6  2  0
  2  3  2  0
  3  4  1  0
  3  7  1  0
  4  5  2  0
  5  6  1  0
  7  8  1  0
  7  9  2  0
  2 10  1  0
  4 11  1  0
  5 12  1  0
  6 13  1  0
M  CHG  1   8  -1
M  END
>  <mol_id>  (95) 
2026-09-18-3war-s0-n100-r5-0095

>  <rmsd_to_ref>  (95) 
4.770408163266534

>  <pose_kind>  (95) 
rigid

$$$$
3war.A
     RDKit          3D

 13 13  0  0  0  0  0  0  0  0999 V2000
    2.5002   23.4399   38.0457 N   0  0  0  0  0  0  0  0  0  0  0  0
    2.2053   23.5018   39.3759 C   0  0  0  0  0  0  0  0  0  0  0  0
    1.4728   22.4729   39.9375 C   0  0  0  0  0  0  0  0  0  0  0  0
    1.0289   21.3928   39.2190 C   0  0  0  0  0  0  0  0  0  0  0  0
    1.3395   21.3496   37.8689 C   0  0  0  0  0  0  0  0  0  0  0  0
    2.0730   22.3875   37.3244 C   0  0  0  0  0  0  0  0  0  0  0  0
    1.1561   22.5369   41.3604 C   0  0  0  0  0  0  0  0  0  0  0  0
    1.5624   23.5907   42.1691 O   0  0  0  0  0  0  0  0  0  0  0  0
    0.4868   21.6016   41.8844 O   0  0  0  0  0  0  0  0  0  0  0  0
    2.5415   24.3307   39.9453 H   0  0  0  0  0  0  0  0  0  0  0  0
    0.4523   20.5809   39.6561 H   0  0  0  0  0  0  0  0  0  0  0  0
    1.0128   20.5201   37.2598 H   0  0  0  0  0  0  0  0  0  0  0  0
    2.3306   22.3736   36.2552 H   0  0  0  0  0  0  0  0  0  0  0  0
  1  2  1  0
  1  6  2  0
  2  3  2  0
  3  4  1  0
  3  7  1  0
  4  5  2  0
  5  6  1  0
  7  8  1  0
  7  9  2  0
  2 10  1  0
  4 11  1  0
  5 12  1  0
  6 13  1  0
M  CHG  1   8  -1
M  END
>  <mol_id>  (96) 
2026-09-18-3war-s0-n100-r5-0096

>  <rmsd_to_ref>  (96) 
4.816326530612754

>  <pose_kind>  (96) 
conformer

$$$$
