6tgu.A
     RDKit          3D

 32 34  0  0  0  0  0  0  0  0999 V2000
    3.2704   20.0816   36.9100 C   0  0  0  0  0  0  0  0  0  0  0  0
    2.7239   19.8375   38.3194 C   0  0  0  0  0  0  0  0  0  0  0  0
    1.9745   20.8172   38.9669 C   0  0  0  0  0  0  0  0  0  0  0  0
    1.3019   20.5646   40.1670 C   0  0  0  0  0  0  0  0  0  0  0  0
    1.5079   19.3565   40.8488 C   0  0  0  0  0  0  0  0  0  0  0  0
    0.4444   17.8615   42.6087 C   0  0  0  0  0  0  0  0  0  0  0  0
    0.4288   15.6073   42.9153 C   0  0  0  0  0  0  0  0  0  0  0  0
    0.8553   14.2304   42.6635 C   0  0  0  0  0  0  0  0  0  0  0  0
    0.2328   13.1351   43.2790 C   0  0  0  0  0  0  0  0  0  0  0  0
    0.6322   11.8319   42.9995 C   0  0  0  0  0  0  0  0  0  0  0  0
    1.6306   11.6302   42.0652 C   0  0  0  0  0  0  0  0  0  0  0  0
    2.2690   12.6840   41.4288 C   0  0  0  0  0  0  0  0  0  0  0  0
    1.8629   13.9810   41.7304 C   0  0  0  0  0  0  0  0  0  0  0  0
   -0.5843   15.9508   43.7709 C   0  0  0  0  0  0  0  0  0  0  0  0
    2.2504   18.3557   40.2060 C   0  0  0  0  0  0  0  0  0  0  0  0
    2.8437   18.6148   38.9691 C   0  0  0  0  0  0  0  0  0  0  0  0
    0.7803   19.0569   42.0413 N   0  0  0  0  0  0  0  0  0  0  0  0
    0.9791   16.6716   42.1626 N   0  0  0  0  0  0  0  0  0  0  0  0
    2.8674   21.1275   36.3211 O   0  0  0  0  0  0  0  0  0  0  0  0
    4.0035   19.1925   36.4244 O   0  0  0  0  0  0  0  0  0  0  0  0
    3.4800   17.5959   38.3007 O   0  0  0  0  0  0  0  0  0  0  0  0
   -0.9334   17.6347   43.6687 S   0  0  0  0  0  0  0  0  0  0  0  0
    2.1103   10.0114   41.6767 Cl  0  0  0  0  0  0  0  0  0  0  0  0
    1.9097   21.8205   38.5206 H   0  0  0  0  0  0  0  0  0  0  0  0
    0.6099   21.3151   40.5769 H   0  0  0  0  0  0  0  0  0  0  0  0
   -0.5845   13.3089   43.9944 H   0  0  0  0  0  0  0  0  0  0  0  0
    0.1628   10.9792   43.5119 H   0  0  0  0  0  0  0  0  0  0  0  0
    3.0758   12.4998   40.7041 H   0  0  0  0  0  0  0  0  0  0  0  0
    2.3468   14.8280   41.2221 H   0  0  0  0  0  0  0  0  0  0  0  0
   -1.1055   15.2454   44.4348 H   0  0  0  0  0  0  0  0  0  0  0  0
    2.3653   17.3677   40.6757 H   0  0  0  0  0  0  0  0  0  0  0  0
    0.4535   19.8836   42.5615 H   0  0  0  0  0  0  0  0  0  0  0  0
  1  2  1  0
  1 19  1  0
  1 20  2  0
  2  3  1  0
  2 16  2  0
  3  4  2  0
  4  5  1  0
  5 15  2  0
  5 17  1  0
  6 17  1  0
  6 18  2  0
  6 22  1  0
  7  8  1  0
  7 14  2  0
  7 18  1  0
  8  9  1  0
  8 13  2  0
  9 10  2  0
 10 11  1  0
 11 12  2  0
 11 23  1  0
 12 13  1  0
 14 22  1  0
 15 16  1  0
 16 21  1  0
  3 24  1  0
  4 25  1  0
  9 26  1  0
 10 27  1  0
 12 28  1  0
 13 29  1  0
 14 30  1  0
 15 31  1  0
 17 32  1  0
M  CHG  2  19  -1  21  -1
M  END
>  <mol_id>  (1) 
2026-08-23-6tgu-s0-n100-r2-0001

>  <rmsd_to_ref>  (1) 
0.0

$$$$
6tgu.A
     RDKit          3D

 32 34  0  0  0  0  0  0  0  0999 V2000
    3.9595   19.9004   37.1422 C   0  0  0  0  0  0  0  0  0  0  0  0
    3.1346   19.6965   38.3307 C   0  0  0  0  0  0  0  0  0  0  0  0
    2.5827   20.7966   38.9387 C   0  0  0  0  0  0  0  0  0  0  0  0
    1.8034   20.6355   40.0566 C   0  0  0  0  0  0  0  0  0  0  0  0
    1.5417   19.3769   40.6143 C   0  0  0  0  0  0  0  0  0  0  0  0
    0.4758   17.9887   42.3202 C   0  0  0  0  0  0  0  0  0  0  0  0
    0.3097   15.7931   42.8856 C   0  0  0  0  0  0  0  0  0  0  0  0
    0.6467   14.4037   42.6229 C   0  0  0  0  0  0  0  0  0  0  0  0
    0.1872   13.3802   43.4227 C   0  0  0  0  0  0  0  0  0  0  0  0
    0.4967   12.0544   43.1888 C   0  0  0  0  0  0  0  0  0  0  0  0
    1.2963   11.7096   42.1189 C   0  0  0  0  0  0  0  0  0  0  0  0
    1.7695   12.7147   41.3027 C   0  0  0  0  0  0  0  0  0  0  0  0
    1.4449   14.0470   41.5567 C   0  0  0  0  0  0  0  0  0  0  0  0
   -0.5322   16.1322   44.0155 C   0  0  0  0  0  0  0  0  0  0  0  0
    2.1218   18.3114   39.9616 C   0  0  0  0  0  0  0  0  0  0  0  0
    2.9101   18.4461   38.8349 C   0  0  0  0  0  0  0  0  0  0  0  0
    0.7341   19.2497   41.7669 N   0  0  0  0  0  0  0  0  0  0  0  0
    0.6756   16.8253   42.2159 N   0  0  0  0  0  0  0  0  0  0  0  0
    4.5399   18.8090   36.4929 O   0  0  0  0  0  0  0  0  0  0  0  0
    4.1800   21.0521   36.6583 O   0  0  0  0  0  0  0  0  0  0  0  0
    3.4704   17.3507   38.2145 O   0  0  0  0  0  0  0  0  0  0  0  0
   -0.6275   17.9868   43.8685 S   0  0  0  0  0  0  0  0  0  0  0  0
    1.6653   10.0202   41.8566 Cl  0  0  0  0  0  0  0  0  0  0  0  0
    2.7457   21.8080   38.5568 H   0  0  0  0  0  0  0  0  0  0  0  0
    1.3797   21.5164   40.5179 H   0  0  0  0  0  0  0  0  0  0  0  0
   -0.4496   13.6054   44.2823 H   0  0  0  0  0  0  0  0  0  0  0  0
    0.0976   11.3061   43.8622 H   0  0  0  0  0  0  0  0  0  0  0  0
    2.3965   12.4678   40.4601 H   0  0  0  0  0  0  0  0  0  0  0  0
    1.8191   14.8523   40.9097 H   0  0  0  0  0  0  0  0  0  0  0  0
   -0.9796   15.5617   44.7295 H   0  0  0  0  0  0  0  0  0  0  0  0
    1.9752   17.3030   40.3199 H   0  0  0  0  0  0  0  0  0  0  0  0
    0.3516   20.1495   42.1674 H   0  0  0  0  0  0  0  0  0  0  0  0
  1  2  1  0
  1 19  1  0
  1 20  2  0
  2  3  1  0
  2 16  2  0
  3  4  2  0
  4  5  1  0
  5 15  2  0
  5 17  1  0
  6 17  1  0
  6 18  2  0
  6 22  1  0
  7  8  1  0
  7 14  2  0
  7 18  1  0
  8  9  1  0
  8 13  2  0
  9 10  2  0
 10 11  1  0
 11 12  2  0
 11 23  1  0
 12 13  1  0
 14 22  1  0
 15 16  1  0
 16 21  1  0
  3 24  1  0
  4 25  1  0
  9 26  1  0
 10 27  1  0
 12 28  1  0
 13 29  1  0
 14 30  1  0
 15 31  1  0
 17 32  1  0
M  CHG  2  19  -1  21  -1
M  END
>  <mol_id>  (2) 
2026-08-23-6tgu-s0-n100-r2-0002

>  <rmsd_to_ref>  (2) 
0.5000000000078584

$$$$
6tgu.A
     RDKit          3D

 32 34  0  0  0  0  0  0  0  0999 V2000
    3.5671   20.3600   37.2355 C   0  0  0  0  0  0  0  0  0  0  0  0
    3.0584   19.9806   38.6291 C   0  0  0  0  0  0  0  0  0  0  0  0
    2.4351   20.9291   39.4369 C   0  0  0  0  0  0  0  0  0  0  0  0
    1.7915   20.5807   40.6289 C   0  0  0  0  0  0  0  0  0  0  0  0
    1.9074   19.2787   41.1372 C   0  0  0  0  0  0  0  0  0  0  0  0
    0.7777   17.6650   42.7443 C   0  0  0  0  0  0  0  0  0  0  0  0
    0.5562   15.4008   42.7581 C   0  0  0  0  0  0  0  0  0  0  0  0
    0.8362   14.0369   42.3083 C   0  0  0  0  0  0  0  0  0  0  0  0
    0.1364   12.9303   42.8100 C   0  0  0  0  0  0  0  0  0  0  0  0
    0.3955   11.6452   42.3437 C   0  0  0  0  0  0  0  0  0  0  0  0
    1.3300   11.4803   41.3388 C   0  0  0  0  0  0  0  0  0  0  0  0
    2.0408   12.5472   40.8101 C   0  0  0  0  0  0  0  0  0  0  0  0
    1.7753   13.8238   41.2979 C   0  0  0  0  0  0  0  0  0  0  0  0
   -0.3824   15.7176   43.7042 C   0  0  0  0  0  0  0  0  0  0  0  0
    2.5220   18.3095   40.3316 C   0  0  0  0  0  0  0  0  0  0  0  0
    3.0858   18.6764   39.1083 C   0  0  0  0  0  0  0  0  0  0  0  0
    1.2042   18.8900   42.3185 N   0  0  0  0  0  0  0  0  0  0  0  0
    1.1755   16.5017   42.1204 N   0  0  0  0  0  0  0  0  0  0  0  0
    3.2434   21.5074   36.8090 O   0  0  0  0  0  0  0  0  0  0  0  0
    4.1896   19.4809   36.6006 O   0  0  0  0  0  0  0  0  0  0  0  0
    3.5919   17.7023   38.2808 O   0  0  0  0  0  0  0  0  0  0  0  0
   -0.5704   17.4247   43.8389 S   0  0  0  0  0  0  0  0  0  0  0  0
    1.6339    9.8910   40.7195 Cl  0  0  0  0  0  0  0  0  0  0  0  0
    2.4495   21.9847   39.1278 H   0  0  0  0  0  0  0  0  0  0  0  0
    1.1932   21.3294   41.1688 H   0  0  0  0  0  0  0  0  0  0  0  0
   -0.6298   13.0805   43.5849 H   0  0  0  0  0  0  0  0  0  0  0  0
   -0.1328   10.7779   42.7664 H   0  0  0  0  0  0  0  0  0  0  0  0
    2.7951   12.3889   40.0253 H   0  0  0  0  0  0  0  0  0  0  0  0
    2.3176   14.6837   40.8777 H   0  0  0  0  0  0  0  0  0  0  0  0
   -0.9417   14.9802   44.2987 H   0  0  0  0  0  0  0  0  0  0  0  0
    2.5598   17.2613   40.6631 H   0  0  0  0  0  0  0  0  0  0  0  0
    0.9811   19.6661   42.9579 H   0  0  0  0  0  0  0  0  0  0  0  0
  1  2  1  0
  1 19  1  0
  1 20  2  0
  2  3  1  0
  2 16  2  0
  3  4  2  0
  4  5  1  0
  5 15  2  0
  5 17  1  0
  6 17  1  0
  6 18  2  0
  6 22  1  0
  7  8  1  0
  7 14  2  0
  7 18  1  0
  8  9  1  0
  8 13  2  0
  9 10  2  0
 10 11  1  0
 11 12  2  0
 11 23  1  0
 12 13  1  0
 14 22  1  0
 15 16  1  0
 16 21  1  0
  3 24  1  0
  4 25  1  0
  9 26  1  0
 10 27  1  0
 12 28  1  0
 13 29  1  0
 14 30  1  0
 15 31  1  0
 17 32  1  0
M  CHG  2  19  -1  21  -1
M  END
>  <mol_id>  (3) 
2026-08-23-6tgu-s0-n100-r2-0003

>  <rmsd_to_ref>  (3) 
0.5459183673500313

$$$$
6tgu.A
     RDKit          3D

 32 34  0  0  0  0  0  0  0  0999 V2000
    3.1792   19.5886   36.6612 C   0  0  0  0  0  0  0  0  0  0  0  0
    2.5542   19.4442   37.9719 C   0  0  0  0  0  0  0  0  0  0  0  0
    2.0354   20.5638   38.5848 C   0  0  0  0  0  0  0  0  0  0  0  0
    1.4560   20.4183   39.8045 C   0  0  0  0  0  0  0  0  0  0  0  0
    1.3513   19.2073   40.4789 C   0  0  0  0  0  0  0  0  0  0  0  0
    0.6376   17.8921   42.4179 C   0  0  0  0  0  0  0  0  0  0  0  0
    0.6679   15.7802   43.1684 C   0  0  0  0  0  0  0  0  0  0  0  0
    1.0465   14.3852   42.9438 C   0  0  0  0  0  0  0  0  0  0  0  0
    1.7002   13.9684   41.7904 C   0  0  0  0  0  0  0  0  0  0  0  0
    2.0472   12.6453   41.6016 C   0  0  0  0  0  0  0  0  0  0  0  0
    1.7625   11.6831   42.5434 C   0  0  0  0  0  0  0  0  0  0  0  0
    1.1155   12.0756   43.6925 C   0  0  0  0  0  0  0  0  0  0  0  0
    0.7741   13.3997   43.8697 C   0  0  0  0  0  0  0  0  0  0  0  0
    0.0136   16.1734   44.3319 C   0  0  0  0  0  0  0  0  0  0  0  0
    1.8881   18.1123   39.8205 C   0  0  0  0  0  0  0  0  0  0  0  0
    2.4885   18.2145   38.5753 C   0  0  0  0  0  0  0  0  0  0  0  0
    0.7376   19.1489   41.7341 N   0  0  0  0  0  0  0  0  0  0  0  0
    0.8769   16.7986   42.3571 N   0  0  0  0  0  0  0  0  0  0  0  0
    3.7106   18.4919   36.0143 O   0  0  0  0  0  0  0  0  0  0  0  0
    3.2615   20.7095   36.0664 O   0  0  0  0  0  0  0  0  0  0  0  0
    3.0150   17.0821   37.9519 O   0  0  0  0  0  0  0  0  0  0  0  0
   -0.2294   17.9782   44.1266 S   0  0  0  0  0  0  0  0  0  0  0  0
    2.1963   10.0009   42.3180 Cl  0  0  0  0  0  0  0  0  0  0  0  0
    2.1107   21.5122   38.0701 H   0  0  0  0  0  0  0  0  0  0  0  0
    1.0500   21.3043   40.2805 H   0  0  0  0  0  0  0  0  0  0  0  0
    1.9274   14.7327   41.0405 H   0  0  0  0  0  0  0  0  0  0  0  0
    2.5562   12.3565   40.6900 H   0  0  0  0  0  0  0  0  0  0  0  0
    0.8838   11.3371   44.4417 H   0  0  0  0  0  0  0  0  0  0  0  0
    0.2668   13.6638   44.7874 H   0  0  0  0  0  0  0  0  0  0  0  0
   -0.3157   15.6127   45.2090 H   0  0  0  0  0  0  0  0  0  0  0  0
    1.8551   17.1417   40.2588 H   0  0  0  0  0  0  0  0  0  0  0  0
    0.3658   20.0435   42.1371 H   0  0  0  0  0  0  0  0  0  0  0  0
  1  2  1  0
  1 19  1  0
  1 20  2  0
  2  3  1  0
  2 16  2  0
  3  4  2  0
  4  5  1  0
  5 15  2  0
  5 17  1  0
  6 17  1  0
  6 18  2  0
  6 22  1  0
  7  8  1  0
  7 14  2  0
  7 18  1  0
  8  9  1  0
  8 13  2  0
  9 10  2  0
 10 11  1  0
 11 12  2  0
 11 23  1  0
 12 13  1  0
 14 22  1  0
 15 16  1  0
 16 21  1  0
  3 24  1  0
  4 25  1  0
  9 26  1  0
 10 27  1  0
 12 28  1  0
 13 29  1  0
 14 30  1  0
 15 31  1  0
 17 32  1  0
M  CHG  2  19  -1  21  -1
M  END
>  <mol_id>  (4) 
2026-08-23-6tgu-s0-n100-r2-0004

>  <rmsd_to_ref>  (4) 
0.5918367346942627

$$$$
6tgu.A
     RDKit          3D

 32 34  0  0  0  0  0  0  0  0999 V2000
    2.7550   19.6639   36.2271 C   0  0  0  0  0  0  0  0  0  0  0  0
    2.3806   19.5859   37.7098 C   0  0  0  0  0  0  0  0  0  0  0  0
    1.6778   20.6240   38.3173 C   0  0  0  0  0  0  0  0  0  0  0  0
    1.1547   20.5093   39.6095 C   0  0  0  0  0  0  0  0  0  0  0  0
    1.4764   19.3989   40.4033 C   0  0  0  0  0  0  0  0  0  0  0  0
    0.6695   18.1135   42.4430 C   0  0  0  0  0  0  0  0  0  0  0  0
    0.7630   15.9147   43.0192 C   0  0  0  0  0  0  0  0  0  0  0  0
    1.2031   14.5254   42.8873 C   0  0  0  0  0  0  0  0  0  0  0  0
    0.6909   13.5033   43.6990 C   0  0  0  0  0  0  0  0  0  0  0  0
    1.0985   12.1832   43.5342 C   0  0  0  0  0  0  0  0  0  0  0  0
    1.9903   11.8861   42.5208 C   0  0  0  0  0  0  0  0  0  0  0  0
    2.5173   12.8648   41.6917 C   0  0  0  0  0  0  0  0  0  0  0  0
    2.1057   14.1813   41.8799 C   0  0  0  0  0  0  0  0  0  0  0  0
   -0.1571   16.3424   43.9395 C   0  0  0  0  0  0  0  0  0  0  0  0
    2.1735   18.3403   39.8037 C   0  0  0  0  0  0  0  0  0  0  0  0
    2.6135   18.4554   38.4838 C   0  0  0  0  0  0  0  0  0  0  0  0
    0.8993   19.2356   41.7001 N   0  0  0  0  0  0  0  0  0  0  0  0
    1.1889   16.8878   42.0844 N   0  0  0  0  0  0  0  0  0  0  0  0
    2.2535   20.6213   35.5674 O   0  0  0  0  0  0  0  0  0  0  0  0
    3.4569   18.7354   35.7700 O   0  0  0  0  0  0  0  0  0  0  0  0
    3.2029   17.3737   37.8736 O   0  0  0  0  0  0  0  0  0  0  0  0
   -0.5706   17.9939   43.6763 S   0  0  0  0  0  0  0  0  0  0  0  0
    2.4757   10.2409   42.2772 Cl  0  0  0  0  0  0  0  0  0  0  0  0
    1.5298   21.5630   37.7638 H   0  0  0  0  0  0  0  0  0  0  0  0
    0.4895   21.2917   40.0038 H   0  0  0  0  0  0  0  0  0  0  0  0
   -0.0451   13.7490   44.4788 H   0  0  0  0  0  0  0  0  0  0  0  0
    0.7186   11.3918   44.1970 H   0  0  0  0  0  0  0  0  0  0  0  0
    3.2421   12.6074   40.9053 H   0  0  0  0  0  0  0  0  0  0  0  0
    2.5006   14.9678   41.2200 H   0  0  0  0  0  0  0  0  0  0  0  0
   -0.5760   15.7150   44.7400 H   0  0  0  0  0  0  0  0  0  0  0  0
    2.3734   17.4203   40.3726 H   0  0  0  0  0  0  0  0  0  0  0  0
    0.6068   20.1141   42.1513 H   0  0  0  0  0  0  0  0  0  0  0  0
  1  2  1  0
  1 19  1  0
  1 20  2  0
  2  3  1  0
  2 16  2  0
  3  4  2  0
  4  5  1  0
  5 15  2  0
  5 17  1  0
  6 17  1  0
  6 18  2  0
  6 22  1  0
  7  8  1  0
  7 14  2  0
  7 18  1  0
  8  9  1  0
  8 13  2  0
  9 10  2  0
 10 11  1  0
 11 12  2  0
 11 23  1  0
 12 13  1  0
 14 22  1  0
 15 16  1  0
 16 21  1  0
  3 24  1  0
  4 25  1  0
  9 26  1  0
 10 27  1  0
 12 28  1  0
 13 29  1  0
 14 30  1  0
 15 31  1  0
 17 32  1  0
M  CHG  2  19  -1  21  -1
M  END
>  <mol_id>  (5) 
2026-08-23-6tgu-s0-n100-r2-0005

>  <rmsd_to_ref>  (5) 
0.637755102049961

$$$$
6tgu.A
     RDKit          3D

 32 34  0  0  0  0  0  0  0  0999 V2000
    3.9554   20.3265   37.6923 C   0  0  0  0  0  0  0  0  0  0  0  0
    3.0574   19.9854   38.7931 C   0  0  0  0  0  0  0  0  0  0  0  0
    2.4516   21.0069   39.4817 C   0  0  0  0  0  0  0  0  0  0  0  0
    1.6031   20.7165   40.5204 C   0  0  0  0  0  0  0  0  0  0  0  0
    1.3230   19.4017   40.9157 C   0  0  0  0  0  0  0  0  0  0  0  0
    0.1669   17.8243   42.3815 C   0  0  0  0  0  0  0  0  0  0  0  0
   -0.0055   15.5781   42.6865 C   0  0  0  0  0  0  0  0  0  0  0  0
    0.3671   14.2291   42.2937 C   0  0  0  0  0  0  0  0  0  0  0  0
   -0.1296   13.1195   42.9421 C   0  0  0  0  0  0  0  0  0  0  0  0
    0.2129   11.8303   42.5832 C   0  0  0  0  0  0  0  0  0  0  0  0
    1.0855   11.6127   41.5372 C   0  0  0  0  0  0  0  0  0  0  0  0
    1.5973   12.7060   40.8713 C   0  0  0  0  0  0  0  0  0  0  0  0
    1.2383   13.9993   41.2500 C   0  0  0  0  0  0  0  0  0  0  0  0
   -0.9242   15.7831   43.7885 C   0  0  0  0  0  0  0  0  0  0  0  0
    1.9592   18.4199   40.1884 C   0  0  0  0  0  0  0  0  0  0  0  0
    2.8176   18.6850   39.1389 C   0  0  0  0  0  0  0  0  0  0  0  0
    0.4434   19.1410   41.9906 N   0  0  0  0  0  0  0  0  0  0  0  0
    0.3892   16.6812   42.1618 N   0  0  0  0  0  0  0  0  0  0  0  0
    4.5922   19.3186   36.9656 O   0  0  0  0  0  0  0  0  0  0  0  0
    4.1912   21.5266   37.3556 O   0  0  0  0  0  0  0  0  0  0  0  0
    3.4324   17.6696   38.4390 O   0  0  0  0  0  0  0  0  0  0  0  0
   -1.0353   17.6418   43.8430 S   0  0  0  0  0  0  0  0  0  0  0  0
    1.4942    9.9657   41.1135 Cl  0  0  0  0  0  0  0  0  0  0  0  0
    2.6254   22.0558   39.2266 H   0  0  0  0  0  0  0  0  0  0  0  0
    1.1380   21.5375   41.0476 H   0  0  0  0  0  0  0  0  0  0  0  0
   -0.8243   13.2429   43.7771 H   0  0  0  0  0  0  0  0  0  0  0  0
   -0.2190   11.0087   43.1409 H   0  0  0  0  0  0  0  0  0  0  0  0
    2.2814   12.5591   40.0502 H   0  0  0  0  0  0  0  0  0  0  0  0
    1.6429   14.8744   40.7230 H   0  0  0  0  0  0  0  0  0  0  0  0
   -1.4094   15.1333   44.4032 H   0  0  0  0  0  0  0  0  0  0  0  0
    1.8034   17.3767   40.4217 H   0  0  0  0  0  0  0  0  0  0  0  0
    0.0231   19.9878   42.4624 H   0  0  0  0  0  0  0  0  0  0  0  0
  1  2  1  0
  1 19  1  0
  1 20  2  0
  2  3  1  0
  2 16  2  0
  3  4  2  0
  4  5  1  0
  5 15  2  0
  5 17  1  0
  6 17  1  0
  6 18  2  0
  6 22  1  0
  7  8  1  0
  7 14  2  0
  7 18  1  0
  8  9  1  0
  8 13  2  0
  9 10  2  0
 10 11  1  0
 11 12  2  0
 11 23  1  0
 12 13  1  0
 14 22  1  0
 15 16  1  0
 16 21  1  0
  3 24  1  0
  4 25  1  0
  9 26  1  0
 10 27  1  0
 12 28  1  0
 13 29  1  0
 14 30  1  0
 15 31  1  0
 17 32  1  0
M  CHG  2  19  -1  21  -1
M  END
>  <mol_id>  (6) 
2026-08-23-6tgu-s0-n100-r2-0006

>  <rmsd_to_ref>  (6) 
0.6836734693947875

$$$$
6tgu.A
     RDKit          3D

 32 34  0  0  0  0  0  0  0  0999 V2000
    2.8210   20.6786   37.5100 C   0  0  0  0  0  0  0  0  0  0  0  0
    2.4360   20.1958   38.9112 C   0  0  0  0  0  0  0  0  0  0  0  0
    1.7394   21.0320   39.7808 C   0  0  0  0  0  0  0  0  0  0  0  0
    1.2066   20.5685   40.9882 C   0  0  0  0  0  0  0  0  0  0  0  0
    1.5123   19.2777   41.4433 C   0  0  0  0  0  0  0  0  0  0  0  0
    0.6795   17.4852   43.0423 C   0  0  0  0  0  0  0  0  0  0  0  0
    0.7478   15.2120   42.9850 C   0  0  0  0  0  0  0  0  0  0  0  0
    1.1752   13.9092   42.4738 C   0  0  0  0  0  0  0  0  0  0  0  0
    0.6478   12.7075   42.9675 C   0  0  0  0  0  0  0  0  0  0  0  0
    1.0437   11.4808   42.4437 C   0  0  0  0  0  0  0  0  0  0  0  0
    1.9392   11.4671   41.3910 C   0  0  0  0  0  0  0  0  0  0  0  0
    2.4812   12.6317   40.8685 C   0  0  0  0  0  0  0  0  0  0  0  0
    2.0812   13.8486   41.4137 C   0  0  0  0  0  0  0  0  0  0  0  0
   -0.1741   15.3773   43.9846 C   0  0  0  0  0  0  0  0  0  0  0  0
    2.2031   18.4197   40.5757 C   0  0  0  0  0  0  0  0  0  0  0  0
    2.6529   18.8922   39.3414 C   0  0  0  0  0  0  0  0  0  0  0  0
    0.9251   18.7669   42.6415 N   0  0  0  0  0  0  0  0  0  0  0  0
    1.1893   16.4017   42.3591 N   0  0  0  0  0  0  0  0  0  0  0  0
    2.3332   21.7871   37.1405 O   0  0  0  0  0  0  0  0  0  0  0  0
    3.5169   19.9059   36.8155 O   0  0  0  0  0  0  0  0  0  0  0  0
    3.2357   18.0162   38.4567 O   0  0  0  0  0  0  0  0  0  0  0  0
   -0.5699   17.0415   44.1892 S   0  0  0  0  0  0  0  0  0  0  0  0
    2.4102    9.9491   40.7015 Cl  0  0  0  0  0  0  0  0  0  0  0  0
    1.6042   22.0894   39.5096 H   0  0  0  0  0  0  0  0  0  0  0  0
    0.5465   21.2179   41.5820 H   0  0  0  0  0  0  0  0  0  0  0  0
   -0.0909   12.7351   43.7821 H   0  0  0  0  0  0  0  0  0  0  0  0
    0.6517   10.5407   42.8590 H   0  0  0  0  0  0  0  0  0  0  0  0
    3.2086   12.5950   40.0441 H   0  0  0  0  0  0  0  0  0  0  0  0
    2.4880   14.7831   40.9999 H   0  0  0  0  0  0  0  0  0  0  0  0
   -0.6044   14.5569   44.5776 H   0  0  0  0  0  0  0  0  0  0  0  0
    2.3903   17.3757   40.8671 H   0  0  0  0  0  0  0  0  0  0  0  0
    0.6382   19.4886   43.3180 H   0  0  0  0  0  0  0  0  0  0  0  0
  1  2  1  0
  1 19  1  0
  1 20  2  0
  2  3  1  0
  2 16  2  0
  3  4  2  0
  4  5  1  0
  5 15  2  0
  5 17  1  0
  6 17  1  0
  6 18  2  0
  6 22  1  0
  7  8  1  0
  7 14  2  0
  7 18  1  0
  8  9  1  0
  8 13  2  0
  9 10  2  0
 10 11  1  0
 11 12  2  0
 11 23  1  0
 12 13  1  0
 14 22  1  0
 15 16  1  0
 16 21  1  0
  3 24  1  0
  4 25  1  0
  9 26  1  0
 10 27  1  0
 12 28  1  0
 13 29  1  0
 14 30  1  0
 15 31  1  0
 17 32  1  0
M  CHG  2  19  -1  21  -1
M  END
>  <mol_id>  (7) 
2026-08-23-6tgu-s0-n100-r2-0007

>  <rmsd_to_ref>  (7) 
0.7295918367404252

$$$$
6tgu.A
     RDKit          3D

 32 34  0  0  0  0  0  0  0  0999 V2000
    3.8396   19.4201   36.6735 C   0  0  0  0  0  0  0  0  0  0  0  0
    2.9820   19.3070   37.8508 C   0  0  0  0  0  0  0  0  0  0  0  0
    2.2663   20.4100   38.2454 C   0  0  0  0  0  0  0  0  0  0  0  0
    1.4525   20.3331   39.3476 C   0  0  0  0  0  0  0  0  0  0  0  0
    1.3174   19.1591   40.1006 C   0  0  0  0  0  0  0  0  0  0  0  0
    0.3382   17.9408   41.9794 C   0  0  0  0  0  0  0  0  0  0  0  0
    0.4126   15.8642   42.9015 C   0  0  0  0  0  0  0  0  0  0  0  0
    0.9319   14.5065   42.8887 C   0  0  0  0  0  0  0  0  0  0  0  0
    0.5585   13.5762   43.8338 C   0  0  0  0  0  0  0  0  0  0  0  0
    1.0412   12.2818   43.8377 C   0  0  0  0  0  0  0  0  0  0  0  0
    1.9347   11.8745   42.8689 C   0  0  0  0  0  0  0  0  0  0  0  0
    2.3249   12.7860   41.9111 C   0  0  0  0  0  0  0  0  0  0  0  0
    1.8253   14.0879   41.9255 C   0  0  0  0  0  0  0  0  0  0  0  0
   -0.5255   16.2703   43.9289 C   0  0  0  0  0  0  0  0  0  0  0  0
    2.0591   18.0864   39.6570 C   0  0  0  0  0  0  0  0  0  0  0  0
    2.8856   18.1372   38.5511 C   0  0  0  0  0  0  0  0  0  0  0  0
    0.4694   19.1174   41.2302 N   0  0  0  0  0  0  0  0  0  0  0  0
    0.6850   16.8121   42.0798 N   0  0  0  0  0  0  0  0  0  0  0  0
    4.5847   18.3226   36.2376 O   0  0  0  0  0  0  0  0  0  0  0  0
    3.9431   20.4963   36.0098 O   0  0  0  0  0  0  0  0  0  0  0  0
    3.6097   17.0378   38.1437 O   0  0  0  0  0  0  0  0  0  0  0  0
   -0.8400   18.0476   43.4678 S   0  0  0  0  0  0  0  0  0  0  0  0
    2.5226   10.2277   42.9082 Cl  0  0  0  0  0  0  0  0  0  0  0  0
    2.3245   21.3580   37.7039 H   0  0  0  0  0  0  0  0  0  0  0  0
    0.8989   21.2146   39.6390 H   0  0  0  0  0  0  0  0  0  0  0  0
   -0.1475   13.8536   44.6211 H   0  0  0  0  0  0  0  0  0  0  0  0
    0.7008   11.6078   44.6138 H   0  0  0  0  0  0  0  0  0  0  0  0
    3.0228   12.4889   41.1440 H   0  0  0  0  0  0  0  0  0  0  0  0
    2.1326   14.8187   41.1648 H   0  0  0  0  0  0  0  0  0  0  0  0
   -0.9379   15.7705   44.7135 H   0  0  0  0  0  0  0  0  0  0  0  0
    2.0182   17.1395   40.1754 H   0  0  0  0  0  0  0  0  0  0  0  0
   -0.0423   20.0128   41.4599 H   0  0  0  0  0  0  0  0  0  0  0  0
  1  2  1  0
  1 19  1  0
  1 20  2  0
  2  3  1  0
  2 16  2  0
  3  4  2  0
  4  5  1  0
  5 15  2  0
  5 17  1  0
  6 17  1  0
  6 18  2  0
  6 22  1  0
  7  8  1  0
  7 14  2  0
  7 18  1  0
  8  9  1  0
  8 13  2  0
  9 10  2  0
 10 11  1  0
 11 12  2  0
 11 23  1  0
 12 13  1  0
 14 22  1  0
 15 16  1  0
 16 21  1  0
  3 24  1  0
  4 25  1  0
  9 26  1  0
 10 27  1  0
 12 28  1  0
 13 29  1  0
 14 30  1  0
 15 31  1  0
 17 32  1  0
M  CHG  2  19  -1  21  -1
M  END
>  <mol_id>  (8) 
2026-08-23-6tgu-s0-n100-r2-0008

>  <rmsd_to_ref>  (8) 
0.7755102040865597

$$$$
6tgu.A
     RDKit          3D

 32 34  0  0  0  0  0  0  0  0999 V2000
    2.6235   19.2862   36.3503 C   0  0  0  0  0  0  0  0  0  0  0  0
    2.3935   19.2512   37.8637 C   0  0  0  0  0  0  0  0  0  0  0  0
    1.8446   20.3499   38.5213 C   0  0  0  0  0  0  0  0  0  0  0  0
    1.4451   20.2897   39.8604 C   0  0  0  0  0  0  0  0  0  0  0  0
    1.7498   19.1617   40.6360 C   0  0  0  0  0  0  0  0  0  0  0  0
    1.0451   17.9648   42.7653 C   0  0  0  0  0  0  0  0  0  0  0  0
    1.0103   15.7703   43.3641 C   0  0  0  0  0  0  0  0  0  0  0  0
    1.3167   14.3476   43.2114 C   0  0  0  0  0  0  0  0  0  0  0  0
    0.8039   13.3788   44.0857 C   0  0  0  0  0  0  0  0  0  0  0  0
    1.0806   12.0276   43.9023 C   0  0  0  0  0  0  0  0  0  0  0  0
    1.8388   11.6482   42.8107 C   0  0  0  0  0  0  0  0  0  0  0  0
    2.3609   12.5723   41.9182 C   0  0  0  0  0  0  0  0  0  0  0  0
    2.0823   13.9205   42.1253 C   0  0  0  0  0  0  0  0  0  0  0  0
    0.2258   16.2816   44.3639 C   0  0  0  0  0  0  0  0  0  0  0  0
    2.2922   18.0432   39.9873 C   0  0  0  0  0  0  0  0  0  0  0  0
    2.6066   18.1107   38.6288 C   0  0  0  0  0  0  0  0  0  0  0  0
    1.2932   19.0577   41.9858 N   0  0  0  0  0  0  0  0  0  0  0  0
    1.4212   16.6966   42.3766 N   0  0  0  0  0  0  0  0  0  0  0  0
    2.1410   20.2779   35.7283 O   0  0  0  0  0  0  0  0  0  0  0  0
    3.1958   18.2979   35.8409 O   0  0  0  0  0  0  0  0  0  0  0  0
    3.0391   16.9783   37.9805 O   0  0  0  0  0  0  0  0  0  0  0  0
   -0.0716   17.9604   44.1167 S   0  0  0  0  0  0  0  0  0  0  0  0
    2.1575    9.9659   42.5463 Cl  0  0  0  0  0  0  0  0  0  0  0  0
    1.7216   21.2940   37.9703 H   0  0  0  0  0  0  0  0  0  0  0  0
    0.8906   21.1288   40.3060 H   0  0  0  0  0  0  0  0  0  0  0  0
    0.1726   13.6920   44.9303 H   0  0  0  0  0  0  0  0  0  0  0  0
    0.7035   11.2764   44.6118 H   0  0  0  0  0  0  0  0  0  0  0  0
    2.9795   12.2484   41.0683 H   0  0  0  0  0  0  0  0  0  0  0  0
    2.4742   14.6656   41.4174 H   0  0  0  0  0  0  0  0  0  0  0  0
   -0.1625   15.6980   45.2116 H   0  0  0  0  0  0  0  0  0  0  0  0
    2.4698   17.1137   40.5481 H   0  0  0  0  0  0  0  0  0  0  0  0
    1.1220   19.9612   42.4498 H   0  0  0  0  0  0  0  0  0  0  0  0
  1  2  1  0
  1 19  1  0
  1 20  2  0
  2  3  1  0
  2 16  2  0
  3  4  2  0
  4  5  1  0
  5 15  2  0
  5 17  1  0
  6 17  1  0
  6 18  2  0
  6 22  1  0
  7  8  1  0
  7 14  2  0
  7 18  1  0
  8  9  1  0
  8 13  2  0
  9 10  2  0
 10 11  1  0
 11 12  2  0
 11 23  1  0
 12 13  1  0
 14 22  1  0
 15 16  1  0
 16 21  1  0
  3 24  1  0
  4 25  1  0
  9 26  1  0
 10 27  1  0
 12 28  1  0
 13 29  1  0
 14 30  1  0
 15 31  1  0
 17 32  1  0
M  CHG  2  19  -1  21  -1
M  END
>  <mol_id>  (9) 
2026-08-23-6tgu-s0-n100-r2-0009

>  <rmsd_to_ref>  (9) 
0.821428571429454

$$$$
6tgu.A
     RDKit          3D

 32 34  0  0  0  0  0  0  0  0999 V2000
    3.0363   19.6658   36.8277 C   0  0  0  0  0  0  0  0  0  0  0  0
    2.2842   19.5387   38.0631 C   0  0  0  0  0  0  0  0  0  0  0  0
    1.4907   20.5647   38.5276 C   0  0  0  0  0  0  0  0  0  0  0  0
    0.7930   20.4063   39.7030 C   0  0  0  0  0  0  0  0  0  0  0  0
    0.8528   19.2341   40.4597 C   0  0  0  0  0  0  0  0  0  0  0  0
    0.1873   17.9236   42.4198 C   0  0  0  0  0  0  0  0  0  0  0  0
    0.5322   15.9070   43.3547 C   0  0  0  0  0  0  0  0  0  0  0  0
    1.2203   14.6010   43.2537 C   0  0  0  0  0  0  0  0  0  0  0  0
    1.0502   13.6276   44.2167 C   0  0  0  0  0  0  0  0  0  0  0  0
    1.6841   12.4044   44.1382 C   0  0  0  0  0  0  0  0  0  0  0  0
    2.5129   12.1268   43.0792 C   0  0  0  0  0  0  0  0  0  0  0  0
    2.7055   13.0795   42.0969 C   0  0  0  0  0  0  0  0  0  0  0  0
    2.0592   14.2881   42.2049 C   0  0  0  0  0  0  0  0  0  0  0  0
   -0.3000   16.1883   44.4160 C   0  0  0  0  0  0  0  0  0  0  0  0
    1.6610   18.2388   39.9507 C   0  0  0  0  0  0  0  0  0  0  0  0
    2.3740   18.3643   38.7758 C   0  0  0  0  0  0  0  0  0  0  0  0
    0.1181   19.1132   41.6641 N   0  0  0  0  0  0  0  0  0  0  0  0
    0.6450   16.8726   42.4845 N   0  0  0  0  0  0  0  0  0  0  0  0
    2.9505   20.8618   36.0933 O   0  0  0  0  0  0  0  0  0  0  0  0
    3.7498   18.7260   36.4224 O   0  0  0  0  0  0  0  0  0  0  0  0
    3.1743   17.3078   38.3230 O   0  0  0  0  0  0  0  0  0  0  0  0
   -0.8620   17.9339   44.0072 S   0  0  0  0  0  0  0  0  0  0  0  0
    3.3303   10.5726   42.9612 Cl  0  0  0  0  0  0  0  0  0  0  0  0
    1.4476   21.4703   37.9382 H   0  0  0  0  0  0  0  0  0  0  0  0
    0.1793   21.2403   40.0329 H   0  0  0  0  0  0  0  0  0  0  0  0
    0.3968   13.8173   45.0727 H   0  0  0  0  0  0  0  0  0  0  0  0
    1.5066   11.6861   44.9277 H   0  0  0  0  0  0  0  0  0  0  0  0
    3.3557   12.8840   41.2500 H   0  0  0  0  0  0  0  0  0  0  0  0
    2.2116   15.0280   41.4378 H   0  0  0  0  0  0  0  0  0  0  0  0
   -0.6276   15.6889   45.2754 H   0  0  0  0  0  0  0  0  0  0  0  0
    1.7659   17.2976   40.4718 H   0  0  0  0  0  0  0  0  0  0  0  0
   -0.4607   19.9522   41.9369 H   0  0  0  0  0  0  0  0  0  0  0  0
  1  2  1  0
  1 19  1  0
  1 20  2  0
  2  3  1  0
  2 16  2  0
  3  4  2  0
  4  5  1  0
  5 15  2  0
  5 17  1  0
  6 17  1  0
  6 18  2  0
  6 22  1  0
  7  8  1  0
  7 14  2  0
  7 18  1  0
  8  9  1  0
  8 13  2  0
  9 10  2  0
 10 11  1  0
 11 12  2  0
 11 23  1  0
 12 13  1  0
 14 22  1  0
 15 16  1  0
 16 21  1  0
  3 24  1  0
  4 25  1  0
  9 26  1  0
 10 27  1  0
 12 28  1  0
 13 29  1  0
 14 30  1  0
 15 31  1  0
 17 32  1  0
M  CHG  2  19  -1  21  -1
M  END
>  <mol_id>  (10) 
2026-08-23-6tgu-s0-n100-r2-0010

>  <rmsd_to_ref>  (10) 
0.8673469387756773

$$$$
6tgu.A
     RDKit          3D

 32 34  0  0  0  0  0  0  0  0999 V2000
    4.4764   19.8308   37.2704 C   0  0  0  0  0  0  0  0  0  0  0  0
    3.7711   19.6166   38.6125 C   0  0  0  0  0  0  0  0  0  0  0  0
    3.1929   20.6897   39.2869 C   0  0  0  0  0  0  0  0  0  0  0  0
    2.3810   20.5088   40.4114 C   0  0  0  0  0  0  0  0  0  0  0  0
    2.2672   19.2415   41.0011 C   0  0  0  0  0  0  0  0  0  0  0  0
    0.7637   17.8980   42.5496 C   0  0  0  0  0  0  0  0  0  0  0  0
    0.2452   15.6858   42.6623 C   0  0  0  0  0  0  0  0  0  0  0  0
    0.3909   14.2693   42.3251 C   0  0  0  0  0  0  0  0  0  0  0  0
   -0.4999   13.2966   42.8007 C   0  0  0  0  0  0  0  0  0  0  0  0
   -0.3626   11.9597   42.4404 C   0  0  0  0  0  0  0  0  0  0  0  0
    0.6473   11.6094   41.5642 C   0  0  0  0  0  0  0  0  0  0  0  0
    1.5467   12.5397   41.0654 C   0  0  0  0  0  0  0  0  0  0  0  0
    1.3996   13.8705   41.4468 C   0  0  0  0  0  0  0  0  0  0  0  0
   -0.7423   16.1827   43.4712 C   0  0  0  0  0  0  0  0  0  0  0  0
    2.8338   18.1490   40.3292 C   0  0  0  0  0  0  0  0  0  0  0  0
    3.5730   18.3560   39.1631 C   0  0  0  0  0  0  0  0  0  0  0  0
    1.3925   19.0273   42.1103 N   0  0  0  0  0  0  0  0  0  0  0  0
    1.0710   16.6533   42.0427 N   0  0  0  0  0  0  0  0  0  0  0  0
    4.3562   20.9768   36.7456 O   0  0  0  0  0  0  0  0  0  0  0  0
    5.0440   18.8385   36.7635 O   0  0  0  0  0  0  0  0  0  0  0  0
    4.0347   17.2707   38.4568 O   0  0  0  0  0  0  0  0  0  0  0  0
   -0.7171   17.9052   43.4879 S   0  0  0  0  0  0  0  0  0  0  0  0
    0.8055    9.9551   41.0744 Cl  0  0  0  0  0  0  0  0  0  0  0  0
    3.3805   21.7110   38.9237 H   0  0  0  0  0  0  0  0  0  0  0  0
    1.8308   21.3623   40.8342 H   0  0  0  0  0  0  0  0  0  0  0  0
   -1.3206   13.5952   43.4695 H   0  0  0  0  0  0  0  0  0  0  0  0
   -1.0443   11.1969   42.8446 H   0  0  0  0  0  0  0  0  0  0  0  0
    2.3557   12.2338   40.3858 H   0  0  0  0  0  0  0  0  0  0  0  0
    2.0938   14.6243   41.0470 H   0  0  0  0  0  0  0  0  0  0  0  0
   -1.4562   15.5643   44.0350 H   0  0  0  0  0  0  0  0  0  0  0  0
    2.6961   17.1302   40.7204 H   0  0  0  0  0  0  0  0  0  0  0  0
    1.2044   19.8682   42.6747 H   0  0  0  0  0  0  0  0  0  0  0  0
  1  2  1  0
  1 19  1  0
  1 20  2  0
  2  3  1  0
  2 16  2  0
  3  4  2  0
  4  5  1  0
  5 15  2  0
  5 17  1  0
  6 17  1  0
  6 18  2  0
  6 22  1  0
  7  8  1  0
  7 14  2  0
  7 18  1  0
  8  9  1  0
  8 13  2  0
  9 10  2  0
 10 11  1  0
 11 12  2  0
 11 23  1  0
 12 13  1  0
 14 22  1  0
 15 16  1  0
 16 21  1  0
  3 24  1  0
  4 25  1  0
  9 26  1  0
 10 27  1  0
 12 28  1  0
 13 29  1  0
 14 30  1  0
 15 31  1  0
 17 32  1  0
M  CHG  2  19  -1  21  -1
M  END
>  <mol_id>  (11) 
2026-08-23-6tgu-s0-n100-r2-0011

>  <rmsd_to_ref>  (11) 
0.9132653061238093

$$$$
6tgu.A
     RDKit          3D

 32 34  0  0  0  0  0  0  0  0999 V2000
    2.8706   20.5323   36.6757 C   0  0  0  0  0  0  0  0  0  0  0  0
    2.5715   20.0417   38.0201 C   0  0  0  0  0  0  0  0  0  0  0  0
    2.6460   20.8843   39.1199 C   0  0  0  0  0  0  0  0  0  0  0  0
    2.3697   20.4479   40.3960 C   0  0  0  0  0  0  0  0  0  0  0  0
    1.9972   19.1100   40.6204 C   0  0  0  0  0  0  0  0  0  0  0  0
    1.0489   17.5425   42.3300 C   0  0  0  0  0  0  0  0  0  0  0  0
    0.3301   15.4469   42.8679 C   0  0  0  0  0  0  0  0  0  0  0  0
    0.5788   13.9782   42.9242 C   0  0  0  0  0  0  0  0  0  0  0  0
   -0.3914   13.1186   43.4230 C   0  0  0  0  0  0  0  0  0  0  0  0
   -0.1549   11.7540   43.4546 C   0  0  0  0  0  0  0  0  0  0  0  0
    1.0377   11.2354   42.9960 C   0  0  0  0  0  0  0  0  0  0  0  0
    1.9856   12.0907   42.5095 C   0  0  0  0  0  0  0  0  0  0  0  0
    1.7804   13.4520   42.4635 C   0  0  0  0  0  0  0  0  0  0  0  0
   -0.9027   15.9387   43.3017 C   0  0  0  0  0  0  0  0  0  0  0  0
    1.9226   18.2657   39.5209 C   0  0  0  0  0  0  0  0  0  0  0  0
    2.2024   18.7161   38.2495 C   0  0  0  0  0  0  0  0  0  0  0  0
    1.7337   18.6948   41.9450 N   0  0  0  0  0  0  0  0  0  0  0  0
    1.1818   16.2913   42.4274 N   0  0  0  0  0  0  0  0  0  0  0  0
    2.7859   19.6430   35.6109 O   0  0  0  0  0  0  0  0  0  0  0  0
    3.1970   21.7498   36.5245 O   0  0  0  0  0  0  0  0  0  0  0  0
    2.1257   17.8731   37.1787 O   0  0  0  0  0  0  0  0  0  0  0  0
   -0.7116   17.7854   43.0036 S   0  0  0  0  0  0  0  0  0  0  0  0
    1.2349    9.4969   43.0796 Cl  0  0  0  0  0  0  0  0  0  0  0  0
    2.9276   21.9434   39.0272 H   0  0  0  0  0  0  0  0  0  0  0  0
    2.4343   21.1267   41.2529 H   0  0  0  0  0  0  0  0  0  0  0  0
   -1.3473   13.5066   43.7910 H   0  0  0  0  0  0  0  0  0  0  0  0
   -0.9610   11.1436   43.8592 H   0  0  0  0  0  0  0  0  0  0  0  0
    2.9187   11.6809   42.1516 H   0  0  0  0  0  0  0  0  0  0  0  0
    2.5252   14.1229   42.0778 H   0  0  0  0  0  0  0  0  0  0  0  0
   -1.7516   15.5267   43.6890 H   0  0  0  0  0  0  0  0  0  0  0  0
    1.6370   17.2121   39.6668 H   0  0  0  0  0  0  0  0  0  0  0  0
    2.0915   19.3199   42.7304 H   0  0  0  0  0  0  0  0  0  0  0  0
  1  2  1  0
  1 19  1  0
  1 20  2  0
  2  3  1  0
  2 16  2  0
  3  4  2  0
  4  5  1  0
  5 15  2  0
  5 17  1  0
  6 17  1  0
  6 18  2  0
  6 22  1  0
  7  8  1  0
  7 14  2  0
  7 18  1  0
  8  9  1  0
  8 13  2  0
  9 10  2  0
 10 11  1  0
 11 12  2  0
 11 23  1  0
 12 13  1  0
 14 22  1  0
 15 16  1  0
 16 21  1  0
  3 24  1  0
  4 25  1  0
  9 26  1  0
 10 27  1  0
 12 28  1  0
 13 29  1  0
 14 30  1  0
 15 31  1  0
 17 32  1  0
M  CHG  2  19  -1  21  -1
M  END
>  <mol_id>  (12) 
2026-08-23-6tgu-s0-n100-r2-0012

>  <rmsd_to_ref>  (12) 
0.9591836734724561

$$$$
6tgu.A
     RDKit          3D

 32 34  0  0  0  0  0  0  0  0999 V2000
    1.4893   20.3417   36.5988 C   0  0  0  0  0  0  0  0  0  0  0  0
    1.4829   20.0718   38.1061 C   0  0  0  0  0  0  0  0  0  0  0  0
    1.0205   21.0389   38.9958 C   0  0  0  0  0  0  0  0  0  0  0  0
    0.8214   20.7641   40.3527 C   0  0  0  0  0  0  0  0  0  0  0  0
    1.2515   19.5442   40.8946 C   0  0  0  0  0  0  0  0  0  0  0  0
    0.8813   18.0167   42.8929 C   0  0  0  0  0  0  0  0  0  0  0  0
    0.9645   15.7574   43.1461 C   0  0  0  0  0  0  0  0  0  0  0  0
    1.2651   14.3857   42.7346 C   0  0  0  0  0  0  0  0  0  0  0  0
    0.8986   13.2788   43.5135 C   0  0  0  0  0  0  0  0  0  0  0  0
    1.1643   11.9813   43.0872 C   0  0  0  0  0  0  0  0  0  0  0  0
    1.7605   11.7975   41.8538 C   0  0  0  0  0  0  0  0  0  0  0  0
    2.1341   12.8632   41.0490 C   0  0  0  0  0  0  0  0  0  0  0  0
    1.8700   14.1542   41.4983 C   0  0  0  0  0  0  0  0  0  0  0  0
    0.3272   16.0844   44.3137 C   0  0  0  0  0  0  0  0  0  0  0  0
    1.7090   18.5559   40.0114 C   0  0  0  0  0  0  0  0  0  0  0  0
    1.8210   18.8378   38.6486 C   0  0  0  0  0  0  0  0  0  0  0  0
    0.9980   19.2225   42.2634 N   0  0  0  0  0  0  0  0  0  0  0  0
    1.2143   16.8356   42.2645 N   0  0  0  0  0  0  0  0  0  0  0  0
    0.9076   21.3975   36.2115 O   0  0  0  0  0  0  0  0  0  0  0  0
    1.9949   19.4622   35.8676 O   0  0  0  0  0  0  0  0  0  0  0  0
    2.1700   17.8317   37.7793 O   0  0  0  0  0  0  0  0  0  0  0  0
   -0.0263   17.7694   44.3723 S   0  0  0  0  0  0  0  0  0  0  0  0
    2.0604   10.1864   41.2915 Cl  0  0  0  0  0  0  0  0  0  0  0  0
    0.8055   22.0499   38.6196 H   0  0  0  0  0  0  0  0  0  0  0  0
    0.3263   21.5063   40.9962 H   0  0  0  0  0  0  0  0  0  0  0  0
    0.3929   13.4389   44.4772 H   0  0  0  0  0  0  0  0  0  0  0  0
    0.9051   11.1190   43.7190 H   0  0  0  0  0  0  0  0  0  0  0  0
    2.6265   12.6929   40.0803 H   0  0  0  0  0  0  0  0  0  0  0  0
    2.1442   15.0107   40.8649 H   0  0  0  0  0  0  0  0  0  0  0  0
    0.0748   15.3666   45.1081 H   0  0  0  0  0  0  0  0  0  0  0  0
    1.9792   17.5597   40.3917 H   0  0  0  0  0  0  0  0  0  0  0  0
    0.8838   20.0394   42.8802 H   0  0  0  0  0  0  0  0  0  0  0  0
  1  2  1  0
  1 19  1  0
  1 20  2  0
  2  3  1  0
  2 16  2  0
  3  4  2  0
  4  5  1  0
  5 15  2  0
  5 17  1  0
  6 17  1  0
  6 18  2  0
  6 22  1  0
  7  8  1  0
  7 14  2  0
  7 18  1  0
  8  9  1  0
  8 13  2  0
  9 10  2  0
 10 11  1  0
 11 12  2  0
 11 23  1  0
 12 13  1  0
 14 22  1  0
 15 16  1  0
 16 21  1  0
  3 24  1  0
  4 25  1  0
  9 26  1  0
 10 27  1  0
 12 28  1  0
 13 29  1  0
 14 30  1  0
 15 31  1  0
 17 32  1  0
M  CHG  2  19  -1  21  -1
M  END
>  <mol_id>  (13) 
2026-08-23-6tgu-s0-n100-r2-0013

>  <rmsd_to_ref>  (13) 
1.0051020408169427

$$$$
6tgu.A
     RDKit          3D

 32 34  0  0  0  0  0  0  0  0999 V2000
    2.5393   20.5487   36.3348 C   0  0  0  0  0  0  0  0  0  0  0  0
    2.2176   20.1063   37.6857 C   0  0  0  0  0  0  0  0  0  0  0  0
    1.9480   20.9872   38.7009 C   0  0  0  0  0  0  0  0  0  0  0  0
    1.6640   20.5592   39.9659 C   0  0  0  0  0  0  0  0  0  0  0  0
    1.6283   19.2183   40.3062 C   0  0  0  0  0  0  0  0  0  0  0  0
    0.9528   17.5483   42.0540 C   0  0  0  0  0  0  0  0  0  0  0  0
    0.6760   15.3938   42.6696 C   0  0  0  0  0  0  0  0  0  0  0  0
    1.2554   14.0444   42.8676 C   0  0  0  0  0  0  0  0  0  0  0  0
    2.5883   13.7853   42.6267 C   0  0  0  0  0  0  0  0  0  0  0  0
    3.1339   12.5149   42.7976 C   0  0  0  0  0  0  0  0  0  0  0  0
    2.3056   11.4962   43.2205 C   0  0  0  0  0  0  0  0  0  0  0  0
    0.9591   11.7118   43.4754 C   0  0  0  0  0  0  0  0  0  0  0  0
    0.4708   12.9976   43.2883 C   0  0  0  0  0  0  0  0  0  0  0  0
   -0.6602   15.6329   42.8844 C   0  0  0  0  0  0  0  0  0  0  0  0
    1.8956   18.3223   39.2995 C   0  0  0  0  0  0  0  0  0  0  0  0
    2.1888   18.7544   38.0017 C   0  0  0  0  0  0  0  0  0  0  0  0
    1.3501   18.8514   41.6451 N   0  0  0  0  0  0  0  0  0  0  0  0
    1.3673   16.4189   42.2614 N   0  0  0  0  0  0  0  0  0  0  0  0
    2.5113   21.9453   36.1308 O   0  0  0  0  0  0  0  0  0  0  0  0
    2.8280   19.7692   35.3957 O   0  0  0  0  0  0  0  0  0  0  0  0
    2.4547   17.7858   37.0160 O   0  0  0  0  0  0  0  0  0  0  0  0
   -0.8388   17.4435   42.4512 S   0  0  0  0  0  0  0  0  0  0  0  0
    2.9531    9.8851   43.4388 Cl  0  0  0  0  0  0  0  0  0  0  0  0
    1.9666   22.0391   38.4665 H   0  0  0  0  0  0  0  0  0  0  0  0
    1.4539   21.3003   40.7527 H   0  0  0  0  0  0  0  0  0  0  0  0
    3.2537   14.5784   42.2912 H   0  0  0  0  0  0  0  0  0  0  0  0
    4.1916   12.3686   42.5906 H   0  0  0  0  0  0  0  0  0  0  0  0
    0.2913   10.9417   43.8013 H   0  0  0  0  0  0  0  0  0  0  0  0
   -0.5882   13.1460   43.4977 H   0  0  0  0  0  0  0  0  0  0  0  0
   -1.5058   15.0411   43.2145 H   0  0  0  0  0  0  0  0  0  0  0  0
    1.8654   17.2744   39.5573 H   0  0  0  0  0  0  0  0  0  0  0  0
    1.4355   19.5757   42.4054 H   0  0  0  0  0  0  0  0  0  0  0  0
  1  2  1  0
  1 19  1  0
  1 20  2  0
  2  3  1  0
  2 16  2  0
  3  4  2  0
  4  5  1  0
  5 15  2  0
  5 17  1  0
  6 17  1  0
  6 18  2  0
  6 22  1  0
  7  8  1  0
  7 14  2  0
  7 18  1  0
  8  9  1  0
  8 13  2  0
  9 10  2  0
 10 11  1  0
 11 12  2  0
 11 23  1  0
 12 13  1  0
 14 22  1  0
 15 16  1  0
 16 21  1  0
  3 24  1  0
  4 25  1  0
  9 26  1  0
 10 27  1  0
 12 28  1  0
 13 29  1  0
 14 30  1  0
 15 31  1  0
 17 32  1  0
M  CHG  2  19  -1  21  -1
M  END
>  <mol_id>  (14) 
2026-08-23-6tgu-s0-n100-r2-0014

>  <rmsd_to_ref>  (14) 
1.0510204081669297

$$$$
6tgu.A
     RDKit          3D

 32 34  0  0  0  0  0  0  0  0999 V2000
    4.0160   20.1964   37.8391 C   0  0  0  0  0  0  0  0  0  0  0  0
    3.3645   19.7546   39.1525 C   0  0  0  0  0  0  0  0  0  0  0  0
    2.7842   20.6916   40.0044 C   0  0  0  0  0  0  0  0  0  0  0  0
    2.0178   20.3133   41.1117 C   0  0  0  0  0  0  0  0  0  0  0  0
    1.9566   18.9668   41.4987 C   0  0  0  0  0  0  0  0  0  0  0  0
    0.5432   17.3537   42.8639 C   0  0  0  0  0  0  0  0  0  0  0  0
    0.0843   15.1363   42.6447 C   0  0  0  0  0  0  0  0  0  0  0  0
    0.2531   13.7947   42.0853 C   0  0  0  0  0  0  0  0  0  0  0  0
   -0.5957   12.7334   42.4303 C   0  0  0  0  0  0  0  0  0  0  0  0
   -0.4382   11.4737   41.8608 C   0  0  0  0  0  0  0  0  0  0  0  0
    0.5483   11.2948   40.9093 C   0  0  0  0  0  0  0  0  0  0  0  0
    1.4059   12.3181   40.5345 C   0  0  0  0  0  0  0  0  0  0  0  0
    1.2395   13.5682   41.1241 C   0  0  0  0  0  0  0  0  0  0  0  0
   -0.8857   15.4711   43.5521 C   0  0  0  0  0  0  0  0  0  0  0  0
    2.5259   18.0099   40.6465 C   0  0  0  0  0  0  0  0  0  0  0  0
    3.2176   18.4182   39.5046 C   0  0  0  0  0  0  0  0  0  0  0  0
    1.1277   18.5561   42.5875 N   0  0  0  0  0  0  0  0  0  0  0  0
    0.8632   16.2130   42.1588 N   0  0  0  0  0  0  0  0  0  0  0  0
    3.8485   21.4060   37.5043 O   0  0  0  0  0  0  0  0  0  0  0  0
    4.5896   19.3128   37.1654 O   0  0  0  0  0  0  0  0  0  0  0  0
    3.6806   17.4706   38.6228 O   0  0  0  0  0  0  0  0  0  0  0  0
   -0.9029   17.1699   43.8378 S   0  0  0  0  0  0  0  0  0  0  0  0
    0.7300    9.7425   40.1615 Cl  0  0  0  0  0  0  0  0  0  0  0  0
    2.9333   21.7621   39.8001 H   0  0  0  0  0  0  0  0  0  0  0  0
    1.4619   21.0736   41.6800 H   0  0  0  0  0  0  0  0  0  0  0  0
   -1.3992   12.8992   43.1631 H   0  0  0  0  0  0  0  0  0  0  0  0
   -1.0857   10.6370   42.1617 H   0  0  0  0  0  0  0  0  0  0  0  0
    2.1975   12.1464   39.7903 H   0  0  0  0  0  0  0  0  0  0  0  0
    1.8999   14.3957   40.8259 H   0  0  0  0  0  0  0  0  0  0  0  0
   -1.5635   14.7512   44.0341 H   0  0  0  0  0  0  0  0  0  0  0  0
    2.4277   16.9389   40.8773 H   0  0  0  0  0  0  0  0  0  0  0  0
    0.9389   19.2927   43.2823 H   0  0  0  0  0  0  0  0  0  0  0  0
  1  2  1  0
  1 19  1  0
  1 20  2  0
  2  3  1  0
  2 16  2  0
  3  4  2  0
  4  5  1  0
  5 15  2  0
  5 17  1  0
  6 17  1  0
  6 18  2  0
  6 22  1  0
  7  8  1  0
  7 14  2  0
  7 18  1  0
  8  9  1  0
  8 13  2  0
  9 10  2  0
 10 11  1  0
 11 12  2  0
 11 23  1  0
 12 13  1  0
 14 22  1  0
 15 16  1  0
 16 21  1  0
  3 24  1  0
  4 25  1  0
  9 26  1  0
 10 27  1  0
 12 28  1  0
 13 29  1  0
 14 30  1  0
 15 31  1  0
 17 32  1  0
M  CHG  2  19  -1  21  -1
M  END
>  <mol_id>  (15) 
2026-08-23-6tgu-s0-n100-r2-0015

>  <rmsd_to_ref>  (15) 
1.0969387755179596

$$$$
6tgu.A
     RDKit          3D

 32 34  0  0  0  0  0  0  0  0999 V2000
    2.9481   21.0682   37.8297 C   0  0  0  0  0  0  0  0  0  0  0  0
    2.1277   20.4080   38.8424 C   0  0  0  0  0  0  0  0  0  0  0  0
    1.2128   21.1620   39.5344 C   0  0  0  0  0  0  0  0  0  0  0  0
    0.4284   20.5688   40.4915 C   0  0  0  0  0  0  0  0  0  0  0  0
    0.5217   19.2049   40.7988 C   0  0  0  0  0  0  0  0  0  0  0  0
   -0.2054   17.2641   42.0942 C   0  0  0  0  0  0  0  0  0  0  0  0
    0.2673   15.0477   42.2731 C   0  0  0  0  0  0  0  0  0  0  0  0
    1.0384   13.8933   41.8422 C   0  0  0  0  0  0  0  0  0  0  0  0
    0.8508   12.6456   42.3958 C   0  0  0  0  0  0  0  0  0  0  0  0
    1.5738   11.5373   41.9993 C   0  0  0  0  0  0  0  0  0  0  0  0
    2.5295   11.6527   41.0113 C   0  0  0  0  0  0  0  0  0  0  0  0
    2.7373   12.8904   40.4406 C   0  0  0  0  0  0  0  0  0  0  0  0
    1.9962   13.9964   40.8557 C   0  0  0  0  0  0  0  0  0  0  0  0
   -0.7320   14.9031   43.3128 C   0  0  0  0  0  0  0  0  0  0  0  0
    1.4564   18.5001   40.0726 C   0  0  0  0  0  0  0  0  0  0  0  0
    2.2582   19.0729   39.1041 C   0  0  0  0  0  0  0  0  0  0  0  0
   -0.3029   18.6285   41.7911 N   0  0  0  0  0  0  0  0  0  0  0  0
    0.3524   16.2512   41.8348 N   0  0  0  0  0  0  0  0  0  0  0  0
    3.8909   20.3387   37.1027 O   0  0  0  0  0  0  0  0  0  0  0  0
    2.8426   22.3058   37.5716 O   0  0  0  0  0  0  0  0  0  0  0  0
    3.1807   18.3281   38.4019 O   0  0  0  0  0  0  0  0  0  0  0  0
   -1.3828   16.6430   43.4517 S   0  0  0  0  0  0  0  0  0  0  0  0
    3.4237   10.2262   40.5374 Cl  0  0  0  0  0  0  0  0  0  0  0  0
    1.0875   22.2316   39.3455 H   0  0  0  0  0  0  0  0  0  0  0  0
   -0.2847   21.1829   41.0231 H   0  0  0  0  0  0  0  0  0  0  0  0
    0.1042   12.5060   43.1821 H   0  0  0  0  0  0  0  0  0  0  0  0
    1.3693   10.5897   42.4817 H   0  0  0  0  0  0  0  0  0  0  0  0
    3.4798   13.0035   39.6662 H   0  0  0  0  0  0  0  0  0  0  0  0
    2.1574   14.9852   40.4046 H   0  0  0  0  0  0  0  0  0  0  0  0
   -1.0407   14.1003   43.8566 H   0  0  0  0  0  0  0  0  0  0  0  0
    1.5985   17.4426   40.2413 H   0  0  0  0  0  0  0  0  0  0  0  0
   -0.9777   19.2840   42.2722 H   0  0  0  0  0  0  0  0  0  0  0  0
  1  2  1  0
  1 19  1  0
  1 20  2  0
  2  3  1  0
  2 16  2  0
  3  4  2  0
  4  5  1  0
  5 15  2  0
  5 17  1  0
  6 17  1  0
  6 18  2  0
  6 22  1  0
  7  8  1  0
  7 14  2  0
  7 18  1  0
  8  9  1  0
  8 13  2  0
  9 10  2  0
 10 11  1  0
 11 12  2  0
 11 23  1  0
 12 13  1  0
 14 22  1  0
 15 16  1  0
 16 21  1  0
  3 24  1  0
  4 25  1  0
  9 26  1  0
 10 27  1  0
 12 28  1  0
 13 29  1  0
 14 30  1  0
 15 31  1  0
 17 32  1  0
M  CHG  2  19  -1  21  -1
M  END
>  <mol_id>  (16) 
2026-08-23-6tgu-s0-n100-r2-0016

>  <rmsd_to_ref>  (16) 
1.1428571428609586

$$$$
6tgu.A
     RDKit          3D

 32 34  0  0  0  0  0  0  0  0999 V2000
    3.7404   18.7999   36.2745 C   0  0  0  0  0  0  0  0  0  0  0  0
    3.2173   18.9035   37.7099 C   0  0  0  0  0  0  0  0  0  0  0  0
    2.7887   20.1269   38.2199 C   0  0  0  0  0  0  0  0  0  0  0  0
    2.1319   20.2286   39.4506 C   0  0  0  0  0  0  0  0  0  0  0  0
    2.0406   19.1122   40.2944 C   0  0  0  0  0  0  0  0  0  0  0  0
    0.7029   18.2102   42.2592 C   0  0  0  0  0  0  0  0  0  0  0  0
    0.1010   16.1065   42.8819 C   0  0  0  0  0  0  0  0  0  0  0  0
    0.1318   14.6448   42.8232 C   0  0  0  0  0  0  0  0  0  0  0  0
   -0.7300   13.8515   43.5940 C   0  0  0  0  0  0  0  0  0  0  0  0
   -0.7069   12.4637   43.4976 C   0  0  0  0  0  0  0  0  0  0  0  0
    0.1551   11.8761   42.5910 C   0  0  0  0  0  0  0  0  0  0  0  0
    1.0201   12.6226   41.8052 C   0  0  0  0  0  0  0  0  0  0  0  0
    0.9900   14.0094   41.9244 C   0  0  0  0  0  0  0  0  0  0  0  0
   -0.7412   16.8228   43.6908 C   0  0  0  0  0  0  0  0  0  0  0  0
    2.4571   17.8711   39.7921 C   0  0  0  0  0  0  0  0  0  0  0  0
    3.0376   17.7922   38.5249 C   0  0  0  0  0  0  0  0  0  0  0  0
    1.3179   19.1830   41.5248 N   0  0  0  0  0  0  0  0  0  0  0  0
    0.8784   16.8715   41.9805 N   0  0  0  0  0  0  0  0  0  0  0  0
    3.6033   19.8276   35.5477 O   0  0  0  0  0  0  0  0  0  0  0  0
    4.1853   17.6888   35.9121 O   0  0  0  0  0  0  0  0  0  0  0  0
    3.3458   16.5592   38.0008 O   0  0  0  0  0  0  0  0  0  0  0  0
   -0.6326   18.5090   43.3549 S   0  0  0  0  0  0  0  0  0  0  0  0
    0.1660   10.1510   42.4306 Cl  0  0  0  0  0  0  0  0  0  0  0  0
    2.9726   21.0413   37.6368 H   0  0  0  0  0  0  0  0  0  0  0  0
    1.6860   21.1863   39.7573 H   0  0  0  0  0  0  0  0  0  0  0  0
   -1.4357   14.3342   44.2860 H   0  0  0  0  0  0  0  0  0  0  0  0
   -1.3616   11.8464   44.1304 H   0  0  0  0  0  0  0  0  0  0  0  0
    1.7125   12.1316   41.1055 H   0  0  0  0  0  0  0  0  0  0  0  0
    1.6573   14.6178   41.2962 H   0  0  0  0  0  0  0  0  0  0  0  0
   -1.3991   16.3802   44.4532 H   0  0  0  0  0  0  0  0  0  0  0  0
    2.3266   16.9608   40.3957 H   0  0  0  0  0  0  0  0  0  0  0  0
    1.2491   20.1291   41.9261 H   0  0  0  0  0  0  0  0  0  0  0  0
  1  2  1  0
  1 19  1  0
  1 20  2  0
  2  3  1  0
  2 16  2  0
  3  4  2  0
  4  5  1  0
  5 15  2  0
  5 17  1  0
  6 17  1  0
  6 18  2  0
  6 22  1  0
  7  8  1  0
  7 14  2  0
  7 18  1  0
  8  9  1  0
  8 13  2  0
  9 10  2  0
 10 11  1  0
 11 12  2  0
 11 23  1  0
 12 13  1  0
 14 22  1  0
 15 16  1  0
 16 21  1  0
  3 24  1  0
  4 25  1  0
  9 26  1  0
 10 27  1  0
 12 28  1  0
 13 29  1  0
 14 30  1  0
 15 31  1  0
 17 32  1  0
M  CHG  2  19  -1  21  -1
M  END
>  <mol_id>  (17) 
2026-08-23-6tgu-s0-n100-r2-0017

>  <rmsd_to_ref>  (17) 
1.1887755102086024

$$$$
6tgu.A
     RDKit          3D

 32 34  0  0  0  0  0  0  0  0999 V2000
    2.5227   20.8426   36.8387 C   0  0  0  0  0  0  0  0  0  0  0  0
    2.0002   20.2929   38.0724 C   0  0  0  0  0  0  0  0  0  0  0  0
    0.6853   20.5840   38.3982 C   0  0  0  0  0  0  0  0  0  0  0  0
    0.2011   20.0502   39.5606 C   0  0  0  0  0  0  0  0  0  0  0  0
    0.9631   19.2433   40.4094 C   0  0  0  0  0  0  0  0  0  0  0  0
    0.7780   17.6815   42.3696 C   0  0  0  0  0  0  0  0  0  0  0  0
    1.3394   15.6735   43.2049 C   0  0  0  0  0  0  0  0  0  0  0  0
    1.4567   14.2172   42.9325 C   0  0  0  0  0  0  0  0  0  0  0  0
    1.1255   13.6964   41.6883 C   0  0  0  0  0  0  0  0  0  0  0  0
    1.2291   12.3341   41.4270 C   0  0  0  0  0  0  0  0  0  0  0  0
    1.6700   11.4735   42.4262 C   0  0  0  0  0  0  0  0  0  0  0  0
    2.0066   11.9767   43.6862 C   0  0  0  0  0  0  0  0  0  0  0  0
    1.8906   13.3559   43.9121 C   0  0  0  0  0  0  0  0  0  0  0  0
    1.6724   16.2445   44.3825 C   0  0  0  0  0  0  0  0  0  0  0  0
    2.2683   18.9656   40.0699 C   0  0  0  0  0  0  0  0  0  0  0  0
    2.7744   19.5004   38.8924 C   0  0  0  0  0  0  0  0  0  0  0  0
    0.3120   18.7531   41.5642 N   0  0  0  0  0  0  0  0  0  0  0  0
    0.9117   16.5264   42.3062 N   0  0  0  0  0  0  0  0  0  0  0  0
    3.8342   20.5688   36.4751 O   0  0  0  0  0  0  0  0  0  0  0  0
    1.8349   21.5644   36.0726 O   0  0  0  0  0  0  0  0  0  0  0  0
    4.0717   19.2469   38.5174 O   0  0  0  0  0  0  0  0  0  0  0  0
    1.3549   17.9931   44.1406 S   0  0  0  0  0  0  0  0  0  0  0  0
    1.8073    9.7478   42.1035 Cl  0  0  0  0  0  0  0  0  0  0  0  0
    0.0515   21.2100   37.7610 H   0  0  0  0  0  0  0  0  0  0  0  0
   -0.8460   20.2759   39.8308 H   0  0  0  0  0  0  0  0  0  0  0  0
    0.7884   14.3711   40.9232 H   0  0  0  0  0  0  0  0  0  0  0  0
    0.9581   11.9873   40.4376 H   0  0  0  0  0  0  0  0  0  0  0  0
    2.3499   11.3307   44.4797 H   0  0  0  0  0  0  0  0  0  0  0  0
    2.1602   13.6948   44.9067 H   0  0  0  0  0  0  0  0  0  0  0  0
    2.0609   15.8069   45.3323 H   0  0  0  0  0  0  0  0  0  0  0  0
    2.8666   18.3439   40.7204 H   0  0  0  0  0  0  0  0  0  0  0  0
   -0.5990   19.1950   41.8944 H   0  0  0  0  0  0  0  0  0  0  0  0
  1  2  1  0
  1 19  1  0
  1 20  2  0
  2  3  1  0
  2 16  2  0
  3  4  2  0
  4  5  1  0
  5 15  2  0
  5 17  1  0
  6 17  1  0
  6 18  2  0
  6 22  1  0
  7  8  1  0
  7 14  2  0
  7 18  1  0
  8  9  1  0
  8 13  2  0
  9 10  2  0
 10 11  1  0
 11 12  2  0
 11 23  1  0
 12 13  1  0
 14 22  1  0
 15 16  1  0
 16 21  1  0
  3 24  1  0
  4 25  1  0
  9 26  1  0
 10 27  1  0
 12 28  1  0
 13 29  1  0
 14 30  1  0
 15 31  1  0
 17 32  1  0
M  CHG  2  19  -1  21  -1
M  END
>  <mol_id>  (18) 
2026-08-23-6tgu-s0-n100-r2-0018

>  <rmsd_to_ref>  (18) 
1.2346938775527803

$$$$
6tgu.A
     RDKit          3D

 32 34  0  0  0  0  0  0  0  0999 V2000
    2.4306   19.0191   36.2357 C   0  0  0  0  0  0  0  0  0  0  0  0
    2.5030   18.9930   37.7649 C   0  0  0  0  0  0  0  0  0  0  0  0
    2.3280   20.1624   38.5014 C   0  0  0  0  0  0  0  0  0  0  0  0
    2.1981   20.1499   39.8940 C   0  0  0  0  0  0  0  0  0  0  0  0
    2.4174   18.9647   40.6109 C   0  0  0  0  0  0  0  0  0  0  0  0
    1.9228   17.8801   42.8565 C   0  0  0  0  0  0  0  0  0  0  0  0
    1.5666   15.7227   43.4845 C   0  0  0  0  0  0  0  0  0  0  0  0
    1.5440   14.2718   43.2961 C   0  0  0  0  0  0  0  0  0  0  0  0
    1.0306   13.4037   44.2701 C   0  0  0  0  0  0  0  0  0  0  0  0
    0.9878   12.0295   44.0564 C   0  0  0  0  0  0  0  0  0  0  0  0
    1.4223   11.5334   42.8417 C   0  0  0  0  0  0  0  0  0  0  0  0
    1.9321   12.3563   41.8487 C   0  0  0  0  0  0  0  0  0  0  0  0
    1.9771   13.7274   42.0860 C   0  0  0  0  0  0  0  0  0  0  0  0
    1.1153   16.3555   44.6124 C   0  0  0  0  0  0  0  0  0  0  0  0
    2.5840   17.7768   39.8848 C   0  0  0  0  0  0  0  0  0  0  0  0
    2.6297   17.8141   38.4899 C   0  0  0  0  0  0  0  0  0  0  0  0
    2.2261   18.9204   42.0261 N   0  0  0  0  0  0  0  0  0  0  0  0
    1.9513   16.5725   42.4205 N   0  0  0  0  0  0  0  0  0  0  0  0
    2.0439   20.1026   35.7068 O   0  0  0  0  0  0  0  0  0  0  0  0
    2.6798   17.9493   35.6380 O   0  0  0  0  0  0  0  0  0  0  0  0
    2.6882   16.6346   37.7863 O   0  0  0  0  0  0  0  0  0  0  0  0
    1.1187   18.0655   44.4032 S   0  0  0  0  0  0  0  0  0  0  0  0
    1.3370    9.8285   42.5455 Cl  0  0  0  0  0  0  0  0  0  0  0  0
    2.2907   21.1255   37.9713 H   0  0  0  0  0  0  0  0  0  0  0  0
    1.9235   21.0716   40.4280 H   0  0  0  0  0  0  0  0  0  0  0  0
    0.6555   13.8157   45.2186 H   0  0  0  0  0  0  0  0  0  0  0  0
    0.6156   11.3514   44.8385 H   0  0  0  0  0  0  0  0  0  0  0  0
    2.2917   11.9365   40.8977 H   0  0  0  0  0  0  0  0  0  0  0  0
    2.3626   14.3964   41.3026 H   0  0  0  0  0  0  0  0  0  0  0  0
    0.7935   15.8405   45.5295 H   0  0  0  0  0  0  0  0  0  0  0  0
    2.6785   16.8168   40.4134 H   0  0  0  0  0  0  0  0  0  0  0  0
    2.3357   19.8280   42.5007 H   0  0  0  0  0  0  0  0  0  0  0  0
  1  2  1  0
  1 19  1  0
  1 20  2  0
  2  3  1  0
  2 16  2  0
  3  4  2  0
  4  5  1  0
  5 15  2  0
  5 17  1  0
  6 17  1  0
  6 18  2  0
  6 22  1  0
  7  8  1  0
  7 14  2  0
  7 18  1  0
  8  9  1  0
  8 13  2  0
  9 10  2  0
 10 11  1  0
 11 12  2  0
 11 23  1  0
 12 13  1  0
 14 22  1  0
 15 16  1  0
 16 21  1  0
  3 24  1  0
  4 25  1  0
  9 26  1  0
 10 27  1  0
 12 28  1  0
 13 29  1  0
 14 30  1  0
 15 31  1  0
 17 32  1  0
M  CHG  2  19  -1  21  -1
M  END
>  <mol_id>  (19) 
2026-08-23-6tgu-s0-n100-r2-0019

>  <rmsd_to_ref>  (19) 
1.2806122449027733

$$$$
6tgu.A
     RDKit          3D

 32 34  0  0  0  0  0  0  0  0999 V2000
    2.9389   20.5994   36.5861 C   0  0  0  0  0  0  0  0  0  0  0  0
    2.4738   20.1974   37.9076 C   0  0  0  0  0  0  0  0  0  0  0  0
    2.5678   21.0712   38.9593 C   0  0  0  0  0  0  0  0  0  0  0  0
    2.1173   20.6545   40.1929 C   0  0  0  0  0  0  0  0  0  0  0  0
    1.5757   19.3869   40.4007 C   0  0  0  0  0  0  0  0  0  0  0  0
    0.5709   17.7348   41.9911 C   0  0  0  0  0  0  0  0  0  0  0  0
    0.2302   15.5813   42.5902 C   0  0  0  0  0  0  0  0  0  0  0  0
    0.7661   14.2788   43.0575 C   0  0  0  0  0  0  0  0  0  0  0  0
    2.1128   14.1012   43.3008 C   0  0  0  0  0  0  0  0  0  0  0  0
    2.6515   12.9081   43.7360 C   0  0  0  0  0  0  0  0  0  0  0  0
    1.8188   11.8336   43.9422 C   0  0  0  0  0  0  0  0  0  0  0  0
    0.4767   12.0090   43.7003 C   0  0  0  0  0  0  0  0  0  0  0  0
   -0.0554   13.1953   43.2681 C   0  0  0  0  0  0  0  0  0  0  0  0
   -1.1294   15.7414   42.3525 C   0  0  0  0  0  0  0  0  0  0  0  0
    1.4948   18.5394   39.3369 C   0  0  0  0  0  0  0  0  0  0  0  0
    1.9449   18.9367   38.0728 C   0  0  0  0  0  0  0  0  0  0  0  0
    1.1215   18.9967   41.6878 N   0  0  0  0  0  0  0  0  0  0  0  0
    0.9618   16.6253   42.3788 N   0  0  0  0  0  0  0  0  0  0  0  0
    3.4804   21.8582   36.3630 O   0  0  0  0  0  0  0  0  0  0  0  0
    2.8478   19.7830   35.6167 O   0  0  0  0  0  0  0  0  0  0  0  0
    1.8729   18.0940   36.9785 O   0  0  0  0  0  0  0  0  0  0  0  0
   -1.2900   17.4482   41.8176 S   0  0  0  0  0  0  0  0  0  0  0  0
    2.4889   10.3151   44.4941 Cl  0  0  0  0  0  0  0  0  0  0  0  0
    2.9857   22.0665   38.8283 H   0  0  0  0  0  0  0  0  0  0  0  0
    2.1622   21.2956   41.0679 H   0  0  0  0  0  0  0  0  0  0  0  0
    2.8177   14.9337   43.1495 H   0  0  0  0  0  0  0  0  0  0  0  0
    3.7273   12.8399   43.9082 H   0  0  0  0  0  0  0  0  0  0  0  0
   -0.1883   11.1698   43.8592 H   0  0  0  0  0  0  0  0  0  0  0  0
   -1.1172   13.2647   43.0975 H   0  0  0  0  0  0  0  0  0  0  0  0
   -1.9348   15.0362   42.4518 H   0  0  0  0  0  0  0  0  0  0  0  0
    1.0954   17.5574   39.4114 H   0  0  0  0  0  0  0  0  0  0  0  0
    1.1932   19.6858   42.4848 H   0  0  0  0  0  0  0  0  0  0  0  0
  1  2  1  0
  1 19  1  0
  1 20  2  0
  2  3  1  0
  2 16  2  0
  3  4  2  0
  4  5  1  0
  5 15  2  0
  5 17  1  0
  6 17  1  0
  6 18  2  0
  6 22  1  0
  7  8  1  0
  7 14  2  0
  7 18  1  0
  8  9  1  0
  8 13  2  0
  9 10  2  0
 10 11  1  0
 11 12  2  0
 11 23  1  0
 12 13  1  0
 14 22  1  0
 15 16  1  0
 16 21  1  0
  3 24  1  0
  4 25  1  0
  9 26  1  0
 10 27  1  0
 12 28  1  0
 13 29  1  0
 14 30  1  0
 15 31  1  0
 17 32  1  0
M  CHG  2  19  -1  21  -1
M  END
>  <mol_id>  (20) 
2026-08-23-6tgu-s0-n100-r2-0020

>  <rmsd_to_ref>  (20) 
1.3265306122471336

$$$$
6tgu.A
     RDKit          3D

 32 34  0  0  0  0  0  0  0  0999 V2000
    4.8626   20.4100   38.5487 C   0  0  0  0  0  0  0  0  0  0  0  0
    3.7273   20.1538   39.5439 C   0  0  0  0  0  0  0  0  0  0  0  0
    2.7843   21.1438   39.8112 C   0  0  0  0  0  0  0  0  0  0  0  0
    1.6325   20.8878   40.5624 C   0  0  0  0  0  0  0  0  0  0  0  0
    1.4800   19.6590   41.2209 C   0  0  0  0  0  0  0  0  0  0  0  0
   -0.2999   18.1626   42.2485 C   0  0  0  0  0  0  0  0  0  0  0  0
   -0.4986   15.9041   42.4362 C   0  0  0  0  0  0  0  0  0  0  0  0
   -0.0315   14.5195   42.3595 C   0  0  0  0  0  0  0  0  0  0  0  0
   -0.8881   13.4325   42.5847 C   0  0  0  0  0  0  0  0  0  0  0  0
   -0.4310   12.1231   42.4736 C   0  0  0  0  0  0  0  0  0  0  0  0
    0.8800   11.9084   42.0918 C   0  0  0  0  0  0  0  0  0  0  0  0
    1.7594   12.9539   41.8538 C   0  0  0  0  0  0  0  0  0  0  0  0
    1.2861   14.2569   41.9813 C   0  0  0  0  0  0  0  0  0  0  0  0
   -1.7838   16.2626   42.7462 C   0  0  0  0  0  0  0  0  0  0  0  0
    2.4143   18.6482   40.9539 C   0  0  0  0  0  0  0  0  0  0  0  0
    3.5126   18.9140   40.1340 C   0  0  0  0  0  0  0  0  0  0  0  0
    0.2818   19.3581   41.9386 N   0  0  0  0  0  0  0  0  0  0  0  0
    0.3559   16.9655   42.0549 N   0  0  0  0  0  0  0  0  0  0  0  0
    4.7943   21.4813   37.8773 O   0  0  0  0  0  0  0  0  0  0  0  0
    5.7188   19.5077   38.4210 O   0  0  0  0  0  0  0  0  0  0  0  0
    4.3638   17.8892   39.7951 O   0  0  0  0  0  0  0  0  0  0  0  0
   -2.0141   17.9590   42.5541 S   0  0  0  0  0  0  0  0  0  0  0  0
    1.4521   10.2833   41.9095 Cl  0  0  0  0  0  0  0  0  0  0  0  0
    2.9507   22.1581   39.4195 H   0  0  0  0  0  0  0  0  0  0  0  0
    0.8447   21.6519   40.6368 H   0  0  0  0  0  0  0  0  0  0  0  0
   -1.9385   13.6180   42.8536 H   0  0  0  0  0  0  0  0  0  0  0  0
   -1.0995   11.2756   42.6854 H   0  0  0  0  0  0  0  0  0  0  0  0
    2.8045   12.7585   41.5714 H   0  0  0  0  0  0  0  0  0  0  0  0
    1.9656   15.0981   41.7795 H   0  0  0  0  0  0  0  0  0  0  0  0
   -2.5648   15.5608   43.0742 H   0  0  0  0  0  0  0  0  0  0  0  0
    2.2821   17.6469   41.3898 H   0  0  0  0  0  0  0  0  0  0  0  0
   -0.2302   20.1839   42.2805 H   0  0  0  0  0  0  0  0  0  0  0  0
  1  2  1  0
  1 19  1  0
  1 20  2  0
  2  3  1  0
  2 16  2  0
  3  4  2  0
  4  5  1  0
  5 15  2  0
  5 17  1  0
  6 17  1  0
  6 18  2  0
  6 22  1  0
  7  8  1  0
  7 14  2  0
  7 18  1  0
  8  9  1  0
  8 13  2  0
  9 10  2  0
 10 11  1  0
 11 12  2  0
 11 23  1  0
 12 13  1  0
 14 22  1  0
 15 16  1  0
 16 21  1  0
  3 24  1  0
  4 25  1  0
  9 26  1  0
 10 27  1  0
 12 28  1  0
 13 29  1  0
 14 30  1  0
 15 31  1  0
 17 32  1  0
M  CHG  2  19  -1  21  -1
M  END
>  <mol_id>  (21) 
2026-08-23-6tgu-s0-n100-r2-0021

>  <rmsd_to_ref>  (21) 
1.3724489795925723

$$$$
6tgu.A
     RDKit          3D

 32 34  0  0  0  0  0  0  0  0999 V2000
    3.8692   20.5894   37.1036 C   0  0  0  0  0  0  0  0  0  0  0  0
    3.0109   20.0747   38.1853 C   0  0  0  0  0  0  0  0  0  0  0  0
    2.1450   20.9677   38.7709 C   0  0  0  0  0  0  0  0  0  0  0  0
    1.3220   20.5200   39.7823 C   0  0  0  0  0  0  0  0  0  0  0  0
    1.3435   19.1977   40.2250 C   0  0  0  0  0  0  0  0  0  0  0  0
    0.5660   17.5766   41.9758 C   0  0  0  0  0  0  0  0  0  0  0  0
    0.7065   15.6003   43.0291 C   0  0  0  0  0  0  0  0  0  0  0  0
    0.3886   14.1687   43.0145 C   0  0  0  0  0  0  0  0  0  0  0  0
   -0.3000   13.5561   41.9922 C   0  0  0  0  0  0  0  0  0  0  0  0
   -0.5718   12.2008   42.0124 C   0  0  0  0  0  0  0  0  0  0  0  0
   -0.1505   11.4170   43.0789 C   0  0  0  0  0  0  0  0  0  0  0  0
    0.5414   12.0099   44.1158 C   0  0  0  0  0  0  0  0  0  0  0  0
    0.7936   13.3714   44.0582 C   0  0  0  0  0  0  0  0  0  0  0  0
    1.3991   16.1883   44.0470 C   0  0  0  0  0  0  0  0  0  0  0  0
    2.2163   18.3176   39.6285 C   0  0  0  0  0  0  0  0  0  0  0  0
    3.0590   18.7575   38.5988 C   0  0  0  0  0  0  0  0  0  0  0  0
    0.4450   18.8558   41.2622 N   0  0  0  0  0  0  0  0  0  0  0  0
    0.3747   16.4725   42.0748 N   0  0  0  0  0  0  0  0  0  0  0  0
    4.7686   19.7588   36.4377 O   0  0  0  0  0  0  0  0  0  0  0  0
    3.8208   21.8049   36.7384 O   0  0  0  0  0  0  0  0  0  0  0  0
    3.9374   17.9010   37.9861 O   0  0  0  0  0  0  0  0  0  0  0  0
    1.5433   17.9566   43.5924 S   0  0  0  0  0  0  0  0  0  0  0  0
   -0.4511    9.7004   43.1724 Cl  0  0  0  0  0  0  0  0  0  0  0  0
    2.0823   22.0241   38.4695 H   0  0  0  0  0  0  0  0  0  0  0  0
    0.6400   21.2492   40.2369 H   0  0  0  0  0  0  0  0  0  0  0  0
   -0.6272   14.1886   41.1598 H   0  0  0  0  0  0  0  0  0  0  0  0
   -1.1183   11.7347   41.1902 H   0  0  0  0  0  0  0  0  0  0  0  0
    0.8912   11.4483   44.9642 H   0  0  0  0  0  0  0  0  0  0  0  0
    1.3439   13.7964   44.9013 H   0  0  0  0  0  0  0  0  0  0  0  0
    1.8346   15.7768   45.0075 H   0  0  0  0  0  0  0  0  0  0  0  0
    2.2380   17.2935   39.9633 H   0  0  0  0  0  0  0  0  0  0  0  0
   -0.3253   19.4869   41.5581 H   0  0  0  0  0  0  0  0  0  0  0  0
  1  2  1  0
  1 19  1  0
  1 20  2  0
  2  3  1  0
  2 16  2  0
  3  4  2  0
  4  5  1  0
  5 15  2  0
  5 17  1  0
  6 17  1  0
  6 18  2  0
  6 22  1  0
  7  8  1  0
  7 14  2  0
  7 18  1  0
  8  9  1  0
  8 13  2  0
  9 10  2  0
 10 11  1  0
 11 12  2  0
 11 23  1  0
 12 13  1  0
 14 22  1  0
 15 16  1  0
 16 21  1  0
  3 24  1  0
  4 25  1  0
  9 26  1  0
 10 27  1  0
 12 28  1  0
 13 29  1  0
 14 30  1  0
 15 31  1  0
 17 32  1  0
M  CHG  2  19  -1  21  -1
M  END
>  <mol_id>  (22) 
2026-08-23-6tgu-s0-n100-r2-0022

>  <rmsd_to_ref>  (22) 
1.4183673469403417

$$$$
6tgu.A
     RDKit          3D

 32 34  0  0  0  0  0  0  0  0999 V2000
    3.2818   21.6322   38.4419 C   0  0  0  0  0  0  0  0  0  0  0  0
    2.5555   20.9091   39.5795 C   0  0  0  0  0  0  0  0  0  0  0  0
    1.5684   21.5608   40.3154 C   0  0  0  0  0  0  0  0  0  0  0  0
    0.7548   20.8828   41.2291 C   0  0  0  0  0  0  0  0  0  0  0  0
    1.0293   19.5481   41.5611 C   0  0  0  0  0  0  0  0  0  0  0  0
   -0.0660   17.4834   42.5614 C   0  0  0  0  0  0  0  0  0  0  0  0
    0.2151   15.2556   42.1958 C   0  0  0  0  0  0  0  0  0  0  0  0
    0.8837   14.0739   41.6502 C   0  0  0  0  0  0  0  0  0  0  0  0
    0.3445   12.7866   41.7843 C   0  0  0  0  0  0  0  0  0  0  0  0
    0.9799   11.6805   41.2284 C   0  0  0  0  0  0  0  0  0  0  0  0
    2.1371   11.8777   40.4988 C   0  0  0  0  0  0  0  0  0  0  0  0
    2.7016   13.1339   40.3365 C   0  0  0  0  0  0  0  0  0  0  0  0
    2.0570   14.2265   40.9098 C   0  0  0  0  0  0  0  0  0  0  0  0
   -0.9653   15.2156   42.8897 C   0  0  0  0  0  0  0  0  0  0  0  0
    2.0122   18.8744   40.8220 C   0  0  0  0  0  0  0  0  0  0  0  0
    2.7535   19.5624   39.8597 C   0  0  0  0  0  0  0  0  0  0  0  0
    0.1707   18.8227   42.4429 N   0  0  0  0  0  0  0  0  0  0  0  0
    0.7112   16.5495   41.9098 N   0  0  0  0  0  0  0  0  0  0  0  0
    2.8250   22.7655   38.1102 O   0  0  0  0  0  0  0  0  0  0  0  0
    4.2126   21.0141   37.8802 O   0  0  0  0  0  0  0  0  0  0  0  0
    3.6399   18.8692   39.0699 O   0  0  0  0  0  0  0  0  0  0  0  0
   -1.5476   16.8054   43.2082 S   0  0  0  0  0  0  0  0  0  0  0  0
    2.9172   10.5152   39.7664 Cl  0  0  0  0  0  0  0  0  0  0  0  0
    1.4242   22.6420   40.1736 H   0  0  0  0  0  0  0  0  0  0  0  0
   -0.1021   21.3974   41.6883 H   0  0  0  0  0  0  0  0  0  0  0  0
   -0.5960   12.6488   42.3378 H   0  0  0  0  0  0  0  0  0  0  0  0
    0.5695   10.6694   41.3670 H   0  0  0  0  0  0  0  0  0  0  0  0
    3.6350   13.2638   39.7691 H   0  0  0  0  0  0  0  0  0  0  0  0
    2.4818   15.2324   40.7764 H   0  0  0  0  0  0  0  0  0  0  0  0
   -1.4737   14.2914   43.2019 H   0  0  0  0  0  0  0  0  0  0  0  0
    2.1989   17.8051   41.0003 H   0  0  0  0  0  0  0  0  0  0  0  0
   -0.3602   19.4103   43.1015 H   0  0  0  0  0  0  0  0  0  0  0  0
  1  2  1  0
  1 19  1  0
  1 20  2  0
  2  3  1  0
  2 16  2  0
  3  4  2  0
  4  5  1  0
  5 15  2  0
  5 17  1  0
  6 17  1  0
  6 18  2  0
  6 22  1  0
  7  8  1  0
  7 14  2  0
  7 18  1  0
  8  9  1  0
  8 13  2  0
  9 10  2  0
 10 11  1  0
 11 12  2  0
 11 23  1  0
 12 13  1  0
 14 22  1  0
 15 16  1  0
 16 21  1  0
  3 24  1  0
  4 25  1  0
  9 26  1  0
 10 27  1  0
 12 28  1  0
 13 29  1  0
 14 30  1  0
 15 31  1  0
 17 32  1  0
M  CHG  2  19  -1  21  -1
M  END
>  <mol_id>  (23) 
2026-08-23-6tgu-s0-n100-r2-0023

>  <rmsd_to_ref>  (23) 
1.4642857142868855

$$$$
6tgu.A
     RDKit          3D

 32 34  0  0  0  0  0  0  0  0999 V2000
    5.2488   19.5649   38.6144 C   0  0  0  0  0  0  0  0  0  0  0  0
    4.1207   19.4158   39.5162 C   0  0  0  0  0  0  0  0  0  0  0  0
    3.5520   20.5055   40.1384 C   0  0  0  0  0  0  0  0  0  0  0  0
    2.4838   20.3236   40.9866 C   0  0  0  0  0  0  0  0  0  0  0  0
    1.9402   19.0646   41.2504 C   0  0  0  0  0  0  0  0  0  0  0  0
    0.3001   17.6447   42.3889 C   0  0  0  0  0  0  0  0  0  0  0  0
   -0.2943   15.4824   42.5651 C   0  0  0  0  0  0  0  0  0  0  0  0
   -0.0244   14.0899   42.1443 C   0  0  0  0  0  0  0  0  0  0  0  0
   -0.7858   13.0406   42.6168 C   0  0  0  0  0  0  0  0  0  0  0  0
   -0.5479   11.7361   42.2350 C   0  0  0  0  0  0  0  0  0  0  0  0
    0.4714   11.4513   41.3600 C   0  0  0  0  0  0  0  0  0  0  0  0
    1.2534   12.4787   40.8674 C   0  0  0  0  0  0  0  0  0  0  0  0
    0.9902   13.7673   41.2678 C   0  0  0  0  0  0  0  0  0  0  0  0
   -1.3163   15.7712   43.4427 C   0  0  0  0  0  0  0  0  0  0  0  0
    2.5461   18.0081   40.6025 C   0  0  0  0  0  0  0  0  0  0  0  0
    3.6182   18.1549   39.7461 C   0  0  0  0  0  0  0  0  0  0  0  0
    0.8400   18.9225   42.1304 N   0  0  0  0  0  0  0  0  0  0  0  0
    0.3820   16.5224   42.1608 N   0  0  0  0  0  0  0  0  0  0  0  0
    5.7685   20.8491   38.3738 O   0  0  0  0  0  0  0  0  0  0  0  0
    5.7510   18.5666   38.0597 O   0  0  0  0  0  0  0  0  0  0  0  0
    4.1802   17.0325   39.1247 O   0  0  0  0  0  0  0  0  0  0  0  0
   -1.1731   17.6384   43.5934 S   0  0  0  0  0  0  0  0  0  0  0  0
    0.7906    9.7940   40.8609 Cl  0  0  0  0  0  0  0  0  0  0  0  0
    3.9764   21.4782   39.9310 H   0  0  0  0  0  0  0  0  0  0  0  0
    2.0657   21.2100   41.4563 H   0  0  0  0  0  0  0  0  0  0  0  0
   -1.6049   13.2337   43.3149 H   0  0  0  0  0  0  0  0  0  0  0  0
   -1.1828   10.9609   42.6433 H   0  0  0  0  0  0  0  0  0  0  0  0
    2.0649   12.2793   40.1747 H   0  0  0  0  0  0  0  0  0  0  0  0
    1.6014   14.5653   40.8821 H   0  0  0  0  0  0  0  0  0  0  0  0
   -2.0456   15.2289   43.9617 H   0  0  0  0  0  0  0  0  0  0  0  0
    2.1897   16.9982   40.7489 H   0  0  0  0  0  0  0  0  0  0  0  0
    0.4739   19.8148   42.5581 H   0  0  0  0  0  0  0  0  0  0  0  0
  1  2  1  0
  1 19  1  0
  1 20  2  0
  2  3  1  0
  2 16  2  0
  3  4  2  0
  4  5  1  0
  5 15  2  0
  5 17  1  0
  6 17  1  0
  6 18  2  0
  6 22  1  0
  7  8  1  0
  7 14  2  0
  7 18  1  0
  8  9  1  0
  8 13  2  0
  9 10  2  0
 10 11  1  0
 11 12  2  0
 11 23  1  0
 12 13  1  0
 14 22  1  0
 15 16  1  0
 16 21  1  0
  3 24  1  0
  4 25  1  0
  9 26  1  0
 10 27  1  0
 12 28  1  0
 13 29  1  0
 14 30  1  0
 15 31  1  0
 17 32  1  0
M  CHG  2  19  -1  21  -1
M  END
>  <mol_id>  (24) 
2026-08-23-6tgu-s0-n100-r2-0024

>  <rmsd_to_ref>  (24) 
1.5102040816420441

$$$$
6tgu.A
     RDKit          3D

 32 34  0  0  0  0  0  0  0  0999 V2000
    3.4363   18.3065   36.0986 C   0  0  0  0  0  0  0  0  0  0  0  0
    3.0927   18.6107   37.5594 C   0  0  0  0  0  0  0  0  0  0  0  0
    2.6220   19.8690   37.9280 C   0  0  0  0  0  0  0  0  0  0  0  0
    2.1203   20.1280   39.2078 C   0  0  0  0  0  0  0  0  0  0  0  0
    2.2399   19.1639   40.2193 C   0  0  0  0  0  0  0  0  0  0  0  0
    1.2513   18.5103   42.4684 C   0  0  0  0  0  0  0  0  0  0  0  0
    0.9290   16.5028   43.4890 C   0  0  0  0  0  0  0  0  0  0  0  0
    1.0861   15.0574   43.6546 C   0  0  0  0  0  0  0  0  0  0  0  0
    0.4058   14.3453   44.6525 C   0  0  0  0  0  0  0  0  0  0  0  0
    0.5437   12.9658   44.7709 C   0  0  0  0  0  0  0  0  0  0  0  0
    1.3337   12.2972   43.8548 C   0  0  0  0  0  0  0  0  0  0  0  0
    2.0196   12.9612   42.8490 C   0  0  0  0  0  0  0  0  0  0  0  0
    1.8778   14.3429   42.7541 C   0  0  0  0  0  0  0  0  0  0  0  0
    0.1344   17.2830   44.2867 C   0  0  0  0  0  0  0  0  0  0  0  0
    2.7013   17.8888   39.8627 C   0  0  0  0  0  0  0  0  0  0  0  0
    3.1208   17.6408   38.5544 C   0  0  0  0  0  0  0  0  0  0  0  0
    1.6760   19.3878   41.5128 N   0  0  0  0  0  0  0  0  0  0  0  0
    1.5120   17.1594   42.3795 N   0  0  0  0  0  0  0  0  0  0  0  0
    3.1142   19.1867   35.2474 O   0  0  0  0  0  0  0  0  0  0  0  0
    3.9316   17.1845   35.8546 O   0  0  0  0  0  0  0  0  0  0  0  0
    3.4717   16.3624   38.1905 O   0  0  0  0  0  0  0  0  0  0  0  0
    0.0441   18.8931   43.6807 S   0  0  0  0  0  0  0  0  0  0  0  0
    1.4824   10.5746   43.9648 Cl  0  0  0  0  0  0  0  0  0  0  0  0
    2.6455   20.6842   37.1898 H   0  0  0  0  0  0  0  0  0  0  0  0
    1.6310   21.0898   39.4213 H   0  0  0  0  0  0  0  0  0  0  0  0
   -0.2476   14.8859   45.3532 H   0  0  0  0  0  0  0  0  0  0  0  0
    0.0342   12.4182   45.5775 H   0  0  0  0  0  0  0  0  0  0  0  0
    2.6596   12.4102   42.1441 H   0  0  0  0  0  0  0  0  0  0  0  0
    2.4012   14.8834   41.9517 H   0  0  0  0  0  0  0  0  0  0  0  0
   -0.3778   16.9286   45.1933 H   0  0  0  0  0  0  0  0  0  0  0  0
    2.7327   17.0848   40.6128 H   0  0  0  0  0  0  0  0  0  0  0  0
    1.5723   20.3804   41.7677 H   0  0  0  0  0  0  0  0  0  0  0  0
  1  2  1  0
  1 19  1  0
  1 20  2  0
  2  3  1  0
  2 16  2  0
  3  4  2  0
  4  5  1  0
  5 15  2  0
  5 17  1  0
  6 17  1  0
  6 18  2  0
  6 22  1  0
  7  8  1  0
  7 14  2  0
  7 18  1  0
  8  9  1  0
  8 13  2  0
  9 10  2  0
 10 11  1  0
 11 12  2  0
 11 23  1  0
 12 13  1  0
 14 22  1  0
 15 16  1  0
 16 21  1  0
  3 24  1  0
  4 25  1  0
  9 26  1  0
 10 27  1  0
 12 28  1  0
 13 29  1  0
 14 30  1  0
 15 31  1  0
 17 32  1  0
M  CHG  2  19  -1  21  -1
M  END
>  <mol_id>  (25) 
2026-08-23-6tgu-s0-n100-r2-0025

>  <rmsd_to_ref>  (25) 
1.5561224489858498

$$$$
6tgu.A
     RDKit          3D

 32 34  0  0  0  0  0  0  0  0999 V2000
    2.9377   20.7008   37.2306 C   0  0  0  0  0  0  0  0  0  0  0  0
    2.7031   20.1596   38.5860 C   0  0  0  0  0  0  0  0  0  0  0  0
    1.9553   19.0184   38.7422 C   0  0  0  0  0  0  0  0  0  0  0  0
    1.7446   18.5161   40.0117 C   0  0  0  0  0  0  0  0  0  0  0  0
    2.2768   19.1491   41.1187 C   0  0  0  0  0  0  0  0  0  0  0  0
    1.2527   17.4003   42.4901 C   0  0  0  0  0  0  0  0  0  0  0  0
    0.3084   15.3641   42.5415 C   0  0  0  0  0  0  0  0  0  0  0  0
    0.4739   13.9152   42.4414 C   0  0  0  0  0  0  0  0  0  0  0  0
   -0.6132   13.0724   42.5748 C   0  0  0  0  0  0  0  0  0  0  0  0
   -0.4927   11.7037   42.4807 C   0  0  0  0  0  0  0  0  0  0  0  0
    0.7412   11.1396   42.2465 C   0  0  0  0  0  0  0  0  0  0  0  0
    1.8548   11.9445   42.1065 C   0  0  0  0  0  0  0  0  0  0  0  0
    1.6920   13.3115   42.2077 C   0  0  0  0  0  0  0  0  0  0  0  0
   -0.9578   15.9367   42.7649 C   0  0  0  0  0  0  0  0  0  0  0  0
    3.0338   20.3043   40.9669 C   0  0  0  0  0  0  0  0  0  0  0  0
    3.2425   20.8027   39.7028 C   0  0  0  0  0  0  0  0  0  0  0  0
    2.0560   18.6131   42.4295 N   0  0  0  0  0  0  0  0  0  0  0  0
    1.2536   16.2856   42.4380 N   0  0  0  0  0  0  0  0  0  0  0  0
    3.7031   21.8537   37.0817 O   0  0  0  0  0  0  0  0  0  0  0  0
    2.4367   20.1061   36.2133 O   0  0  0  0  0  0  0  0  0  0  0  0
    4.0014   21.9643   39.5290 O   0  0  0  0  0  0  0  0  0  0  0  0
   -0.5933   17.7603   42.7928 S   0  0  0  0  0  0  0  0  0  0  0  0
    0.9418    9.3892   42.1166 Cl  0  0  0  0  0  0  0  0  0  0  0  0
    1.5272   18.5044   37.8785 H   0  0  0  0  0  0  0  0  0  0  0  0
    1.1408   17.6032   40.0993 H   0  0  0  0  0  0  0  0  0  0  0  0
   -1.6219   13.4579   42.7624 H   0  0  0  0  0  0  0  0  0  0  0  0
   -1.3847   11.0780   42.5943 H   0  0  0  0  0  0  0  0  0  0  0  0
    2.8402   11.5209   41.9202 H   0  0  0  0  0  0  0  0  0  0  0  0
    2.5669   13.9621   42.0995 H   0  0  0  0  0  0  0  0  0  0  0  0
   -1.9028   15.5346   42.8947 H   0  0  0  0  0  0  0  0  0  0  0  0
    3.4426   20.7866   41.8510 H   0  0  0  0  0  0  0  0  0  0  0  0
    2.4395   19.0572   43.2753 H   0  0  0  0  0  0  0  0  0  0  0  0
  1  2  1  0
  1 19  1  0
  1 20  2  0
  2  3  1  0
  2 16  2  0
  3  4  2  0
  4  5  1  0
  5 15  2  0
  5 17  1  0
  6 17  1  0
  6 18  2  0
  6 22  1  0
  7  8  1  0
  7 14  2  0
  7 18  1  0
  8  9  1  0
  8 13  2  0
  9 10  2  0
 10 11  1  0
 11 12  2  0
 11 23  1  0
 12 13  1  0
 14 22  1  0
 15 16  1  0
 16 21  1  0
  3 24  1  0
  4 25  1  0
  9 26  1  0
 10 27  1  0
 12 28  1  0
 13 29  1  0
 14 30  1  0
 15 31  1  0
 17 32  1  0
M  CHG  2  19  -1  21  -1
M  END
>  <mol_id>  (26) 
2026-08-23-6tgu-s0-n100-r2-0026

>  <rmsd_to_ref>  (26) 
1.6020408163278936

$$$$
6tgu.A
     RDKit          3D

 32 34  0  0  0  0  0  0  0  0999 V2000
    1.8992   21.0819   37.9808 C   0  0  0  0  0  0  0  0  0  0  0  0
    1.7959   20.3187   39.3042 C   0  0  0  0  0  0  0  0  0  0  0  0
    1.3927   20.9710   40.4673 C   0  0  0  0  0  0  0  0  0  0  0  0
    1.1042   20.2756   41.6461 C   0  0  0  0  0  0  0  0  0  0  0  0
    1.3838   18.9046   41.7411 C   0  0  0  0  0  0  0  0  0  0  0  0
    0.7696   16.8401   43.0917 C   0  0  0  0  0  0  0  0  0  0  0  0
    0.6130   14.6346   42.5563 C   0  0  0  0  0  0  0  0  0  0  0  0
    0.7925   13.4599   41.7025 C   0  0  0  0  0  0  0  0  0  0  0  0
    0.2808   12.2020   42.0517 C   0  0  0  0  0  0  0  0  0  0  0  0
    0.4339   11.1054   41.2090 C   0  0  0  0  0  0  0  0  0  0  0  0
    1.0649   11.2867   39.9928 C   0  0  0  0  0  0  0  0  0  0  0  0
    1.5808   12.5142   39.6052 C   0  0  0  0  0  0  0  0  0  0  0  0
    1.4276   13.5966   40.4671 C   0  0  0  0  0  0  0  0  0  0  0  0
   -0.0415   14.6139   43.7594 C   0  0  0  0  0  0  0  0  0  0  0  0
    1.7797   18.2308   40.5769 C   0  0  0  0  0  0  0  0  0  0  0  0
    1.9825   18.9445   39.3942 C   0  0  0  0  0  0  0  0  0  0  0  0
    1.0361   18.1673   42.9144 N   0  0  0  0  0  0  0  0  0  0  0  0
    1.0105   15.9135   42.0997 N   0  0  0  0  0  0  0  0  0  0  0  0
    1.4454   22.2639   37.9734 O   0  0  0  0  0  0  0  0  0  0  0  0
    2.3469   20.4529   36.9971 O   0  0  0  0  0  0  0  0  0  0  0  0
    2.2683   18.2614   38.2360 O   0  0  0  0  0  0  0  0  0  0  0  0
   -0.2258   16.2071   44.3886 S   0  0  0  0  0  0  0  0  0  0  0  0
    1.2267    9.9397   38.9153 Cl  0  0  0  0  0  0  0  0  0  0  0  0
    1.2982   22.0669   40.4583 H   0  0  0  0  0  0  0  0  0  0  0  0
    0.6572   20.8051   42.5003 H   0  0  0  0  0  0  0  0  0  0  0  0
   -0.2503   12.0801   43.0073 H   0  0  0  0  0  0  0  0  0  0  0  0
    0.0602   10.1141   41.5049 H   0  0  0  0  0  0  0  0  0  0  0  0
    2.0979   12.6296   38.6412 H   0  0  0  0  0  0  0  0  0  0  0  0
    1.8157   14.5815   40.1680 H   0  0  0  0  0  0  0  0  0  0  0  0
   -0.4015   13.7016   44.2576 H   0  0  0  0  0  0  0  0  0  0  0  0
    1.9304   17.1413   40.5953 H   0  0  0  0  0  0  0  0  0  0  0  0
    0.9763   18.7335   43.7728 H   0  0  0  0  0  0  0  0  0  0  0  0
  1  2  1  0
  1 19  1  0
  1 20  2  0
  2  3  1  0
  2 16  2  0
  3  4  2  0
  4  5  1  0
  5 15  2  0
  5 17  1  0
  6 17  1  0
  6 18  2  0
  6 22  1  0
  7  8  1  0
  7 14  2  0
  7 18  1  0
  8  9  1  0
  8 13  2  0
  9 10  2  0
 10 11  1  0
 11 12  2  0
 11 23  1  0
 12 13  1  0
 14 22  1  0
 15 16  1  0
 16 21  1  0
  3 24  1  0
  4 25  1  0
  9 26  1  0
 10 27  1  0
 12 28  1  0
 13 29  1  0
 14 30  1  0
 15 31  1  0
 17 32  1  0
M  CHG  2  19  -1  21  -1
M  END
>  <mol_id>  (27) 
2026-08-23-6tgu-s0-n100-r2-0027

>  <rmsd_to_ref>  (27) 
1.6479591836766911

$$$$
6tgu.A
     RDKit          3D

 32 34  0  0  0  0  0  0  0  0999 V2000
    3.6532   19.8425   36.6570 C   0  0  0  0  0  0  0  0  0  0  0  0
    2.7019   19.6227   37.7385 C   0  0  0  0  0  0  0  0  0  0  0  0
    1.4058   20.0807   37.6183 C   0  0  0  0  0  0  0  0  0  0  0  0
    0.4938   19.8680   38.6567 C   0  0  0  0  0  0  0  0  0  0  0  0
    0.8900   19.1975   39.8069 C   0  0  0  0  0  0  0  0  0  0  0  0
    0.4125   18.2993   42.0595 C   0  0  0  0  0  0  0  0  0  0  0  0
    0.8331   16.4574   43.3851 C   0  0  0  0  0  0  0  0  0  0  0  0
    0.8702   14.9895   43.6843 C   0  0  0  0  0  0  0  0  0  0  0  0
    1.3221   14.5264   44.8880 C   0  0  0  0  0  0  0  0  0  0  0  0
    1.3346   13.1674   45.1021 C   0  0  0  0  0  0  0  0  0  0  0  0
    0.9171   12.2400   44.1721 C   0  0  0  0  0  0  0  0  0  0  0  0
    0.4603   12.7083   42.9556 C   0  0  0  0  0  0  0  0  0  0  0  0
    0.4502   14.0699   42.7472 C   0  0  0  0  0  0  0  0  0  0  0  0
    1.2741   17.3428   44.3589 C   0  0  0  0  0  0  0  0  0  0  0  0
    2.2079   18.7384   39.9154 C   0  0  0  0  0  0  0  0  0  0  0  0
    3.1065   18.9573   38.8729 C   0  0  0  0  0  0  0  0  0  0  0  0
   -0.0177   18.9573   40.8911 N   0  0  0  0  0  0  0  0  0  0  0  0
    0.4116   16.9100   42.2624 N   0  0  0  0  0  0  0  0  0  0  0  0
    3.2803   20.5080   35.4994 O   0  0  0  0  0  0  0  0  0  0  0  0
    4.8411   19.4088   36.7959 O   0  0  0  0  0  0  0  0  0  0  0  0
    4.3900   18.4723   39.0575 O   0  0  0  0  0  0  0  0  0  0  0  0
    1.0485   18.9702   43.5527 S   0  0  0  0  0  0  0  0  0  0  0  0
    0.9603   10.5209   44.5120 Cl  0  0  0  0  0  0  0  0  0  0  0  0
    1.0704   20.6148   36.7148 H   0  0  0  0  0  0  0  0  0  0  0  0
   -0.5340   20.2280   38.5683 H   0  0  0  0  0  0  0  0  0  0  0  0
    1.6643   15.1955   45.6633 H   0  0  0  0  0  0  0  0  0  0  0  0
    1.6957   12.8308   46.0590 H   0  0  0  0  0  0  0  0  0  0  0  0
    0.1232   12.0171   42.1970 H   0  0  0  0  0  0  0  0  0  0  0  0
    0.0876   14.4299   41.7822 H   0  0  0  0  0  0  0  0  0  0  0  0
    1.6582   17.2030   45.3422 H   0  0  0  0  0  0  0  0  0  0  0  0
    2.5255   18.2069   40.8250 H   0  0  0  0  0  0  0  0  0  0  0  0
   -1.0015   19.2946   40.7641 H   0  0  0  0  0  0  0  0  0  0  0  0
  1  2  1  0
  1 19  1  0
  1 20  2  0
  2  3  1  0
  2 16  2  0
  3  4  2  0
  4  5  1  0
  5 15  2  0
  5 17  1  0
  6 17  1  0
  6 18  2  0
  6 22  1  0
  7  8  1  0
  7 14  2  0
  7 18  1  0
  8  9  1  0
  8 13  2  0
  9 10  2  0
 10 11  1  0
 11 12  2  0
 11 23  1  0
 12 13  1  0
 14 22  1  0
 15 16  1  0
 16 21  1  0
  3 24  1  0
  4 25  1  0
  9 26  1  0
 10 27  1  0
 12 28  1  0
 13 29  1  0
 14 30  1  0
 15 31  1  0
 17 32  1  0
M  CHG  2  19  -1  21  -1
M  END
>  <mol_id>  (28) 
2026-08-23-6tgu-s0-n100-r2-0028

>  <rmsd_to_ref>  (28) 
1.693877551027227

$$$$
6tgu.A
     RDKit          3D

 32 34  0  0  0  0  0  0  0  0999 V2000
    4.5653   20.5516   39.4065 C   0  0  0  0  0  0  0  0  0  0  0  0
    3.3814   19.9713   40.1853 C   0  0  0  0  0  0  0  0  0  0  0  0
    2.1998   20.6967   40.3201 C   0  0  0  0  0  0  0  0  0  0  0  0
    1.0385   20.1303   40.8559 C   0  0  0  0  0  0  0  0  0  0  0  0
    1.0812   18.8555   41.4390 C   0  0  0  0  0  0  0  0  0  0  0  0
   -0.4301   16.9211   42.1002 C   0  0  0  0  0  0  0  0  0  0  0  0
   -0.1121   14.6698   42.1786 C   0  0  0  0  0  0  0  0  0  0  0  0
    0.6775   13.4385   42.1380 C   0  0  0  0  0  0  0  0  0  0  0  0
    0.0800   12.1707   42.1792 C   0  0  0  0  0  0  0  0  0  0  0  0
    0.8475   11.0125   42.1054 C   0  0  0  0  0  0  0  0  0  0  0  0
    2.2151   11.1323   41.9453 C   0  0  0  0  0  0  0  0  0  0  0  0
    2.8465   12.3660   41.8941 C   0  0  0  0  0  0  0  0  0  0  0  0
    2.0624   13.5130   41.9811 C   0  0  0  0  0  0  0  0  0  0  0  0
   -1.4781   14.7007   42.2769 C   0  0  0  0  0  0  0  0  0  0  0  0
    2.2595   18.1078   41.3023 C   0  0  0  0  0  0  0  0  0  0  0  0
    3.3779   18.6765   40.6901 C   0  0  0  0  0  0  0  0  0  0  0  0
   -0.1085   18.2372   41.9324 N   0  0  0  0  0  0  0  0  0  0  0  0
    0.5141   15.9234   41.9826 N   0  0  0  0  0  0  0  0  0  0  0  0
    4.3505   21.6236   38.7680 O   0  0  0  0  0  0  0  0  0  0  0  0
    5.6209   19.8813   39.3973 O   0  0  0  0  0  0  0  0  0  0  0  0
    4.4912   17.9012   40.4681 O   0  0  0  0  0  0  0  0  0  0  0  0
   -2.0726   16.3082   42.1031 S   0  0  0  0  0  0  0  0  0  0  0  0
    3.1793    9.6992   41.8109 Cl  0  0  0  0  0  0  0  0  0  0  0  0
    2.1793   21.7474   39.9952 H   0  0  0  0  0  0  0  0  0  0  0  0
    0.0898   20.6858   40.8197 H   0  0  0  0  0  0  0  0  0  0  0  0
   -1.0132   12.0904   42.2714 H   0  0  0  0  0  0  0  0  0  0  0  0
    0.3753   10.0213   42.1730 H   0  0  0  0  0  0  0  0  0  0  0  0
    3.9390   12.4364   41.7875 H   0  0  0  0  0  0  0  0  0  0  0  0
    2.5449   14.4999   41.9250 H   0  0  0  0  0  0  0  0  0  0  0  0
   -2.1110   13.8167   42.4446 H   0  0  0  0  0  0  0  0  0  0  0  0
    2.3025   17.0745   41.6770 H   0  0  0  0  0  0  0  0  0  0  0  0
   -0.8499   18.8968   42.2086 H   0  0  0  0  0  0  0  0  0  0  0  0
  1  2  1  0
  1 19  1  0
  1 20  2  0
  2  3  1  0
  2 16  2  0
  3  4  2  0
  4  5  1  0
  5 15  2  0
  5 17  1  0
  6 17  1  0
  6 18  2  0
  6 22  1  0
  7  8  1  0
  7 14  2  0
  7 18  1  0
  8  9  1  0
  8 13  2  0
  9 10  2  0
 10 11  1  0
 11 12  2  0
 11 23  1  0
 12 13  1  0
 14 22  1  0
 15 16  1  0
 16 21  1  0
  3 24  1  0
  4 25  1  0
  9 26  1  0
 10 27  1  0
 12 28  1  0
 13 29  1  0
 14 30  1  0
 15 31  1  0
 17 32  1  0
M  CHG  2  19  -1  21  -1
M  END
>  <mol_id>  (29) 
2026-08-23-6tgu-s0-n100-r2-0029

>  <rmsd_to_ref>  (29) 
1.7397959183703644

$$$$
6tgu.A
     RDKit          3D

 32 34  0  0  0  0  0  0  0  0999 V2000
    3.5309   19.3344   35.5165 C   0  0  0  0  0  0  0  0  0  0  0  0
    3.1567   19.2835   36.9289 C   0  0  0  0  0  0  0  0  0  0  0  0
    3.2364   20.4141   37.7292 C   0  0  0  0  0  0  0  0  0  0  0  0
    2.8904   20.3934   39.0614 C   0  0  0  0  0  0  0  0  0  0  0  0
    2.4381   19.2014   39.6559 C   0  0  0  0  0  0  0  0  0  0  0  0
    1.3444   18.2608   41.7048 C   0  0  0  0  0  0  0  0  0  0  0  0
    0.4940   16.4551   42.8067 C   0  0  0  0  0  0  0  0  0  0  0  0
    0.6605   15.0625   43.3116 C   0  0  0  0  0  0  0  0  0  0  0  0
   -0.3724   14.4330   43.9942 C   0  0  0  0  0  0  0  0  0  0  0  0
   -0.2115   13.1327   44.4440 C   0  0  0  0  0  0  0  0  0  0  0  0
    0.9673   12.4521   44.2229 C   0  0  0  0  0  0  0  0  0  0  0  0
    1.9773   13.0821   43.5522 C   0  0  0  0  0  0  0  0  0  0  0  0
    1.8479   14.3737   43.0913 C   0  0  0  0  0  0  0  0  0  0  0  0
   -0.7255   17.1043   43.0101 C   0  0  0  0  0  0  0  0  0  0  0  0
    2.3581   18.0692   38.8565 C   0  0  0  0  0  0  0  0  0  0  0  0
    2.7081   18.1045   37.5246 C   0  0  0  0  0  0  0  0  0  0  0  0
    2.1043   19.2150   41.0287 N   0  0  0  0  0  0  0  0  0  0  0  0
    1.4057   17.0925   42.1781 N   0  0  0  0  0  0  0  0  0  0  0  0
    3.4371   18.1701   34.7630 O   0  0  0  0  0  0  0  0  0  0  0  0
    3.9281   20.4356   35.0254 O   0  0  0  0  0  0  0  0  0  0  0  0
    2.6252   16.9822   36.7520 O   0  0  0  0  0  0  0  0  0  0  0  0
   -0.4238   18.7664   42.1842 S   0  0  0  0  0  0  0  0  0  0  0  0
    1.0669   10.8127   44.8319 Cl  0  0  0  0  0  0  0  0  0  0  0  0
    3.5782   21.3839   37.3388 H   0  0  0  0  0  0  0  0  0  0  0  0
    2.9603   21.2954   39.6786 H   0  0  0  0  0  0  0  0  0  0  0  0
   -1.3187   14.9523   44.1802 H   0  0  0  0  0  0  0  0  0  0  0  0
   -1.0637   12.7057   44.9707 H   0  0  0  0  0  0  0  0  0  0  0  0
    2.8992   12.5460   43.3813 H   0  0  0  0  0  0  0  0  0  0  0  0
    2.6416   14.8666   42.5613 H   0  0  0  0  0  0  0  0  0  0  0  0
   -1.6089   16.8629   43.4588 H   0  0  0  0  0  0  0  0  0  0  0  0
    2.0107   17.1208   39.2956 H   0  0  0  0  0  0  0  0  0  0  0  0
    2.4664   20.0323   41.6088 H   0  0  0  0  0  0  0  0  0  0  0  0
  1  2  1  0
  1 19  1  0
  1 20  2  0
  2  3  1  0
  2 16  2  0
  3  4  2  0
  4  5  1  0
  5 15  2  0
  5 17  1  0
  6 17  1  0
  6 18  2  0
  6 22  1  0
  7  8  1  0
  7 14  2  0
  7 18  1  0
  8  9  1  0
  8 13  2  0
  9 10  2  0
 10 11  1  0
 11 12  2  0
 11 23  1  0
 12 13  1  0
 14 22  1  0
 15 16  1  0
 16 21  1  0
  3 24  1  0
  4 25  1  0
  9 26  1  0
 10 27  1  0
 12 28  1  0
 13 29  1  0
 14 30  1  0
 15 31  1  0
 17 32  1  0
M  CHG  2  19  -1  21  -1
M  END
>  <mol_id>  (30) 
2026-08-23-6tgu-s0-n100-r2-0030

>  <rmsd_to_ref>  (30) 
1.78571428571492

$$$$
6tgu.A
     RDKit          3D

 32 34  0  0  0  0  0  0  0  0999 V2000
    3.6878   18.1632   35.7850 C   0  0  0  0  0  0  0  0  0  0  0  0
    3.2210   18.5825   37.1818 C   0  0  0  0  0  0  0  0  0  0  0  0
    2.6218   19.8237   37.3844 C   0  0  0  0  0  0  0  0  0  0  0  0
    2.0142   20.1653   38.5970 C   0  0  0  0  0  0  0  0  0  0  0  0
    2.1457   19.3246   39.7118 C   0  0  0  0  0  0  0  0  0  0  0  0
    1.0650   18.8168   41.9563 C   0  0  0  0  0  0  0  0  0  0  0  0
    0.8447   16.9031   43.1666 C   0  0  0  0  0  0  0  0  0  0  0  0
    1.1117   15.5025   43.4958 C   0  0  0  0  0  0  0  0  0  0  0  0
    0.4275   14.8371   44.5230 C   0  0  0  0  0  0  0  0  0  0  0  0
    0.6730   13.4952   44.7973 C   0  0  0  0  0  0  0  0  0  0  0  0
    1.5772   12.8113   44.0066 C   0  0  0  0  0  0  0  0  0  0  0  0
    2.2714   13.4288   42.9772 C   0  0  0  0  0  0  0  0  0  0  0  0
    2.0202   14.7748   42.7257 C   0  0  0  0  0  0  0  0  0  0  0  0
   -0.0654   17.6850   43.8274 C   0  0  0  0  0  0  0  0  0  0  0  0
    2.7362   18.0670   39.5224 C   0  0  0  0  0  0  0  0  0  0  0  0
    3.2632   17.7259   38.2754 C   0  0  0  0  0  0  0  0  0  0  0  0
    1.4782   19.6271   40.9383 N   0  0  0  0  0  0  0  0  0  0  0  0
    1.4443   17.4933   42.0289 N   0  0  0  0  0  0  0  0  0  0  0  0
    3.3511   18.9187   34.8264 O   0  0  0  0  0  0  0  0  0  0  0  0
    4.2914   17.0719   35.6929 O   0  0  0  0  0  0  0  0  0  0  0  0
    3.7447   16.4544   38.0727 O   0  0  0  0  0  0  0  0  0  0  0  0
   -0.2498   19.2099   43.0472 S   0  0  0  0  0  0  0  0  0  0  0  0
    1.8629   11.1297   44.3101 Cl  0  0  0  0  0  0  0  0  0  0  0  0
    2.6267   20.5579   36.5652 H   0  0  0  0  0  0  0  0  0  0  0  0
    1.4321   21.0952   38.6765 H   0  0  0  0  0  0  0  0  0  0  0  0
   -0.3153   15.3846   45.1217 H   0  0  0  0  0  0  0  0  0  0  0  0
    0.1579   12.9888   45.6269 H   0  0  0  0  0  0  0  0  0  0  0  0
    3.0021   12.8693   42.3746 H   0  0  0  0  0  0  0  0  0  0  0  0
    2.5495   15.2760   41.9019 H   0  0  0  0  0  0  0  0  0  0  0  0
   -0.6063   17.3800   44.7353 H   0  0  0  0  0  0  0  0  0  0  0  0
    2.7843   17.3501   40.3553 H   0  0  0  0  0  0  0  0  0  0  0  0
    1.2740   20.6269   41.0782 H   0  0  0  0  0  0  0  0  0  0  0  0
  1  2  1  0
  1 19  1  0
  1 20  2  0
  2  3  1  0
  2 16  2  0
  3  4  2  0
  4  5  1  0
  5 15  2  0
  5 17  1  0
  6 17  1  0
  6 18  2  0
  6 22  1  0
  7  8  1  0
  7 14  2  0
  7 18  1  0
  8  9  1  0
  8 13  2  0
  9 10  2  0
 10 11  1  0
 11 12  2  0
 11 23  1  0
 12 13  1  0
 14 22  1  0
 15 16  1  0
 16 21  1  0
  3 24  1  0
  4 25  1  0
  9 26  1  0
 10 27  1  0
 12 28  1  0
 13 29  1  0
 14 30  1  0
 15 31  1  0
 17 32  1  0
M  CHG  2  19  -1  21  -1
M  END
>  <mol_id>  (31) 
2026-08-23-6tgu-s0-n100-r2-0031

>  <rmsd_to_ref>  (31) 
1.8316326530615699

$$$$
6tgu.A
     RDKit          3D

 32 34  0  0  0  0  0  0  0  0999 V2000
    3.3805   21.6868   37.4903 C   0  0  0  0  0  0  0  0  0  0  0  0
    3.0367   20.7872   38.5888 C   0  0  0  0  0  0  0  0  0  0  0  0
    1.9893   19.8957   38.5399 C   0  0  0  0  0  0  0  0  0  0  0  0
    1.6971   19.0563   39.6173 C   0  0  0  0  0  0  0  0  0  0  0  0
    2.4493   19.0948   40.7654 C   0  0  0  0  0  0  0  0  0  0  0  0
    1.2458   17.1998   41.8818 C   0  0  0  0  0  0  0  0  0  0  0  0
    0.2984   15.1603   41.9411 C   0  0  0  0  0  0  0  0  0  0  0  0
    0.4770   13.7013   42.1096 C   0  0  0  0  0  0  0  0  0  0  0  0
    1.7186   13.1393   42.3378 C   0  0  0  0  0  0  0  0  0  0  0  0
    1.8839   11.7844   42.5032 C   0  0  0  0  0  0  0  0  0  0  0  0
    0.7869   10.9448   42.4422 C   0  0  0  0  0  0  0  0  0  0  0  0
   -0.4765   11.4707   42.2143 C   0  0  0  0  0  0  0  0  0  0  0  0
   -0.5902   12.8351   42.0553 C   0  0  0  0  0  0  0  0  0  0  0  0
   -0.9228   15.7183   41.7299 C   0  0  0  0  0  0  0  0  0  0  0  0
    3.4966   19.9913   40.8029 C   0  0  0  0  0  0  0  0  0  0  0  0
    3.7983   20.8330   39.7362 C   0  0  0  0  0  0  0  0  0  0  0  0
    2.2288   18.2974   41.9006 N   0  0  0  0  0  0  0  0  0  0  0  0
    1.2913   16.0190   41.9940 N   0  0  0  0  0  0  0  0  0  0  0  0
    2.6698   21.7206   36.2947 O   0  0  0  0  0  0  0  0  0  0  0  0
    4.3813   22.4579   37.6780 O   0  0  0  0  0  0  0  0  0  0  0  0
    4.8894   21.7116   39.8761 O   0  0  0  0  0  0  0  0  0  0  0  0
   -0.5295   17.5507   41.6172 S   0  0  0  0  0  0  0  0  0  0  0  0
    0.9441    9.2190   42.6500 Cl  0  0  0  0  0  0  0  0  0  0  0  0
    1.3986   19.8729   37.6234 H   0  0  0  0  0  0  0  0  0  0  0  0
    0.8621   18.3533   39.5655 H   0  0  0  0  0  0  0  0  0  0  0  0
    2.6060   13.7616   42.3933 H   0  0  0  0  0  0  0  0  0  0  0  0
    2.8638   11.3648   42.6827 H   0  0  0  0  0  0  0  0  0  0  0  0
   -1.3620   10.8547   42.1566 H   0  0  0  0  0  0  0  0  0  0  0  0
   -1.5677   13.2731   41.8752 H   0  0  0  0  0  0  0  0  0  0  0  0
   -1.9421   15.3611   41.6267 H   0  0  0  0  0  0  0  0  0  0  0  0
    4.1251   20.0547   41.7023 H   0  0  0  0  0  0  0  0  0  0  0  0
    2.7294   18.4281   42.8014 H   0  0  0  0  0  0  0  0  0  0  0  0
  1  2  1  0
  1 19  1  0
  1 20  2  0
  2  3  1  0
  2 16  2  0
  3  4  2  0
  4  5  1  0
  5 15  2  0
  5 17  1  0
  6 17  1  0
  6 18  2  0
  6 22  1  0
  7  8  1  0
  7 14  2  0
  7 18  1  0
  8  9  1  0
  8 13  2  0
  9 10  2  0
 10 11  1  0
 11 12  2  0
 11 23  1  0
 12 13  1  0
 14 22  1  0
 15 16  1  0
 16 21  1  0
  3 24  1  0
  4 25  1  0
  9 26  1  0
 10 27  1  0
 12 28  1  0
 13 29  1  0
 14 30  1  0
 15 31  1  0
 17 32  1  0
M  CHG  2  19  -1  21  -1
M  END
>  <mol_id>  (32) 
2026-08-23-6tgu-s0-n100-r2-0032

>  <rmsd_to_ref>  (32) 
1.8775510204093377

$$$$
6tgu.A
     RDKit          3D

 32 34  0  0  0  0  0  0  0  0999 V2000
    0.3658   21.1408   36.9243 C   0  0  0  0  0  0  0  0  0  0  0  0
    0.7573   20.6279   38.3129 C   0  0  0  0  0  0  0  0  0  0  0  0
    0.5282   21.4066   39.4451 C   0  0  0  0  0  0  0  0  0  0  0  0
    0.6945   20.9018   40.7389 C   0  0  0  0  0  0  0  0  0  0  0  0
    1.2704   19.6379   40.9329 C   0  0  0  0  0  0  0  0  0  0  0  0
    1.4588   17.7844   42.6627 C   0  0  0  0  0  0  0  0  0  0  0  0
    1.6408   15.5233   42.4898 C   0  0  0  0  0  0  0  0  0  0  0  0
    1.8450   14.2581   41.7835 C   0  0  0  0  0  0  0  0  0  0  0  0
    1.7121   13.0186   42.4254 C   0  0  0  0  0  0  0  0  0  0  0  0
    1.8777   11.8268   41.7267 C   0  0  0  0  0  0  0  0  0  0  0  0
    2.1340   11.8837   40.3697 C   0  0  0  0  0  0  0  0  0  0  0  0
    2.2676   13.0874   39.6942 C   0  0  0  0  0  0  0  0  0  0  0  0
    2.1098   14.2691   40.4131 C   0  0  0  0  0  0  0  0  0  0  0  0
    1.3254   15.6156   43.8196 C   0  0  0  0  0  0  0  0  0  0  0  0
    1.4968   18.8370   39.8045 C   0  0  0  0  0  0  0  0  0  0  0  0
    1.2447   19.3444   38.5286 C   0  0  0  0  0  0  0  0  0  0  0  0
    1.3881   19.0817   42.2437 N   0  0  0  0  0  0  0  0  0  0  0  0
    1.6347   16.7444   41.7749 N   0  0  0  0  0  0  0  0  0  0  0  0
   -0.3134   22.2088   36.8873 O   0  0  0  0  0  0  0  0  0  0  0  0
    0.6767   20.4251   35.9472 O   0  0  0  0  0  0  0  0  0  0  0  0
    1.3704   18.5172   37.4378 O   0  0  0  0  0  0  0  0  0  0  0  0
    0.9729   17.2439   44.2581 S   0  0  0  0  0  0  0  0  0  0  0  0
    2.3020   10.4076   39.4785 Cl  0  0  0  0  0  0  0  0  0  0  0  0
    0.2065   22.4508   39.3176 H   0  0  0  0  0  0  0  0  0  0  0  0
    0.3730   21.4975   41.6060 H   0  0  0  0  0  0  0  0  0  0  0  0
    1.4731   12.9879   43.4987 H   0  0  0  0  0  0  0  0  0  0  0  0
    1.8060   10.8587   42.2439 H   0  0  0  0  0  0  0  0  0  0  0  0
    2.4927   13.1080   38.6177 H   0  0  0  0  0  0  0  0  0  0  0  0
    2.1955   15.2327   39.8896 H   0  0  0  0  0  0  0  0  0  0  0  0
    1.3004   14.7636   44.5149 H   0  0  0  0  0  0  0  0  0  0  0  0
    1.8727   17.8102   39.9245 H   0  0  0  0  0  0  0  0  0  0  0  0
    1.4261   19.7782   43.0015 H   0  0  0  0  0  0  0  0  0  0  0  0
  1  2  1  0
  1 19  1  0
  1 20  2  0
  2  3  1  0
  2 16  2  0
  3  4  2  0
  4  5  1  0
  5 15  2  0
  5 17  1  0
  6 17  1  0
  6 18  2  0
  6 22  1  0
  7  8  1  0
  7 14  2  0
  7 18  1  0
  8  9  1  0
  8 13  2  0
  9 10  2  0
 10 11  1  0
 11 12  2  0
 11 23  1  0
 12 13  1  0
 14 22  1  0
 15 16  1  0
 16 21  1  0
  3 24  1  0
  4 25  1  0
  9 26  1  0
 10 27  1  0
 12 28  1  0
 13 29  1  0
 14 30  1  0
 15 31  1  0
 17 32  1  0
M  CHG  2  19  -1  21  -1
M  END
>  <mol_id>  (33) 
2026-08-23-6tgu-s0-n100-r2-0033

>  <rmsd_to_ref>  (33) 
1.9234693877592282

$$$$
6tgu.A
     RDKit          3D

 32 34  0  0  0  0  0  0  0  0999 V2000
    2.7796   20.5642   35.8367 C   0  0  0  0  0  0  0  0  0  0  0  0
    2.7946   19.9658   37.1693 C   0  0  0  0  0  0  0  0  0  0  0  0
    1.6756   19.4490   37.7817 C   0  0  0  0  0  0  0  0  0  0  0  0
    1.7385   18.8884   39.0594 C   0  0  0  0  0  0  0  0  0  0  0  0
    2.9250   18.8356   39.7486 C   0  0  0  0  0  0  0  0  0  0  0  0
    1.9897   17.5724   41.7019 C   0  0  0  0  0  0  0  0  0  0  0  0
    0.7512   15.9579   42.6611 C   0  0  0  0  0  0  0  0  0  0  0  0
    0.6579   14.5506   43.1080 C   0  0  0  0  0  0  0  0  0  0  0  0
    1.7031   13.6617   42.9443 C   0  0  0  0  0  0  0  0  0  0  0  0
    1.6201   12.3562   43.3673 C   0  0  0  0  0  0  0  0  0  0  0  0
    0.4644   11.9022   43.9761 C   0  0  0  0  0  0  0  0  0  0  0  0
   -0.6074   12.7639   44.1582 C   0  0  0  0  0  0  0  0  0  0  0  0
   -0.4750   14.0631   43.7172 C   0  0  0  0  0  0  0  0  0  0  0  0
   -0.2695   16.8388   42.8324 C   0  0  0  0  0  0  0  0  0  0  0  0
    4.0397   19.3556   39.1251 C   0  0  0  0  0  0  0  0  0  0  0  0
    3.9904   19.9168   37.8522 C   0  0  0  0  0  0  0  0  0  0  0  0
    3.0855   18.2995   41.0370 N   0  0  0  0  0  0  0  0  0  0  0  0
    1.8181   16.4614   42.0829 N   0  0  0  0  0  0  0  0  0  0  0  0
    1.6227   20.6659   35.0705 O   0  0  0  0  0  0  0  0  0  0  0  0
    3.8963   21.0000   35.3957 O   0  0  0  0  0  0  0  0  0  0  0  0
    5.1863   20.4193   37.3050 O   0  0  0  0  0  0  0  0  0  0  0  0
    0.4232   18.4253   42.1056 S   0  0  0  0  0  0  0  0  0  0  0  0
    0.3117   10.2555   44.5342 Cl  0  0  0  0  0  0  0  0  0  0  0  0
    0.7387   19.4956   37.2255 H   0  0  0  0  0  0  0  0  0  0  0  0
    0.8422   18.4820   39.5343 H   0  0  0  0  0  0  0  0  0  0  0  0
    2.6281   13.9762   42.4717 H   0  0  0  0  0  0  0  0  0  0  0  0
    2.4501   11.6770   43.2315 H   0  0  0  0  0  0  0  0  0  0  0  0
   -1.5303   12.4546   44.6264 H   0  0  0  0  0  0  0  0  0  0  0  0
   -1.2991   14.7587   43.8469 H   0  0  0  0  0  0  0  0  0  0  0  0
   -1.2708   16.8091   43.2494 H   0  0  0  0  0  0  0  0  0  0  0  0
    5.0101   19.3332   39.6404 H   0  0  0  0  0  0  0  0  0  0  0  0
    3.9619   18.3806   41.5886 H   0  0  0  0  0  0  0  0  0  0  0  0
  1  2  1  0
  1 19  1  0
  1 20  2  0
  2  3  1  0
  2 16  2  0
  3  4  2  0
  4  5  1  0
  5 15  2  0
  5 17  1  0
  6 17  1  0
  6 18  2  0
  6 22  1  0
  7  8  1  0
  7 14  2  0
  7 18  1  0
  8  9  1  0
  8 13  2  0
  9 10  2  0
 10 11  1  0
 11 12  2  0
 11 23  1  0
 12 13  1  0
 14 22  1  0
 15 16  1  0
 16 21  1  0
  3 24  1  0
  4 25  1  0
  9 26  1  0
 10 27  1  0
 12 28  1  0
 13 29  1  0
 14 30  1  0
 15 31  1  0
 17 32  1  0
M  CHG  2  19  -1  21  -1
M  END
>  <mol_id>  (34) 
2026-08-23-6tgu-s0-n100-r2-0034

>  <rmsd_to_ref>  (34) 
1.969387755102734

$$$$
6tgu.A
     RDKit          3D

 32 34  0  0  0  0  0  0  0  0999 V2000
    3.0865   18.4620   35.3269 C   0  0  0  0  0  0  0  0  0  0  0  0
    2.4274   18.7144   36.6857 C   0  0  0  0  0  0  0  0  0  0  0  0
    1.3433   19.5824   36.7955 C   0  0  0  0  0  0  0  0  0  0  0  0
    0.5983   19.6937   37.9741 C   0  0  0  0  0  0  0  0  0  0  0  0
    1.0336   19.0564   39.1451 C   0  0  0  0  0  0  0  0  0  0  0  0
    0.1864   18.2560   41.4045 C   0  0  0  0  0  0  0  0  0  0  0  0
    0.7640   16.5064   42.7390 C   0  0  0  0  0  0  0  0  0  0  0  0
    1.5955   15.3807   43.1661 C   0  0  0  0  0  0  0  0  0  0  0  0
    1.2239   14.5427   44.2271 C   0  0  0  0  0  0  0  0  0  0  0  0
    2.0130   13.4573   44.5951 C   0  0  0  0  0  0  0  0  0  0  0  0
    3.1555   13.1901   43.8647 C   0  0  0  0  0  0  0  0  0  0  0  0
    3.5570   13.9892   42.8048 C   0  0  0  0  0  0  0  0  0  0  0  0
    2.7601   15.0771   42.4592 C   0  0  0  0  0  0  0  0  0  0  0  0
   -0.4208   16.8521   43.3332 C   0  0  0  0  0  0  0  0  0  0  0  0
    2.1164   18.1707   39.0493 C   0  0  0  0  0  0  0  0  0  0  0  0
    2.7899   18.0230   37.8354 C   0  0  0  0  0  0  0  0  0  0  0  0
    0.2510   19.1074   40.3392 N   0  0  0  0  0  0  0  0  0  0  0  0
    1.0965   17.2340   41.5718 N   0  0  0  0  0  0  0  0  0  0  0  0
    2.4966   18.9424   34.3148 O   0  0  0  0  0  0  0  0  0  0  0  0
    4.1053   17.7369   35.3170 O   0  0  0  0  0  0  0  0  0  0  0  0
    3.7811   17.0767   37.7259 O   0  0  0  0  0  0  0  0  0  0  0  0
   -1.2130   18.1004   42.4488 S   0  0  0  0  0  0  0  0  0  0  0  0
    4.1263   11.8182   44.2854 Cl  0  0  0  0  0  0  0  0  0  0  0  0
    1.0646   20.1994   35.9285 H   0  0  0  0  0  0  0  0  0  0  0  0
   -0.3309   20.2823   37.9826 H   0  0  0  0  0  0  0  0  0  0  0  0
    0.2935   14.7465   44.7774 H   0  0  0  0  0  0  0  0  0  0  0  0
    1.7331   12.8246   45.4503 H   0  0  0  0  0  0  0  0  0  0  0  0
    4.4818   13.7691   42.2513 H   0  0  0  0  0  0  0  0  0  0  0  0
    3.0547   15.7115   41.6103 H   0  0  0  0  0  0  0  0  0  0  0  0
   -0.8141   16.3937   44.2525 H   0  0  0  0  0  0  0  0  0  0  0  0
    2.4348   17.5930   39.9296 H   0  0  0  0  0  0  0  0  0  0  0  0
   -0.3704   19.9260   40.4082 H   0  0  0  0  0  0  0  0  0  0  0  0
  1  2  1  0
  1 19  1  0
  1 20  2  0
  2  3  1  0
  2 16  2  0
  3  4  2  0
  4  5  1  0
  5 15  2  0
  5 17  1  0
  6 17  1  0
  6 18  2  0
  6 22  1  0
  7  8  1  0
  7 14  2  0
  7 18  1  0
  8  9  1  0
  8 13  2  0
  9 10  2  0
 10 11  1  0
 11 12  2  0
 11 23  1  0
 12 13  1  0
 14 22  1  0
 15 16  1  0
 16 21  1  0
  3 24  1  0
  4 25  1  0
  9 26  1  0
 10 27  1  0
 12 28  1  0
 13 29  1  0
 14 30  1  0
 15 31  1  0
 17 32  1  0
M  CHG  2  19  -1  21  -1
M  END
>  <mol_id>  (35) 
2026-08-23-6tgu-s0-n100-r2-0035

>  <rmsd_to_ref>  (35) 
2.0153061224584037

$$$$
6tgu.A
     RDKit          3D

 32 34  0  0  0  0  0  0  0  0999 V2000
    2.7991   21.5994   37.9264 C   0  0  0  0  0  0  0  0  0  0  0  0
    2.0233   20.7652   38.8531 C   0  0  0  0  0  0  0  0  0  0  0  0
    2.6502   19.7387   39.5483 C   0  0  0  0  0  0  0  0  0  0  0  0
    1.9199   18.9409   40.4363 C   0  0  0  0  0  0  0  0  0  0  0  0
    0.5715   19.2043   40.5971 C   0  0  0  0  0  0  0  0  0  0  0  0
    0.4336   17.3327   42.1628 C   0  0  0  0  0  0  0  0  0  0  0  0
    1.2401   15.3323   42.8000 C   0  0  0  0  0  0  0  0  0  0  0  0
    1.3574   13.8829   42.5126 C   0  0  0  0  0  0  0  0  0  0  0  0
    0.7822   13.3092   41.3992 C   0  0  0  0  0  0  0  0  0  0  0  0
    0.8851   11.9587   41.1207 C   0  0  0  0  0  0  0  0  0  0  0  0
    1.5850   11.1308   41.9739 C   0  0  0  0  0  0  0  0  0  0  0  0
    2.1643   11.6982   43.0915 C   0  0  0  0  0  0  0  0  0  0  0  0
    2.0531   13.0413   43.3545 C   0  0  0  0  0  0  0  0  0  0  0  0
    1.8069   15.8867   43.9146 C   0  0  0  0  0  0  0  0  0  0  0  0
   -0.0599   20.2361   39.8985 C   0  0  0  0  0  0  0  0  0  0  0  0
    0.6673   21.0314   39.0132 C   0  0  0  0  0  0  0  0  0  0  0  0
   -0.1902   18.4083   41.4958 N   0  0  0  0  0  0  0  0  0  0  0  0
    0.5951   16.1763   42.0332 N   0  0  0  0  0  0  0  0  0  0  0  0
    4.1540   21.3465   37.7547 O   0  0  0  0  0  0  0  0  0  0  0  0
    2.1908   22.5216   37.3190 O   0  0  0  0  0  0  0  0  0  0  0  0
    0.0409   22.0545   38.3197 O   0  0  0  0  0  0  0  0  0  0  0  0
    1.3609   17.6604   43.7897 S   0  0  0  0  0  0  0  0  0  0  0  0
    1.7368    9.4197   41.6536 Cl  0  0  0  0  0  0  0  0  0  0  0  0
    3.7147   19.5323   39.4194 H   0  0  0  0  0  0  0  0  0  0  0  0
    2.4206   18.1374   40.9781 H   0  0  0  0  0  0  0  0  0  0  0  0
    0.2221   13.9365   40.7042 H   0  0  0  0  0  0  0  0  0  0  0  0
    0.4054   11.5579   40.2205 H   0  0  0  0  0  0  0  0  0  0  0  0
    2.7085   11.0487   43.7513 H   0  0  0  0  0  0  0  0  0  0  0  0
    2.5140   13.4668   44.2353 H   0  0  0  0  0  0  0  0  0  0  0  0
    2.3793   15.4805   44.7113 H   0  0  0  0  0  0  0  0  0  0  0  0
   -1.1072   20.4208   40.0404 H   0  0  0  0  0  0  0  0  0  0  0  0
   -1.1840   18.6084   41.6612 H   0  0  0  0  0  0  0  0  0  0  0  0
  1  2  1  0
  1 19  1  0
  1 20  2  0
  2  3  1  0
  2 16  2  0
  3  4  2  0
  4  5  1  0
  5 15  2  0
  5 17  1  0
  6 17  1  0
  6 18  2  0
  6 22  1  0
  7  8  1  0
  7 14  2  0
  7 18  1  0
  8  9  1  0
  8 13  2  0
  9 10  2  0
 10 11  1  0
 11 12  2  0
 11 23  1  0
 12 13  1  0
 14 22  1  0
 15 16  1  0
 16 21  1  0
  3 24  1  0
  4 25  1  0
  9 26  1  0
 10 27  1  0
 12 28  1  0
 13 29  1  0
 14 30  1  0
 15 31  1  0
 17 32  1  0
M  CHG  2  19  -1  21  -1
M  END
>  <mol_id>  (36) 
2026-08-23-6tgu-s0-n100-r2-0036

>  <rmsd_to_ref>  (36) 
2.0612244897985113

$$$$
6tgu.A
     RDKit          3D

 32 34  0  0  0  0  0  0  0  0999 V2000
    0.3994   18.3027   36.1411 C   0  0  0  0  0  0  0  0  0  0  0  0
    0.6248   18.4647   37.6470 C   0  0  0  0  0  0  0  0  0  0  0  0
    0.0573   19.5342   38.3360 C   0  0  0  0  0  0  0  0  0  0  0  0
    0.0804   19.6134   39.7323 C   0  0  0  0  0  0  0  0  0  0  0  0
    0.8359   18.6962   40.4771 C   0  0  0  0  0  0  0  0  0  0  0  0
    1.0519   17.7407   42.8231 C   0  0  0  0  0  0  0  0  0  0  0  0
    1.6765   15.6986   43.6074 C   0  0  0  0  0  0  0  0  0  0  0  0
    2.2338   14.3497   43.5019 C   0  0  0  0  0  0  0  0  0  0  0  0
    2.2199   13.4533   44.5800 C   0  0  0  0  0  0  0  0  0  0  0  0
    2.7249   12.1635   44.4479 C   0  0  0  0  0  0  0  0  0  0  0  0
    3.2043   11.7620   43.2153 C   0  0  0  0  0  0  0  0  0  0  0  0
    3.2316   12.6139   42.1214 C   0  0  0  0  0  0  0  0  0  0  0  0
    2.7323   13.9041   42.2767 C   0  0  0  0  0  0  0  0  0  0  0  0
    1.1172   16.2089   44.7490 C   0  0  0  0  0  0  0  0  0  0  0  0
    1.4042   17.6076   39.8003 C   0  0  0  0  0  0  0  0  0  0  0  0
    1.2946   17.5169   38.4115 C   0  0  0  0  0  0  0  0  0  0  0  0
    0.8185   18.7242   41.9054 N   0  0  0  0  0  0  0  0  0  0  0  0
    1.5725   16.5174   42.4581 N   0  0  0  0  0  0  0  0  0  0  0  0
   -0.4477   19.0793   35.6098 O   0  0  0  0  0  0  0  0  0  0  0  0
    1.0067   17.3678   35.5744 O   0  0  0  0  0  0  0  0  0  0  0  0
    1.7637   16.3948   37.7707 O   0  0  0  0  0  0  0  0  0  0  0  0
    0.3974   17.7451   44.4494 S   0  0  0  0  0  0  0  0  0  0  0  0
    3.7986   10.1458   43.0250 Cl  0  0  0  0  0  0  0  0  0  0  0  0
   -0.4238   20.3415   37.7642 H   0  0  0  0  0  0  0  0  0  0  0  0
   -0.4952   20.3967   40.2472 H   0  0  0  0  0  0  0  0  0  0  0  0
    1.8030   13.7749   45.5458 H   0  0  0  0  0  0  0  0  0  0  0  0
    2.7423   11.4771   45.3073 H   0  0  0  0  0  0  0  0  0  0  0  0
    3.6375   12.2787   41.1555 H   0  0  0  0  0  0  0  0  0  0  0  0
    2.7305   14.5875   41.4147 H   0  0  0  0  0  0  0  0  0  0  0  0
    1.1265   15.7049   45.7267 H   0  0  0  0  0  0  0  0  0  0  0  0
    1.9358   16.8261   40.3630 H   0  0  0  0  0  0  0  0  0  0  0  0
    0.5912   19.6428   42.3121 H   0  0  0  0  0  0  0  0  0  0  0  0
  1  2  1  0
  1 19  1  0
  1 20  2  0
  2  3  1  0
  2 16  2  0
  3  4  2  0
  4  5  1  0
  5 15  2  0
  5 17  1  0
  6 17  1  0
  6 18  2  0
  6 22  1  0
  7  8  1  0
  7 14  2  0
  7 18  1  0
  8  9  1  0
  8 13  2  0
  9 10  2  0
 10 11  1  0
 11 12  2  0
 11 23  1  0
 12 13  1  0
 14 22  1  0
 15 16  1  0
 16 21  1  0
  3 24  1  0
  4 25  1  0
  9 26  1  0
 10 27  1  0
 12 28  1  0
 13 29  1  0
 14 30  1  0
 15 31  1  0
 17 32  1  0
M  CHG  2  19  -1  21  -1
M  END
>  <mol_id>  (37) 
2026-08-23-6tgu-s0-n100-r2-0037

>  <rmsd_to_ref>  (37) 
2.107142857151937

$$$$
6tgu.A
     RDKit          3D

 32 34  0  0  0  0  0  0  0  0999 V2000
    4.2708   20.1316   38.8962 C   0  0  0  0  0  0  0  0  0  0  0  0
    2.9873   19.7071   39.4590 C   0  0  0  0  0  0  0  0  0  0  0  0
    2.9780   18.5301   40.1764 C   0  0  0  0  0  0  0  0  0  0  0  0
    1.7872   18.0969   40.7224 C   0  0  0  0  0  0  0  0  0  0  0  0
    0.5970   18.8001   40.5779 C   0  0  0  0  0  0  0  0  0  0  0  0
   -0.6986   17.1602   41.8820 C   0  0  0  0  0  0  0  0  0  0  0  0
   -0.4214   15.2284   42.9896 C   0  0  0  0  0  0  0  0  0  0  0  0
    0.5150   14.1639   43.4138 C   0  0  0  0  0  0  0  0  0  0  0  0
    0.0849   13.0910   44.1677 C   0  0  0  0  0  0  0  0  0  0  0  0
    0.9741   12.1071   44.5541 C   0  0  0  0  0  0  0  0  0  0  0  0
    2.3082   12.1568   44.2068 C   0  0  0  0  0  0  0  0  0  0  0  0
    2.7539   13.2246   43.4521 C   0  0  0  0  0  0  0  0  0  0  0  0
    1.8534   14.1854   43.0825 C   0  0  0  0  0  0  0  0  0  0  0  0
   -1.7531   15.1806   43.3352 C   0  0  0  0  0  0  0  0  0  0  0  0
    0.6753   19.9695   39.8488 C   0  0  0  0  0  0  0  0  0  0  0  0
    1.8350   20.4431   39.2855 C   0  0  0  0  0  0  0  0  0  0  0  0
   -0.6289   18.3634   41.1344 N   0  0  0  0  0  0  0  0  0  0  0  0
   -0.0975   16.2740   42.2775 N   0  0  0  0  0  0  0  0  0  0  0  0
    4.2886   21.3332   38.1619 O   0  0  0  0  0  0  0  0  0  0  0  0
    5.3336   19.4733   39.0437 O   0  0  0  0  0  0  0  0  0  0  0  0
    1.8645   21.6421   38.5500 O   0  0  0  0  0  0  0  0  0  0  0  0
   -2.4243   16.7340   42.5510 S   0  0  0  0  0  0  0  0  0  0  0  0
    3.4540   10.9158   44.6883 Cl  0  0  0  0  0  0  0  0  0  0  0  0
    3.8878   17.9561   40.3090 H   0  0  0  0  0  0  0  0  0  0  0  0
    1.8216   17.1728   41.2758 H   0  0  0  0  0  0  0  0  0  0  0  0
   -0.9625   13.0362   44.4501 H   0  0  0  0  0  0  0  0  0  0  0  0
    0.6383   11.2663   45.1447 H   0  0  0  0  0  0  0  0  0  0  0  0
    3.8011   13.3154   43.1481 H   0  0  0  0  0  0  0  0  0  0  0  0
    2.1984   15.0173   42.4951 H   0  0  0  0  0  0  0  0  0  0  0  0
   -2.3525   14.5226   43.8774 H   0  0  0  0  0  0  0  0  0  0  0  0
   -0.2266   20.5499   39.7103 H   0  0  0  0  0  0  0  0  0  0  0  0
   -1.4639   18.9846   40.9554 H   0  0  0  0  0  0  0  0  0  0  0  0
  1  2  1  0
  1 19  1  0
  1 20  2  0
  2  3  1  0
  2 16  2  0
  3  4  2  0
  4  5  1  0
  5 15  2  0
  5 17  1  0
  6 17  1  0
  6 18  2  0
  6 22  1  0
  7  8  1  0
  7 14  2  0
  7 18  1  0
  8  9  1  0
  8 13  2  0
  9 10  2  0
 10 11  1  0
 11 12  2  0
 11 23  1  0
 12 13  1  0
 14 22  1  0
 15 16  1  0
 16 21  1  0
  3 24  1  0
  4 25  1  0
  9 26  1  0
 10 27  1  0
 12 28  1  0
 13 29  1  0
 14 30  1  0
 15 31  1  0
 17 32  1  0
M  CHG  2  19  -1  21  -1
M  END
>  <mol_id>  (38) 
2026-08-23-6tgu-s0-n100-r2-0038

>  <rmsd_to_ref>  (38) 
2.15306122449171

$$$$
6tgu.A
     RDKit          3D

 32 34  0  0  0  0  0  0  0  0999 V2000
    3.1816   21.0096   38.9078 C   0  0  0  0  0  0  0  0  0  0  0  0
    2.8986   20.0633   40.0778 C   0  0  0  0  0  0  0  0  0  0  0  0
    2.4883   20.5659   41.3106 C   0  0  0  0  0  0  0  0  0  0  0  0
    2.0398   19.7317   42.3399 C   0  0  0  0  0  0  0  0  0  0  0  0
    2.1566   18.3394   42.2192 C   0  0  0  0  0  0  0  0  0  0  0  0
    1.2197   16.1765   43.1719 C   0  0  0  0  0  0  0  0  0  0  0  0
    0.8561   14.1206   42.2681 C   0  0  0  0  0  0  0  0  0  0  0  0
    0.9641   13.0842   41.2408 C   0  0  0  0  0  0  0  0  0  0  0  0
    0.2910   11.8588   41.3476 C   0  0  0  0  0  0  0  0  0  0  0  0
    0.3806   10.9005   40.3429 C   0  0  0  0  0  0  0  0  0  0  0  0
    1.1139   11.1951   39.2088 C   0  0  0  0  0  0  0  0  0  0  0  0
    1.7904   12.3963   39.0594 C   0  0  0  0  0  0  0  0  0  0  0  0
    1.6977   13.3378   40.0808 C   0  0  0  0  0  0  0  0  0  0  0  0
    0.1186   13.9883   43.4148 C   0  0  0  0  0  0  0  0  0  0  0  0
    2.5574   17.8168   40.9813 C   0  0  0  0  0  0  0  0  0  0  0  0
    2.9233   18.6800   39.9468 C   0  0  0  0  0  0  0  0  0  0  0  0
    1.6451   17.4723   43.2330 N   0  0  0  0  0  0  0  0  0  0  0  0
    1.4261   15.3977   42.0531 N   0  0  0  0  0  0  0  0  0  0  0  0
    2.8646   22.2241   39.0740 O   0  0  0  0  0  0  0  0  0  0  0  0
    3.6257   20.4958   37.8578 O   0  0  0  0  0  0  0  0  0  0  0  0
    3.2134   18.1608   38.7073 O   0  0  0  0  0  0  0  0  0  0  0  0
    0.0690   15.4710   44.2906 S   0  0  0  0  0  0  0  0  0  0  0  0
    1.2010   10.0278   37.9316 Cl  0  0  0  0  0  0  0  0  0  0  0  0
    2.5179   21.6524   41.4798 H   0  0  0  0  0  0  0  0  0  0  0  0
    1.5945   20.1686   43.2459 H   0  0  0  0  0  0  0  0  0  0  0  0
   -0.3177   11.6518   42.2401 H   0  0  0  0  0  0  0  0  0  0  0  0
   -0.1220    9.9278   40.4489 H   0  0  0  0  0  0  0  0  0  0  0  0
    2.3852   12.6001   38.1568 H   0  0  0  0  0  0  0  0  0  0  0  0
    2.2140   14.3029   39.9711 H   0  0  0  0  0  0  0  0  0  0  0  0
   -0.3761   13.0591   43.7340 H   0  0  0  0  0  0  0  0  0  0  0  0
    2.5834   16.7283   40.8254 H   0  0  0  0  0  0  0  0  0  0  0  0
    1.5875   17.8972   44.1695 H   0  0  0  0  0  0  0  0  0  0  0  0
  1  2  1  0
  1 19  1  0
  1 20  2  0
  2  3  1  0
  2 16  2  0
  3  4  2  0
  4  5  1  0
  5 15  2  0
  5 17  1  0
  6 17  1  0
  6 18  2  0
  6 22  1  0
  7  8  1  0
  7 14  2  0
  7 18  1  0
  8  9  1  0
  8 13  2  0
  9 10  2  0
 10 11  1  0
 11 12  2  0
 11 23  1  0
 12 13  1  0
 14 22  1  0
 15 16  1  0
 16 21  1  0
  3 24  1  0
  4 25  1  0
  9 26  1  0
 10 27  1  0
 12 28  1  0
 13 29  1  0
 14 30  1  0
 15 31  1  0
 17 32  1  0
M  CHG  2  19  -1  21  -1
M  END
>  <mol_id>  (39) 
2026-08-23-6tgu-s0-n100-r2-0039

>  <rmsd_to_ref>  (39) 
2.198979591845536

$$$$
6tgu.A
     RDKit          3D

 32 34  0  0  0  0  0  0  0  0999 V2000
    5.8923   19.5776   38.1997 C   0  0  0  0  0  0  0  0  0  0  0  0
    4.5635   19.4514   38.7789 C   0  0  0  0  0  0  0  0  0  0  0  0
    4.2609   18.3628   39.5845 C   0  0  0  0  0  0  0  0  0  0  0  0
    2.9971   18.2005   40.1519 C   0  0  0  0  0  0  0  0  0  0  0  0
    2.0596   19.1708   39.8766 C   0  0  0  0  0  0  0  0  0  0  0  0
    0.4804   18.0619   41.4735 C   0  0  0  0  0  0  0  0  0  0  0  0
    0.1110   16.1977   42.6863 C   0  0  0  0  0  0  0  0  0  0  0  0
    0.0322   14.7259   42.8190 C   0  0  0  0  0  0  0  0  0  0  0  0
   -0.2814   14.1057   43.9975 C   0  0  0  0  0  0  0  0  0  0  0  0
   -0.3422   12.7328   44.0972 C   0  0  0  0  0  0  0  0  0  0  0  0
   -0.0928   11.9136   43.0216 C   0  0  0  0  0  0  0  0  0  0  0  0
    0.2247   12.5215   41.8237 C   0  0  0  0  0  0  0  0  0  0  0  0
    0.2847   13.8962   41.7293 C   0  0  0  0  0  0  0  0  0  0  0  0
   -0.1282   17.0031   43.8045 C   0  0  0  0  0  0  0  0  0  0  0  0
    2.3300   20.2638   39.0811 C   0  0  0  0  0  0  0  0  0  0  0  0
    3.5798   20.4105   38.5290 C   0  0  0  0  0  0  0  0  0  0  0  0
    0.7476   19.0222   40.4447 N   0  0  0  0  0  0  0  0  0  0  0  0
    0.4034   16.8084   41.5862 N   0  0  0  0  0  0  0  0  0  0  0  0
    6.1670   20.6775   37.3844 O   0  0  0  0  0  0  0  0  0  0  0  0
    6.7700   18.6887   38.4461 O   0  0  0  0  0  0  0  0  0  0  0  0
    3.8533   21.5285   37.7173 O   0  0  0  0  0  0  0  0  0  0  0  0
    0.0825   18.6802   43.2171 S   0  0  0  0  0  0  0  0  0  0  0  0
   -0.1941   10.1954   43.2401 Cl  0  0  0  0  0  0  0  0  0  0  0  0
    4.9946   17.5821   39.8101 H   0  0  0  0  0  0  0  0  0  0  0  0
    2.7832   17.3299   40.7864 H   0  0  0  0  0  0  0  0  0  0  0  0
   -0.4863   14.6868   44.8758 H   0  0  0  0  0  0  0  0  0  0  0  0
   -0.5958   12.2986   45.0655 H   0  0  0  0  0  0  0  0  0  0  0  0
    0.4159   11.8542   40.9929 H   0  0  0  0  0  0  0  0  0  0  0  0
    0.5404   14.2961   40.7549 H   0  0  0  0  0  0  0  0  0  0  0  0
   -0.3822   16.7123   44.8029 H   0  0  0  0  0  0  0  0  0  0  0  0
    1.6023   21.0267   38.8612 H   0  0  0  0  0  0  0  0  0  0  0  0
   -0.0640   19.6154   40.1255 H   0  0  0  0  0  0  0  0  0  0  0  0
  1  2  1  0
  1 19  1  0
  1 20  2  0
  2  3  1  0
  2 16  2  0
  3  4  2  0
  4  5  1  0
  5 15  2  0
  5 17  1  0
  6 17  1  0
  6 18  2  0
  6 22  1  0
  7  8  1  0
  7 14  2  0
  7 18  1  0
  8  9  1  0
  8 13  2  0
  9 10  2  0
 10 11  1  0
 11 12  2  0
 11 23  1  0
 12 13  1  0
 14 22  1  0
 15 16  1  0
 16 21  1  0
  3 24  1  0
  4 25  1  0
  9 26  1  0
 10 27  1  0
 12 28  1  0
 13 29  1  0
 14 30  1  0
 15 31  1  0
 17 32  1  0
M  CHG  2  19  -1  21  -1
M  END
>  <mol_id>  (40) 
2026-08-23-6tgu-s0-n100-r2-0040

>  <rmsd_to_ref>  (40) 
2.2448979591880307

$$$$
6tgu.A
     RDKit          3D

 32 34  0  0  0  0  0  0  0  0999 V2000
    5.0761   19.6185   38.9747 C   0  0  0  0  0  0  0  0  0  0  0  0
    4.0280   19.3506   40.0584 C   0  0  0  0  0  0  0  0  0  0  0  0
    3.5180   20.3974   40.8232 C   0  0  0  0  0  0  0  0  0  0  0  0
    2.4301   20.2249   41.6854 C   0  0  0  0  0  0  0  0  0  0  0  0
    1.9281   18.9398   41.9372 C   0  0  0  0  0  0  0  0  0  0  0  0
   -0.1476   17.7506   42.7976 C   0  0  0  0  0  0  0  0  0  0  0  0
   -1.0964   15.7441   42.2984 C   0  0  0  0  0  0  0  0  0  0  0  0
   -1.1480   14.4153   41.6877 C   0  0  0  0  0  0  0  0  0  0  0  0
   -2.3009   13.6189   41.7369 C   0  0  0  0  0  0  0  0  0  0  0  0
   -2.3392   12.3721   41.1203 C   0  0  0  0  0  0  0  0  0  0  0  0
   -1.2290   11.9464   40.4157 C   0  0  0  0  0  0  0  0  0  0  0  0
   -0.0703   12.7043   40.3366 C   0  0  0  0  0  0  0  0  0  0  0  0
   -0.0478   13.9439   40.9697 C   0  0  0  0  0  0  0  0  0  0  0  0
   -2.1400   16.3160   42.9767 C   0  0  0  0  0  0  0  0  0  0  0  0
    2.4228   17.8770   41.1679 C   0  0  0  0  0  0  0  0  0  0  0  0
    3.4572   18.0991   40.2570 C   0  0  0  0  0  0  0  0  0  0  0  0
    0.7781   18.7534   42.7642 N   0  0  0  0  0  0  0  0  0  0  0  0
    0.0301   16.5763   42.0974 N   0  0  0  0  0  0  0  0  0  0  0  0
    5.3162   20.8329   38.7089 O   0  0  0  0  0  0  0  0  0  0  0  0
    5.5494   18.6224   38.3853 O   0  0  0  0  0  0  0  0  0  0  0  0
    3.8624   17.0745   39.4349 O   0  0  0  0  0  0  0  0  0  0  0  0
   -1.7865   17.9515   43.3867 S   0  0  0  0  0  0  0  0  0  0  0  0
   -1.2764   10.4141   39.6085 Cl  0  0  0  0  0  0  0  0  0  0  0  0
    3.9853   21.3902   40.7468 H   0  0  0  0  0  0  0  0  0  0  0  0
    1.9674   21.0990   42.1669 H   0  0  0  0  0  0  0  0  0  0  0  0
   -3.1895   13.9857   42.2715 H   0  0  0  0  0  0  0  0  0  0  0  0
   -3.2351   11.7380   41.1922 H   0  0  0  0  0  0  0  0  0  0  0  0
    0.8085   12.3353   39.7876 H   0  0  0  0  0  0  0  0  0  0  0  0
    0.8572   14.5657   40.9027 H   0  0  0  0  0  0  0  0  0  0  0  0
   -3.0787   15.7998   43.2264 H   0  0  0  0  0  0  0  0  0  0  0  0
    1.9963   16.8695   41.2818 H   0  0  0  0  0  0  0  0  0  0  0  0
    0.6207   19.5034   43.4524 H   0  0  0  0  0  0  0  0  0  0  0  0
  1  2  1  0
  1 19  1  0
  1 20  2  0
  2  3  1  0
  2 16  2  0
  3  4  2  0
  4  5  1  0
  5 15  2  0
  5 17  1  0
  6 17  1  0
  6 18  2  0
  6 22  1  0
  7  8  1  0
  7 14  2  0
  7 18  1  0
  8  9  1  0
  8 13  2  0
  9 10  2  0
 10 11  1  0
 11 12  2  0
 11 23  1  0
 12 13  1  0
 14 22  1  0
 15 16  1  0
 16 21  1  0
  3 24  1  0
  4 25  1  0
  9 26  1  0
 10 27  1  0
 12 28  1  0
 13 29  1  0
 14 30  1  0
 15 31  1  0
 17 32  1  0
M  CHG  2  19  -1  21  -1
M  END
>  <mol_id>  (41) 
2026-08-23-6tgu-s0-n100-r2-0041

>  <rmsd_to_ref>  (41) 
2.2908163265344057

$$$$
6tgu.A
     RDKit          3D

 32 34  0  0  0  0  0  0  0  0999 V2000
    4.1330   21.1626   38.5148 C   0  0  0  0  0  0  0  0  0  0  0  0
    3.1093   20.5090   39.3176 C   0  0  0  0  0  0  0  0  0  0  0  0
    2.7378   19.1875   39.0446 C   0  0  0  0  0  0  0  0  0  0  0  0
    1.7789   18.5620   39.8129 C   0  0  0  0  0  0  0  0  0  0  0  0
    1.1688   19.2182   40.8589 C   0  0  0  0  0  0  0  0  0  0  0  0
    0.4503   17.2394   42.0370 C   0  0  0  0  0  0  0  0  0  0  0  0
    0.7712   15.0189   42.4683 C   0  0  0  0  0  0  0  0  0  0  0  0
    0.3629   13.6150   42.2657 C   0  0  0  0  0  0  0  0  0  0  0  0
   -0.6925   13.2507   41.4722 C   0  0  0  0  0  0  0  0  0  0  0  0
   -1.1118   11.9675   41.2435 C   0  0  0  0  0  0  0  0  0  0  0  0
   -0.4115   10.9489   41.8681 C   0  0  0  0  0  0  0  0  0  0  0  0
    0.6446   11.3063   42.6646 C   0  0  0  0  0  0  0  0  0  0  0  0
    1.0647   12.5801   42.8950 C   0  0  0  0  0  0  0  0  0  0  0  0
    1.8266   15.3355   43.3134 C   0  0  0  0  0  0  0  0  0  0  0  0
    1.5140   20.5130   41.1448 C   0  0  0  0  0  0  0  0  0  0  0  0
    2.4732   21.1247   40.3696 C   0  0  0  0  0  0  0  0  0  0  0  0
    0.2225   18.5678   41.7223 N   0  0  0  0  0  0  0  0  0  0  0  0
    0.1760   16.0282   41.9034 N   0  0  0  0  0  0  0  0  0  0  0  0
    4.4668   22.4779   38.8787 O   0  0  0  0  0  0  0  0  0  0  0  0
    4.7106   20.6175   37.5478 O   0  0  0  0  0  0  0  0  0  0  0  0
    2.8474   22.4448   40.6374 O   0  0  0  0  0  0  0  0  0  0  0  0
    1.9329   17.1249   43.2674 S   0  0  0  0  0  0  0  0  0  0  0  0
   -0.8368    9.2568   41.6833 Cl  0  0  0  0  0  0  0  0  0  0  0  0
    3.1970   18.6390   38.2356 H   0  0  0  0  0  0  0  0  0  0  0  0
    1.5100   17.5468   39.5862 H   0  0  0  0  0  0  0  0  0  0  0  0
   -1.2747   14.0339   40.9641 H   0  0  0  0  0  0  0  0  0  0  0  0
   -1.9370   11.7432   40.6111 H   0  0  0  0  0  0  0  0  0  0  0  0
    1.1994   10.4937   43.1568 H   0  0  0  0  0  0  0  0  0  0  0  0
    1.9258   12.7959   43.5450 H   0  0  0  0  0  0  0  0  0  0  0  0
    2.5071   14.6606   43.9287 H   0  0  0  0  0  0  0  0  0  0  0  0
    1.0227   21.0220   41.9664 H   0  0  0  0  0  0  0  0  0  0  0  0
   -0.5990   19.1472   42.0707 H   0  0  0  0  0  0  0  0  0  0  0  0
  1  2  1  0
  1 19  1  0
  1 20  2  0
  2  3  1  0
  2 16  2  0
  3  4  2  0
  4  5  1  0
  5 15  2  0
  5 17  1  0
  6 17  1  0
  6 18  2  0
  6 22  1  0
  7  8  1  0
  7 14  2  0
  7 18  1  0
  8  9  1  0
  8 13  2  0
  9 10  2  0
 10 11  1  0
 11 12  2  0
 11 23  1  0
 12 13  1  0
 14 22  1  0
 15 16  1  0
 16 21  1  0
  3 24  1  0
  4 25  1  0
  9 26  1  0
 10 27  1  0
 12 28  1  0
 13 29  1  0
 14 30  1  0
 15 31  1  0
 17 32  1  0
M  CHG  2  19  -1  21  -1
M  END
>  <mol_id>  (42) 
2026-08-23-6tgu-s0-n100-r2-0042

>  <rmsd_to_ref>  (42) 
2.3367346938808597

$$$$
6tgu.A
     RDKit          3D

 32 34  0  0  0  0  0  0  0  0999 V2000
    5.4527   19.5937   39.4481 C   0  0  0  0  0  0  0  0  0  0  0  0
    4.3515   19.1665   40.4225 C   0  0  0  0  0  0  0  0  0  0  0  0
    3.6938   20.1126   41.2055 C   0  0  0  0  0  0  0  0  0  0  0  0
    2.5619   19.7921   41.9621 C   0  0  0  0  0  0  0  0  0  0  0  0
    2.1568   18.4557   42.0917 C   0  0  0  0  0  0  0  0  0  0  0  0
    0.1333   17.0429   42.7019 C   0  0  0  0  0  0  0  0  0  0  0  0
   -0.5940   15.0037   42.0029 C   0  0  0  0  0  0  0  0  0  0  0  0
   -0.4812   13.7203   41.3093 C   0  0  0  0  0  0  0  0  0  0  0  0
   -1.5600   12.8298   41.2135 C   0  0  0  0  0  0  0  0  0  0  0  0
   -1.4407   11.6293   40.5202 C   0  0  0  0  0  0  0  0  0  0  0  0
   -0.2462   11.3461   39.8852 C   0  0  0  0  0  0  0  0  0  0  0  0
    0.8440   12.2007   39.9494 C   0  0  0  0  0  0  0  0  0  0  0  0
    0.7085   13.3917   40.6574 C   0  0  0  0  0  0  0  0  0  0  0  0
   -1.7332   15.4397   42.6264 C   0  0  0  0  0  0  0  0  0  0  0  0
    2.8010   17.4927   41.3020 C   0  0  0  0  0  0  0  0  0  0  0  0
    3.8793   17.8614   40.4956 C   0  0  0  0  0  0  0  0  0  0  0  0
    0.9671   18.1187   42.8074 N   0  0  0  0  0  0  0  0  0  0  0  0
    0.4672   15.9380   41.9479 N   0  0  0  0  0  0  0  0  0  0  0  0
    5.6050   20.8391   39.2785 O   0  0  0  0  0  0  0  0  0  0  0  0
    6.0559   18.6828   38.8397 O   0  0  0  0  0  0  0  0  0  0  0  0
    4.4353   16.9326   39.6483 O   0  0  0  0  0  0  0  0  0  0  0  0
   -1.5576   17.0668   43.1643 S   0  0  0  0  0  0  0  0  0  0  0  0
   -0.0962    9.8741   38.9839 Cl  0  0  0  0  0  0  0  0  0  0  0  0
    4.0766   21.1436   41.2295 H   0  0  0  0  0  0  0  0  0  0  0  0
    1.9883   20.5899   42.4565 H   0  0  0  0  0  0  0  0  0  0  0  0
   -2.5161   13.0843   41.6942 H   0  0  0  0  0  0  0  0  0  0  0  0
   -2.2803   10.9199   40.4783 H   0  0  0  0  0  0  0  0  0  0  0  0
    1.7917   11.9442   39.4534 H   0  0  0  0  0  0  0  0  0  0  0  0
    1.5577   14.0892   40.7042 H   0  0  0  0  0  0  0  0  0  0  0  0
   -2.6394   14.8318   42.7650 H   0  0  0  0  0  0  0  0  0  0  0  0
    2.4571   16.4479   41.3178 H   0  0  0  0  0  0  0  0  0  0  0  0
    0.6915   18.8041   43.5251 H   0  0  0  0  0  0  0  0  0  0  0  0
  1  2  1  0
  1 19  1  0
  1 20  2  0
  2  3  1  0
  2 16  2  0
  3  4  2  0
  4  5  1  0
  5 15  2  0
  5 17  1  0
  6 17  1  0
  6 18  2  0
  6 22  1  0
  7  8  1  0
  7 14  2  0
  7 18  1  0
  8  9  1  0
  8 13  2  0
  9 10  2  0
 10 11  1  0
 11 12  2  0
 11 23  1  0
 12 13  1  0
 14 22  1  0
 15 16  1  0
 16 21  1  0
  3 24  1  0
  4 25  1  0
  9 26  1  0
 10 27  1  0
 12 28  1  0
 13 29  1  0
 14 30  1  0
 15 31  1  0
 17 32  1  0
M  CHG  2  19  -1  21  -1
M  END
>  <mol_id>  (43) 
2026-08-23-6tgu-s0-n100-r2-0043

>  <rmsd_to_ref>  (43) 
2.3826530612298034

$$$$
6tgu.A
     RDKit          3D

 32 34  0  0  0  0  0  0  0  0999 V2000
    4.0575   19.3040   36.2314 C   0  0  0  0  0  0  0  0  0  0  0  0
    3.1506   19.1856   37.3641 C   0  0  0  0  0  0  0  0  0  0  0  0
    2.5706   17.9505   37.6756 C   0  0  0  0  0  0  0  0  0  0  0  0
    1.7229   17.8333   38.7566 C   0  0  0  0  0  0  0  0  0  0  0  0
    1.4291   18.9208   39.5491 C   0  0  0  0  0  0  0  0  0  0  0  0
    0.7333   17.6632   41.4865 C   0  0  0  0  0  0  0  0  0  0  0  0
    0.8609   15.7210   42.6828 C   0  0  0  0  0  0  0  0  0  0  0  0
    0.2498   14.4423   43.0954 C   0  0  0  0  0  0  0  0  0  0  0  0
   -0.9842   14.0309   42.6660 C   0  0  0  0  0  0  0  0  0  0  0  0
   -1.5967   12.8556   43.0102 C   0  0  0  0  0  0  0  0  0  0  0  0
   -0.9126   12.0093   43.8669 C   0  0  0  0  0  0  0  0  0  0  0  0
    0.3218   12.4153   44.3015 C   0  0  0  0  0  0  0  0  0  0  0  0
    0.9342   13.5824   43.9624 C   0  0  0  0  0  0  0  0  0  0  0  0
    2.0998   16.1069   43.1774 C   0  0  0  0  0  0  0  0  0  0  0  0
    1.9830   20.1411   39.2634 C   0  0  0  0  0  0  0  0  0  0  0  0
    2.8279   20.2432   38.1814 C   0  0  0  0  0  0  0  0  0  0  0  0
    0.6104   18.8120   40.7244 N   0  0  0  0  0  0  0  0  0  0  0  0
    0.2902   16.5596   41.8686 N   0  0  0  0  0  0  0  0  0  0  0  0
    4.6190   20.5728   36.0108 O   0  0  0  0  0  0  0  0  0  0  0  0
    4.3498   18.3524   35.4732 O   0  0  0  0  0  0  0  0  0  0  0  0
    3.4092   21.4747   37.8654 O   0  0  0  0  0  0  0  0  0  0  0  0
    2.4136   17.7086   42.4349 S   0  0  0  0  0  0  0  0  0  0  0  0
   -1.5721   10.4763   44.4086 Cl  0  0  0  0  0  0  0  0  0  0  0  0
    2.7805   17.0743   37.0802 H   0  0  0  0  0  0  0  0  0  0  0  0
    1.2899   16.8752   38.9779 H   0  0  0  0  0  0  0  0  0  0  0  0
   -1.5583   14.6801   41.9883 H   0  0  0  0  0  0  0  0  0  0  0  0
   -2.5564   12.5851   42.6405 H   0  0  0  0  0  0  0  0  0  0  0  0
    0.8625   11.7388   44.9801 H   0  0  0  0  0  0  0  0  0  0  0  0
    1.9315   13.8445   44.3461 H   0  0  0  0  0  0  0  0  0  0  0  0
    2.8049   15.5759   43.8970 H   0  0  0  0  0  0  0  0  0  0  0  0
    1.7398   20.9917   39.8902 H   0  0  0  0  0  0  0  0  0  0  0  0
   -0.0431   19.6232   40.9411 H   0  0  0  0  0  0  0  0  0  0  0  0
  1  2  1  0
  1 19  1  0
  1 20  2  0
  2  3  1  0
  2 16  2  0
  3  4  2  0
  4  5  1  0
  5 15  2  0
  5 17  1  0
  6 17  1  0
  6 18  2  0
  6 22  1  0
  7  8  1  0
  7 14  2  0
  7 18  1  0
  8  9  1  0
  8 13  2  0
  9 10  2  0
 10 11  1  0
 11 12  2  0
 11 23  1  0
 12 13  1  0
 14 22  1  0
 15 16  1  0
 16 21  1  0
  3 24  1  0
  4 25  1  0
  9 26  1  0
 10 27  1  0
 12 28  1  0
 13 29  1  0
 14 30  1  0
 15 31  1  0
 17 32  1  0
M  CHG  2  19  -1  21  -1
M  END
>  <mol_id>  (44) 
2026-08-23-6tgu-s0-n100-r2-0044

>  <rmsd_to_ref>  (44) 
2.4285714285714595

$$$$
6tgu.A
     RDKit          3D

 32 34  0  0  0  0  0  0  0  0999 V2000
    5.1281   18.0793   37.0889 C   0  0  0  0  0  0  0  0  0  0  0  0
    4.1416   18.6212   38.1272 C   0  0  0  0  0  0  0  0  0  0  0  0
    3.4896   19.8343   37.9176 C   0  0  0  0  0  0  0  0  0  0  0  0
    2.4476   20.2689   38.7432 C   0  0  0  0  0  0  0  0  0  0  0  0
    2.1439   19.5701   39.9206 C   0  0  0  0  0  0  0  0  0  0  0  0
    0.2755   19.2474   41.6142 C   0  0  0  0  0  0  0  0  0  0  0  0
   -0.3704   17.4720   42.8816 C   0  0  0  0  0  0  0  0  0  0  0  0
   -0.2304   16.1387   43.4680 C   0  0  0  0  0  0  0  0  0  0  0  0
   -1.2522   15.5489   44.2258 C   0  0  0  0  0  0  0  0  0  0  0  0
   -1.1112   14.2661   44.7460 C   0  0  0  0  0  0  0  0  0  0  0  0
    0.0430   13.5597   44.4650 C   0  0  0  0  0  0  0  0  0  0  0  0
    1.0758   14.1023   43.7154 C   0  0  0  0  0  0  0  0  0  0  0  0
    0.9206   15.3914   43.2132 C   0  0  0  0  0  0  0  0  0  0  0  0
   -1.4807   18.2606   43.0291 C   0  0  0  0  0  0  0  0  0  0  0  0
    2.7831   18.3417   40.1410 C   0  0  0  0  0  0  0  0  0  0  0  0
    3.7645   17.8982   39.2526 C   0  0  0  0  0  0  0  0  0  0  0  0
    1.0421   19.9636   40.7406 N   0  0  0  0  0  0  0  0  0  0  0  0
    0.6185   17.9690   42.0001 N   0  0  0  0  0  0  0  0  0  0  0  0
    5.1832   18.6975   35.9854 O   0  0  0  0  0  0  0  0  0  0  0  0
    5.7381   17.0276   37.3814 O   0  0  0  0  0  0  0  0  0  0  0  0
    4.3090   16.6472   39.4202 O   0  0  0  0  0  0  0  0  0  0  0  0
   -1.3694   19.6719   42.0473 S   0  0  0  0  0  0  0  0  0  0  0  0
    0.2153   11.9460   45.0717 Cl  0  0  0  0  0  0  0  0  0  0  0  0
    3.8039   20.4700   37.0767 H   0  0  0  0  0  0  0  0  0  0  0  0
    1.8651   21.1607   38.4685 H   0  0  0  0  0  0  0  0  0  0  0  0
   -2.1801   16.1094   44.4120 H   0  0  0  0  0  0  0  0  0  0  0  0
   -1.9026   13.8231   45.3684 H   0  0  0  0  0  0  0  0  0  0  0  0
    1.9944   13.5287   43.5224 H   0  0  0  0  0  0  0  0  0  0  0  0
    1.7228   15.8308   42.6021 H   0  0  0  0  0  0  0  0  0  0  0  0
   -2.3302   18.0243   43.6868 H   0  0  0  0  0  0  0  0  0  0  0  0
    2.5116   17.7282   41.0127 H   0  0  0  0  0  0  0  0  0  0  0  0
    0.7819   20.9568   40.6588 H   0  0  0  0  0  0  0  0  0  0  0  0
  1  2  1  0
  1 19  1  0
  1 20  2  0
  2  3  1  0
  2 16  2  0
  3  4  2  0
  4  5  1  0
  5 15  2  0
  5 17  1  0
  6 17  1  0
  6 18  2  0
  6 22  1  0
  7  8  1  0
  7 14  2  0
  7 18  1  0
  8  9  1  0
  8 13  2  0
  9 10  2  0
 10 11  1  0
 11 12  2  0
 11 23  1  0
 12 13  1  0
 14 22  1  0
 15 16  1  0
 16 21  1  0
  3 24  1  0
  4 25  1  0
  9 26  1  0
 10 27  1  0
 12 28  1  0
 13 29  1  0
 14 30  1  0
 15 31  1  0
 17 32  1  0
M  CHG  2  19  -1  21  -1
M  END
>  <mol_id>  (45) 
2026-08-23-6tgu-s0-n100-r2-0045

>  <rmsd_to_ref>  (45) 
2.4744897959275254

$$$$
6tgu.A
     RDKit          3D

 32 34  0  0  0  0  0  0  0  0999 V2000
    1.1102   21.4845   38.5544 C   0  0  0  0  0  0  0  0  0  0  0  0
    0.9238   20.4293   39.5491 C   0  0  0  0  0  0  0  0  0  0  0  0
    0.1578   20.6473   40.6853 C   0  0  0  0  0  0  0  0  0  0  0  0
   -0.0336   19.6713   41.6370 C   0  0  0  0  0  0  0  0  0  0  0  0
    0.5546   18.4035   41.4775 C   0  0  0  0  0  0  0  0  0  0  0  0
    0.5538   16.0572   42.3576 C   0  0  0  0  0  0  0  0  0  0  0  0
    1.3374   13.9210   42.2153 C   0  0  0  0  0  0  0  0  0  0  0  0
    2.4887   12.9762   42.1544 C   0  0  0  0  0  0  0  0  0  0  0  0
    2.2719   11.6081   42.0525 C   0  0  0  0  0  0  0  0  0  0  0  0
    3.3501   10.7413   41.9798 C   0  0  0  0  0  0  0  0  0  0  0  0
    4.6425   11.2215   42.0088 C   0  0  0  0  0  0  0  0  0  0  0  0
    4.8437   12.5690   42.1114 C   0  0  0  0  0  0  0  0  0  0  0  0
    3.7930   13.4567   42.1842 C   0  0  0  0  0  0  0  0  0  0  0  0
    0.0405   13.4085   42.1430 C   0  0  0  0  0  0  0  0  0  0  0  0
    1.3216   18.1840   40.3414 C   0  0  0  0  0  0  0  0  0  0  0  0
    1.5049   19.1702   39.3973 C   0  0  0  0  0  0  0  0  0  0  0  0
    0.3468   17.4309   42.4812 N   0  0  0  0  0  0  0  0  0  0  0  0
    1.4678   15.1881   42.3157 N   0  0  0  0  0  0  0  0  0  0  0  0
    1.8926   21.2130   37.4380 O   0  0  0  0  0  0  0  0  0  0  0  0
    0.5541   22.6103   38.7413 O   0  0  0  0  0  0  0  0  0  0  0  0
    2.2631   18.9392   38.2860 O   0  0  0  0  0  0  0  0  0  0  0  0
   -1.0011   14.9713   42.2343 S   0  0  0  0  0  0  0  0  0  0  0  0
    5.9331   10.0413   41.9100 Cl  0  0  0  0  0  0  0  0  0  0  0  0
   -0.3366   21.6101   40.8814 H   0  0  0  0  0  0  0  0  0  0  0  0
   -0.6409   19.8611   42.5284 H   0  0  0  0  0  0  0  0  0  0  0  0
    1.2546   11.2030   42.0256 H   0  0  0  0  0  0  0  0  0  0  0  0
    3.1023    9.6837   41.9019 H   0  0  0  0  0  0  0  0  0  0  0  0
    5.8574   12.9414   42.1342 H   0  0  0  0  0  0  0  0  0  0  0  0
    3.9526   14.5160   42.2615 H   0  0  0  0  0  0  0  0  0  0  0  0
   -0.3671   12.4772   42.0606 H   0  0  0  0  0  0  0  0  0  0  0  0
    1.7972   17.2020   40.1916 H   0  0  0  0  0  0  0  0  0  0  0  0
   -0.0018   17.7758   43.4273 H   0  0  0  0  0  0  0  0  0  0  0  0
  1  2  1  0
  1 19  1  0
  1 20  2  0
  2  3  1  0
  2 16  2  0
  3  4  2  0
  4  5  1  0
  5 15  2  0
  5 17  1  0
  6 17  1  0
  6 18  2  0
  6 22  1  0
  7  8  1  0
  7 14  2  0
  7 18  1  0
  8  9  1  0
  8 13  2  0
  9 10  2  0
 10 11  1  0
 11 12  2  0
 11 23  1  0
 12 13  1  0
 14 22  1  0
 15 16  1  0
 16 21  1  0
  3 24  1  0
  4 25  1  0
  9 26  1  0
 10 27  1  0
 12 28  1  0
 13 29  1  0
 14 30  1  0
 15 31  1  0
 17 32  1  0
M  CHG  2  19  -1  21  -1
M  END
>  <mol_id>  (46) 
2026-08-23-6tgu-s0-n100-r2-0046

>  <rmsd_to_ref>  (46) 
2.520408163268866

$$$$
6tgu.A
     RDKit          3D

 32 34  0  0  0  0  0  0  0  0999 V2000
    5.6392   19.3733   39.5544 C   0  0  0  0  0  0  0  0  0  0  0  0
    4.2638   19.0988   40.1688 C   0  0  0  0  0  0  0  0  0  0  0  0
    3.3834   20.1466   40.4288 C   0  0  0  0  0  0  0  0  0  0  0  0
    2.0560   19.9234   40.8090 C   0  0  0  0  0  0  0  0  0  0  0  0
    1.6189   18.6256   41.1114 C   0  0  0  0  0  0  0  0  0  0  0  0
   -0.5033   17.2413   41.3189 C   0  0  0  0  0  0  0  0  0  0  0  0
   -0.9604   15.0472   40.9281 C   0  0  0  0  0  0  0  0  0  0  0  0
   -0.6249   13.6513   40.6454 C   0  0  0  0  0  0  0  0  0  0  0  0
   -1.6110   12.6835   40.4063 C   0  0  0  0  0  0  0  0  0  0  0  0
   -1.2688   11.3687   40.1062 C   0  0  0  0  0  0  0  0  0  0  0  0
    0.0695   11.0386   40.0034 C   0  0  0  0  0  0  0  0  0  0  0  0
    1.0768   11.9652   40.2262 C   0  0  0  0  0  0  0  0  0  0  0  0
    0.7142   13.2730   40.5366 C   0  0  0  0  0  0  0  0  0  0  0  0
   -2.2413   15.5270   41.0023 C   0  0  0  0  0  0  0  0  0  0  0  0
    2.4889   17.5587   40.8448 C   0  0  0  0  0  0  0  0  0  0  0  0
    3.7838   17.8134   40.3894 C   0  0  0  0  0  0  0  0  0  0  0  0
    0.2514   18.3726   41.4387 N   0  0  0  0  0  0  0  0  0  0  0  0
    0.0621   16.0216   41.0134 N   0  0  0  0  0  0  0  0  0  0  0  0
    5.8525   20.5546   39.1517 O   0  0  0  0  0  0  0  0  0  0  0  0
    6.4082   18.3956   39.4261 O   0  0  0  0  0  0  0  0  0  0  0  0
    4.5915   16.7598   40.0323 O   0  0  0  0  0  0  0  0  0  0  0  0
   -2.2491   17.2426   41.1586 S   0  0  0  0  0  0  0  0  0  0  0  0
    0.5104    9.4149   39.5902 Cl  0  0  0  0  0  0  0  0  0  0  0  0
    3.7433   21.1816   40.3320 H   0  0  0  0  0  0  0  0  0  0  0  0
    1.3535   20.7676   40.8710 H   0  0  0  0  0  0  0  0  0  0  0  0
   -2.6722   12.9684   40.4569 H   0  0  0  0  0  0  0  0  0  0  0  0
   -2.0477   10.6071   39.9538 H   0  0  0  0  0  0  0  0  0  0  0  0
    2.1356   11.6743   40.1595 H   0  0  0  0  0  0  0  0  0  0  0  0
    1.5004   14.0249   40.6995 H   0  0  0  0  0  0  0  0  0  0  0  0
   -3.1446   14.9003   40.9669 H   0  0  0  0  0  0  0  0  0  0  0  0
    2.1515   16.5225   40.9943 H   0  0  0  0  0  0  0  0  0  0  0  0
   -0.2505   19.1814   41.8322 H   0  0  0  0  0  0  0  0  0  0  0  0
  1  2  1  0
  1 19  1  0
  1 20  2  0
  2  3  1  0
  2 16  2  0
  3  4  2  0
  4  5  1  0
  5 15  2  0
  5 17  1  0
  6 17  1  0
  6 18  2  0
  6 22  1  0
  7  8  1  0
  7 14  2  0
  7 18  1  0
  8  9  1  0
  8 13  2  0
  9 10  2  0
 10 11  1  0
 11 12  2  0
 11 23  1  0
 12 13  1  0
 14 22  1  0
 15 16  1  0
 16 21  1  0
  3 24  1  0
  4 25  1  0
  9 26  1  0
 10 27  1  0
 12 28  1  0
 13 29  1  0
 14 30  1  0
 15 31  1  0
 17 32  1  0
M  CHG  2  19  -1  21  -1
M  END
>  <mol_id>  (47) 
2026-08-23-6tgu-s0-n100-r2-0047

>  <rmsd_to_ref>  (47) 
2.5663265306123004

$$$$
6tgu.A
     RDKit          3D

 32 34  0  0  0  0  0  0  0  0999 V2000
    1.2311   21.8949   36.9092 C   0  0  0  0  0  0  0  0  0  0  0  0
    1.5734   20.8071   37.7974 C   0  0  0  0  0  0  0  0  0  0  0  0
    2.8121   20.6835   38.3892 C   0  0  0  0  0  0  0  0  0  0  0  0
    3.1293   19.6469   39.2324 C   0  0  0  0  0  0  0  0  0  0  0  0
    2.1866   18.6482   39.5343 C   0  0  0  0  0  0  0  0  0  0  0  0
    1.6456   16.8172   41.1055 C   0  0  0  0  0  0  0  0  0  0  0  0
    1.1694   15.0945   42.5587 C   0  0  0  0  0  0  0  0  0  0  0  0
    1.5274   13.9563   43.4808 C   0  0  0  0  0  0  0  0  0  0  0  0
    0.5379   13.2604   44.1159 C   0  0  0  0  0  0  0  0  0  0  0  0
    0.9274   12.2266   44.9507 C   0  0  0  0  0  0  0  0  0  0  0  0
    2.2394   11.8768   45.1641 C   0  0  0  0  0  0  0  0  0  0  0  0
    3.2311   12.5851   44.5185 C   0  0  0  0  0  0  0  0  0  0  0  0
    2.8395   13.6070   43.6939 C   0  0  0  0  0  0  0  0  0  0  0  0
   -0.1633   15.3964   42.3888 C   0  0  0  0  0  0  0  0  0  0  0  0
    0.9652   18.7922   38.9347 C   0  0  0  0  0  0  0  0  0  0  0  0
    0.6412   19.8375   38.0830 C   0  0  0  0  0  0  0  0  0  0  0  0
    2.6012   17.6399   40.3857 N   0  0  0  0  0  0  0  0  0  0  0  0
    2.0902   15.7525   41.9592 N   0  0  0  0  0  0  0  0  0  0  0  0
    2.0988   22.9055   36.5695 O   0  0  0  0  0  0  0  0  0  0  0  0
    0.0740   21.9225   36.4167 O   0  0  0  0  0  0  0  0  0  0  0  0
   -0.6299   19.9167   37.5083 O   0  0  0  0  0  0  0  0  0  0  0  0
   -0.0470   16.8222   41.2029 S   0  0  0  0  0  0  0  0  0  0  0  0
    2.5890   10.5424   46.2509 Cl  0  0  0  0  0  0  0  0  0  0  0  0
    3.5336   21.4755   38.1394 H   0  0  0  0  0  0  0  0  0  0  0  0
    4.1231   19.6346   39.6473 H   0  0  0  0  0  0  0  0  0  0  0  0
   -0.5039   13.4769   43.9974 H   0  0  0  0  0  0  0  0  0  0  0  0
    0.1361   11.6861   45.4449 H   0  0  0  0  0  0  0  0  0  0  0  0
    4.2689   12.3164   44.6808 H   0  0  0  0  0  0  0  0  0  0  0  0
    3.6306   14.1585   43.1904 H   0  0  0  0  0  0  0  0  0  0  0  0
   -1.0208   15.0112   42.7587 H   0  0  0  0  0  0  0  0  0  0  0  0
    0.1894   18.0673   39.1046 H   0  0  0  0  0  0  0  0  0  0  0  0
    3.6066   17.4412   40.5339 H   0  0  0  0  0  0  0  0  0  0  0  0
  1  2  1  0
  1 19  1  0
  1 20  2  0
  2  3  1  0
  2 16  2  0
  3  4  2  0
  4  5  1  0
  5 15  2  0
  5 17  1  0
  6 17  1  0
  6 18  2  0
  6 22  1  0
  7  8  1  0
  7 14  2  0
  7 18  1  0
  8  9  1  0
  8 13  2  0
  9 10  2  0
 10 11  1  0
 11 12  2  0
 11 23  1  0
 12 13  1  0
 14 22  1  0
 15 16  1  0
 16 21  1  0
  3 24  1  0
  4 25  1  0
  9 26  1  0
 10 27  1  0
 12 28  1  0
 13 29  1  0
 14 30  1  0
 15 31  1  0
 17 32  1  0
M  CHG  2  19  -1  21  -1
M  END
>  <mol_id>  (48) 
2026-08-23-6tgu-s0-n100-r2-0048

>  <rmsd_to_ref>  (48) 
2.612244897960216

$$$$
6tgu.A
     RDKit          3D

 32 34  0  0  0  0  0  0  0  0999 V2000
    3.8505   17.9960   36.8605 C   0  0  0  0  0  0  0  0  0  0  0  0
    3.5211   18.0522   38.3548 C   0  0  0  0  0  0  0  0  0  0  0  0
    3.8479   19.1767   39.1093 C   0  0  0  0  0  0  0  0  0  0  0  0
    3.3980   19.3453   40.4229 C   0  0  0  0  0  0  0  0  0  0  0  0
    2.7435   18.2953   41.0832 C   0  0  0  0  0  0  0  0  0  0  0  0
    1.2028   17.8406   43.0537 C   0  0  0  0  0  0  0  0  0  0  0  0
   -0.4258   16.2939   43.4159 C   0  0  0  0  0  0  0  0  0  0  0  0
   -1.1992   15.0870   43.1222 C   0  0  0  0  0  0  0  0  0  0  0  0
   -2.3255   14.7245   43.8747 C   0  0  0  0  0  0  0  0  0  0  0  0
   -3.0665   13.5904   43.5571 C   0  0  0  0  0  0  0  0  0  0  0  0
   -2.6979   12.8451   42.4530 C   0  0  0  0  0  0  0  0  0  0  0  0
   -1.5950   13.1707   41.6781 C   0  0  0  0  0  0  0  0  0  0  0  0
   -0.8597   14.3027   42.0187 C   0  0  0  0  0  0  0  0  0  0  0  0
   -0.7110   17.1554   44.4420 C   0  0  0  0  0  0  0  0  0  0  0  0
    2.3972   17.1610   40.3351 C   0  0  0  0  0  0  0  0  0  0  0  0
    2.7942   17.0592   39.0006 C   0  0  0  0  0  0  0  0  0  0  0  0
    2.2216   18.4732   42.4012 N   0  0  0  0  0  0  0  0  0  0  0  0
    0.6096   16.7053   42.5436 N   0  0  0  0  0  0  0  0  0  0  0  0
    4.2696   19.0684   36.3336 O   0  0  0  0  0  0  0  0  0  0  0  0
    3.6040   16.9241   36.2656 O   0  0  0  0  0  0  0  0  0  0  0  0
    2.3610   15.9932   38.2485 O   0  0  0  0  0  0  0  0  0  0  0  0
    0.2871   18.5574   44.3655 S   0  0  0  0  0  0  0  0  0  0  0  0
   -3.6353   11.4535   42.0212 Cl  0  0  0  0  0  0  0  0  0  0  0  0
    4.4793   19.9563   38.6580 H   0  0  0  0  0  0  0  0  0  0  0  0
    3.5580   20.3033   40.9392 H   0  0  0  0  0  0  0  0  0  0  0  0
   -2.6281   15.3467   44.7298 H   0  0  0  0  0  0  0  0  0  0  0  0
   -3.9283   13.2929   44.1725 H   0  0  0  0  0  0  0  0  0  0  0  0
   -1.3084   12.5503   40.8161 H   0  0  0  0  0  0  0  0  0  0  0  0
    0.0081   14.5852   41.4046 H   0  0  0  0  0  0  0  0  0  0  0  0
   -1.4756   16.9759   45.2122 H   0  0  0  0  0  0  0  0  0  0  0  0
    1.8135   16.3524   40.7993 H   0  0  0  0  0  0  0  0  0  0  0  0
    2.6945   19.2029   42.9532 H   0  0  0  0  0  0  0  0  0  0  0  0
  1  2  1  0
  1 19  1  0
  1 20  2  0
  2  3  1  0
  2 16  2  0
  3  4  2  0
  4  5  1  0
  5 15  2  0
  5 17  1  0
  6 17  1  0
  6 18  2  0
  6 22  1  0
  7  8  1  0
  7 14  2  0
  7 18  1  0
  8  9  1  0
  8 13  2  0
  9 10  2  0
 10 11  1  0
 11 12  2  0
 11 23  1  0
 12 13  1  0
 14 22  1  0
 15 16  1  0
 16 21  1  0
  3 24  1  0
  4 25  1  0
  9 26  1  0
 10 27  1  0
 12 28  1  0
 13 29  1  0
 14 30  1  0
 15 31  1  0
 17 32  1  0
M  CHG  2  19  -1  21  -1
M  END
>  <mol_id>  (49) 
2026-08-23-6tgu-s0-n100-r2-0049

>  <rmsd_to_ref>  (49) 
2.658163265311238

$$$$
6tgu.A
     RDKit          3D

 32 34  0  0  0  0  0  0  0  0999 V2000
    4.4277   22.5905   38.5109 C   0  0  0  0  0  0  0  0  0  0  0  0
    3.6574   21.5429   39.1608 C   0  0  0  0  0  0  0  0  0  0  0  0
    2.8811   21.7689   40.2773 C   0  0  0  0  0  0  0  0  0  0  0  0
    2.1648   20.7612   40.8681 C   0  0  0  0  0  0  0  0  0  0  0  0
    2.1787   19.4485   40.3752 C   0  0  0  0  0  0  0  0  0  0  0  0
    1.5882   17.1020   41.0630 C   0  0  0  0  0  0  0  0  0  0  0  0
    1.3865   14.8889   41.4308 C   0  0  0  0  0  0  0  0  0  0  0  0
    0.5633   13.8042   42.0280 C   0  0  0  0  0  0  0  0  0  0  0  0
   -0.6177   14.0472   42.6817 C   0  0  0  0  0  0  0  0  0  0  0  0
   -1.3742   13.0309   43.2324 C   0  0  0  0  0  0  0  0  0  0  0  0
   -0.9198   11.7358   43.1161 C   0  0  0  0  0  0  0  0  0  0  0  0
    0.2667   11.4394   42.4652 C   0  0  0  0  0  0  0  0  0  0  0  0
    0.9761   12.4927   41.9375 C   0  0  0  0  0  0  0  0  0  0  0  0
    2.5508   14.6212   40.7879 C   0  0  0  0  0  0  0  0  0  0  0  0
    2.9557   19.2441   39.2642 C   0  0  0  0  0  0  0  0  0  0  0  0
    3.6893   20.2663   38.6564 C   0  0  0  0  0  0  0  0  0  0  0  0
    1.3999   18.4943   41.0389 N   0  0  0  0  0  0  0  0  0  0  0  0
    1.0437   16.1475   41.4862 N   0  0  0  0  0  0  0  0  0  0  0  0
    4.4476   23.8946   38.9658 O   0  0  0  0  0  0  0  0  0  0  0  0
    5.0978   22.2580   37.4876 O   0  0  0  0  0  0  0  0  0  0  0  0
    4.4613   19.9678   37.5185 O   0  0  0  0  0  0  0  0  0  0  0  0
    3.1110   16.3219   40.2711 S   0  0  0  0  0  0  0  0  0  0  0  0
   -1.8556   10.4240   43.8059 Cl  0  0  0  0  0  0  0  0  0  0  0  0
    2.8594   22.7790   40.6704 H   0  0  0  0  0  0  0  0  0  0  0  0
    1.5597   20.9929   41.7584 H   0  0  0  0  0  0  0  0  0  0  0  0
   -0.9695   15.0821   42.7685 H   0  0  0  0  0  0  0  0  0  0  0  0
   -2.3036   13.2190   43.7462 H   0  0  0  0  0  0  0  0  0  0  0  0
    0.6388   10.4270   42.3639 H   0  0  0  0  0  0  0  0  0  0  0  0
    1.9140   12.2371   41.4256 H   0  0  0  0  0  0  0  0  0  0  0  0
    3.1176   13.7561   40.5586 H   0  0  0  0  0  0  0  0  0  0  0  0
    3.0213   18.2873   38.8098 H   0  0  0  0  0  0  0  0  0  0  0  0
    0.5603   18.8430   41.5952 H   0  0  0  0  0  0  0  0  0  0  0  0
  1  2  1  0
  1 19  1  0
  1 20  2  0
  2  3  1  0
  2 16  2  0
  3  4  2  0
  4  5  1  0
  5 15  2  0
  5 17  1  0
  6 17  1  0
  6 18  2  0
  6 22  1  0
  7  8  1  0
  7 14  2  0
  7 18  1  0
  8  9  1  0
  8 13  2  0
  9 10  2  0
 10 11  1  0
 11 12  2  0
 11 23  1  0
 12 13  1  0
 14 22  1  0
 15 16  1  0
 16 21  1  0
  3 24  1  0
  4 25  1  0
  9 26  1  0
 10 27  1  0
 12 28  1  0
 13 29  1  0
 14 30  1  0
 15 31  1  0
 17 32  1  0
M  CHG  2  19  -1  21  -1
M  END
>  <mol_id>  (50) 
2026-08-23-6tgu-s0-n100-r2-0050

>  <rmsd_to_ref>  (50) 
2.70408163265409

$$$$
6tgu.A
     RDKit          3D

 32 34  0  0  0  0  0  0  0  0999 V2000
    2.6756   20.8105   38.2134 C   0  0  0  0  0  0  0  0  0  0  0  0
    1.8838   19.9250   39.1796 C   0  0  0  0  0  0  0  0  0  0  0  0
    0.4978   19.8293   39.0769 C   0  0  0  0  0  0  0  0  0  0  0  0
   -0.2377   18.8928   39.8107 C   0  0  0  0  0  0  0  0  0  0  0  0
    0.3875   18.1337   40.8106 C   0  0  0  0  0  0  0  0  0  0  0  0
    0.0943   15.9998   42.1611 C   0  0  0  0  0  0  0  0  0  0  0  0
    1.5745   14.5081   43.0326 C   0  0  0  0  0  0  0  0  0  0  0  0
    2.9012   14.0235   43.4150 C   0  0  0  0  0  0  0  0  0  0  0  0
    3.1028   12.7325   43.9237 C   0  0  0  0  0  0  0  0  0  0  0  0
    4.3776   12.2801   44.2495 C   0  0  0  0  0  0  0  0  0  0  0  0
    5.4558   13.1141   44.0208 C   0  0  0  0  0  0  0  0  0  0  0  0
    5.3025   14.3958   43.5141 C   0  0  0  0  0  0  0  0  0  0  0  0
    4.0178   14.8342   43.2051 C   0  0  0  0  0  0  0  0  0  0  0  0
    0.4266   13.7700   43.1497 C   0  0  0  0  0  0  0  0  0  0  0  0
    1.7833   18.2100   40.9197 C   0  0  0  0  0  0  0  0  0  0  0  0
    2.4970   19.1000   40.1148 C   0  0  0  0  0  0  0  0  0  0  0  0
   -0.3347   17.1286   41.5243 N   0  0  0  0  0  0  0  0  0  0  0  0
    1.4332   15.7576   42.3838 N   0  0  0  0  0  0  0  0  0  0  0  0
    2.0319   21.2999   37.2391 O   0  0  0  0  0  0  0  0  0  0  0  0
    3.9051   20.9134   38.4169 O   0  0  0  0  0  0  0  0  0  0  0  0
    3.8710   19.0917   40.1558 O   0  0  0  0  0  0  0  0  0  0  0  0
   -0.9076   14.5860   42.4272 S   0  0  0  0  0  0  0  0  0  0  0  0
    7.0531   12.5494   44.3832 Cl  0  0  0  0  0  0  0  0  0  0  0  0
   -0.0347   20.5113   38.3976 H   0  0  0  0  0  0  0  0  0  0  0  0
   -1.3086   18.7514   39.6032 H   0  0  0  0  0  0  0  0  0  0  0  0
    2.2391   12.0666   44.0676 H   0  0  0  0  0  0  0  0  0  0  0  0
    4.5244   11.2787   44.6804 H   0  0  0  0  0  0  0  0  0  0  0  0
    6.1737   15.0494   43.3603 H   0  0  0  0  0  0  0  0  0  0  0  0
    3.8796   15.8419   42.7862 H   0  0  0  0  0  0  0  0  0  0  0  0
    0.3648   12.7871   43.6397 H   0  0  0  0  0  0  0  0  0  0  0  0
    2.3154   17.5695   41.6385 H   0  0  0  0  0  0  0  0  0  0  0  0
   -1.3525   17.2817   41.5654 H   0  0  0  0  0  0  0  0  0  0  0  0
  1  2  1  0
  1 19  1  0
  1 20  2  0
  2  3  1  0
  2 16  2  0
  3  4  2  0
  4  5  1  0
  5 15  2  0
  5 17  1  0
  6 17  1  0
  6 18  2  0
  6 22  1  0
  7  8  1  0
  7 14  2  0
  7 18  1  0
  8  9  1  0
  8 13  2  0
  9 10  2  0
 10 11  1  0
 11 12  2  0
 11 23  1  0
 12 13  1  0
 14 22  1  0
 15 16  1  0
 16 21  1  0
  3 24  1  0
  4 25  1  0
  9 26  1  0
 10 27  1  0
 12 28  1  0
 13 29  1  0
 14 30  1  0
 15 31  1  0
 17 32  1  0
M  CHG  2  19  -1  21  -1
M  END
>  <mol_id>  (51) 
2026-08-23-6tgu-s0-n100-r2-0051

>  <rmsd_to_ref>  (51) 
2.7500000000042526

$$$$
6tgu.A
     RDKit          3D

 32 34  0  0  0  0  0  0  0  0999 V2000
    4.3994   21.9761   39.3721 C   0  0  0  0  0  0  0  0  0  0  0  0
    3.8280   20.6258   39.5622 C   0  0  0  0  0  0  0  0  0  0  0  0
    2.4938   20.4947   39.8944 C   0  0  0  0  0  0  0  0  0  0  0  0
    1.9695   19.2144   40.0742 C   0  0  0  0  0  0  0  0  0  0  0  0
    2.7084   18.0738   39.9394 C   0  0  0  0  0  0  0  0  0  0  0  0
    1.2043   16.3035   40.9240 C   0  0  0  0  0  0  0  0  0  0  0  0
   -0.3332   15.0828   41.9925 C   0  0  0  0  0  0  0  0  0  0  0  0
   -0.9157   13.7372   42.2230 C   0  0  0  0  0  0  0  0  0  0  0  0
   -1.9696   13.5781   43.0984 C   0  0  0  0  0  0  0  0  0  0  0  0
   -2.5613   12.3602   43.3660 C   0  0  0  0  0  0  0  0  0  0  0  0
   -2.0758   11.2366   42.7265 C   0  0  0  0  0  0  0  0  0  0  0  0
   -1.0251   11.4036   41.8553 C   0  0  0  0  0  0  0  0  0  0  0  0
   -0.4332   12.6144   41.5856 C   0  0  0  0  0  0  0  0  0  0  0  0
   -0.8080   16.1897   42.6280 C   0  0  0  0  0  0  0  0  0  0  0  0
    4.0584   18.2613   39.6003 C   0  0  0  0  0  0  0  0  0  0  0  0
    4.6019   19.5077   39.4170 C   0  0  0  0  0  0  0  0  0  0  0  0
    2.2813   16.7577   40.1243 N   0  0  0  0  0  0  0  0  0  0  0  0
    0.6662   15.3055   41.1795 N   0  0  0  0  0  0  0  0  0  0  0  0
    5.7414   22.1005   39.0439 O   0  0  0  0  0  0  0  0  0  0  0  0
    3.6926   22.9974   39.5032 O   0  0  0  0  0  0  0  0  0  0  0  0
    5.9555   19.6439   39.0793 O   0  0  0  0  0  0  0  0  0  0  0  0
    0.2434   17.5236   42.0001 S   0  0  0  0  0  0  0  0  0  0  0  0
   -2.7963    9.6719   43.0360 Cl  0  0  0  0  0  0  0  0  0  0  0  0
    1.8441   21.3609   40.0194 H   0  0  0  0  0  0  0  0  0  0  0  0
    0.9251   19.1693   40.3190 H   0  0  0  0  0  0  0  0  0  0  0  0
   -2.3816   14.4351   43.6225 H   0  0  0  0  0  0  0  0  0  0  0  0
   -3.3801   12.3109   44.0604 H   0  0  0  0  0  0  0  0  0  0  0  0
   -0.6220   10.5179   41.3340 H   0  0  0  0  0  0  0  0  0  0  0  0
    0.3898   12.6858   40.8922 H   0  0  0  0  0  0  0  0  0  0  0  0
   -1.6060   16.3336   43.3434 H   0  0  0  0  0  0  0  0  0  0  0  0
    4.7052   17.3956   39.4764 H   0  0  0  0  0  0  0  0  0  0  0  0
    2.8072   15.9824   39.6188 H   0  0  0  0  0  0  0  0  0  0  0  0
  1  2  1  0
  1 19  1  0
  1 20  2  0
  2  3  1  0
  2 16  2  0
  3  4  2  0
  4  5  1  0
  5 15  2  0
  5 17  1  0
  6 17  1  0
  6 18  2  0
  6 22  1  0
  7  8  1  0
  7 14  2  0
  7 18  1  0
  8  9  1  0
  8 13  2  0
  9 10  2  0
 10 11  1  0
 11 12  2  0
 11 23  1  0
 12 13  1  0
 14 22  1  0
 15 16  1  0
 16 21  1  0
  3 24  1  0
  4 25  1  0
  9 26  1  0
 10 27  1  0
 12 28  1  0
 13 29  1  0
 14 30  1  0
 15 31  1  0
 17 32  1  0
M  CHG  2  19  -1  21  -1
M  END
>  <mol_id>  (52) 
2026-08-23-6tgu-s0-n100-r2-0052

>  <rmsd_to_ref>  (52) 
2.7959183673495023

$$$$
6tgu.A
     RDKit          3D

 32 34  0  0  0  0  0  0  0  0999 V2000
    4.4127   20.8404   40.6467 C   0  0  0  0  0  0  0  0  0  0  0  0
    3.3858   19.9069   41.2937 C   0  0  0  0  0  0  0  0  0  0  0  0
    2.2828   20.4270   41.9672 C   0  0  0  0  0  0  0  0  0  0  0  0
    1.2302   19.6162   42.4043 C   0  0  0  0  0  0  0  0  0  0  0  0
    1.3393   18.2200   42.3300 C   0  0  0  0  0  0  0  0  0  0  0  0
   -0.0832   16.1129   42.3283 C   0  0  0  0  0  0  0  0  0  0  0  0
    0.1583   14.0874   41.3209 C   0  0  0  0  0  0  0  0  0  0  0  0
    0.8767   13.0517   40.5777 C   0  0  0  0  0  0  0  0  0  0  0  0
    0.2516   11.8687   40.1585 C   0  0  0  0  0  0  0  0  0  0  0  0
    0.9446   10.9119   39.4236 C   0  0  0  0  0  0  0  0  0  0  0  0
    2.2569   11.1674   39.0727 C   0  0  0  0  0  0  0  0  0  0  0  0
    2.9119   12.3264   39.4612 C   0  0  0  0  0  0  0  0  0  0  0  0
    2.2048   13.2664   40.2058 C   0  0  0  0  0  0  0  0  0  0  0  0
   -1.1588   13.9940   41.6855 C   0  0  0  0  0  0  0  0  0  0  0  0
    2.4378   17.6806   41.6455 C   0  0  0  0  0  0  0  0  0  0  0  0
    3.4333   18.5253   41.1512 C   0  0  0  0  0  0  0  0  0  0  0  0
    0.2485   17.3802   42.7124 N   0  0  0  0  0  0  0  0  0  0  0  0
    0.7803   15.3288   41.5932 N   0  0  0  0  0  0  0  0  0  0  0  0
    4.1165   22.0710   40.6148 O   0  0  0  0  0  0  0  0  0  0  0  0
    5.4193   20.3061   40.1319 O   0  0  0  0  0  0  0  0  0  0  0  0
    4.4501   17.9960   40.3925 O   0  0  0  0  0  0  0  0  0  0  0  0
   -1.7145   15.4725   42.3734 S   0  0  0  0  0  0  0  0  0  0  0  0
    3.1200   10.0036   38.1230 Cl  0  0  0  0  0  0  0  0  0  0  0  0
    2.2383   21.5089   42.1612 H   0  0  0  0  0  0  0  0  0  0  0  0
    0.3150   20.0746   42.8071 H   0  0  0  0  0  0  0  0  0  0  0  0
   -0.8038   11.6943   40.4148 H   0  0  0  0  0  0  0  0  0  0  0  0
    0.4579    9.9708   39.1277 H   0  0  0  0  0  0  0  0  0  0  0  0
    3.9634   12.4985   39.1880 H   0  0  0  0  0  0  0  0  0  0  0  0
    2.7038   14.1991   40.5078 H   0  0  0  0  0  0  0  0  0  0  0  0
   -1.7790   13.0948   41.5563 H   0  0  0  0  0  0  0  0  0  0  0  0
    2.5150   16.5932   41.4983 H   0  0  0  0  0  0  0  0  0  0  0  0
   -0.3977   17.8030   43.3940 H   0  0  0  0  0  0  0  0  0  0  0  0
  1  2  1  0
  1 19  1  0
  1 20  2  0
  2  3  1  0
  2 16  2  0
  3  4  2  0
  4  5  1  0
  5 15  2  0
  5 17  1  0
  6 17  1  0
  6 18  2  0
  6 22  1  0
  7  8  1  0
  7 14  2  0
  7 18  1  0
  8  9  1  0
  8 13  2  0
  9 10  2  0
 10 11  1  0
 11 12  2  0
 11 23  1  0
 12 13  1  0
 14 22  1  0
 15 16  1  0
 16 21  1  0
  3 24  1  0
  4 25  1  0
  9 26  1  0
 10 27  1  0
 12 28  1  0
 13 29  1  0
 14 30  1  0
 15 31  1  0
 17 32  1  0
M  CHG  2  19  -1  21  -1
M  END
>  <mol_id>  (53) 
2026-08-23-6tgu-s0-n100-r2-0053

>  <rmsd_to_ref>  (53) 
2.8418367347000295

$$$$
6tgu.A
     RDKit          3D

 32 34  0  0  0  0  0  0  0  0999 V2000
    3.0819   22.9636   39.4064 C   0  0  0  0  0  0  0  0  0  0  0  0
    2.6572   21.6480   39.8658 C   0  0  0  0  0  0  0  0  0  0  0  0
    1.5116   21.5403   40.6214 C   0  0  0  0  0  0  0  0  0  0  0  0
    1.0390   20.3217   41.0945 C   0  0  0  0  0  0  0  0  0  0  0  0
    1.7376   19.1438   40.8053 C   0  0  0  0  0  0  0  0  0  0  0  0
    1.4090   16.6584   40.7673 C   0  0  0  0  0  0  0  0  0  0  0  0
    1.3242   14.4131   40.4670 C   0  0  0  0  0  0  0  0  0  0  0  0
    0.9339   13.0570   40.9182 C   0  0  0  0  0  0  0  0  0  0  0  0
    0.2750   12.8942   42.1115 C   0  0  0  0  0  0  0  0  0  0  0  0
   -0.1046   11.6571   42.5683 C   0  0  0  0  0  0  0  0  0  0  0  0
    0.1742   10.5338   41.8215 C   0  0  0  0  0  0  0  0  0  0  0  0
    0.8469   10.7061   40.6037 C   0  0  0  0  0  0  0  0  0  0  0  0
    1.2230   11.9559   40.1567 C   0  0  0  0  0  0  0  0  0  0  0  0
    2.0177   14.5784   39.2174 C   0  0  0  0  0  0  0  0  0  0  0  0
    2.8765   19.2752   40.0517 C   0  0  0  0  0  0  0  0  0  0  0  0
    3.3418   20.4909   39.5831 C   0  0  0  0  0  0  0  0  0  0  0  0
    1.2241   17.9410   41.3200 N   0  0  0  0  0  0  0  0  0  0  0  0
    1.0976   15.4928   41.1054 N   0  0  0  0  0  0  0  0  0  0  0  0
    2.3673   24.0872   39.7127 O   0  0  0  0  0  0  0  0  0  0  0  0
    4.1465   23.0030   38.7106 O   0  0  0  0  0  0  0  0  0  0  0  0
    4.4986   20.5820   38.8231 O   0  0  0  0  0  0  0  0  0  0  0  0
    2.2495   16.3586   39.1519 S   0  0  0  0  0  0  0  0  0  0  0  0
   -0.2960    8.9210   42.3679 Cl  0  0  0  0  0  0  0  0  0  0  0  0
    0.9476   22.4128   40.8661 H   0  0  0  0  0  0  0  0  0  0  0  0
    0.1192   20.2653   41.6975 H   0  0  0  0  0  0  0  0  0  0  0  0
    0.0598   13.7791   42.6932 H   0  0  0  0  0  0  0  0  0  0  0  0
   -0.6220   11.5041   43.5034 H   0  0  0  0  0  0  0  0  0  0  0  0
    1.0789    9.8406   39.9969 H   0  0  0  0  0  0  0  0  0  0  0  0
    1.7356   12.0176   39.2133 H   0  0  0  0  0  0  0  0  0  0  0  0
    2.3067   13.8582   38.5352 H   0  0  0  0  0  0  0  0  0  0  0  0
    3.4706   18.4119   39.7984 H   0  0  0  0  0  0  0  0  0  0  0  0
    0.6449   17.9801   42.2010 H   0  0  0  0  0  0  0  0  0  0  0  0
  1  2  1  0
  1 19  1  0
  1 20  2  0
  2  3  1  0
  2 16  2  0
  3  4  2  0
  4  5  1  0
  5 15  2  0
  5 17  1  0
  6 17  1  0
  6 18  2  0
  6 22  1  0
  7  8  1  0
  7 14  2  0
  7 18  1  0
  8  9  1  0
  8 13  2  0
  9 10  2  0
 10 11  1  0
 11 12  2  0
 11 23  1  0
 12 13  1  0
 14 22  1  0
 15 16  1  0
 16 21  1  0
  3 24  1  0
  4 25  1  0
  9 26  1  0
 10 27  1  0
 12 28  1  0
 13 29  1  0
 14 30  1  0
 15 31  1  0
 17 32  1  0
M  CHG  2  19  -1  21  -1
M  END
>  <mol_id>  (54) 
2026-08-23-6tgu-s0-n100-r2-0054

>  <rmsd_to_ref>  (54) 
2.8877551020435464

$$$$
6tgu.A
     RDKit          3D

 32 34  0  0  0  0  0  0  0  0999 V2000
    0.1104   16.7989   35.8805 C   0  0  0  0  0  0  0  0  0  0  0  0
    0.6581   17.3086   37.2165 C   0  0  0  0  0  0  0  0  0  0  0  0
    0.4243   18.6205   37.6225 C   0  0  0  0  0  0  0  0  0  0  0  0
    0.7410   19.0664   38.9098 C   0  0  0  0  0  0  0  0  0  0  0  0
    1.4705   18.2437   39.7804 C   0  0  0  0  0  0  0  0  0  0  0  0
    1.9953   17.9331   42.2484 C   0  0  0  0  0  0  0  0  0  0  0  0
    2.4220   16.0934   43.5170 C   0  0  0  0  0  0  0  0  0  0  0  0
    2.7179   14.6789   43.7468 C   0  0  0  0  0  0  0  0  0  0  0  0
    2.7749   14.1314   45.0363 C   0  0  0  0  0  0  0  0  0  0  0  0
    3.0246   12.7765   45.2307 C   0  0  0  0  0  0  0  0  0  0  0  0
    3.1732   11.9639   44.1226 C   0  0  0  0  0  0  0  0  0  0  0  0
    3.1187   12.4624   42.8297 C   0  0  0  0  0  0  0  0  0  0  0  0
    2.8792   13.8228   42.6563 C   0  0  0  0  0  0  0  0  0  0  0  0
    2.1957   17.0008   44.5179 C   0  0  0  0  0  0  0  0  0  0  0  0
    1.7045   16.9170   39.3916 C   0  0  0  0  0  0  0  0  0  0  0  0
    1.3037   16.4809   38.1273 C   0  0  0  0  0  0  0  0  0  0  0  0
    1.7462   18.6589   41.1193 N   0  0  0  0  0  0  0  0  0  0  0  0
    2.2241   16.5743   42.2011 N   0  0  0  0  0  0  0  0  0  0  0  0
   -0.6875   17.5672   35.2670 O   0  0  0  0  0  0  0  0  0  0  0  0
    0.4293   15.6379   35.5429 O   0  0  0  0  0  0  0  0  0  0  0  0
    1.4437   15.1539   37.7969 O   0  0  0  0  0  0  0  0  0  0  0  0
    1.6919   18.5169   43.8734 S   0  0  0  0  0  0  0  0  0  0  0  0
    3.4439   10.2676   44.3484 Cl  0  0  0  0  0  0  0  0  0  0  0  0
   -0.0233   19.3276   36.9086 H   0  0  0  0  0  0  0  0  0  0  0  0
    0.4173   20.0645   39.2401 H   0  0  0  0  0  0  0  0  0  0  0  0
    2.6196   14.7836   45.9084 H   0  0  0  0  0  0  0  0  0  0  0  0
    3.1021   12.3603   46.2460 H   0  0  0  0  0  0  0  0  0  0  0  0
    3.2610   11.7999   41.9633 H   0  0  0  0  0  0  0  0  0  0  0  0
    2.8157   14.2321   41.6372 H   0  0  0  0  0  0  0  0  0  0  0  0
    2.3191   16.7895   45.5903 H   0  0  0  0  0  0  0  0  0  0  0  0
    2.2032   16.2206   40.0818 H   0  0  0  0  0  0  0  0  0  0  0  0
    1.7592   19.6797   41.2560 H   0  0  0  0  0  0  0  0  0  0  0  0
  1  2  1  0
  1 19  1  0
  1 20  2  0
  2  3  1  0
  2 16  2  0
  3  4  2  0
  4  5  1  0
  5 15  2  0
  5 17  1  0
  6 17  1  0
  6 18  2  0
  6 22  1  0
  7  8  1  0
  7 14  2  0
  7 18  1  0
  8  9  1  0
  8 13  2  0
  9 10  2  0
 10 11  1  0
 11 12  2  0
 11 23  1  0
 12 13  1  0
 14 22  1  0
 15 16  1  0
 16 21  1  0
  3 24  1  0
  4 25  1  0
  9 26  1  0
 10 27  1  0
 12 28  1  0
 13 29  1  0
 14 30  1  0
 15 31  1  0
 17 32  1  0
M  CHG  2  19  -1  21  -1
M  END
>  <mol_id>  (55) 
2026-08-23-6tgu-s0-n100-r2-0055

>  <rmsd_to_ref>  (55) 
2.933673469390371

$$$$
6tgu.A
     RDKit          3D

 32 34  0  0  0  0  0  0  0  0999 V2000
   -0.1073   22.6033   38.3526 C   0  0  0  0  0  0  0  0  0  0  0  0
    0.4163   21.3227   38.8101 C   0  0  0  0  0  0  0  0  0  0  0  0
    1.7223   21.2624   39.2391 C   0  0  0  0  0  0  0  0  0  0  0  0
    2.2673   20.0836   39.6875 C   0  0  0  0  0  0  0  0  0  0  0  0
    1.5243   18.8915   39.7301 C   0  0  0  0  0  0  0  0  0  0  0  0
    1.6273   16.5759   40.7219 C   0  0  0  0  0  0  0  0  0  0  0  0
    1.4066   14.5149   41.6075 C   0  0  0  0  0  0  0  0  0  0  0  0
    2.0477   13.2709   42.0811 C   0  0  0  0  0  0  0  0  0  0  0  0
    1.2941   12.2365   42.5803 C   0  0  0  0  0  0  0  0  0  0  0  0
    1.9381   11.1078   43.0063 C   0  0  0  0  0  0  0  0  0  0  0  0
    3.3059   10.9357   42.9684 C   0  0  0  0  0  0  0  0  0  0  0  0
    4.0678   11.9748   42.4661 C   0  0  0  0  0  0  0  0  0  0  0  0
    3.4141   13.1036   42.0409 C   0  0  0  0  0  0  0  0  0  0  0  0
    0.0106   14.6635   41.6650 C   0  0  0  0  0  0  0  0  0  0  0  0
    0.2307   18.9918   39.2949 C   0  0  0  0  0  0  0  0  0  0  0  0
   -0.3385   20.1754   38.8378 C   0  0  0  0  0  0  0  0  0  0  0  0
    2.1804   17.7523   40.1953 N   0  0  0  0  0  0  0  0  0  0  0  0
    2.0355   15.5300   41.1266 N   0  0  0  0  0  0  0  0  0  0  0  0
   -1.4113   22.7822   37.9132 O   0  0  0  0  0  0  0  0  0  0  0  0
    0.6352   23.6438   38.3380 O   0  0  0  0  0  0  0  0  0  0  0  0
   -1.6404   20.2458   38.4079 O   0  0  0  0  0  0  0  0  0  0  0  0
   -0.2334   16.3881   40.9607 S   0  0  0  0  0  0  0  0  0  0  0  0
    4.0173    9.4409   43.5429 Cl  0  0  0  0  0  0  0  0  0  0  0  0
    2.3559   22.1620   39.2311 H   0  0  0  0  0  0  0  0  0  0  0  0
    3.2993   20.0988   40.0115 H   0  0  0  0  0  0  0  0  0  0  0  0
    0.2018   12.2940   42.6439 H   0  0  0  0  0  0  0  0  0  0  0  0
    1.3062   10.2967   43.4019 H   0  0  0  0  0  0  0  0  0  0  0  0
    5.1415   11.8737   42.4194 H   0  0  0  0  0  0  0  0  0  0  0  0
    4.0103   13.9294   41.6419 H   0  0  0  0  0  0  0  0  0  0  0  0
   -0.7715   14.0691   41.9819 H   0  0  0  0  0  0  0  0  0  0  0  0
   -0.4095   18.1303   39.2789 H   0  0  0  0  0  0  0  0  0  0  0  0
    3.2482   17.7571   40.1478 H   0  0  0  0  0  0  0  0  0  0  0  0
  1  2  1  0
  1 19  1  0
  1 20  2  0
  2  3  1  0
  2 16  2  0
  3  4  2  0
  4  5  1  0
  5 15  2  0
  5 17  1  0
  6 17  1  0
  6 18  2  0
  6 22  1  0
  7  8  1  0
  7 14  2  0
  7 18  1  0
  8  9  1  0
  8 13  2  0
  9 10  2  0
 10 11  1  0
 11 12  2  0
 11 23  1  0
 12 13  1  0
 14 22  1  0
 15 16  1  0
 16 21  1  0
  3 24  1  0
  4 25  1  0
  9 26  1  0
 10 27  1  0
 12 28  1  0
 13 29  1  0
 14 30  1  0
 15 31  1  0
 17 32  1  0
M  CHG  2  19  -1  21  -1
M  END
>  <mol_id>  (56) 
2026-08-23-6tgu-s0-n100-r2-0056

>  <rmsd_to_ref>  (56) 
2.979591836740103

$$$$
6tgu.A
     RDKit          3D

 32 34  0  0  0  0  0  0  0  0999 V2000
    1.3268   22.4904   39.8327 C   0  0  0  0  0  0  0  0  0  0  0  0
    1.1010   21.3457   40.8244 C   0  0  0  0  0  0  0  0  0  0  0  0
    0.0610   21.4060   41.7492 C   0  0  0  0  0  0  0  0  0  0  0  0
   -0.2944   20.3075   42.5388 C   0  0  0  0  0  0  0  0  0  0  0  0
    0.5071   19.1567   42.5458 C   0  0  0  0  0  0  0  0  0  0  0  0
    0.4276   16.6832   43.1280 C   0  0  0  0  0  0  0  0  0  0  0  0
    1.4683   14.8574   42.2567 C   0  0  0  0  0  0  0  0  0  0  0  0
    2.4441   14.1593   41.4190 C   0  0  0  0  0  0  0  0  0  0  0  0
    2.4542   12.7625   41.2965 C   0  0  0  0  0  0  0  0  0  0  0  0
    3.3696   12.1211   40.4680 C   0  0  0  0  0  0  0  0  0  0  0  0
    4.2472   12.8908   39.7279 C   0  0  0  0  0  0  0  0  0  0  0  0
    4.2678   14.2747   39.8143 C   0  0  0  0  0  0  0  0  0  0  0  0
    3.3516   14.8973   40.6575 C   0  0  0  0  0  0  0  0  0  0  0  0
    0.5052   14.2262   42.9985 C   0  0  0  0  0  0  0  0  0  0  0  0
    1.5511   19.0754   41.6133 C   0  0  0  0  0  0  0  0  0  0  0  0
    1.8295   20.1629   40.7833 C   0  0  0  0  0  0  0  0  0  0  0  0
    0.1235   18.0034   43.2967 N   0  0  0  0  0  0  0  0  0  0  0  0
    1.3940   16.2703   42.2356 N   0  0  0  0  0  0  0  0  0  0  0  0
    0.4343   23.3875   39.7927 O   0  0  0  0  0  0  0  0  0  0  0  0
    2.3283   22.4064   39.0885 O   0  0  0  0  0  0  0  0  0  0  0  0
    2.7850   20.0349   39.8033 O   0  0  0  0  0  0  0  0  0  0  0  0
   -0.5783   15.3667   43.7009 S   0  0  0  0  0  0  0  0  0  0  0  0
    5.3655   12.1081   38.6610 Cl  0  0  0  0  0  0  0  0  0  0  0  0
   -0.4981   22.3466   41.8621 H   0  0  0  0  0  0  0  0  0  0  0  0
   -1.2045   20.3463   43.1555 H   0  0  0  0  0  0  0  0  0  0  0  0
    1.7267   12.1642   41.8646 H   0  0  0  0  0  0  0  0  0  0  0  0
    3.3944   11.0233   40.4032 H   0  0  0  0  0  0  0  0  0  0  0  0
    4.9898   14.8655   39.2314 H   0  0  0  0  0  0  0  0  0  0  0  0
    3.3426   15.9952   40.7251 H   0  0  0  0  0  0  0  0  0  0  0  0
    0.4332   13.1363   43.1285 H   0  0  0  0  0  0  0  0  0  0  0  0
    2.1499   18.1560   41.5359 H   0  0  0  0  0  0  0  0  0  0  0  0
   -0.4864   18.2017   44.1027 H   0  0  0  0  0  0  0  0  0  0  0  0
  1  2  1  0
  1 19  1  0
  1 20  2  0
  2  3  1  0
  2 16  2  0
  3  4  2  0
  4  5  1  0
  5 15  2  0
  5 17  1  0
  6 17  1  0
  6 18  2  0
  6 22  1  0
  7  8  1  0
  7 14  2  0
  7 18  1  0
  8  9  1  0
  8 13  2  0
  9 10  2  0
 10 11  1  0
 11 12  2  0
 11 23  1  0
 12 13  1  0
 14 22  1  0
 15 16  1  0
 16 21  1  0
  3 24  1  0
  4 25  1  0
  9 26  1  0
 10 27  1  0
 12 28  1  0
 13 29  1  0
 14 30  1  0
 15 31  1  0
 17 32  1  0
M  CHG  2  19  -1  21  -1
M  END
>  <mol_id>  (57) 
2026-08-23-6tgu-s0-n100-r2-0057

>  <rmsd_to_ref>  (57) 
3.0255102040870017

$$$$
6tgu.A
     RDKit          3D

 32 34  0  0  0  0  0  0  0  0999 V2000
    5.3749   22.1270   38.0994 C   0  0  0  0  0  0  0  0  0  0  0  0
    4.6479   20.9763   38.6066 C   0  0  0  0  0  0  0  0  0  0  0  0
    4.8350   20.5898   39.9172 C   0  0  0  0  0  0  0  0  0  0  0  0
    4.1531   19.4932   40.4347 C   0  0  0  0  0  0  0  0  0  0  0  0
    3.2703   18.7415   39.6942 C   0  0  0  0  0  0  0  0  0  0  0  0
    2.1587   17.3476   41.4548 C   0  0  0  0  0  0  0  0  0  0  0  0
    1.2945   16.3310   43.2893 C   0  0  0  0  0  0  0  0  0  0  0  0
    0.5913   15.1688   43.8811 C   0  0  0  0  0  0  0  0  0  0  0  0
    0.3126   15.1193   45.2236 C   0  0  0  0  0  0  0  0  0  0  0  0
   -0.3389   14.0569   45.7993 C   0  0  0  0  0  0  0  0  0  0  0  0
   -0.7407   12.9835   45.0223 C   0  0  0  0  0  0  0  0  0  0  0  0
   -0.4641   13.0280   43.6763 C   0  0  0  0  0  0  0  0  0  0  0  0
    0.1895   14.0984   43.1124 C   0  0  0  0  0  0  0  0  0  0  0  0
    1.6815   17.4140   44.1365 C   0  0  0  0  0  0  0  0  0  0  0  0
    3.0955   19.1477   38.3737 C   0  0  0  0  0  0  0  0  0  0  0  0
    3.7665   20.2331   37.8509 C   0  0  0  0  0  0  0  0  0  0  0  0
    2.5360   17.6481   40.1482 N   0  0  0  0  0  0  0  0  0  0  0  0
    1.5942   16.4593   42.0567 N   0  0  0  0  0  0  0  0  0  0  0  0
    5.1817   22.5234   36.7647 O   0  0  0  0  0  0  0  0  0  0  0  0
    6.1841   22.8055   38.7951 O   0  0  0  0  0  0  0  0  0  0  0  0
    3.5878   20.6392   36.5217 O   0  0  0  0  0  0  0  0  0  0  0  0
    2.4903   18.5378   42.8790 S   0  0  0  0  0  0  0  0  0  0  0  0
   -1.5738   11.6222   45.7451 Cl  0  0  0  0  0  0  0  0  0  0  0  0
    5.5270   21.1480   40.5616 H   0  0  0  0  0  0  0  0  0  0  0  0
    4.3649   19.2535   41.4617 H   0  0  0  0  0  0  0  0  0  0  0  0
    0.6030   15.9362   45.8965 H   0  0  0  0  0  0  0  0  0  0  0  0
   -0.5393   14.0513   46.8453 H   0  0  0  0  0  0  0  0  0  0  0  0
   -0.7807   12.1862   43.0682 H   0  0  0  0  0  0  0  0  0  0  0  0
    0.4001   14.1141   42.0379 H   0  0  0  0  0  0  0  0  0  0  0  0
    1.5879   17.5916   45.0999 H   0  0  0  0  0  0  0  0  0  0  0  0
    2.4200   18.6270   37.6904 H   0  0  0  0  0  0  0  0  0  0  0  0
    2.2187   16.9433   39.4094 H   0  0  0  0  0  0  0  0  0  0  0  0
  1  2  1  0
  1 19  1  0
  1 20  2  0
  2  3  1  0
  2 16  2  0
  3  4  2  0
  4  5  1  0
  5 15  2  0
  5 17  1  0
  6 17  1  0
  6 18  2  0
  6 22  1  0
  7  8  1  0
  7 14  2  0
  7 18  1  0
  8  9  1  0
  8 13  2  0
  9 10  2  0
 10 11  1  0
 11 12  2  0
 11 23  1  0
 12 13  1  0
 14 22  1  0
 15 16  1  0
 16 21  1  0
  3 24  1  0
  4 25  1  0
  9 26  1  0
 10 27  1  0
 12 28  1  0
 13 29  1  0
 14 30  1  0
 15 31  1  0
 17 32  1  0
M  CHG  2  19  -1  21  -1
M  END
>  <mol_id>  (58) 
2026-08-23-6tgu-s0-n100-r2-0058

>  <rmsd_to_ref>  (58) 
3.0714285714310647

$$$$
6tgu.A
     RDKit          3D

 32 34  0  0  0  0  0  0  0  0999 V2000
    4.0945   16.3962   36.1581 C   0  0  0  0  0  0  0  0  0  0  0  0
    3.9831   16.7357   37.6471 C   0  0  0  0  0  0  0  0  0  0  0  0
    4.4698   17.9464   38.1348 C   0  0  0  0  0  0  0  0  0  0  0  0
    4.2194   18.3739   39.4428 C   0  0  0  0  0  0  0  0  0  0  0  0
    3.6127   17.5067   40.3630 C   0  0  0  0  0  0  0  0  0  0  0  0
    2.3455   17.5180   42.5669 C   0  0  0  0  0  0  0  0  0  0  0  0
    0.7086   16.1843   43.4140 C   0  0  0  0  0  0  0  0  0  0  0  0
   -0.1585   15.0062   43.4486 C   0  0  0  0  0  0  0  0  0  0  0  0
   -1.1838   14.8654   44.3947 C   0  0  0  0  0  0  0  0  0  0  0  0
   -2.0185   13.7522   44.3885 C   0  0  0  0  0  0  0  0  0  0  0  0
   -1.8481   12.8009   43.4004 C   0  0  0  0  0  0  0  0  0  0  0  0
   -0.8509   12.9033   42.4422 C   0  0  0  0  0  0  0  0  0  0  0  0
   -0.0186   14.0189   42.4720 C   0  0  0  0  0  0  0  0  0  0  0  0
    0.6153   17.2299   44.2941 C   0  0  0  0  0  0  0  0  0  0  0  0
    3.1073   16.2889   39.8859 C   0  0  0  0  0  0  0  0  0  0  0  0
    3.3058   15.9273   38.5522 C   0  0  0  0  0  0  0  0  0  0  0  0
    3.2922   17.9494   41.6830 N   0  0  0  0  0  0  0  0  0  0  0  0
    1.6295   16.3592   42.3541 N   0  0  0  0  0  0  0  0  0  0  0  0
    4.4884   17.3262   35.3946 O   0  0  0  0  0  0  0  0  0  0  0  0
    3.7125   15.2587   35.8059 O   0  0  0  0  0  0  0  0  0  0  0  0
    2.7172   14.7823   38.0700 O   0  0  0  0  0  0  0  0  0  0  0  0
    1.6620   18.5185   43.8339 S   0  0  0  0  0  0  0  0  0  0  0  0
   -2.9062   11.4298   43.3555 Cl  0  0  0  0  0  0  0  0  0  0  0  0
    5.0695   18.5861   37.4706 H   0  0  0  0  0  0  0  0  0  0  0  0
    4.4989   19.3923   39.7505 H   0  0  0  0  0  0  0  0  0  0  0  0
   -1.3306   15.6476   45.1540 H   0  0  0  0  0  0  0  0  0  0  0  0
   -2.7985   13.6317   45.1547 H   0  0  0  0  0  0  0  0  0  0  0  0
   -0.7208   12.1229   41.6780 H   0  0  0  0  0  0  0  0  0  0  0  0
    0.7667   14.1246   41.7090 H   0  0  0  0  0  0  0  0  0  0  0  0
   -0.0407   17.2448   45.1770 H   0  0  0  0  0  0  0  0  0  0  0  0
    2.5551   15.6192   40.5617 H   0  0  0  0  0  0  0  0  0  0  0  0
    3.8747   18.7264   42.0263 H   0  0  0  0  0  0  0  0  0  0  0  0
  1  2  1  0
  1 19  1  0
  1 20  2  0
  2  3  1  0
  2 16  2  0
  3  4  2  0
  4  5  1  0
  5 15  2  0
  5 17  1  0
  6 17  1  0
  6 18  2  0
  6 22  1  0
  7  8  1  0
  7 14  2  0
  7 18  1  0
  8  9  1  0
  8 13  2  0
  9 10  2  0
 10 11  1  0
 11 12  2  0
 11 23  1  0
 12 13  1  0
 14 22  1  0
 15 16  1  0
 16 21  1  0
  3 24  1  0
  4 25  1  0
  9 26  1  0
 10 27  1  0
 12 28  1  0
 13 29  1  0
 14 30  1  0
 15 31  1  0
 17 32  1  0
M  CHG  2  19  -1  21  -1
M  END
>  <mol_id>  (59) 
2026-08-23-6tgu-s0-n100-r2-0059

>  <rmsd_to_ref>  (59) 
3.117346938782804

$$$$
6tgu.A
     RDKit          3D

 32 34  0  0  0  0  0  0  0  0999 V2000
   -0.5468   21.9240   36.8780 C   0  0  0  0  0  0  0  0  0  0  0  0
   -0.0578   20.6627   37.4056 C   0  0  0  0  0  0  0  0  0  0  0  0
   -0.5106   20.2715   38.6420 C   0  0  0  0  0  0  0  0  0  0  0  0
   -0.0843   19.0704   39.2198 C   0  0  0  0  0  0  0  0  0  0  0  0
    0.8042   18.2534   38.5518 C   0  0  0  0  0  0  0  0  0  0  0  0
    1.4773   16.7238   40.4237 C   0  0  0  0  0  0  0  0  0  0  0  0
    1.9145   15.7626   42.4431 C   0  0  0  0  0  0  0  0  0  0  0  0
    2.2837   14.5269   43.1907 C   0  0  0  0  0  0  0  0  0  0  0  0
    2.5016   13.3319   42.5463 C   0  0  0  0  0  0  0  0  0  0  0  0
    2.8437   12.1855   43.2587 C   0  0  0  0  0  0  0  0  0  0  0  0
    2.9709   12.2311   44.6385 C   0  0  0  0  0  0  0  0  0  0  0  0
    2.7520   13.4248   45.2655 C   0  0  0  0  0  0  0  0  0  0  0  0
    2.4141   14.5516   44.5499 C   0  0  0  0  0  0  0  0  0  0  0  0
    1.6943   16.9365   43.1084 C   0  0  0  0  0  0  0  0  0  0  0  0
    1.2582   18.6584   37.2967 C   0  0  0  0  0  0  0  0  0  0  0  0
    0.8363   19.8545   36.7179 C   0  0  0  0  0  0  0  0  0  0  0  0
    1.2981   17.0335   39.0764 N   0  0  0  0  0  0  0  0  0  0  0  0
    1.7798   15.7900   41.1579 N   0  0  0  0  0  0  0  0  0  0  0  0
   -0.0923   22.3471   35.6161 O   0  0  0  0  0  0  0  0  0  0  0  0
   -1.3641   22.6589   37.5051 O   0  0  0  0  0  0  0  0  0  0  0  0
    1.3006   20.2480   35.4633 O   0  0  0  0  0  0  0  0  0  0  0  0
    1.2693   18.1106   41.7376 S   0  0  0  0  0  0  0  0  0  0  0  0
    3.3985   10.8066   45.5802 Cl  0  0  0  0  0  0  0  0  0  0  0  0
   -1.2117   20.9032   39.1821 H   0  0  0  0  0  0  0  0  0  0  0  0
   -0.4981   18.8404   40.1811 H   0  0  0  0  0  0  0  0  0  0  0  0
    2.4006   13.2936   41.4700 H   0  0  0  0  0  0  0  0  0  0  0  0
    3.0140   11.2353   42.7430 H   0  0  0  0  0  0  0  0  0  0  0  0
    2.8402   13.5082   46.3427 H   0  0  0  0  0  0  0  0  0  0  0  0
    2.2526   15.4772   45.1148 H   0  0  0  0  0  0  0  0  0  0  0  0
    1.7226   17.2579   44.1648 H   0  0  0  0  0  0  0  0  0  0  0  0
    1.9595   18.0414   36.7449 H   0  0  0  0  0  0  0  0  0  0  0  0
    1.5525   16.2993   38.3765 H   0  0  0  0  0  0  0  0  0  0  0  0
  1  2  1  0
  1 19  1  0
  1 20  2  0
  2  3  1  0
  2 16  2  0
  3  4  2  0
  4  5  1  0
  5 15  2  0
  5 17  1  0
  6 17  1  0
  6 18  2  0
  6 22  1  0
  7  8  1  0
  7 14  2  0
  7 18  1  0
  8  9  1  0
  8 13  2  0
  9 10  2  0
 10 11  1  0
 11 12  2  0
 11 23  1  0
 12 13  1  0
 14 22  1  0
 15 16  1  0
 16 21  1  0
  3 24  1  0
  4 25  1  0
  9 26  1  0
 10 27  1  0
 12 28  1  0
 13 29  1  0
 14 30  1  0
 15 31  1  0
 17 32  1  0
M  CHG  2  19  -1  21  -1
M  END
>  <mol_id>  (60) 
2026-08-23-6tgu-s0-n100-r2-0060

>  <rmsd_to_ref>  (60) 
3.163265306125293

$$$$
6tgu.A
     RDKit          3D

 32 34  0  0  0  0  0  0  0  0999 V2000
    3.6800   15.5044   35.7673 C   0  0  0  0  0  0  0  0  0  0  0  0
    3.0725   16.3492   36.8907 C   0  0  0  0  0  0  0  0  0  0  0  0
    2.3119   17.4781   36.5944 C   0  0  0  0  0  0  0  0  0  0  0  0
    1.5868   18.1626   37.5753 C   0  0  0  0  0  0  0  0  0  0  0  0
    1.7465   17.8313   38.9286 C   0  0  0  0  0  0  0  0  0  0  0  0
    0.5893   18.0606   41.1806 C   0  0  0  0  0  0  0  0  0  0  0  0
    0.5273   16.7334   43.0273 C   0  0  0  0  0  0  0  0  0  0  0  0
    0.9431   15.6125   43.8710 C   0  0  0  0  0  0  0  0  0  0  0  0
    0.2794   15.2943   45.0645 C   0  0  0  0  0  0  0  0  0  0  0  0
    0.6704   14.2034   45.8346 C   0  0  0  0  0  0  0  0  0  0  0  0
    1.7032   13.4059   45.3788 C   0  0  0  0  0  0  0  0  0  0  0  0
    2.3829   13.6807   44.2017 C   0  0  0  0  0  0  0  0  0  0  0  0
    1.9843   14.7833   43.4510 C   0  0  0  0  0  0  0  0  0  0  0  0
   -0.5148   17.5709   43.3256 C   0  0  0  0  0  0  0  0  0  0  0  0
    2.4997   16.6911   39.2431 C   0  0  0  0  0  0  0  0  0  0  0  0
    3.1471   15.9828   38.2292 C   0  0  0  0  0  0  0  0  0  0  0  0
    0.9661   18.4769   39.9362 N   0  0  0  0  0  0  0  0  0  0  0  0
    1.1240   16.9293   41.7594 N   0  0  0  0  0  0  0  0  0  0  0  0
    3.3173   15.7879   34.5879 O   0  0  0  0  0  0  0  0  0  0  0  0
    4.4190   14.5550   36.1083 O   0  0  0  0  0  0  0  0  0  0  0  0
    3.7950   14.8096   38.5351 O   0  0  0  0  0  0  0  0  0  0  0  0
   -0.8341   18.6474   42.0190 S   0  0  0  0  0  0  0  0  0  0  0  0
    2.1741   12.0205   46.3064 Cl  0  0  0  0  0  0  0  0  0  0  0  0
    2.2806   17.8424   35.5570 H   0  0  0  0  0  0  0  0  0  0  0  0
    0.8900   18.9626   37.2846 H   0  0  0  0  0  0  0  0  0  0  0  0
   -0.5639   15.9172   45.3974 H   0  0  0  0  0  0  0  0  0  0  0  0
    0.1675   13.9801   46.7871 H   0  0  0  0  0  0  0  0  0  0  0  0
    3.2159   13.0436   43.8696 H   0  0  0  0  0  0  0  0  0  0  0  0
    2.5013   15.0059   42.5060 H   0  0  0  0  0  0  0  0  0  0  0  0
   -1.0734   17.5579   44.2731 H   0  0  0  0  0  0  0  0  0  0  0  0
    2.5803   16.3553   40.2875 H   0  0  0  0  0  0  0  0  0  0  0  0
    0.6307   19.4165   39.6802 H   0  0  0  0  0  0  0  0  0  0  0  0
  1  2  1  0
  1 19  1  0
  1 20  2  0
  2  3  1  0
  2 16  2  0
  3  4  2  0
  4  5  1  0
  5 15  2  0
  5 17  1  0
  6 17  1  0
  6 18  2  0
  6 22  1  0
  7  8  1  0
  7 14  2  0
  7 18  1  0
  8  9  1  0
  8 13  2  0
  9 10  2  0
 10 11  1  0
 11 12  2  0
 11 23  1  0
 12 13  1  0
 14 22  1  0
 15 16  1  0
 16 21  1  0
  3 24  1  0
  4 25  1  0
  9 26  1  0
 10 27  1  0
 12 28  1  0
 13 29  1  0
 14 30  1  0
 15 31  1  0
 17 32  1  0
M  CHG  2  19  -1  21  -1
M  END
>  <mol_id>  (61) 
2026-08-23-6tgu-s0-n100-r2-0061

>  <rmsd_to_ref>  (61) 
3.2091836734759895

$$$$
6tgu.A
     RDKit          3D

 32 34  0  0  0  0  0  0  0  0999 V2000
    0.1573   22.5563   39.5000 C   0  0  0  0  0  0  0  0  0  0  0  0
    0.6283   21.3767   40.2185 C   0  0  0  0  0  0  0  0  0  0  0  0
    1.2511   20.3602   39.5300 C   0  0  0  0  0  0  0  0  0  0  0  0
    1.7016   19.2394   40.1800 C   0  0  0  0  0  0  0  0  0  0  0  0
    1.5135   19.1524   41.5657 C   0  0  0  0  0  0  0  0  0  0  0  0
    1.4011   16.7077   41.6886 C   0  0  0  0  0  0  0  0  0  0  0  0
    0.7968   14.6521   41.0311 C   0  0  0  0  0  0  0  0  0  0  0  0
    1.1857   13.2683   40.6660 C   0  0  0  0  0  0  0  0  0  0  0  0
    0.2303   12.3480   40.3022 C   0  0  0  0  0  0  0  0  0  0  0  0
    0.5679   11.0378   39.9517 C   0  0  0  0  0  0  0  0  0  0  0  0
    1.8850   10.6476   39.9663 C   0  0  0  0  0  0  0  0  0  0  0  0
    2.8307   11.5763   40.3318 C   0  0  0  0  0  0  0  0  0  0  0  0
    2.4945   12.8477   40.6716 C   0  0  0  0  0  0  0  0  0  0  0  0
   -0.5390   15.0350   41.0059 C   0  0  0  0  0  0  0  0  0  0  0  0
    0.8989   20.1433   42.2866 C   0  0  0  0  0  0  0  0  0  0  0  0
    0.4517   21.2700   41.5972 C   0  0  0  0  0  0  0  0  0  0  0  0
    1.9992   17.9325   42.1490 N   0  0  0  0  0  0  0  0  0  0  0  0
    1.6175   15.6083   41.3903 N   0  0  0  0  0  0  0  0  0  0  0  0
    0.3435   22.6508   38.1362 O   0  0  0  0  0  0  0  0  0  0  0  0
   -0.4228   23.5028   40.1025 O   0  0  0  0  0  0  0  0  0  0  0  0
   -0.1837   22.3131   42.2726 O   0  0  0  0  0  0  0  0  0  0  0  0
   -0.4931   16.7685   41.5136 S   0  0  0  0  0  0  0  0  0  0  0  0
    2.2753    9.0042   39.5230 Cl  0  0  0  0  0  0  0  0  0  0  0  0
    1.4162   20.4041   38.4392 H   0  0  0  0  0  0  0  0  0  0  0  0
    2.1902   18.4442   39.6292 H   0  0  0  0  0  0  0  0  0  0  0  0
   -0.8107   12.5934   40.2734 H   0  0  0  0  0  0  0  0  0  0  0  0
   -0.2000   10.3305   39.6713 H   0  0  0  0  0  0  0  0  0  0  0  0
    3.8643   11.2757   40.3465 H   0  0  0  0  0  0  0  0  0  0  0  0
    3.2628   13.5591   40.9568 H   0  0  0  0  0  0  0  0  0  0  0  0
   -1.4170   14.4829   40.7578 H   0  0  0  0  0  0  0  0  0  0  0  0
    0.7710   20.0375   43.3536 H   0  0  0  0  0  0  0  0  0  0  0  0
    2.7546   17.9353   42.8791 H   0  0  0  0  0  0  0  0  0  0  0  0
  1  2  1  0
  1 19  1  0
  1 20  2  0
  2  3  1  0
  2 16  2  0
  3  4  2  0
  4  5  1  0
  5 15  2  0
  5 17  1  0
  6 17  1  0
  6 18  2  0
  6 22  1  0
  7  8  1  0
  7 14  2  0
  7 18  1  0
  8  9  1  0
  8 13  2  0
  9 10  2  0
 10 11  1  0
 11 12  2  0
 11 23  1  0
 12 13  1  0
 14 22  1  0
 15 16  1  0
 16 21  1  0
  3 24  1  0
  4 25  1  0
  9 26  1  0
 10 27  1  0
 12 28  1  0
 13 29  1  0
 14 30  1  0
 15 31  1  0
 17 32  1  0
M  CHG  2  19  -1  21  -1
M  END
>  <mol_id>  (62) 
2026-08-23-6tgu-s0-n100-r2-0062

>  <rmsd_to_ref>  (62) 
3.255102040821269

$$$$
6tgu.A
     RDKit          3D

 32 34  0  0  0  0  0  0  0  0999 V2000
    6.5562   20.1496   40.5044 C   0  0  0  0  0  0  0  0  0  0  0  0
    5.2044   19.9411   41.1926 C   0  0  0  0  0  0  0  0  0  0  0  0
    4.5830   20.9918   41.8640 C   0  0  0  0  0  0  0  0  0  0  0  0
    3.2709   20.8962   42.3390 C   0  0  0  0  0  0  0  0  0  0  0  0
    2.5980   19.6662   42.3059 C   0  0  0  0  0  0  0  0  0  0  0  0
    0.2565   18.6792   42.3864 C   0  0  0  0  0  0  0  0  0  0  0  0
   -0.6745   16.8326   41.4381 C   0  0  0  0  0  0  0  0  0  0  0  0
   -0.6586   15.5591   40.7177 C   0  0  0  0  0  0  0  0  0  0  0  0
   -1.8394   14.9024   40.3427 C   0  0  0  0  0  0  0  0  0  0  0  0
   -1.8015   13.7090   39.6285 C   0  0  0  0  0  0  0  0  0  0  0  0
   -0.5727   13.1994   39.2533 C   0  0  0  0  0  0  0  0  0  0  0  0
    0.6191   13.8190   39.5980 C   0  0  0  0  0  0  0  0  0  0  0  0
    0.5606   15.0063   40.3226 C   0  0  0  0  0  0  0  0  0  0  0  0
   -1.8185   17.4809   41.8222 C   0  0  0  0  0  0  0  0  0  0  0  0
    3.2047   18.6016   41.6241 C   0  0  0  0  0  0  0  0  0  0  0  0
    4.4860   18.7557   41.0916 C   0  0  0  0  0  0  0  0  0  0  0  0
    1.2366   19.5662   42.7275 N   0  0  0  0  0  0  0  0  0  0  0  0
    0.5315   17.5372   41.6645 N   0  0  0  0  0  0  0  0  0  0  0  0
    6.9790   21.3412   40.4389 O   0  0  0  0  0  0  0  0  0  0  0  0
    7.0934   19.1426   39.9934 O   0  0  0  0  0  0  0  0  0  0  0  0
    5.0278   17.7428   40.3365 O   0  0  0  0  0  0  0  0  0  0  0  0
   -1.4579   19.0352   42.4718 S   0  0  0  0  0  0  0  0  0  0  0  0
   -0.5112   11.7357   38.3284 Cl  0  0  0  0  0  0  0  0  0  0  0  0
    5.1416   21.9256   42.0255 H   0  0  0  0  0  0  0  0  0  0  0  0
    2.7658   21.7875   42.7393 H   0  0  0  0  0  0  0  0  0  0  0  0
   -2.8114   15.3378   40.6177 H   0  0  0  0  0  0  0  0  0  0  0  0
   -2.7308   13.1815   39.3676 H   0  0  0  0  0  0  0  0  0  0  0  0
    1.5862   13.3835   39.3062 H   0  0  0  0  0  0  0  0  0  0  0  0
    1.4958   15.5201   40.5896 H   0  0  0  0  0  0  0  0  0  0  0  0
   -2.8323   17.0645   41.7283 H   0  0  0  0  0  0  0  0  0  0  0  0
    2.6718   17.6462   41.5091 H   0  0  0  0  0  0  0  0  0  0  0  0
    0.9449   20.2859   43.4041 H   0  0  0  0  0  0  0  0  0  0  0  0
  1  2  1  0
  1 19  1  0
  1 20  2  0
  2  3  1  0
  2 16  2  0
  3  4  2  0
  4  5  1  0
  5 15  2  0
  5 17  1  0
  6 17  1  0
  6 18  2  0
  6 22  1  0
  7  8  1  0
  7 14  2  0
  7 18  1  0
  8  9  1  0
  8 13  2  0
  9 10  2  0
 10 11  1  0
 11 12  2  0
 11 23  1  0
 12 13  1  0
 14 22  1  0
 15 16  1  0
 16 21  1  0
  3 24  1  0
  4 25  1  0
  9 26  1  0
 10 27  1  0
 12 28  1  0
 13 29  1  0
 14 30  1  0
 15 31  1  0
 17 32  1  0
M  CHG  2  19  -1  21  -1
M  END
>  <mol_id>  (63) 
2026-08-23-6tgu-s0-n100-r2-0063

>  <rmsd_to_ref>  (63) 
3.301020408168849

$$$$
6tgu.A
     RDKit          3D

 32 34  0  0  0  0  0  0  0  0999 V2000
    0.5803   22.1366   38.4184 C   0  0  0  0  0  0  0  0  0  0  0  0
    0.2612   21.0170   39.2983 C   0  0  0  0  0  0  0  0  0  0  0  0
   -1.0101   20.9283   39.8222 C   0  0  0  0  0  0  0  0  0  0  0  0
   -1.2964   19.8824   40.6399 C   0  0  0  0  0  0  0  0  0  0  0  0
   -0.3863   18.8900   40.9850 C   0  0  0  0  0  0  0  0  0  0  0  0
    0.1831   16.8307   42.1824 C   0  0  0  0  0  0  0  0  0  0  0  0
    1.9188   15.4472   42.4944 C   0  0  0  0  0  0  0  0  0  0  0  0
    3.3155   15.1193   42.2094 C   0  0  0  0  0  0  0  0  0  0  0  0
    4.1104   15.9053   41.3836 C   0  0  0  0  0  0  0  0  0  0  0  0
    5.4268   15.5747   41.1297 C   0  0  0  0  0  0  0  0  0  0  0  0
    6.0091   14.4562   41.6808 C   0  0  0  0  0  0  0  0  0  0  0  0
    5.2388   13.6648   42.5013 C   0  0  0  0  0  0  0  0  0  0  0  0
    3.9255   14.0052   42.7474 C   0  0  0  0  0  0  0  0  0  0  0  0
    1.1427   14.6443   43.3249 C   0  0  0  0  0  0  0  0  0  0  0  0
    0.8775   19.0248   40.4323 C   0  0  0  0  0  0  0  0  0  0  0  0
    1.2137   20.0756   39.5931 C   0  0  0  0  0  0  0  0  0  0  0  0
   -0.7673   17.8471   41.8351 N   0  0  0  0  0  0  0  0  0  0  0  0
    1.2379   16.4800   42.0376 N   0  0  0  0  0  0  0  0  0  0  0  0
    1.8417   22.2613   37.8735 O   0  0  0  0  0  0  0  0  0  0  0  0
   -0.2724   23.0313   38.1191 O   0  0  0  0  0  0  0  0  0  0  0  0
    2.5006   20.1681   39.0608 O   0  0  0  0  0  0  0  0  0  0  0  0
   -0.4921   15.4718   43.3556 S   0  0  0  0  0  0  0  0  0  0  0  0
    7.6777   14.0239   41.3680 Cl  0  0  0  0  0  0  0  0  0  0  0  0
   -1.7274   21.6946   39.5612 H   0  0  0  0  0  0  0  0  0  0  0  0
   -2.2993   19.8196   41.0484 H   0  0  0  0  0  0  0  0  0  0  0  0
    3.6485   16.7953   40.9446 H   0  0  0  0  0  0  0  0  0  0  0  0
    6.0166   16.2108   40.4809 H   0  0  0  0  0  0  0  0  0  0  0  0
    5.6765   12.7848   42.9423 H   0  0  0  0  0  0  0  0  0  0  0  0
    3.3568   13.3551   43.3981 H   0  0  0  0  0  0  0  0  0  0  0  0
    1.3680   13.7253   43.8698 H   0  0  0  0  0  0  0  0  0  0  0  0
    1.6424   18.3126   40.6392 H   0  0  0  0  0  0  0  0  0  0  0  0
   -1.7532   17.8466   42.1944 H   0  0  0  0  0  0  0  0  0  0  0  0
  1  2  1  0
  1 19  1  0
  1 20  2  0
  2  3  1  0
  2 16  2  0
  3  4  2  0
  4  5  1  0
  5 15  2  0
  5 17  1  0
  6 17  1  0
  6 18  2  0
  6 22  1  0
  7  8  1  0
  7 14  2  0
  7 18  1  0
  8  9  1  0
  8 13  2  0
  9 10  2  0
 10 11  1  0
 11 12  2  0
 11 23  1  0
 12 13  1  0
 14 22  1  0
 15 16  1  0
 16 21  1  0
  3 24  1  0
  4 25  1  0
  9 26  1  0
 10 27  1  0
 12 28  1  0
 13 29  1  0
 14 30  1  0
 15 31  1  0
 17 32  1  0
M  CHG  2  19  -1  21  -1
M  END
>  <mol_id>  (64) 
2026-08-23-6tgu-s0-n100-r2-0064

>  <rmsd_to_ref>  (64) 
3.3469387755156905

$$$$
6tgu.A
     RDKit          3D

 32 34  0  0  0  0  0  0  0  0999 V2000
    4.8970   16.8270   37.3620 C   0  0  0  0  0  0  0  0  0  0  0  0
    4.1117   17.6594   38.3795 C   0  0  0  0  0  0  0  0  0  0  0  0
    3.9732   19.0353   38.2113 C   0  0  0  0  0  0  0  0  0  0  0  0
    3.1117   19.7971   39.0074 C   0  0  0  0  0  0  0  0  0  0  0  0
    2.4880   19.2191   40.1226 C   0  0  0  0  0  0  0  0  0  0  0  0
    0.5190   19.5560   41.6951 C   0  0  0  0  0  0  0  0  0  0  0  0
   -0.8276   18.1053   42.8167 C   0  0  0  0  0  0  0  0  0  0  0  0
   -1.2344   16.7956   43.3268 C   0  0  0  0  0  0  0  0  0  0  0  0
   -2.4527   16.6032   43.9935 C   0  0  0  0  0  0  0  0  0  0  0  0
   -2.8352   15.3424   44.4408 C   0  0  0  0  0  0  0  0  0  0  0  0
   -2.0091   14.2663   44.1768 C   0  0  0  0  0  0  0  0  0  0  0  0
   -0.7986   14.4104   43.5157 C   0  0  0  0  0  0  0  0  0  0  0  0
   -0.4282   15.6818   43.0861 C   0  0  0  0  0  0  0  0  0  0  0  0
   -1.5730   19.2462   42.9549 C   0  0  0  0  0  0  0  0  0  0  0  0
    2.6082   17.8334   40.2999 C   0  0  0  0  0  0  0  0  0  0  0  0
    3.4148   17.0885   39.4376 C   0  0  0  0  0  0  0  0  0  0  0  0
    1.5563   19.9654   40.9076 N   0  0  0  0  0  0  0  0  0  0  0  0
    0.3347   18.2287   42.0191 N   0  0  0  0  0  0  0  0  0  0  0  0
    5.2553   17.4206   36.3027 O   0  0  0  0  0  0  0  0  0  0  0  0
    5.0506   15.6132   37.6206 O   0  0  0  0  0  0  0  0  0  0  0  0
    3.4426   15.7192   39.5561 O   0  0  0  0  0  0  0  0  0  0  0  0
   -0.8768   20.5489   42.0684 S   0  0  0  0  0  0  0  0  0  0  0  0
   -2.4915   12.6839   44.6916 Cl  0  0  0  0  0  0  0  0  0  0  0  0
    4.5596   19.5382   37.4282 H   0  0  0  0  0  0  0  0  0  0  0  0
    2.9229   20.8518   38.7582 H   0  0  0  0  0  0  0  0  0  0  0  0
   -3.1169   17.4630   44.1658 H   0  0  0  0  0  0  0  0  0  0  0  0
   -3.7763   15.2049   44.9935 H   0  0  0  0  0  0  0  0  0  0  0  0
   -0.1475   13.5423   43.3354 H   0  0  0  0  0  0  0  0  0  0  0  0
    0.5207   15.8115   42.5451 H   0  0  0  0  0  0  0  0  0  0  0  0
   -2.4936   19.3206   43.5524 H   0  0  0  0  0  0  0  0  0  0  0  0
    2.0676   17.3339   41.1174 H   0  0  0  0  0  0  0  0  0  0  0  0
    1.6899   20.9861   40.8735 H   0  0  0  0  0  0  0  0  0  0  0  0
  1  2  1  0
  1 19  1  0
  1 20  2  0
  2  3  1  0
  2 16  2  0
  3  4  2  0
  4  5  1  0
  5 15  2  0
  5 17  1  0
  6 17  1  0
  6 18  2  0
  6 22  1  0
  7  8  1  0
  7 14  2  0
  7 18  1  0
  8  9  1  0
  8 13  2  0
  9 10  2  0
 10 11  1  0
 11 12  2  0
 11 23  1  0
 12 13  1  0
 14 22  1  0
 15 16  1  0
 16 21  1  0
  3 24  1  0
  4 25  1  0
  9 26  1  0
 10 27  1  0
 12 28  1  0
 13 29  1  0
 14 30  1  0
 15 31  1  0
 17 32  1  0
M  CHG  2  19  -1  21  -1
M  END
>  <mol_id>  (65) 
2026-08-23-6tgu-s0-n100-r2-0065

>  <rmsd_to_ref>  (65) 
3.3928571428601266

$$$$
6tgu.A
     RDKit          3D

 32 34  0  0  0  0  0  0  0  0999 V2000
    4.4638   22.6721   40.5690 C   0  0  0  0  0  0  0  0  0  0  0  0
    4.1094   21.2618   40.4693 C   0  0  0  0  0  0  0  0  0  0  0  0
    2.9730   20.7861   41.0894 C   0  0  0  0  0  0  0  0  0  0  0  0
    2.6355   19.4379   40.9935 C   0  0  0  0  0  0  0  0  0  0  0  0
    3.3950   18.5296   40.2935 C   0  0  0  0  0  0  0  0  0  0  0  0
    1.8600   16.5290   40.2203 C   0  0  0  0  0  0  0  0  0  0  0  0
    0.1898   15.0245   40.2621 C   0  0  0  0  0  0  0  0  0  0  0  0
   -0.2105   13.6110   40.1952 C   0  0  0  0  0  0  0  0  0  0  0  0
    0.6933   12.5820   40.0379 C   0  0  0  0  0  0  0  0  0  0  0  0
    0.3169   11.2580   39.9745 C   0  0  0  0  0  0  0  0  0  0  0  0
   -1.0156   10.9435   40.0715 C   0  0  0  0  0  0  0  0  0  0  0  0
   -1.9539   11.9446   40.2299 C   0  0  0  0  0  0  0  0  0  0  0  0
   -1.5399   13.2591   40.2892 C   0  0  0  0  0  0  0  0  0  0  0  0
   -0.6924   16.0408   40.4173 C   0  0  0  0  0  0  0  0  0  0  0  0
    4.5331   19.0430   39.6813 C   0  0  0  0  0  0  0  0  0  0  0  0
    4.8876   20.3715   39.7622 C   0  0  0  0  0  0  0  0  0  0  0  0
    3.1250   17.1754   40.1308 N   0  0  0  0  0  0  0  0  0  0  0  0
    1.4405   15.4310   40.1780 N   0  0  0  0  0  0  0  0  0  0  0  0
    3.6640   23.5364   41.2850 O   0  0  0  0  0  0  0  0  0  0  0  0
    5.5058   23.0842   39.9938 O   0  0  0  0  0  0  0  0  0  0  0  0
    6.0314   20.8680   39.1425 O   0  0  0  0  0  0  0  0  0  0  0  0
    0.2800   17.4997   40.4359 S   0  0  0  0  0  0  0  0  0  0  0  0
   -1.5779    9.2996   40.0014 Cl  0  0  0  0  0  0  0  0  0  0  0  0
    2.3651   21.4903   41.6440 H   0  0  0  0  0  0  0  0  0  0  0  0
    1.7445   19.1420   41.5120 H   0  0  0  0  0  0  0  0  0  0  0  0
    1.7433   12.8183   39.9606 H   0  0  0  0  0  0  0  0  0  0  0  0
    1.0458   10.4570   39.8497 H   0  0  0  0  0  0  0  0  0  0  0  0
   -2.9937   11.7069   40.3061 H   0  0  0  0  0  0  0  0  0  0  0  0
   -2.3204   14.0137   40.4151 H   0  0  0  0  0  0  0  0  0  0  0  0
   -1.8538   15.9961   40.5199 H   0  0  0  0  0  0  0  0  0  0  0  0
    5.1770   18.3763   39.1129 H   0  0  0  0  0  0  0  0  0  0  0  0
    3.9317   16.5174   39.9154 H   0  0  0  0  0  0  0  0  0  0  0  0
  1  2  1  0
  1 19  1  0
  1 20  2  0
  2  3  1  0
  2 16  2  0
  3  4  2  0
  4  5  1  0
  5 15  2  0
  5 17  1  0
  6 17  1  0
  6 18  2  0
  6 22  1  0
  7  8  1  0
  7 14  2  0
  7 18  1  0
  8  9  1  0
  8 13  2  0
  9 10  2  0
 10 11  1  0
 11 12  2  0
 11 23  1  0
 12 13  1  0
 14 22  1  0
 15 16  1  0
 16 21  1  0
  3 24  1  0
  4 25  1  0
  9 26  1  0
 10 27  1  0
 12 28  1  0
 13 29  1  0
 14 30  1  0
 15 31  1  0
 17 32  1  0
M  CHG  2  19  -1  21  -1
M  END
>  <mol_id>  (66) 
2026-08-23-6tgu-s0-n100-r2-0066

>  <rmsd_to_ref>  (66) 
3.4387755102056423

$$$$
6tgu.A
     RDKit          3D

 32 34  0  0  0  0  0  0  0  0999 V2000
    2.1841   16.1417   35.8780 C   0  0  0  0  0  0  0  0  0  0  0  0
    1.6140   17.0296   36.9876 C   0  0  0  0  0  0  0  0  0  0  0  0
    0.7225   18.0562   36.6842 C   0  0  0  0  0  0  0  0  0  0  0  0
    0.0371   18.7618   37.6786 C   0  0  0  0  0  0  0  0  0  0  0  0
    0.3628   18.5705   39.0292 C   0  0  0  0  0  0  0  0  0  0  0  0
   -0.5793   18.9031   41.3670 C   0  0  0  0  0  0  0  0  0  0  0  0
   -0.3279   17.7498   43.3118 C   0  0  0  0  0  0  0  0  0  0  0  0
    0.2763   16.7511   44.1943 C   0  0  0  0  0  0  0  0  0  0  0  0
   -0.2306   16.4867   45.4746 C   0  0  0  0  0  0  0  0  0  0  0  0
    0.3386   15.5089   46.2844 C   0  0  0  0  0  0  0  0  0  0  0  0
    1.3923   14.7660   45.7861 C   0  0  0  0  0  0  0  0  0  0  0  0
    1.9210   14.9902   44.5239 C   0  0  0  0  0  0  0  0  0  0  0  0
    1.3449   15.9807   43.7332 C   0  0  0  0  0  0  0  0  0  0  0  0
   -1.4105   18.5172   43.6517 C   0  0  0  0  0  0  0  0  0  0  0  0
    1.2499   17.5338   39.3525 C   0  0  0  0  0  0  0  0  0  0  0  0
    1.8574   16.7948   38.3356 C   0  0  0  0  0  0  0  0  0  0  0  0
   -0.3709   19.2352   40.0593 N   0  0  0  0  0  0  0  0  0  0  0  0
    0.1170   17.8802   41.9749 N   0  0  0  0  0  0  0  0  0  0  0  0
    1.6793   16.2837   34.7255 O   0  0  0  0  0  0  0  0  0  0  0  0
    3.0414   15.2954   36.2133 O   0  0  0  0  0  0  0  0  0  0  0  0
    2.6424   15.7153   38.6645 O   0  0  0  0  0  0  0  0  0  0  0  0
   -1.9612   19.4379   42.3038 S   0  0  0  0  0  0  0  0  0  0  0  0
    2.0849   13.5174   46.7674 Cl  0  0  0  0  0  0  0  0  0  0  0  0
    0.5524   18.3201   35.6300 H   0  0  0  0  0  0  0  0  0  0  0  0
   -0.7590   19.4681   37.4007 H   0  0  0  0  0  0  0  0  0  0  0  0
   -1.0922   17.0617   45.8448 H   0  0  0  0  0  0  0  0  0  0  0  0
   -0.0423   15.3306   47.3008 H   0  0  0  0  0  0  0  0  0  0  0  0
    2.7738   14.4004   44.1567 H   0  0  0  0  0  0  0  0  0  0  0  0
    1.7408   16.1602   42.7227 H   0  0  0  0  0  0  0  0  0  0  0  0
   -1.8673   18.5422   44.6520 H   0  0  0  0  0  0  0  0  0  0  0  0
    1.4668   17.3030   40.4059 H   0  0  0  0  0  0  0  0  0  0  0  0
   -0.8191   20.1147   39.7652 H   0  0  0  0  0  0  0  0  0  0  0  0
  1  2  1  0
  1 19  1  0
  1 20  2  0
  2  3  1  0
  2 16  2  0
  3  4  2  0
  4  5  1  0
  5 15  2  0
  5 17  1  0
  6 17  1  0
  6 18  2  0
  6 22  1  0
  7  8  1  0
  7 14  2  0
  7 18  1  0
  8  9  1  0
  8 13  2  0
  9 10  2  0
 10 11  1  0
 11 12  2  0
 11 23  1  0
 12 13  1  0
 14 22  1  0
 15 16  1  0
 16 21  1  0
  3 24  1  0
  4 25  1  0
  9 26  1  0
 10 27  1  0
 12 28  1  0
 13 29  1  0
 14 30  1  0
 15 31  1  0
 17 32  1  0
M  CHG  2  19  -1  21  -1
M  END
>  <mol_id>  (67) 
2026-08-23-6tgu-s0-n100-r2-0067

>  <rmsd_to_ref>  (67) 
3.4846938775552383

$$$$
6tgu.A
     RDKit          3D

 32 34  0  0  0  0  0  0  0  0999 V2000
    4.0226   17.0250   36.7940 C   0  0  0  0  0  0  0  0  0  0  0  0
    2.9173   17.3570   37.6955 C   0  0  0  0  0  0  0  0  0  0  0  0
    3.0664   17.2035   39.0604 C   0  0  0  0  0  0  0  0  0  0  0  0
    2.0272   17.5142   39.9363 C   0  0  0  0  0  0  0  0  0  0  0  0
    0.8186   17.9865   39.4379 C   0  0  0  0  0  0  0  0  0  0  0  0
    0.0625   18.0945   41.7377 C   0  0  0  0  0  0  0  0  0  0  0  0
    0.3043   17.2651   43.8359 C   0  0  0  0  0  0  0  0  0  0  0  0
    0.1374   16.1262   44.7791 C   0  0  0  0  0  0  0  0  0  0  0  0
    0.5121   16.2252   46.0980 C   0  0  0  0  0  0  0  0  0  0  0  0
    0.3452   15.1559   46.9483 C   0  0  0  0  0  0  0  0  0  0  0  0
   -0.1949   13.9594   46.5250 C   0  0  0  0  0  0  0  0  0  0  0  0
   -0.5758   13.8442   45.2054 C   0  0  0  0  0  0  0  0  0  0  0  0
   -0.4008   14.9262   44.3687 C   0  0  0  0  0  0  0  0  0  0  0  0
    0.8461   18.4560   44.2876 C   0  0  0  0  0  0  0  0  0  0  0  0
    0.6503   18.1471   38.0680 C   0  0  0  0  0  0  0  0  0  0  0  0
    1.7057   17.8271   37.2411 C   0  0  0  0  0  0  0  0  0  0  0  0
   -0.2160   18.2928   40.3720 N   0  0  0  0  0  0  0  0  0  0  0  0
   -0.0323   17.2153   42.5937 N   0  0  0  0  0  0  0  0  0  0  0  0
    3.8053   17.2037   35.4312 O   0  0  0  0  0  0  0  0  0  0  0  0
    5.1040   16.5997   37.2723 O   0  0  0  0  0  0  0  0  0  0  0  0
    1.5216   17.9947   35.8578 O   0  0  0  0  0  0  0  0  0  0  0  0
    0.8277   19.5078   42.7504 S   0  0  0  0  0  0  0  0  0  0  0  0
   -0.3633   12.6668   47.6846 Cl  0  0  0  0  0  0  0  0  0  0  0  0
    4.0070   16.8337   39.4799 H   0  0  0  0  0  0  0  0  0  0  0  0
    2.2027   17.3739   40.9923 H   0  0  0  0  0  0  0  0  0  0  0  0
    0.9463   17.1595   46.4755 H   0  0  0  0  0  0  0  0  0  0  0  0
    0.6677   15.3125   47.9829 H   0  0  0  0  0  0  0  0  0  0  0  0
   -0.9911   12.9162   44.8912 H   0  0  0  0  0  0  0  0  0  0  0  0
   -0.7172   14.7941   43.3217 H   0  0  0  0  0  0  0  0  0  0  0  0
    1.2022   18.7972   45.1998 H   0  0  0  0  0  0  0  0  0  0  0  0
   -0.2843   18.5127   37.6739 H   0  0  0  0  0  0  0  0  0  0  0  0
   -1.1397   18.6510   40.0243 H   0  0  0  0  0  0  0  0  0  0  0  0
  1  2  1  0
  1 19  1  0
  1 20  2  0
  2  3  1  0
  2 16  2  0
  3  4  2  0
  4  5  1  0
  5 15  2  0
  5 17  1  0
  6 17  1  0
  6 18  2  0
  6 22  1  0
  7  8  1  0
  7 14  2  0
  7 18  1  0
  8  9  1  0
  8 13  2  0
  9 10  2  0
 10 11  1  0
 11 12  2  0
 11 23  1  0
 12 13  1  0
 14 22  1  0
 15 16  1  0
 16 21  1  0
  3 24  1  0
  4 25  1  0
  9 26  1  0
 10 27  1  0
 12 28  1  0
 13 29  1  0
 14 30  1  0
 15 31  1  0
 17 32  1  0
M  CHG  2  19  -1  21  -1
M  END
>  <mol_id>  (68) 
2026-08-23-6tgu-s0-n100-r2-0068

>  <rmsd_to_ref>  (68) 
3.5306122449029416

$$$$
6tgu.A
     RDKit          3D

 32 34  0  0  0  0  0  0  0  0999 V2000
    2.0230   15.5801   34.8235 C   0  0  0  0  0  0  0  0  0  0  0  0
    1.6365   16.5172   35.9712 C   0  0  0  0  0  0  0  0  0  0  0  0
    0.7934   17.6028   35.7444 C   0  0  0  0  0  0  0  0  0  0  0  0
    0.2675   18.3655   36.7924 C   0  0  0  0  0  0  0  0  0  0  0  0
    0.7181   18.1638   38.1050 C   0  0  0  0  0  0  0  0  0  0  0  0
    0.0514   18.5856   40.5218 C   0  0  0  0  0  0  0  0  0  0  0  0
    0.4221   17.4354   42.4493 C   0  0  0  0  0  0  0  0  0  0  0  0
    1.0426   16.4039   43.2812 C   0  0  0  0  0  0  0  0  0  0  0  0
    0.6547   16.1889   44.6114 C   0  0  0  0  0  0  0  0  0  0  0  0
    1.2346   15.1800   45.3743 C   0  0  0  0  0  0  0  0  0  0  0  0
    2.1750   14.3582   44.7822 C   0  0  0  0  0  0  0  0  0  0  0  0
    2.5835   14.5317   43.4684 C   0  0  0  0  0  0  0  0  0  0  0  0
    1.9998   15.5539   42.7250 C   0  0  0  0  0  0  0  0  0  0  0  0
   -0.5618   18.2823   42.8865 C   0  0  0  0  0  0  0  0  0  0  0  0
    1.5582   17.0687   38.3521 C   0  0  0  0  0  0  0  0  0  0  0  0
    2.0021   16.2782   37.2905 C   0  0  0  0  0  0  0  0  0  0  0  0
    0.1451   18.8895   39.1942 N   0  0  0  0  0  0  0  0  0  0  0  0
    0.7330   17.5207   41.0716 N   0  0  0  0  0  0  0  0  0  0  0  0
    1.4120   15.7474   33.7273 O   0  0  0  0  0  0  0  0  0  0  0  0
    2.8484   14.6771   35.0826 O   0  0  0  0  0  0  0  0  0  0  0  0
    2.7385   15.1478   37.5545 O   0  0  0  0  0  0  0  0  0  0  0  0
   -1.1836   19.2278   41.5875 S   0  0  0  0  0  0  0  0  0  0  0  0
    2.8758   13.0719   45.7074 Cl  0  0  0  0  0  0  0  0  0  0  0  0
    0.5333   17.8685   34.7091 H   0  0  0  0  0  0  0  0  0  0  0  0
   -0.5011   19.1250   36.5865 H   0  0  0  0  0  0  0  0  0  0  0  0
   -0.1204   16.8282   45.0591 H   0  0  0  0  0  0  0  0  0  0  0  0
    0.9502   15.0393   46.4275 H   0  0  0  0  0  0  0  0  0  0  0  0
    3.3492   13.8783   43.0249 H   0  0  0  0  0  0  0  0  0  0  0  0
    2.2997   15.6947   41.6761 H   0  0  0  0  0  0  0  0  0  0  0  0
   -0.9087   18.3497   43.9282 H   0  0  0  0  0  0  0  0  0  0  0  0
    1.8670   16.8327   39.3812 H   0  0  0  0  0  0  0  0  0  0  0  0
   -0.2678   19.7963   38.9333 H   0  0  0  0  0  0  0  0  0  0  0  0
  1  2  1  0
  1 19  1  0
  1 20  2  0
  2  3  1  0
  2 16  2  0
  3  4  2  0
  4  5  1  0
  5 15  2  0
  5 17  1  0
  6 17  1  0
  6 18  2  0
  6 22  1  0
  7  8  1  0
  7 14  2  0
  7 18  1  0
  8  9  1  0
  8 13  2  0
  9 10  2  0
 10 11  1  0
 11 12  2  0
 11 23  1  0
 12 13  1  0
 14 22  1  0
 15 16  1  0
 16 21  1  0
  3 24  1  0
  4 25  1  0
  9 26  1  0
 10 27  1  0
 12 28  1  0
 13 29  1  0
 14 30  1  0
 15 31  1  0
 17 32  1  0
M  CHG  2  19  -1  21  -1
M  END
>  <mol_id>  (69) 
2026-08-23-6tgu-s0-n100-r2-0069

>  <rmsd_to_ref>  (69) 
3.5765306122548894

$$$$
6tgu.A
     RDKit          3D

 32 34  0  0  0  0  0  0  0  0999 V2000
    7.1418   18.0708   37.3227 C   0  0  0  0  0  0  0  0  0  0  0  0
    5.9084   18.2241   38.0811 C   0  0  0  0  0  0  0  0  0  0  0  0
    5.8444   18.8003   39.3322 C   0  0  0  0  0  0  0  0  0  0  0  0
    4.6534   18.9334   40.0404 C   0  0  0  0  0  0  0  0  0  0  0  0
    3.5169   18.4600   39.4374 C   0  0  0  0  0  0  0  0  0  0  0  0
    2.0842   17.7076   41.2340 C   0  0  0  0  0  0  0  0  0  0  0  0
    1.3337   16.3539   42.9090 C   0  0  0  0  0  0  0  0  0  0  0  0
    0.2723   15.4437   43.4307 C   0  0  0  0  0  0  0  0  0  0  0  0
    0.3785   14.8323   44.6440 C   0  0  0  0  0  0  0  0  0  0  0  0
   -0.5912   14.0016   45.1430 C   0  0  0  0  0  0  0  0  0  0  0  0
   -1.7375   13.7777   44.3650 C   0  0  0  0  0  0  0  0  0  0  0  0
   -1.8676   14.3814   43.1355 C   0  0  0  0  0  0  0  0  0  0  0  0
   -0.8771   15.2047   42.6713 C   0  0  0  0  0  0  0  0  0  0  0  0
    2.4915   16.6037   43.6884 C   0  0  0  0  0  0  0  0  0  0  0  0
    3.5771   17.8748   38.1638 C   0  0  0  0  0  0  0  0  0  0  0  0
    4.7546   17.7470   37.4733 C   0  0  0  0  0  0  0  0  0  0  0  0
    2.2201   18.4609   40.0200 N   0  0  0  0  0  0  0  0  0  0  0  0
    1.2796   16.9367   41.7863 N   0  0  0  0  0  0  0  0  0  0  0  0
    8.3656   18.5222   37.8304 O   0  0  0  0  0  0  0  0  0  0  0  0
    7.0975   17.5128   36.1750 O   0  0  0  0  0  0  0  0  0  0  0  0
    4.7501   17.1586   36.2200 O   0  0  0  0  0  0  0  0  0  0  0  0
    3.4106   17.7626   42.5526 S   0  0  0  0  0  0  0  0  0  0  0  0
   -3.0161   12.7246   44.9525 Cl  0  0  0  0  0  0  0  0  0  0  0  0
    6.7768   19.1637   39.7713 H   0  0  0  0  0  0  0  0  0  0  0  0
    4.5892   19.3837   41.0115 H   0  0  0  0  0  0  0  0  0  0  0  0
    1.2679   15.0103   45.2328 H   0  0  0  0  0  0  0  0  0  0  0  0
   -0.4734   13.5393   46.0918 H   0  0  0  0  0  0  0  0  0  0  0  0
   -2.7744   14.1925   42.5486 H   0  0  0  0  0  0  0  0  0  0  0  0
   -0.9695   15.6865   41.7139 H   0  0  0  0  0  0  0  0  0  0  0  0
    2.8365   16.2893   44.6408 H   0  0  0  0  0  0  0  0  0  0  0  0
    2.6595   17.4918   37.6890 H   0  0  0  0  0  0  0  0  0  0  0  0
    1.4005   18.9661   39.6278 H   0  0  0  0  0  0  0  0  0  0  0  0
  1  2  1  0
  1 19  1  0
  1 20  2  0
  2  3  1  0
  2 16  2  0
  3  4  2  0
  4  5  1  0
  5 15  2  0
  5 17  1  0
  6 17  1  0
  6 18  2  0
  6 22  1  0
  7  8  1  0
  7 14  2  0
  7 18  1  0
  8  9  1  0
  8 13  2  0
  9 10  2  0
 10 11  1  0
 11 12  2  0
 11 23  1  0
 12 13  1  0
 14 22  1  0
 15 16  1  0
 16 21  1  0
  3 24  1  0
  4 25  1  0
  9 26  1  0
 10 27  1  0
 12 28  1  0
 13 29  1  0
 14 30  1  0
 15 31  1  0
 17 32  1  0
M  CHG  2  19  -1  21  -1
M  END
>  <mol_id>  (70) 
2026-08-23-6tgu-s0-n100-r2-0070

>  <rmsd_to_ref>  (70) 
3.6224489795952426

$$$$
6tgu.A
     RDKit          3D

 32 34  0  0  0  0  0  0  0  0999 V2000
    0.4144   20.4988   37.0872 C   0  0  0  0  0  0  0  0  0  0  0  0
   -0.0867   19.8489   38.3800 C   0  0  0  0  0  0  0  0  0  0  0  0
   -1.4142   19.4439   38.4995 C   0  0  0  0  0  0  0  0  0  0  0  0
   -1.8624   18.6804   39.5824 C   0  0  0  0  0  0  0  0  0  0  0  0
   -1.0172   18.4468   40.6769 C   0  0  0  0  0  0  0  0  0  0  0  0
   -0.7165   16.8805   42.6567 C   0  0  0  0  0  0  0  0  0  0  0  0
    1.1237   16.1045   43.7464 C   0  0  0  0  0  0  0  0  0  0  0  0
    2.5476   16.0581   44.0802 C   0  0  0  0  0  0  0  0  0  0  0  0
    3.0788   15.0838   44.9373 C   0  0  0  0  0  0  0  0  0  0  0  0
    4.4414   15.0375   45.2148 C   0  0  0  0  0  0  0  0  0  0  0  0
    5.2761   15.9468   44.5928 C   0  0  0  0  0  0  0  0  0  0  0  0
    4.7940   16.9231   43.7340 C   0  0  0  0  0  0  0  0  0  0  0  0
    3.4261   16.9602   43.4780 C   0  0  0  0  0  0  0  0  0  0  0  0
    0.1920   15.2314   44.2426 C   0  0  0  0  0  0  0  0  0  0  0  0
    0.3248   18.8381   40.5682 C   0  0  0  0  0  0  0  0  0  0  0  0
    0.7586   19.5305   39.4361 C   0  0  0  0  0  0  0  0  0  0  0  0
   -1.4374   17.6161   41.7607 N   0  0  0  0  0  0  0  0  0  0  0  0
    0.6524   17.0056   42.7625 N   0  0  0  0  0  0  0  0  0  0  0  0
   -0.3834   20.4893   36.1041 O   0  0  0  0  0  0  0  0  0  0  0  0
    1.5945   20.9124   37.0811 O   0  0  0  0  0  0  0  0  0  0  0  0
    2.0956   19.8167   39.2929 O   0  0  0  0  0  0  0  0  0  0  0  0
   -1.3377   15.4663   43.4859 S   0  0  0  0  0  0  0  0  0  0  0  0
    6.9803   15.8753   44.8968 Cl  0  0  0  0  0  0  0  0  0  0  0  0
   -2.1323   19.7335   37.7181 H   0  0  0  0  0  0  0  0  0  0  0  0
   -2.8798   18.2623   39.5755 H   0  0  0  0  0  0  0  0  0  0  0  0
    2.4073   14.3442   45.3979 H   0  0  0  0  0  0  0  0  0  0  0  0
    4.8463   14.2921   45.9150 H   0  0  0  0  0  0  0  0  0  0  0  0
    5.4751   17.6496   43.2669 H   0  0  0  0  0  0  0  0  0  0  0  0
    3.0288   17.7172   42.7859 H   0  0  0  0  0  0  0  0  0  0  0  0
    0.3938   14.4804   45.0206 H   0  0  0  0  0  0  0  0  0  0  0  0
    1.0350   18.5999   41.3738 H   0  0  0  0  0  0  0  0  0  0  0  0
   -2.4582   17.5633   41.8877 H   0  0  0  0  0  0  0  0  0  0  0  0
  1  2  1  0
  1 19  1  0
  1 20  2  0
  2  3  1  0
  2 16  2  0
  3  4  2  0
  4  5  1  0
  5 15  2  0
  5 17  1  0
  6 17  1  0
  6 18  2  0
  6 22  1  0
  7  8  1  0
  7 14  2  0
  7 18  1  0
  8  9  1  0
  8 13  2  0
  9 10  2  0
 10 11  1  0
 11 12  2  0
 11 23  1  0
 12 13  1  0
 14 22  1  0
 15 16  1  0
 16 21  1  0
  3 24  1  0
  4 25  1  0
  9 26  1  0
 10 27  1  0
 12 28  1  0
 13 29  1  0
 14 30  1  0
 15 31  1  0
 17 32  1  0
M  CHG  2  19  -1  21  -1
M  END
>  <mol_id>  (71) 
2026-08-23-6tgu-s0-n100-r2-0071

>  <rmsd_to_ref>  (71) 
3.668367346943798

$$$$
6tgu.A
     RDKit          3D

 32 34  0  0  0  0  0  0  0  0999 V2000
    0.6374   18.5351   35.2855 C   0  0  0  0  0  0  0  0  0  0  0  0
    1.5407   18.3054   36.4083 C   0  0  0  0  0  0  0  0  0  0  0  0
    1.5221   17.0952   37.0642 C   0  0  0  0  0  0  0  0  0  0  0  0
    2.3588   16.8532   38.1240 C   0  0  0  0  0  0  0  0  0  0  0  0
    3.2365   17.8692   38.5249 C   0  0  0  0  0  0  0  0  0  0  0  0
    3.3706   17.2200   40.8840 C   0  0  0  0  0  0  0  0  0  0  0  0
    2.5819   16.5129   42.8590 C   0  0  0  0  0  0  0  0  0  0  0  0
    2.6548   15.5532   43.9873 C   0  0  0  0  0  0  0  0  0  0  0  0
    1.7800   15.6512   45.0444 C   0  0  0  0  0  0  0  0  0  0  0  0
    1.8243   14.7599   46.1200 C   0  0  0  0  0  0  0  0  0  0  0  0
    2.7611   13.7551   46.1326 C   0  0  0  0  0  0  0  0  0  0  0  0
    3.6300   13.6675   45.0706 C   0  0  0  0  0  0  0  0  0  0  0  0
    3.5807   14.5380   44.0292 C   0  0  0  0  0  0  0  0  0  0  0  0
    1.6249   17.5209   42.8564 C   0  0  0  0  0  0  0  0  0  0  0  0
    3.2854   19.0869   37.8972 C   0  0  0  0  0  0  0  0  0  0  0  0
    2.4223   19.3024   36.8233 C   0  0  0  0  0  0  0  0  0  0  0  0
    4.0541   17.5267   39.6557 N   0  0  0  0  0  0  0  0  0  0  0  0
    3.3588   16.5143   41.8039 N   0  0  0  0  0  0  0  0  0  0  0  0
   -0.2260   17.5375   34.8822 O   0  0  0  0  0  0  0  0  0  0  0  0
    0.6267   19.6365   34.6673 O   0  0  0  0  0  0  0  0  0  0  0  0
    2.4213   20.5212   36.1433 O   0  0  0  0  0  0  0  0  0  0  0  0
    1.9371   18.3980   41.3078 S   0  0  0  0  0  0  0  0  0  0  0  0
    2.7913   12.6570   47.4901 Cl  0  0  0  0  0  0  0  0  0  0  0  0
    0.8442   16.2759   36.7671 H   0  0  0  0  0  0  0  0  0  0  0  0
    2.3363   15.8975   38.6344 H   0  0  0  0  0  0  0  0  0  0  0  0
    1.0302   16.4132   45.0904 H   0  0  0  0  0  0  0  0  0  0  0  0
    1.1284   14.8573   46.9414 H   0  0  0  0  0  0  0  0  0  0  0  0
    4.3671   12.8829   45.0758 H   0  0  0  0  0  0  0  0  0  0  0  0
    4.2803   14.4448   43.2048 H   0  0  0  0  0  0  0  0  0  0  0  0
    0.8688   17.7650   43.5676 H   0  0  0  0  0  0  0  0  0  0  0  0
    3.9749   19.8449   38.2379 H   0  0  0  0  0  0  0  0  0  0  0  0
    5.1023   17.5033   39.5888 H   0  0  0  0  0  0  0  0  0  0  0  0
  1  2  1  0
  1 19  1  0
  1 20  2  0
  2  3  1  0
  2 16  2  0
  3  4  2  0
  4  5  1  0
  5 15  2  0
  5 17  1  0
  6 17  1  0
  6 18  2  0
  6 22  1  0
  7  8  1  0
  7 14  2  0
  7 18  1  0
  8  9  1  0
  8 13  2  0
  9 10  2  0
 10 11  1  0
 11 12  2  0
 11 23  1  0
 12 13  1  0
 14 22  1  0
 15 16  1  0
 16 21  1  0
  3 24  1  0
  4 25  1  0
  9 26  1  0
 10 27  1  0
 12 28  1  0
 13 29  1  0
 14 30  1  0
 15 31  1  0
 17 32  1  0
M  CHG  2  19  -1  21  -1
M  END
>  <mol_id>  (72) 
2026-08-23-6tgu-s0-n100-r2-0072

>  <rmsd_to_ref>  (72) 
3.7142857142881542

$$$$
6tgu.A
     RDKit          3D

 32 34  0  0  0  0  0  0  0  0999 V2000
    5.2343   15.3952   37.1207 C   0  0  0  0  0  0  0  0  0  0  0  0
    4.1585   16.2822   37.7536 C   0  0  0  0  0  0  0  0  0  0  0  0
    3.7002   17.4194   37.0921 C   0  0  0  0  0  0  0  0  0  0  0  0
    2.5931   18.1450   37.5439 C   0  0  0  0  0  0  0  0  0  0  0  0
    2.0141   17.8456   38.7857 C   0  0  0  0  0  0  0  0  0  0  0  0
   -0.1382   18.1590   40.1021 C   0  0  0  0  0  0  0  0  0  0  0  0
   -1.1953   16.8821   41.6602 C   0  0  0  0  0  0  0  0  0  0  0  0
   -1.3160   15.7747   42.6090 C   0  0  0  0  0  0  0  0  0  0  0  0
   -2.5137   15.5024   43.2852 C   0  0  0  0  0  0  0  0  0  0  0  0
   -2.6163   14.4237   44.1580 C   0  0  0  0  0  0  0  0  0  0  0  0
   -1.5236   13.5921   44.3159 C   0  0  0  0  0  0  0  0  0  0  0  0
   -0.3220   13.8211   43.6626 C   0  0  0  0  0  0  0  0  0  0  0  0
   -0.2357   14.9122   42.8022 C   0  0  0  0  0  0  0  0  0  0  0  0
   -2.2127   17.7498   41.3625 C   0  0  0  0  0  0  0  0  0  0  0  0
    2.4561   16.6979   39.4590 C   0  0  0  0  0  0  0  0  0  0  0  0
    3.5135   15.9493   38.9387 C   0  0  0  0  0  0  0  0  0  0  0  0
    0.8446   18.5343   39.2319 N   0  0  0  0  0  0  0  0  0  0  0  0
   -0.0198   17.0317   40.8869 N   0  0  0  0  0  0  0  0  0  0  0  0
    5.5480   15.6557   35.9220 O   0  0  0  0  0  0  0  0  0  0  0  0
    5.6567   14.4391   37.8071 O   0  0  0  0  0  0  0  0  0  0  0  0
    3.8691   14.7705   39.5502 O   0  0  0  0  0  0  0  0  0  0  0  0
   -1.7701   18.7985   40.0694 S   0  0  0  0  0  0  0  0  0  0  0  0
   -1.6494   12.2214   45.3679 Cl  0  0  0  0  0  0  0  0  0  0  0  0
    4.2253   17.7571   36.1864 H   0  0  0  0  0  0  0  0  0  0  0  0
    2.1757   18.9521   36.9240 H   0  0  0  0  0  0  0  0  0  0  0  0
   -3.3864   16.1521   43.1230 H   0  0  0  0  0  0  0  0  0  0  0  0
   -3.5484   14.2364   44.7113 H   0  0  0  0  0  0  0  0  0  0  0  0
    0.5410   13.1576   43.8202 H   0  0  0  0  0  0  0  0  0  0  0  0
    0.7046   15.0987   42.2627 H   0  0  0  0  0  0  0  0  0  0  0  0
   -3.1829   17.7737   41.8802 H   0  0  0  0  0  0  0  0  0  0  0  0
    1.9704   16.3877   40.3959 H   0  0  0  0  0  0  0  0  0  0  0  0
    0.7220   19.4740   38.8284 H   0  0  0  0  0  0  0  0  0  0  0  0
  1  2  1  0
  1 19  1  0
  1 20  2  0
  2  3  1  0
  2 16  2  0
  3  4  2  0
  4  5  1  0
  5 15  2  0
  5 17  1  0
  6 17  1  0
  6 18  2  0
  6 22  1  0
  7  8  1  0
  7 14  2  0
  7 18  1  0
  8  9  1  0
  8 13  2  0
  9 10  2  0
 10 11  1  0
 11 12  2  0
 11 23  1  0
 12 13  1  0
 14 22  1  0
 15 16  1  0
 16 21  1  0
  3 24  1  0
  4 25  1  0
  9 26  1  0
 10 27  1  0
 12 28  1  0
 13 29  1  0
 14 30  1  0
 15 31  1  0
 17 32  1  0
M  CHG  2  19  -1  21  -1
M  END
>  <mol_id>  (73) 
2026-08-23-6tgu-s0-n100-r2-0073

>  <rmsd_to_ref>  (73) 
3.760204081642141

$$$$
6tgu.A
     RDKit          3D

 32 34  0  0  0  0  0  0  0  0999 V2000
    3.4645   22.2136   41.5114 C   0  0  0  0  0  0  0  0  0  0  0  0
    3.1750   20.8016   41.2717 C   0  0  0  0  0  0  0  0  0  0  0  0
    1.9617   20.2691   41.6444 C   0  0  0  0  0  0  0  0  0  0  0  0
    1.7026   18.9255   41.4076 C   0  0  0  0  0  0  0  0  0  0  0  0
    2.5834   18.0664   40.8162 C   0  0  0  0  0  0  0  0  0  0  0  0
    1.1699   16.0420   40.3084 C   0  0  0  0  0  0  0  0  0  0  0  0
   -0.4161   14.4939   39.9131 C   0  0  0  0  0  0  0  0  0  0  0  0
   -0.7228   13.0801   39.6997 C   0  0  0  0  0  0  0  0  0  0  0  0
   -2.0284   12.6723   39.4799 C   0  0  0  0  0  0  0  0  0  0  0  0
   -2.3696   11.3522   39.2745 C   0  0  0  0  0  0  0  0  0  0  0  0
   -1.3713   10.3945   39.2880 C   0  0  0  0  0  0  0  0  0  0  0  0
   -0.0385   10.7547   39.5056 C   0  0  0  0  0  0  0  0  0  0  0  0
    0.2337   12.0898   39.7038 C   0  0  0  0  0  0  0  0  0  0  0  0
   -1.4079   15.4755   39.9064 C   0  0  0  0  0  0  0  0  0  0  0  0
    3.8208   18.6345   40.4427 C   0  0  0  0  0  0  0  0  0  0  0  0
    4.0799   19.9684   40.6773 C   0  0  0  0  0  0  0  0  0  0  0  0
    2.4021   16.7246   40.5267 N   0  0  0  0  0  0  0  0  0  0  0  0
    0.7794   14.9773   40.1268 N   0  0  0  0  0  0  0  0  0  0  0  0
    2.5158   23.0178   42.1186 O   0  0  0  0  0  0  0  0  0  0  0  0
    4.5715   22.6988   41.1682 O   0  0  0  0  0  0  0  0  0  0  0  0
    5.3304   20.4429   40.2745 O   0  0  0  0  0  0  0  0  0  0  0  0
   -0.4392   17.0355   40.2239 S   0  0  0  0  0  0  0  0  0  0  0  0
   -1.7428    8.7044   39.0331 Cl  0  0  0  0  0  0  0  0  0  0  0  0
    1.2539   20.9339   42.1131 H   0  0  0  0  0  0  0  0  0  0  0  0
    0.7488   18.5665   41.7298 H   0  0  0  0  0  0  0  0  0  0  0  0
   -2.8430   13.3857   39.4603 H   0  0  0  0  0  0  0  0  0  0  0  0
   -3.3995   11.0625   39.1045 H   0  0  0  0  0  0  0  0  0  0  0  0
    0.7472   10.0115   39.5189 H   0  0  0  0  0  0  0  0  0  0  0  0
    1.2650   12.4008   39.8767 H   0  0  0  0  0  0  0  0  0  0  0  0
   -2.4570   15.4651   39.7696 H   0  0  0  0  0  0  0  0  0  0  0  0
    4.5707   18.0129   39.9670 H   0  0  0  0  0  0  0  0  0  0  0  0
    3.2560   16.0915   40.4498 H   0  0  0  0  0  0  0  0  0  0  0  0
  1  2  1  0
  1 19  1  0
  1 20  2  0
  2  3  1  0
  2 16  2  0
  3  4  2  0
  4  5  1  0
  5 15  2  0
  5 17  1  0
  6 17  1  0
  6 18  2  0
  6 22  1  0
  7  8  1  0
  7 14  2  0
  7 18  1  0
  8  9  1  0
  8 13  2  0
  9 10  2  0
 10 11  1  0
 11 12  2  0
 11 23  1  0
 12 13  1  0
 14 22  1  0
 15 16  1  0
 16 21  1  0
  3 24  1  0
  4 25  1  0
  9 26  1  0
 10 27  1  0
 12 28  1  0
 13 29  1  0
 14 30  1  0
 15 31  1  0
 17 32  1  0
M  CHG  2  19  -1  21  -1
M  END
>  <mol_id>  (74) 
2026-08-23-6tgu-s0-n100-r2-0074

>  <rmsd_to_ref>  (74) 
3.806122448985805

$$$$
6tgu.A
     RDKit          3D

 32 34  0  0  0  0  0  0  0  0999 V2000
   -0.4258   16.6240   36.0241 C   0  0  0  0  0  0  0  0  0  0  0  0
    0.0232   17.5605   37.1492 C   0  0  0  0  0  0  0  0  0  0  0  0
   -0.2762   18.9201   37.0996 C   0  0  0  0  0  0  0  0  0  0  0  0
   -0.0526   19.7694   38.1882 C   0  0  0  0  0  0  0  0  0  0  0  0
    0.6480   19.3053   39.3110 C   0  0  0  0  0  0  0  0  0  0  0  0
    1.0311   19.8266   41.7696 C   0  0  0  0  0  0  0  0  0  0  0  0
    1.4376   18.5126   43.5818 C   0  0  0  0  0  0  0  0  0  0  0  0
    1.7633   17.2623   44.2686 C   0  0  0  0  0  0  0  0  0  0  0  0
    1.7589   17.1594   45.6670 C   0  0  0  0  0  0  0  0  0  0  0  0
    2.0389   15.9519   46.2990 C   0  0  0  0  0  0  0  0  0  0  0  0
    2.2803   14.8360   45.5199 C   0  0  0  0  0  0  0  0  0  0  0  0
    2.2889   14.8916   44.1343 C   0  0  0  0  0  0  0  0  0  0  0  0
    2.0177   16.1115   43.5208 C   0  0  0  0  0  0  0  0  0  0  0  0
    1.1222   19.6800   44.2252 C   0  0  0  0  0  0  0  0  0  0  0  0
    0.9470   17.9372   39.3817 C   0  0  0  0  0  0  0  0  0  0  0  0
    0.6379   17.1005   38.3077 C   0  0  0  0  0  0  0  0  0  0  0  0
    0.8284   20.1399   40.4564 N   0  0  0  0  0  0  0  0  0  0  0  0
    1.3051   18.5371   42.1732 N   0  0  0  0  0  0  0  0  0  0  0  0
   -1.2087   17.1153   35.1587 O   0  0  0  0  0  0  0  0  0  0  0  0
   -0.0505   15.4332   36.0940 O   0  0  0  0  0  0  0  0  0  0  0  0
    0.8395   15.7461   38.4293 O   0  0  0  0  0  0  0  0  0  0  0  0
    0.6111   20.8836   43.1036 S   0  0  0  0  0  0  0  0  0  0  0  0
    2.5901   13.3165   46.2925 Cl  0  0  0  0  0  0  0  0  0  0  0  0
   -0.7016   19.3388   36.1756 H   0  0  0  0  0  0  0  0  0  0  0  0
   -0.4272   20.8033   38.1637 H   0  0  0  0  0  0  0  0  0  0  0  0
    1.5304   18.0477   46.2742 H   0  0  0  0  0  0  0  0  0  0  0  0
    2.0676   15.8866   47.3967 H   0  0  0  0  0  0  0  0  0  0  0  0
    2.5045   13.9946   43.5352 H   0  0  0  0  0  0  0  0  0  0  0  0
    2.0035   16.1697   42.4225 H   0  0  0  0  0  0  0  0  0  0  0  0
    1.1867   19.8292   45.3131 H   0  0  0  0  0  0  0  0  0  0  0  0
    1.4244   17.5237   40.2823 H   0  0  0  0  0  0  0  0  0  0  0  0
    0.8009   21.1502   40.2576 H   0  0  0  0  0  0  0  0  0  0  0  0
  1  2  1  0
  1 19  1  0
  1 20  2  0
  2  3  1  0
  2 16  2  0
  3  4  2  0
  4  5  1  0
  5 15  2  0
  5 17  1  0
  6 17  1  0
  6 18  2  0
  6 22  1  0
  7  8  1  0
  7 14  2  0
  7 18  1  0
  8  9  1  0
  8 13  2  0
  9 10  2  0
 10 11  1  0
 11 12  2  0
 11 23  1  0
 12 13  1  0
 14 22  1  0
 15 16  1  0
 16 21  1  0
  3 24  1  0
  4 25  1  0
  9 26  1  0
 10 27  1  0
 12 28  1  0
 13 29  1  0
 14 30  1  0
 15 31  1  0
 17 32  1  0
M  CHG  2  19  -1  21  -1
M  END
>  <mol_id>  (75) 
2026-08-23-6tgu-s0-n100-r2-0075

>  <rmsd_to_ref>  (75) 
3.852040816327746

$$$$
6tgu.A
     RDKit          3D

 32 34  0  0  0  0  0  0  0  0999 V2000
    4.3081   18.2390   34.7898 C   0  0  0  0  0  0  0  0  0  0  0  0
    3.9988   18.4477   36.1896 C   0  0  0  0  0  0  0  0  0  0  0  0
    3.2500   17.5734   36.9591 C   0  0  0  0  0  0  0  0  0  0  0  0
    2.9843   17.8475   38.3103 C   0  0  0  0  0  0  0  0  0  0  0  0
    3.4509   18.9883   38.9250 C   0  0  0  0  0  0  0  0  0  0  0  0
    2.8292   18.4861   41.3155 C   0  0  0  0  0  0  0  0  0  0  0  0
    1.9611   17.1750   42.9340 C   0  0  0  0  0  0  0  0  0  0  0  0
    0.7731   16.5380   43.5343 C   0  0  0  0  0  0  0  0  0  0  0  0
   -0.4973   16.7194   42.9677 C   0  0  0  0  0  0  0  0  0  0  0  0
   -1.5917   16.1185   43.5433 C   0  0  0  0  0  0  0  0  0  0  0  0
   -1.4618   15.3280   44.6864 C   0  0  0  0  0  0  0  0  0  0  0  0
   -0.2147   15.1404   45.2553 C   0  0  0  0  0  0  0  0  0  0  0  0
    0.9128   15.7484   44.6789 C   0  0  0  0  0  0  0  0  0  0  0  0
    3.2280   17.0110   43.4690 C   0  0  0  0  0  0  0  0  0  0  0  0
    4.2066   19.8602   38.1265 C   0  0  0  0  0  0  0  0  0  0  0  0
    4.4703   19.5964   36.8039 C   0  0  0  0  0  0  0  0  0  0  0  0
    3.2363   19.3368   40.2680 N   0  0  0  0  0  0  0  0  0  0  0  0
    1.9509   17.9379   41.8658 N   0  0  0  0  0  0  0  0  0  0  0  0
    3.9016   17.1437   34.0464 O   0  0  0  0  0  0  0  0  0  0  0  0
    4.9994   19.1201   34.2066 O   0  0  0  0  0  0  0  0  0  0  0  0
    5.2310   20.5317   36.1055 O   0  0  0  0  0  0  0  0  0  0  0  0
    4.3175   17.9435   42.4329 S   0  0  0  0  0  0  0  0  0  0  0  0
   -2.8714   14.5602   45.4119 Cl  0  0  0  0  0  0  0  0  0  0  0  0
    2.8700   16.6686   36.4854 H   0  0  0  0  0  0  0  0  0  0  0  0
    2.3886   17.1440   38.8884 H   0  0  0  0  0  0  0  0  0  0  0  0
   -0.6266   17.3330   42.0810 H   0  0  0  0  0  0  0  0  0  0  0  0
   -2.6017   16.2224   43.1423 H   0  0  0  0  0  0  0  0  0  0  0  0
   -0.0602   14.5289   46.1493 H   0  0  0  0  0  0  0  0  0  0  0  0
    1.8491   15.5724   45.1533 H   0  0  0  0  0  0  0  0  0  0  0  0
    3.5347   16.4051   44.3985 H   0  0  0  0  0  0  0  0  0  0  0  0
    4.5868   20.7502   38.5686 H   0  0  0  0  0  0  0  0  0  0  0  0
    3.3930   20.3578   40.5460 H   0  0  0  0  0  0  0  0  0  0  0  0
  1  2  1  0
  1 19  1  0
  1 20  2  0
  2  3  1  0
  2 16  2  0
  3  4  2  0
  4  5  1  0
  5 15  2  0
  5 17  1  0
  6 17  1  0
  6 18  2  0
  6 22  1  0
  7  8  1  0
  7 14  2  0
  7 18  1  0
  8  9  1  0
  8 13  2  0
  9 10  2  0
 10 11  1  0
 11 12  2  0
 11 23  1  0
 12 13  1  0
 14 22  1  0
 15 16  1  0
 16 21  1  0
  3 24  1  0
  4 25  1  0
  9 26  1  0
 10 27  1  0
 12 28  1  0
 13 29  1  0
 14 30  1  0
 15 31  1  0
 17 32  1  0
M  CHG  2  19  -1  21  -1
M  END
>  <mol_id>  (76) 
2026-08-23-6tgu-s0-n100-r2-0076

>  <rmsd_to_ref>  (76) 
3.897959183677043

$$$$
6tgu.A
     RDKit          3D

 32 34  0  0  0  0  0  0  0  0999 V2000
   -0.1552   16.3000   36.5322 C   0  0  0  0  0  0  0  0  0  0  0  0
    0.5734   17.0990   37.6163 C   0  0  0  0  0  0  0  0  0  0  0  0
    0.2212   18.4213   37.8775 C   0  0  0  0  0  0  0  0  0  0  0  0
    0.7272   19.1204   38.9782 C   0  0  0  0  0  0  0  0  0  0  0  0
    1.7485   18.5602   39.7592 C   0  0  0  0  0  0  0  0  0  0  0  0
    2.8286   18.7518   42.0527 C   0  0  0  0  0  0  0  0  0  0  0  0
    3.8078   17.2293   43.4306 C   0  0  0  0  0  0  0  0  0  0  0  0
    4.3714   15.9251   43.7807 C   0  0  0  0  0  0  0  0  0  0  0  0
    4.7889   15.6215   45.0844 C   0  0  0  0  0  0  0  0  0  0  0  0
    5.2909   14.3635   45.4029 C   0  0  0  0  0  0  0  0  0  0  0  0
    5.3309   13.3962   44.4165 C   0  0  0  0  0  0  0  0  0  0  0  0
    4.9229   13.6517   43.1159 C   0  0  0  0  0  0  0  0  0  0  0  0
    4.4344   14.9200   42.8143 C   0  0  0  0  0  0  0  0  0  0  0  0
    3.6547   18.2608   44.3189 C   0  0  0  0  0  0  0  0  0  0  0  0
    2.1069   17.2265   39.5166 C   0  0  0  0  0  0  0  0  0  0  0  0
    1.5233   16.5304   38.4565 C   0  0  0  0  0  0  0  0  0  0  0  0
    2.2309   19.2331   40.9235 N   0  0  0  0  0  0  0  0  0  0  0  0
    3.2596   17.4455   42.1442 N   0  0  0  0  0  0  0  0  0  0  0  0
   -1.1790   16.8429   36.0222 O   0  0  0  0  0  0  0  0  0  0  0  0
    0.2691   15.1477   36.2956 O   0  0  0  0  0  0  0  0  0  0  0  0
    1.8035   15.1946   38.2923 O   0  0  0  0  0  0  0  0  0  0  0  0
    2.7863   19.5659   43.6047 S   0  0  0  0  0  0  0  0  0  0  0  0
    5.9152   11.8130   44.8082 Cl  0  0  0  0  0  0  0  0  0  0  0  0
   -0.4765   18.9313   37.1970 H   0  0  0  0  0  0  0  0  0  0  0  0
    0.3233   20.1116   39.2318 H   0  0  0  0  0  0  0  0  0  0  0  0
    4.7185   16.3904   45.8679 H   0  0  0  0  0  0  0  0  0  0  0  0
    5.6487   14.1432   46.4195 H   0  0  0  0  0  0  0  0  0  0  0  0
    4.9838   12.8721   42.3423 H   0  0  0  0  0  0  0  0  0  0  0  0
    4.0905   15.1347   41.7918 H   0  0  0  0  0  0  0  0  0  0  0  0
    4.0356   18.2563   45.3509 H   0  0  0  0  0  0  0  0  0  0  0  0
    2.8471   16.7293   40.1608 H   0  0  0  0  0  0  0  0  0  0  0  0
    2.1067   20.2555   40.9085 H   0  0  0  0  0  0  0  0  0  0  0  0
  1  2  1  0
  1 19  1  0
  1 20  2  0
  2  3  1  0
  2 16  2  0
  3  4  2  0
  4  5  1  0
  5 15  2  0
  5 17  1  0
  6 17  1  0
  6 18  2  0
  6 22  1  0
  7  8  1  0
  7 14  2  0
  7 18  1  0
  8  9  1  0
  8 13  2  0
  9 10  2  0
 10 11  1  0
 11 12  2  0
 11 23  1  0
 12 13  1  0
 14 22  1  0
 15 16  1  0
 16 21  1  0
  3 24  1  0
  4 25  1  0
  9 26  1  0
 10 27  1  0
 12 28  1  0
 13 29  1  0
 14 30  1  0
 15 31  1  0
 17 32  1  0
M  CHG  2  19  -1  21  -1
M  END
>  <mol_id>  (77) 
2026-08-23-6tgu-s0-n100-r2-0077

>  <rmsd_to_ref>  (77) 
3.9438775510263646

$$$$
6tgu.A
     RDKit          3D

 32 34  0  0  0  0  0  0  0  0999 V2000
    3.3635   21.7801   37.3559 C   0  0  0  0  0  0  0  0  0  0  0  0
    2.5728   21.3335   38.4908 C   0  0  0  0  0  0  0  0  0  0  0  0
    3.0501   20.2867   39.2475 C   0  0  0  0  0  0  0  0  0  0  0  0
    2.3278   19.8172   40.3507 C   0  0  0  0  0  0  0  0  0  0  0  0
    1.1280   20.3619   40.7323 C   0  0  0  0  0  0  0  0  0  0  0  0
    0.2497   18.6522   42.3643 C   0  0  0  0  0  0  0  0  0  0  0  0
   -0.2022   16.8080   43.5807 C   0  0  0  0  0  0  0  0  0  0  0  0
   -0.8743   16.2020   44.7232 C   0  0  0  0  0  0  0  0  0  0  0  0
   -1.6517   16.9264   45.6019 C   0  0  0  0  0  0  0  0  0  0  0  0
   -2.2753   16.3386   46.6666 C   0  0  0  0  0  0  0  0  0  0  0  0
   -2.1579   15.0015   46.9116 C   0  0  0  0  0  0  0  0  0  0  0  0
   -1.3861   14.2488   46.0495 C   0  0  0  0  0  0  0  0  0  0  0  0
   -0.7593   14.8484   44.9766 C   0  0  0  0  0  0  0  0  0  0  0  0
    0.5874   16.0566   42.6914 C   0  0  0  0  0  0  0  0  0  0  0  0
    0.6694   21.4247   39.9434 C   0  0  0  0  0  0  0  0  0  0  0  0
    1.3781   21.8891   38.8576 C   0  0  0  0  0  0  0  0  0  0  0  0
    0.3278   19.9497   41.8024 N   0  0  0  0  0  0  0  0  0  0  0  0
   -0.2286   18.0711   43.2254 N   0  0  0  0  0  0  0  0  0  0  0  0
    2.9065   22.8372   36.5691 O   0  0  0  0  0  0  0  0  0  0  0  0
    4.4778   21.2244   37.0567 O   0  0  0  0  0  0  0  0  0  0  0  0
    0.9048   22.9488   38.0843 O   0  0  0  0  0  0  0  0  0  0  0  0
    1.1902   17.2281   41.4697 S   0  0  0  0  0  0  0  0  0  0  0  0
   -2.9447   14.2005   48.2732 Cl  0  0  0  0  0  0  0  0  0  0  0  0
    3.9872   19.8278   38.9853 H   0  0  0  0  0  0  0  0  0  0  0  0
    2.7740   19.0139   40.8893 H   0  0  0  0  0  0  0  0  0  0  0  0
   -1.7816   17.9902   45.4583 H   0  0  0  0  0  0  0  0  0  0  0  0
   -2.8840   16.9235   47.3499 H   0  0  0  0  0  0  0  0  0  0  0  0
   -1.2827   13.1974   46.2252 H   0  0  0  0  0  0  0  0  0  0  0  0
   -0.1695   14.2032   44.3395 H   0  0  0  0  0  0  0  0  0  0  0  0
    0.8208   14.9275   42.7111 H   0  0  0  0  0  0  0  0  0  0  0  0
   -0.2686   21.9269   40.1599 H   0  0  0  0  0  0  0  0  0  0  0  0
   -0.2932   20.6704   42.2540 H   0  0  0  0  0  0  0  0  0  0  0  0
  1  2  1  0
  1 19  1  0
  1 20  2  0
  2  3  1  0
  2 16  2  0
  3  4  2  0
  4  5  1  0
  5 15  2  0
  5 17  1  0
  6 17  1  0
  6 18  2  0
  6 22  1  0
  7  8  1  0
  7 14  2  0
  7 18  1  0
  8  9  1  0
  8 13  2  0
  9 10  2  0
 10 11  1  0
 11 12  2  0
 11 23  1  0
 12 13  1  0
 14 22  1  0
 15 16  1  0
 16 21  1  0
  3 24  1  0
  4 25  1  0
  9 26  1  0
 10 27  1  0
 12 28  1  0
 13 29  1  0
 14 30  1  0
 15 31  1  0
 17 32  1  0
M  CHG  2  19  -1  21  -1
M  END
>  <mol_id>  (78) 
2026-08-23-6tgu-s0-n100-r2-0078

>  <rmsd_to_ref>  (78) 
3.9897959183675424

$$$$
6tgu.A
     RDKit          3D

 32 34  0  0  0  0  0  0  0  0999 V2000
   -1.3312   20.5818   38.4169 C   0  0  0  0  0  0  0  0  0  0  0  0
   -0.4916   19.8329   39.4556 C   0  0  0  0  0  0  0  0  0  0  0  0
   -0.7696   19.9601   40.8147 C   0  0  0  0  0  0  0  0  0  0  0  0
   -0.1545   19.1521   41.7766 C   0  0  0  0  0  0  0  0  0  0  0  0
    0.8992   18.3015   41.4121 C   0  0  0  0  0  0  0  0  0  0  0  0
    2.1555   16.2400   42.2092 C   0  0  0  0  0  0  0  0  0  0  0  0
    3.1735   14.5297   41.1071 C   0  0  0  0  0  0  0  0  0  0  0  0
    3.7088   13.8387   39.9336 C   0  0  0  0  0  0  0  0  0  0  0  0
    4.2106   12.5314   40.0055 C   0  0  0  0  0  0  0  0  0  0  0  0
    4.6840   11.8806   38.8705 C   0  0  0  0  0  0  0  0  0  0  0  0
    4.6107   12.5319   37.6536 C   0  0  0  0  0  0  0  0  0  0  0  0
    4.1168   13.8223   37.5362 C   0  0  0  0  0  0  0  0  0  0  0  0
    3.6584   14.4609   38.6852 C   0  0  0  0  0  0  0  0  0  0  0  0
    3.1293   13.9844   42.3629 C   0  0  0  0  0  0  0  0  0  0  0  0
    1.1844   18.1536   40.0472 C   0  0  0  0  0  0  0  0  0  0  0  0
    0.4951   18.9191   39.1050 C   0  0  0  0  0  0  0  0  0  0  0  0
    1.4946   17.4237   42.3694 N   0  0  0  0  0  0  0  0  0  0  0  0
    2.5393   15.7866   40.9650 N   0  0  0  0  0  0  0  0  0  0  0  0
   -2.3678   21.1691   38.8455 O   0  0  0  0  0  0  0  0  0  0  0  0
   -0.9727   20.4866   37.2227 O   0  0  0  0  0  0  0  0  0  0  0  0
    0.7082   18.6913   37.7661 O   0  0  0  0  0  0  0  0  0  0  0  0
    2.2629   15.0041   43.4479 S   0  0  0  0  0  0  0  0  0  0  0  0
    5.1586   11.7187   36.2252 Cl  0  0  0  0  0  0  0  0  0  0  0  0
   -1.4954   20.7193   41.1415 H   0  0  0  0  0  0  0  0  0  0  0  0
   -0.4979   19.1840   42.8211 H   0  0  0  0  0  0  0  0  0  0  0  0
    4.2304   12.0119   40.9749 H   0  0  0  0  0  0  0  0  0  0  0  0
    5.1081   10.8680   38.9402 H   0  0  0  0  0  0  0  0  0  0  0  0
    4.0878   14.3286   36.5600 H   0  0  0  0  0  0  0  0  0  0  0  0
    3.2475   15.4783   38.6076 H   0  0  0  0  0  0  0  0  0  0  0  0
    3.5862   13.0233   42.6415 H   0  0  0  0  0  0  0  0  0  0  0  0
    1.9503   17.4353   39.7193 H   0  0  0  0  0  0  0  0  0  0  0  0
    1.4108   17.7374   43.3469 H   0  0  0  0  0  0  0  0  0  0  0  0
  1  2  1  0
  1 19  1  0
  1 20  2  0
  2  3  1  0
  2 16  2  0
  3  4  2  0
  4  5  1  0
  5 15  2  0
  5 17  1  0
  6 17  1  0
  6 18  2  0
  6 22  1  0
  7  8  1  0
  7 14  2  0
  7 18  1  0
  8  9  1  0
  8 13  2  0
  9 10  2  0
 10 11  1  0
 11 12  2  0
 11 23  1  0
 12 13  1  0
 14 22  1  0
 15 16  1  0
 16 21  1  0
  3 24  1  0
  4 25  1  0
  9 26  1  0
 10 27  1  0
 12 28  1  0
 13 29  1  0
 14 30  1  0
 15 31  1  0
 17 32  1  0
M  CHG  2  19  -1  21  -1
M  END
>  <mol_id>  (79) 
2026-08-23-6tgu-s0-n100-r2-0079

>  <rmsd_to_ref>  (79) 
4.0357142857157315

$$$$
6tgu.A
     RDKit          3D

 32 34  0  0  0  0  0  0  0  0999 V2000
    3.7806   16.2799   36.4309 C   0  0  0  0  0  0  0  0  0  0  0  0
    2.7583   16.4459   37.4854 C   0  0  0  0  0  0  0  0  0  0  0  0
    2.6660   15.4593   38.4765 C   0  0  0  0  0  0  0  0  0  0  0  0
    1.6962   15.6132   39.4691 C   0  0  0  0  0  0  0  0  0  0  0  0
    0.8654   16.7102   39.4542 C   0  0  0  0  0  0  0  0  0  0  0  0
   -0.2722   15.9410   41.5515 C   0  0  0  0  0  0  0  0  0  0  0  0
   -0.2175   14.8040   43.4832 C   0  0  0  0  0  0  0  0  0  0  0  0
    0.2423   14.7527   44.8925 C   0  0  0  0  0  0  0  0  0  0  0  0
    0.9859   15.7648   45.4548 C   0  0  0  0  0  0  0  0  0  0  0  0
    1.4401   15.7761   46.7456 C   0  0  0  0  0  0  0  0  0  0  0  0
    1.1118   14.6690   47.5285 C   0  0  0  0  0  0  0  0  0  0  0  0
    0.3757   13.6542   46.9912 C   0  0  0  0  0  0  0  0  0  0  0  0
   -0.0772   13.6596   45.6784 C   0  0  0  0  0  0  0  0  0  0  0  0
   -0.9606   13.7998   42.9327 C   0  0  0  0  0  0  0  0  0  0  0  0
    0.9380   17.7001   38.4835 C   0  0  0  0  0  0  0  0  0  0  0  0
    1.9075   17.5425   37.4947 C   0  0  0  0  0  0  0  0  0  0  0  0
   -0.1342   16.8813   40.4490 N   0  0  0  0  0  0  0  0  0  0  0  0
    0.0428   15.7977   42.6737 N   0  0  0  0  0  0  0  0  0  0  0  0
    3.8539   17.2516   35.4480 O   0  0  0  0  0  0  0  0  0  0  0  0
    4.5484   15.2688   36.4558 O   0  0  0  0  0  0  0  0  0  0  0  0
    2.0040   18.5279   36.4988 O   0  0  0  0  0  0  0  0  0  0  0  0
   -1.2626   14.3550   41.2050 S   0  0  0  0  0  0  0  0  0  0  0  0
    1.6676   14.6266   49.2036 Cl  0  0  0  0  0  0  0  0  0  0  0  0
    3.3330   14.6007   38.4655 H   0  0  0  0  0  0  0  0  0  0  0  0
    1.6393   14.8337   40.2314 H   0  0  0  0  0  0  0  0  0  0  0  0
    1.2524   16.6465   44.8486 H   0  0  0  0  0  0  0  0  0  0  0  0
    2.0218   16.5883   47.1578 H   0  0  0  0  0  0  0  0  0  0  0  0
    0.1018   12.7728   47.5800 H   0  0  0  0  0  0  0  0  0  0  0  0
   -0.6537   12.8457   45.2891 H   0  0  0  0  0  0  0  0  0  0  0  0
   -1.3367   12.8715   43.3130 H   0  0  0  0  0  0  0  0  0  0  0  0
    0.2740   18.5642   38.4848 H   0  0  0  0  0  0  0  0  0  0  0  0
   -0.8090   17.6605   40.4562 H   0  0  0  0  0  0  0  0  0  0  0  0
  1  2  1  0
  1 19  1  0
  1 20  2  0
  2  3  1  0
  2 16  2  0
  3  4  2  0
  4  5  1  0
  5 15  2  0
  5 17  1  0
  6 17  1  0
  6 18  2  0
  6 22  1  0
  7  8  1  0
  7 14  2  0
  7 18  1  0
  8  9  1  0
  8 13  2  0
  9 10  2  0
 10 11  1  0
 11 12  2  0
 11 23  1  0
 12 13  1  0
 14 22  1  0
 15 16  1  0
 16 21  1  0
  3 24  1  0
  4 25  1  0
  9 26  1  0
 10 27  1  0
 12 28  1  0
 13 29  1  0
 14 30  1  0
 15 31  1  0
 17 32  1  0
M  CHG  2  19  -1  21  -1
M  END
>  <mol_id>  (80) 
2026-08-23-6tgu-s0-n100-r2-0080

>  <rmsd_to_ref>  (80) 
4.081632653066211

$$$$
6tgu.A
     RDKit          3D

 32 34  0  0  0  0  0  0  0  0999 V2000
    6.6748   15.1969   38.1241 C   0  0  0  0  0  0  0  0  0  0  0  0
    5.4205   16.0261   38.4136 C   0  0  0  0  0  0  0  0  0  0  0  0
    5.0430   17.0595   37.5591 C   0  0  0  0  0  0  0  0  0  0  0  0
    3.8115   17.7114   37.6819 C   0  0  0  0  0  0  0  0  0  0  0  0
    2.9879   17.4578   38.7883 C   0  0  0  0  0  0  0  0  0  0  0  0
    0.5747   17.6705   39.5595 C   0  0  0  0  0  0  0  0  0  0  0  0
   -0.7134   16.4269   40.9630 C   0  0  0  0  0  0  0  0  0  0  0  0
   -0.9657   15.3914   41.9656 C   0  0  0  0  0  0  0  0  0  0  0  0
   -2.2628   15.0620   42.3838 C   0  0  0  0  0  0  0  0  0  0  0  0
   -2.4823   14.0506   43.3137 C   0  0  0  0  0  0  0  0  0  0  0  0
   -1.3963   13.3403   43.7898 C   0  0  0  0  0  0  0  0  0  0  0  0
   -0.0975   13.6289   43.3989 C   0  0  0  0  0  0  0  0  0  0  0  0
    0.1024   14.6520   42.4762 C   0  0  0  0  0  0  0  0  0  0  0  0
   -1.6969   17.1691   40.3644 C   0  0  0  0  0  0  0  0  0  0  0  0
    3.3478   16.4133   39.6518 C   0  0  0  0  0  0  0  0  0  0  0  0
    4.5482   15.7286   39.4538 C   0  0  0  0  0  0  0  0  0  0  0  0
    1.6999   18.0667   38.8955 N   0  0  0  0  0  0  0  0  0  0  0  0
    0.5934   16.6247   40.4577 N   0  0  0  0  0  0  0  0  0  0  0  0
    7.2340   15.3904   37.0047 O   0  0  0  0  0  0  0  0  0  0  0  0
    6.9985   14.3418   38.9771 O   0  0  0  0  0  0  0  0  0  0  0  0
    4.8406   14.6403   40.2412 O   0  0  0  0  0  0  0  0  0  0  0  0
   -1.0492   18.1495   39.1046 S   0  0  0  0  0  0  0  0  0  0  0  0
   -1.6578   12.0510   44.9172 Cl  0  0  0  0  0  0  0  0  0  0  0  0
    5.7347   17.3726   36.7632 H   0  0  0  0  0  0  0  0  0  0  0  0
    3.4885   18.4244   36.9091 H   0  0  0  0  0  0  0  0  0  0  0  0
   -3.1208   15.6121   41.9700 H   0  0  0  0  0  0  0  0  0  0  0  0
   -3.4997   13.8208   43.6631 H   0  0  0  0  0  0  0  0  0  0  0  0
    0.7532   13.0637   43.8075 H   0  0  0  0  0  0  0  0  0  0  0  0
    1.1247   14.8828   42.1421 H   0  0  0  0  0  0  0  0  0  0  0  0
   -2.7588   17.1425   40.6501 H   0  0  0  0  0  0  0  0  0  0  0  0
    2.6851   16.1337   40.4840 H   0  0  0  0  0  0  0  0  0  0  0  0
    1.6038   18.9560   38.3848 H   0  0  0  0  0  0  0  0  0  0  0  0
  1  2  1  0
  1 19  1  0
  1 20  2  0
  2  3  1  0
  2 16  2  0
  3  4  2  0
  4  5  1  0
  5 15  2  0
  5 17  1  0
  6 17  1  0
  6 18  2  0
  6 22  1  0
  7  8  1  0
  7 14  2  0
  7 18  1  0
  8  9  1  0
  8 13  2  0
  9 10  2  0
 10 11  1  0
 11 12  2  0
 11 23  1  0
 12 13  1  0
 14 22  1  0
 15 16  1  0
 16 21  1  0
  3 24  1  0
  4 25  1  0
  9 26  1  0
 10 27  1  0
 12 28  1  0
 13 29  1  0
 14 30  1  0
 15 31  1  0
 17 32  1  0
M  CHG  2  19  -1  21  -1
M  END
>  <mol_id>  (81) 
2026-08-23-6tgu-s0-n100-r2-0081

>  <rmsd_to_ref>  (81) 
4.127551020416317

$$$$
6tgu.A
     RDKit          3D

 32 34  0  0  0  0  0  0  0  0999 V2000
    7.5588   19.7780   39.5546 C   0  0  0  0  0  0  0  0  0  0  0  0
    6.4786   18.8577   39.8539 C   0  0  0  0  0  0  0  0  0  0  0  0
    5.1837   19.3215   39.8048 C   0  0  0  0  0  0  0  0  0  0  0  0
    4.1538   18.4248   40.0953 C   0  0  0  0  0  0  0  0  0  0  0  0
    4.3769   17.1128   40.4250 C   0  0  0  0  0  0  0  0  0  0  0  0
    2.1163   16.4068   41.2972 C   0  0  0  0  0  0  0  0  0  0  0  0
    0.0258   16.2123   42.1128 C   0  0  0  0  0  0  0  0  0  0  0  0
   -1.1042   15.3287   42.3919 C   0  0  0  0  0  0  0  0  0  0  0  0
   -1.0981   13.9787   42.1079 C   0  0  0  0  0  0  0  0  0  0  0  0
   -2.1643   13.1431   42.3701 C   0  0  0  0  0  0  0  0  0  0  0  0
   -3.3122   13.6570   42.9472 C   0  0  0  0  0  0  0  0  0  0  0  0
   -3.3423   15.0112   43.2423 C   0  0  0  0  0  0  0  0  0  0  0  0
   -2.2603   15.8261   42.9691 C   0  0  0  0  0  0  0  0  0  0  0  0
    0.0017   17.5567   42.4012 C   0  0  0  0  0  0  0  0  0  0  0  0
    5.7088   16.7050   40.4572 C   0  0  0  0  0  0  0  0  0  0  0  0
    6.7585   17.5489   40.1791 C   0  0  0  0  0  0  0  0  0  0  0  0
    3.4071   16.1580   40.7459 N   0  0  0  0  0  0  0  0  0  0  0  0
    1.1588   15.8083   41.5651 N   0  0  0  0  0  0  0  0  0  0  0  0
    7.3167   21.1052   39.2239 O   0  0  0  0  0  0  0  0  0  0  0  0
    8.7501   19.3875   39.5891 O   0  0  0  0  0  0  0  0  0  0  0  0
    8.0697   17.0957   40.2240 O   0  0  0  0  0  0  0  0  0  0  0  0
    1.6633   18.1609   41.8464 S   0  0  0  0  0  0  0  0  0  0  0  0
   -4.6574   12.6149   43.2799 Cl  0  0  0  0  0  0  0  0  0  0  0  0
    4.9467   20.3668   39.5471 H   0  0  0  0  0  0  0  0  0  0  0  0
    3.1609   18.8292   40.0305 H   0  0  0  0  0  0  0  0  0  0  0  0
   -0.2160   13.5392   41.6549 H   0  0  0  0  0  0  0  0  0  0  0  0
   -2.1343   12.0903   42.1382 H   0  0  0  0  0  0  0  0  0  0  0  0
   -4.2253   15.4630   43.6983 H   0  0  0  0  0  0  0  0  0  0  0  0
   -2.3361   16.8860   43.2212 H   0  0  0  0  0  0  0  0  0  0  0  0
   -0.7369   18.2184   42.8403 H   0  0  0  0  0  0  0  0  0  0  0  0
    5.9695   15.6807   40.7092 H   0  0  0  0  0  0  0  0  0  0  0  0
    3.6146   15.1334   40.5763 H   0  0  0  0  0  0  0  0  0  0  0  0
  1  2  1  0
  1 19  1  0
  1 20  2  0
  2  3  1  0
  2 16  2  0
  3  4  2  0
  4  5  1  0
  5 15  2  0
  5 17  1  0
  6 17  1  0
  6 18  2  0
  6 22  1  0
  7  8  1  0
  7 14  2  0
  7 18  1  0
  8  9  1  0
  8 13  2  0
  9 10  2  0
 10 11  1  0
 11 12  2  0
 11 23  1  0
 12 13  1  0
 14 22  1  0
 15 16  1  0
 16 21  1  0
  3 24  1  0
  4 25  1  0
  9 26  1  0
 10 27  1  0
 12 28  1  0
 13 29  1  0
 14 30  1  0
 15 31  1  0
 17 32  1  0
M  CHG  2  19  -1  21  -1
M  END
>  <mol_id>  (82) 
2026-08-23-6tgu-s0-n100-r2-0082

>  <rmsd_to_ref>  (82) 
4.173469387760633

$$$$
6tgu.A
     RDKit          3D

 32 34  0  0  0  0  0  0  0  0999 V2000
    1.3090   21.5639   40.8562 C   0  0  0  0  0  0  0  0  0  0  0  0
    0.7503   20.1613   41.1112 C   0  0  0  0  0  0  0  0  0  0  0  0
   -0.5512   19.9925   41.5785 C   0  0  0  0  0  0  0  0  0  0  0  0
   -1.1593   18.7345   41.6427 C   0  0  0  0  0  0  0  0  0  0  0  0
   -0.4074   17.5759   41.3999 C   0  0  0  0  0  0  0  0  0  0  0  0
   -0.6773   15.1267   40.7738 C   0  0  0  0  0  0  0  0  0  0  0  0
    0.6140   13.6879   39.5745 C   0  0  0  0  0  0  0  0  0  0  0  0
    1.8273   13.2577   38.8788 C   0  0  0  0  0  0  0  0  0  0  0  0
    1.8870   12.0526   38.1647 C   0  0  0  0  0  0  0  0  0  0  0  0
    3.0404   11.6787   37.4822 C   0  0  0  0  0  0  0  0  0  0  0  0
    4.1204   12.5413   37.4828 C   0  0  0  0  0  0  0  0  0  0  0  0
    4.1023   13.7452   38.1710 C   0  0  0  0  0  0  0  0  0  0  0  0
    2.9430   14.0961   38.8572 C   0  0  0  0  0  0  0  0  0  0  0  0
   -0.5472   12.9620   39.6088 C   0  0  0  0  0  0  0  0  0  0  0  0
    0.9006   17.7283   40.9181 C   0  0  0  0  0  0  0  0  0  0  0  0
    1.4512   19.0049   40.7905 C   0  0  0  0  0  0  0  0  0  0  0  0
   -1.0278   16.2889   41.3984 N   0  0  0  0  0  0  0  0  0  0  0  0
    0.5455   14.9766   40.1547 N   0  0  0  0  0  0  0  0  0  0  0  0
    0.4850   22.5224   40.9304 O   0  0  0  0  0  0  0  0  0  0  0  0
    2.5102   21.6427   40.5175 O   0  0  0  0  0  0  0  0  0  0  0  0
    2.6936   19.1485   40.2199 O   0  0  0  0  0  0  0  0  0  0  0  0
   -1.8150   13.8617   40.3511 S   0  0  0  0  0  0  0  0  0  0  0  0
    5.5489   12.1080   36.6036 Cl  0  0  0  0  0  0  0  0  0  0  0  0
   -1.1182   20.8760   41.9073 H   0  0  0  0  0  0  0  0  0  0  0  0
   -2.2294   18.6539   41.8840 H   0  0  0  0  0  0  0  0  0  0  0  0
    1.0077   11.3920   38.1436 H   0  0  0  0  0  0  0  0  0  0  0  0
    3.0918   10.7159   36.9527 H   0  0  0  0  0  0  0  0  0  0  0  0
    4.9817   14.4060   38.1745 H   0  0  0  0  0  0  0  0  0  0  0  0
    2.9054   15.0554   39.3941 H   0  0  0  0  0  0  0  0  0  0  0  0
   -0.6556   11.9407   39.2149 H   0  0  0  0  0  0  0  0  0  0  0  0
    1.4921   16.8432   40.6412 H   0  0  0  0  0  0  0  0  0  0  0  0
   -1.8856   16.2274   41.9652 H   0  0  0  0  0  0  0  0  0  0  0  0
  1  2  1  0
  1 19  1  0
  1 20  2  0
  2  3  1  0
  2 16  2  0
  3  4  2  0
  4  5  1  0
  5 15  2  0
  5 17  1  0
  6 17  1  0
  6 18  2  0
  6 22  1  0
  7  8  1  0
  7 14  2  0
  7 18  1  0
  8  9  1  0
  8 13  2  0
  9 10  2  0
 10 11  1  0
 11 12  2  0
 11 23  1  0
 12 13  1  0
 14 22  1  0
 15 16  1  0
 16 21  1  0
  3 24  1  0
  4 25  1  0
  9 26  1  0
 10 27  1  0
 12 28  1  0
 13 29  1  0
 14 30  1  0
 15 31  1  0
 17 32  1  0
M  CHG  2  19  -1  21  -1
M  END
>  <mol_id>  (83) 
2026-08-23-6tgu-s0-n100-r2-0083

>  <rmsd_to_ref>  (83) 
4.219387755104745

$$$$
6tgu.A
     RDKit          3D

 32 34  0  0  0  0  0  0  0  0999 V2000
    4.3043   22.7655   42.8393 C   0  0  0  0  0  0  0  0  0  0  0  0
    3.7917   21.4909   42.3549 C   0  0  0  0  0  0  0  0  0  0  0  0
    2.6760   20.9355   42.9346 C   0  0  0  0  0  0  0  0  0  0  0  0
    2.1862   19.7251   42.4794 C   0  0  0  0  0  0  0  0  0  0  0  0
    2.7844   19.0440   41.4502 C   0  0  0  0  0  0  0  0  0  0  0  0
    1.0590   17.2815   40.9155 C   0  0  0  0  0  0  0  0  0  0  0  0
   -0.7666   16.0027   40.6857 C   0  0  0  0  0  0  0  0  0  0  0  0
   -1.3308   14.7040   40.2568 C   0  0  0  0  0  0  0  0  0  0  0  0
   -2.6839   14.4557   40.3655 C   0  0  0  0  0  0  0  0  0  0  0  0
   -3.2041   13.2395   39.9670 C   0  0  0  0  0  0  0  0  0  0  0  0
   -2.4086   12.2350   39.4509 C   0  0  0  0  0  0  0  0  0  0  0  0
   -1.0493   12.4767   39.3380 C   0  0  0  0  0  0  0  0  0  0  0  0
   -0.5551   13.6927   39.7407 C   0  0  0  0  0  0  0  0  0  0  0  0
   -1.5498   16.9930   41.2040 C   0  0  0  0  0  0  0  0  0  0  0  0
    3.9106   19.6402   40.8914 C   0  0  0  0  0  0  0  0  0  0  0  0
    4.4256   20.8394   41.3162 C   0  0  0  0  0  0  0  0  0  0  0  0
    2.3617   17.8271   40.9058 N   0  0  0  0  0  0  0  0  0  0  0  0
    0.5052   16.3155   40.6136 N   0  0  0  0  0  0  0  0  0  0  0  0
    3.6730   23.4282   43.8828 O   0  0  0  0  0  0  0  0  0  0  0  0
    5.3379   23.2507   42.2847 O   0  0  0  0  0  0  0  0  0  0  0  0
    5.5616   21.4005   40.7228 O   0  0  0  0  0  0  0  0  0  0  0  0
   -0.3932   18.3168   41.5559 S   0  0  0  0  0  0  0  0  0  0  0  0
   -3.1152   10.6999   38.9576 Cl  0  0  0  0  0  0  0  0  0  0  0  0
    2.1923   21.4773   43.7578 H   0  0  0  0  0  0  0  0  0  0  0  0
    1.3189   19.3373   42.9816 H   0  0  0  0  0  0  0  0  0  0  0  0
   -3.3330   15.2230   40.7650 H   0  0  0  0  0  0  0  0  0  0  0  0
   -4.2738   13.1081   40.0775 H   0  0  0  0  0  0  0  0  0  0  0  0
   -0.4282   11.6874   38.9327 H   0  0  0  0  0  0  0  0  0  0  0  0
    0.4982   13.8695   39.6511 H   0  0  0  0  0  0  0  0  0  0  0  0
   -2.6286   17.0377   41.3888 H   0  0  0  0  0  0  0  0  0  0  0  0
    4.4254   19.1441   40.0703 H   0  0  0  0  0  0  0  0  0  0  0  0
    3.0895   17.2189   40.4203 H   0  0  0  0  0  0  0  0  0  0  0  0
  1  2  1  0
  1 19  1  0
  1 20  2  0
  2  3  1  0
  2 16  2  0
  3  4  2  0
  4  5  1  0
  5 15  2  0
  5 17  1  0
  6 17  1  0
  6 18  2  0
  6 22  1  0
  7  8  1  0
  7 14  2  0
  7 18  1  0
  8  9  1  0
  8 13  2  0
  9 10  2  0
 10 11  1  0
 11 12  2  0
 11 23  1  0
 12 13  1  0
 14 22  1  0
 15 16  1  0
 16 21  1  0
  3 24  1  0
  4 25  1  0
  9 26  1  0
 10 27  1  0
 12 28  1  0
 13 29  1  0
 14 30  1  0
 15 31  1  0
 17 32  1  0
M  CHG  2  19  -1  21  -1
M  END
>  <mol_id>  (84) 
2026-08-23-6tgu-s0-n100-r2-0084

>  <rmsd_to_ref>  (84) 
4.265306122452842

$$$$
6tgu.A
     RDKit          3D

 32 34  0  0  0  0  0  0  0  0999 V2000
    6.6096   16.2185   37.4433 C   0  0  0  0  0  0  0  0  0  0  0  0
    5.7049   16.9430   38.4440 C   0  0  0  0  0  0  0  0  0  0  0  0
    6.0026   18.2398   38.8565 C   0  0  0  0  0  0  0  0  0  0  0  0
    5.1076   19.0009   39.6156 C   0  0  0  0  0  0  0  0  0  0  0  0
    3.9464   18.4109   40.1354 C   0  0  0  0  0  0  0  0  0  0  0  0
    1.6517   19.0104   41.0510 C   0  0  0  0  0  0  0  0  0  0  0  0
   -0.3610   17.9517   40.9880 C   0  0  0  0  0  0  0  0  0  0  0  0
   -1.2614   16.8258   40.7374 C   0  0  0  0  0  0  0  0  0  0  0  0
   -2.6524   16.9429   40.8691 C   0  0  0  0  0  0  0  0  0  0  0  0
   -3.4927   15.8688   40.5932 C   0  0  0  0  0  0  0  0  0  0  0  0
   -2.9335   14.6883   40.1415 C   0  0  0  0  0  0  0  0  0  0  0  0
   -1.5638   14.5309   39.9917 C   0  0  0  0  0  0  0  0  0  0  0  0
   -0.7390   15.6136   40.2837 C   0  0  0  0  0  0  0  0  0  0  0  0
   -0.7804   19.1942   41.3838 C   0  0  0  0  0  0  0  0  0  0  0  0
    3.6263   17.1101   39.7211 C   0  0  0  0  0  0  0  0  0  0  0  0
    4.5059   16.4057   38.8969 C   0  0  0  0  0  0  0  0  0  0  0  0
    2.9912   19.1899   40.8578 N   0  0  0  0  0  0  0  0  0  0  0  0
    1.0193   17.8370   40.6987 N   0  0  0  0  0  0  0  0  0  0  0  0
    7.5203   16.9109   36.9009 O   0  0  0  0  0  0  0  0  0  0  0  0
    6.3276   15.0285   37.1825 O   0  0  0  0  0  0  0  0  0  0  0  0
    4.1345   15.1738   38.4127 O   0  0  0  0  0  0  0  0  0  0  0  0
    0.5297   20.3129   41.3943 S   0  0  0  0  0  0  0  0  0  0  0  0
   -3.9703   13.3552   39.7549 Cl  0  0  0  0  0  0  0  0  0  0  0  0
    6.9716   18.6789   38.5767 H   0  0  0  0  0  0  0  0  0  0  0  0
    5.3150   20.0644   39.8052 H   0  0  0  0  0  0  0  0  0  0  0  0
   -3.0864   17.8995   41.1957 H   0  0  0  0  0  0  0  0  0  0  0  0
   -4.5803   15.9573   40.7317 H   0  0  0  0  0  0  0  0  0  0  0  0
   -1.1400   13.5748   39.6507 H   0  0  0  0  0  0  0  0  0  0  0  0
    0.3486   15.5116   40.1539 H   0  0  0  0  0  0  0  0  0  0  0  0
   -1.8158   19.4444   41.6584 H   0  0  0  0  0  0  0  0  0  0  0  0
    2.6835   16.6453   40.0450 H   0  0  0  0  0  0  0  0  0  0  0  0
    3.3792   20.0302   41.3099 H   0  0  0  0  0  0  0  0  0  0  0  0
  1  2  1  0
  1 19  1  0
  1 20  2  0
  2  3  1  0
  2 16  2  0
  3  4  2  0
  4  5  1  0
  5 15  2  0
  5 17  1  0
  6 17  1  0
  6 18  2  0
  6 22  1  0
  7  8  1  0
  7 14  2  0
  7 18  1  0
  8  9  1  0
  8 13  2  0
  9 10  2  0
 10 11  1  0
 11 12  2  0
 11 23  1  0
 12 13  1  0
 14 22  1  0
 15 16  1  0
 16 21  1  0
  3 24  1  0
  4 25  1  0
  9 26  1  0
 10 27  1  0
 12 28  1  0
 13 29  1  0
 14 30  1  0
 15 31  1  0
 17 32  1  0
M  CHG  2  19  -1  21  -1
M  END
>  <mol_id>  (85) 
2026-08-23-6tgu-s0-n100-r2-0085

>  <rmsd_to_ref>  (85) 
4.311224489799398

$$$$
6tgu.A
     RDKit          3D

 32 34  0  0  0  0  0  0  0  0999 V2000
    4.9296   20.6370   42.0113 C   0  0  0  0  0  0  0  0  0  0  0  0
    3.6094   20.0119   42.0746 C   0  0  0  0  0  0  0  0  0  0  0  0
    2.7426   20.2805   43.1241 C   0  0  0  0  0  0  0  0  0  0  0  0
    1.4946   19.7055   43.2078 C   0  0  0  0  0  0  0  0  0  0  0  0
    1.0589   18.8138   42.2108 C   0  0  0  0  0  0  0  0  0  0  0  0
   -0.9518   17.6092   41.3245 C   0  0  0  0  0  0  0  0  0  0  0  0
   -1.8638   16.2306   39.7544 C   0  0  0  0  0  0  0  0  0  0  0  0
   -1.8369   14.9431   39.0036 C   0  0  0  0  0  0  0  0  0  0  0  0
   -2.8006   14.6690   38.0417 C   0  0  0  0  0  0  0  0  0  0  0  0
   -2.7552   13.4761   37.3388 C   0  0  0  0  0  0  0  0  0  0  0  0
   -1.7615   12.5520   37.5840 C   0  0  0  0  0  0  0  0  0  0  0  0
   -0.8201   12.8314   38.5340 C   0  0  0  0  0  0  0  0  0  0  0  0
   -0.8370   14.0087   39.2487 C   0  0  0  0  0  0  0  0  0  0  0  0
   -2.8584   17.1641   39.4558 C   0  0  0  0  0  0  0  0  0  0  0  0
    1.9252   18.5438   41.1603 C   0  0  0  0  0  0  0  0  0  0  0  0
    3.1716   19.1262   41.0897 C   0  0  0  0  0  0  0  0  0  0  0  0
   -0.2231   18.2331   42.3368 N   0  0  0  0  0  0  0  0  0  0  0  0
   -1.0122   16.5412   40.6549 N   0  0  0  0  0  0  0  0  0  0  0  0
    5.7595   20.3272   40.9401 O   0  0  0  0  0  0  0  0  0  0  0  0
    5.2744   21.4391   42.9328 O   0  0  0  0  0  0  0  0  0  0  0  0
    4.0126   18.8495   40.0507 O   0  0  0  0  0  0  0  0  0  0  0  0
   -2.4354   18.5717   40.6286 S   0  0  0  0  0  0  0  0  0  0  0  0
   -1.7949   11.0769   36.6397 Cl  0  0  0  0  0  0  0  0  0  0  0  0
    3.0083   20.9677   43.9407 H   0  0  0  0  0  0  0  0  0  0  0  0
    0.8235   19.9284   44.0440 H   0  0  0  0  0  0  0  0  0  0  0  0
   -3.5985   15.3882   37.8278 H   0  0  0  0  0  0  0  0  0  0  0  0
   -3.5436   13.3313   36.6016 H   0  0  0  0  0  0  0  0  0  0  0  0
   -0.0435   12.1050   38.7234 H   0  0  0  0  0  0  0  0  0  0  0  0
   -0.0944   14.2285   39.9930 H   0  0  0  0  0  0  0  0  0  0  0  0
   -3.6469   17.2014   38.8100 H   0  0  0  0  0  0  0  0  0  0  0  0
    1.6124   17.8468   40.3670 H   0  0  0  0  0  0  0  0  0  0  0  0
   -0.6822   18.2729   43.2976 H   0  0  0  0  0  0  0  0  0  0  0  0
  1  2  1  0
  1 19  1  0
  1 20  2  0
  2  3  1  0
  2 16  2  0
  3  4  2  0
  4  5  1  0
  5 15  2  0
  5 17  1  0
  6 17  1  0
  6 18  2  0
  6 22  1  0
  7  8  1  0
  7 14  2  0
  7 18  1  0
  8  9  1  0
  8 13  2  0
  9 10  2  0
 10 11  1  0
 11 12  2  0
 11 23  1  0
 12 13  1  0
 14 22  1  0
 15 16  1  0
 16 21  1  0
  3 24  1  0
  4 25  1  0
  9 26  1  0
 10 27  1  0
 12 28  1  0
 13 29  1  0
 14 30  1  0
 15 31  1  0
 17 32  1  0
M  CHG  2  19  -1  21  -1
M  END
>  <mol_id>  (86) 
2026-08-23-6tgu-s0-n100-r2-0086

>  <rmsd_to_ref>  (86) 
4.357142857143499

$$$$
6tgu.A
     RDKit          3D

 32 34  0  0  0  0  0  0  0  0999 V2000
   -0.1167   16.3602   36.1098 C   0  0  0  0  0  0  0  0  0  0  0  0
    0.4048   17.3901   37.1158 C   0  0  0  0  0  0  0  0  0  0  0  0
   -0.2075   18.6358   37.2345 C   0  0  0  0  0  0  0  0  0  0  0  0
    0.1148   19.5258   38.2642 C   0  0  0  0  0  0  0  0  0  0  0  0
    1.1987   19.2581   39.1128 C   0  0  0  0  0  0  0  0  0  0  0  0
    2.1423   19.8838   41.3891 C   0  0  0  0  0  0  0  0  0  0  0  0
    3.3527   18.7278   42.9300 C   0  0  0  0  0  0  0  0  0  0  0  0
    4.1479   17.6016   43.4203 C   0  0  0  0  0  0  0  0  0  0  0  0
    4.5723   17.5161   44.7540 C   0  0  0  0  0  0  0  0  0  0  0  0
    5.2990   16.4197   45.2073 C   0  0  0  0  0  0  0  0  0  0  0  0
    5.5605   15.3872   44.3264 C   0  0  0  0  0  0  0  0  0  0  0  0
    5.1548   15.4279   43.0010 C   0  0  0  0  0  0  0  0  0  0  0  0
    4.4386   16.5387   42.5636 C   0  0  0  0  0  0  0  0  0  0  0  0
    2.9713   19.7909   43.7051 C   0  0  0  0  0  0  0  0  0  0  0  0
    1.8187   18.0043   39.0139 C   0  0  0  0  0  0  0  0  0  0  0  0
    1.4183   17.1058   38.0232 C   0  0  0  0  0  0  0  0  0  0  0  0
    1.5008   20.1241   40.2082 N   0  0  0  0  0  0  0  0  0  0  0  0
    2.8168   18.7039   41.6207 N   0  0  0  0  0  0  0  0  0  0  0  0
   -1.2090   16.6373   35.5324 O   0  0  0  0  0  0  0  0  0  0  0  0
    0.5321   15.2970   35.9991 O   0  0  0  0  0  0  0  0  0  0  0  0
    1.9594   15.8422   38.0014 O   0  0  0  0  0  0  0  0  0  0  0  0
    1.8894   20.8220   42.8483 S   0  0  0  0  0  0  0  0  0  0  0  0
    6.4290   13.9970   44.8873 Cl  0  0  0  0  0  0  0  0  0  0  0  0
   -0.9678   18.9285   36.4955 H   0  0  0  0  0  0  0  0  0  0  0  0
   -0.4832   20.4377   38.4087 H   0  0  0  0  0  0  0  0  0  0  0  0
    4.3267   18.3291   45.4531 H   0  0  0  0  0  0  0  0  0  0  0  0
    5.6583   16.3754   46.2461 H   0  0  0  0  0  0  0  0  0  0  0  0
    5.3928   14.6036   42.3127 H   0  0  0  0  0  0  0  0  0  0  0  0
    4.0942   16.5797   41.5197 H   0  0  0  0  0  0  0  0  0  0  0  0
    3.3105   19.9632   44.7372 H   0  0  0  0  0  0  0  0  0  0  0  0
    2.6194   17.7289   39.7161 H   0  0  0  0  0  0  0  0  0  0  0  0
    1.1800   21.0953   40.0862 H   0  0  0  0  0  0  0  0  0  0  0  0
  1  2  1  0
  1 19  1  0
  1 20  2  0
  2  3  1  0
  2 16  2  0
  3  4  2  0
  4  5  1  0
  5 15  2  0
  5 17  1  0
  6 17  1  0
  6 18  2  0
  6 22  1  0
  7  8  1  0
  7 14  2  0
  7 18  1  0
  8  9  1  0
  8 13  2  0
  9 10  2  0
 10 11  1  0
 11 12  2  0
 11 23  1  0
 12 13  1  0
 14 22  1  0
 15 16  1  0
 16 21  1  0
  3 24  1  0
  4 25  1  0
  9 26  1  0
 10 27  1  0
 12 28  1  0
 13 29  1  0
 14 30  1  0
 15 31  1  0
 17 32  1  0
M  CHG  2  19  -1  21  -1
M  END
>  <mol_id>  (87) 
2026-08-23-6tgu-s0-n100-r2-0087

>  <rmsd_to_ref>  (87) 
4.403061224494485

$$$$
6tgu.A
     RDKit          3D

 32 34  0  0  0  0  0  0  0  0999 V2000
   -2.3362   21.1531   40.2339 C   0  0  0  0  0  0  0  0  0  0  0  0
   -1.6737   19.9135   40.6048 C   0  0  0  0  0  0  0  0  0  0  0  0
   -1.8392   19.3167   41.8364 C   0  0  0  0  0  0  0  0  0  0  0  0
   -1.2019   18.1470   42.1575 C   0  0  0  0  0  0  0  0  0  0  0  0
   -0.3487   17.4916   41.2581 C   0  0  0  0  0  0  0  0  0  0  0  0
    1.4334   15.7170   41.2029 C   0  0  0  0  0  0  0  0  0  0  0  0
    3.1926   14.3591   40.8360 C   0  0  0  0  0  0  0  0  0  0  0  0
    3.8381   13.0578   41.1534 C   0  0  0  0  0  0  0  0  0  0  0  0
    3.2855   12.1508   42.0213 C   0  0  0  0  0  0  0  0  0  0  0  0
    3.8946   10.9445   42.3083 C   0  0  0  0  0  0  0  0  0  0  0  0
    5.0947   10.6524   41.6986 C   0  0  0  0  0  0  0  0  0  0  0  0
    5.6928   11.5357   40.8146 C   0  0  0  0  0  0  0  0  0  0  0  0
    5.0392   12.7203   40.5685 C   0  0  0  0  0  0  0  0  0  0  0  0
    3.7600   15.2382   39.9724 C   0  0  0  0  0  0  0  0  0  0  0  0
   -0.1976   18.1001   40.0388 C   0  0  0  0  0  0  0  0  0  0  0  0
   -0.8437   19.2930   39.7041 C   0  0  0  0  0  0  0  0  0  0  0  0
    0.2416   16.2934   41.6744 N   0  0  0  0  0  0  0  0  0  0  0  0
    2.0557   14.7297   41.3600 N   0  0  0  0  0  0  0  0  0  0  0  0
   -3.1793   21.8346   41.0899 O   0  0  0  0  0  0  0  0  0  0  0  0
   -2.1076   21.5987   39.0695 O   0  0  0  0  0  0  0  0  0  0  0  0
   -0.6315   19.8489   38.4291 O   0  0  0  0  0  0  0  0  0  0  0  0
    2.5289   16.6374   39.9753 S   0  0  0  0  0  0  0  0  0  0  0  0
    5.8940    9.1310   42.0434 Cl  0  0  0  0  0  0  0  0  0  0  0  0
   -2.4963   19.8110   42.5429 H   0  0  0  0  0  0  0  0  0  0  0  0
   -1.3670   17.7101   43.1547 H   0  0  0  0  0  0  0  0  0  0  0  0
    2.3301   12.3942   42.5011 H   0  0  0  0  0  0  0  0  0  0  0  0
    3.4620   10.2293   42.9897 H   0  0  0  0  0  0  0  0  0  0  0  0
    6.6358   11.3221   40.3258 H   0  0  0  0  0  0  0  0  0  0  0  0
    5.5296   13.4071   39.8651 H   0  0  0  0  0  0  0  0  0  0  0  0
    4.6403   15.2742   39.3842 H   0  0  0  0  0  0  0  0  0  0  0  0
    0.4178   17.6743   39.2864 H   0  0  0  0  0  0  0  0  0  0  0  0
   -0.2554   15.7367   42.4354 H   0  0  0  0  0  0  0  0  0  0  0  0
  1  2  1  0
  1 19  1  0
  1 20  2  0
  2  3  1  0
  2 16  2  0
  3  4  2  0
  4  5  1  0
  5 15  2  0
  5 17  1  0
  6 17  1  0
  6 18  2  0
  6 22  1  0
  7  8  1  0
  7 14  2  0
  7 18  1  0
  8  9  1  0
  8 13  2  0
  9 10  2  0
 10 11  1  0
 11 12  2  0
 11 23  1  0
 12 13  1  0
 14 22  1  0
 15 16  1  0
 16 21  1  0
  3 24  1  0
  4 25  1  0
  9 26  1  0
 10 27  1  0
 12 28  1  0
 13 29  1  0
 14 30  1  0
 15 31  1  0
 17 32  1  0
M  CHG  2  19  -1  21  -1
M  END
>  <mol_id>  (88) 
2026-08-23-6tgu-s0-n100-r2-0088

>  <rmsd_to_ref>  (88) 
4.448979591841788

$$$$
6tgu.A
     RDKit          3D

 32 34  0  0  0  0  0  0  0  0999 V2000
    5.5099   14.1309   36.8902 C   0  0  0  0  0  0  0  0  0  0  0  0
    4.9922   15.1010   37.9557 C   0  0  0  0  0  0  0  0  0  0  0  0
    5.4831   16.4029   38.0253 C   0  0  0  0  0  0  0  0  0  0  0  0
    4.9053   17.3704   38.8539 C   0  0  0  0  0  0  0  0  0  0  0  0
    3.9146   17.0060   39.7771 C   0  0  0  0  0  0  0  0  0  0  0  0
    2.0391   18.0009   41.1758 C   0  0  0  0  0  0  0  0  0  0  0  0
    0.0336   17.1849   41.8742 C   0  0  0  0  0  0  0  0  0  0  0  0
   -0.9722   16.1455   42.0955 C   0  0  0  0  0  0  0  0  0  0  0  0
   -2.2508   16.4414   42.5891 C   0  0  0  0  0  0  0  0  0  0  0  0
   -3.2035   15.4419   42.7602 C   0  0  0  0  0  0  0  0  0  0  0  0
   -2.8819   14.1491   42.3919 C   0  0  0  0  0  0  0  0  0  0  0  0
   -1.6317   13.8133   41.8945 C   0  0  0  0  0  0  0  0  0  0  0  0
   -0.6884   14.8256   41.7413 C   0  0  0  0  0  0  0  0  0  0  0  0
   -0.1673   18.5138   42.1393 C   0  0  0  0  0  0  0  0  0  0  0  0
    3.4016   15.7026   39.7128 C   0  0  0  0  0  0  0  0  0  0  0  0
    3.9490   14.7824   38.8170 C   0  0  0  0  0  0  0  0  0  0  0  0
    3.2697   17.9925   40.5848 N   0  0  0  0  0  0  0  0  0  0  0  0
    1.2554   16.8682   41.2346 N   0  0  0  0  0  0  0  0  0  0  0  0
    6.2620   14.6211   35.9974 O   0  0  0  0  0  0  0  0  0  0  0  0
    5.0860   12.9554   36.9398 O   0  0  0  0  0  0  0  0  0  0  0  0
    3.3711   13.5417   38.6888 O   0  0  0  0  0  0  0  0  0  0  0  0
    1.1571   19.4617   41.5779 S   0  0  0  0  0  0  0  0  0  0  0  0
   -4.0716   12.9011   42.5610 Cl  0  0  0  0  0  0  0  0  0  0  0  0
    6.3520   16.6785   37.4096 H   0  0  0  0  0  0  0  0  0  0  0  0
    5.2287   18.4193   38.7811 H   0  0  0  0  0  0  0  0  0  0  0  0
   -2.5049   17.4806   42.8451 H   0  0  0  0  0  0  0  0  0  0  0  0
   -4.1928   15.6759   43.1803 H   0  0  0  0  0  0  0  0  0  0  0  0
   -1.3915   12.7735   41.6278 H   0  0  0  0  0  0  0  0  0  0  0  0
    0.3026   14.5798   41.3320 H   0  0  0  0  0  0  0  0  0  0  0  0
   -1.0560   18.9213   42.6435 H   0  0  0  0  0  0  0  0  0  0  0  0
    2.5690   15.4056   40.3674 H   0  0  0  0  0  0  0  0  0  0  0  0
    3.8285   18.8420   40.7491 H   0  0  0  0  0  0  0  0  0  0  0  0
  1  2  1  0
  1 19  1  0
  1 20  2  0
  2  3  1  0
  2 16  2  0
  3  4  2  0
  4  5  1  0
  5 15  2  0
  5 17  1  0
  6 17  1  0
  6 18  2  0
  6 22  1  0
  7  8  1  0
  7 14  2  0
  7 18  1  0
  8  9  1  0
  8 13  2  0
  9 10  2  0
 10 11  1  0
 11 12  2  0
 11 23  1  0
 12 13  1  0
 14 22  1  0
 15 16  1  0
 16 21  1  0
  3 24  1  0
  4 25  1  0
  9 26  1  0
 10 27  1  0
 12 28  1  0
 13 29  1  0
 14 30  1  0
 15 31  1  0
 17 32  1  0
M  CHG  2  19  -1  21  -1
M  END
>  <mol_id>  (89) 
2026-08-23-6tgu-s0-n100-r2-0089

>  <rmsd_to_ref>  (89) 
4.494897959185758

$$$$
6tgu.A
     RDKit          3D

 32 34  0  0  0  0  0  0  0  0999 V2000
   -2.5650   22.7956   40.8751 C   0  0  0  0  0  0  0  0  0  0  0  0
   -1.9438   21.5236   40.5287 C   0  0  0  0  0  0  0  0  0  0  0  0
   -1.0157   20.9251   41.3496 C   0  0  0  0  0  0  0  0  0  0  0  0
   -0.4393   19.7121   40.9902 C   0  0  0  0  0  0  0  0  0  0  0  0
   -0.7461   19.0520   39.8327 C   0  0  0  0  0  0  0  0  0  0  0  0
    0.3759   16.8215   40.1182 C   0  0  0  0  0  0  0  0  0  0  0  0
    1.4175   14.8950   40.7135 C   0  0  0  0  0  0  0  0  0  0  0  0
    2.0045   13.5957   40.3071 C   0  0  0  0  0  0  0  0  0  0  0  0
    2.0178   13.1882   38.9909 C   0  0  0  0  0  0  0  0  0  0  0  0
    2.5495   11.9906   38.5663 C   0  0  0  0  0  0  0  0  0  0  0  0
    3.0956   11.1640   39.5271 C   0  0  0  0  0  0  0  0  0  0  0  0
    3.0897   11.5641   40.8688 C   0  0  0  0  0  0  0  0  0  0  0  0
    2.5486   12.7717   41.2632 C   0  0  0  0  0  0  0  0  0  0  0  0
    1.3961   15.3254   42.0390 C   0  0  0  0  0  0  0  0  0  0  0  0
   -1.6971   19.6922   39.0187 C   0  0  0  0  0  0  0  0  0  0  0  0
   -2.2673   20.8807   39.3627 C   0  0  0  0  0  0  0  0  0  0  0  0
   -0.2466   17.8343   39.3914 N   0  0  0  0  0  0  0  0  0  0  0  0
    0.8821   15.7286   39.8727 N   0  0  0  0  0  0  0  0  0  0  0  0
   -2.2491   23.4575   42.0539 O   0  0  0  0  0  0  0  0  0  0  0  0
   -3.4131   23.2844   40.0564 O   0  0  0  0  0  0  0  0  0  0  0  0
   -3.2019   21.4750   38.5259 O   0  0  0  0  0  0  0  0  0  0  0  0
    0.6033   16.9093   41.9895 S   0  0  0  0  0  0  0  0  0  0  0  0
    3.8005    9.6034   39.0745 Cl  0  0  0  0  0  0  0  0  0  0  0  0
   -0.7687   21.4421   42.2667 H   0  0  0  0  0  0  0  0  0  0  0  0
    0.2814   19.3109   41.6732 H   0  0  0  0  0  0  0  0  0  0  0  0
    1.5924   13.8350   38.2544 H   0  0  0  0  0  0  0  0  0  0  0  0
    2.5560   11.6762   37.5272 H   0  0  0  0  0  0  0  0  0  0  0  0
    3.5237   10.9092   41.6325 H   0  0  0  0  0  0  0  0  0  0  0  0
    2.5768   13.0179   42.3154 H   0  0  0  0  0  0  0  0  0  0  0  0
    1.8036   14.7806   42.9815 H   0  0  0  0  0  0  0  0  0  0  0  0
   -2.0103   19.2473   38.0724 H   0  0  0  0  0  0  0  0  0  0  0  0
   -0.3403   17.6284   38.3403 H   0  0  0  0  0  0  0  0  0  0  0  0
  1  2  1  0
  1 19  1  0
  1 20  2  0
  2  3  1  0
  2 16  2  0
  3  4  2  0
  4  5  1  0
  5 15  2  0
  5 17  1  0
  6 17  1  0
  6 18  2  0
  6 22  1  0
  7  8  1  0
  7 14  2  0
  7 18  1  0
  8  9  1  0
  8 13  2  0
  9 10  2  0
 10 11  1  0
 11 12  2  0
 11 23  1  0
 12 13  1  0
 14 22  1  0
 15 16  1  0
 16 21  1  0
  3 24  1  0
  4 25  1  0
  9 26  1  0
 10 27  1  0
 12 28  1  0
 13 29  1  0
 14 30  1  0
 15 31  1  0
 17 32  1  0
M  CHG  2  19  -1  21  -1
M  END
>  <mol_id>  (90) 
2026-08-23-6tgu-s0-n100-r2-0090

>  <rmsd_to_ref>  (90) 
4.540816326531374

$$$$
6tgu.A
     RDKit          3D

 32 34  0  0  0  0  0  0  0  0999 V2000
    6.5733   17.1618   40.2809 C   0  0  0  0  0  0  0  0  0  0  0  0
    5.1258   17.3902   40.7252 C   0  0  0  0  0  0  0  0  0  0  0  0
    4.7774   18.5341   41.4399 C   0  0  0  0  0  0  0  0  0  0  0  0
    3.4445   18.8709   41.6973 C   0  0  0  0  0  0  0  0  0  0  0  0
    2.4178   17.9661   41.3906 C   0  0  0  0  0  0  0  0  0  0  0  0
   -0.0898   17.8695   40.9831 C   0  0  0  0  0  0  0  0  0  0  0  0
   -1.3891   16.5568   39.6549 C   0  0  0  0  0  0  0  0  0  0  0  0
   -1.6652   15.4238   38.7710 C   0  0  0  0  0  0  0  0  0  0  0  0
   -2.9047   15.2610   38.1362 C   0  0  0  0  0  0  0  0  0  0  0  0
   -3.1348   14.1943   37.2730 C   0  0  0  0  0  0  0  0  0  0  0  0
   -2.1001   13.3150   37.0149 C   0  0  0  0  0  0  0  0  0  0  0  0
   -0.8570   13.4418   37.6164 C   0  0  0  0  0  0  0  0  0  0  0  0
   -0.6501   14.5093   38.4858 C   0  0  0  0  0  0  0  0  0  0  0  0
   -2.3008   17.5345   39.9540 C   0  0  0  0  0  0  0  0  0  0  0  0
    2.7499   16.8153   40.6616 C   0  0  0  0  0  0  0  0  0  0  0  0
    4.0848   16.5486   40.3516 C   0  0  0  0  0  0  0  0  0  0  0  0
    1.0479   18.3207   41.5879 N   0  0  0  0  0  0  0  0  0  0  0  0
   -0.0823   16.7674   40.1548 N   0  0  0  0  0  0  0  0  0  0  0  0
    7.3747   18.1275   40.4487 O   0  0  0  0  0  0  0  0  0  0  0  0
    6.8284   16.0753   39.7169 O   0  0  0  0  0  0  0  0  0  0  0  0
    4.3881   15.4749   39.5485 O   0  0  0  0  0  0  0  0  0  0  0  0
   -1.5699   18.8015   40.8641 S   0  0  0  0  0  0  0  0  0  0  0  0
   -2.3592   12.0054   35.9107 Cl  0  0  0  0  0  0  0  0  0  0  0  0
    5.5753   19.1929   41.8133 H   0  0  0  0  0  0  0  0  0  0  0  0
    3.2010   19.8474   42.1412 H   0  0  0  0  0  0  0  0  0  0  0  0
   -3.7083   15.9885   38.3236 H   0  0  0  0  0  0  0  0  0  0  0  0
   -4.1204   14.0535   36.8054 H   0  0  0  0  0  0  0  0  0  0  0  0
   -0.0549   12.7174   37.4118 H   0  0  0  0  0  0  0  0  0  0  0  0
    0.3353   14.6348   38.9584 H   0  0  0  0  0  0  0  0  0  0  0  0
   -3.3586   17.5134   39.6531 H   0  0  0  0  0  0  0  0  0  0  0  0
    1.9598   16.1235   40.3344 H   0  0  0  0  0  0  0  0  0  0  0  0
    0.8922   19.0392   42.3094 H   0  0  0  0  0  0  0  0  0  0  0  0
  1  2  1  0
  1 19  1  0
  1 20  2  0
  2  3  1  0
  2 16  2  0
  3  4  2  0
  4  5  1  0
  5 15  2  0
  5 17  1  0
  6 17  1  0
  6 18  2  0
  6 22  1  0
  7  8  1  0
  7 14  2  0
  7 18  1  0
  8  9  1  0
  8 13  2  0
  9 10  2  0
 10 11  1  0
 11 12  2  0
 11 23  1  0
 12 13  1  0
 14 22  1  0
 15 16  1  0
 16 21  1  0
  3 24  1  0
  4 25  1  0
  9 26  1  0
 10 27  1  0
 12 28  1  0
 13 29  1  0
 14 30  1  0
 15 31  1  0
 17 32  1  0
M  CHG  2  19  -1  21  -1
M  END
>  <mol_id>  (91) 
2026-08-23-6tgu-s0-n100-r2-0091

>  <rmsd_to_ref>  (91) 
4.586734693883717

$$$$
6tgu.A
     RDKit          3D

 32 34  0  0  0  0  0  0  0  0999 V2000
   -2.3095   18.7469   37.1422 C   0  0  0  0  0  0  0  0  0  0  0  0
   -1.3743   18.0460   38.0212 C   0  0  0  0  0  0  0  0  0  0  0  0
   -1.0254   16.7478   37.7202 C   0  0  0  0  0  0  0  0  0  0  0  0
   -0.1286   16.0538   38.5458 C   0  0  0  0  0  0  0  0  0  0  0  0
    0.4093   16.6845   39.6749 C   0  0  0  0  0  0  0  0  0  0  0  0
    1.4221   16.0488   41.8495 C   0  0  0  0  0  0  0  0  0  0  0  0
    2.1610   15.7579   43.9973 C   0  0  0  0  0  0  0  0  0  0  0  0
    3.0898   15.1976   45.0061 C   0  0  0  0  0  0  0  0  0  0  0  0
    2.9313   15.4761   46.3330 C   0  0  0  0  0  0  0  0  0  0  0  0
    3.7929   14.9643   47.2674 C   0  0  0  0  0  0  0  0  0  0  0  0
    4.8314   14.1649   46.9039 C   0  0  0  0  0  0  0  0  0  0  0  0
    5.0007   13.8783   45.5716 C   0  0  0  0  0  0  0  0  0  0  0  0
    4.1346   14.3896   44.6120 C   0  0  0  0  0  0  0  0  0  0  0  0
    1.0854   16.6233   44.4530 C   0  0  0  0  0  0  0  0  0  0  0  0
    0.0643   17.9826   39.9815 C   0  0  0  0  0  0  0  0  0  0  0  0
   -0.8295   18.6650   39.1526 C   0  0  0  0  0  0  0  0  0  0  0  0
    1.3233   15.9099   40.4349 N   0  0  0  0  0  0  0  0  0  0  0  0
    2.2129   15.5647   42.7497 N   0  0  0  0  0  0  0  0  0  0  0  0
   -2.6373   20.0757   37.4858 O   0  0  0  0  0  0  0  0  0  0  0  0
   -2.8090   18.2040   36.1214 O   0  0  0  0  0  0  0  0  0  0  0  0
   -1.1760   19.9778   39.4646 O   0  0  0  0  0  0  0  0  0  0  0  0
    0.2692   17.0386   42.8400 S   0  0  0  0  0  0  0  0  0  0  0  0
    5.8834   13.5531   48.1649 Cl  0  0  0  0  0  0  0  0  0  0  0  0
   -1.4600   16.2762   36.8353 H   0  0  0  0  0  0  0  0  0  0  0  0
    0.1379   15.0282   38.2976 H   0  0  0  0  0  0  0  0  0  0  0  0
    2.1280   16.1060   46.7029 H   0  0  0  0  0  0  0  0  0  0  0  0
    3.6436   15.2015   48.3113 H   0  0  0  0  0  0  0  0  0  0  0  0
    5.8322   13.2429   45.3061 H   0  0  0  0  0  0  0  0  0  0  0  0
    4.2773   14.1580   43.5475 H   0  0  0  0  0  0  0  0  0  0  0  0
    0.8119   16.9436   45.3902 H   0  0  0  0  0  0  0  0  0  0  0  0
    0.4736   18.4930   40.8397 H   0  0  0  0  0  0  0  0  0  0  0  0
    1.9534   15.2138   39.9973 H   0  0  0  0  0  0  0  0  0  0  0  0
  1  2  1  0
  1 19  1  0
  1 20  2  0
  2  3  1  0
  2 16  2  0
  3  4  2  0
  4  5  1  0
  5 15  2  0
  5 17  1  0
  6 17  1  0
  6 18  2  0
  6 22  1  0
  7  8  1  0
  7 14  2  0
  7 18  1  0
  8  9  1  0
  8 13  2  0
  9 10  2  0
 10 11  1  0
 11 12  2  0
 11 23  1  0
 12 13  1  0
 14 22  1  0
 15 16  1  0
 16 21  1  0
  3 24  1  0
  4 25  1  0
  9 26  1  0
 10 27  1  0
 12 28  1  0
 13 29  1  0
 14 30  1  0
 15 31  1  0
 17 32  1  0
M  CHG  2  19  -1  21  -1
M  END
>  <mol_id>  (92) 
2026-08-23-6tgu-s0-n100-r2-0092

>  <rmsd_to_ref>  (92) 
4.632653061227802

$$$$
6tgu.A
     RDKit          3D

 32 34  0  0  0  0  0  0  0  0999 V2000
   -2.2245   21.4922   41.7495 C   0  0  0  0  0  0  0  0  0  0  0  0
   -0.9066   20.9353   42.2952 C   0  0  0  0  0  0  0  0  0  0  0  0
   -0.4652   21.2841   43.5696 C   0  0  0  0  0  0  0  0  0  0  0  0
    0.6271   20.6539   44.1748 C   0  0  0  0  0  0  0  0  0  0  0  0
    1.4240   19.7653   43.4385 C   0  0  0  0  0  0  0  0  0  0  0  0
    3.0999   17.8783   43.7446 C   0  0  0  0  0  0  0  0  0  0  0  0
    3.5725   16.0189   42.5219 C   0  0  0  0  0  0  0  0  0  0  0  0
    3.4991   15.1477   41.3485 C   0  0  0  0  0  0  0  0  0  0  0  0
    4.0890   13.8758   41.3290 C   0  0  0  0  0  0  0  0  0  0  0  0
    3.9783   13.0501   40.2147 C   0  0  0  0  0  0  0  0  0  0  0  0
    3.2348   13.4888   39.1353 C   0  0  0  0  0  0  0  0  0  0  0  0
    2.6300   14.7366   39.1146 C   0  0  0  0  0  0  0  0  0  0  0  0
    2.7619   15.5528   40.2347 C   0  0  0  0  0  0  0  0  0  0  0  0
    4.2253   15.6899   43.6803 C   0  0  0  0  0  0  0  0  0  0  0  0
    0.9877   19.3952   42.1583 C   0  0  0  0  0  0  0  0  0  0  0  0
   -0.1541   19.9860   41.6140 C   0  0  0  0  0  0  0  0  0  0  0  0
    2.5036   19.0653   44.0595 N   0  0  0  0  0  0  0  0  0  0  0  0
    2.8383   17.2280   42.5574 N   0  0  0  0  0  0  0  0  0  0  0  0
   -2.9492   22.1320   42.5673 O   0  0  0  0  0  0  0  0  0  0  0  0
   -2.5163   21.2031   40.5684 O   0  0  0  0  0  0  0  0  0  0  0  0
   -0.6313   19.5407   40.4041 O   0  0  0  0  0  0  0  0  0  0  0  0
    3.9392   16.8671   44.9051 S   0  0  0  0  0  0  0  0  0  0  0  0
    3.0540   12.4548   37.7570 Cl  0  0  0  0  0  0  0  0  0  0  0  0
   -0.9919   22.0797   44.1170 H   0  0  0  0  0  0  0  0  0  0  0  0
    0.8616   20.8558   45.2304 H   0  0  0  0  0  0  0  0  0  0  0  0
    4.6483   13.5252   42.2089 H   0  0  0  0  0  0  0  0  0  0  0  0
    4.4726   12.0676   40.1931 H   0  0  0  0  0  0  0  0  0  0  0  0
    2.0607   15.0729   38.2356 H   0  0  0  0  0  0  0  0  0  0  0  0
    2.2743   16.5388   40.2420 H   0  0  0  0  0  0  0  0  0  0  0  0
    4.8491   14.7933   43.8111 H   0  0  0  0  0  0  0  0  0  0  0  0
    1.5443   18.6402   41.5837 H   0  0  0  0  0  0  0  0  0  0  0  0
    2.8995   19.5365   44.8854 H   0  0  0  0  0  0  0  0  0  0  0  0
  1  2  1  0
  1 19  1  0
  1 20  2  0
  2  3  1  0
  2 16  2  0
  3  4  2  0
  4  5  1  0
  5 15  2  0
  5 17  1  0
  6 17  1  0
  6 18  2  0
  6 22  1  0
  7  8  1  0
  7 14  2  0
  7 18  1  0
  8  9  1  0
  8 13  2  0
  9 10  2  0
 10 11  1  0
 11 12  2  0
 11 23  1  0
 12 13  1  0
 14 22  1  0
 15 16  1  0
 16 21  1  0
  3 24  1  0
  4 25  1  0
  9 26  1  0
 10 27  1  0
 12 28  1  0
 13 29  1  0
 14 30  1  0
 15 31  1  0
 17 32  1  0
M  CHG  2  19  -1  21  -1
M  END
>  <mol_id>  (93) 
2026-08-23-6tgu-s0-n100-r2-0093

>  <rmsd_to_ref>  (93) 
4.678571428572677

$$$$
6tgu.A
     RDKit          3D

 32 34  0  0  0  0  0  0  0  0999 V2000
    3.9108   21.4580   41.8485 C   0  0  0  0  0  0  0  0  0  0  0  0
    3.0300   20.3125   41.6894 C   0  0  0  0  0  0  0  0  0  0  0  0
    2.3034   19.8323   42.7557 C   0  0  0  0  0  0  0  0  0  0  0  0
    1.4654   18.7530   42.6322 C   0  0  0  0  0  0  0  0  0  0  0  0
    1.3015   18.0831   41.4259 C   0  0  0  0  0  0  0  0  0  0  0  0
   -0.1861   16.4152   40.2774 C   0  0  0  0  0  0  0  0  0  0  0  0
   -1.4335   15.0415   38.9928 C   0  0  0  0  0  0  0  0  0  0  0  0
   -2.3020   13.8344   38.9019 C   0  0  0  0  0  0  0  0  0  0  0  0
   -2.8333   13.4524   37.6988 C   0  0  0  0  0  0  0  0  0  0  0  0
   -3.6365   12.3357   37.6151 C   0  0  0  0  0  0  0  0  0  0  0  0
   -3.9334   11.5669   38.7297 C   0  0  0  0  0  0  0  0  0  0  0  0
   -3.3951   11.9583   39.9348 C   0  0  0  0  0  0  0  0  0  0  0  0
   -2.5993   13.0695   40.0022 C   0  0  0  0  0  0  0  0  0  0  0  0
   -1.1541   15.7850   37.8765 C   0  0  0  0  0  0  0  0  0  0  0  0
    2.0348   18.5747   40.3695 C   0  0  0  0  0  0  0  0  0  0  0  0
    2.8862   19.6685   40.4871 C   0  0  0  0  0  0  0  0  0  0  0  0
    0.4418   16.9904   41.3960 N   0  0  0  0  0  0  0  0  0  0  0  0
   -0.9052   15.4477   40.1029 N   0  0  0  0  0  0  0  0  0  0  0  0
    4.0197   22.0728   43.0884 O   0  0  0  0  0  0  0  0  0  0  0  0
    4.5748   21.8988   40.8787 O   0  0  0  0  0  0  0  0  0  0  0  0
    3.6081   20.1302   39.3878 O   0  0  0  0  0  0  0  0  0  0  0  0
   -0.0789   17.0971   38.5706 S   0  0  0  0  0  0  0  0  0  0  0  0
   -4.9562   10.1475   38.6121 Cl  0  0  0  0  0  0  0  0  0  0  0  0
    2.4132   20.3432   43.7240 H   0  0  0  0  0  0  0  0  0  0  0  0
    0.9323   18.4465   43.5319 H   0  0  0  0  0  0  0  0  0  0  0  0
   -2.6301   14.0248   36.7876 H   0  0  0  0  0  0  0  0  0  0  0  0
   -4.0315   12.0756   36.6429 H   0  0  0  0  0  0  0  0  0  0  0  0
   -3.5990   11.3894   40.8325 H   0  0  0  0  0  0  0  0  0  0  0  0
   -2.1901   13.3526   40.9644 H   0  0  0  0  0  0  0  0  0  0  0  0
   -1.4243   15.7171   36.8588 H   0  0  0  0  0  0  0  0  0  0  0  0
    1.9863   18.1210   39.3989 H   0  0  0  0  0  0  0  0  0  0  0  0
    0.2226   16.5168   42.3253 H   0  0  0  0  0  0  0  0  0  0  0  0
  1  2  1  0
  1 19  1  0
  1 20  2  0
  2  3  1  0
  2 16  2  0
  3  4  2  0
  4  5  1  0
  5 15  2  0
  5 17  1  0
  6 17  1  0
  6 18  2  0
  6 22  1  0
  7  8  1  0
  7 14  2  0
  7 18  1  0
  8  9  1  0
  8 13  2  0
  9 10  2  0
 10 11  1  0
 11 12  2  0
 11 23  1  0
 12 13  1  0
 14 22  1  0
 15 16  1  0
 16 21  1  0
  3 24  1  0
  4 25  1  0
  9 26  1  0
 10 27  1  0
 12 28  1  0
 13 29  1  0
 14 30  1  0
 15 31  1  0
 17 32  1  0
M  CHG  2  19  -1  21  -1
M  END
>  <mol_id>  (94) 
2026-08-23-6tgu-s0-n100-r2-0094

>  <rmsd_to_ref>  (94) 
4.724489795920833

$$$$
6tgu.A
     RDKit          3D

 32 34  0  0  0  0  0  0  0  0999 V2000
    1.0477   17.0473   34.0939 C   0  0  0  0  0  0  0  0  0  0  0  0
    0.5329   16.6766   35.4875 C   0  0  0  0  0  0  0  0  0  0  0  0
   -0.6176   15.9049   35.6344 C   0  0  0  0  0  0  0  0  0  0  0  0
   -1.0116   15.3886   36.8732 C   0  0  0  0  0  0  0  0  0  0  0  0
   -0.3473   15.7827   38.0437 C   0  0  0  0  0  0  0  0  0  0  0  0
    0.0343   15.0604   40.4512 C   0  0  0  0  0  0  0  0  0  0  0  0
    1.7922   15.3000   41.8753 C   0  0  0  0  0  0  0  0  0  0  0  0
    3.0830   15.8323   42.3130 C   0  0  0  0  0  0  0  0  0  0  0  0
    3.7111   15.3885   43.4853 C   0  0  0  0  0  0  0  0  0  0  0  0
    4.9546   15.8839   43.8654 C   0  0  0  0  0  0  0  0  0  0  0  0
    5.5859   16.7952   43.0400 C   0  0  0  0  0  0  0  0  0  0  0  0
    5.0035   17.2567   41.8691 C   0  0  0  0  0  0  0  0  0  0  0  0
    3.7540   16.7576   41.5119 C   0  0  0  0  0  0  0  0  0  0  0  0
    1.0819   14.3519   42.5631 C   0  0  0  0  0  0  0  0  0  0  0  0
    0.8189   16.5501   37.9127 C   0  0  0  0  0  0  0  0  0  0  0  0
    1.2290   16.9835   36.6506 C   0  0  0  0  0  0  0  0  0  0  0  0
   -0.6956   15.2157   39.3080 N   0  0  0  0  0  0  0  0  0  0  0  0
    1.2645   15.6613   40.6131 N   0  0  0  0  0  0  0  0  0  0  0  0
    0.4786   16.4839   33.1131 O   0  0  0  0  0  0  0  0  0  0  0  0
    2.0367   17.8106   34.0394 O   0  0  0  0  0  0  0  0  0  0  0  0
    2.4273   17.6449   36.5221 O   0  0  0  0  0  0  0  0  0  0  0  0
   -0.2868   13.8291   41.6571 S   0  0  0  0  0  0  0  0  0  0  0  0
    7.1526   17.3900   43.4794 Cl  0  0  0  0  0  0  0  0  0  0  0  0
   -1.2354   15.6952   34.7487 H   0  0  0  0  0  0  0  0  0  0  0  0
   -1.8442   14.6719   36.9294 H   0  0  0  0  0  0  0  0  0  0  0  0
    3.2129   14.6364   44.1148 H   0  0  0  0  0  0  0  0  0  0  0  0
    5.4258   15.5568   44.8040 H   0  0  0  0  0  0  0  0  0  0  0  0
    5.5159   17.9984   41.2387 H   0  0  0  0  0  0  0  0  0  0  0  0
    3.2851   17.1000   40.5776 H   0  0  0  0  0  0  0  0  0  0  0  0
    1.3498   13.9747   43.5611 H   0  0  0  0  0  0  0  0  0  0  0  0
    1.4099   16.8102   38.8032 H   0  0  0  0  0  0  0  0  0  0  0  0
   -1.6620   14.8643   39.3670 H   0  0  0  0  0  0  0  0  0  0  0  0
  1  2  1  0
  1 19  1  0
  1 20  2  0
  2  3  1  0
  2 16  2  0
  3  4  2  0
  4  5  1  0
  5 15  2  0
  5 17  1  0
  6 17  1  0
  6 18  2  0
  6 22  1  0
  7  8  1  0
  7 14  2  0
  7 18  1  0
  8  9  1  0
  8 13  2  0
  9 10  2  0
 10 11  1  0
 11 12  2  0
 11 23  1  0
 12 13  1  0
 14 22  1  0
 15 16  1  0
 16 21  1  0
  3 24  1  0
  4 25  1  0
  9 26  1  0
 10 27  1  0
 12 28  1  0
 13 29  1  0
 14 30  1  0
 15 31  1  0
 17 32  1  0
M  CHG  2  19  -1  21  -1
M  END
>  <mol_id>  (95) 
2026-08-23-6tgu-s0-n100-r2-0095

>  <rmsd_to_ref>  (95) 
4.7704081632689075

$$$$
6tgu.A
     RDKit          3D

 32 34  0  0  0  0  0  0  0  0999 V2000
    4.7071   20.8495   42.1600 C   0  0  0  0  0  0  0  0  0  0  0  0
    4.1658   19.7806   41.3420 C   0  0  0  0  0  0  0  0  0  0  0  0
    4.7295   19.4125   40.1442 C   0  0  0  0  0  0  0  0  0  0  0  0
    4.2259   18.4026   39.3618 C   0  0  0  0  0  0  0  0  0  0  0  0
    3.0871   17.6855   39.7605 C   0  0  0  0  0  0  0  0  0  0  0  0
    1.8053   15.5935   39.2637 C   0  0  0  0  0  0  0  0  0  0  0  0
    0.5633   13.7000   39.0347 C   0  0  0  0  0  0  0  0  0  0  0  0
   -0.0293   12.5979   38.2263 C   0  0  0  0  0  0  0  0  0  0  0  0
   -0.7978   11.6341   38.8170 C   0  0  0  0  0  0  0  0  0  0  0  0
   -1.3244   10.6340   38.0259 C   0  0  0  0  0  0  0  0  0  0  0  0
   -1.1250   10.5443   36.6792 C   0  0  0  0  0  0  0  0  0  0  0  0
   -0.3511   11.5133   36.0782 C   0  0  0  0  0  0  0  0  0  0  0  0
    0.1746   12.5123   36.8685 C   0  0  0  0  0  0  0  0  0  0  0  0
    0.3255   13.7422   40.4057 C   0  0  0  0  0  0  0  0  0  0  0  0
    2.5386   18.0669   40.9576 C   0  0  0  0  0  0  0  0  0  0  0  0
    3.0459   19.0852   41.7474 C   0  0  0  0  0  0  0  0  0  0  0  0
    2.6388   16.6896   38.9068 N   0  0  0  0  0  0  0  0  0  0  0  0
    1.2907   14.6232   38.5181 N   0  0  0  0  0  0  0  0  0  0  0  0
    5.8353   21.5335   41.7288 O   0  0  0  0  0  0  0  0  0  0  0  0
    4.1115   21.1051   43.2406 O   0  0  0  0  0  0  0  0  0  0  0  0
    2.4471   19.4287   42.9537 O   0  0  0  0  0  0  0  0  0  0  0  0
    1.2121   15.1911   40.9102 S   0  0  0  0  0  0  0  0  0  0  0  0
   -1.8265    9.2438   35.7350 Cl  0  0  0  0  0  0  0  0  0  0  0  0
    5.6084   19.9624   39.8309 H   0  0  0  0  0  0  0  0  0  0  0  0
    4.7227   18.1702   38.4333 H   0  0  0  0  0  0  0  0  0  0  0  0
   -1.0098   11.6146   39.8539 H   0  0  0  0  0  0  0  0  0  0  0  0
   -1.9316    9.8720   38.4940 H   0  0  0  0  0  0  0  0  0  0  0  0
   -0.1908   11.4451   35.0120 H   0  0  0  0  0  0  0  0  0  0  0  0
    0.7906   13.2808   36.3742 H   0  0  0  0  0  0  0  0  0  0  0  0
   -0.2478   13.0755   41.0276 H   0  0  0  0  0  0  0  0  0  0  0  0
    1.6594   17.5731   41.3290 H   0  0  0  0  0  0  0  0  0  0  0  0
    2.9201   16.7130   37.8871 H   0  0  0  0  0  0  0  0  0  0  0  0
  1  2  1  0
  1 19  1  0
  1 20  2  0
  2  3  1  0
  2 16  2  0
  3  4  2  0
  4  5  1  0
  5 15  2  0
  5 17  1  0
  6 17  1  0
  6 18  2  0
  6 22  1  0
  7  8  1  0
  7 14  2  0
  7 18  1  0
  8  9  1  0
  8 13  2  0
  9 10  2  0
 10 11  1  0
 11 12  2  0
 11 23  1  0
 12 13  1  0
 14 22  1  0
 15 16  1  0
 16 21  1  0
  3 24  1  0
  4 25  1  0
  9 26  1  0
 10 27  1  0
 12 28  1  0
 13 29  1  0
 14 30  1  0
 15 31  1  0
 17 32  1  0
M  CHG  2  19  -1  21  -1
M  END
>  <mol_id>  (96) 
2026-08-23-6tgu-s0-n100-r2-0096

>  <rmsd_to_ref>  (96) 
4.816326530613242

$$$$
6tgu.A
     RDKit          3D

 32 34  0  0  0  0  0  0  0  0999 V2000
   -2.4442   21.3583   36.2500 C   0  0  0  0  0  0  0  0  0  0  0  0
   -1.1522   20.5484   36.3896 C   0  0  0  0  0  0  0  0  0  0  0  0
   -0.0298   20.8708   35.6301 C   0  0  0  0  0  0  0  0  0  0  0  0
    1.2177   20.2824   35.8629 C   0  0  0  0  0  0  0  0  0  0  0  0
    1.3348   19.2127   36.7623 C   0  0  0  0  0  0  0  0  0  0  0  0
    3.0576   17.9712   38.1600 C   0  0  0  0  0  0  0  0  0  0  0  0
    2.9415   16.9087   40.1683 C   0  0  0  0  0  0  0  0  0  0  0  0
    2.2597   16.3319   41.3275 C   0  0  0  0  0  0  0  0  0  0  0  0
    2.9649   15.8253   42.4285 C   0  0  0  0  0  0  0  0  0  0  0  0
    2.2958   15.3119   43.5352 C   0  0  0  0  0  0  0  0  0  0  0  0
    0.9143   15.3496   43.5512 C   0  0  0  0  0  0  0  0  0  0  0  0
    0.1776   15.8468   42.4867 C   0  0  0  0  0  0  0  0  0  0  0  0
    0.8651   16.3455   41.3837 C   0  0  0  0  0  0  0  0  0  0  0  0
    4.3031   16.9902   40.0431 C   0  0  0  0  0  0  0  0  0  0  0  0
    0.2175   18.8829   37.5426 C   0  0  0  0  0  0  0  0  0  0  0  0
   -0.9942   19.5458   37.3390 C   0  0  0  0  0  0  0  0  0  0  0  0
    2.6112   18.6436   37.0590 N   0  0  0  0  0  0  0  0  0  0  0  0
    2.1957   17.5450   39.1481 N   0  0  0  0  0  0  0  0  0  0  0  0
   -2.3779   22.4115   35.5503 O   0  0  0  0  0  0  0  0  0  0  0  0
   -3.4354   20.9610   36.9006 O   0  0  0  0  0  0  0  0  0  0  0  0
   -2.0521   19.2884   38.1783 O   0  0  0  0  0  0  0  0  0  0  0  0
    4.7406   17.8968   38.6451 S   0  0  0  0  0  0  0  0  0  0  0  0
    0.0684   14.7514   44.9398 Cl  0  0  0  0  0  0  0  0  0  0  0  0
   -0.1275   21.6110   34.8223 H   0  0  0  0  0  0  0  0  0  0  0  0
    2.1087   20.6595   35.3396 H   0  0  0  0  0  0  0  0  0  0  0  0
    4.0648   15.8339   42.4171 H   0  0  0  0  0  0  0  0  0  0  0  0
    2.8552   14.8846   44.3805 H   0  0  0  0  0  0  0  0  0  0  0  0
   -0.9221   15.8471   42.5132 H   0  0  0  0  0  0  0  0  0  0  0  0
    0.2968   16.7595   40.5378 H   0  0  0  0  0  0  0  0  0  0  0  0
    5.0215   16.5371   40.7421 H   0  0  0  0  0  0  0  0  0  0  0  0
    0.2955   18.1028   38.3142 H   0  0  0  0  0  0  0  0  0  0  0  0
    3.3144   18.7606   36.3156 H   0  0  0  0  0  0  0  0  0  0  0  0
  1  2  1  0
  1 19  1  0
  1 20  2  0
  2  3  1  0
  2 16  2  0
  3  4  2  0
  4  5  1  0
  5 15  2  0
  5 17  1  0
  6 17  1  0
  6 18  2  0
  6 22  1  0
  7  8  1  0
  7 14  2  0
  7 18  1  0
  8  9  1  0
  8 13  2  0
  9 10  2  0
 10 11  1  0
 11 12  2  0
 11 23  1  0
 12 13  1  0
 14 22  1  0
 15 16  1  0
 16 21  1  0
  3 24  1  0
  4 25  1  0
  9 26  1  0
 10 27  1  0
 12 28  1  0
 13 29  1  0
 14 30  1  0
 15 31  1  0
 17 32  1  0
M  CHG  2  19  -1  21  -1
M  END
>  <mol_id>  (97) 
2026-08-23-6tgu-s0-n100-r2-0097

>  <rmsd_to_ref>  (97) 
4.862244897960873

$$$$
6tgu.A
     RDKit          3D

 32 34  0  0  0  0  0  0  0  0999 V2000
    0.7746   21.9372   43.4569 C   0  0  0  0  0  0  0  0  0  0  0  0
    1.4182   20.7843   42.8417 C   0  0  0  0  0  0  0  0  0  0  0  0
    0.8326   19.5439   42.9297 C   0  0  0  0  0  0  0  0  0  0  0  0
    1.4401   18.4460   42.3485 C   0  0  0  0  0  0  0  0  0  0  0  0
    2.6296   18.5506   41.6738 C   0  0  0  0  0  0  0  0  0  0  0  0
    2.7826   16.3060   40.5304 C   0  0  0  0  0  0  0  0  0  0  0  0
    2.4511   14.2900   39.6103 C   0  0  0  0  0  0  0  0  0  0  0  0
    3.0572   13.0738   39.0252 C   0  0  0  0  0  0  0  0  0  0  0  0
    2.2622   12.0383   38.5778 C   0  0  0  0  0  0  0  0  0  0  0  0
    2.8343   10.9035   38.0361 C   0  0  0  0  0  0  0  0  0  0  0  0
    4.2029   10.7561   37.9193 C   0  0  0  0  0  0  0  0  0  0  0  0
    5.0078   11.7915   38.3655 C   0  0  0  0  0  0  0  0  0  0  0  0
    4.4167   12.9092   38.9005 C   0  0  0  0  0  0  0  0  0  0  0  0
    1.0995   14.4336   39.7345 C   0  0  0  0  0  0  0  0  0  0  0  0
    3.1888   19.8231   41.6080 C   0  0  0  0  0  0  0  0  0  0  0  0
    2.6157   20.9353   42.1720 C   0  0  0  0  0  0  0  0  0  0  0  0
    3.3162   17.5108   41.0390 N   0  0  0  0  0  0  0  0  0  0  0  0
    3.1365   15.3157   40.0559 N   0  0  0  0  0  0  0  0  0  0  0  0
   -0.4300   21.7951   44.1316 O   0  0  0  0  0  0  0  0  0  0  0  0
    1.3420   23.0685   43.3602 O   0  0  0  0  0  0  0  0  0  0  0  0
    3.2159   22.1958   42.0796 O   0  0  0  0  0  0  0  0  0  0  0  0
    0.9059   16.0473   40.4911 S   0  0  0  0  0  0  0  0  0  0  0  0
    4.8878    9.2910   37.2239 Cl  0  0  0  0  0  0  0  0  0  0  0  0
   -0.1204   19.4548   43.4673 H   0  0  0  0  0  0  0  0  0  0  0  0
    0.9394   17.5021   42.4628 H   0  0  0  0  0  0  0  0  0  0  0  0
    1.1869   12.1244   38.6549 H   0  0  0  0  0  0  0  0  0  0  0  0
    2.1554   10.1277   37.7030 H   0  0  0  0  0  0  0  0  0  0  0  0
    6.0804   11.6731   38.2723 H   0  0  0  0  0  0  0  0  0  0  0  0
    5.0479   13.7040   39.2446 H   0  0  0  0  0  0  0  0  0  0  0  0
    0.2748   13.7668   39.4605 H   0  0  0  0  0  0  0  0  0  0  0  0
    4.1324   19.9650   41.0838 H   0  0  0  0  0  0  0  0  0  0  0  0
    4.3690   17.6139   40.9111 H   0  0  0  0  0  0  0  0  0  0  0  0
  1  2  1  0
  1 19  1  0
  1 20  2  0
  2  3  1  0
  2 16  2  0
  3  4  2  0
  4  5  1  0
  5 15  2  0
  5 17  1  0
  6 17  1  0
  6 18  2  0
  6 22  1  0
  7  8  1  0
  7 14  2  0
  7 18  1  0
  8  9  1  0
  8 13  2  0
  9 10  2  0
 10 11  1  0
 11 12  2  0
 11 23  1  0
 12 13  1  0
 14 22  1  0
 15 16  1  0
 16 21  1  0
  3 24  1  0
  4 25  1  0
  9 26  1  0
 10 27  1  0
 12 28  1  0
 13 29  1  0
 14 30  1  0
 15 31  1  0
 17 32  1  0
M  CHG  2  19  -1  21  -1
M  END
>  <mol_id>  (98) 
2026-08-23-6tgu-s0-n100-r2-0098

>  <rmsd_to_ref>  (98) 
4.908163265310252

$$$$
6tgu.A
     RDKit          3D

 32 34  0  0  0  0  0  0  0  0999 V2000
    7.1824   15.1335   38.0373 C   0  0  0  0  0  0  0  0  0  0  0  0
    6.3457   16.1066   38.8726 C   0  0  0  0  0  0  0  0  0  0  0  0
    6.8171   17.3882   39.1483 C   0  0  0  0  0  0  0  0  0  0  0  0
    6.0093   18.3643   39.7409 C   0  0  0  0  0  0  0  0  0  0  0  0
    4.7431   18.0235   40.2382 C   0  0  0  0  0  0  0  0  0  0  0  0
    2.5209   19.0667   40.8991 C   0  0  0  0  0  0  0  0  0  0  0  0
    0.3753   18.3156   40.8112 C   0  0  0  0  0  0  0  0  0  0  0  0
   -0.6731   17.3110   40.6298 C   0  0  0  0  0  0  0  0  0  0  0  0
   -2.0344   17.6469   40.6408 C   0  0  0  0  0  0  0  0  0  0  0  0
   -3.0140   16.6810   40.4326 C   0  0  0  0  0  0  0  0  0  0  0  0
   -2.6198   15.3827   40.1692 C   0  0  0  0  0  0  0  0  0  0  0  0
   -1.2849   15.0081   40.1433 C   0  0  0  0  0  0  0  0  0  0  0  0
   -0.3200   15.9868   40.3652 C   0  0  0  0  0  0  0  0  0  0  0  0
    0.1318   19.6469   41.0225 C   0  0  0  0  0  0  0  0  0  0  0  0
    4.2492   16.7411   39.9595 C   0  0  0  0  0  0  0  0  0  0  0  0
    5.0542   15.8143   39.2946 C   0  0  0  0  0  0  0  0  0  0  0  0
    3.8808   19.0213   40.7878 N   0  0  0  0  0  0  0  0  0  0  0  0
    1.7353   17.9631   40.6430 N   0  0  0  0  0  0  0  0  0  0  0  0
    8.2188   15.6086   37.4864 O   0  0  0  0  0  0  0  0  0  0  0  0
    6.7346   13.9740   37.9002 O   0  0  0  0  0  0  0  0  0  0  0  0
    4.5245   14.5979   38.9346 O   0  0  0  0  0  0  0  0  0  0  0  0
    1.5967   20.5531   40.9981 S   0  0  0  0  0  0  0  0  0  0  0  0
   -3.8272   14.1774   39.8675 Cl  0  0  0  0  0  0  0  0  0  0  0  0
    7.8567   17.6403   38.8921 H   0  0  0  0  0  0  0  0  0  0  0  0
    6.3680   19.4014   39.8170 H   0  0  0  0  0  0  0  0  0  0  0  0
   -2.3327   18.6910   40.8168 H   0  0  0  0  0  0  0  0  0  0  0  0
   -4.0808   16.9454   40.4769 H   0  0  0  0  0  0  0  0  0  0  0  0
   -0.9957   13.9641   39.9524 H   0  0  0  0  0  0  0  0  0  0  0  0
    0.7441   15.7104   40.3313 H   0  0  0  0  0  0  0  0  0  0  0  0
   -0.8662   20.0797   41.1860 H   0  0  0  0  0  0  0  0  0  0  0  0
    3.2289   16.4656   40.2645 H   0  0  0  0  0  0  0  0  0  0  0  0
    4.3681   19.8470   41.1641 H   0  0  0  0  0  0  0  0  0  0  0  0
  1  2  1  0
  1 19  1  0
  1 20  2  0
  2  3  1  0
  2 16  2  0
  3  4  2  0
  4  5  1  0
  5 15  2  0
  5 17  1  0
  6 17  1  0
  6 18  2  0
  6 22  1  0
  7  8  1  0
  7 14  2  0
  7 18  1  0
  8  9  1  0
  8 13  2  0
  9 10  2  0
 10 11  1  0
 11 12  2  0
 11 23  1  0
 12 13  1  0
 14 22  1  0
 15 16  1  0
 16 21  1  0
  3 24  1  0
  4 25  1  0
  9 26  1  0
 10 27  1  0
 12 28  1  0
 13 29  1  0
 14 30  1  0
 15 31  1  0
 17 32  1  0
M  CHG  2  19  -1  21  -1
M  END
>  <mol_id>  (99) 
2026-08-23-6tgu-s0-n100-r2-0099

>  <rmsd_to_ref>  (99) 
4.9540816326593164

$$$$
6tgu.A
     RDKit          3D

 32 34  0  0  0  0  0  0  0  0999 V2000
   -2.4027   18.0833   35.6496 C   0  0  0  0  0  0  0  0  0  0  0  0
   -1.7860   17.5593   36.8725 C   0  0  0  0  0  0  0  0  0  0  0  0
   -1.9659   18.1198   38.1079 C   0  0  0  0  0  0  0  0  0  0  0  0
   -1.3807   17.6279   39.2712 C   0  0  0  0  0  0  0  0  0  0  0  0
   -0.5792   16.5108   39.1421 C   0  0  0  0  0  0  0  0  0  0  0  0
    0.6770   16.5722   41.3167 C   0  0  0  0  0  0  0  0  0  0  0  0
    1.7086   17.1788   43.2333 C   0  0  0  0  0  0  0  0  0  0  0  0
    2.3378   16.7757   44.4961 C   0  0  0  0  0  0  0  0  0  0  0  0
    2.4428   15.4475   44.8506 C   0  0  0  0  0  0  0  0  0  0  0  0
    3.0429   15.0528   46.0533 C   0  0  0  0  0  0  0  0  0  0  0  0
    3.5424   16.0067   46.9065 C   0  0  0  0  0  0  0  0  0  0  0  0
    3.4424   17.3431   46.5599 C   0  0  0  0  0  0  0  0  0  0  0  0
    2.8408   17.7259   45.3558 C   0  0  0  0  0  0  0  0  0  0  0  0
    1.5691   18.5263   42.8534 C   0  0  0  0  0  0  0  0  0  0  0  0
   -0.3967   15.9408   37.8837 C   0  0  0  0  0  0  0  0  0  0  0  0
   -0.9790   16.4360   36.7451 C   0  0  0  0  0  0  0  0  0  0  0  0
    0.1101   15.8982   40.2124 N   0  0  0  0  0  0  0  0  0  0  0  0
    1.1951   16.3819   42.3218 N   0  0  0  0  0  0  0  0  0  0  0  0
   -3.2347   19.2114   35.6840 O   0  0  0  0  0  0  0  0  0  0  0  0
   -2.1539   17.4759   34.5575 O   0  0  0  0  0  0  0  0  0  0  0  0
   -0.7514   15.8146   35.5184 O   0  0  0  0  0  0  0  0  0  0  0  0
    0.7218   18.5017   41.2413 S   0  0  0  0  0  0  0  0  0  0  0  0
    4.2887   15.4877   48.4059 Cl  0  0  0  0  0  0  0  0  0  0  0  0
   -2.6071   19.0097   38.1980 H   0  0  0  0  0  0  0  0  0  0  0  0
   -1.5352   18.0752   40.2411 H   0  0  0  0  0  0  0  0  0  0  0  0
    2.0511   14.6764   44.1845 H   0  0  0  0  0  0  0  0  0  0  0  0
    3.0788   14.0058   46.2453 H   0  0  0  0  0  0  0  0  0  0  0  0
    3.8359   18.0686   47.2377 H   0  0  0  0  0  0  0  0  0  0  0  0
    2.8081   18.7881   45.1737 H   0  0  0  0  0  0  0  0  0  0  0  0
    1.8985   19.4837   43.3946 H   0  0  0  0  0  0  0  0  0  0  0  0
    0.2294   15.0660   37.7721 H   0  0  0  0  0  0  0  0  0  0  0  0
    0.2153   14.8636   40.1926 H   0  0  0  0  0  0  0  0  0  0  0  0
  1  2  1  0
  1 19  1  0
  1 20  2  0
  2  3  1  0
  2 16  2  0
  3  4  2  0
  4  5  1  0
  5 15  2  0
  5 17  1  0
  6 17  1  0
  6 18  2  0
  6 22  1  0
  7  8  1  0
  7 14  2  0
  7 18  1  0
  8  9  1  0
  8 13  2  0
  9 10  2  0
 10 11  1  0
 11 12  2  0
 11 23  1  0
 12 13  1  0
 14 22  1  0
 15 16  1  0
 16 21  1  0
  3 24  1  0
  4 25  1  0
  9 26  1  0
 10 27  1  0
 12 28  1  0
 13 29  1  0
 14 30  1  0
 15 31  1  0
 17 32  1  0
M  CHG  2  19  -1  21  -1
M  END
>  <mol_id>  (100) 
2026-08-23-6tgu-s0-n100-r2-0100

>  <rmsd_to_ref>  (100) 
5.000000000006911

$$$$
