6tgu.A
     RDKit          3D

 32 34  0  0  0  0  0  0  0  0999 V2000
    3.2704   20.0816   36.9100 C   0  0  0  0  0  0  0  0  0  0  0  0
    2.7239   19.8375   38.3194 C   0  0  0  0  0  0  0  0  0  0  0  0
    1.9745   20.8172   38.9669 C   0  0  0  0  0  0  0  0  0  0  0  0
    1.3019   20.5646   40.1670 C   0  0  0  0  0  0  0  0  0  0  0  0
    1.5079   19.3565   40.8488 C   0  0  0  0  0  0  0  0  0  0  0  0
    0.4444   17.8615   42.6087 C   0  0  0  0  0  0  0  0  0  0  0  0
    0.4288   15.6073   42.9153 C   0  0  0  0  0  0  0  0  0  0  0  0
    0.8553   14.2304   42.6635 C   0  0  0  0  0  0  0  0  0  0  0  0
    0.2328   13.1351   43.2790 C   0  0  0  0  0  0  0  0  0  0  0  0
    0.6322   11.8319   42.9995 C   0  0  0  0  0  0  0  0  0  0  0  0
    1.6306   11.6302   42.0652 C   0  0  0  0  0  0  0  0  0  0  0  0
    2.2690   12.6840   41.4288 C   0  0  0  0  0  0  0  0  0  0  0  0
    1.8629   13.9810   41.7304 C   0  0  0  0  0  0  0  0  0  0  0  0
   -0.5843   15.9508   43.7709 C   0  0  0  0  0  0  0  0  0  0  0  0
    2.2504   18.3557   40.2060 C   0  0  0  0  0  0  0  0  0  0  0  0
    2.8437   18.6148   38.9691 C   0  0  0  0  0  0  0  0  0  0  0  0
    0.7803   19.0569   42.0413 N   0  0  0  0  0  0  0  0  0  0  0  0
    0.9791   16.6716   42.1626 N   0  0  0  0  0  0  0  0  0  0  0  0
    2.8674   21.1275   36.3211 O   0  0  0  0  0  0  0  0  0  0  0  0
    4.0035   19.1925   36.4244 O   0  0  0  0  0  0  0  0  0  0  0  0
    3.4800   17.5959   38.3007 O   0  0  0  0  0  0  0  0  0  0  0  0
   -0.9334   17.6347   43.6687 S   0  0  0  0  0  0  0  0  0  0  0  0
    2.1103   10.0114   41.6767 Cl  0  0  0  0  0  0  0  0  0  0  0  0
    1.9097   21.8205   38.5206 H   0  0  0  0  0  0  0  0  0  0  0  0
    0.6099   21.3151   40.5769 H   0  0  0  0  0  0  0  0  0  0  0  0
   -0.5845   13.3089   43.9944 H   0  0  0  0  0  0  0  0  0  0  0  0
    0.1628   10.9792   43.5119 H   0  0  0  0  0  0  0  0  0  0  0  0
    3.0758   12.4998   40.7041 H   0  0  0  0  0  0  0  0  0  0  0  0
    2.3468   14.8280   41.2221 H   0  0  0  0  0  0  0  0  0  0  0  0
   -1.1055   15.2454   44.4348 H   0  0  0  0  0  0  0  0  0  0  0  0
    2.3653   17.3677   40.6757 H   0  0  0  0  0  0  0  0  0  0  0  0
    0.4535   19.8836   42.5615 H   0  0  0  0  0  0  0  0  0  0  0  0
  1  2  1  0
  1 19  1  0
  1 20  2  0
  2  3  1  0
  2 16  2  0
  3  4  2  0
  4  5  1  0
  5 15  2  0
  5 17  1  0
  6 17  1  0
  6 18  2  0
  6 22  1  0
  7  8  1  0
  7 14  2  0
  7 18  1  0
  8  9  1  0
  8 13  2  0
  9 10  2  0
 10 11  1  0
 11 12  2  0
 11 23  1  0
 12 13  1  0
 14 22  1  0
 15 16  1  0
 16 21  1  0
  3 24  1  0
  4 25  1  0
  9 26  1  0
 10 27  1  0
 12 28  1  0
 13 29  1  0
 14 30  1  0
 15 31  1  0
 17 32  1  0
M  CHG  2  19  -1  21  -1
M  END
>  <mol_id>  (1) 
2026-08-23-6tgu-s0-n100-r1-0001

>  <rmsd_to_ref>  (1) 
0.0

$$$$
6tgu.A
     RDKit          3D

 32 34  0  0  0  0  0  0  0  0999 V2000
    3.6357   20.1800   37.1593 C   0  0  0  0  0  0  0  0  0  0  0  0
    2.9434   19.8901   38.4107 C   0  0  0  0  0  0  0  0  0  0  0  0
    2.5008   20.9428   39.1817 C   0  0  0  0  0  0  0  0  0  0  0  0
    1.8577   20.6617   40.3445 C   0  0  0  0  0  0  0  0  0  0  0  0
    1.6153   19.3747   40.8105 C   0  0  0  0  0  0  0  0  0  0  0  0
    0.7020   17.8431   42.4894 C   0  0  0  0  0  0  0  0  0  0  0  0
    0.5097   15.6458   42.8884 C   0  0  0  0  0  0  0  0  0  0  0  0
    0.7710   14.2744   42.4518 C   0  0  0  0  0  0  0  0  0  0  0  0
    1.4347   13.9851   41.2655 C   0  0  0  0  0  0  0  0  0  0  0  0
    1.6694   12.6817   40.8749 C   0  0  0  0  0  0  0  0  0  0  0  0
    1.2584   11.6140   41.6398 C   0  0  0  0  0  0  0  0  0  0  0  0
    0.5995   11.8793   42.8181 C   0  0  0  0  0  0  0  0  0  0  0  0
    0.3709   13.1851   43.1976 C   0  0  0  0  0  0  0  0  0  0  0  0
   -0.1570   15.9102   44.0809 C   0  0  0  0  0  0  0  0  0  0  0  0
    2.0799   18.3518   39.9991 C   0  0  0  0  0  0  0  0  0  0  0  0
    2.7411   18.5923   38.8048 C   0  0  0  0  0  0  0  0  0  0  0  0
    0.9443   19.1770   42.0214 N   0  0  0  0  0  0  0  0  0  0  0  0
    0.8447   16.7553   42.2592 N   0  0  0  0  0  0  0  0  0  0  0  0
    4.0943   19.1541   36.3589 O   0  0  0  0  0  0  0  0  0  0  0  0
    3.8442   21.3681   36.7566 O   0  0  0  0  0  0  0  0  0  0  0  0
    3.1906   17.5279   38.0216 O   0  0  0  0  0  0  0  0  0  0  0  0
   -0.2278   17.7396   44.1637 S   0  0  0  0  0  0  0  0  0  0  0  0
    1.5490    9.9552   41.1575 Cl  0  0  0  0  0  0  0  0  0  0  0  0
    2.6834   21.9491   38.8298 H   0  0  0  0  0  0  0  0  0  0  0  0
    1.5123   21.4958   40.9458 H   0  0  0  0  0  0  0  0  0  0  0  0
    1.7622   14.8334   40.6562 H   0  0  0  0  0  0  0  0  0  0  0  0
    2.1899   12.4938   39.9437 H   0  0  0  0  0  0  0  0  0  0  0  0
    0.2698   11.0569   43.4309 H   0  0  0  0  0  0  0  0  0  0  0  0
   -0.1503   13.3476   44.1310 H   0  0  0  0  0  0  0  0  0  0  0  0
   -0.5735   15.2516   44.8457 H   0  0  0  0  0  0  0  0  0  0  0  0
    1.9408   17.3317   40.2732 H   0  0  0  0  0  0  0  0  0  0  0  0
    0.6370   20.0278   42.5531 H   0  0  0  0  0  0  0  0  0  0  0  0
  1  2  1  0
  1 19  1  0
  1 20  2  0
  2  3  1  0
  2 16  2  0
  3  4  2  0
  4  5  1  0
  5 15  2  0
  5 17  1  0
  6 17  1  0
  6 18  2  0
  6 22  1  0
  7  8  1  0
  7 14  2  0
  7 18  1  0
  8  9  1  0
  8 13  2  0
  9 10  2  0
 10 11  1  0
 11 12  2  0
 11 23  1  0
 12 13  1  0
 14 22  1  0
 15 16  1  0
 16 21  1  0
  3 24  1  0
  4 25  1  0
  9 26  1  0
 10 27  1  0
 12 28  1  0
 13 29  1  0
 14 30  1  0
 15 31  1  0
 17 32  1  0
M  CHG  2  19  -1  21  -1
M  END
>  <mol_id>  (2) 
2026-08-23-6tgu-s0-n100-r1-0002

>  <rmsd_to_ref>  (2) 
0.5000000000045967

$$$$
6tgu.A
     RDKit          3D

 32 34  0  0  0  0  0  0  0  0999 V2000
    2.8371   20.6314   37.0843 C   0  0  0  0  0  0  0  0  0  0  0  0
    2.4014   20.2126   38.4912 C   0  0  0  0  0  0  0  0  0  0  0  0
    1.6505   21.0763   39.2855 C   0  0  0  0  0  0  0  0  0  0  0  0
    1.0752   20.6635   40.4918 C   0  0  0  0  0  0  0  0  0  0  0  0
    1.3873   19.4051   41.0264 C   0  0  0  0  0  0  0  0  0  0  0  0
    0.5227   17.6787   42.6803 C   0  0  0  0  0  0  0  0  0  0  0  0
    0.6401   15.4076   42.7449 C   0  0  0  0  0  0  0  0  0  0  0  0
    1.1162   14.0904   42.3212 C   0  0  0  0  0  0  0  0  0  0  0  0
    0.5925   12.9040   42.8544 C   0  0  0  0  0  0  0  0  0  0  0  0
    1.0360   11.6613   42.4128 C   0  0  0  0  0  0  0  0  0  0  0  0
    1.9767   11.6139   41.4012 C   0  0  0  0  0  0  0  0  0  0  0  0
    2.5168   12.7622   40.8419 C   0  0  0  0  0  0  0  0  0  0  0  0
    2.0685   13.9961   41.3052 C   0  0  0  0  0  0  0  0  0  0  0  0
   -0.3277   15.6031   43.6945 C   0  0  0  0  0  0  0  0  0  0  0  0
    2.1327   18.5196   40.2350 C   0  0  0  0  0  0  0  0  0  0  0  0
    2.6261   18.9382   38.9979 C   0  0  0  0  0  0  0  0  0  0  0  0
    0.7591   18.9433   42.2236 N   0  0  0  0  0  0  0  0  0  0  0  0
    1.0839   16.5734   42.0769 N   0  0  0  0  0  0  0  0  0  0  0  0
    2.3432   21.7080   36.6369 O   0  0  0  0  0  0  0  0  0  0  0  0
    3.5783   19.8401   36.4613 O   0  0  0  0  0  0  0  0  0  0  0  0
    3.2648   18.0313   38.1858 O   0  0  0  0  0  0  0  0  0  0  0  0
   -0.7661   17.2661   43.7948 S   0  0  0  0  0  0  0  0  0  0  0  0
    2.5084   10.0736   40.8127 Cl  0  0  0  0  0  0  0  0  0  0  0  0
    1.5055   22.1150   38.9538 H   0  0  0  0  0  0  0  0  0  0  0  0
    0.3767   21.3273   41.0222 H   0  0  0  0  0  0  0  0  0  0  0  0
   -0.1814   12.9565   43.6343 H   0  0  0  0  0  0  0  0  0  0  0  0
    0.6458   10.7351   42.8598 H   0  0  0  0  0  0  0  0  0  0  0  0
    3.2801   12.6997   40.0523 H   0  0  0  0  0  0  0  0  0  0  0  0
    2.4737   14.9171   40.8607 H   0  0  0  0  0  0  0  0  0  0  0  0
   -0.7664   14.8046   44.3108 H   0  0  0  0  0  0  0  0  0  0  0  0
    2.3285   17.4965   40.5884 H   0  0  0  0  0  0  0  0  0  0  0  0
    0.4281   19.6921   42.8487 H   0  0  0  0  0  0  0  0  0  0  0  0
  1  2  1  0
  1 19  1  0
  1 20  2  0
  2  3  1  0
  2 16  2  0
  3  4  2  0
  4  5  1  0
  5 15  2  0
  5 17  1  0
  6 17  1  0
  6 18  2  0
  6 22  1  0
  7  8  1  0
  7 14  2  0
  7 18  1  0
  8  9  1  0
  8 13  2  0
  9 10  2  0
 10 11  1  0
 11 12  2  0
 11 23  1  0
 12 13  1  0
 14 22  1  0
 15 16  1  0
 16 21  1  0
  3 24  1  0
  4 25  1  0
  9 26  1  0
 10 27  1  0
 12 28  1  0
 13 29  1  0
 14 30  1  0
 15 31  1  0
 17 32  1  0
M  CHG  2  19  -1  21  -1
M  END
>  <mol_id>  (3) 
2026-08-23-6tgu-s0-n100-r1-0003

>  <rmsd_to_ref>  (3) 
0.5459183673477538

$$$$
6tgu.A
     RDKit          3D

 32 34  0  0  0  0  0  0  0  0999 V2000
    3.5029   20.0908   37.1096 C   0  0  0  0  0  0  0  0  0  0  0  0
    2.6018   19.7855   38.2064 C   0  0  0  0  0  0  0  0  0  0  0  0
    1.7341   20.7322   38.7054 C   0  0  0  0  0  0  0  0  0  0  0  0
    0.8953   20.4047   39.7459 C   0  0  0  0  0  0  0  0  0  0  0  0
    0.8823   19.1360   40.3294 C   0  0  0  0  0  0  0  0  0  0  0  0
   -0.0008   17.5555   41.9800 C   0  0  0  0  0  0  0  0  0  0  0  0
    0.2639   15.4262   42.6550 C   0  0  0  0  0  0  0  0  0  0  0  0
    0.9865   14.1500   42.4592 C   0  0  0  0  0  0  0  0  0  0  0  0
    0.7150   13.0478   43.2436 C   0  0  0  0  0  0  0  0  0  0  0  0
    1.3792   11.8501   43.0746 C   0  0  0  0  0  0  0  0  0  0  0  0
    2.3422   11.7297   42.1032 C   0  0  0  0  0  0  0  0  0  0  0  0
    2.6390   12.8142   41.2999 C   0  0  0  0  0  0  0  0  0  0  0  0
    1.9590   13.9932   41.4941 C   0  0  0  0  0  0  0  0  0  0  0  0
   -0.7029   15.5501   43.6288 C   0  0  0  0  0  0  0  0  0  0  0  0
    1.7697   18.2261   39.7929 C   0  0  0  0  0  0  0  0  0  0  0  0
    2.6243   18.5211   38.7503 C   0  0  0  0  0  0  0  0  0  0  0  0
    0.0023   18.8414   41.3989 N   0  0  0  0  0  0  0  0  0  0  0  0
    0.4668   16.5073   41.9532 N   0  0  0  0  0  0  0  0  0  0  0  0
    3.4867   21.3798   36.5481 O   0  0  0  0  0  0  0  0  0  0  0  0
    4.2819   19.2208   36.6706 O   0  0  0  0  0  0  0  0  0  0  0  0
    3.4979   17.5425   38.2593 O   0  0  0  0  0  0  0  0  0  0  0  0
   -1.2444   17.3349   43.4033 S   0  0  0  0  0  0  0  0  0  0  0  0
    3.2004   10.2105   41.8721 Cl  0  0  0  0  0  0  0  0  0  0  0  0
    1.7478   21.7131   38.2505 H   0  0  0  0  0  0  0  0  0  0  0  0
    0.2271   21.1812   40.1088 H   0  0  0  0  0  0  0  0  0  0  0  0
   -0.0464   13.1108   44.0260 H   0  0  0  0  0  0  0  0  0  0  0  0
    1.1173   11.0253   43.7241 H   0  0  0  0  0  0  0  0  0  0  0  0
    3.3961   12.7441   40.5252 H   0  0  0  0  0  0  0  0  0  0  0  0
    2.1927   14.8362   40.8665 H   0  0  0  0  0  0  0  0  0  0  0  0
   -1.1272   14.9314   44.3585 H   0  0  0  0  0  0  0  0  0  0  0  0
    1.8267   17.2201   40.1839 H   0  0  0  0  0  0  0  0  0  0  0  0
   -0.6240   19.6310   41.7110 H   0  0  0  0  0  0  0  0  0  0  0  0
  1  2  1  0
  1 19  1  0
  1 20  2  0
  2  3  1  0
  2 16  2  0
  3  4  2  0
  4  5  1  0
  5 15  2  0
  5 17  1  0
  6 17  1  0
  6 18  2  0
  6 22  1  0
  7  8  1  0
  7 14  2  0
  7 18  1  0
  8  9  1  0
  8 13  2  0
  9 10  2  0
 10 11  1  0
 11 12  2  0
 11 23  1  0
 12 13  1  0
 14 22  1  0
 15 16  1  0
 16 21  1  0
  3 24  1  0
  4 25  1  0
  9 26  1  0
 10 27  1  0
 12 28  1  0
 13 29  1  0
 14 30  1  0
 15 31  1  0
 17 32  1  0
M  CHG  2  19  -1  21  -1
M  END
>  <mol_id>  (4) 
2026-08-23-6tgu-s0-n100-r1-0004

>  <rmsd_to_ref>  (4) 
0.5918367346962976

$$$$
6tgu.A
     RDKit          3D

 32 34  0  0  0  0  0  0  0  0999 V2000
    3.6556   19.4933   36.4617 C   0  0  0  0  0  0  0  0  0  0  0  0
    3.0982   19.4615   37.8875 C   0  0  0  0  0  0  0  0  0  0  0  0
    2.4697   20.5819   38.4264 C   0  0  0  0  0  0  0  0  0  0  0  0
    1.7841   20.5340   39.6446 C   0  0  0  0  0  0  0  0  0  0  0  0
    1.8594   19.3886   40.4503 C   0  0  0  0  0  0  0  0  0  0  0  0
    0.6509   18.2158   42.3550 C   0  0  0  0  0  0  0  0  0  0  0  0
    0.3849   16.0224   42.8970 C   0  0  0  0  0  0  0  0  0  0  0  0
    0.6516   14.5875   42.7926 C   0  0  0  0  0  0  0  0  0  0  0  0
   -0.0843   13.6399   43.5184 C   0  0  0  0  0  0  0  0  0  0  0  0
    0.1635   12.2779   43.3786 C   0  0  0  0  0  0  0  0  0  0  0  0
    1.1242   11.8681   42.4733 C   0  0  0  0  0  0  0  0  0  0  0  0
    1.8711   12.7707   41.7312 C   0  0  0  0  0  0  0  0  0  0  0  0
    1.6161   14.1296   41.8936 C   0  0  0  0  0  0  0  0  0  0  0  0
   -0.5752   16.5658   43.7091 C   0  0  0  0  0  0  0  0  0  0  0  0
    2.4787   18.2486   39.9183 C   0  0  0  0  0  0  0  0  0  0  0  0
    3.0859   18.3080   38.6626 C   0  0  0  0  0  0  0  0  0  0  0  0
    1.1138   19.2996   41.6658 N   0  0  0  0  0  0  0  0  0  0  0  0
    1.0444   16.9331   42.0380 N   0  0  0  0  0  0  0  0  0  0  0  0
    3.3672   20.5104   35.7650 O   0  0  0  0  0  0  0  0  0  0  0  0
    4.2796   18.4813   36.0743 O   0  0  0  0  0  0  0  0  0  0  0  0
    3.5974   17.1595   38.1068 O   0  0  0  0  0  0  0  0  0  0  0  0
   -0.7337   18.2582   43.4293 S   0  0  0  0  0  0  0  0  0  0  0  0
    1.4153   10.1738   42.2586 Cl  0  0  0  0  0  0  0  0  0  0  0  0
    2.5139   21.5338   37.8768 H   0  0  0  0  0  0  0  0  0  0  0  0
    1.1847   21.3965   39.9714 H   0  0  0  0  0  0  0  0  0  0  0  0
   -0.8702   13.9788   44.2093 H   0  0  0  0  0  0  0  0  0  0  0  0
   -0.3940   11.5420   43.9766 H   0  0  0  0  0  0  0  0  0  0  0  0
    2.6453   12.4217   41.0321 H   0  0  0  0  0  0  0  0  0  0  0  0
    2.1875   14.8586   41.3003 H   0  0  0  0  0  0  0  0  0  0  0  0
   -1.1662   15.9971   44.4421 H   0  0  0  0  0  0  0  0  0  0  0  0
    2.4861   17.3087   40.4897 H   0  0  0  0  0  0  0  0  0  0  0  0
    0.8868   20.2079   42.0953 H   0  0  0  0  0  0  0  0  0  0  0  0
  1  2  1  0
  1 19  1  0
  1 20  2  0
  2  3  1  0
  2 16  2  0
  3  4  2  0
  4  5  1  0
  5 15  2  0
  5 17  1  0
  6 17  1  0
  6 18  2  0
  6 22  1  0
  7  8  1  0
  7 14  2  0
  7 18  1  0
  8  9  1  0
  8 13  2  0
  9 10  2  0
 10 11  1  0
 11 12  2  0
 11 23  1  0
 12 13  1  0
 14 22  1  0
 15 16  1  0
 16 21  1  0
  3 24  1  0
  4 25  1  0
  9 26  1  0
 10 27  1  0
 12 28  1  0
 13 29  1  0
 14 30  1  0
 15 31  1  0
 17 32  1  0
M  CHG  2  19  -1  21  -1
M  END
>  <mol_id>  (5) 
2026-08-23-6tgu-s0-n100-r1-0005

>  <rmsd_to_ref>  (5) 
0.6377551020477966

$$$$
6tgu.A
     RDKit          3D

 32 34  0  0  0  0  0  0  0  0999 V2000
    3.8543   20.2079   37.0723 C   0  0  0  0  0  0  0  0  0  0  0  0
    2.8907   19.9434   38.1357 C   0  0  0  0  0  0  0  0  0  0  0  0
    2.0421   20.9559   38.5270 C   0  0  0  0  0  0  0  0  0  0  0  0
    1.1492   20.6989   39.5176 C   0  0  0  0  0  0  0  0  0  0  0  0
    1.0344   19.4749   40.1663 C   0  0  0  0  0  0  0  0  0  0  0  0
   -0.0212   18.0292   41.8380 C   0  0  0  0  0  0  0  0  0  0  0  0
    0.1084   15.9357   42.6283 C   0  0  0  0  0  0  0  0  0  0  0  0
    0.7499   14.6223   42.5730 C   0  0  0  0  0  0  0  0  0  0  0  0
    1.7802   14.3346   41.6858 C   0  0  0  0  0  0  0  0  0  0  0  0
    2.3700   13.0865   41.6527 C   0  0  0  0  0  0  0  0  0  0  0  0
    1.9659   12.0749   42.4936 C   0  0  0  0  0  0  0  0  0  0  0  0
    0.9471   12.3397   43.3795 C   0  0  0  0  0  0  0  0  0  0  0  0
    0.3659   13.5898   43.4032 C   0  0  0  0  0  0  0  0  0  0  0  0
   -0.9218   16.1998   43.5258 C   0  0  0  0  0  0  0  0  0  0  0  0
    1.9099   18.4904   39.7363 C   0  0  0  0  0  0  0  0  0  0  0  0
    2.8371   18.7083   38.7291 C   0  0  0  0  0  0  0  0  0  0  0  0
    0.0849   19.2979   41.1775 N   0  0  0  0  0  0  0  0  0  0  0  0
    0.3928   16.9886   41.8870 N   0  0  0  0  0  0  0  0  0  0  0  0
    4.7214   19.2207   36.6517 O   0  0  0  0  0  0  0  0  0  0  0  0
    3.9377   21.3382   36.4955 O   0  0  0  0  0  0  0  0  0  0  0  0
    3.6980   17.6845   38.3305 O   0  0  0  0  0  0  0  0  0  0  0  0
   -1.3691   17.9469   43.1999 S   0  0  0  0  0  0  0  0  0  0  0  0
    2.7045   10.4867   42.4632 Cl  0  0  0  0  0  0  0  0  0  0  0  0
    2.1216   21.9132   38.0298 H   0  0  0  0  0  0  0  0  0  0  0  0
    0.4846   21.5011   39.8201 H   0  0  0  0  0  0  0  0  0  0  0  0
    2.1026   15.1384   41.0163 H   0  0  0  0  0  0  0  0  0  0  0  0
    3.1707   12.8980   40.9478 H   0  0  0  0  0  0  0  0  0  0  0  0
    0.6166   11.5607   44.0461 H   0  0  0  0  0  0  0  0  0  0  0  0
   -0.4312   13.7542   44.1152 H   0  0  0  0  0  0  0  0  0  0  0  0
   -1.4107   15.5786   44.2790 H   0  0  0  0  0  0  0  0  0  0  0  0
    1.8969   17.5192   40.1742 H   0  0  0  0  0  0  0  0  0  0  0  0
   -0.5266   20.1153   41.4205 H   0  0  0  0  0  0  0  0  0  0  0  0
  1  2  1  0
  1 19  1  0
  1 20  2  0
  2  3  1  0
  2 16  2  0
  3  4  2  0
  4  5  1  0
  5 15  2  0
  5 17  1  0
  6 17  1  0
  6 18  2  0
  6 22  1  0
  7  8  1  0
  7 14  2  0
  7 18  1  0
  8  9  1  0
  8 13  2  0
  9 10  2  0
 10 11  1  0
 11 12  2  0
 11 23  1  0
 12 13  1  0
 14 22  1  0
 15 16  1  0
 16 21  1  0
  3 24  1  0
  4 25  1  0
  9 26  1  0
 10 27  1  0
 12 28  1  0
 13 29  1  0
 14 30  1  0
 15 31  1  0
 17 32  1  0
M  CHG  2  19  -1  21  -1
M  END
>  <mol_id>  (6) 
2026-08-23-6tgu-s0-n100-r1-0006

>  <rmsd_to_ref>  (6) 
0.6836734693931578

$$$$
6tgu.A
     RDKit          3D

 32 34  0  0  0  0  0  0  0  0999 V2000
    2.2925   19.9426   36.3646 C   0  0  0  0  0  0  0  0  0  0  0  0
    2.0608   19.7286   37.8630 C   0  0  0  0  0  0  0  0  0  0  0  0
    1.3928   20.6888   38.6197 C   0  0  0  0  0  0  0  0  0  0  0  0
    0.9961   20.4493   39.9394 C   0  0  0  0  0  0  0  0  0  0  0  0
    1.4180   19.2873   40.6016 C   0  0  0  0  0  0  0  0  0  0  0  0
    0.8378   17.8100   42.5876 C   0  0  0  0  0  0  0  0  0  0  0  0
    1.0388   15.5748   42.9607 C   0  0  0  0  0  0  0  0  0  0  0  0
    1.4986   14.2165   42.6696 C   0  0  0  0  0  0  0  0  0  0  0  0
    1.0901   13.1139   43.4333 C   0  0  0  0  0  0  0  0  0  0  0  0
    1.5127   11.8262   43.1185 C   0  0  0  0  0  0  0  0  0  0  0  0
    2.3126   11.6442   42.0061 C   0  0  0  0  0  0  0  0  0  0  0  0
    2.7353   12.7055   41.2199 C   0  0  0  0  0  0  0  0  0  0  0  0
    2.3110   13.9876   41.5580 C   0  0  0  0  0  0  0  0  0  0  0  0
    0.1989   15.8939   43.9947 C   0  0  0  0  0  0  0  0  0  0  0  0
    2.0816   18.3059   39.8516 C   0  0  0  0  0  0  0  0  0  0  0  0
    2.3930   18.5454   38.5119 C   0  0  0  0  0  0  0  0  0  0  0  0
    0.9692   18.9973   41.9266 N   0  0  0  0  0  0  0  0  0  0  0  0
    1.3511   16.6361   42.0785 N   0  0  0  0  0  0  0  0  0  0  0  0
    1.7080   20.9351   35.8387 O   0  0  0  0  0  0  0  0  0  0  0  0
    2.9711   19.0790   35.7669 O   0  0  0  0  0  0  0  0  0  0  0  0
    2.9489   17.5383   37.7592 O   0  0  0  0  0  0  0  0  0  0  0  0
   -0.2780   17.5473   43.9141 S   0  0  0  0  0  0  0  0  0  0  0  0
    2.8133   10.0418   41.5779 Cl  0  0  0  0  0  0  0  0  0  0  0  0
    1.1705   21.6655   38.1652 H   0  0  0  0  0  0  0  0  0  0  0  0
    0.3518   21.1739   40.4589 H   0  0  0  0  0  0  0  0  0  0  0  0
    0.4246   13.2693   44.2953 H   0  0  0  0  0  0  0  0  0  0  0  0
    1.2162   10.9701   43.7424 H   0  0  0  0  0  0  0  0  0  0  0  0
    3.3893   12.5386   40.3513 H   0  0  0  0  0  0  0  0  0  0  0  0
    2.6229   14.8390   40.9353 H   0  0  0  0  0  0  0  0  0  0  0  0
   -0.1276   15.1883   44.7729 H   0  0  0  0  0  0  0  0  0  0  0  0
    2.3565   17.3484   40.3182 H   0  0  0  0  0  0  0  0  0  0  0  0
    0.6988   19.8249   42.4769 H   0  0  0  0  0  0  0  0  0  0  0  0
  1  2  1  0
  1 19  1  0
  1 20  2  0
  2  3  1  0
  2 16  2  0
  3  4  2  0
  4  5  1  0
  5 15  2  0
  5 17  1  0
  6 17  1  0
  6 18  2  0
  6 22  1  0
  7  8  1  0
  7 14  2  0
  7 18  1  0
  8  9  1  0
  8 13  2  0
  9 10  2  0
 10 11  1  0
 11 12  2  0
 11 23  1  0
 12 13  1  0
 14 22  1  0
 15 16  1  0
 16 21  1  0
  3 24  1  0
  4 25  1  0
  9 26  1  0
 10 27  1  0
 12 28  1  0
 13 29  1  0
 14 30  1  0
 15 31  1  0
 17 32  1  0
M  CHG  2  19  -1  21  -1
M  END
>  <mol_id>  (7) 
2026-08-23-6tgu-s0-n100-r1-0007

>  <rmsd_to_ref>  (7) 
0.7295918367384467

$$$$
6tgu.A
     RDKit          3D

 32 34  0  0  0  0  0  0  0  0999 V2000
    4.0098   19.6451   37.0754 C   0  0  0  0  0  0  0  0  0  0  0  0
    3.1976   19.5539   38.2754 C   0  0  0  0  0  0  0  0  0  0  0  0
    2.7836   20.6828   38.9479 C   0  0  0  0  0  0  0  0  0  0  0  0
    2.0147   20.5554   40.0819 C   0  0  0  0  0  0  0  0  0  0  0  0
    1.6280   19.3140   40.5915 C   0  0  0  0  0  0  0  0  0  0  0  0
    0.4520   17.9678   42.2670 C   0  0  0  0  0  0  0  0  0  0  0  0
    0.0324   15.8182   42.7793 C   0  0  0  0  0  0  0  0  0  0  0  0
    0.2325   14.3995   42.4100 C   0  0  0  0  0  0  0  0  0  0  0  0
   -0.3119   13.3811   43.1653 C   0  0  0  0  0  0  0  0  0  0  0  0
   -0.1352   12.0529   42.8353 C   0  0  0  0  0  0  0  0  0  0  0  0
    0.6003   11.7123   41.7269 C   0  0  0  0  0  0  0  0  0  0  0  0
    1.1596   12.7074   40.9482 C   0  0  0  0  0  0  0  0  0  0  0  0
    0.9647   14.0210   41.3045 C   0  0  0  0  0  0  0  0  0  0  0  0
   -0.7051   16.1630   43.8908 C   0  0  0  0  0  0  0  0  0  0  0  0
    2.0686   18.2166   39.8811 C   0  0  0  0  0  0  0  0  0  0  0  0
    2.8405   18.3085   38.7409 C   0  0  0  0  0  0  0  0  0  0  0  0
    0.8359   19.2283   41.7620 N   0  0  0  0  0  0  0  0  0  0  0  0
    0.5155   16.8316   42.1146 N   0  0  0  0  0  0  0  0  0  0  0  0
    4.3792   20.9131   36.5929 O   0  0  0  0  0  0  0  0  0  0  0  0
    4.3755   18.6119   36.4794 O   0  0  0  0  0  0  0  0  0  0  0  0
    3.2498   17.1469   38.0737 O   0  0  0  0  0  0  0  0  0  0  0  0
   -0.6094   18.0387   43.8448 S   0  0  0  0  0  0  0  0  0  0  0  0
    0.8369   10.0239   41.2895 Cl  0  0  0  0  0  0  0  0  0  0  0  0
    3.0855   21.6417   38.5495 H   0  0  0  0  0  0  0  0  0  0  0  0
    1.7100   21.4713   40.5812 H   0  0  0  0  0  0  0  0  0  0  0  0
   -0.9029   13.6188   44.0540 H   0  0  0  0  0  0  0  0  0  0  0  0
   -0.5896   11.3044   43.4709 H   0  0  0  0  0  0  0  0  0  0  0  0
    1.7451   12.4638   40.0673 H   0  0  0  0  0  0  0  0  0  0  0  0
    1.4020   14.7938   40.6955 H   0  0  0  0  0  0  0  0  0  0  0  0
   -1.2284   15.6542   44.6409 H   0  0  0  0  0  0  0  0  0  0  0  0
    1.8158   17.2167   40.2044 H   0  0  0  0  0  0  0  0  0  0  0  0
    0.5685   20.1475   42.2057 H   0  0  0  0  0  0  0  0  0  0  0  0
  1  2  1  0
  1 19  1  0
  1 20  2  0
  2  3  1  0
  2 16  2  0
  3  4  2  0
  4  5  1  0
  5 15  2  0
  5 17  1  0
  6 17  1  0
  6 18  2  0
  6 22  1  0
  7  8  1  0
  7 14  2  0
  7 18  1  0
  8  9  1  0
  8 13  2  0
  9 10  2  0
 10 11  1  0
 11 12  2  0
 11 23  1  0
 12 13  1  0
 14 22  1  0
 15 16  1  0
 16 21  1  0
  3 24  1  0
  4 25  1  0
  9 26  1  0
 10 27  1  0
 12 28  1  0
 13 29  1  0
 14 30  1  0
 15 31  1  0
 17 32  1  0
M  CHG  2  19  -1  21  -1
M  END
>  <mol_id>  (8) 
2026-08-23-6tgu-s0-n100-r1-0008

>  <rmsd_to_ref>  (8) 
0.7755102040819793

$$$$
6tgu.A
     RDKit          3D

 32 34  0  0  0  0  0  0  0  0999 V2000
    2.3883   19.6127   36.4181 C   0  0  0  0  0  0  0  0  0  0  0  0
    2.0654   19.5664   37.9142 C   0  0  0  0  0  0  0  0  0  0  0  0
    1.3530   20.6011   38.5163 C   0  0  0  0  0  0  0  0  0  0  0  0
    0.8763   20.5085   39.8281 C   0  0  0  0  0  0  0  0  0  0  0  0
    1.2564   19.4308   40.6409 C   0  0  0  0  0  0  0  0  0  0  0  0
    0.5552   18.1817   42.7413 C   0  0  0  0  0  0  0  0  0  0  0  0
    0.7319   16.0037   43.3743 C   0  0  0  0  0  0  0  0  0  0  0  0
    1.2078   14.6243   43.2660 C   0  0  0  0  0  0  0  0  0  0  0  0
    0.7528   13.6116   44.1224 C   0  0  0  0  0  0  0  0  0  0  0  0
    1.1933   12.2994   43.9803 C   0  0  0  0  0  0  0  0  0  0  0  0
    2.0595   11.9989   42.9460 C   0  0  0  0  0  0  0  0  0  0  0  0
    2.5300   12.9681   42.0729 C   0  0  0  0  0  0  0  0  0  0  0  0
    2.0865   14.2773   42.2385 C   0  0  0  0  0  0  0  0  0  0  0  0
   -0.1694   16.4313   44.3131 C   0  0  0  0  0  0  0  0  0  0  0  0
    1.9641   18.3757   40.0475 C   0  0  0  0  0  0  0  0  0  0  0  0
    2.3568   18.4655   38.7108 C   0  0  0  0  0  0  0  0  0  0  0  0
    0.7274   19.2882   41.9604 N   0  0  0  0  0  0  0  0  0  0  0  0
    1.0981   16.9614   42.3992 N   0  0  0  0  0  0  0  0  0  0  0  0
    1.8376   20.5362   35.7496 O   0  0  0  0  0  0  0  0  0  0  0  0
    3.1017   18.6918   35.9634 O   0  0  0  0  0  0  0  0  0  0  0  0
    2.9571   17.3840   38.1110 O   0  0  0  0  0  0  0  0  0  0  0  0
   -0.6396   18.0622   44.0186 S   0  0  0  0  0  0  0  0  0  0  0  0
    2.5845   10.3619   42.7316 Cl  0  0  0  0  0  0  0  0  0  0  0  0
    1.1594   21.5194   37.9425 H   0  0  0  0  0  0  0  0  0  0  0  0
    0.2019   21.2827   40.2229 H   0  0  0  0  0  0  0  0  0  0  0  0
    0.0361   13.8584   44.9195 H   0  0  0  0  0  0  0  0  0  0  0  0
    0.8588   11.5168   44.6772 H   0  0  0  0  0  0  0  0  0  0  0  0
    3.2357   12.7091   41.2698 H   0  0  0  0  0  0  0  0  0  0  0  0
    2.4363   15.0556   41.5443 H   0  0  0  0  0  0  0  0  0  0  0  0
   -0.5432   15.8153   45.1443 H   0  0  0  0  0  0  0  0  0  0  0  0
    2.2095   17.4783   40.6344 H   0  0  0  0  0  0  0  0  0  0  0  0
    0.4244   20.1706   42.3969 H   0  0  0  0  0  0  0  0  0  0  0  0
  1  2  1  0
  1 19  1  0
  1 20  2  0
  2  3  1  0
  2 16  2  0
  3  4  2  0
  4  5  1  0
  5 15  2  0
  5 17  1  0
  6 17  1  0
  6 18  2  0
  6 22  1  0
  7  8  1  0
  7 14  2  0
  7 18  1  0
  8  9  1  0
  8 13  2  0
  9 10  2  0
 10 11  1  0
 11 12  2  0
 11 23  1  0
 12 13  1  0
 14 22  1  0
 15 16  1  0
 16 21  1  0
  3 24  1  0
  4 25  1  0
  9 26  1  0
 10 27  1  0
 12 28  1  0
 13 29  1  0
 14 30  1  0
 15 31  1  0
 17 32  1  0
M  CHG  2  19  -1  21  -1
M  END
>  <mol_id>  (9) 
2026-08-23-6tgu-s0-n100-r1-0009

>  <rmsd_to_ref>  (9) 
0.8214285714332327

$$$$
6tgu.A
     RDKit          3D

 32 34  0  0  0  0  0  0  0  0999 V2000
    3.3882   19.0536   36.5996 C   0  0  0  0  0  0  0  0  0  0  0  0
    2.7568   19.1007   37.9062 C   0  0  0  0  0  0  0  0  0  0  0  0
    2.3014   20.2866   38.4395 C   0  0  0  0  0  0  0  0  0  0  0  0
    1.7083   20.2906   39.6812 C   0  0  0  0  0  0  0  0  0  0  0  0
    1.5437   19.1290   40.4386 C   0  0  0  0  0  0  0  0  0  0  0  0
    0.7675   17.9974   42.4682 C   0  0  0  0  0  0  0  0  0  0  0  0
    0.6804   15.9437   43.3817 C   0  0  0  0  0  0  0  0  0  0  0  0
    0.9998   14.5077   43.2233 C   0  0  0  0  0  0  0  0  0  0  0  0
    0.6854   13.5933   44.2076 C   0  0  0  0  0  0  0  0  0  0  0  0
    0.9760   12.2507   44.0764 C   0  0  0  0  0  0  0  0  0  0  0  0
    1.5959   11.7897   42.9412 C   0  0  0  0  0  0  0  0  0  0  0  0
    1.9247   12.6787   41.9356 C   0  0  0  0  0  0  0  0  0  0  0  0
    1.6214   14.0099   42.0976 C   0  0  0  0  0  0  0  0  0  0  0  0
    0.0583   16.4092   44.5196 C   0  0  0  0  0  0  0  0  0  0  0  0
    2.0166   17.9699   39.8593 C   0  0  0  0  0  0  0  0  0  0  0  0
    2.6161   17.9301   38.6169 C   0  0  0  0  0  0  0  0  0  0  0  0
    0.9276   19.1783   41.7126 N   0  0  0  0  0  0  0  0  0  0  0  0
    0.9469   16.8637   42.4957 N   0  0  0  0  0  0  0  0  0  0  0  0
    3.5360   20.2445   35.8668 O   0  0  0  0  0  0  0  0  0  0  0  0
    3.7946   17.9705   36.1326 O   0  0  0  0  0  0  0  0  0  0  0  0
    3.0715   16.7128   38.0949 O   0  0  0  0  0  0  0  0  0  0  0  0
   -0.0793   18.2469   44.1540 S   0  0  0  0  0  0  0  0  0  0  0  0
    1.9748   10.0810   42.7550 Cl  0  0  0  0  0  0  0  0  0  0  0  0
    2.4310   21.1833   37.8493 H   0  0  0  0  0  0  0  0  0  0  0  0
    1.3634   21.2475   40.0640 H   0  0  0  0  0  0  0  0  0  0  0  0
    0.1914   13.9281   45.1239 H   0  0  0  0  0  0  0  0  0  0  0  0
    0.7020   11.5877   44.8864 H   0  0  0  0  0  0  0  0  0  0  0  0
    2.4151   12.3389   41.0288 H   0  0  0  0  0  0  0  0  0  0  0  0
    1.8791   14.6998   41.3122 H   0  0  0  0  0  0  0  0  0  0  0  0
   -0.2973   15.9948   45.4123 H   0  0  0  0  0  0  0  0  0  0  0  0
    1.9305   17.0242   40.3757 H   0  0  0  0  0  0  0  0  0  0  0  0
    0.6118   20.1320   42.0351 H   0  0  0  0  0  0  0  0  0  0  0  0
  1  2  1  0
  1 19  1  0
  1 20  2  0
  2  3  1  0
  2 16  2  0
  3  4  2  0
  4  5  1  0
  5 15  2  0
  5 17  1  0
  6 17  1  0
  6 18  2  0
  6 22  1  0
  7  8  1  0
  7 14  2  0
  7 18  1  0
  8  9  1  0
  8 13  2  0
  9 10  2  0
 10 11  1  0
 11 12  2  0
 11 23  1  0
 12 13  1  0
 14 22  1  0
 15 16  1  0
 16 21  1  0
  3 24  1  0
  4 25  1  0
  9 26  1  0
 10 27  1  0
 12 28  1  0
 13 29  1  0
 14 30  1  0
 15 31  1  0
 17 32  1  0
M  CHG  2  19  -1  21  -1
M  END
>  <mol_id>  (10) 
2026-08-23-6tgu-s0-n100-r1-0010

>  <rmsd_to_ref>  (10) 
0.8673469387762585

$$$$
6tgu.A
     RDKit          3D

 32 34  0  0  0  0  0  0  0  0999 V2000
    4.5136   19.9783   37.2701 C   0  0  0  0  0  0  0  0  0  0  0  0
    3.5861   19.7919   38.4741 C   0  0  0  0  0  0  0  0  0  0  0  0
    2.7580   20.8295   38.8963 C   0  0  0  0  0  0  0  0  0  0  0  0
    1.7664   20.6404   39.8645 C   0  0  0  0  0  0  0  0  0  0  0  0
    1.6931   19.4307   40.5703 C   0  0  0  0  0  0  0  0  0  0  0  0
    0.0867   18.0367   41.9630 C   0  0  0  0  0  0  0  0  0  0  0  0
   -0.1691   15.7934   42.2417 C   0  0  0  0  0  0  0  0  0  0  0  0
    0.2132   14.3872   42.1094 C   0  0  0  0  0  0  0  0  0  0  0  0
   -0.6287   13.3457   42.5247 C   0  0  0  0  0  0  0  0  0  0  0  0
   -0.2596   12.0145   42.3587 C   0  0  0  0  0  0  0  0  0  0  0  0
    0.9400   11.7319   41.7331 C   0  0  0  0  0  0  0  0  0  0  0  0
    1.8001   12.7306   41.3019 C   0  0  0  0  0  0  0  0  0  0  0  0
    1.4181   14.0564   41.4872 C   0  0  0  0  0  0  0  0  0  0  0  0
   -1.3515   16.2173   42.7883 C   0  0  0  0  0  0  0  0  0  0  0  0
    2.5118   18.3726   40.1506 C   0  0  0  0  0  0  0  0  0  0  0  0
    3.4379   18.5732   39.1254 C   0  0  0  0  0  0  0  0  0  0  0  0
    0.6475   19.1983   41.5158 N   0  0  0  0  0  0  0  0  0  0  0  0
    0.6391   16.8069   41.6745 N   0  0  0  0  0  0  0  0  0  0  0  0
    4.3612   21.0409   36.5987 O   0  0  0  0  0  0  0  0  0  0  0  0
    5.2880   19.0345   36.9996 O   0  0  0  0  0  0  0  0  0  0  0  0
    4.1606   17.5039   38.6519 O   0  0  0  0  0  0  0  0  0  0  0  0
   -1.5412   17.9195   42.6031 S   0  0  0  0  0  0  0  0  0  0  0  0
    1.3941   10.0789   41.4827 Cl  0  0  0  0  0  0  0  0  0  0  0  0
    2.8879   21.8285   38.4546 H   0  0  0  0  0  0  0  0  0  0  0  0
    1.0425   21.4420   40.0727 H   0  0  0  0  0  0  0  0  0  0  0  0
   -1.5967   13.5850   42.9893 H   0  0  0  0  0  0  0  0  0  0  0  0
   -0.9096   11.2031   42.7181 H   0  0  0  0  0  0  0  0  0  0  0  0
    2.7597   12.4815   40.8254 H   0  0  0  0  0  0  0  0  0  0  0  0
    2.0805   14.8612   41.1357 H   0  0  0  0  0  0  0  0  0  0  0  0
   -2.0824   15.5586   43.2800 H   0  0  0  0  0  0  0  0  0  0  0  0
    2.4246   17.3857   40.6286 H   0  0  0  0  0  0  0  0  0  0  0  0
    0.2490   20.0527   41.9307 H   0  0  0  0  0  0  0  0  0  0  0  0
  1  2  1  0
  1 19  1  0
  1 20  2  0
  2  3  1  0
  2 16  2  0
  3  4  2  0
  4  5  1  0
  5 15  2  0
  5 17  1  0
  6 17  1  0
  6 18  2  0
  6 22  1  0
  7  8  1  0
  7 14  2  0
  7 18  1  0
  8  9  1  0
  8 13  2  0
  9 10  2  0
 10 11  1  0
 11 12  2  0
 11 23  1  0
 12 13  1  0
 14 22  1  0
 15 16  1  0
 16 21  1  0
  3 24  1  0
  4 25  1  0
  9 26  1  0
 10 27  1  0
 12 28  1  0
 13 29  1  0
 14 30  1  0
 15 31  1  0
 17 32  1  0
M  CHG  2  19  -1  21  -1
M  END
>  <mol_id>  (11) 
2026-08-23-6tgu-s0-n100-r1-0011

>  <rmsd_to_ref>  (11) 
0.9132653061235443

$$$$
6tgu.A
     RDKit          3D

 32 34  0  0  0  0  0  0  0  0999 V2000
    3.3149   20.5732   36.6096 C   0  0  0  0  0  0  0  0  0  0  0  0
    2.7696   20.1529   37.8941 C   0  0  0  0  0  0  0  0  0  0  0  0
    2.4029   21.0500   38.8638 C   0  0  0  0  0  0  0  0  0  0  0  0
    1.9085   20.6417   40.0691 C   0  0  0  0  0  0  0  0  0  0  0  0
    1.7444   19.3057   40.3910 C   0  0  0  0  0  0  0  0  0  0  0  0
    0.7191   17.6813   42.0065 C   0  0  0  0  0  0  0  0  0  0  0  0
    0.2285   15.5478   42.5590 C   0  0  0  0  0  0  0  0  0  0  0  0
    0.6924   14.1673   42.8319 C   0  0  0  0  0  0  0  0  0  0  0  0
    2.0289   13.8302   42.7912 C   0  0  0  0  0  0  0  0  0  0  0  0
    2.4680   12.5303   43.0328 C   0  0  0  0  0  0  0  0  0  0  0  0
    1.5281   11.5626   43.3202 C   0  0  0  0  0  0  0  0  0  0  0  0
    0.1734   11.8571   43.3724 C   0  0  0  0  0  0  0  0  0  0  0  0
   -0.2059   13.1689   43.1234 C   0  0  0  0  0  0  0  0  0  0  0  0
   -1.1085   15.8652   42.5733 C   0  0  0  0  0  0  0  0  0  0  0  0
    2.1067   18.3938   39.4293 C   0  0  0  0  0  0  0  0  0  0  0  0
    2.6154   18.8056   38.1929 C   0  0  0  0  0  0  0  0  0  0  0  0
    1.2481   18.9582   41.6707 N   0  0  0  0  0  0  0  0  0  0  0  0
    1.0315   16.5301   42.2657 N   0  0  0  0  0  0  0  0  0  0  0  0
    3.3990   21.9687   36.4134 O   0  0  0  0  0  0  0  0  0  0  0  0
    3.6950   19.7765   35.7188 O   0  0  0  0  0  0  0  0  0  0  0  0
    2.9689   17.8213   37.2513 O   0  0  0  0  0  0  0  0  0  0  0  0
   -1.1148   17.6823   42.1308 S   0  0  0  0  0  0  0  0  0  0  0  0
    2.0408    9.9168   43.6216 Cl  0  0  0  0  0  0  0  0  0  0  0  0
    2.5174   22.0985   38.6421 H   0  0  0  0  0  0  0  0  0  0  0  0
    1.6265   21.3952   40.8208 H   0  0  0  0  0  0  0  0  0  0  0  0
    2.7820   14.5824   42.5644 H   0  0  0  0  0  0  0  0  0  0  0  0
    3.5345   12.3220   42.9852 H   0  0  0  0  0  0  0  0  0  0  0  0
   -0.5793   11.1280   43.5896 H   0  0  0  0  0  0  0  0  0  0  0  0
   -1.2739   13.3794   43.1732 H   0  0  0  0  0  0  0  0  0  0  0  0
   -2.0270   15.3245   42.7692 H   0  0  0  0  0  0  0  0  0  0  0  0
    1.9774   17.3499   39.6725 H   0  0  0  0  0  0  0  0  0  0  0  0
    1.2608   19.6777   42.4402 H   0  0  0  0  0  0  0  0  0  0  0  0
  1  2  1  0
  1 19  1  0
  1 20  2  0
  2  3  1  0
  2 16  2  0
  3  4  2  0
  4  5  1  0
  5 15  2  0
  5 17  1  0
  6 17  1  0
  6 18  2  0
  6 22  1  0
  7  8  1  0
  7 14  2  0
  7 18  1  0
  8  9  1  0
  8 13  2  0
  9 10  2  0
 10 11  1  0
 11 12  2  0
 11 23  1  0
 12 13  1  0
 14 22  1  0
 15 16  1  0
 16 21  1  0
  3 24  1  0
  4 25  1  0
  9 26  1  0
 10 27  1  0
 12 28  1  0
 13 29  1  0
 14 30  1  0
 15 31  1  0
 17 32  1  0
M  CHG  2  19  -1  21  -1
M  END
>  <mol_id>  (12) 
2026-08-23-6tgu-s0-n100-r1-0012

>  <rmsd_to_ref>  (12) 
0.9591836734729365

$$$$
6tgu.A
     RDKit          3D

 32 34  0  0  0  0  0  0  0  0999 V2000
    1.6893   20.5889   36.8737 C   0  0  0  0  0  0  0  0  0  0  0  0
    1.7125   20.2466   38.3660 C   0  0  0  0  0  0  0  0  0  0  0  0
    1.3909   21.2114   39.3181 C   0  0  0  0  0  0  0  0  0  0  0  0
    1.2162   20.8919   40.6686 C   0  0  0  0  0  0  0  0  0  0  0  0
    1.5343   19.6082   41.1353 C   0  0  0  0  0  0  0  0  0  0  0  0
    1.0809   18.0306   43.0766 C   0  0  0  0  0  0  0  0  0  0  0  0
    0.9322   15.7652   43.2233 C   0  0  0  0  0  0  0  0  0  0  0  0
    1.0684   14.3917   42.7373 C   0  0  0  0  0  0  0  0  0  0  0  0
    0.6163   13.2920   43.4806 C   0  0  0  0  0  0  0  0  0  0  0  0
    0.7253   11.9966   42.9846 C   0  0  0  0  0  0  0  0  0  0  0  0
    1.2502   11.8128   41.7193 C   0  0  0  0  0  0  0  0  0  0  0  0
    1.7039   12.8722   40.9480 C   0  0  0  0  0  0  0  0  0  0  0  0
    1.5968   14.1598   41.4665 C   0  0  0  0  0  0  0  0  0  0  0  0
    0.3791   16.0988   44.4313 C   0  0  0  0  0  0  0  0  0  0  0  0
    1.8491   18.6226   40.1890 C   0  0  0  0  0  0  0  0  0  0  0  0
    1.9377   18.9585   38.8368 C   0  0  0  0  0  0  0  0  0  0  0  0
    1.3011   19.2473   42.4978 N   0  0  0  0  0  0  0  0  0  0  0  0
    1.2612   16.8538   42.3814 N   0  0  0  0  0  0  0  0  0  0  0  0
    1.2091   21.7178   36.5605 O   0  0  0  0  0  0  0  0  0  0  0  0
    2.0694   19.6987   36.0820 O   0  0  0  0  0  0  0  0  0  0  0  0
    2.1434   17.9659   37.9083 O   0  0  0  0  0  0  0  0  0  0  0  0
    0.2101   17.8066   44.5815 S   0  0  0  0  0  0  0  0  0  0  0  0
    1.3544   10.2092   41.0720 Cl  0  0  0  0  0  0  0  0  0  0  0  0
    1.2706   22.2568   38.9978 H   0  0  0  0  0  0  0  0  0  0  0  0
    0.8285   21.6490   41.3660 H   0  0  0  0  0  0  0  0  0  0  0  0
    0.1683   13.4561   44.4717 H   0  0  0  0  0  0  0  0  0  0  0  0
    0.4001   11.1359   43.5876 H   0  0  0  0  0  0  0  0  0  0  0  0
    2.1375   12.6996   39.9519 H   0  0  0  0  0  0  0  0  0  0  0  0
    1.9361   15.0133   40.8611 H   0  0  0  0  0  0  0  0  0  0  0  0
    0.0824   15.3728   45.2027 H   0  0  0  0  0  0  0  0  0  0  0  0
    2.0260   17.5859   40.5116 H   0  0  0  0  0  0  0  0  0  0  0  0
    1.2988   20.0400   43.1555 H   0  0  0  0  0  0  0  0  0  0  0  0
  1  2  1  0
  1 19  1  0
  1 20  2  0
  2  3  1  0
  2 16  2  0
  3  4  2  0
  4  5  1  0
  5 15  2  0
  5 17  1  0
  6 17  1  0
  6 18  2  0
  6 22  1  0
  7  8  1  0
  7 14  2  0
  7 18  1  0
  8  9  1  0
  8 13  2  0
  9 10  2  0
 10 11  1  0
 11 12  2  0
 11 23  1  0
 12 13  1  0
 14 22  1  0
 15 16  1  0
 16 21  1  0
  3 24  1  0
  4 25  1  0
  9 26  1  0
 10 27  1  0
 12 28  1  0
 13 29  1  0
 14 30  1  0
 15 31  1  0
 17 32  1  0
M  CHG  2  19  -1  21  -1
M  END
>  <mol_id>  (13) 
2026-08-23-6tgu-s0-n100-r1-0013

>  <rmsd_to_ref>  (13) 
1.005102040817351

$$$$
6tgu.A
     RDKit          3D

 32 34  0  0  0  0  0  0  0  0999 V2000
    4.5604   19.9694   37.8407 C   0  0  0  0  0  0  0  0  0  0  0  0
    3.4183   19.8477   38.7290 C   0  0  0  0  0  0  0  0  0  0  0  0
    2.6413   20.9390   39.0505 C   0  0  0  0  0  0  0  0  0  0  0  0
    1.5669   20.7835   39.8961 C   0  0  0  0  0  0  0  0  0  0  0  0
    1.2217   19.5502   40.4528 C   0  0  0  0  0  0  0  0  0  0  0  0
   -0.2309   18.1828   41.8750 C   0  0  0  0  0  0  0  0  0  0  0  0
   -0.4727   16.0571   42.5696 C   0  0  0  0  0  0  0  0  0  0  0  0
    0.0473   14.6731   42.5124 C   0  0  0  0  0  0  0  0  0  0  0  0
   -0.5596   13.6524   43.2150 C   0  0  0  0  0  0  0  0  0  0  0  0
   -0.0880   12.3562   43.1729 C   0  0  0  0  0  0  0  0  0  0  0  0
    1.0163   12.0511   42.4160 C   0  0  0  0  0  0  0  0  0  0  0  0
    1.6484   13.0497   41.6998 C   0  0  0  0  0  0  0  0  0  0  0  0
    1.1533   14.3307   41.7632 C   0  0  0  0  0  0  0  0  0  0  0  0
   -1.5805   16.3662   43.3281 C   0  0  0  0  0  0  0  0  0  0  0  0
    2.0314   18.4909   40.0989 C   0  0  0  0  0  0  0  0  0  0  0  0
    3.1160   18.6116   39.2541 C   0  0  0  0  0  0  0  0  0  0  0  0
    0.1073   19.4347   41.3187 N   0  0  0  0  0  0  0  0  0  0  0  0
    0.0478   17.0706   41.9337 N   0  0  0  0  0  0  0  0  0  0  0  0
    4.8765   21.2281   37.2997 O   0  0  0  0  0  0  0  0  0  0  0  0
    5.2527   18.9700   37.5606 O   0  0  0  0  0  0  0  0  0  0  0  0
    3.8917   17.4880   38.9413 O   0  0  0  0  0  0  0  0  0  0  0  0
   -1.7548   18.2103   43.0143 S   0  0  0  0  0  0  0  0  0  0  0  0
    1.6331   10.4040   42.3494 Cl  0  0  0  0  0  0  0  0  0  0  0  0
    2.9125   21.8917   38.6170 H   0  0  0  0  0  0  0  0  0  0  0  0
    0.9810   21.6701   40.1232 H   0  0  0  0  0  0  0  0  0  0  0  0
   -1.4410   13.8622   43.8272 H   0  0  0  0  0  0  0  0  0  0  0  0
   -0.6114   11.6038   43.7480 H   0  0  0  0  0  0  0  0  0  0  0  0
    2.5230   12.8339   41.0942 H   0  0  0  0  0  0  0  0  0  0  0  0
    1.6482   15.1063   41.2039 H   0  0  0  0  0  0  0  0  0  0  0  0
   -2.2418   15.8463   43.9508 H   0  0  0  0  0  0  0  0  0  0  0  0
    1.8370   17.4997   40.4838 H   0  0  0  0  0  0  0  0  0  0  0  0
   -0.4259   20.3260   41.5048 H   0  0  0  0  0  0  0  0  0  0  0  0
  1  2  1  0
  1 19  1  0
  1 20  2  0
  2  3  1  0
  2 16  2  0
  3  4  2  0
  4  5  1  0
  5 15  2  0
  5 17  1  0
  6 17  1  0
  6 18  2  0
  6 22  1  0
  7  8  1  0
  7 14  2  0
  7 18  1  0
  8  9  1  0
  8 13  2  0
  9 10  2  0
 10 11  1  0
 11 12  2  0
 11 23  1  0
 12 13  1  0
 14 22  1  0
 15 16  1  0
 16 21  1  0
  3 24  1  0
  4 25  1  0
  9 26  1  0
 10 27  1  0
 12 28  1  0
 13 29  1  0
 14 30  1  0
 15 31  1  0
 17 32  1  0
M  CHG  2  19  -1  21  -1
M  END
>  <mol_id>  (14) 
2026-08-23-6tgu-s0-n100-r1-0014

>  <rmsd_to_ref>  (14) 
1.0510204081690708

$$$$
6tgu.A
     RDKit          3D

 32 34  0  0  0  0  0  0  0  0999 V2000
    3.9279   18.9836   36.4911 C   0  0  0  0  0  0  0  0  0  0  0  0
    3.1225   19.0134   37.7930 C   0  0  0  0  0  0  0  0  0  0  0  0
    2.1408   19.9809   37.9954 C   0  0  0  0  0  0  0  0  0  0  0  0
    1.2594   19.9280   39.0801 C   0  0  0  0  0  0  0  0  0  0  0  0
    1.4541   18.9855   40.1002 C   0  0  0  0  0  0  0  0  0  0  0  0
    0.2192   17.8239   41.9947 C   0  0  0  0  0  0  0  0  0  0  0  0
    0.4034   15.7524   42.9171 C   0  0  0  0  0  0  0  0  0  0  0  0
    1.0334   14.4512   43.1432 C   0  0  0  0  0  0  0  0  0  0  0  0
    0.4260   13.4568   43.9232 C   0  0  0  0  0  0  0  0  0  0  0  0
    1.0271   12.2141   44.0975 C   0  0  0  0  0  0  0  0  0  0  0  0
    2.2204   11.9577   43.4489 C   0  0  0  0  0  0  0  0  0  0  0  0
    2.8525   12.9101   42.6637 C   0  0  0  0  0  0  0  0  0  0  0  0
    2.2409   14.1513   42.5108 C   0  0  0  0  0  0  0  0  0  0  0  0
   -0.8039   16.1214   43.4489 C   0  0  0  0  0  0  0  0  0  0  0  0
    2.4305   17.9979   39.9070 C   0  0  0  0  0  0  0  0  0  0  0  0
    3.2423   18.0341   38.7718 C   0  0  0  0  0  0  0  0  0  0  0  0
    0.5265   18.8764   41.1814 N   0  0  0  0  0  0  0  0  0  0  0  0
    0.9740   16.6702   42.0038 N   0  0  0  0  0  0  0  0  0  0  0  0
    3.5414   19.7613   35.5697 O   0  0  0  0  0  0  0  0  0  0  0  0
    4.8482   18.1405   36.4129 O   0  0  0  0  0  0  0  0  0  0  0  0
    4.1235   17.0045   38.5408 O   0  0  0  0  0  0  0  0  0  0  0  0
   -1.3186   17.6388   42.8160 S   0  0  0  0  0  0  0  0  0  0  0  0
    2.9600   10.4008   43.6237 Cl  0  0  0  0  0  0  0  0  0  0  0  0
    2.0563   20.8122   37.2800 H   0  0  0  0  0  0  0  0  0  0  0  0
    0.4118   20.6270   39.1332 H   0  0  0  0  0  0  0  0  0  0  0  0
   -0.5412   13.6625   44.4050 H   0  0  0  0  0  0  0  0  0  0  0  0
    0.5618   11.4510   44.7387 H   0  0  0  0  0  0  0  0  0  0  0  0
    3.8127   12.6903   42.1742 H   0  0  0  0  0  0  0  0  0  0  0  0
    2.7200   14.9125   41.8776 H   0  0  0  0  0  0  0  0  0  0  0  0
   -1.3694   15.5279   44.1823 H   0  0  0  0  0  0  0  0  0  0  0  0
    2.5568   17.1957   40.6490 H   0  0  0  0  0  0  0  0  0  0  0  0
   -0.0000   19.7388   41.3813 H   0  0  0  0  0  0  0  0  0  0  0  0
  1  2  1  0
  1 19  1  0
  1 20  2  0
  2  3  1  0
  2 16  2  0
  3  4  2  0
  4  5  1  0
  5 15  2  0
  5 17  1  0
  6 17  1  0
  6 18  2  0
  6 22  1  0
  7  8  1  0
  7 14  2  0
  7 18  1  0
  8  9  1  0
  8 13  2  0
  9 10  2  0
 10 11  1  0
 11 12  2  0
 11 23  1  0
 12 13  1  0
 14 22  1  0
 15 16  1  0
 16 21  1  0
  3 24  1  0
  4 25  1  0
  9 26  1  0
 10 27  1  0
 12 28  1  0
 13 29  1  0
 14 30  1  0
 15 31  1  0
 17 32  1  0
M  CHG  2  19  -1  21  -1
M  END
>  <mol_id>  (15) 
2026-08-23-6tgu-s0-n100-r1-0015

>  <rmsd_to_ref>  (15) 
1.0969387755134656

$$$$
6tgu.A
     RDKit          3D

 32 34  0  0  0  0  0  0  0  0999 V2000
    2.5245   21.2600   37.0892 C   0  0  0  0  0  0  0  0  0  0  0  0
    2.1428   20.5836   38.3224 C   0  0  0  0  0  0  0  0  0  0  0  0
    1.7123   21.2667   39.4303 C   0  0  0  0  0  0  0  0  0  0  0  0
    1.3733   20.6212   40.5846 C   0  0  0  0  0  0  0  0  0  0  0  0
    1.4397   19.2449   40.7133 C   0  0  0  0  0  0  0  0  0  0  0  0
    0.7934   17.2685   42.1191 C   0  0  0  0  0  0  0  0  0  0  0  0
    0.6769   15.0281   42.3737 C   0  0  0  0  0  0  0  0  0  0  0  0
    1.3657   13.7169   42.4173 C   0  0  0  0  0  0  0  0  0  0  0  0
    2.7318   13.6100   42.2630 C   0  0  0  0  0  0  0  0  0  0  0  0
    3.3815   12.3779   42.2889 C   0  0  0  0  0  0  0  0  0  0  0  0
    2.6242   11.2402   42.4752 C   0  0  0  0  0  0  0  0  0  0  0  0
    1.2475   11.3009   42.6355 C   0  0  0  0  0  0  0  0  0  0  0  0
    0.6545   12.5554   42.6012 C   0  0  0  0  0  0  0  0  0  0  0  0
   -0.6885   15.1193   42.4990 C   0  0  0  0  0  0  0  0  0  0  0  0
    1.8687   18.5454   39.6114 C   0  0  0  0  0  0  0  0  0  0  0  0
    2.2190   19.2009   38.4263 C   0  0  0  0  0  0  0  0  0  0  0  0
    1.0948   18.6483   41.9502 N   0  0  0  0  0  0  0  0  0  0  0  0
    1.2966   16.1585   42.1902 N   0  0  0  0  0  0  0  0  0  0  0  0
    2.3790   22.6642   37.0972 O   0  0  0  0  0  0  0  0  0  0  0  0
    2.9583   20.6661   36.0734 O   0  0  0  0  0  0  0  0  0  0  0  0
    2.6519   18.4265   37.3338 O   0  0  0  0  0  0  0  0  0  0  0  0
   -1.0053   16.9547   42.3302 S   0  0  0  0  0  0  0  0  0  0  0  0
    3.4038    9.6738   42.5056 Cl  0  0  0  0  0  0  0  0  0  0  0  0
    1.6483   22.3404   39.3604 H   0  0  0  0  0  0  0  0  0  0  0  0
    1.0329   21.2080   41.4519 H   0  0  0  0  0  0  0  0  0  0  0  0
    3.3424   14.4984   42.1137 H   0  0  0  0  0  0  0  0  0  0  0  0
    4.4612   12.3540   42.1598 H   0  0  0  0  0  0  0  0  0  0  0  0
    0.6331   10.4364   42.7787 H   0  0  0  0  0  0  0  0  0  0  0  0
   -0.4269   12.5809   42.7329 H   0  0  0  0  0  0  0  0  0  0  0  0
   -1.4968   14.4149   42.6570 H   0  0  0  0  0  0  0  0  0  0  0  0
    1.9189   17.4709   39.7038 H   0  0  0  0  0  0  0  0  0  0  0  0
    1.0513   19.2471   42.8159 H   0  0  0  0  0  0  0  0  0  0  0  0
  1  2  1  0
  1 19  1  0
  1 20  2  0
  2  3  1  0
  2 16  2  0
  3  4  2  0
  4  5  1  0
  5 15  2  0
  5 17  1  0
  6 17  1  0
  6 18  2  0
  6 22  1  0
  7  8  1  0
  7 14  2  0
  7 18  1  0
  8  9  1  0
  8 13  2  0
  9 10  2  0
 10 11  1  0
 11 12  2  0
 11 23  1  0
 12 13  1  0
 14 22  1  0
 15 16  1  0
 16 21  1  0
  3 24  1  0
  4 25  1  0
  9 26  1  0
 10 27  1  0
 12 28  1  0
 13 29  1  0
 14 30  1  0
 15 31  1  0
 17 32  1  0
M  CHG  2  19  -1  21  -1
M  END
>  <mol_id>  (16) 
2026-08-23-6tgu-s0-n100-r1-0016

>  <rmsd_to_ref>  (16) 
1.1428571428576002

$$$$
6tgu.A
     RDKit          3D

 32 34  0  0  0  0  0  0  0  0999 V2000
    4.4375   20.2034   38.2994 C   0  0  0  0  0  0  0  0  0  0  0  0
    3.4629   19.7775   39.4009 C   0  0  0  0  0  0  0  0  0  0  0  0
    2.5379   20.6830   39.9159 C   0  0  0  0  0  0  0  0  0  0  0  0
    1.5123   20.2856   40.7799 C   0  0  0  0  0  0  0  0  0  0  0  0
    1.4916   18.9814   41.2951 C   0  0  0  0  0  0  0  0  0  0  0  0
   -0.0792   17.2911   42.3625 C   0  0  0  0  0  0  0  0  0  0  0  0
   -0.1813   15.0195   42.2932 C   0  0  0  0  0  0  0  0  0  0  0  0
    0.3116   13.6774   41.9817 C   0  0  0  0  0  0  0  0  0  0  0  0
   -0.4715   12.5322   42.1851 C   0  0  0  0  0  0  0  0  0  0  0  0
    0.0044   11.2682   41.8504 C   0  0  0  0  0  0  0  0  0  0  0  0
    1.2539   11.1626   41.2691 C   0  0  0  0  0  0  0  0  0  0  0  0
    2.0590   12.2692   41.0448 C   0  0  0  0  0  0  0  0  0  0  0  0
    1.5696   13.5240   41.3970 C   0  0  0  0  0  0  0  0  0  0  0  0
   -1.4199   15.2776   42.8184 C   0  0  0  0  0  0  0  0  0  0  0  0
    2.4086   18.0546   40.7791 C   0  0  0  0  0  0  0  0  0  0  0  0
    3.3711   18.4676   39.8561 C   0  0  0  0  0  0  0  0  0  0  0  0
    0.4167   18.5411   42.1270 N   0  0  0  0  0  0  0  0  0  0  0  0
    0.5783   16.1577   41.9336 N   0  0  0  0  0  0  0  0  0  0  0  0
    4.2427   21.3426   37.7822 O   0  0  0  0  0  0  0  0  0  0  0  0
    5.2938   19.3641   37.9445 O   0  0  0  0  0  0  0  0  0  0  0  0
    4.1962   17.5316   39.2790 O   0  0  0  0  0  0  0  0  0  0  0  0
   -1.7259   16.9721   42.8721 S   0  0  0  0  0  0  0  0  0  0  0  0
    1.8430    9.5995   40.8095 Cl  0  0  0  0  0  0  0  0  0  0  0  0
    2.6166   21.7435   39.6343 H   0  0  0  0  0  0  0  0  0  0  0  0
    0.7204   20.9974   41.0559 H   0  0  0  0  0  0  0  0  0  0  0  0
   -1.4783   12.6346   42.6162 H   0  0  0  0  0  0  0  0  0  0  0  0
   -0.6016   10.3710   42.0447 H   0  0  0  0  0  0  0  0  0  0  0  0
    3.0589   12.1583   40.6000 H   0  0  0  0  0  0  0  0  0  0  0  0
    2.1881   14.4143   41.2103 H   0  0  0  0  0  0  0  0  0  0  0  0
   -2.1251   14.5057   43.1603 H   0  0  0  0  0  0  0  0  0  0  0  0
    2.3695   17.0035   41.1010 H   0  0  0  0  0  0  0  0  0  0  0  0
   -0.0664   19.2952   42.6358 H   0  0  0  0  0  0  0  0  0  0  0  0
  1  2  1  0
  1 19  1  0
  1 20  2  0
  2  3  1  0
  2 16  2  0
  3  4  2  0
  4  5  1  0
  5 15  2  0
  5 17  1  0
  6 17  1  0
  6 18  2  0
  6 22  1  0
  7  8  1  0
  7 14  2  0
  7 18  1  0
  8  9  1  0
  8 13  2  0
  9 10  2  0
 10 11  1  0
 11 12  2  0
 11 23  1  0
 12 13  1  0
 14 22  1  0
 15 16  1  0
 16 21  1  0
  3 24  1  0
  4 25  1  0
  9 26  1  0
 10 27  1  0
 12 28  1  0
 13 29  1  0
 14 30  1  0
 15 31  1  0
 17 32  1  0
M  CHG  2  19  -1  21  -1
M  END
>  <mol_id>  (17) 
2026-08-23-6tgu-s0-n100-r1-0017

>  <rmsd_to_ref>  (17) 
1.188775510207906

$$$$
6tgu.A
     RDKit          3D

 32 34  0  0  0  0  0  0  0  0999 V2000
    2.9398   21.1643   37.8174 C   0  0  0  0  0  0  0  0  0  0  0  0
    2.2897   20.4905   38.9366 C   0  0  0  0  0  0  0  0  0  0  0  0
    1.5331   21.2396   39.8113 C   0  0  0  0  0  0  0  0  0  0  0  0
    0.9325   20.6024   40.8495 C   0  0  0  0  0  0  0  0  0  0  0  0
    1.0313   19.2367   41.0891 C   0  0  0  0  0  0  0  0  0  0  0  0
    0.4900   17.2526   42.4190 C   0  0  0  0  0  0  0  0  0  0  0  0
    0.8923   15.0478   42.4596 C   0  0  0  0  0  0  0  0  0  0  0  0
    1.5454   13.8907   41.8479 C   0  0  0  0  0  0  0  0  0  0  0  0
    2.3248   13.9961   40.7021 C   0  0  0  0  0  0  0  0  0  0  0  0
    2.9313   12.8886   40.1433 C   0  0  0  0  0  0  0  0  0  0  0  0
    2.7919   11.6349   40.6937 C   0  0  0  0  0  0  0  0  0  0  0  0
    2.0241   11.5095   41.8284 C   0  0  0  0  0  0  0  0  0  0  0  0
    1.4235   12.6227   42.3772 C   0  0  0  0  0  0  0  0  0  0  0  0
    0.1165   14.9170   43.6075 C   0  0  0  0  0  0  0  0  0  0  0  0
    1.8029   18.5287   40.1814 C   0  0  0  0  0  0  0  0  0  0  0  0
    2.4338   19.1375   39.1077 C   0  0  0  0  0  0  0  0  0  0  0  0
    0.3783   18.6631   42.1845 N   0  0  0  0  0  0  0  0  0  0  0  0
    0.9400   16.2976   42.0416 N   0  0  0  0  0  0  0  0  0  0  0  0
    3.7058   20.4499   36.9195 O   0  0  0  0  0  0  0  0  0  0  0  0
    2.8325   22.4162   37.6217 O   0  0  0  0  0  0  0  0  0  0  0  0
    3.2009   18.3813   38.2201 O   0  0  0  0  0  0  0  0  0  0  0  0
   -0.4618   16.6200   43.9593 S   0  0  0  0  0  0  0  0  0  0  0  0
    3.5550   10.2207   39.9962 Cl  0  0  0  0  0  0  0  0  0  0  0  0
    1.4485   22.3034   39.6355 H   0  0  0  0  0  0  0  0  0  0  0  0
    0.3386   21.1990   41.5336 H   0  0  0  0  0  0  0  0  0  0  0  0
    2.4366   14.9927   40.2633 H   0  0  0  0  0  0  0  0  0  0  0  0
    3.5318   13.0083   39.2497 H   0  0  0  0  0  0  0  0  0  0  0  0
    1.9029   10.5363   42.2742 H   0  0  0  0  0  0  0  0  0  0  0  0
    0.8291   12.4783   43.2690 H   0  0  0  0  0  0  0  0  0  0  0  0
   -0.1413   14.0501   44.2192 H   0  0  0  0  0  0  0  0  0  0  0  0
    1.9371   17.4766   40.2828 H   0  0  0  0  0  0  0  0  0  0  0  0
   -0.1800   19.2976   42.8064 H   0  0  0  0  0  0  0  0  0  0  0  0
  1  2  1  0
  1 19  1  0
  1 20  2  0
  2  3  1  0
  2 16  2  0
  3  4  2  0
  4  5  1  0
  5 15  2  0
  5 17  1  0
  6 17  1  0
  6 18  2  0
  6 22  1  0
  7  8  1  0
  7 14  2  0
  7 18  1  0
  8  9  1  0
  8 13  2  0
  9 10  2  0
 10 11  1  0
 11 12  2  0
 11 23  1  0
 12 13  1  0
 14 22  1  0
 15 16  1  0
 16 21  1  0
  3 24  1  0
  4 25  1  0
  9 26  1  0
 10 27  1  0
 12 28  1  0
 13 29  1  0
 14 30  1  0
 15 31  1  0
 17 32  1  0
M  CHG  2  19  -1  21  -1
M  END
>  <mol_id>  (18) 
2026-08-23-6tgu-s0-n100-r1-0018

>  <rmsd_to_ref>  (18) 
1.2346938775544862

$$$$
6tgu.A
     RDKit          3D

 32 34  0  0  0  0  0  0  0  0999 V2000
    1.7745   19.0804   35.8526 C   0  0  0  0  0  0  0  0  0  0  0  0
    1.6343   19.1943   37.3731 C   0  0  0  0  0  0  0  0  0  0  0  0
    1.0736   20.3324   37.9484 C   0  0  0  0  0  0  0  0  0  0  0  0
    0.7554   20.3960   39.3090 C   0  0  0  0  0  0  0  0  0  0  0  0
    1.1569   19.3684   40.1748 C   0  0  0  0  0  0  0  0  0  0  0  0
    0.6331   18.3726   42.4546 C   0  0  0  0  0  0  0  0  0  0  0  0
    0.7355   16.2529   43.2744 C   0  0  0  0  0  0  0  0  0  0  0  0
    1.0987   14.8357   43.2483 C   0  0  0  0  0  0  0  0  0  0  0  0
    0.6831   13.9434   44.2469 C   0  0  0  0  0  0  0  0  0  0  0  0
    1.0116   12.5927   44.1849 C   0  0  0  0  0  0  0  0  0  0  0  0
    1.7223   12.1325   43.0924 C   0  0  0  0  0  0  0  0  0  0  0  0
    2.1482   12.9789   42.0798 C   0  0  0  0  0  0  0  0  0  0  0  0
    1.8194   14.3289   42.1657 C   0  0  0  0  0  0  0  0  0  0  0  0
   -0.0129   16.8335   44.2639 C   0  0  0  0  0  0  0  0  0  0  0  0
    1.7125   18.2112   39.6107 C   0  0  0  0  0  0  0  0  0  0  0  0
    1.9443   18.1494   38.2354 C   0  0  0  0  0  0  0  0  0  0  0  0
    0.7844   19.3874   41.5540 N   0  0  0  0  0  0  0  0  0  0  0  0
    1.0449   17.0871   42.1741 N   0  0  0  0  0  0  0  0  0  0  0  0
    1.2111   19.9815   35.1642 O   0  0  0  0  0  0  0  0  0  0  0  0
    2.3620   18.0684   35.4117 O   0  0  0  0  0  0  0  0  0  0  0  0
    2.3910   16.9739   37.6799 O   0  0  0  0  0  0  0  0  0  0  0  0
   -0.4022   18.4639   43.8664 S   0  0  0  0  0  0  0  0  0  0  0  0
    2.1034   10.4461   42.9811 Cl  0  0  0  0  0  0  0  0  0  0  0  0
    0.8750   21.2081   37.3131 H   0  0  0  0  0  0  0  0  0  0  0  0
    0.1891   21.2539   39.7007 H   0  0  0  0  0  0  0  0  0  0  0  0
    0.0877   14.3172   45.0929 H   0  0  0  0  0  0  0  0  0  0  0  0
    0.7117   11.9049   44.9892 H   0  0  0  0  0  0  0  0  0  0  0  0
    2.7311   12.5934   41.2303 H   0  0  0  0  0  0  0  0  0  0  0  0
    2.1344   15.0114   41.3626 H   0  0  0  0  0  0  0  0  0  0  0  0
   -0.3238   16.3263   45.1892 H   0  0  0  0  0  0  0  0  0  0  0  0
    1.9654   17.3533   40.2509 H   0  0  0  0  0  0  0  0  0  0  0  0
    0.5983   20.3267   41.9335 H   0  0  0  0  0  0  0  0  0  0  0  0
  1  2  1  0
  1 19  1  0
  1 20  2  0
  2  3  1  0
  2 16  2  0
  3  4  2  0
  4  5  1  0
  5 15  2  0
  5 17  1  0
  6 17  1  0
  6 18  2  0
  6 22  1  0
  7  8  1  0
  7 14  2  0
  7 18  1  0
  8  9  1  0
  8 13  2  0
  9 10  2  0
 10 11  1  0
 11 12  2  0
 11 23  1  0
 12 13  1  0
 14 22  1  0
 15 16  1  0
 16 21  1  0
  3 24  1  0
  4 25  1  0
  9 26  1  0
 10 27  1  0
 12 28  1  0
 13 29  1  0
 14 30  1  0
 15 31  1  0
 17 32  1  0
M  CHG  2  19  -1  21  -1
M  END
>  <mol_id>  (19) 
2026-08-23-6tgu-s0-n100-r1-0019

>  <rmsd_to_ref>  (19) 
1.2806122449040014

$$$$
6tgu.A
     RDKit          3D

 32 34  0  0  0  0  0  0  0  0999 V2000
    2.3723   21.4373   37.3510 C   0  0  0  0  0  0  0  0  0  0  0  0
    2.1319   20.7356   38.6080 C   0  0  0  0  0  0  0  0  0  0  0  0
    2.4664   21.3170   39.8153 C   0  0  0  0  0  0  0  0  0  0  0  0
    2.2399   20.6554   41.0063 C   0  0  0  0  0  0  0  0  0  0  0  0
    1.6715   19.3977   40.9764 C   0  0  0  0  0  0  0  0  0  0  0  0
    0.8349   17.3828   42.1935 C   0  0  0  0  0  0  0  0  0  0  0  0
    0.4034   15.1599   42.1650 C   0  0  0  0  0  0  0  0  0  0  0  0
    0.8831   13.7603   42.1014 C   0  0  0  0  0  0  0  0  0  0  0  0
    0.0103   12.7054   42.1279 C   0  0  0  0  0  0  0  0  0  0  0  0
    0.4353   11.3944   42.0694 C   0  0  0  0  0  0  0  0  0  0  0  0
    1.7832   11.1118   41.9806 C   0  0  0  0  0  0  0  0  0  0  0  0
    2.6754   12.1512   41.9524 C   0  0  0  0  0  0  0  0  0  0  0  0
    2.2273   13.4724   42.0126 C   0  0  0  0  0  0  0  0  0  0  0  0
   -0.9930   15.4275   42.2556 C   0  0  0  0  0  0  0  0  0  0  0  0
    1.3236   18.7842   39.7870 C   0  0  0  0  0  0  0  0  0  0  0  0
    1.5647   19.4777   38.6016 C   0  0  0  0  0  0  0  0  0  0  0  0
    1.4269   18.6915   42.1904 N   0  0  0  0  0  0  0  0  0  0  0  0
    1.1529   16.1959   42.1453 N   0  0  0  0  0  0  0  0  0  0  0  0
    2.9440   22.7029   37.3801 O   0  0  0  0  0  0  0  0  0  0  0  0
    2.0563   20.8798   36.2702 O   0  0  0  0  0  0  0  0  0  0  0  0
    1.2181   18.8674   37.4094 O   0  0  0  0  0  0  0  0  0  0  0  0
   -1.0538   17.2492   42.3038 S   0  0  0  0  0  0  0  0  0  0  0  0
    2.2594    9.4292   41.9096 Cl  0  0  0  0  0  0  0  0  0  0  0  0
    2.9097   22.3020   39.8072 H   0  0  0  0  0  0  0  0  0  0  0  0
    2.4954   21.0955   41.9579 H   0  0  0  0  0  0  0  0  0  0  0  0
   -1.0385   12.8874   42.1961 H   0  0  0  0  0  0  0  0  0  0  0  0
   -0.3053   10.6066   42.0944 H   0  0  0  0  0  0  0  0  0  0  0  0
    3.7342   11.9370   41.8829 H   0  0  0  0  0  0  0  0  0  0  0  0
    2.9504   14.2724   41.9888 H   0  0  0  0  0  0  0  0  0  0  0  0
   -1.7911   14.7812   42.2878 H   0  0  0  0  0  0  0  0  0  0  0  0
    0.8760   17.7938   39.7616 H   0  0  0  0  0  0  0  0  0  0  0  0
    1.6886   19.1437   43.1152 H   0  0  0  0  0  0  0  0  0  0  0  0
  1  2  1  0
  1 19  1  0
  1 20  2  0
  2  3  1  0
  2 16  2  0
  3  4  2  0
  4  5  1  0
  5 15  2  0
  5 17  1  0
  6 17  1  0
  6 18  2  0
  6 22  1  0
  7  8  1  0
  7 14  2  0
  7 18  1  0
  8  9  1  0
  8 13  2  0
  9 10  2  0
 10 11  1  0
 11 12  2  0
 11 23  1  0
 12 13  1  0
 14 22  1  0
 15 16  1  0
 16 21  1  0
  3 24  1  0
  4 25  1  0
  9 26  1  0
 10 27  1  0
 12 28  1  0
 13 29  1  0
 14 30  1  0
 15 31  1  0
 17 32  1  0
M  CHG  2  19  -1  21  -1
M  END
>  <mol_id>  (20) 
2026-08-23-6tgu-s0-n100-r1-0020

>  <rmsd_to_ref>  (20) 
1.3265306122494585

$$$$
6tgu.A
     RDKit          3D

 32 34  0  0  0  0  0  0  0  0999 V2000
    2.6249   20.2528   37.2902 C   0  0  0  0  0  0  0  0  0  0  0  0
    2.5635   19.8683   38.7711 C   0  0  0  0  0  0  0  0  0  0  0  0
    2.5860   20.8507   39.7584 C   0  0  0  0  0  0  0  0  0  0  0  0
    2.3421   20.5562   41.1039 C   0  0  0  0  0  0  0  0  0  0  0  0
    2.2392   19.2226   41.5253 C   0  0  0  0  0  0  0  0  0  0  0  0
    1.3377   17.8055   43.4338 C   0  0  0  0  0  0  0  0  0  0  0  0
    0.4716   15.7036   43.5212 C   0  0  0  0  0  0  0  0  0  0  0  0
    0.1506   14.3771   42.9933 C   0  0  0  0  0  0  0  0  0  0  0  0
   -0.6175   13.4547   43.7180 C   0  0  0  0  0  0  0  0  0  0  0  0
   -0.9394   12.2112   43.1832 C   0  0  0  0  0  0  0  0  0  0  0  0
   -0.5241   11.9140   41.8988 C   0  0  0  0  0  0  0  0  0  0  0  0
    0.2321   12.7988   41.1449 C   0  0  0  0  0  0  0  0  0  0  0  0
    0.5536   14.0335   41.7020 C   0  0  0  0  0  0  0  0  0  0  0  0
    0.0767   16.1536   44.7532 C   0  0  0  0  0  0  0  0  0  0  0  0
    2.2036   18.2224   40.5432 C   0  0  0  0  0  0  0  0  0  0  0  0
    2.3713   18.5601   39.1990 C   0  0  0  0  0  0  0  0  0  0  0  0
    1.9268   18.9071   42.8833 N   0  0  0  0  0  0  0  0  0  0  0  0
    1.1179   16.6585   42.7011 N   0  0  0  0  0  0  0  0  0  0  0  0
    2.5274   21.4865   37.0223 O   0  0  0  0  0  0  0  0  0  0  0  0
    2.6846   19.3166   36.4634 O   0  0  0  0  0  0  0  0  0  0  0  0
    2.2305   17.5876   38.2377 O   0  0  0  0  0  0  0  0  0  0  0  0
    0.4681   17.8190   44.9559 S   0  0  0  0  0  0  0  0  0  0  0  0
   -0.9523   10.3857   41.2042 Cl  0  0  0  0  0  0  0  0  0  0  0  0
    2.8023   21.8903   39.4711 H   0  0  0  0  0  0  0  0  0  0  0  0
    2.2307   21.3724   41.8329 H   0  0  0  0  0  0  0  0  0  0  0  0
   -0.9713   13.7183   44.7256 H   0  0  0  0  0  0  0  0  0  0  0  0
   -1.5130   11.4792   43.7707 H   0  0  0  0  0  0  0  0  0  0  0  0
    0.5694   12.5319   40.1325 H   0  0  0  0  0  0  0  0  0  0  0  0
    1.1383   14.7541   41.1114 H   0  0  0  0  0  0  0  0  0  0  0  0
   -0.4237   15.5341   45.5121 H   0  0  0  0  0  0  0  0  0  0  0  0
    2.0438   17.1729   40.8316 H   0  0  0  0  0  0  0  0  0  0  0  0
    2.1910   19.6348   43.5626 H   0  0  0  0  0  0  0  0  0  0  0  0
  1  2  1  0
  1 19  1  0
  1 20  2  0
  2  3  1  0
  2 16  2  0
  3  4  2  0
  4  5  1  0
  5 15  2  0
  5 17  1  0
  6 17  1  0
  6 18  2  0
  6 22  1  0
  7  8  1  0
  7 14  2  0
  7 18  1  0
  8  9  1  0
  8 13  2  0
  9 10  2  0
 10 11  1  0
 11 12  2  0
 11 23  1  0
 12 13  1  0
 14 22  1  0
 15 16  1  0
 16 21  1  0
  3 24  1  0
  4 25  1  0
  9 26  1  0
 10 27  1  0
 12 28  1  0
 13 29  1  0
 14 30  1  0
 15 31  1  0
 17 32  1  0
M  CHG  2  19  -1  21  -1
M  END
>  <mol_id>  (21) 
2026-08-23-6tgu-s0-n100-r1-0021

>  <rmsd_to_ref>  (21) 
1.3724489795978863

$$$$
6tgu.A
     RDKit          3D

 32 34  0  0  0  0  0  0  0  0999 V2000
    3.0238   18.5006   36.3483 C   0  0  0  0  0  0  0  0  0  0  0  0
    2.4844   18.6832   37.6919 C   0  0  0  0  0  0  0  0  0  0  0  0
    2.1972   19.9603   38.1220 C   0  0  0  0  0  0  0  0  0  0  0  0
    1.6956   20.1189   39.3742 C   0  0  0  0  0  0  0  0  0  0  0  0
    1.4516   19.0717   40.2552 C   0  0  0  0  0  0  0  0  0  0  0  0
    0.6867   18.2359   42.4266 C   0  0  0  0  0  0  0  0  0  0  0  0
    0.4386   16.3032   43.5345 C   0  0  0  0  0  0  0  0  0  0  0  0
    0.5734   14.8467   43.5413 C   0  0  0  0  0  0  0  0  0  0  0  0
    1.0641   14.1401   42.4498 C   0  0  0  0  0  0  0  0  0  0  0  0
    1.1818   12.7647   42.4805 C   0  0  0  0  0  0  0  0  0  0  0  0
    0.8200   12.0340   43.5892 C   0  0  0  0  0  0  0  0  0  0  0  0
    0.3319   12.7151   44.6804 C   0  0  0  0  0  0  0  0  0  0  0  0
    0.2189   14.0886   44.6378 C   0  0  0  0  0  0  0  0  0  0  0  0
   -0.0556   16.9886   44.6402 C   0  0  0  0  0  0  0  0  0  0  0  0
    1.7569   17.8081   39.7751 C   0  0  0  0  0  0  0  0  0  0  0  0
    2.2704   17.5995   38.5045 C   0  0  0  0  0  0  0  0  0  0  0  0
    0.9327   19.3267   41.5285 N   0  0  0  0  0  0  0  0  0  0  0  0
    0.7446   17.1229   42.5479 N   0  0  0  0  0  0  0  0  0  0  0  0
    3.3244   17.2381   35.8802 O   0  0  0  0  0  0  0  0  0  0  0  0
    3.2375   19.4773   35.5624 O   0  0  0  0  0  0  0  0  0  0  0  0
    2.5623   16.3070   38.0660 O   0  0  0  0  0  0  0  0  0  0  0  0
   -0.0244   18.7492   44.1323 S   0  0  0  0  0  0  0  0  0  0  0  0
    0.9637   10.2889   43.6430 Cl  0  0  0  0  0  0  0  0  0  0  0  0
    2.3828   20.7836   37.4456 H   0  0  0  0  0  0  0  0  0  0  0  0
    1.4721   21.1272   39.7054 H   0  0  0  0  0  0  0  0  0  0  0  0
    1.3522   14.7200   41.5673 H   0  0  0  0  0  0  0  0  0  0  0  0
    1.5684   12.2470   41.6110 H   0  0  0  0  0  0  0  0  0  0  0  0
    0.0432   12.1609   45.5579 H   0  0  0  0  0  0  0  0  0  0  0  0
   -0.1695   14.5831   45.5176 H   0  0  0  0  0  0  0  0  0  0  0  0
   -0.4025   16.6448   45.6168 H   0  0  0  0  0  0  0  0  0  0  0  0
    1.6037   16.9433   40.3783 H   0  0  0  0  0  0  0  0  0  0  0  0
    0.7388   20.3256   41.7849 H   0  0  0  0  0  0  0  0  0  0  0  0
  1  2  1  0
  1 19  1  0
  1 20  2  0
  2  3  1  0
  2 16  2  0
  3  4  2  0
  4  5  1  0
  5 15  2  0
  5 17  1  0
  6 17  1  0
  6 18  2  0
  6 22  1  0
  7  8  1  0
  7 14  2  0
  7 18  1  0
  8  9  1  0
  8 13  2  0
  9 10  2  0
 10 11  1  0
 11 12  2  0
 11 23  1  0
 12 13  1  0
 14 22  1  0
 15 16  1  0
 16 21  1  0
  3 24  1  0
  4 25  1  0
  9 26  1  0
 10 27  1  0
 12 28  1  0
 13 29  1  0
 14 30  1  0
 15 31  1  0
 17 32  1  0
M  CHG  2  19  -1  21  -1
M  END
>  <mol_id>  (22) 
2026-08-23-6tgu-s0-n100-r1-0022

>  <rmsd_to_ref>  (22) 
1.4183673469473193

$$$$
6tgu.A
     RDKit          3D

 32 34  0  0  0  0  0  0  0  0999 V2000
    2.4409   18.4543   35.5763 C   0  0  0  0  0  0  0  0  0  0  0  0
    2.1992   18.7065   37.0671 C   0  0  0  0  0  0  0  0  0  0  0  0
    1.7110   19.9351   37.5065 C   0  0  0  0  0  0  0  0  0  0  0  0
    1.2998   20.1405   38.8276 C   0  0  0  0  0  0  0  0  0  0  0  0
    1.5331   19.1561   39.7988 C   0  0  0  0  0  0  0  0  0  0  0  0
    0.7457   18.4055   42.0966 C   0  0  0  0  0  0  0  0  0  0  0  0
    0.5789   16.3609   43.0802 C   0  0  0  0  0  0  0  0  0  0  0  0
    0.8028   14.9191   43.1915 C   0  0  0  0  0  0  0  0  0  0  0  0
    0.2285   14.1547   44.2171 C   0  0  0  0  0  0  0  0  0  0  0  0
    0.4272   12.7793   44.2848 C   0  0  0  0  0  0  0  0  0  0  0  0
    1.1691   12.1667   43.2925 C   0  0  0  0  0  0  0  0  0  0  0  0
    1.7502   12.8834   42.2572 C   0  0  0  0  0  0  0  0  0  0  0  0
    1.5493   14.2603   42.2133 C   0  0  0  0  0  0  0  0  0  0  0  0
   -0.1809   17.0878   43.9580 C   0  0  0  0  0  0  0  0  0  0  0  0
    2.0136   17.9100   39.3715 C   0  0  0  0  0  0  0  0  0  0  0  0
    2.3403   17.7130   38.0286 C   0  0  0  0  0  0  0  0  0  0  0  0
    1.0623   19.3237   41.1372 N   0  0  0  0  0  0  0  0  0  0  0  0
    1.0497   17.0688   41.9491 N   0  0  0  0  0  0  0  0  0  0  0  0
    2.0212   19.3427   34.7777 O   0  0  0  0  0  0  0  0  0  0  0  0
    2.9579   17.3596   35.2631 O   0  0  0  0  0  0  0  0  0  0  0  0
    2.7103   16.4595   37.6024 O   0  0  0  0  0  0  0  0  0  0  0  0
   -0.3783   18.7082   43.4074 S   0  0  0  0  0  0  0  0  0  0  0  0
    1.3908   10.4491   43.3410 Cl  0  0  0  0  0  0  0  0  0  0  0  0
    1.6470   20.7694   36.7925 H   0  0  0  0  0  0  0  0  0  0  0  0
    0.7924   21.0762   39.1052 H   0  0  0  0  0  0  0  0  0  0  0  0
   -0.3890   14.6505   44.9806 H   0  0  0  0  0  0  0  0  0  0  0  0
    0.0022   12.1911   45.1115 H   0  0  0  0  0  0  0  0  0  0  0  0
    2.3544   12.3768   41.4902 H   0  0  0  0  0  0  0  0  0  0  0  0
    1.9887   14.8419   41.3895 H   0  0  0  0  0  0  0  0  0  0  0  0
   -0.6082   16.6899   44.8902 H   0  0  0  0  0  0  0  0  0  0  0  0
    2.1329   17.0888   40.0935 H   0  0  0  0  0  0  0  0  0  0  0  0
    0.9411   20.3044   41.4279 H   0  0  0  0  0  0  0  0  0  0  0  0
  1  2  1  0
  1 19  1  0
  1 20  2  0
  2  3  1  0
  2 16  2  0
  3  4  2  0
  4  5  1  0
  5 15  2  0
  5 17  1  0
  6 17  1  0
  6 18  2  0
  6 22  1  0
  7  8  1  0
  7 14  2  0
  7 18  1  0
  8  9  1  0
  8 13  2  0
  9 10  2  0
 10 11  1  0
 11 12  2  0
 11 23  1  0
 12 13  1  0
 14 22  1  0
 15 16  1  0
 16 21  1  0
  3 24  1  0
  4 25  1  0
  9 26  1  0
 10 27  1  0
 12 28  1  0
 13 29  1  0
 14 30  1  0
 15 31  1  0
 17 32  1  0
M  CHG  2  19  -1  21  -1
M  END
>  <mol_id>  (23) 
2026-08-23-6tgu-s0-n100-r1-0023

>  <rmsd_to_ref>  (23) 
1.4642857142897157

$$$$
6tgu.A
     RDKit          3D

 32 34  0  0  0  0  0  0  0  0999 V2000
    5.5014   19.3321   37.8010 C   0  0  0  0  0  0  0  0  0  0  0  0
    4.4333   19.3008   38.7947 C   0  0  0  0  0  0  0  0  0  0  0  0
    4.0012   20.4901   39.3399 C   0  0  0  0  0  0  0  0  0  0  0  0
    3.0066   20.4495   40.2639 C   0  0  0  0  0  0  0  0  0  0  0  0
    2.3924   19.2805   40.6981 C   0  0  0  0  0  0  0  0  0  0  0  0
    0.7502   18.1168   42.0936 C   0  0  0  0  0  0  0  0  0  0  0  0
    0.0242   16.0405   42.5253 C   0  0  0  0  0  0  0  0  0  0  0  0
    0.1271   14.6059   42.2589 C   0  0  0  0  0  0  0  0  0  0  0  0
    1.0361   14.0819   41.3476 C   0  0  0  0  0  0  0  0  0  0  0  0
    1.1141   12.7233   41.1135 C   0  0  0  0  0  0  0  0  0  0  0  0
    0.2983   11.8300   41.7694 C   0  0  0  0  0  0  0  0  0  0  0  0
   -0.6087   12.3289   42.6758 C   0  0  0  0  0  0  0  0  0  0  0  0
   -0.6772   13.6875   42.9011 C   0  0  0  0  0  0  0  0  0  0  0  0
   -0.8944   16.5414   43.4428 C   0  0  0  0  0  0  0  0  0  0  0  0
    2.8627   18.1122   40.1197 C   0  0  0  0  0  0  0  0  0  0  0  0
    3.8755   18.1066   39.1733 C   0  0  0  0  0  0  0  0  0  0  0  0
    1.3741   19.3315   41.6551 N   0  0  0  0  0  0  0  0  0  0  0  0
    0.7377   17.0023   41.9730 N   0  0  0  0  0  0  0  0  0  0  0  0
    5.9622   18.1631   37.2313 O   0  0  0  0  0  0  0  0  0  0  0  0
    6.0461   20.4168   37.4216 O   0  0  0  0  0  0  0  0  0  0  0  0
    4.3152   16.9034   38.6192 O   0  0  0  0  0  0  0  0  0  0  0  0
   -0.6265   18.3540   43.4077 S   0  0  0  0  0  0  0  0  0  0  0  0
    0.3855   10.1040   41.4830 Cl  0  0  0  0  0  0  0  0  0  0  0  0
    4.4713   21.4067   39.0102 H   0  0  0  0  0  0  0  0  0  0  0  0
    2.6720   21.3899   40.6884 H   0  0  0  0  0  0  0  0  0  0  0  0
    1.6857   14.7913   40.8251 H   0  0  0  0  0  0  0  0  0  0  0  0
    1.8349   12.3504   40.3959 H   0  0  0  0  0  0  0  0  0  0  0  0
   -1.2562   11.6456   43.1995 H   0  0  0  0  0  0  0  0  0  0  0  0
   -1.4043   14.0359   43.6217 H   0  0  0  0  0  0  0  0  0  0  0  0
   -1.6352   16.0496   44.0764 H   0  0  0  0  0  0  0  0  0  0  0  0
    2.4531   17.1664   40.3894 H   0  0  0  0  0  0  0  0  0  0  0  0
    1.0986   20.2743   42.0242 H   0  0  0  0  0  0  0  0  0  0  0  0
  1  2  1  0
  1 19  1  0
  1 20  2  0
  2  3  1  0
  2 16  2  0
  3  4  2  0
  4  5  1  0
  5 15  2  0
  5 17  1  0
  6 17  1  0
  6 18  2  0
  6 22  1  0
  7  8  1  0
  7 14  2  0
  7 18  1  0
  8  9  1  0
  8 13  2  0
  9 10  2  0
 10 11  1  0
 11 12  2  0
 11 23  1  0
 12 13  1  0
 14 22  1  0
 15 16  1  0
 16 21  1  0
  3 24  1  0
  4 25  1  0
  9 26  1  0
 10 27  1  0
 12 28  1  0
 13 29  1  0
 14 30  1  0
 15 31  1  0
 17 32  1  0
M  CHG  2  19  -1  21  -1
M  END
>  <mol_id>  (24) 
2026-08-23-6tgu-s0-n100-r1-0024

>  <rmsd_to_ref>  (24) 
1.5102040816425033

$$$$
6tgu.A
     RDKit          3D

 32 34  0  0  0  0  0  0  0  0999 V2000
    4.6544   20.7858   38.2198 C   0  0  0  0  0  0  0  0  0  0  0  0
    3.7413   20.2585   39.3302 C   0  0  0  0  0  0  0  0  0  0  0  0
    2.9449   21.1331   40.0660 C   0  0  0  0  0  0  0  0  0  0  0  0
    1.9640   20.6762   40.9523 C   0  0  0  0  0  0  0  0  0  0  0  0
    1.8725   19.3106   41.2581 C   0  0  0  0  0  0  0  0  0  0  0  0
    0.2545   17.5882   42.1957 C   0  0  0  0  0  0  0  0  0  0  0  0
   -0.0509   15.3717   41.7843 C   0  0  0  0  0  0  0  0  0  0  0  0
    0.2954   14.0658   41.2222 C   0  0  0  0  0  0  0  0  0  0  0  0
   -0.5649   12.9629   41.3194 C   0  0  0  0  0  0  0  0  0  0  0  0
   -0.2306   11.7390   40.7482 C   0  0  0  0  0  0  0  0  0  0  0  0
    0.9522   11.6385   40.0402 C   0  0  0  0  0  0  0  0  0  0  0  0
    1.8294   12.7053   39.9144 C   0  0  0  0  0  0  0  0  0  0  0  0
    1.4823   13.9184   40.5027 C   0  0  0  0  0  0  0  0  0  0  0  0
   -1.2142   15.6304   42.4598 C   0  0  0  0  0  0  0  0  0  0  0  0
    2.6590   18.4158   40.5186 C   0  0  0  0  0  0  0  0  0  0  0  0
    3.5738   18.9022   39.5829 C   0  0  0  0  0  0  0  0  0  0  0  0
    0.8362   18.8204   42.1108 N   0  0  0  0  0  0  0  0  0  0  0  0
    0.7726   16.4949   41.5347 N   0  0  0  0  0  0  0  0  0  0  0  0
    4.5173   22.0050   37.9070 O   0  0  0  0  0  0  0  0  0  0  0  0
    5.4016   19.9552   37.6582 O   0  0  0  0  0  0  0  0  0  0  0  0
    4.2632   18.0149   38.7909 O   0  0  0  0  0  0  0  0  0  0  0  0
   -1.3657   17.3114   42.8053 S   0  0  0  0  0  0  0  0  0  0  0  0
    1.3624   10.1323   39.2889 Cl  0  0  0  0  0  0  0  0  0  0  0  0
    3.0921   22.2167   39.9464 H   0  0  0  0  0  0  0  0  0  0  0  0
    1.2629   21.3894   41.4103 H   0  0  0  0  0  0  0  0  0  0  0  0
   -1.5196   13.0669   41.8558 H   0  0  0  0  0  0  0  0  0  0  0  0
   -0.8943   10.8687   40.8580 H   0  0  0  0  0  0  0  0  0  0  0  0
    2.7753   12.5957   39.3638 H   0  0  0  0  0  0  0  0  0  0  0  0
    2.1584   14.7797   40.3981 H   0  0  0  0  0  0  0  0  0  0  0  0
   -1.9531   14.8667   42.7437 H   0  0  0  0  0  0  0  0  0  0  0  0
    2.5553   17.3320   40.6756 H   0  0  0  0  0  0  0  0  0  0  0  0
    0.4648   19.5149   42.7746 H   0  0  0  0  0  0  0  0  0  0  0  0
  1  2  1  0
  1 19  1  0
  1 20  2  0
  2  3  1  0
  2 16  2  0
  3  4  2  0
  4  5  1  0
  5 15  2  0
  5 17  1  0
  6 17  1  0
  6 18  2  0
  6 22  1  0
  7  8  1  0
  7 14  2  0
  7 18  1  0
  8  9  1  0
  8 13  2  0
  9 10  2  0
 10 11  1  0
 11 12  2  0
 11 23  1  0
 12 13  1  0
 14 22  1  0
 15 16  1  0
 16 21  1  0
  3 24  1  0
  4 25  1  0
  9 26  1  0
 10 27  1  0
 12 28  1  0
 13 29  1  0
 14 30  1  0
 15 31  1  0
 17 32  1  0
M  CHG  2  19  -1  21  -1
M  END
>  <mol_id>  (25) 
2026-08-23-6tgu-s0-n100-r1-0025

>  <rmsd_to_ref>  (25) 
1.5561224489800805

$$$$
6tgu.A
     RDKit          3D

 32 34  0  0  0  0  0  0  0  0999 V2000
    3.8573   20.1148   36.8658 C   0  0  0  0  0  0  0  0  0  0  0  0
    3.1968   19.8927   38.1562 C   0  0  0  0  0  0  0  0  0  0  0  0
    2.9559   18.5825   38.5817 C   0  0  0  0  0  0  0  0  0  0  0  0
    2.3287   18.3355   39.8093 C   0  0  0  0  0  0  0  0  0  0  0  0
    1.9447   19.4077   40.6037 C   0  0  0  0  0  0  0  0  0  0  0  0
    0.5651   18.0473   42.1937 C   0  0  0  0  0  0  0  0  0  0  0  0
   -0.0100   15.8628   42.5429 C   0  0  0  0  0  0  0  0  0  0  0  0
    0.2640   14.4208   42.5421 C   0  0  0  0  0  0  0  0  0  0  0  0
    1.4671   13.9051   42.1275 C   0  0  0  0  0  0  0  0  0  0  0  0
    1.6776   12.5434   42.1553 C   0  0  0  0  0  0  0  0  0  0  0  0
    0.6991   11.6787   42.5926 C   0  0  0  0  0  0  0  0  0  0  0  0
   -0.4994   12.1643   43.0073 C   0  0  0  0  0  0  0  0  0  0  0  0
   -0.6934   13.5333   42.9731 C   0  0  0  0  0  0  0  0  0  0  0  0
   -1.2424   16.3486   43.0010 C   0  0  0  0  0  0  0  0  0  0  0  0
    2.1934   20.7030   40.1601 C   0  0  0  0  0  0  0  0  0  0  0  0
    2.8095   20.9692   38.9572 C   0  0  0  0  0  0  0  0  0  0  0  0
    1.2767   19.2291   41.8315 N   0  0  0  0  0  0  0  0  0  0  0  0
    0.8428   16.7678   42.1560 N   0  0  0  0  0  0  0  0  0  0  0  0
    4.1068   21.3997   36.3920 O   0  0  0  0  0  0  0  0  0  0  0  0
    4.2178   19.1165   36.1470 O   0  0  0  0  0  0  0  0  0  0  0  0
    3.0475   22.2937   38.5374 O   0  0  0  0  0  0  0  0  0  0  0  0
   -1.0510   18.1928   42.8230 S   0  0  0  0  0  0  0  0  0  0  0  0
    0.9325    9.9318   42.6523 Cl  0  0  0  0  0  0  0  0  0  0  0  0
    3.2406   17.7227   37.9910 H   0  0  0  0  0  0  0  0  0  0  0  0
    2.1583   17.2958   40.1207 H   0  0  0  0  0  0  0  0  0  0  0  0
    2.2405   14.6052   41.7756 H   0  0  0  0  0  0  0  0  0  0  0  0
    2.6036   12.1122   41.8389 H   0  0  0  0  0  0  0  0  0  0  0  0
   -1.2874   11.5219   43.3601 H   0  0  0  0  0  0  0  0  0  0  0  0
   -1.6522   13.8862   43.3102 H   0  0  0  0  0  0  0  0  0  0  0  0
   -2.1329   15.8756   43.3756 H   0  0  0  0  0  0  0  0  0  0  0  0
    1.9054   21.5788   40.7573 H   0  0  0  0  0  0  0  0  0  0  0  0
    1.2990   20.0097   42.5548 H   0  0  0  0  0  0  0  0  0  0  0  0
  1  2  1  0
  1 19  1  0
  1 20  2  0
  2  3  1  0
  2 16  2  0
  3  4  2  0
  4  5  1  0
  5 15  2  0
  5 17  1  0
  6 17  1  0
  6 18  2  0
  6 22  1  0
  7  8  1  0
  7 14  2  0
  7 18  1  0
  8  9  1  0
  8 13  2  0
  9 10  2  0
 10 11  1  0
 11 12  2  0
 11 23  1  0
 12 13  1  0
 14 22  1  0
 15 16  1  0
 16 21  1  0
  3 24  1  0
  4 25  1  0
  9 26  1  0
 10 27  1  0
 12 28  1  0
 13 29  1  0
 14 30  1  0
 15 31  1  0
 17 32  1  0
M  CHG  2  19  -1  21  -1
M  END
>  <mol_id>  (26) 
2026-08-23-6tgu-s0-n100-r1-0026

>  <rmsd_to_ref>  (26) 
1.6020408163296254

$$$$
6tgu.A
     RDKit          3D

 32 34  0  0  0  0  0  0  0  0999 V2000
    5.5655   20.0993   38.3187 C   0  0  0  0  0  0  0  0  0  0  0  0
    4.3305   19.8040   39.1744 C   0  0  0  0  0  0  0  0  0  0  0  0
    3.3357   20.7657   39.3361 C   0  0  0  0  0  0  0  0  0  0  0  0
    2.1124   20.4723   39.9476 C   0  0  0  0  0  0  0  0  0  0  0  0
    1.9192   19.2343   40.5777 C   0  0  0  0  0  0  0  0  0  0  0  0
    0.0750   17.6816   41.3846 C   0  0  0  0  0  0  0  0  0  0  0  0
   -0.0808   15.4170   41.5363 C   0  0  0  0  0  0  0  0  0  0  0  0
    0.4305   14.0463   41.5070 C   0  0  0  0  0  0  0  0  0  0  0  0
   -0.4157   12.9346   41.6259 C   0  0  0  0  0  0  0  0  0  0  0  0
    0.0876   11.6390   41.5616 C   0  0  0  0  0  0  0  0  0  0  0  0
    1.4393   11.4633   41.3329 C   0  0  0  0  0  0  0  0  0  0  0  0
    2.3109   12.5341   41.2037 C   0  0  0  0  0  0  0  0  0  0  0  0
    1.7898   13.8227   41.2824 C   0  0  0  0  0  0  0  0  0  0  0  0
   -1.4028   15.7379   41.6975 C   0  0  0  0  0  0  0  0  0  0  0  0
    2.9060   18.2515   40.4152 C   0  0  0  0  0  0  0  0  0  0  0  0
    4.0837   18.5539   39.7293 C   0  0  0  0  0  0  0  0  0  0  0  0
    0.6551   18.8950   41.1504 N   0  0  0  0  0  0  0  0  0  0  0  0
    0.7820   16.5043   41.2620 N   0  0  0  0  0  0  0  0  0  0  0  0
    5.5453   21.1739   37.6494 O   0  0  0  0  0  0  0  0  0  0  0  0
    6.4556   19.2216   38.2861 O   0  0  0  0  0  0  0  0  0  0  0  0
    4.9967   17.5554   39.4858 O   0  0  0  0  0  0  0  0  0  0  0  0
   -1.6566   17.4290   41.4888 S   0  0  0  0  0  0  0  0  0  0  0  0
    2.0739    9.8559   41.2096 Cl  0  0  0  0  0  0  0  0  0  0  0  0
    3.5178   21.7874   38.9715 H   0  0  0  0  0  0  0  0  0  0  0  0
    1.3003   21.2141   39.9344 H   0  0  0  0  0  0  0  0  0  0  0  0
   -1.4949   13.0892   41.7725 H   0  0  0  0  0  0  0  0  0  0  0  0
   -0.5770   10.7720   41.6902 H   0  0  0  0  0  0  0  0  0  0  0  0
    3.3866   12.3696   41.0431 H   0  0  0  0  0  0  0  0  0  0  0  0
    2.4643   14.6837   41.1649 H   0  0  0  0  0  0  0  0  0  0  0  0
   -2.1964   15.0124   41.9292 H   0  0  0  0  0  0  0  0  0  0  0  0
    2.7523   17.2434   40.8277 H   0  0  0  0  0  0  0  0  0  0  0  0
    0.0841   19.7036   41.4350 H   0  0  0  0  0  0  0  0  0  0  0  0
  1  2  1  0
  1 19  1  0
  1 20  2  0
  2  3  1  0
  2 16  2  0
  3  4  2  0
  4  5  1  0
  5 15  2  0
  5 17  1  0
  6 17  1  0
  6 18  2  0
  6 22  1  0
  7  8  1  0
  7 14  2  0
  7 18  1  0
  8  9  1  0
  8 13  2  0
  9 10  2  0
 10 11  1  0
 11 12  2  0
 11 23  1  0
 12 13  1  0
 14 22  1  0
 15 16  1  0
 16 21  1  0
  3 24  1  0
  4 25  1  0
  9 26  1  0
 10 27  1  0
 12 28  1  0
 13 29  1  0
 14 30  1  0
 15 31  1  0
 17 32  1  0
M  CHG  2  19  -1  21  -1
M  END
>  <mol_id>  (27) 
2026-08-23-6tgu-s0-n100-r1-0027

>  <rmsd_to_ref>  (27) 
1.6479591836756542

$$$$
6tgu.A
     RDKit          3D

 32 34  0  0  0  0  0  0  0  0999 V2000
    2.2180   21.4854   37.1197 C   0  0  0  0  0  0  0  0  0  0  0  0
    1.7733   20.6868   38.2528 C   0  0  0  0  0  0  0  0  0  0  0  0
    0.6578   21.0552   38.9662 C   0  0  0  0  0  0  0  0  0  0  0  0
    0.2282   20.3120   40.0448 C   0  0  0  0  0  0  0  0  0  0  0  0
    0.8936   19.1593   40.4665 C   0  0  0  0  0  0  0  0  0  0  0  0
    1.1247   17.3553   42.1438 C   0  0  0  0  0  0  0  0  0  0  0  0
    1.9253   15.2817   42.7118 C   0  0  0  0  0  0  0  0  0  0  0  0
    1.9114   13.7979   42.6016 C   0  0  0  0  0  0  0  0  0  0  0  0
    1.0320   13.1466   41.7681 C   0  0  0  0  0  0  0  0  0  0  0  0
    1.0281   11.7470   41.6915 C   0  0  0  0  0  0  0  0  0  0  0  0
    1.9118   11.0164   42.4568 C   0  0  0  0  0  0  0  0  0  0  0  0
    2.8007   11.6734   43.2985 C   0  0  0  0  0  0  0  0  0  0  0  0
    2.7752   13.0335   43.3465 C   0  0  0  0  0  0  0  0  0  0  0  0
    2.8207   15.8997   43.5696 C   0  0  0  0  0  0  0  0  0  0  0  0
    2.0130   18.7890   39.7496 C   0  0  0  0  0  0  0  0  0  0  0  0
    2.4384   19.5457   38.6628 C   0  0  0  0  0  0  0  0  0  0  0  0
    0.4286   18.4199   41.5885 N   0  0  0  0  0  0  0  0  0  0  0  0
    1.1190   16.0398   42.0387 N   0  0  0  0  0  0  0  0  0  0  0  0
    1.4939   22.6244   36.7664 O   0  0  0  0  0  0  0  0  0  0  0  0
    3.2301   21.2091   36.4294 O   0  0  0  0  0  0  0  0  0  0  0  0
    3.5735   19.1690   37.9364 O   0  0  0  0  0  0  0  0  0  0  0  0
    2.4185   17.6882   43.3412 S   0  0  0  0  0  0  0  0  0  0  0  0
    1.9873    9.2708   42.4397 Cl  0  0  0  0  0  0  0  0  0  0  0  0
    0.0986   21.9227   38.7054 H   0  0  0  0  0  0  0  0  0  0  0  0
   -0.6573   20.6268   40.5919 H   0  0  0  0  0  0  0  0  0  0  0  0
    0.3303   13.6988   41.1593 H   0  0  0  0  0  0  0  0  0  0  0  0
    0.3632   11.2048   41.0581 H   0  0  0  0  0  0  0  0  0  0  0  0
    3.5096   11.1352   43.9148 H   0  0  0  0  0  0  0  0  0  0  0  0
    3.4974   13.5133   44.0257 H   0  0  0  0  0  0  0  0  0  0  0  0
    3.5980   15.5387   44.2439 H   0  0  0  0  0  0  0  0  0  0  0  0
    2.5664   17.8916   40.0420 H   0  0  0  0  0  0  0  0  0  0  0  0
   -0.4943   18.6925   42.0213 H   0  0  0  0  0  0  0  0  0  0  0  0
  1  2  1  0
  1 19  1  0
  1 20  2  0
  2  3  1  0
  2 16  2  0
  3  4  2  0
  4  5  1  0
  5 15  2  0
  5 17  1  0
  6 17  1  0
  6 18  2  0
  6 22  1  0
  7  8  1  0
  7 14  2  0
  7 18  1  0
  8  9  1  0
  8 13  2  0
  9 10  2  0
 10 11  1  0
 11 12  2  0
 11 23  1  0
 12 13  1  0
 14 22  1  0
 15 16  1  0
 16 21  1  0
  3 24  1  0
  4 25  1  0
  9 26  1  0
 10 27  1  0
 12 28  1  0
 13 29  1  0
 14 30  1  0
 15 31  1  0
 17 32  1  0
M  CHG  2  19  -1  21  -1
M  END
>  <mol_id>  (28) 
2026-08-23-6tgu-s0-n100-r1-0028

>  <rmsd_to_ref>  (28) 
1.6938775510256725

$$$$
6tgu.A
     RDKit          3D

 32 34  0  0  0  0  0  0  0  0999 V2000
    3.3083   18.9483   35.6063 C   0  0  0  0  0  0  0  0  0  0  0  0
    2.4649   19.0200   36.8824 C   0  0  0  0  0  0  0  0  0  0  0  0
    1.3090   19.7965   36.9234 C   0  0  0  0  0  0  0  0  0  0  0  0
    0.4150   19.7399   37.9976 C   0  0  0  0  0  0  0  0  0  0  0  0
    0.7494   19.0219   39.1550 C   0  0  0  0  0  0  0  0  0  0  0  0
   -0.3083   17.9469   41.2017 C   0  0  0  0  0  0  0  0  0  0  0  0
    0.2362   16.1184   42.4409 C   0  0  0  0  0  0  0  0  0  0  0  0
    1.0955   15.0158   42.8735 C   0  0  0  0  0  0  0  0  0  0  0  0
    0.6621   14.0540   43.7971 C   0  0  0  0  0  0  0  0  0  0  0  0
    1.4837   12.9945   44.1692 C   0  0  0  0  0  0  0  0  0  0  0  0
    2.7270   12.8795   43.5765 C   0  0  0  0  0  0  0  0  0  0  0  0
    3.1930   13.8047   42.6545 C   0  0  0  0  0  0  0  0  0  0  0  0
    2.3606   14.8640   42.3037 C   0  0  0  0  0  0  0  0  0  0  0  0
   -1.0382   16.3217   42.9004 C   0  0  0  0  0  0  0  0  0  0  0  0
    1.9036   18.2264   39.1261 C   0  0  0  0  0  0  0  0  0  0  0  0
    2.7345   18.2454   38.0043 C   0  0  0  0  0  0  0  0  0  0  0  0
   -0.1791   18.9014   40.2342 N   0  0  0  0  0  0  0  0  0  0  0  0
    0.6531   16.9783   41.3975 N   0  0  0  0  0  0  0  0  0  0  0  0
    2.8137   19.4843   34.5714 O   0  0  0  0  0  0  0  0  0  0  0  0
    4.3755   18.2994   35.6679 O   0  0  0  0  0  0  0  0  0  0  0  0
    3.8047   17.3847   37.9442 O   0  0  0  0  0  0  0  0  0  0  0  0
   -1.8109   17.5936   42.0327 S   0  0  0  0  0  0  0  0  0  0  0  0
    3.7448   11.5428   43.9995 Cl  0  0  0  0  0  0  0  0  0  0  0  0
    1.0928   20.4752   36.0852 H   0  0  0  0  0  0  0  0  0  0  0  0
   -0.5525   20.2596   37.9345 H   0  0  0  0  0  0  0  0  0  0  0  0
   -0.3436   14.1384   44.2346 H   0  0  0  0  0  0  0  0  0  0  0  0
    1.1504   12.2630   44.9202 H   0  0  0  0  0  0  0  0  0  0  0  0
    4.1948   13.7041   42.2116 H   0  0  0  0  0  0  0  0  0  0  0  0
    2.7075   15.5975   41.5610 H   0  0  0  0  0  0  0  0  0  0  0  0
   -1.5058   15.7492   43.7150 H   0  0  0  0  0  0  0  0  0  0  0  0
    2.1542   17.5881   39.9862 H   0  0  0  0  0  0  0  0  0  0  0  0
   -0.8683   19.6646   40.2921 H   0  0  0  0  0  0  0  0  0  0  0  0
  1  2  1  0
  1 19  1  0
  1 20  2  0
  2  3  1  0
  2 16  2  0
  3  4  2  0
  4  5  1  0
  5 15  2  0
  5 17  1  0
  6 17  1  0
  6 18  2  0
  6 22  1  0
  7  8  1  0
  7 14  2  0
  7 18  1  0
  8  9  1  0
  8 13  2  0
  9 10  2  0
 10 11  1  0
 11 12  2  0
 11 23  1  0
 12 13  1  0
 14 22  1  0
 15 16  1  0
 16 21  1  0
  3 24  1  0
  4 25  1  0
  9 26  1  0
 10 27  1  0
 12 28  1  0
 13 29  1  0
 14 30  1  0
 15 31  1  0
 17 32  1  0
M  CHG  2  19  -1  21  -1
M  END
>  <mol_id>  (29) 
2026-08-23-6tgu-s0-n100-r1-0029

>  <rmsd_to_ref>  (29) 
1.7397959183747296

$$$$
6tgu.A
     RDKit          3D

 32 34  0  0  0  0  0  0  0  0999 V2000
    4.3193   20.3672   36.7587 C   0  0  0  0  0  0  0  0  0  0  0  0
    3.4619   20.0646   37.9004 C   0  0  0  0  0  0  0  0  0  0  0  0
    2.9526   21.0783   38.6881 C   0  0  0  0  0  0  0  0  0  0  0  0
    2.1410   20.7949   39.7690 C   0  0  0  0  0  0  0  0  0  0  0  0
    1.8424   19.4779   40.0554 C   0  0  0  0  0  0  0  0  0  0  0  0
    0.6762   17.7963   41.4883 C   0  0  0  0  0  0  0  0  0  0  0  0
    0.5922   15.6800   42.2900 C   0  0  0  0  0  0  0  0  0  0  0  0
    1.1671   14.6002   43.1246 C   0  0  0  0  0  0  0  0  0  0  0  0
    0.5695   13.3712   43.2114 C   0  0  0  0  0  0  0  0  0  0  0  0
    1.0879   12.3513   43.9821 C   0  0  0  0  0  0  0  0  0  0  0  0
    2.2491   12.5540   44.6999 C   0  0  0  0  0  0  0  0  0  0  0  0
    2.8648   13.7758   44.6285 C   0  0  0  0  0  0  0  0  0  0  0  0
    2.3259   14.7969   43.8431 C   0  0  0  0  0  0  0  0  0  0  0  0
   -0.6072   15.4476   41.5571 C   0  0  0  0  0  0  0  0  0  0  0  0
    2.3339   18.4368   39.2894 C   0  0  0  0  0  0  0  0  0  0  0  0
    3.1505   18.7552   38.2049 C   0  0  0  0  0  0  0  0  0  0  0  0
    1.0076   19.1561   41.1652 N   0  0  0  0  0  0  0  0  0  0  0  0
    1.0893   16.8509   42.1574 N   0  0  0  0  0  0  0  0  0  0  0  0
    4.6202   21.6922   36.4696 O   0  0  0  0  0  0  0  0  0  0  0  0
    4.7661   19.4213   36.0627 O   0  0  0  0  0  0  0  0  0  0  0  0
    3.6444   17.7166   37.4360 O   0  0  0  0  0  0  0  0  0  0  0  0
   -0.8844   17.0425   40.7179 S   0  0  0  0  0  0  0  0  0  0  0  0
    2.8566   11.2218   45.6587 Cl  0  0  0  0  0  0  0  0  0  0  0  0
    3.2036   22.0991   38.4396 H   0  0  0  0  0  0  0  0  0  0  0  0
    1.7350   21.5751   40.3943 H   0  0  0  0  0  0  0  0  0  0  0  0
   -0.3293   13.1798   42.6698 H   0  0  0  0  0  0  0  0  0  0  0  0
    0.5676   11.4036   44.0079 H   0  0  0  0  0  0  0  0  0  0  0  0
    3.7760   13.9419   45.1889 H   0  0  0  0  0  0  0  0  0  0  0  0
    2.8302   15.7496   43.8041 H   0  0  0  0  0  0  0  0  0  0  0  0
   -1.1933   14.6060   41.4946 H   0  0  0  0  0  0  0  0  0  0  0  0
    2.0998   17.3991   39.5135 H   0  0  0  0  0  0  0  0  0  0  0  0
    0.6209   19.9406   41.7681 H   0  0  0  0  0  0  0  0  0  0  0  0
  1  2  1  0
  1 19  1  0
  1 20  2  0
  2  3  1  0
  2 16  2  0
  3  4  2  0
  4  5  1  0
  5 15  2  0
  5 17  1  0
  6 17  1  0
  6 18  2  0
  6 22  1  0
  7  8  1  0
  7 14  2  0
  7 18  1  0
  8  9  1  0
  8 13  2  0
  9 10  2  0
 10 11  1  0
 11 12  2  0
 11 23  1  0
 12 13  1  0
 14 22  1  0
 15 16  1  0
 16 21  1  0
  3 24  1  0
  4 25  1  0
  9 26  1  0
 10 27  1  0
 12 28  1  0
 13 29  1  0
 14 30  1  0
 15 31  1  0
 17 32  1  0
M  CHG  2  19  -1  21  -1
M  END
>  <mol_id>  (30) 
2026-08-23-6tgu-s0-n100-r1-0030

>  <rmsd_to_ref>  (30) 
1.7857142857151425

$$$$
6tgu.A
     RDKit          3D

 32 34  0  0  0  0  0  0  0  0999 V2000
    0.2095   19.1400   36.2689 C   0  0  0  0  0  0  0  0  0  0  0  0
    0.4322   19.1133   37.7836 C   0  0  0  0  0  0  0  0  0  0  0  0
   -0.0994   20.1137   38.5943 C   0  0  0  0  0  0  0  0  0  0  0  0
   -0.0812   20.0253   39.9902 C   0  0  0  0  0  0  0  0  0  0  0  0
    0.6359   18.9986   40.6214 C   0  0  0  0  0  0  0  0  0  0  0  0
    0.8034   17.7635   42.8372 C   0  0  0  0  0  0  0  0  0  0  0  0
    1.3482   15.6208   43.3736 C   0  0  0  0  0  0  0  0  0  0  0  0
    1.8562   14.2743   43.1089 C   0  0  0  0  0  0  0  0  0  0  0  0
    1.8033   13.2572   44.0726 C   0  0  0  0  0  0  0  0  0  0  0  0
    2.2613   11.9744   43.7885 C   0  0  0  0  0  0  0  0  0  0  0  0
    2.7325   11.7048   42.5174 C   0  0  0  0  0  0  0  0  0  0  0  0
    2.7972   12.6791   41.5327 C   0  0  0  0  0  0  0  0  0  0  0  0
    2.3447   13.9594   41.8399 C   0  0  0  0  0  0  0  0  0  0  0  0
    0.8017   16.0122   44.5671 C   0  0  0  0  0  0  0  0  0  0  0  0
    1.1676   17.9779   39.8205 C   0  0  0  0  0  0  0  0  0  0  0  0
    1.0624   18.0571   38.4307 C   0  0  0  0  0  0  0  0  0  0  0  0
    0.6115   18.8571   42.0429 N   0  0  0  0  0  0  0  0  0  0  0  0
    1.2808   16.5738   42.3298 N   0  0  0  0  0  0  0  0  0  0  0  0
   -0.6055   20.0052   35.8328 O   0  0  0  0  0  0  0  0  0  0  0  0
    0.7851   18.2573   35.5956 O   0  0  0  0  0  0  0  0  0  0  0  0
    1.4936   17.0025   37.6614 O   0  0  0  0  0  0  0  0  0  0  0  0
    0.1405   17.5988   44.4517 S   0  0  0  0  0  0  0  0  0  0  0  0
    3.2681   10.1018   42.1367 Cl  0  0  0  0  0  0  0  0  0  0  0  0
   -0.5474   21.0005   38.1222 H   0  0  0  0  0  0  0  0  0  0  0  0
   -0.6306   20.7626   40.5940 H   0  0  0  0  0  0  0  0  0  0  0  0
    1.3931   13.4769   45.0693 H   0  0  0  0  0  0  0  0  0  0  0  0
    2.2486   11.1905   44.5601 H   0  0  0  0  0  0  0  0  0  0  0  0
    3.1959   12.4463   40.5343 H   0  0  0  0  0  0  0  0  0  0  0  0
    2.3729   14.7400   41.0655 H   0  0  0  0  0  0  0  0  0  0  0  0
    0.7869   15.3955   45.4779 H   0  0  0  0  0  0  0  0  0  0  0  0
    1.6670   17.1157   40.2868 H   0  0  0  0  0  0  0  0  0  0  0  0
    0.4158   19.7287   42.5557 H   0  0  0  0  0  0  0  0  0  0  0  0
  1  2  1  0
  1 19  1  0
  1 20  2  0
  2  3  1  0
  2 16  2  0
  3  4  2  0
  4  5  1  0
  5 15  2  0
  5 17  1  0
  6 17  1  0
  6 18  2  0
  6 22  1  0
  7  8  1  0
  7 14  2  0
  7 18  1  0
  8  9  1  0
  8 13  2  0
  9 10  2  0
 10 11  1  0
 11 12  2  0
 11 23  1  0
 12 13  1  0
 14 22  1  0
 15 16  1  0
 16 21  1  0
  3 24  1  0
  4 25  1  0
  9 26  1  0
 10 27  1  0
 12 28  1  0
 13 29  1  0
 14 30  1  0
 15 31  1  0
 17 32  1  0
M  CHG  2  19  -1  21  -1
M  END
>  <mol_id>  (31) 
2026-08-23-6tgu-s0-n100-r1-0031

>  <rmsd_to_ref>  (31) 
1.8316326530701865

$$$$
6tgu.A
     RDKit          3D

 32 34  0  0  0  0  0  0  0  0999 V2000
    3.4895   19.5006   35.6315 C   0  0  0  0  0  0  0  0  0  0  0  0
    2.9728   19.4232   36.9921 C   0  0  0  0  0  0  0  0  0  0  0  0
    3.1225   20.4890   37.8407 C   0  0  0  0  0  0  0  0  0  0  0  0
    2.6204   20.3777   39.1190 C   0  0  0  0  0  0  0  0  0  0  0  0
    1.9730   19.2281   39.5692 C   0  0  0  0  0  0  0  0  0  0  0  0
    0.8112   18.0311   41.4361 C   0  0  0  0  0  0  0  0  0  0  0  0
    0.2849   16.0851   42.4603 C   0  0  0  0  0  0  0  0  0  0  0  0
    0.7043   14.8728   43.2062 C   0  0  0  0  0  0  0  0  0  0  0  0
    2.0279   14.6466   43.5245 C   0  0  0  0  0  0  0  0  0  0  0  0
    2.4596   13.5340   44.2162 C   0  0  0  0  0  0  0  0  0  0  0  0
    1.5381   12.5948   44.6152 C   0  0  0  0  0  0  0  0  0  0  0  0
    0.2189   12.8187   44.2989 C   0  0  0  0  0  0  0  0  0  0  0  0
   -0.2069   13.9249   43.6117 C   0  0  0  0  0  0  0  0  0  0  0  0
   -1.0531   16.2963   42.1506 C   0  0  0  0  0  0  0  0  0  0  0  0
    1.8387   18.1845   38.7037 C   0  0  0  0  0  0  0  0  0  0  0  0
    2.3392   18.2704   37.3997 C   0  0  0  0  0  0  0  0  0  0  0  0
    1.4686   19.1543   40.8941 N   0  0  0  0  0  0  0  0  0  0  0  0
    1.1032   17.0012   42.0593 N   0  0  0  0  0  0  0  0  0  0  0  0
    4.1365   20.6382   35.1681 O   0  0  0  0  0  0  0  0  0  0  0  0
    3.3463   18.5078   34.8515 O   0  0  0  0  0  0  0  0  0  0  0  0
    2.2147   17.2243   36.5037 O   0  0  0  0  0  0  0  0  0  0  0  0
   -1.0641   17.8593   41.2664 S   0  0  0  0  0  0  0  0  0  0  0  0
    2.0721   11.1794   45.4933 Cl  0  0  0  0  0  0  0  0  0  0  0  0
    3.6230   21.3989   37.5184 H   0  0  0  0  0  0  0  0  0  0  0  0
    2.7047   21.1833   39.8419 H   0  0  0  0  0  0  0  0  0  0  0  0
    2.8013   15.3714   43.2256 H   0  0  0  0  0  0  0  0  0  0  0  0
    3.5234   13.4204   44.4335 H   0  0  0  0  0  0  0  0  0  0  0  0
   -0.5154   12.0859   44.6080 H   0  0  0  0  0  0  0  0  0  0  0  0
   -1.2567   14.0388   43.3962 H   0  0  0  0  0  0  0  0  0  0  0  0
   -1.9153   15.6924   42.3690 H   0  0  0  0  0  0  0  0  0  0  0  0
    1.3585   17.2741   38.9686 H   0  0  0  0  0  0  0  0  0  0  0  0
    1.5847   19.9881   41.5316 H   0  0  0  0  0  0  0  0  0  0  0  0
  1  2  1  0
  1 19  1  0
  1 20  2  0
  2  3  1  0
  2 16  2  0
  3  4  2  0
  4  5  1  0
  5 15  2  0
  5 17  1  0
  6 17  1  0
  6 18  2  0
  6 22  1  0
  7  8  1  0
  7 14  2  0
  7 18  1  0
  8  9  1  0
  8 13  2  0
  9 10  2  0
 10 11  1  0
 11 12  2  0
 11 23  1  0
 12 13  1  0
 14 22  1  0
 15 16  1  0
 16 21  1  0
  3 24  1  0
  4 25  1  0
  9 26  1  0
 10 27  1  0
 12 28  1  0
 13 29  1  0
 14 30  1  0
 15 31  1  0
 17 32  1  0
M  CHG  2  19  -1  21  -1
M  END
>  <mol_id>  (32) 
2026-08-23-6tgu-s0-n100-r1-0032

>  <rmsd_to_ref>  (32) 
1.8775510204165138

$$$$
6tgu.A
     RDKit          3D

 32 34  0  0  0  0  0  0  0  0999 V2000
    3.7812   21.4970   37.6797 C   0  0  0  0  0  0  0  0  0  0  0  0
    2.6540   20.7923   38.4396 C   0  0  0  0  0  0  0  0  0  0  0  0
    1.3359   21.2245   38.3103 C   0  0  0  0  0  0  0  0  0  0  0  0
    0.2618   20.4966   38.8327 C   0  0  0  0  0  0  0  0  0  0  0  0
    0.4978   19.3895   39.6607 C   0  0  0  0  0  0  0  0  0  0  0  0
   -0.6346   17.2923   40.5453 C   0  0  0  0  0  0  0  0  0  0  0  0
    0.1511   15.2316   41.1039 C   0  0  0  0  0  0  0  0  0  0  0  0
    1.1871   14.2382   41.3881 C   0  0  0  0  0  0  0  0  0  0  0  0
    0.8800   12.8905   41.6239 C   0  0  0  0  0  0  0  0  0  0  0  0
    1.8836   11.9559   41.8590 C   0  0  0  0  0  0  0  0  0  0  0  0
    3.2010   12.3715   41.8125 C   0  0  0  0  0  0  0  0  0  0  0  0
    3.5496   13.6929   41.5770 C   0  0  0  0  0  0  0  0  0  0  0  0
    2.5306   14.6152   41.3554 C   0  0  0  0  0  0  0  0  0  0  0  0
   -1.1887   14.9498   41.0602 C   0  0  0  0  0  0  0  0  0  0  0  0
    1.8177   18.9349   39.7923 C   0  0  0  0  0  0  0  0  0  0  0  0
    2.8608   19.6415   39.1908 C   0  0  0  0  0  0  0  0  0  0  0  0
   -0.5865   18.5980   40.1494 N   0  0  0  0  0  0  0  0  0  0  0  0
    0.5109   16.5459   40.7227 N   0  0  0  0  0  0  0  0  0  0  0  0
    3.4309   22.3595   36.8215 O   0  0  0  0  0  0  0  0  0  0  0  0
    4.9478   21.1089   37.9081 O   0  0  0  0  0  0  0  0  0  0  0  0
    4.1360   19.1303   39.2384 O   0  0  0  0  0  0  0  0  0  0  0  0
   -2.0879   16.3125   40.5106 S   0  0  0  0  0  0  0  0  0  0  0  0
    4.4628   11.2110   42.0627 Cl  0  0  0  0  0  0  0  0  0  0  0  0
    1.1337   22.1673   37.7810 H   0  0  0  0  0  0  0  0  0  0  0  0
   -0.7701   20.7930   38.5935 H   0  0  0  0  0  0  0  0  0  0  0  0
   -0.1713   12.5670   41.6231 H   0  0  0  0  0  0  0  0  0  0  0  0
    1.6336   10.9072   42.0774 H   0  0  0  0  0  0  0  0  0  0  0  0
    4.6045   14.0044   41.5656 H   0  0  0  0  0  0  0  0  0  0  0  0
    2.7900   15.6642   41.1501 H   0  0  0  0  0  0  0  0  0  0  0  0
   -1.6315   13.9821   41.3389 H   0  0  0  0  0  0  0  0  0  0  0  0
    2.0310   18.0227   40.3688 H   0  0  0  0  0  0  0  0  0  0  0  0
   -1.4850   19.0974   40.2141 H   0  0  0  0  0  0  0  0  0  0  0  0
  1  2  1  0
  1 19  1  0
  1 20  2  0
  2  3  1  0
  2 16  2  0
  3  4  2  0
  4  5  1  0
  5 15  2  0
  5 17  1  0
  6 17  1  0
  6 18  2  0
  6 22  1  0
  7  8  1  0
  7 14  2  0
  7 18  1  0
  8  9  1  0
  8 13  2  0
  9 10  2  0
 10 11  1  0
 11 12  2  0
 11 23  1  0
 12 13  1  0
 14 22  1  0
 15 16  1  0
 16 21  1  0
  3 24  1  0
  4 25  1  0
  9 26  1  0
 10 27  1  0
 12 28  1  0
 13 29  1  0
 14 30  1  0
 15 31  1  0
 17 32  1  0
M  CHG  2  19  -1  21  -1
M  END
>  <mol_id>  (33) 
2026-08-23-6tgu-s0-n100-r1-0033

>  <rmsd_to_ref>  (33) 
1.9234693877581583

$$$$
6tgu.A
     RDKit          3D

 32 34  0  0  0  0  0  0  0  0999 V2000
    3.6946   20.8679   38.1489 C   0  0  0  0  0  0  0  0  0  0  0  0
    2.7700   20.3418   39.1552 C   0  0  0  0  0  0  0  0  0  0  0  0
    2.6613   18.9708   39.2482 C   0  0  0  0  0  0  0  0  0  0  0  0
    1.8001   18.4369   40.1847 C   0  0  0  0  0  0  0  0  0  0  0  0
    1.0380   19.2264   41.0379 C   0  0  0  0  0  0  0  0  0  0  0  0
   -0.0006   17.2846   42.1421 C   0  0  0  0  0  0  0  0  0  0  0  0
    0.0231   15.0419   42.0722 C   0  0  0  0  0  0  0  0  0  0  0  0
    0.5781   13.8253   41.4381 C   0  0  0  0  0  0  0  0  0  0  0  0
    0.1874   12.5653   41.8432 C   0  0  0  0  0  0  0  0  0  0  0  0
    0.7167   11.4415   41.2391 C   0  0  0  0  0  0  0  0  0  0  0  0
    1.6436   11.5325   40.2214 C   0  0  0  0  0  0  0  0  0  0  0  0
    2.0446   12.7871   39.8049 C   0  0  0  0  0  0  0  0  0  0  0  0
    1.5055   13.8836   40.4192 C   0  0  0  0  0  0  0  0  0  0  0  0
   -0.9019   14.9532   43.0878 C   0  0  0  0  0  0  0  0  0  0  0  0
    1.1938   20.5903   40.8931 C   0  0  0  0  0  0  0  0  0  0  0  0
    2.0371   21.1705   39.9771 C   0  0  0  0  0  0  0  0  0  0  0  0
    0.1522   18.6877   42.0014 N   0  0  0  0  0  0  0  0  0  0  0  0
    0.3380   16.2675   41.7498 N   0  0  0  0  0  0  0  0  0  0  0  0
    3.8113   22.2677   38.0476 O   0  0  0  0  0  0  0  0  0  0  0  0
    4.3724   20.1275   37.3893 O   0  0  0  0  0  0  0  0  0  0  0  0
    2.1617   22.5676   39.8672 O   0  0  0  0  0  0  0  0  0  0  0  0
   -1.2310   16.7456   43.4847 S   0  0  0  0  0  0  0  0  0  0  0  0
    2.3280   10.1157   39.4410 Cl  0  0  0  0  0  0  0  0  0  0  0  0
    3.2406   18.3248   38.5987 H   0  0  0  0  0  0  0  0  0  0  0  0
    1.7436   17.3615   40.2260 H   0  0  0  0  0  0  0  0  0  0  0  0
   -0.5417   12.4755   42.6433 H   0  0  0  0  0  0  0  0  0  0  0  0
    0.4114   10.4541   41.5556 H   0  0  0  0  0  0  0  0  0  0  0  0
    2.7767   12.9187   39.0023 H   0  0  0  0  0  0  0  0  0  0  0  0
    1.8164   14.8610   40.0964 H   0  0  0  0  0  0  0  0  0  0  0  0
   -1.3737   14.1720   43.5914 H   0  0  0  0  0  0  0  0  0  0  0  0
    0.6205   21.2439   41.5361 H   0  0  0  0  0  0  0  0  0  0  0  0
   -0.3712   19.3904   42.5907 H   0  0  0  0  0  0  0  0  0  0  0  0
  1  2  1  0
  1 19  1  0
  1 20  2  0
  2  3  1  0
  2 16  2  0
  3  4  2  0
  4  5  1  0
  5 15  2  0
  5 17  1  0
  6 17  1  0
  6 18  2  0
  6 22  1  0
  7  8  1  0
  7 14  2  0
  7 18  1  0
  8  9  1  0
  8 13  2  0
  9 10  2  0
 10 11  1  0
 11 12  2  0
 11 23  1  0
 12 13  1  0
 14 22  1  0
 15 16  1  0
 16 21  1  0
  3 24  1  0
  4 25  1  0
  9 26  1  0
 10 27  1  0
 12 28  1  0
 13 29  1  0
 14 30  1  0
 15 31  1  0
 17 32  1  0
M  CHG  2  19  -1  21  -1
M  END
>  <mol_id>  (34) 
2026-08-23-6tgu-s0-n100-r1-0034

>  <rmsd_to_ref>  (34) 
1.969387755105208

$$$$
6tgu.A
     RDKit          3D

 32 34  0  0  0  0  0  0  0  0999 V2000
    4.5038   20.8209   39.0787 C   0  0  0  0  0  0  0  0  0  0  0  0
    3.6297   20.0685   40.0859 C   0  0  0  0  0  0  0  0  0  0  0  0
    2.7626   20.7623   40.9269 C   0  0  0  0  0  0  0  0  0  0  0  0
    1.8164   20.1065   41.7214 C   0  0  0  0  0  0  0  0  0  0  0  0
    1.8319   18.7081   41.8251 C   0  0  0  0  0  0  0  0  0  0  0  0
    0.3508   16.7472   42.4769 C   0  0  0  0  0  0  0  0  0  0  0  0
    0.2245   14.5970   41.7446 C   0  0  0  0  0  0  0  0  0  0  0  0
    0.6763   13.4176   41.0055 C   0  0  0  0  0  0  0  0  0  0  0  0
   -0.0943   12.2488   40.9280 C   0  0  0  0  0  0  0  0  0  0  0  0
    0.3391   11.1506   40.1917 C   0  0  0  0  0  0  0  0  0  0  0  0
    1.5298   11.2464   39.4965 C   0  0  0  0  0  0  0  0  0  0  0  0
    2.3202   12.3850   39.5407 C   0  0  0  0  0  0  0  0  0  0  0  0
    1.8748   13.4690   40.2922 C   0  0  0  0  0  0  0  0  0  0  0  0
   -0.9592   14.6636   42.4308 C   0  0  0  0  0  0  0  0  0  0  0  0
    2.6908   17.9941   40.9774 C   0  0  0  0  0  0  0  0  0  0  0  0
    3.5690   18.6810   40.1371 C   0  0  0  0  0  0  0  0  0  0  0  0
    0.8334   18.0200   42.5807 N   0  0  0  0  0  0  0  0  0  0  0  0
    0.9576   15.8051   41.6736 N   0  0  0  0  0  0  0  0  0  0  0  0
    4.2721   22.0583   38.9431 O   0  0  0  0  0  0  0  0  0  0  0  0
    5.3176   20.1414   38.4155 O   0  0  0  0  0  0  0  0  0  0  0  0
    4.3308   17.9746   39.2368 O   0  0  0  0  0  0  0  0  0  0  0  0
   -1.2454   16.2595   43.0130 S   0  0  0  0  0  0  0  0  0  0  0  0
    2.0622    9.9018   38.5424 Cl  0  0  0  0  0  0  0  0  0  0  0  0
    2.8239   21.8598   40.9676 H   0  0  0  0  0  0  0  0  0  0  0  0
    1.0585   20.6890   42.2659 H   0  0  0  0  0  0  0  0  0  0  0  0
   -1.0570   12.1992   41.4579 H   0  0  0  0  0  0  0  0  0  0  0  0
   -0.2541   10.2247   40.1635 H   0  0  0  0  0  0  0  0  0  0  0  0
    3.2747   12.4305   38.9959 H   0  0  0  0  0  0  0  0  0  0  0  0
    2.4810   14.3864   40.3244 H   0  0  0  0  0  0  0  0  0  0  0  0
   -1.6367   13.8116   42.5890 H   0  0  0  0  0  0  0  0  0  0  0  0
    2.6727   16.8943   40.9744 H   0  0  0  0  0  0  0  0  0  0  0  0
    0.4045   18.5797   43.3315 H   0  0  0  0  0  0  0  0  0  0  0  0
  1  2  1  0
  1 19  1  0
  1 20  2  0
  2  3  1  0
  2 16  2  0
  3  4  2  0
  4  5  1  0
  5 15  2  0
  5 17  1  0
  6 17  1  0
  6 18  2  0
  6 22  1  0
  7  8  1  0
  7 14  2  0
  7 18  1  0
  8  9  1  0
  8 13  2  0
  9 10  2  0
 10 11  1  0
 11 12  2  0
 11 23  1  0
 12 13  1  0
 14 22  1  0
 15 16  1  0
 16 21  1  0
  3 24  1  0
  4 25  1  0
  9 26  1  0
 10 27  1  0
 12 28  1  0
 13 29  1  0
 14 30  1  0
 15 31  1  0
 17 32  1  0
M  CHG  2  19  -1  21  -1
M  END
>  <mol_id>  (35) 
2026-08-23-6tgu-s0-n100-r1-0035

>  <rmsd_to_ref>  (35) 
2.0153061224505744

$$$$
6tgu.A
     RDKit          3D

 32 34  0  0  0  0  0  0  0  0999 V2000
    4.4203   18.9187   36.2297 C   0  0  0  0  0  0  0  0  0  0  0  0
    3.6984   18.9032   37.4957 C   0  0  0  0  0  0  0  0  0  0  0  0
    3.6442   19.9956   38.3222 C   0  0  0  0  0  0  0  0  0  0  0  0
    2.9777   19.9620   39.5132 C   0  0  0  0  0  0  0  0  0  0  0  0
    2.3162   18.8327   39.9630 C   0  0  0  0  0  0  0  0  0  0  0  0
    0.6881   17.9247   41.6437 C   0  0  0  0  0  0  0  0  0  0  0  0
   -0.5821   16.2088   42.3786 C   0  0  0  0  0  0  0  0  0  0  0  0
   -0.6750   14.8051   42.8439 C   0  0  0  0  0  0  0  0  0  0  0  0
    0.4424   14.0063   42.9662 C   0  0  0  0  0  0  0  0  0  0  0  0
    0.3578   12.6818   43.3893 C   0  0  0  0  0  0  0  0  0  0  0  0
   -0.8858   12.1673   43.6916 C   0  0  0  0  0  0  0  0  0  0  0  0
   -2.0364   12.9349   43.5837 C   0  0  0  0  0  0  0  0  0  0  0  0
   -1.8914   14.2479   43.1576 C   0  0  0  0  0  0  0  0  0  0  0  0
   -1.7060   16.9859   42.2323 C   0  0  0  0  0  0  0  0  0  0  0  0
    2.3605   17.7292   39.1457 C   0  0  0  0  0  0  0  0  0  0  0  0
    3.0429   17.7566   37.9248 C   0  0  0  0  0  0  0  0  0  0  0  0
    1.6670   18.8660   41.2208 N   0  0  0  0  0  0  0  0  0  0  0  0
    0.5400   16.7853   42.0560 N   0  0  0  0  0  0  0  0  0  0  0  0
    5.0236   20.1490   35.8902 O   0  0  0  0  0  0  0  0  0  0  0  0
    4.5202   17.9247   35.4715 O   0  0  0  0  0  0  0  0  0  0  0  0
    3.0513   16.5923   37.1345 O   0  0  0  0  0  0  0  0  0  0  0  0
   -1.0191   18.6041   41.5943 S   0  0  0  0  0  0  0  0  0  0  0  0
   -1.0328   10.5051   44.2189 Cl  0  0  0  0  0  0  0  0  0  0  0  0
    4.1486   20.8914   37.9984 H   0  0  0  0  0  0  0  0  0  0  0  0
    2.9593   20.8617   40.1478 H   0  0  0  0  0  0  0  0  0  0  0  0
    1.4301   14.3977   42.7299 H   0  0  0  0  0  0  0  0  0  0  0  0
    1.2726   12.0983   43.4653 H   0  0  0  0  0  0  0  0  0  0  0  0
   -3.0147   12.5634   43.8080 H   0  0  0  0  0  0  0  0  0  0  0  0
   -2.8069   14.8342   43.0834 H   0  0  0  0  0  0  0  0  0  0  0  0
   -2.7675   16.8452   42.3992 H   0  0  0  0  0  0  0  0  0  0  0  0
    1.8430   16.8460   39.4888 H   0  0  0  0  0  0  0  0  0  0  0  0
    1.9087   19.6304   41.9044 H   0  0  0  0  0  0  0  0  0  0  0  0
  1  2  1  0
  1 19  1  0
  1 20  2  0
  2  3  1  0
  2 16  2  0
  3  4  2  0
  4  5  1  0
  5 15  2  0
  5 17  1  0
  6 17  1  0
  6 18  2  0
  6 22  1  0
  7  8  1  0
  7 14  2  0
  7 18  1  0
  8  9  1  0
  8 13  2  0
  9 10  2  0
 10 11  1  0
 11 12  2  0
 11 23  1  0
 12 13  1  0
 14 22  1  0
 15 16  1  0
 16 21  1  0
  3 24  1  0
  4 25  1  0
  9 26  1  0
 10 27  1  0
 12 28  1  0
 13 29  1  0
 14 30  1  0
 15 31  1  0
 17 32  1  0
M  CHG  2  19  -1  21  -1
M  END
>  <mol_id>  (36) 
2026-08-23-6tgu-s0-n100-r1-0036

>  <rmsd_to_ref>  (36) 
2.0612244897964165

$$$$
6tgu.A
     RDKit          3D

 32 34  0  0  0  0  0  0  0  0999 V2000
    1.4529   20.7538   36.7461 C   0  0  0  0  0  0  0  0  0  0  0  0
    0.8743   20.0631   37.9841 C   0  0  0  0  0  0  0  0  0  0  0  0
   -0.4318   20.3228   38.3933 C   0  0  0  0  0  0  0  0  0  0  0  0
   -1.0568   19.5766   39.3978 C   0  0  0  0  0  0  0  0  0  0  0  0
   -0.3191   18.6504   40.1492 C   0  0  0  0  0  0  0  0  0  0  0  0
   -0.6182   16.6133   41.6407 C   0  0  0  0  0  0  0  0  0  0  0  0
    0.6603   14.7679   42.0090 C   0  0  0  0  0  0  0  0  0  0  0  0
    1.8714   13.9520   41.9164 C   0  0  0  0  0  0  0  0  0  0  0  0
    1.9189   12.6350   42.3952 C   0  0  0  0  0  0  0  0  0  0  0  0
    3.0709   11.8654   42.2667 C   0  0  0  0  0  0  0  0  0  0  0  0
    4.1622   12.4087   41.6153 C   0  0  0  0  0  0  0  0  0  0  0  0
    4.1565   13.7045   41.1216 C   0  0  0  0  0  0  0  0  0  0  0  0
    2.9983   14.4625   41.2701 C   0  0  0  0  0  0  0  0  0  0  0  0
   -0.5106   14.3387   42.5758 C   0  0  0  0  0  0  0  0  0  0  0  0
    0.9933   18.3692   39.7436 C   0  0  0  0  0  0  0  0  0  0  0  0
    1.5615   19.0783   38.6837 C   0  0  0  0  0  0  0  0  0  0  0  0
   -0.9566   17.8351   41.1343 N   0  0  0  0  0  0  0  0  0  0  0  0
    0.6057   16.0344   41.3805 N   0  0  0  0  0  0  0  0  0  0  0  0
    0.6413   21.4230   36.0413 O   0  0  0  0  0  0  0  0  0  0  0  0
    2.6568   20.5369   36.4866 O   0  0  0  0  0  0  0  0  0  0  0  0
    2.8087   18.7232   38.2276 O   0  0  0  0  0  0  0  0  0  0  0  0
   -1.7704   15.4888   42.3344 S   0  0  0  0  0  0  0  0  0  0  0  0
    5.5895   11.4480   41.4116 Cl  0  0  0  0  0  0  0  0  0  0  0  0
   -0.9887   21.1399   37.9116 H   0  0  0  0  0  0  0  0  0  0  0  0
   -2.1292   19.7165   39.5987 H   0  0  0  0  0  0  0  0  0  0  0  0
    1.0310   12.2033   42.8803 H   0  0  0  0  0  0  0  0  0  0  0  0
    3.1123   10.8449   42.6753 H   0  0  0  0  0  0  0  0  0  0  0  0
    5.0445   14.1229   40.6253 H   0  0  0  0  0  0  0  0  0  0  0  0
    2.9705   15.4865   40.8691 H   0  0  0  0  0  0  0  0  0  0  0  0
   -0.6305   13.3866   43.1134 H   0  0  0  0  0  0  0  0  0  0  0  0
    1.5745   17.5909   40.2598 H   0  0  0  0  0  0  0  0  0  0  0  0
   -1.8181   18.2379   41.5298 H   0  0  0  0  0  0  0  0  0  0  0  0
  1  2  1  0
  1 19  1  0
  1 20  2  0
  2  3  1  0
  2 16  2  0
  3  4  2  0
  4  5  1  0
  5 15  2  0
  5 17  1  0
  6 17  1  0
  6 18  2  0
  6 22  1  0
  7  8  1  0
  7 14  2  0
  7 18  1  0
  8  9  1  0
  8 13  2  0
  9 10  2  0
 10 11  1  0
 11 12  2  0
 11 23  1  0
 12 13  1  0
 14 22  1  0
 15 16  1  0
 16 21  1  0
  3 24  1  0
  4 25  1  0
  9 26  1  0
 10 27  1  0
 12 28  1  0
 13 29  1  0
 14 30  1  0
 15 31  1  0
 17 32  1  0
M  CHG  2  19  -1  21  -1
M  END
>  <mol_id>  (37) 
2026-08-23-6tgu-s0-n100-r1-0037

>  <rmsd_to_ref>  (37) 
2.107142857144925

$$$$
6tgu.A
     RDKit          3D

 32 34  0  0  0  0  0  0  0  0999 V2000
    2.8986   19.9566   36.0921 C   0  0  0  0  0  0  0  0  0  0  0  0
    2.7452   19.6557   37.5305 C   0  0  0  0  0  0  0  0  0  0  0  0
    1.5622   20.0037   38.1716 C   0  0  0  0  0  0  0  0  0  0  0  0
    1.3891   19.7148   39.5308 C   0  0  0  0  0  0  0  0  0  0  0  0
    2.3681   19.0892   40.2558 C   0  0  0  0  0  0  0  0  0  0  0  0
    1.2264   17.8124   41.9787 C   0  0  0  0  0  0  0  0  0  0  0  0
   -0.0087   16.1470   42.8607 C   0  0  0  0  0  0  0  0  0  0  0  0
   -0.1193   14.9264   43.6462 C   0  0  0  0  0  0  0  0  0  0  0  0
    1.0195   14.3940   44.2180 C   0  0  0  0  0  0  0  0  0  0  0  0
    0.8730   13.2348   44.9354 C   0  0  0  0  0  0  0  0  0  0  0  0
   -0.3030   12.5628   45.1310 C   0  0  0  0  0  0  0  0  0  0  0  0
   -1.4520   13.1041   44.5533 C   0  0  0  0  0  0  0  0  0  0  0  0
   -1.3326   14.2817   43.8177 C   0  0  0  0  0  0  0  0  0  0  0  0
   -1.1983   16.6660   42.2048 C   0  0  0  0  0  0  0  0  0  0  0  0
    3.5337   18.7573   39.5923 C   0  0  0  0  0  0  0  0  0  0  0  0
    3.7423   19.0258   38.2516 C   0  0  0  0  0  0  0  0  0  0  0  0
    2.2783   18.7061   41.6135 N   0  0  0  0  0  0  0  0  0  0  0  0
    1.0095   16.8880   42.5817 N   0  0  0  0  0  0  0  0  0  0  0  0
    4.0764   19.5959   35.4533 O   0  0  0  0  0  0  0  0  0  0  0  0
    1.9439   20.5400   35.4811 O   0  0  0  0  0  0  0  0  0  0  0  0
    4.9090   18.6907   37.5953 O   0  0  0  0  0  0  0  0  0  0  0  0
   -0.5358   18.1610   41.3035 S   0  0  0  0  0  0  0  0  0  0  0  0
   -0.4381   11.0850   46.0591 Cl  0  0  0  0  0  0  0  0  0  0  0  0
    0.7677   20.5029   37.6000 H   0  0  0  0  0  0  0  0  0  0  0  0
    0.4676   20.0177   39.9909 H   0  0  0  0  0  0  0  0  0  0  0  0
    1.9933   14.8729   44.1074 H   0  0  0  0  0  0  0  0  0  0  0  0
    1.7777   12.8136   45.3946 H   0  0  0  0  0  0  0  0  0  0  0  0
   -2.4294   12.6216   44.6695 H   0  0  0  0  0  0  0  0  0  0  0  0
   -2.2535   14.6749   43.3807 H   0  0  0  0  0  0  0  0  0  0  0  0
   -2.1645   16.3381   42.1980 H   0  0  0  0  0  0  0  0  0  0  0  0
    4.3490   18.2564   40.1040 H   0  0  0  0  0  0  0  0  0  0  0  0
    2.9399   19.0476   42.3438 H   0  0  0  0  0  0  0  0  0  0  0  0
  1  2  1  0
  1 19  1  0
  1 20  2  0
  2  3  1  0
  2 16  2  0
  3  4  2  0
  4  5  1  0
  5 15  2  0
  5 17  1  0
  6 17  1  0
  6 18  2  0
  6 22  1  0
  7  8  1  0
  7 14  2  0
  7 18  1  0
  8  9  1  0
  8 13  2  0
  9 10  2  0
 10 11  1  0
 11 12  2  0
 11 23  1  0
 12 13  1  0
 14 22  1  0
 15 16  1  0
 16 21  1  0
  3 24  1  0
  4 25  1  0
  9 26  1  0
 10 27  1  0
 12 28  1  0
 13 29  1  0
 14 30  1  0
 15 31  1  0
 17 32  1  0
M  CHG  2  19  -1  21  -1
M  END
>  <mol_id>  (38) 
2026-08-23-6tgu-s0-n100-r1-0038

>  <rmsd_to_ref>  (38) 
2.153061224496734

$$$$
6tgu.A
     RDKit          3D

 32 34  0  0  0  0  0  0  0  0999 V2000
    5.5497   19.3030   39.3611 C   0  0  0  0  0  0  0  0  0  0  0  0
    4.1248   19.0428   39.8576 C   0  0  0  0  0  0  0  0  0  0  0  0
    3.0740   19.8632   39.4530 C   0  0  0  0  0  0  0  0  0  0  0  0
    1.7391   19.5493   39.7287 C   0  0  0  0  0  0  0  0  0  0  0  0
    1.4288   18.4788   40.5798 C   0  0  0  0  0  0  0  0  0  0  0  0
   -0.4781   16.9108   41.1869 C   0  0  0  0  0  0  0  0  0  0  0  0
   -0.5350   14.7463   41.8852 C   0  0  0  0  0  0  0  0  0  0  0  0
    0.0416   13.4945   42.3767 C   0  0  0  0  0  0  0  0  0  0  0  0
   -0.7274   12.3323   42.5317 C   0  0  0  0  0  0  0  0  0  0  0  0
   -0.1517   11.1434   42.9687 C   0  0  0  0  0  0  0  0  0  0  0  0
    1.2094   11.1142   43.2076 C   0  0  0  0  0  0  0  0  0  0  0  0
    2.0081   12.2383   43.0617 C   0  0  0  0  0  0  0  0  0  0  0  0
    1.4114   13.4213   42.6345 C   0  0  0  0  0  0  0  0  0  0  0  0
   -1.8550   14.9036   41.5544 C   0  0  0  0  0  0  0  0  0  0  0  0
    2.4735   17.6367   40.9869 C   0  0  0  0  0  0  0  0  0  0  0  0
    3.7890   17.9354   40.6272 C   0  0  0  0  0  0  0  0  0  0  0  0
    0.0707   18.1058   40.8200 N   0  0  0  0  0  0  0  0  0  0  0  0
    0.3016   15.8511   41.5993 N   0  0  0  0  0  0  0  0  0  0  0  0
    5.6813   20.1768   38.4543 O   0  0  0  0  0  0  0  0  0  0  0  0
    6.4546   18.5787   39.8304 O   0  0  0  0  0  0  0  0  0  0  0  0
    4.7912   17.0488   40.9422 O   0  0  0  0  0  0  0  0  0  0  0  0
   -2.1311   16.4446   40.8355 S   0  0  0  0  0  0  0  0  0  0  0  0
    1.9472    9.6303   43.7129 Cl  0  0  0  0  0  0  0  0  0  0  0  0
    3.3011   20.7863   38.8997 H   0  0  0  0  0  0  0  0  0  0  0  0
    0.9310   20.1433   39.2769 H   0  0  0  0  0  0  0  0  0  0  0  0
   -1.8032   12.3610   42.3041 H   0  0  0  0  0  0  0  0  0  0  0  0
   -0.7674   10.2447   43.1210 H   0  0  0  0  0  0  0  0  0  0  0  0
    3.0858   12.1964   43.2781 H   0  0  0  0  0  0  0  0  0  0  0  0
    2.0332   14.3182   42.4969 H   0  0  0  0  0  0  0  0  0  0  0  0
   -2.6347   14.1467   41.7250 H   0  0  0  0  0  0  0  0  0  0  0  0
    2.2569   16.7419   41.5889 H   0  0  0  0  0  0  0  0  0  0  0  0
   -0.6103   18.8683   40.6950 H   0  0  0  0  0  0  0  0  0  0  0  0
  1  2  1  0
  1 19  1  0
  1 20  2  0
  2  3  1  0
  2 16  2  0
  3  4  2  0
  4  5  1  0
  5 15  2  0
  5 17  1  0
  6 17  1  0
  6 18  2  0
  6 22  1  0
  7  8  1  0
  7 14  2  0
  7 18  1  0
  8  9  1  0
  8 13  2  0
  9 10  2  0
 10 11  1  0
 11 12  2  0
 11 23  1  0
 12 13  1  0
 14 22  1  0
 15 16  1  0
 16 21  1  0
  3 24  1  0
  4 25  1  0
  9 26  1  0
 10 27  1  0
 12 28  1  0
 13 29  1  0
 14 30  1  0
 15 31  1  0
 17 32  1  0
M  CHG  2  19  -1  21  -1
M  END
>  <mol_id>  (39) 
2026-08-23-6tgu-s0-n100-r1-0039

>  <rmsd_to_ref>  (39) 
2.1989795918386745

$$$$
6tgu.A
     RDKit          3D

 32 34  0  0  0  0  0  0  0  0999 V2000
    2.9666   22.1474   37.1984 C   0  0  0  0  0  0  0  0  0  0  0  0
    2.8394   20.9492   38.0183 C   0  0  0  0  0  0  0  0  0  0  0  0
    1.7361   20.7293   38.8107 C   0  0  0  0  0  0  0  0  0  0  0  0
    1.6450   19.5771   39.5832 C   0  0  0  0  0  0  0  0  0  0  0  0
    2.6154   18.6140   39.6071 C   0  0  0  0  0  0  0  0  0  0  0  0
    1.5415   16.7357   40.8856 C   0  0  0  0  0  0  0  0  0  0  0  0
    0.2714   15.2102   41.9856 C   0  0  0  0  0  0  0  0  0  0  0  0
    0.1995   13.9657   42.7881 C   0  0  0  0  0  0  0  0  0  0  0  0
    1.3317   13.2581   43.1282 C   0  0  0  0  0  0  0  0  0  0  0  0
    1.3145   12.0974   43.8695 C   0  0  0  0  0  0  0  0  0  0  0  0
    0.0846   11.6308   44.2871 C   0  0  0  0  0  0  0  0  0  0  0  0
   -1.0752   12.3388   43.9495 C   0  0  0  0  0  0  0  0  0  0  0  0
   -1.0249   13.5002   43.2044 C   0  0  0  0  0  0  0  0  0  0  0  0
   -0.8621   15.9407   41.6332 C   0  0  0  0  0  0  0  0  0  0  0  0
    3.7274   18.8716   38.7863 C   0  0  0  0  0  0  0  0  0  0  0  0
    3.8254   19.9977   38.0258 C   0  0  0  0  0  0  0  0  0  0  0  0
    2.6142   17.4247   40.3230 N   0  0  0  0  0  0  0  0  0  0  0  0
    1.3877   15.7145   41.5521 N   0  0  0  0  0  0  0  0  0  0  0  0
    1.9751   23.1189   37.1785 O   0  0  0  0  0  0  0  0  0  0  0  0
    4.0239   22.2760   36.4955 O   0  0  0  0  0  0  0  0  0  0  0  0
    4.9437   20.2086   37.2310 O   0  0  0  0  0  0  0  0  0  0  0  0
   -0.2453   17.3124   40.6964 S   0  0  0  0  0  0  0  0  0  0  0  0
   -0.0353   10.1447   45.2433 Cl  0  0  0  0  0  0  0  0  0  0  0  0
    0.9650   21.4874   38.7961 H   0  0  0  0  0  0  0  0  0  0  0  0
    0.7624   19.4783   40.1816 H   0  0  0  0  0  0  0  0  0  0  0  0
    2.2793   13.6272   42.8001 H   0  0  0  0  0  0  0  0  0  0  0  0
    2.2112   11.5450   44.1333 H   0  0  0  0  0  0  0  0  0  0  0  0
   -2.0521   11.9699   44.2810 H   0  0  0  0  0  0  0  0  0  0  0  0
   -1.9586   13.9962   42.9792 H   0  0  0  0  0  0  0  0  0  0  0  0
   -1.9737   15.7162   41.8883 H   0  0  0  0  0  0  0  0  0  0  0  0
    4.5575   18.1645   38.7347 H   0  0  0  0  0  0  0  0  0  0  0  0
    3.5693   16.9567   40.4799 H   0  0  0  0  0  0  0  0  0  0  0  0
  1  2  1  0
  1 19  1  0
  1 20  2  0
  2  3  1  0
  2 16  2  0
  3  4  2  0
  4  5  1  0
  5 15  2  0
  5 17  1  0
  6 17  1  0
  6 18  2  0
  6 22  1  0
  7  8  1  0
  7 14  2  0
  7 18  1  0
  8  9  1  0
  8 13  2  0
  9 10  2  0
 10 11  1  0
 11 12  2  0
 11 23  1  0
 12 13  1  0
 14 22  1  0
 15 16  1  0
 16 21  1  0
  3 24  1  0
  4 25  1  0
  9 26  1  0
 10 27  1  0
 12 28  1  0
 13 29  1  0
 14 30  1  0
 15 31  1  0
 17 32  1  0
M  CHG  2  19  -1  21  -1
M  END
>  <mol_id>  (40) 
2026-08-23-6tgu-s0-n100-r1-0040

>  <rmsd_to_ref>  (40) 
2.244897959185017

$$$$
6tgu.A
     RDKit          3D

 32 34  0  0  0  0  0  0  0  0999 V2000
    5.5839   20.1304   39.2040 C   0  0  0  0  0  0  0  0  0  0  0  0
    4.6798   19.5821   40.3116 C   0  0  0  0  0  0  0  0  0  0  0  0
    4.1698   20.4296   41.2926 C   0  0  0  0  0  0  0  0  0  0  0  0
    3.1954   20.0084   42.2034 C   0  0  0  0  0  0  0  0  0  0  0  0
    2.8277   18.6565   42.2663 C   0  0  0  0  0  0  0  0  0  0  0  0
    0.9559   17.1421   43.0824 C   0  0  0  0  0  0  0  0  0  0  0  0
    0.1251   15.1660   42.3206 C   0  0  0  0  0  0  0  0  0  0  0  0
    0.1174   13.9610   41.4904 C   0  0  0  0  0  0  0  0  0  0  0  0
   -0.9561   13.0591   41.4994 C   0  0  0  0  0  0  0  0  0  0  0  0
   -0.9579   11.9368   40.6768 C   0  0  0  0  0  0  0  0  0  0  0  0
    0.1033   11.7468   39.8120 C   0  0  0  0  0  0  0  0  0  0  0  0
    1.1825   12.6166   39.7663 C   0  0  0  0  0  0  0  0  0  0  0  0
    1.1710   13.7275   40.6052 C   0  0  0  0  0  0  0  0  0  0  0  0
   -0.8847   15.5104   43.1798 C   0  0  0  0  0  0  0  0  0  0  0  0
    3.3234   17.7926   41.2794 C   0  0  0  0  0  0  0  0  0  0  0  0
    4.2358   18.2654   40.3344 C   0  0  0  0  0  0  0  0  0  0  0  0
    1.7892   18.2216   43.1458 N   0  0  0  0  0  0  0  0  0  0  0  0
    1.1537   16.1261   42.1716 N   0  0  0  0  0  0  0  0  0  0  0  0
    5.6963   21.3898   39.1382 O   0  0  0  0  0  0  0  0  0  0  0  0
    6.0719   19.2993   38.4072 O   0  0  0  0  0  0  0  0  0  0  0  0
    4.6341   17.4391   39.3105 O   0  0  0  0  0  0  0  0  0  0  0  0
   -0.6233   17.0795   43.8410 S   0  0  0  0  0  0  0  0  0  0  0  0
    0.0956   10.3759   38.7527 Cl  0  0  0  0  0  0  0  0  0  0  0  0
    4.5449   21.4619   41.3527 H   0  0  0  0  0  0  0  0  0  0  0  0
    2.7165   20.7391   42.8718 H   0  0  0  0  0  0  0  0  0  0  0  0
   -1.8107   13.2416   42.1675 H   0  0  0  0  0  0  0  0  0  0  0  0
   -1.7874   11.2153   40.7141 H   0  0  0  0  0  0  0  0  0  0  0  0
    2.0261   12.4334   39.0846 H   0  0  0  0  0  0  0  0  0  0  0  0
    2.0109   14.4370   40.5697 H   0  0  0  0  0  0  0  0  0  0  0  0
   -1.7475   14.8702   43.4161 H   0  0  0  0  0  0  0  0  0  0  0  0
    2.9938   16.7435   41.2498 H   0  0  0  0  0  0  0  0  0  0  0  0
    1.6445   18.8254   43.9676 H   0  0  0  0  0  0  0  0  0  0  0  0
  1  2  1  0
  1 19  1  0
  1 20  2  0
  2  3  1  0
  2 16  2  0
  3  4  2  0
  4  5  1  0
  5 15  2  0
  5 17  1  0
  6 17  1  0
  6 18  2  0
  6 22  1  0
  7  8  1  0
  7 14  2  0
  7 18  1  0
  8  9  1  0
  8 13  2  0
  9 10  2  0
 10 11  1  0
 11 12  2  0
 11 23  1  0
 12 13  1  0
 14 22  1  0
 15 16  1  0
 16 21  1  0
  3 24  1  0
  4 25  1  0
  9 26  1  0
 10 27  1  0
 12 28  1  0
 13 29  1  0
 14 30  1  0
 15 31  1  0
 17 32  1  0
M  CHG  2  19  -1  21  -1
M  END
>  <mol_id>  (41) 
2026-08-23-6tgu-s0-n100-r1-0041

>  <rmsd_to_ref>  (41) 
2.2908163265356225

$$$$
6tgu.A
     RDKit          3D

 32 34  0  0  0  0  0  0  0  0999 V2000
    4.1449   20.3420   36.4156 C   0  0  0  0  0  0  0  0  0  0  0  0
    3.8802   19.6694   37.7132 C   0  0  0  0  0  0  0  0  0  0  0  0
    2.7625   18.8773   37.8870 C   0  0  0  0  0  0  0  0  0  0  0  0
    2.5633   18.2855   39.1137 C   0  0  0  0  0  0  0  0  0  0  0  0
    3.4271   18.4458   40.1766 C   0  0  0  0  0  0  0  0  0  0  0  0
    2.0065   17.1161   41.7210 C   0  0  0  0  0  0  0  0  0  0  0  0
    0.2787   15.7543   42.1768 C   0  0  0  0  0  0  0  0  0  0  0  0
   -0.1862   14.3941   42.5264 C   0  0  0  0  0  0  0  0  0  0  0  0
    0.7017   13.3415   42.6744 C   0  0  0  0  0  0  0  0  0  0  0  0
    0.3274   12.0650   43.0155 C   0  0  0  0  0  0  0  0  0  0  0  0
   -1.0323   11.8397   43.2200 C   0  0  0  0  0  0  0  0  0  0  0  0
   -1.9038   12.8846   43.0718 C   0  0  0  0  0  0  0  0  0  0  0  0
   -1.5300   14.1565   42.7317 C   0  0  0  0  0  0  0  0  0  0  0  0
   -0.6088   16.8009   42.0622 C   0  0  0  0  0  0  0  0  0  0  0  0
    4.5285   19.2335   39.9823 C   0  0  0  0  0  0  0  0  0  0  0  0
    4.7649   19.8492   38.7576 C   0  0  0  0  0  0  0  0  0  0  0  0
    3.2037   17.8515   41.4405 N   0  0  0  0  0  0  0  0  0  0  0  0
    1.5337   16.0679   41.9806 N   0  0  0  0  0  0  0  0  0  0  0  0
    3.2752   20.1838   35.3525 O   0  0  0  0  0  0  0  0  0  0  0  0
    5.1897   21.0367   36.3887 O   0  0  0  0  0  0  0  0  0  0  0  0
    5.9095   20.6396   38.6308 O   0  0  0  0  0  0  0  0  0  0  0  0
    0.4601   18.2253   41.6656 S   0  0  0  0  0  0  0  0  0  0  0  0
   -1.5480   10.2177   43.6685 Cl  0  0  0  0  0  0  0  0  0  0  0  0
    2.0866   18.7514   37.0480 H   0  0  0  0  0  0  0  0  0  0  0  0
    1.6688   17.6627   39.2186 H   0  0  0  0  0  0  0  0  0  0  0  0
    1.7493   13.5707   42.5018 H   0  0  0  0  0  0  0  0  0  0  0  0
    1.0650   11.2799   43.1220 H   0  0  0  0  0  0  0  0  0  0  0  0
   -2.9656   12.6774   43.2424 H   0  0  0  0  0  0  0  0  0  0  0  0
   -2.2895   14.9448   42.6300 H   0  0  0  0  0  0  0  0  0  0  0  0
   -1.6582   16.8417   42.1642 H   0  0  0  0  0  0  0  0  0  0  0  0
    5.2491   19.3988   40.7866 H   0  0  0  0  0  0  0  0  0  0  0  0
    3.9213   17.9436   42.1912 H   0  0  0  0  0  0  0  0  0  0  0  0
  1  2  1  0
  1 19  1  0
  1 20  2  0
  2  3  1  0
  2 16  2  0
  3  4  2  0
  4  5  1  0
  5 15  2  0
  5 17  1  0
  6 17  1  0
  6 18  2  0
  6 22  1  0
  7  8  1  0
  7 14  2  0
  7 18  1  0
  8  9  1  0
  8 13  2  0
  9 10  2  0
 10 11  1  0
 11 12  2  0
 11 23  1  0
 12 13  1  0
 14 22  1  0
 15 16  1  0
 16 21  1  0
  3 24  1  0
  4 25  1  0
  9 26  1  0
 10 27  1  0
 12 28  1  0
 13 29  1  0
 14 30  1  0
 15 31  1  0
 17 32  1  0
M  CHG  2  19  -1  21  -1
M  END
>  <mol_id>  (42) 
2026-08-23-6tgu-s0-n100-r1-0042

>  <rmsd_to_ref>  (42) 
2.3367346938786295

$$$$
6tgu.A
     RDKit          3D

 32 34  0  0  0  0  0  0  0  0999 V2000
    0.4929   20.8773   36.0823 C   0  0  0  0  0  0  0  0  0  0  0  0
    1.2226   20.3169   37.3062 C   0  0  0  0  0  0  0  0  0  0  0  0
    1.8916   21.1687   38.1823 C   0  0  0  0  0  0  0  0  0  0  0  0
    2.4050   20.7221   39.4043 C   0  0  0  0  0  0  0  0  0  0  0  0
    2.4136   19.3526   39.7061 C   0  0  0  0  0  0  0  0  0  0  0  0
    2.5782   17.7525   41.6748 C   0  0  0  0  0  0  0  0  0  0  0  0
    1.6909   15.6956   42.0716 C   0  0  0  0  0  0  0  0  0  0  0  0
    0.9941   14.4593   41.7151 C   0  0  0  0  0  0  0  0  0  0  0  0
    0.6647   13.4892   42.6725 C   0  0  0  0  0  0  0  0  0  0  0  0
   -0.0281   12.3360   42.3172 C   0  0  0  0  0  0  0  0  0  0  0  0
   -0.4282   12.1810   41.0033 C   0  0  0  0  0  0  0  0  0  0  0  0
   -0.1288   13.1178   40.0257 C   0  0  0  0  0  0  0  0  0  0  0  0
    0.5751   14.2595   40.3988 C   0  0  0  0  0  0  0  0  0  0  0  0
    2.0950   16.0077   43.3427 C   0  0  0  0  0  0  0  0  0  0  0  0
    1.7349   18.4830   38.8404 C   0  0  0  0  0  0  0  0  0  0  0  0
    1.1638   18.9757   37.6656 C   0  0  0  0  0  0  0  0  0  0  0  0
    2.8752   18.8867   40.9754 N   0  0  0  0  0  0  0  0  0  0  0  0
    1.8702   16.7149   41.1067 N   0  0  0  0  0  0  0  0  0  0  0  0
    0.3934   22.1376   36.0119 O   0  0  0  0  0  0  0  0  0  0  0  0
   -0.0143   20.0480   35.2957 O   0  0  0  0  0  0  0  0  0  0  0  0
    0.4126   18.1357   36.8782 O   0  0  0  0  0  0  0  0  0  0  0  0
    2.7053   17.6169   43.4181 S   0  0  0  0  0  0  0  0  0  0  0  0
   -1.3272   10.7697   40.5543 Cl  0  0  0  0  0  0  0  0  0  0  0  0
    2.0201   22.2252   37.9044 H   0  0  0  0  0  0  0  0  0  0  0  0
    2.8028   21.4466   40.1302 H   0  0  0  0  0  0  0  0  0  0  0  0
    0.9587   13.6423   43.7213 H   0  0  0  0  0  0  0  0  0  0  0  0
   -0.2529   11.5632   43.0670 H   0  0  0  0  0  0  0  0  0  0  0  0
   -0.4395   12.9628   38.9819 H   0  0  0  0  0  0  0  0  0  0  0  0
    0.8061   15.0211   39.6394 H   0  0  0  0  0  0  0  0  0  0  0  0
    2.0374   15.3221   44.2010 H   0  0  0  0  0  0  0  0  0  0  0  0
    1.6526   17.4141   39.0866 H   0  0  0  0  0  0  0  0  0  0  0  0
    3.5463   19.5132   41.4423 H   0  0  0  0  0  0  0  0  0  0  0  0
  1  2  1  0
  1 19  1  0
  1 20  2  0
  2  3  1  0
  2 16  2  0
  3  4  2  0
  4  5  1  0
  5 15  2  0
  5 17  1  0
  6 17  1  0
  6 18  2  0
  6 22  1  0
  7  8  1  0
  7 14  2  0
  7 18  1  0
  8  9  1  0
  8 13  2  0
  9 10  2  0
 10 11  1  0
 11 12  2  0
 11 23  1  0
 12 13  1  0
 14 22  1  0
 15 16  1  0
 16 21  1  0
  3 24  1  0
  4 25  1  0
  9 26  1  0
 10 27  1  0
 12 28  1  0
 13 29  1  0
 14 30  1  0
 15 31  1  0
 17 32  1  0
M  CHG  2  19  -1  21  -1
M  END
>  <mol_id>  (43) 
2026-08-23-6tgu-s0-n100-r1-0043

>  <rmsd_to_ref>  (43) 
2.382653061226494

$$$$
6tgu.A
     RDKit          3D

 32 34  0  0  0  0  0  0  0  0999 V2000
    3.6134   21.5093   37.1671 C   0  0  0  0  0  0  0  0  0  0  0  0
    3.3351   20.4000   38.0703 C   0  0  0  0  0  0  0  0  0  0  0  0
    2.3614   20.4834   39.0391 C   0  0  0  0  0  0  0  0  0  0  0  0
    2.1210   19.4083   39.8870 C   0  0  0  0  0  0  0  0  0  0  0  0
    2.8140   18.2316   39.8179 C   0  0  0  0  0  0  0  0  0  0  0  0
    1.5420   16.7139   41.3652 C   0  0  0  0  0  0  0  0  0  0  0  0
    0.1393   15.5833   42.7454 C   0  0  0  0  0  0  0  0  0  0  0  0
   -0.1004   14.4147   43.6258 C   0  0  0  0  0  0  0  0  0  0  0  0
    0.8633   13.4508   43.8267 C   0  0  0  0  0  0  0  0  0  0  0  0
    0.6859   12.3481   44.6329 C   0  0  0  0  0  0  0  0  0  0  0  0
   -0.5325   12.2171   45.2676 C   0  0  0  0  0  0  0  0  0  0  0  0
   -1.5220   13.1884   45.0735 C   0  0  0  0  0  0  0  0  0  0  0  0
   -1.3136   14.2833   44.2584 C   0  0  0  0  0  0  0  0  0  0  0  0
   -0.8220   16.5693   42.5311 C   0  0  0  0  0  0  0  0  0  0  0  0
    3.8006   18.1819   38.8175 C   0  0  0  0  0  0  0  0  0  0  0  0
    4.0432   19.2302   37.9819 C   0  0  0  0  0  0  0  0  0  0  0  0
    2.6406   17.0967   40.5983 N   0  0  0  0  0  0  0  0  0  0  0  0
    1.2560   15.7791   42.1104 N   0  0  0  0  0  0  0  0  0  0  0  0
    2.9029   22.6996   37.2429 O   0  0  0  0  0  0  0  0  0  0  0  0
    4.5358   21.3511   36.2995 O   0  0  0  0  0  0  0  0  0  0  0  0
    5.0286   19.1342   37.0090 O   0  0  0  0  0  0  0  0  0  0  0  0
   -0.0534   17.7201   41.4244 S   0  0  0  0  0  0  0  0  0  0  0  0
   -0.8517   10.8303   46.3222 Cl  0  0  0  0  0  0  0  0  0  0  0  0
    1.8097   21.4115   39.0988 H   0  0  0  0  0  0  0  0  0  0  0  0
    1.3550   19.5488   40.6222 H   0  0  0  0  0  0  0  0  0  0  0  0
    1.8033   13.5609   43.3307 H   0  0  0  0  0  0  0  0  0  0  0  0
    1.4502   11.5924   44.7860 H   0  0  0  0  0  0  0  0  0  0  0  0
   -2.4894   13.0861   45.5775 H   0  0  0  0  0  0  0  0  0  0  0  0
   -2.1206   14.9947   44.1526 H   0  0  0  0  0  0  0  0  0  0  0  0
   -1.8953   16.6391   42.9719 H   0  0  0  0  0  0  0  0  0  0  0  0
    4.4100   17.2867   38.6801 H   0  0  0  0  0  0  0  0  0  0  0  0
    3.4634   16.4055   40.6317 H   0  0  0  0  0  0  0  0  0  0  0  0
  1  2  1  0
  1 19  1  0
  1 20  2  0
  2  3  1  0
  2 16  2  0
  3  4  2  0
  4  5  1  0
  5 15  2  0
  5 17  1  0
  6 17  1  0
  6 18  2  0
  6 22  1  0
  7  8  1  0
  7 14  2  0
  7 18  1  0
  8  9  1  0
  8 13  2  0
  9 10  2  0
 10 11  1  0
 11 12  2  0
 11 23  1  0
 12 13  1  0
 14 22  1  0
 15 16  1  0
 16 21  1  0
  3 24  1  0
  4 25  1  0
  9 26  1  0
 10 27  1  0
 12 28  1  0
 13 29  1  0
 14 30  1  0
 15 31  1  0
 17 32  1  0
M  CHG  2  19  -1  21  -1
M  END
>  <mol_id>  (44) 
2026-08-23-6tgu-s0-n100-r1-0044

>  <rmsd_to_ref>  (44) 
2.4285714285765834

$$$$
6tgu.A
     RDKit          3D

 32 34  0  0  0  0  0  0  0  0999 V2000
    4.1395   18.4961   36.3606 C   0  0  0  0  0  0  0  0  0  0  0  0
    3.0292   18.8538   37.3525 C   0  0  0  0  0  0  0  0  0  0  0  0
    1.9938   19.7072   36.9776 C   0  0  0  0  0  0  0  0  0  0  0  0
    0.8683   19.9068   37.7836 C   0  0  0  0  0  0  0  0  0  0  0  0
    0.8315   19.3829   39.0840 C   0  0  0  0  0  0  0  0  0  0  0  0
   -0.8012   18.7671   40.9329 C   0  0  0  0  0  0  0  0  0  0  0  0
   -0.7823   17.1523   42.5353 C   0  0  0  0  0  0  0  0  0  0  0  0
   -0.1836   16.0844   43.3367 C   0  0  0  0  0  0  0  0  0  0  0  0
   -0.9327   15.3354   44.2554 C   0  0  0  0  0  0  0  0  0  0  0  0
   -0.3510   14.3018   44.9828 C   0  0  0  0  0  0  0  0  0  0  0  0
    0.9765   13.9936   44.7519 C   0  0  0  0  0  0  0  0  0  0  0  0
    1.7523   14.7044   43.8487 C   0  0  0  0  0  0  0  0  0  0  0  0
    1.1550   15.7425   43.1389 C   0  0  0  0  0  0  0  0  0  0  0  0
   -2.0977   17.5259   42.6176 C   0  0  0  0  0  0  0  0  0  0  0  0
    1.8601   18.5130   39.4730 C   0  0  0  0  0  0  0  0  0  0  0  0
    2.9318   18.2726   38.6111 C   0  0  0  0  0  0  0  0  0  0  0  0
   -0.3358   19.5232   39.8958 N   0  0  0  0  0  0  0  0  0  0  0  0
   -0.0321   17.7813   41.5137 N   0  0  0  0  0  0  0  0  0  0  0  0
    3.9717   18.8748   35.1641 O   0  0  0  0  0  0  0  0  0  0  0  0
    5.0793   17.7925   36.7912 O   0  0  0  0  0  0  0  0  0  0  0  0
    3.8795   17.3395   38.9589 O   0  0  0  0  0  0  0  0  0  0  0  0
   -2.4894   18.6767   41.3969 S   0  0  0  0  0  0  0  0  0  0  0  0
    1.7034   12.6826   45.6204 Cl  0  0  0  0  0  0  0  0  0  0  0  0
    2.0637   20.2405   36.0181 H   0  0  0  0  0  0  0  0  0  0  0  0
    0.0102   20.4760   37.3968 H   0  0  0  0  0  0  0  0  0  0  0  0
   -1.9974   15.5688   44.4034 H   0  0  0  0  0  0  0  0  0  0  0  0
   -0.9358   13.7411   45.7268 H   0  0  0  0  0  0  0  0  0  0  0  0
    2.8128   14.4545   43.6970 H   0  0  0  0  0  0  0  0  0  0  0  0
    1.7513   16.3057   42.4059 H   0  0  0  0  0  0  0  0  0  0  0  0
   -2.8090   17.1422   43.3638 H   0  0  0  0  0  0  0  0  0  0  0  0
    1.8228   18.0207   40.4559 H   0  0  0  0  0  0  0  0  0  0  0  0
   -0.9267   20.3326   39.6582 H   0  0  0  0  0  0  0  0  0  0  0  0
  1  2  1  0
  1 19  1  0
  1 20  2  0
  2  3  1  0
  2 16  2  0
  3  4  2  0
  4  5  1  0
  5 15  2  0
  5 17  1  0
  6 17  1  0
  6 18  2  0
  6 22  1  0
  7  8  1  0
  7 14  2  0
  7 18  1  0
  8  9  1  0
  8 13  2  0
  9 10  2  0
 10 11  1  0
 11 12  2  0
 11 23  1  0
 12 13  1  0
 14 22  1  0
 15 16  1  0
 16 21  1  0
  3 24  1  0
  4 25  1  0
  9 26  1  0
 10 27  1  0
 12 28  1  0
 13 29  1  0
 14 30  1  0
 15 31  1  0
 17 32  1  0
M  CHG  2  19  -1  21  -1
M  END
>  <mol_id>  (45) 
2026-08-23-6tgu-s0-n100-r1-0045

>  <rmsd_to_ref>  (45) 
2.474489795924191

$$$$
6tgu.A
     RDKit          3D

 32 34  0  0  0  0  0  0  0  0999 V2000
    3.3027   22.8073   38.3486 C   0  0  0  0  0  0  0  0  0  0  0  0
    3.1421   21.4664   38.8955 C   0  0  0  0  0  0  0  0  0  0  0  0
    4.1882   20.8517   39.5839 C   0  0  0  0  0  0  0  0  0  0  0  0
    4.0339   19.5884   40.1001 C   0  0  0  0  0  0  0  0  0  0  0  0
    2.8553   18.8553   39.9743 C   0  0  0  0  0  0  0  0  0  0  0  0
    1.6993   16.8445   40.9306 C   0  0  0  0  0  0  0  0  0  0  0  0
    0.3715   15.1896   41.7265 C   0  0  0  0  0  0  0  0  0  0  0  0
    0.2382   13.8249   42.2654 C   0  0  0  0  0  0  0  0  0  0  0  0
   -0.9878   13.3258   42.6090 C   0  0  0  0  0  0  0  0  0  0  0  0
   -1.1547   12.0612   43.1155 C   0  0  0  0  0  0  0  0  0  0  0  0
   -0.0567   11.2292   43.2995 C   0  0  0  0  0  0  0  0  0  0  0  0
    1.1702   11.7378   42.9522 C   0  0  0  0  0  0  0  0  0  0  0  0
    1.3330   13.0077   42.4440 C   0  0  0  0  0  0  0  0  0  0  0  0
   -0.7707   16.0137   41.5558 C   0  0  0  0  0  0  0  0  0  0  0  0
    1.8355   19.4783   39.2916 C   0  0  0  0  0  0  0  0  0  0  0  0
    1.9747   20.7618   38.7608 C   0  0  0  0  0  0  0  0  0  0  0  0
    2.8186   17.5787   40.5301 N   0  0  0  0  0  0  0  0  0  0  0  0
    1.4892   15.7388   41.3775 N   0  0  0  0  0  0  0  0  0  0  0  0
    2.2268   23.3706   37.6745 O   0  0  0  0  0  0  0  0  0  0  0  0
    4.4008   23.4438   38.4860 O   0  0  0  0  0  0  0  0  0  0  0  0
    0.8925   21.3365   38.0763 O   0  0  0  0  0  0  0  0  0  0  0  0
   -0.0342   17.5571   40.8765 S   0  0  0  0  0  0  0  0  0  0  0  0
   -0.3173    9.6387   43.9434 Cl  0  0  0  0  0  0  0  0  0  0  0  0
    5.1179   21.4233   39.6869 H   0  0  0  0  0  0  0  0  0  0  0  0
    4.9036   19.1714   40.6291 H   0  0  0  0  0  0  0  0  0  0  0  0
   -1.8763   13.9278   42.4875 H   0  0  0  0  0  0  0  0  0  0  0  0
   -2.1621   11.7152   43.3734 H   0  0  0  0  0  0  0  0  0  0  0  0
    2.0265   11.0891   43.0960 H   0  0  0  0  0  0  0  0  0  0  0  0
    2.3222   13.3623   42.1847 H   0  0  0  0  0  0  0  0  0  0  0  0
   -1.7709   15.8545   41.7412 H   0  0  0  0  0  0  0  0  0  0  0  0
    0.8907   18.9971   39.1284 H   0  0  0  0  0  0  0  0  0  0  0  0
    3.7549   17.0875   40.6699 H   0  0  0  0  0  0  0  0  0  0  0  0
  1  2  1  0
  1 19  1  0
  1 20  2  0
  2  3  1  0
  2 16  2  0
  3  4  2  0
  4  5  1  0
  5 15  2  0
  5 17  1  0
  6 17  1  0
  6 18  2  0
  6 22  1  0
  7  8  1  0
  7 14  2  0
  7 18  1  0
  8  9  1  0
  8 13  2  0
  9 10  2  0
 10 11  1  0
 11 12  2  0
 11 23  1  0
 12 13  1  0
 14 22  1  0
 15 16  1  0
 16 21  1  0
  3 24  1  0
  4 25  1  0
  9 26  1  0
 10 27  1  0
 12 28  1  0
 13 29  1  0
 14 30  1  0
 15 31  1  0
 17 32  1  0
M  CHG  2  19  -1  21  -1
M  END
>  <mol_id>  (46) 
2026-08-23-6tgu-s0-n100-r1-0046

>  <rmsd_to_ref>  (46) 
2.5204081632678665

$$$$
6tgu.A
     RDKit          3D

 32 34  0  0  0  0  0  0  0  0999 V2000
    3.5367   18.0274   35.1071 C   0  0  0  0  0  0  0  0  0  0  0  0
    3.5935   18.3096   36.6110 C   0  0  0  0  0  0  0  0  0  0  0  0
    3.9203   19.5799   37.0804 C   0  0  0  0  0  0  0  0  0  0  0  0
    3.7985   19.9262   38.4301 C   0  0  0  0  0  0  0  0  0  0  0  0
    3.5070   18.9422   39.3859 C   0  0  0  0  0  0  0  0  0  0  0  0
    2.6094   18.6713   41.7490 C   0  0  0  0  0  0  0  0  0  0  0  0
    1.3908   17.0380   42.7604 C   0  0  0  0  0  0  0  0  0  0  0  0
    0.7680   15.7179   42.8642 C   0  0  0  0  0  0  0  0  0  0  0  0
   -0.0584   15.3686   43.9417 C   0  0  0  0  0  0  0  0  0  0  0  0
   -0.6677   14.1192   44.0036 C   0  0  0  0  0  0  0  0  0  0  0  0
   -0.4796   13.2370   42.9564 C   0  0  0  0  0  0  0  0  0  0  0  0
    0.3246   13.5436   41.8691 C   0  0  0  0  0  0  0  0  0  0  0  0
    0.9348   14.7944   41.8311 C   0  0  0  0  0  0  0  0  0  0  0  0
    1.2440   18.0295   43.6941 C   0  0  0  0  0  0  0  0  0  0  0  0
    3.1648   17.6613   38.9294 C   0  0  0  0  0  0  0  0  0  0  0  0
    3.2204   17.3705   37.5651 C   0  0  0  0  0  0  0  0  0  0  0  0
    3.3161   19.2902   40.7584 N   0  0  0  0  0  0  0  0  0  0  0  0
    2.0923   17.4036   41.5872 N   0  0  0  0  0  0  0  0  0  0  0  0
    3.6340   19.0301   34.3400 O   0  0  0  0  0  0  0  0  0  0  0  0
    3.3189   16.8460   34.7598 O   0  0  0  0  0  0  0  0  0  0  0  0
    2.7834   16.1458   37.1192 O   0  0  0  0  0  0  0  0  0  0  0  0
    1.9564   19.5002   43.1490 S   0  0  0  0  0  0  0  0  0  0  0  0
   -1.2649   11.6933   43.0001 Cl  0  0  0  0  0  0  0  0  0  0  0  0
    4.2854   20.3339   36.3675 H   0  0  0  0  0  0  0  0  0  0  0  0
    3.9317   20.9724   38.7425 H   0  0  0  0  0  0  0  0  0  0  0  0
   -0.2276   16.0939   44.7512 H   0  0  0  0  0  0  0  0  0  0  0  0
   -1.2869   13.8393   44.8687 H   0  0  0  0  0  0  0  0  0  0  0  0
    0.4766   12.8171   41.0573 H   0  0  0  0  0  0  0  0  0  0  0  0
    1.5623   15.0606   40.9677 H   0  0  0  0  0  0  0  0  0  0  0  0
    0.7385   17.9034   44.6629 H   0  0  0  0  0  0  0  0  0  0  0  0
    2.8531   16.8866   39.6454 H   0  0  0  0  0  0  0  0  0  0  0  0
    3.7929   20.1553   41.0501 H   0  0  0  0  0  0  0  0  0  0  0  0
  1  2  1  0
  1 19  1  0
  1 20  2  0
  2  3  1  0
  2 16  2  0
  3  4  2  0
  4  5  1  0
  5 15  2  0
  5 17  1  0
  6 17  1  0
  6 18  2  0
  6 22  1  0
  7  8  1  0
  7 14  2  0
  7 18  1  0
  8  9  1  0
  8 13  2  0
  9 10  2  0
 10 11  1  0
 11 12  2  0
 11 23  1  0
 12 13  1  0
 14 22  1  0
 15 16  1  0
 16 21  1  0
  3 24  1  0
  4 25  1  0
  9 26  1  0
 10 27  1  0
 12 28  1  0
 13 29  1  0
 14 30  1  0
 15 31  1  0
 17 32  1  0
M  CHG  2  19  -1  21  -1
M  END
>  <mol_id>  (47) 
2026-08-23-6tgu-s0-n100-r1-0047

>  <rmsd_to_ref>  (47) 
2.5663265306177916

$$$$
6tgu.A
     RDKit          3D

 32 34  0  0  0  0  0  0  0  0999 V2000
    4.9098   18.4203   36.2597 C   0  0  0  0  0  0  0  0  0  0  0  0
    3.9558   18.4861   37.3582 C   0  0  0  0  0  0  0  0  0  0  0  0
    3.7225   19.7302   37.9414 C   0  0  0  0  0  0  0  0  0  0  0  0
    2.8394   19.8311   38.9724 C   0  0  0  0  0  0  0  0  0  0  0  0
    2.1408   18.7425   39.4908 C   0  0  0  0  0  0  0  0  0  0  0  0
    1.1525   18.2295   41.7373 C   0  0  0  0  0  0  0  0  0  0  0  0
    0.9213   16.8637   43.5100 C   0  0  0  0  0  0  0  0  0  0  0  0
    0.5628   15.5398   44.0645 C   0  0  0  0  0  0  0  0  0  0  0  0
    0.1153   14.5088   43.2771 C   0  0  0  0  0  0  0  0  0  0  0  0
   -0.1877   13.2772   43.8326 C   0  0  0  0  0  0  0  0  0  0  0  0
   -0.0517   13.0403   45.1960 C   0  0  0  0  0  0  0  0  0  0  0  0
    0.3957   14.0662   45.9928 C   0  0  0  0  0  0  0  0  0  0  0  0
    0.6889   15.2794   45.4168 C   0  0  0  0  0  0  0  0  0  0  0  0
    1.4070   17.8681   44.3463 C   0  0  0  0  0  0  0  0  0  0  0  0
    2.3743   17.5183   38.9128 C   0  0  0  0  0  0  0  0  0  0  0  0
    3.2785   17.3991   37.8521 C   0  0  0  0  0  0  0  0  0  0  0  0
    1.2427   18.9917   40.5428 N   0  0  0  0  0  0  0  0  0  0  0  0
    0.8464   17.1757   42.2504 N   0  0  0  0  0  0  0  0  0  0  0  0
    5.1816   17.2173   35.6422 O   0  0  0  0  0  0  0  0  0  0  0  0
    5.4987   19.4445   35.8529 O   0  0  0  0  0  0  0  0  0  0  0  0
    3.4977   16.1483   37.2765 O   0  0  0  0  0  0  0  0  0  0  0  0
    1.7418   19.2464   43.2277 S   0  0  0  0  0  0  0  0  0  0  0  0
   -0.4262   11.4991   45.8844 Cl  0  0  0  0  0  0  0  0  0  0  0  0
    4.2252   20.6288   37.6055 H   0  0  0  0  0  0  0  0  0  0  0  0
    2.6781   20.8169   39.4174 H   0  0  0  0  0  0  0  0  0  0  0  0
   -0.0066   14.6733   42.1971 H   0  0  0  0  0  0  0  0  0  0  0  0
   -0.5374   12.4810   43.2024 H   0  0  0  0  0  0  0  0  0  0  0  0
    0.5310   13.9609   47.0548 H   0  0  0  0  0  0  0  0  0  0  0  0
    1.0403   16.0689   46.0876 H   0  0  0  0  0  0  0  0  0  0  0  0
    1.5608   17.8794   45.4043 H   0  0  0  0  0  0  0  0  0  0  0  0
    1.8343   16.6650   39.3004 H   0  0  0  0  0  0  0  0  0  0  0  0
    0.5949   19.8022   40.4289 H   0  0  0  0  0  0  0  0  0  0  0  0
  1  2  1  0
  1 19  1  0
  1 20  2  0
  2  3  1  0
  2 16  2  0
  3  4  2  0
  4  5  1  0
  5 15  2  0
  5 17  1  0
  6 17  1  0
  6 18  2  0
  6 22  1  0
  7  8  1  0
  7 14  2  0
  7 18  1  0
  8  9  1  0
  8 13  2  0
  9 10  2  0
 10 11  1  0
 11 12  2  0
 11 23  1  0
 12 13  1  0
 14 22  1  0
 15 16  1  0
 16 21  1  0
  3 24  1  0
  4 25  1  0
  9 26  1  0
 10 27  1  0
 12 28  1  0
 13 29  1  0
 14 30  1  0
 15 31  1  0
 17 32  1  0
M  CHG  2  19  -1  21  -1
M  END
>  <mol_id>  (48) 
2026-08-23-6tgu-s0-n100-r1-0048

>  <rmsd_to_ref>  (48) 
2.612244897960878

$$$$
6tgu.A
     RDKit          3D

 32 34  0  0  0  0  0  0  0  0999 V2000
    4.7225   19.4592   36.4835 C   0  0  0  0  0  0  0  0  0  0  0  0
    4.4689   19.3541   37.9899 C   0  0  0  0  0  0  0  0  0  0  0  0
    4.8827   20.3694   38.8493 C   0  0  0  0  0  0  0  0  0  0  0  0
    4.5052   20.4015   40.1958 C   0  0  0  0  0  0  0  0  0  0  0  0
    3.8365   19.3085   40.7659 C   0  0  0  0  0  0  0  0  0  0  0  0
    2.3743   18.6888   42.7511 C   0  0  0  0  0  0  0  0  0  0  0  0
    0.6967   17.1760   43.0209 C   0  0  0  0  0  0  0  0  0  0  0  0
   -0.1441   16.0429   42.6330 C   0  0  0  0  0  0  0  0  0  0  0  0
   -1.2478   15.6400   43.3983 C   0  0  0  0  0  0  0  0  0  0  0  0
   -2.0540   14.5808   42.9934 C   0  0  0  0  0  0  0  0  0  0  0  0
   -1.7738   13.9551   41.7933 C   0  0  0  0  0  0  0  0  0  0  0  0
   -0.6961   14.3248   41.0027 C   0  0  0  0  0  0  0  0  0  0  0  0
    0.1055   15.3796   41.4306 C   0  0  0  0  0  0  0  0  0  0  0  0
    0.5010   17.9228   44.1524 C   0  0  0  0  0  0  0  0  0  0  0  0
    3.4032   18.2836   39.9128 C   0  0  0  0  0  0  0  0  0  0  0  0
    3.7299   18.3222   38.5560 C   0  0  0  0  0  0  0  0  0  0  0  0
    3.3878   19.3523   42.1216 N   0  0  0  0  0  0  0  0  0  0  0  0
    1.7061   17.6449   42.1472 N   0  0  0  0  0  0  0  0  0  0  0  0
    5.1638   20.5682   36.0609 O   0  0  0  0  0  0  0  0  0  0  0  0
    4.3990   18.4744   35.7841 O   0  0  0  0  0  0  0  0  0  0  0  0
    3.2127   17.3689   37.7113 O   0  0  0  0  0  0  0  0  0  0  0  0
    1.5568   19.2837   44.1833 S   0  0  0  0  0  0  0  0  0  0  0  0
   -2.7932   12.6613   41.2562 Cl  0  0  0  0  0  0  0  0  0  0  0  0
    5.5262   21.1706   38.4569 H   0  0  0  0  0  0  0  0  0  0  0  0
    4.7334   21.2859   40.8088 H   0  0  0  0  0  0  0  0  0  0  0  0
   -1.4800   16.1700   44.3339 H   0  0  0  0  0  0  0  0  0  0  0  0
   -2.8976   14.2480   43.6160 H   0  0  0  0  0  0  0  0  0  0  0  0
   -0.4801   13.7981   40.0615 H   0  0  0  0  0  0  0  0  0  0  0  0
    0.9544   15.6972   40.8073 H   0  0  0  0  0  0  0  0  0  0  0  0
   -0.2327   17.6852   44.9368 H   0  0  0  0  0  0  0  0  0  0  0  0
    2.8066   17.4501   40.3121 H   0  0  0  0  0  0  0  0  0  0  0  0
    3.9196   19.9936   42.7272 H   0  0  0  0  0  0  0  0  0  0  0  0
  1  2  1  0
  1 19  1  0
  1 20  2  0
  2  3  1  0
  2 16  2  0
  3  4  2  0
  4  5  1  0
  5 15  2  0
  5 17  1  0
  6 17  1  0
  6 18  2  0
  6 22  1  0
  7  8  1  0
  7 14  2  0
  7 18  1  0
  8  9  1  0
  8 13  2  0
  9 10  2  0
 10 11  1  0
 11 12  2  0
 11 23  1  0
 12 13  1  0
 14 22  1  0
 15 16  1  0
 16 21  1  0
  3 24  1  0
  4 25  1  0
  9 26  1  0
 10 27  1  0
 12 28  1  0
 13 29  1  0
 14 30  1  0
 15 31  1  0
 17 32  1  0
M  CHG  2  19  -1  21  -1
M  END
>  <mol_id>  (49) 
2026-08-23-6tgu-s0-n100-r1-0049

>  <rmsd_to_ref>  (49) 
2.658163265307115

$$$$
6tgu.A
     RDKit          3D

 32 34  0  0  0  0  0  0  0  0999 V2000
    3.9963   22.4068   39.0135 C   0  0  0  0  0  0  0  0  0  0  0  0
    3.5109   21.0622   39.2789 C   0  0  0  0  0  0  0  0  0  0  0  0
    3.1000   20.2418   38.2555 C   0  0  0  0  0  0  0  0  0  0  0  0
    2.6370   18.9689   38.4908 C   0  0  0  0  0  0  0  0  0  0  0  0
    2.5580   18.4372   39.7871 C   0  0  0  0  0  0  0  0  0  0  0  0
    1.4488   16.5679   41.0377 C   0  0  0  0  0  0  0  0  0  0  0  0
    0.4149   15.1499   42.5013 C   0  0  0  0  0  0  0  0  0  0  0  0
   -0.0903   13.8075   42.8707 C   0  0  0  0  0  0  0  0  0  0  0  0
   -0.7035   13.6144   44.0807 C   0  0  0  0  0  0  0  0  0  0  0  0
   -1.1567   12.3460   44.3786 C   0  0  0  0  0  0  0  0  0  0  0  0
   -1.0238   11.2718   43.5249 C   0  0  0  0  0  0  0  0  0  0  0  0
   -0.4013   11.5001   42.3129 C   0  0  0  0  0  0  0  0  0  0  0  0
    0.0593   12.7593   41.9949 C   0  0  0  0  0  0  0  0  0  0  0  0
    0.2406   16.2661   43.4618 C   0  0  0  0  0  0  0  0  0  0  0  0
    2.9739   19.2737   40.7916 C   0  0  0  0  0  0  0  0  0  0  0  0
    3.4425   20.5613   40.5568 C   0  0  0  0  0  0  0  0  0  0  0  0
    2.0901   17.1379   39.9097 N   0  0  0  0  0  0  0  0  0  0  0  0
    0.9918   15.4633   41.4330 N   0  0  0  0  0  0  0  0  0  0  0  0
    4.0503   22.8788   37.7072 O   0  0  0  0  0  0  0  0  0  0  0  0
    4.3711   23.1565   39.9494 O   0  0  0  0  0  0  0  0  0  0  0  0
    3.8461   21.3510   41.6207 O   0  0  0  0  0  0  0  0  0  0  0  0
    1.0126   17.6386   42.5341 S   0  0  0  0  0  0  0  0  0  0  0  0
   -1.6119    9.6795   43.9392 Cl  0  0  0  0  0  0  0  0  0  0  0  0
    3.1540   20.6398   37.2360 H   0  0  0  0  0  0  0  0  0  0  0  0
    2.3341   18.3901   37.6252 H   0  0  0  0  0  0  0  0  0  0  0  0
   -0.8533   14.3932   44.8148 H   0  0  0  0  0  0  0  0  0  0  0  0
   -1.6420   12.1889   45.3329 H   0  0  0  0  0  0  0  0  0  0  0  0
   -0.2722   10.7016   41.6136 H   0  0  0  0  0  0  0  0  0  0  0  0
    0.5483   12.9596   41.0549 H   0  0  0  0  0  0  0  0  0  0  0  0
   -0.1993   16.2609   44.3983 H   0  0  0  0  0  0  0  0  0  0  0  0
    2.9562   18.9465   41.7974 H   0  0  0  0  0  0  0  0  0  0  0  0
    2.2085   16.4695   39.0918 H   0  0  0  0  0  0  0  0  0  0  0  0
  1  2  1  0
  1 19  1  0
  1 20  2  0
  2  3  1  0
  2 16  2  0
  3  4  2  0
  4  5  1  0
  5 15  2  0
  5 17  1  0
  6 17  1  0
  6 18  2  0
  6 22  1  0
  7  8  1  0
  7 14  2  0
  7 18  1  0
  8  9  1  0
  8 13  2  0
  9 10  2  0
 10 11  1  0
 11 12  2  0
 11 23  1  0
 12 13  1  0
 14 22  1  0
 15 16  1  0
 16 21  1  0
  3 24  1  0
  4 25  1  0
  9 26  1  0
 10 27  1  0
 12 28  1  0
 13 29  1  0
 14 30  1  0
 15 31  1  0
 17 32  1  0
M  CHG  2  19  -1  21  -1
M  END
>  <mol_id>  (50) 
2026-08-23-6tgu-s0-n100-r1-0050

>  <rmsd_to_ref>  (50) 
2.7040816326560226

$$$$
6tgu.A
     RDKit          3D

 32 34  0  0  0  0  0  0  0  0999 V2000
   -0.1647   20.7090   36.6353 C   0  0  0  0  0  0  0  0  0  0  0  0
   -0.1234   20.2845   38.1060 C   0  0  0  0  0  0  0  0  0  0  0  0
   -1.1608   20.6270   38.9703 C   0  0  0  0  0  0  0  0  0  0  0  0
   -1.2535   20.1013   40.2632 C   0  0  0  0  0  0  0  0  0  0  0  0
   -0.1993   19.3425   40.7920 C   0  0  0  0  0  0  0  0  0  0  0  0
    0.3091   17.6493   42.6190 C   0  0  0  0  0  0  0  0  0  0  0  0
    1.7703   15.9105   42.7499 C   0  0  0  0  0  0  0  0  0  0  0  0
    2.8973   15.0876   42.3095 C   0  0  0  0  0  0  0  0  0  0  0  0
    3.2443   13.8939   42.9582 C   0  0  0  0  0  0  0  0  0  0  0  0
    4.2989   13.1093   42.5022 C   0  0  0  0  0  0  0  0  0  0  0  0
    4.9766   13.5054   41.3646 C   0  0  0  0  0  0  0  0  0  0  0  0
    4.6630   14.6751   40.6889 C   0  0  0  0  0  0  0  0  0  0  0  0
    3.6119   15.4524   41.1675 C   0  0  0  0  0  0  0  0  0  0  0  0
    0.9763   15.6095   43.8247 C   0  0  0  0  0  0  0  0  0  0  0  0
    0.8471   18.9797   39.9321 C   0  0  0  0  0  0  0  0  0  0  0  0
    0.8683   19.4581   38.6207 C   0  0  0  0  0  0  0  0  0  0  0  0
   -0.3056   18.7454   42.0856 N   0  0  0  0  0  0  0  0  0  0  0  0
    1.3593   17.0246   41.9805 N   0  0  0  0  0  0  0  0  0  0  0  0
   -1.2459   21.2258   36.2266 O   0  0  0  0  0  0  0  0  0  0  0  0
    0.8383   20.4390   35.9390 O   0  0  0  0  0  0  0  0  0  0  0  0
    1.8408   19.0129   37.7570 O   0  0  0  0  0  0  0  0  0  0  0  0
   -0.3594   16.6927   43.9271 S   0  0  0  0  0  0  0  0  0  0  0  0
    6.2655   12.5172   40.7613 Cl  0  0  0  0  0  0  0  0  0  0  0  0
   -1.9310   21.3327   38.6254 H   0  0  0  0  0  0  0  0  0  0  0  0
   -2.1551   20.2835   40.8665 H   0  0  0  0  0  0  0  0  0  0  0  0
    2.6735   13.5727   43.8420 H   0  0  0  0  0  0  0  0  0  0  0  0
    4.5875   12.1920   43.0363 H   0  0  0  0  0  0  0  0  0  0  0  0
    5.2304   14.9809   39.7975 H   0  0  0  0  0  0  0  0  0  0  0  0
    3.3386   16.3746   40.6337 H   0  0  0  0  0  0  0  0  0  0  0  0
    1.1662   14.7859   44.5287 H   0  0  0  0  0  0  0  0  0  0  0  0
    1.6503   18.3189   40.2903 H   0  0  0  0  0  0  0  0  0  0  0  0
   -0.9569   19.2233   42.7246 H   0  0  0  0  0  0  0  0  0  0  0  0
  1  2  1  0
  1 19  1  0
  1 20  2  0
  2  3  1  0
  2 16  2  0
  3  4  2  0
  4  5  1  0
  5 15  2  0
  5 17  1  0
  6 17  1  0
  6 18  2  0
  6 22  1  0
  7  8  1  0
  7 14  2  0
  7 18  1  0
  8  9  1  0
  8 13  2  0
  9 10  2  0
 10 11  1  0
 11 12  2  0
 11 23  1  0
 12 13  1  0
 14 22  1  0
 15 16  1  0
 16 21  1  0
  3 24  1  0
  4 25  1  0
  9 26  1  0
 10 27  1  0
 12 28  1  0
 13 29  1  0
 14 30  1  0
 15 31  1  0
 17 32  1  0
M  CHG  2  19  -1  21  -1
M  END
>  <mol_id>  (51) 
2026-08-23-6tgu-s0-n100-r1-0051

>  <rmsd_to_ref>  (51) 
2.750000000007356

$$$$
6tgu.A
     RDKit          3D

 32 34  0  0  0  0  0  0  0  0999 V2000
    3.0861   21.2138   36.3173 C   0  0  0  0  0  0  0  0  0  0  0  0
    2.7398   20.0059   37.0450 C   0  0  0  0  0  0  0  0  0  0  0  0
    1.7971   20.1095   38.0387 C   0  0  0  0  0  0  0  0  0  0  0  0
    1.4112   18.9916   38.7867 C   0  0  0  0  0  0  0  0  0  0  0  0
    1.9755   17.7579   38.5362 C   0  0  0  0  0  0  0  0  0  0  0  0
    1.2377   16.5193   40.5901 C   0  0  0  0  0  0  0  0  0  0  0  0
    0.5228   15.9127   42.6670 C   0  0  0  0  0  0  0  0  0  0  0  0
    0.0206   14.8238   43.5526 C   0  0  0  0  0  0  0  0  0  0  0  0
   -0.1539   13.5406   43.0902 C   0  0  0  0  0  0  0  0  0  0  0  0
   -0.6261   12.5345   43.9290 C   0  0  0  0  0  0  0  0  0  0  0  0
   -0.9298   12.8126   45.2529 C   0  0  0  0  0  0  0  0  0  0  0  0
   -0.7513   14.0913   45.6989 C   0  0  0  0  0  0  0  0  0  0  0  0
   -0.2837   15.0777   44.8596 C   0  0  0  0  0  0  0  0  0  0  0  0
    0.6791   17.1826   43.1490 C   0  0  0  0  0  0  0  0  0  0  0  0
    2.9314   17.6620   37.5251 C   0  0  0  0  0  0  0  0  0  0  0  0
    3.3189   18.7735   36.7780 C   0  0  0  0  0  0  0  0  0  0  0  0
    1.6535   16.5839   39.2611 N   0  0  0  0  0  0  0  0  0  0  0  0
    0.8248   15.7223   41.4248 N   0  0  0  0  0  0  0  0  0  0  0  0
    4.0530   21.1322   35.2992 O   0  0  0  0  0  0  0  0  0  0  0  0
    2.5554   22.3365   36.5601 O   0  0  0  0  0  0  0  0  0  0  0  0
    4.2779   18.6633   35.7716 O   0  0  0  0  0  0  0  0  0  0  0  0
    1.3008   18.1089   41.6680 S   0  0  0  0  0  0  0  0  0  0  0  0
   -1.5320   11.5734   46.3485 Cl  0  0  0  0  0  0  0  0  0  0  0  0
    1.3418   21.0742   38.2489 H   0  0  0  0  0  0  0  0  0  0  0  0
    0.6617   19.1635   39.5329 H   0  0  0  0  0  0  0  0  0  0  0  0
    0.0803   13.3222   42.0570 H   0  0  0  0  0  0  0  0  0  0  0  0
   -0.7663   11.5148   43.5572 H   0  0  0  0  0  0  0  0  0  0  0  0
   -0.9753   14.3553   46.7261 H   0  0  0  0  0  0  0  0  0  0  0  0
   -0.1631   16.0823   45.2814 H   0  0  0  0  0  0  0  0  0  0  0  0
    0.5227   17.6775   44.1240 H   0  0  0  0  0  0  0  0  0  0  0  0
    3.3974   16.7077   37.3034 H   0  0  0  0  0  0  0  0  0  0  0  0
    1.7409   15.6813   38.7403 H   0  0  0  0  0  0  0  0  0  0  0  0
  1  2  1  0
  1 19  1  0
  1 20  2  0
  2  3  1  0
  2 16  2  0
  3  4  2  0
  4  5  1  0
  5 15  2  0
  5 17  1  0
  6 17  1  0
  6 18  2  0
  6 22  1  0
  7  8  1  0
  7 14  2  0
  7 18  1  0
  8  9  1  0
  8 13  2  0
  9 10  2  0
 10 11  1  0
 11 12  2  0
 11 23  1  0
 12 13  1  0
 14 22  1  0
 15 16  1  0
 16 21  1  0
  3 24  1  0
  4 25  1  0
  9 26  1  0
 10 27  1  0
 12 28  1  0
 13 29  1  0
 14 30  1  0
 15 31  1  0
 17 32  1  0
M  CHG  2  19  -1  21  -1
M  END
>  <mol_id>  (52) 
2026-08-23-6tgu-s0-n100-r1-0052

>  <rmsd_to_ref>  (52) 
2.7959183673488215

$$$$
6tgu.A
     RDKit          3D

 32 34  0  0  0  0  0  0  0  0999 V2000
    4.0042   20.7972   39.6468 C   0  0  0  0  0  0  0  0  0  0  0  0
    3.2146   19.9069   40.6104 C   0  0  0  0  0  0  0  0  0  0  0  0
    2.6817   20.4341   41.7847 C   0  0  0  0  0  0  0  0  0  0  0  0
    1.8001   19.7071   42.5913 C   0  0  0  0  0  0  0  0  0  0  0  0
    1.5621   18.3501   42.3290 C   0  0  0  0  0  0  0  0  0  0  0  0
   -0.1165   16.4997   42.7999 C   0  0  0  0  0  0  0  0  0  0  0  0
   -0.8016   14.6935   41.5981 C   0  0  0  0  0  0  0  0  0  0  0  0
   -0.7427   13.7320   40.4967 C   0  0  0  0  0  0  0  0  0  0  0  0
   -1.7268   12.7500   40.3139 C   0  0  0  0  0  0  0  0  0  0  0  0
   -1.6692   11.8670   39.2401 C   0  0  0  0  0  0  0  0  0  0  0  0
   -0.6425   12.0022   38.3247 C   0  0  0  0  0  0  0  0  0  0  0  0
    0.3482   12.9626   38.4639 C   0  0  0  0  0  0  0  0  0  0  0  0
    0.2793   13.8293   39.5511 C   0  0  0  0  0  0  0  0  0  0  0  0
   -1.7915   14.7139   42.5447 C   0  0  0  0  0  0  0  0  0  0  0  0
    2.0818   17.8069   41.1454 C   0  0  0  0  0  0  0  0  0  0  0  0
    2.8953   18.5858   40.3203 C   0  0  0  0  0  0  0  0  0  0  0  0
    0.6162   17.6108   43.1036 N   0  0  0  0  0  0  0  0  0  0  0  0
    0.1250   15.7610   41.6611 N   0  0  0  0  0  0  0  0  0  0  0  0
    3.9967   22.0396   39.8907 O   0  0  0  0  0  0  0  0  0  0  0  0
    4.5234   20.2388   38.6557 O   0  0  0  0  0  0  0  0  0  0  0  0
    3.3128   18.0780   39.1130 O   0  0  0  0  0  0  0  0  0  0  0  0
   -1.6407   16.0938   43.5651 S   0  0  0  0  0  0  0  0  0  0  0  0
   -0.5806   10.9362   36.9603 Cl  0  0  0  0  0  0  0  0  0  0  0  0
    2.9631   21.4536   42.0870 H   0  0  0  0  0  0  0  0  0  0  0  0
    1.2923   20.2007   43.4330 H   0  0  0  0  0  0  0  0  0  0  0  0
   -2.5577   12.6766   41.0309 H   0  0  0  0  0  0  0  0  0  0  0  0
   -2.4256   11.0772   39.1221 H   0  0  0  0  0  0  0  0  0  0  0  0
    1.1675   13.0376   37.7338 H   0  0  0  0  0  0  0  0  0  0  0  0
    1.0473   14.6082   39.6675 H   0  0  0  0  0  0  0  0  0  0  0  0
   -2.5780   13.9509   42.6406 H   0  0  0  0  0  0  0  0  0  0  0  0
    1.8489   16.7685   40.8673 H   0  0  0  0  0  0  0  0  0  0  0  0
    0.4606   17.9789   44.0529 H   0  0  0  0  0  0  0  0  0  0  0  0
  1  2  1  0
  1 19  1  0
  1 20  2  0
  2  3  1  0
  2 16  2  0
  3  4  2  0
  4  5  1  0
  5 15  2  0
  5 17  1  0
  6 17  1  0
  6 18  2  0
  6 22  1  0
  7  8  1  0
  7 14  2  0
  7 18  1  0
  8  9  1  0
  8 13  2  0
  9 10  2  0
 10 11  1  0
 11 12  2  0
 11 23  1  0
 12 13  1  0
 14 22  1  0
 15 16  1  0
 16 21  1  0
  3 24  1  0
  4 25  1  0
  9 26  1  0
 10 27  1  0
 12 28  1  0
 13 29  1  0
 14 30  1  0
 15 31  1  0
 17 32  1  0
M  CHG  2  19  -1  21  -1
M  END
>  <mol_id>  (53) 
2026-08-23-6tgu-s0-n100-r1-0053

>  <rmsd_to_ref>  (53) 
2.841836734696545

$$$$
6tgu.A
     RDKit          3D

 32 34  0  0  0  0  0  0  0  0999 V2000
    4.1072   21.1560   36.3292 C   0  0  0  0  0  0  0  0  0  0  0  0
    3.6893   20.1422   37.2767 C   0  0  0  0  0  0  0  0  0  0  0  0
    2.4710   20.1489   37.9040 C   0  0  0  0  0  0  0  0  0  0  0  0
    2.1178   19.1471   38.8068 C   0  0  0  0  0  0  0  0  0  0  0  0
    2.9455   18.1037   39.1286 C   0  0  0  0  0  0  0  0  0  0  0  0
    1.7737   17.0425   41.1127 C   0  0  0  0  0  0  0  0  0  0  0  0
    0.5224   16.4661   42.8768 C   0  0  0  0  0  0  0  0  0  0  0  0
    0.1604   15.4099   43.8383 C   0  0  0  0  0  0  0  0  0  0  0  0
   -0.7880   15.6670   44.8193 C   0  0  0  0  0  0  0  0  0  0  0  0
   -1.1653   14.7188   45.7457 C   0  0  0  0  0  0  0  0  0  0  0  0
   -0.5965   13.4648   45.7179 C   0  0  0  0  0  0  0  0  0  0  0  0
    0.3603   13.1789   44.7415 C   0  0  0  0  0  0  0  0  0  0  0  0
    0.7127   14.1587   43.8286 C   0  0  0  0  0  0  0  0  0  0  0  0
   -0.0421   17.7111   42.9158 C   0  0  0  0  0  0  0  0  0  0  0  0
    4.1927   18.1129   38.4745 C   0  0  0  0  0  0  0  0  0  0  0  0
    4.5458   19.0942   37.5856 C   0  0  0  0  0  0  0  0  0  0  0  0
    2.7161   17.0659   40.0140 N   0  0  0  0  0  0  0  0  0  0  0  0
    1.4113   16.3099   41.9087 N   0  0  0  0  0  0  0  0  0  0  0  0
    3.3078   22.2265   35.9831 O   0  0  0  0  0  0  0  0  0  0  0  0
    5.2611   21.0417   35.8024 O   0  0  0  0  0  0  0  0  0  0  0  0
    5.8119   19.0397   36.9671 O   0  0  0  0  0  0  0  0  0  0  0  0
    0.7744   18.5889   41.5125 S   0  0  0  0  0  0  0  0  0  0  0  0
   -1.0380   12.2211   46.8710 Cl  0  0  0  0  0  0  0  0  0  0  0  0
    1.7923   20.9511   37.6806 H   0  0  0  0  0  0  0  0  0  0  0  0
    1.1381   19.2321   39.2319 H   0  0  0  0  0  0  0  0  0  0  0  0
   -1.2768   16.6481   44.8961 H   0  0  0  0  0  0  0  0  0  0  0  0
   -1.9183   14.9715   46.4968 H   0  0  0  0  0  0  0  0  0  0  0  0
    0.8057   12.1800   44.7299 H   0  0  0  0  0  0  0  0  0  0  0  0
    1.4665   13.8988   43.0790 H   0  0  0  0  0  0  0  0  0  0  0  0
   -0.7879   18.1917   43.5532 H   0  0  0  0  0  0  0  0  0  0  0  0
    4.9114   17.3334   38.6617 H   0  0  0  0  0  0  0  0  0  0  0  0
    3.2585   16.1738   39.9183 H   0  0  0  0  0  0  0  0  0  0  0  0
  1  2  1  0
  1 19  1  0
  1 20  2  0
  2  3  1  0
  2 16  2  0
  3  4  2  0
  4  5  1  0
  5 15  2  0
  5 17  1  0
  6 17  1  0
  6 18  2  0
  6 22  1  0
  7  8  1  0
  7 14  2  0
  7 18  1  0
  8  9  1  0
  8 13  2  0
  9 10  2  0
 10 11  1  0
 11 12  2  0
 11 23  1  0
 12 13  1  0
 14 22  1  0
 15 16  1  0
 16 21  1  0
  3 24  1  0
  4 25  1  0
  9 26  1  0
 10 27  1  0
 12 28  1  0
 13 29  1  0
 14 30  1  0
 15 31  1  0
 17 32  1  0
M  CHG  2  19  -1  21  -1
M  END
>  <mol_id>  (54) 
2026-08-23-6tgu-s0-n100-r1-0054

>  <rmsd_to_ref>  (54) 
2.8877551020453507

$$$$
6tgu.A
     RDKit          3D

 32 34  0  0  0  0  0  0  0  0999 V2000
    3.4107   22.1245   41.4473 C   0  0  0  0  0  0  0  0  0  0  0  0
    2.2808   21.1237   41.7051 C   0  0  0  0  0  0  0  0  0  0  0  0
    0.9535   21.4826   41.4816 C   0  0  0  0  0  0  0  0  0  0  0  0
   -0.0851   20.5465   41.5220 C   0  0  0  0  0  0  0  0  0  0  0  0
    0.1622   19.2391   41.9651 C   0  0  0  0  0  0  0  0  0  0  0  0
   -0.8126   16.8928   41.8759 C   0  0  0  0  0  0  0  0  0  0  0  0
    0.1371   14.8256   41.8570 C   0  0  0  0  0  0  0  0  0  0  0  0
    1.2368   13.8688   41.9849 C   0  0  0  0  0  0  0  0  0  0  0  0
    1.0732   12.5059   41.6989 C   0  0  0  0  0  0  0  0  0  0  0  0
    2.1410   11.6190   41.7947 C   0  0  0  0  0  0  0  0  0  0  0  0
    3.3855   12.1137   42.1365 C   0  0  0  0  0  0  0  0  0  0  0  0
    3.5930   13.4548   42.4219 C   0  0  0  0  0  0  0  0  0  0  0  0
    2.5097   14.3245   42.3315 C   0  0  0  0  0  0  0  0  0  0  0  0
   -1.1328   14.4858   41.4719 C   0  0  0  0  0  0  0  0  0  0  0  0
    1.4939   18.8586   42.1837 C   0  0  0  0  0  0  0  0  0  0  0  0
    2.5169   19.8002   42.0572 C   0  0  0  0  0  0  0  0  0  0  0  0
   -0.8730   18.2546   41.9514 N   0  0  0  0  0  0  0  0  0  0  0  0
    0.3788   16.2117   42.0075 N   0  0  0  0  0  0  0  0  0  0  0  0
    3.0875   23.2061   40.8738 O   0  0  0  0  0  0  0  0  0  0  0  0
    4.5689   21.7619   41.7486 O   0  0  0  0  0  0  0  0  0  0  0  0
    3.8249   19.3930   42.1710 O   0  0  0  0  0  0  0  0  0  0  0  0
   -2.1054   15.8898   41.2466 S   0  0  0  0  0  0  0  0  0  0  0  0
    4.7331   11.0281   42.2199 Cl  0  0  0  0  0  0  0  0  0  0  0  0
    0.7147   22.5346   41.2666 H   0  0  0  0  0  0  0  0  0  0  0  0
   -1.0979   20.8365   41.2056 H   0  0  0  0  0  0  0  0  0  0  0  0
    0.0848   12.1318   41.3938 H   0  0  0  0  0  0  0  0  0  0  0  0
    1.9976   10.5454   41.6023 H   0  0  0  0  0  0  0  0  0  0  0  0
    4.5884   13.8221   42.7124 H   0  0  0  0  0  0  0  0  0  0  0  0
    2.6602   15.3944   42.5379 H   0  0  0  0  0  0  0  0  0  0  0  0
   -1.4847   13.4538   41.3260 H   0  0  0  0  0  0  0  0  0  0  0  0
    1.7323   17.8194   42.4546 H   0  0  0  0  0  0  0  0  0  0  0  0
   -1.8276   18.6374   42.0083 H   0  0  0  0  0  0  0  0  0  0  0  0
  1  2  1  0
  1 19  1  0
  1 20  2  0
  2  3  1  0
  2 16  2  0
  3  4  2  0
  4  5  1  0
  5 15  2  0
  5 17  1  0
  6 17  1  0
  6 18  2  0
  6 22  1  0
  7  8  1  0
  7 14  2  0
  7 18  1  0
  8  9  1  0
  8 13  2  0
  9 10  2  0
 10 11  1  0
 11 12  2  0
 11 23  1  0
 12 13  1  0
 14 22  1  0
 15 16  1  0
 16 21  1  0
  3 24  1  0
  4 25  1  0
  9 26  1  0
 10 27  1  0
 12 28  1  0
 13 29  1  0
 14 30  1  0
 15 31  1  0
 17 32  1  0
M  CHG  2  19  -1  21  -1
M  END
>  <mol_id>  (55) 
2026-08-23-6tgu-s0-n100-r1-0055

>  <rmsd_to_ref>  (55) 
2.9336734693935465

$$$$
6tgu.A
     RDKit          3D

 32 34  0  0  0  0  0  0  0  0999 V2000
    3.4207   20.4798   36.1062 C   0  0  0  0  0  0  0  0  0  0  0  0
    3.0057   19.3507   36.9195 C   0  0  0  0  0  0  0  0  0  0  0  0
    2.2935   19.6176   38.0632 C   0  0  0  0  0  0  0  0  0  0  0  0
    1.8596   18.5841   38.9010 C   0  0  0  0  0  0  0  0  0  0  0  0
    2.1424   17.2703   38.5892 C   0  0  0  0  0  0  0  0  0  0  0  0
    1.5852   16.1764   40.7778 C   0  0  0  0  0  0  0  0  0  0  0  0
    1.1659   15.7003   42.9664 C   0  0  0  0  0  0  0  0  0  0  0  0
    0.6498   14.7155   43.9595 C   0  0  0  0  0  0  0  0  0  0  0  0
    0.1705   13.4857   43.5739 C   0  0  0  0  0  0  0  0  0  0  0  0
   -0.3105   12.5773   44.5132 C   0  0  0  0  0  0  0  0  0  0  0  0
   -0.3137   12.9007   45.8614 C   0  0  0  0  0  0  0  0  0  0  0  0
    0.1657   14.1254   46.2303 C   0  0  0  0  0  0  0  0  0  0  0  0
    0.6386   15.0152   45.2919 C   0  0  0  0  0  0  0  0  0  0  0  0
    1.6287   16.9201   43.3749 C   0  0  0  0  0  0  0  0  0  0  0  0
    2.8656   17.0087   37.4257 C   0  0  0  0  0  0  0  0  0  0  0  0
    3.3000   18.0356   36.5887 C   0  0  0  0  0  0  0  0  0  0  0  0
    1.7563   16.1703   39.3943 N   0  0  0  0  0  0  0  0  0  0  0  0
    1.1977   15.4631   41.6963 N   0  0  0  0  0  0  0  0  0  0  0  0
    4.1559   20.2303   34.9335 O   0  0  0  0  0  0  0  0  0  0  0  0
    3.1496   21.6784   36.4077 O   0  0  0  0  0  0  0  0  0  0  0  0
    4.0245   17.7593   35.4297 O   0  0  0  0  0  0  0  0  0  0  0  0
    2.1231   17.7255   41.7796 S   0  0  0  0  0  0  0  0  0  0  0  0
   -0.9146   11.7852   47.0834 Cl  0  0  0  0  0  0  0  0  0  0  0  0
    2.0614   20.6475   38.3237 H   0  0  0  0  0  0  0  0  0  0  0  0
    1.3011   18.8845   39.7646 H   0  0  0  0  0  0  0  0  0  0  0  0
    0.1700   13.2325   42.5223 H   0  0  0  0  0  0  0  0  0  0  0  0
   -0.6936   11.6003   44.2027 H   0  0  0  0  0  0  0  0  0  0  0  0
    0.1830   14.4217   47.2728 H   0  0  0  0  0  0  0  0  0  0  0  0
    1.0093   15.9808   45.6555 H   0  0  0  0  0  0  0  0  0  0  0  0
    1.7426   17.4317   44.3472 H   0  0  0  0  0  0  0  0  0  0  0  0
    3.1078   15.9873   37.1517 H   0  0  0  0  0  0  0  0  0  0  0  0
    1.5868   15.2683   38.8930 H   0  0  0  0  0  0  0  0  0  0  0  0
  1  2  1  0
  1 19  1  0
  1 20  2  0
  2  3  1  0
  2 16  2  0
  3  4  2  0
  4  5  1  0
  5 15  2  0
  5 17  1  0
  6 17  1  0
  6 18  2  0
  6 22  1  0
  7  8  1  0
  7 14  2  0
  7 18  1  0
  8  9  1  0
  8 13  2  0
  9 10  2  0
 10 11  1  0
 11 12  2  0
 11 23  1  0
 12 13  1  0
 14 22  1  0
 15 16  1  0
 16 21  1  0
  3 24  1  0
  4 25  1  0
  9 26  1  0
 10 27  1  0
 12 28  1  0
 13 29  1  0
 14 30  1  0
 15 31  1  0
 17 32  1  0
M  CHG  2  19  -1  21  -1
M  END
>  <mol_id>  (56) 
2026-08-23-6tgu-s0-n100-r1-0056

>  <rmsd_to_ref>  (56) 
2.9795918367356475

$$$$
6tgu.A
     RDKit          3D

 32 34  0  0  0  0  0  0  0  0999 V2000
   -1.1650   20.7265   39.2302 C   0  0  0  0  0  0  0  0  0  0  0  0
   -0.3043   20.0581   40.3060 C   0  0  0  0  0  0  0  0  0  0  0  0
   -0.1330   20.6608   41.5502 C   0  0  0  0  0  0  0  0  0  0  0  0
    0.4834   19.9985   42.6169 C   0  0  0  0  0  0  0  0  0  0  0  0
    1.1084   18.7603   42.4101 C   0  0  0  0  0  0  0  0  0  0  0  0
    1.9174   16.7072   43.6726 C   0  0  0  0  0  0  0  0  0  0  0  0
    2.0590   14.5066   43.1130 C   0  0  0  0  0  0  0  0  0  0  0  0
    2.0205   13.3640   42.1997 C   0  0  0  0  0  0  0  0  0  0  0  0
    2.1385   12.0434   42.6560 C   0  0  0  0  0  0  0  0  0  0  0  0
    2.0655   10.9698   41.7740 C   0  0  0  0  0  0  0  0  0  0  0  0
    1.8290   11.2253   40.4364 C   0  0  0  0  0  0  0  0  0  0  0  0
    1.7005   12.5151   39.9433 C   0  0  0  0  0  0  0  0  0  0  0  0
    1.7879   13.5764   40.8400 C   0  0  0  0  0  0  0  0  0  0  0  0
    2.2285   14.3984   44.4680 C   0  0  0  0  0  0  0  0  0  0  0  0
    0.9363   18.1349   41.1670 C   0  0  0  0  0  0  0  0  0  0  0  0
    0.2458   18.7918   40.1468 C   0  0  0  0  0  0  0  0  0  0  0  0
    1.6860   18.0417   43.5016 N   0  0  0  0  0  0  0  0  0  0  0  0
    1.7855   15.8097   42.6343 N   0  0  0  0  0  0  0  0  0  0  0  0
   -1.8290   21.7431   39.5890 O   0  0  0  0  0  0  0  0  0  0  0  0
   -1.2062   20.1705   38.1109 O   0  0  0  0  0  0  0  0  0  0  0  0
   -0.0071   18.1288   38.9694 O   0  0  0  0  0  0  0  0  0  0  0  0
    2.0292   15.9265   45.2383 S   0  0  0  0  0  0  0  0  0  0  0  0
    1.6948    9.8966   39.3327 Cl  0  0  0  0  0  0  0  0  0  0  0  0
   -0.4937   21.6894   41.6983 H   0  0  0  0  0  0  0  0  0  0  0  0
    0.4778   20.4498   43.6200 H   0  0  0  0  0  0  0  0  0  0  0  0
    2.2913   11.8531   43.7286 H   0  0  0  0  0  0  0  0  0  0  0  0
    2.1933    9.9383   42.1340 H   0  0  0  0  0  0  0  0  0  0  0  0
    1.5336   12.6949   38.8711 H   0  0  0  0  0  0  0  0  0  0  0  0
    1.6712   14.6052   40.4686 H   0  0  0  0  0  0  0  0  0  0  0  0
    2.4608   13.4608   44.9942 H   0  0  0  0  0  0  0  0  0  0  0  0
    1.3447   17.1280   40.9958 H   0  0  0  0  0  0  0  0  0  0  0  0
    1.9774   18.6309   44.2946 H   0  0  0  0  0  0  0  0  0  0  0  0
  1  2  1  0
  1 19  1  0
  1 20  2  0
  2  3  1  0
  2 16  2  0
  3  4  2  0
  4  5  1  0
  5 15  2  0
  5 17  1  0
  6 17  1  0
  6 18  2  0
  6 22  1  0
  7  8  1  0
  7 14  2  0
  7 18  1  0
  8  9  1  0
  8 13  2  0
  9 10  2  0
 10 11  1  0
 11 12  2  0
 11 23  1  0
 12 13  1  0
 14 22  1  0
 15 16  1  0
 16 21  1  0
  3 24  1  0
  4 25  1  0
  9 26  1  0
 10 27  1  0
 12 28  1  0
 13 29  1  0
 14 30  1  0
 15 31  1  0
 17 32  1  0
M  CHG  2  19  -1  21  -1
M  END
>  <mol_id>  (57) 
2026-08-23-6tgu-s0-n100-r1-0057

>  <rmsd_to_ref>  (57) 
3.025510204082816

$$$$
6tgu.A
     RDKit          3D

 32 34  0  0  0  0  0  0  0  0999 V2000
    1.7586   20.4156   35.9295 C   0  0  0  0  0  0  0  0  0  0  0  0
    1.5409   19.7209   37.1910 C   0  0  0  0  0  0  0  0  0  0  0  0
    0.7254   20.2343   38.1733 C   0  0  0  0  0  0  0  0  0  0  0  0
    0.5245   19.5728   39.3642 C   0  0  0  0  0  0  0  0  0  0  0  0
    1.1405   18.3425   39.6375 C   0  0  0  0  0  0  0  0  0  0  0  0
    1.6740   16.8346   41.5756 C   0  0  0  0  0  0  0  0  0  0  0  0
    2.4684   15.3837   43.1034 C   0  0  0  0  0  0  0  0  0  0  0  0
    2.2510   14.6012   44.3191 C   0  0  0  0  0  0  0  0  0  0  0  0
    1.0504   14.6377   45.0090 C   0  0  0  0  0  0  0  0  0  0  0  0
    0.8931   13.8720   46.1551 C   0  0  0  0  0  0  0  0  0  0  0  0
    1.8921   13.0671   46.6412 C   0  0  0  0  0  0  0  0  0  0  0  0
    3.0901   13.0265   45.9584 C   0  0  0  0  0  0  0  0  0  0  0  0
    3.2321   13.7816   44.8374 C   0  0  0  0  0  0  0  0  0  0  0  0
    3.6797   15.3275   42.4173 C   0  0  0  0  0  0  0  0  0  0  0  0
    1.9456   17.8533   38.6441 C   0  0  0  0  0  0  0  0  0  0  0  0
    2.1568   18.5139   37.4352 C   0  0  0  0  0  0  0  0  0  0  0  0
    0.8585   17.7470   40.8594 N   0  0  0  0  0  0  0  0  0  0  0  0
    1.5905   16.1735   42.5537 N   0  0  0  0  0  0  0  0  0  0  0  0
    2.5748   19.8801   34.9681 O   0  0  0  0  0  0  0  0  0  0  0  0
    1.2015   21.5348   35.6772 O   0  0  0  0  0  0  0  0  0  0  0  0
    2.9959   17.9422   36.4794 O   0  0  0  0  0  0  0  0  0  0  0  0
    3.4310   16.4742   40.9693 S   0  0  0  0  0  0  0  0  0  0  0  0
    1.7190   12.0912   48.0827 Cl  0  0  0  0  0  0  0  0  0  0  0  0
    0.2523   21.1960   37.9511 H   0  0  0  0  0  0  0  0  0  0  0  0
   -0.1345   20.0203   40.1203 H   0  0  0  0  0  0  0  0  0  0  0  0
    0.2629   15.2739   44.6223 H   0  0  0  0  0  0  0  0  0  0  0  0
   -0.0387   13.9059   46.6806 H   0  0  0  0  0  0  0  0  0  0  0  0
    3.9216   12.4060   46.2932 H   0  0  0  0  0  0  0  0  0  0  0  0
    4.1958   13.7278   44.3161 H   0  0  0  0  0  0  0  0  0  0  0  0
    4.6008   14.7968   42.5800 H   0  0  0  0  0  0  0  0  0  0  0  0
    2.4393   16.9230   38.7674 H   0  0  0  0  0  0  0  0  0  0  0  0
   -0.0618   17.9791   41.3400 H   0  0  0  0  0  0  0  0  0  0  0  0
  1  2  1  0
  1 19  1  0
  1 20  2  0
  2  3  1  0
  2 16  2  0
  3  4  2  0
  4  5  1  0
  5 15  2  0
  5 17  1  0
  6 17  1  0
  6 18  2  0
  6 22  1  0
  7  8  1  0
  7 14  2  0
  7 18  1  0
  8  9  1  0
  8 13  2  0
  9 10  2  0
 10 11  1  0
 11 12  2  0
 11 23  1  0
 12 13  1  0
 14 22  1  0
 15 16  1  0
 16 21  1  0
  3 24  1  0
  4 25  1  0
  9 26  1  0
 10 27  1  0
 12 28  1  0
 13 29  1  0
 14 30  1  0
 15 31  1  0
 17 32  1  0
M  CHG  2  19  -1  21  -1
M  END
>  <mol_id>  (58) 
2026-08-23-6tgu-s0-n100-r1-0058

>  <rmsd_to_ref>  (58) 
3.0714285714316025

$$$$
6tgu.A
     RDKit          3D

 32 34  0  0  0  0  0  0  0  0999 V2000
    2.3751   17.0245   35.0476 C   0  0  0  0  0  0  0  0  0  0  0  0
    2.4362   17.8222   36.3532 C   0  0  0  0  0  0  0  0  0  0  0  0
    2.1958   19.1944   36.3555 C   0  0  0  0  0  0  0  0  0  0  0  0
    2.0553   19.9210   37.5424 C   0  0  0  0  0  0  0  0  0  0  0  0
    2.3287   19.3134   38.7765 C   0  0  0  0  0  0  0  0  0  0  0  0
    1.8715   19.5729   41.2639 C   0  0  0  0  0  0  0  0  0  0  0  0
    1.6204   18.0698   42.9530 C   0  0  0  0  0  0  0  0  0  0  0  0
    1.6732   16.7432   43.5682 C   0  0  0  0  0  0  0  0  0  0  0  0
    1.1966   16.5058   44.8653 C   0  0  0  0  0  0  0  0  0  0  0  0
    1.2256   15.2295   45.4185 C   0  0  0  0  0  0  0  0  0  0  0  0
    1.6948   14.1828   44.6472 C   0  0  0  0  0  0  0  0  0  0  0  0
    2.1701   14.3718   43.3583 C   0  0  0  0  0  0  0  0  0  0  0  0
    2.1434   15.6581   42.8267 C   0  0  0  0  0  0  0  0  0  0  0  0
    1.1282   19.1847   43.5783 C   0  0  0  0  0  0  0  0  0  0  0  0
    2.5615   17.9308   38.7928 C   0  0  0  0  0  0  0  0  0  0  0  0
    2.6167   17.2199   37.5926 C   0  0  0  0  0  0  0  0  0  0  0  0
    2.1283   20.0224   40.0006 N   0  0  0  0  0  0  0  0  0  0  0  0
    1.9701   18.2376   41.5922 N   0  0  0  0  0  0  0  0  0  0  0  0
    1.9382   17.6387   34.0302 O   0  0  0  0  0  0  0  0  0  0  0  0
    2.6833   15.8141   35.1079 O   0  0  0  0  0  0  0  0  0  0  0  0
    2.7410   15.8512   37.6256 O   0  0  0  0  0  0  0  0  0  0  0  0
    1.0463   20.5170   42.4891 S   0  0  0  0  0  0  0  0  0  0  0  0
    1.6988   12.5813   45.3080 Cl  0  0  0  0  0  0  0  0  0  0  0  0
    2.1139   19.7228   35.3943 H   0  0  0  0  0  0  0  0  0  0  0  0
    1.7298   20.9712   37.5078 H   0  0  0  0  0  0  0  0  0  0  0  0
    0.7933   17.3422   45.4550 H   0  0  0  0  0  0  0  0  0  0  0  0
    0.8820   15.0568   46.4491 H   0  0  0  0  0  0  0  0  0  0  0  0
    2.5585   13.5267   42.7709 H   0  0  0  0  0  0  0  0  0  0  0  0
    2.5007   15.8231   41.7995 H   0  0  0  0  0  0  0  0  0  0  0  0
    0.8255   19.2242   44.6351 H   0  0  0  0  0  0  0  0  0  0  0  0
    2.7004   17.4070   39.7500 H   0  0  0  0  0  0  0  0  0  0  0  0
    2.1876   21.0472   39.9155 H   0  0  0  0  0  0  0  0  0  0  0  0
  1  2  1  0
  1 19  1  0
  1 20  2  0
  2  3  1  0
  2 16  2  0
  3  4  2  0
  4  5  1  0
  5 15  2  0
  5 17  1  0
  6 17  1  0
  6 18  2  0
  6 22  1  0
  7  8  1  0
  7 14  2  0
  7 18  1  0
  8  9  1  0
  8 13  2  0
  9 10  2  0
 10 11  1  0
 11 12  2  0
 11 23  1  0
 12 13  1  0
 14 22  1  0
 15 16  1  0
 16 21  1  0
  3 24  1  0
  4 25  1  0
  9 26  1  0
 10 27  1  0
 12 28  1  0
 13 29  1  0
 14 30  1  0
 15 31  1  0
 17 32  1  0
M  CHG  2  19  -1  21  -1
M  END
>  <mol_id>  (59) 
2026-08-23-6tgu-s0-n100-r1-0059

>  <rmsd_to_ref>  (59) 
3.1173469387782298

$$$$
6tgu.A
     RDKit          3D

 32 34  0  0  0  0  0  0  0  0999 V2000
   -0.0881   20.3909   37.3572 C   0  0  0  0  0  0  0  0  0  0  0  0
   -0.0955   19.3999   38.4365 C   0  0  0  0  0  0  0  0  0  0  0  0
   -1.2925   19.0246   39.0167 C   0  0  0  0  0  0  0  0  0  0  0  0
   -1.3136   18.0909   40.0443 C   0  0  0  0  0  0  0  0  0  0  0  0
   -0.1600   17.5030   40.5274 C   0  0  0  0  0  0  0  0  0  0  0  0
    1.0646   16.0657   42.1087 C   0  0  0  0  0  0  0  0  0  0  0  0
    2.9390   15.0642   42.8544 C   0  0  0  0  0  0  0  0  0  0  0  0
    3.6925   13.7933   43.0231 C   0  0  0  0  0  0  0  0  0  0  0  0
    3.2057   12.5884   42.5969 C   0  0  0  0  0  0  0  0  0  0  0  0
    3.9223   11.4231   42.7795 C   0  0  0  0  0  0  0  0  0  0  0  0
    5.1603   11.4462   43.4030 C   0  0  0  0  0  0  0  0  0  0  0  0
    5.6697   12.6521   43.8400 C   0  0  0  0  0  0  0  0  0  0  0  0
    4.9253   13.7929   43.6395 C   0  0  0  0  0  0  0  0  0  0  0  0
    3.4390   16.2494   43.2942 C   0  0  0  0  0  0  0  0  0  0  0  0
    1.0274   17.8914   39.9335 C   0  0  0  0  0  0  0  0  0  0  0  0
    1.0638   18.8227   38.9067 C   0  0  0  0  0  0  0  0  0  0  0  0
   -0.1679   16.5563   41.5840 N   0  0  0  0  0  0  0  0  0  0  0  0
    1.7634   15.1234   42.2919 N   0  0  0  0  0  0  0  0  0  0  0  0
    1.1307   20.7429   36.8056 O   0  0  0  0  0  0  0  0  0  0  0  0
   -1.1454   20.9273   36.9192 O   0  0  0  0  0  0  0  0  0  0  0  0
    2.2611   19.2151   38.3063 O   0  0  0  0  0  0  0  0  0  0  0  0
    2.1224   17.4733   42.8574 S   0  0  0  0  0  0  0  0  0  0  0  0
    6.0877    9.9700   43.6493 Cl  0  0  0  0  0  0  0  0  0  0  0  0
   -2.2192   19.4689   38.6584 H   0  0  0  0  0  0  0  0  0  0  0  0
   -2.2533   17.7809   40.5158 H   0  0  0  0  0  0  0  0  0  0  0  0
    2.2506   12.5313   42.1100 H   0  0  0  0  0  0  0  0  0  0  0  0
    3.5019   10.5130   42.4321 H   0  0  0  0  0  0  0  0  0  0  0  0
    6.6292   12.7189   44.3306 H   0  0  0  0  0  0  0  0  0  0  0  0
    5.3533   14.7390   43.9963 H   0  0  0  0  0  0  0  0  0  0  0  0
    4.3444   16.5430   43.7826 H   0  0  0  0  0  0  0  0  0  0  0  0
    1.9868   17.4887   40.2392 H   0  0  0  0  0  0  0  0  0  0  0  0
   -1.0981   16.2435   41.9502 H   0  0  0  0  0  0  0  0  0  0  0  0
  1  2  1  0
  1 19  1  0
  1 20  2  0
  2  3  1  0
  2 16  2  0
  3  4  2  0
  4  5  1  0
  5 15  2  0
  5 17  1  0
  6 17  1  0
  6 18  2  0
  6 22  1  0
  7  8  1  0
  7 14  2  0
  7 18  1  0
  8  9  1  0
  8 13  2  0
  9 10  2  0
 10 11  1  0
 11 12  2  0
 11 23  1  0
 12 13  1  0
 14 22  1  0
 15 16  1  0
 16 21  1  0
  3 24  1  0
  4 25  1  0
  9 26  1  0
 10 27  1  0
 12 28  1  0
 13 29  1  0
 14 30  1  0
 15 31  1  0
 17 32  1  0
M  CHG  2  19  -1  21  -1
M  END
>  <mol_id>  (60) 
2026-08-23-6tgu-s0-n100-r1-0060

>  <rmsd_to_ref>  (60) 
3.1632653061267404

$$$$
6tgu.A
     RDKit          3D

 32 34  0  0  0  0  0  0  0  0999 V2000
    1.6072   21.8711   36.2444 C   0  0  0  0  0  0  0  0  0  0  0  0
    2.2259   20.9078   37.2612 C   0  0  0  0  0  0  0  0  0  0  0  0
    3.3776   21.2616   37.9606 C   0  0  0  0  0  0  0  0  0  0  0  0
    3.8625   20.4970   39.0268 C   0  0  0  0  0  0  0  0  0  0  0  0
    3.2951   19.2466   39.3119 C   0  0  0  0  0  0  0  0  0  0  0  0
    3.0963   17.5340   41.1802 C   0  0  0  0  0  0  0  0  0  0  0  0
    1.4570   16.0684   41.7638 C   0  0  0  0  0  0  0  0  0  0  0  0
    0.2090   15.3283   41.5744 C   0  0  0  0  0  0  0  0  0  0  0  0
   -0.3296   14.5102   42.5777 C   0  0  0  0  0  0  0  0  0  0  0  0
   -1.5352   13.8417   42.3888 C   0  0  0  0  0  0  0  0  0  0  0  0
   -2.2210   14.0329   41.2042 C   0  0  0  0  0  0  0  0  0  0  0  0
   -1.7278   14.8374   40.1880 C   0  0  0  0  0  0  0  0  0  0  0  0
   -0.5144   15.4887   40.3915 C   0  0  0  0  0  0  0  0  0  0  0  0
    2.2105   16.0193   42.9067 C   0  0  0  0  0  0  0  0  0  0  0  0
    2.1289   18.8804   38.6248 C   0  0  0  0  0  0  0  0  0  0  0  0
    1.6253   19.7065   37.6183 C   0  0  0  0  0  0  0  0  0  0  0  0
    3.7361   18.4829   40.4360 N   0  0  0  0  0  0  0  0  0  0  0  0
    1.8877   16.9986   40.7884 N   0  0  0  0  0  0  0  0  0  0  0  0
    2.0930   23.0397   36.2050 O   0  0  0  0  0  0  0  0  0  0  0  0
    0.6236   21.4542   35.5943 O   0  0  0  0  0  0  0  0  0  0  0  0
    0.4265   19.3903   37.0244 O   0  0  0  0  0  0  0  0  0  0  0  0
    3.4998   17.1603   42.8448 S   0  0  0  0  0  0  0  0  0  0  0  0
   -3.7434   13.2395   40.9712 Cl  0  0  0  0  0  0  0  0  0  0  0  0
    3.9225   22.1704   37.6653 H   0  0  0  0  0  0  0  0  0  0  0  0
    4.6907   20.8772   39.6429 H   0  0  0  0  0  0  0  0  0  0  0  0
    0.2097   14.3949   43.5295 H   0  0  0  0  0  0  0  0  0  0  0  0
   -1.9345   13.1744   43.1668 H   0  0  0  0  0  0  0  0  0  0  0  0
   -2.2813   14.9578   39.2450 H   0  0  0  0  0  0  0  0  0  0  0  0
   -0.1169   16.1443   39.6027 H   0  0  0  0  0  0  0  0  0  0  0  0
    2.0180   15.3416   43.7515 H   0  0  0  0  0  0  0  0  0  0  0  0
    1.6116   17.9434   38.8785 H   0  0  0  0  0  0  0  0  0  0  0  0
    4.7010   18.6824   40.7359 H   0  0  0  0  0  0  0  0  0  0  0  0
  1  2  1  0
  1 19  1  0
  1 20  2  0
  2  3  1  0
  2 16  2  0
  3  4  2  0
  4  5  1  0
  5 15  2  0
  5 17  1  0
  6 17  1  0
  6 18  2  0
  6 22  1  0
  7  8  1  0
  7 14  2  0
  7 18  1  0
  8  9  1  0
  8 13  2  0
  9 10  2  0
 10 11  1  0
 11 12  2  0
 11 23  1  0
 12 13  1  0
 14 22  1  0
 15 16  1  0
 16 21  1  0
  3 24  1  0
  4 25  1  0
  9 26  1  0
 10 27  1  0
 12 28  1  0
 13 29  1  0
 14 30  1  0
 15 31  1  0
 17 32  1  0
M  CHG  2  19  -1  21  -1
M  END
>  <mol_id>  (61) 
2026-08-23-6tgu-s0-n100-r1-0061

>  <rmsd_to_ref>  (61) 
3.2091836734714727

$$$$
6tgu.A
     RDKit          3D

 32 34  0  0  0  0  0  0  0  0999 V2000
    5.0633   22.4378   40.8365 C   0  0  0  0  0  0  0  0  0  0  0  0
    4.4624   21.1153   40.9579 C   0  0  0  0  0  0  0  0  0  0  0  0
    4.4039   20.4796   42.1598 C   0  0  0  0  0  0  0  0  0  0  0  0
    3.8248   19.2124   42.2608 C   0  0  0  0  0  0  0  0  0  0  0  0
    3.2948   18.5523   41.1840 C   0  0  0  0  0  0  0  0  0  0  0  0
    1.9858   16.6978   42.2934 C   0  0  0  0  0  0  0  0  0  0  0  0
    0.8555   15.3153   43.6489 C   0  0  0  0  0  0  0  0  0  0  0  0
    0.2569   14.0034   43.8641 C   0  0  0  0  0  0  0  0  0  0  0  0
    0.2967   12.9980   42.9055 C   0  0  0  0  0  0  0  0  0  0  0  0
   -0.2773   11.7531   43.1238 C   0  0  0  0  0  0  0  0  0  0  0  0
   -0.9131   11.4745   44.3165 C   0  0  0  0  0  0  0  0  0  0  0  0
   -0.9635   12.4608   45.2817 C   0  0  0  0  0  0  0  0  0  0  0  0
   -0.3853   13.6900   45.0406 C   0  0  0  0  0  0  0  0  0  0  0  0
    0.8153   16.3112   44.6020 C   0  0  0  0  0  0  0  0  0  0  0  0
    3.3720   19.2358   39.9601 C   0  0  0  0  0  0  0  0  0  0  0  0
    3.9393   20.4793   39.8542 C   0  0  0  0  0  0  0  0  0  0  0  0
    2.6815   17.3028   41.1759 N   0  0  0  0  0  0  0  0  0  0  0  0
    1.4893   15.7162   42.5649 N   0  0  0  0  0  0  0  0  0  0  0  0
    5.5842   23.0588   41.9670 O   0  0  0  0  0  0  0  0  0  0  0  0
    5.1028   23.0063   39.6974 O   0  0  0  0  0  0  0  0  0  0  0  0
    4.0144   21.1538   38.6423 O   0  0  0  0  0  0  0  0  0  0  0  0
    1.7008   17.7481   43.8459 S   0  0  0  0  0  0  0  0  0  0  0  0
   -1.6502    9.9195   44.6345 Cl  0  0  0  0  0  0  0  0  0  0  0  0
    4.8163   20.9841   43.0228 H   0  0  0  0  0  0  0  0  0  0  0  0
    3.8326   18.7773   43.2403 H   0  0  0  0  0  0  0  0  0  0  0  0
    0.7980   13.2121   41.9616 H   0  0  0  0  0  0  0  0  0  0  0  0
   -0.2170   11.0100   42.3464 H   0  0  0  0  0  0  0  0  0  0  0  0
   -1.4600   12.2402   46.2089 H   0  0  0  0  0  0  0  0  0  0  0  0
   -0.4501   14.4400   45.8356 H   0  0  0  0  0  0  0  0  0  0  0  0
    0.3788   16.3629   45.6341 H   0  0  0  0  0  0  0  0  0  0  0  0
    2.9738   18.7767   39.0658 H   0  0  0  0  0  0  0  0  0  0  0  0
    2.7001   16.7246   40.3234 H   0  0  0  0  0  0  0  0  0  0  0  0
  1  2  1  0
  1 19  1  0
  1 20  2  0
  2  3  1  0
  2 16  2  0
  3  4  2  0
  4  5  1  0
  5 15  2  0
  5 17  1  0
  6 17  1  0
  6 18  2  0
  6 22  1  0
  7  8  1  0
  7 14  2  0
  7 18  1  0
  8  9  1  0
  8 13  2  0
  9 10  2  0
 10 11  1  0
 11 12  2  0
 11 23  1  0
 12 13  1  0
 14 22  1  0
 15 16  1  0
 16 21  1  0
  3 24  1  0
  4 25  1  0
  9 26  1  0
 10 27  1  0
 12 28  1  0
 13 29  1  0
 14 30  1  0
 15 31  1  0
 17 32  1  0
M  CHG  2  19  -1  21  -1
M  END
>  <mol_id>  (62) 
2026-08-23-6tgu-s0-n100-r1-0062

>  <rmsd_to_ref>  (62) 
3.2551020408187146

$$$$
6tgu.A
     RDKit          3D

 32 34  0  0  0  0  0  0  0  0999 V2000
    0.7820   19.2526   37.5790 C   0  0  0  0  0  0  0  0  0  0  0  0
    1.6389   18.8099   38.7682 C   0  0  0  0  0  0  0  0  0  0  0  0
    2.7482   19.5572   39.1578 C   0  0  0  0  0  0  0  0  0  0  0  0
    3.4399   19.2948   40.3448 C   0  0  0  0  0  0  0  0  0  0  0  0
    3.1390   18.1498   41.0967 C   0  0  0  0  0  0  0  0  0  0  0  0
    3.3942   17.1838   43.4344 C   0  0  0  0  0  0  0  0  0  0  0  0
    2.1041   15.7786   44.6741 C   0  0  0  0  0  0  0  0  0  0  0  0
    1.0080   14.8363   44.9013 C   0  0  0  0  0  0  0  0  0  0  0  0
    0.7028   14.3451   46.1787 C   0  0  0  0  0  0  0  0  0  0  0  0
   -0.3652   13.4757   46.3773 C   0  0  0  0  0  0  0  0  0  0  0  0
   -1.1538   13.1356   45.2943 C   0  0  0  0  0  0  0  0  0  0  0  0
   -0.8914   13.6028   44.0153 C   0  0  0  0  0  0  0  0  0  0  0  0
    0.1886   14.4626   43.8350 C   0  0  0  0  0  0  0  0  0  0  0  0
    2.9294   16.2461   45.6625 C   0  0  0  0  0  0  0  0  0  0  0  0
    2.0188   17.3930   40.7246 C   0  0  0  0  0  0  0  0  0  0  0  0
    1.3012   17.7302   39.5755 C   0  0  0  0  0  0  0  0  0  0  0  0
    3.7915   17.9016   42.3432 N   0  0  0  0  0  0  0  0  0  0  0  0
    2.2844   16.3667   43.3998 N   0  0  0  0  0  0  0  0  0  0  0  0
    1.0350   20.3947   37.0944 O   0  0  0  0  0  0  0  0  0  0  0  0
   -0.1473   18.4899   37.2348 O   0  0  0  0  0  0  0  0  0  0  0  0
    0.1459   17.0470   39.2783 O   0  0  0  0  0  0  0  0  0  0  0  0
    3.9733   17.4783   45.0627 S   0  0  0  0  0  0  0  0  0  0  0  0
   -2.5117   12.0866   45.5336 Cl  0  0  0  0  0  0  0  0  0  0  0  0
    3.0906   20.3791   38.5119 H   0  0  0  0  0  0  0  0  0  0  0  0
    4.2215   19.9879   40.6893 H   0  0  0  0  0  0  0  0  0  0  0  0
    1.3177   14.6520   47.0376 H   0  0  0  0  0  0  0  0  0  0  0  0
   -0.5777   13.0672   47.3763 H   0  0  0  0  0  0  0  0  0  0  0  0
   -1.5205   13.3015   43.1647 H   0  0  0  0  0  0  0  0  0  0  0  0
    0.4008   14.8562   42.8300 H   0  0  0  0  0  0  0  0  0  0  0  0
    2.9260   15.8830   46.7008 H   0  0  0  0  0  0  0  0  0  0  0  0
    1.7058   16.5348   41.3373 H   0  0  0  0  0  0  0  0  0  0  0  0
    4.7197   18.3387   42.4341 H   0  0  0  0  0  0  0  0  0  0  0  0
  1  2  1  0
  1 19  1  0
  1 20  2  0
  2  3  1  0
  2 16  2  0
  3  4  2  0
  4  5  1  0
  5 15  2  0
  5 17  1  0
  6 17  1  0
  6 18  2  0
  6 22  1  0
  7  8  1  0
  7 14  2  0
  7 18  1  0
  8  9  1  0
  8 13  2  0
  9 10  2  0
 10 11  1  0
 11 12  2  0
 11 23  1  0
 12 13  1  0
 14 22  1  0
 15 16  1  0
 16 21  1  0
  3 24  1  0
  4 25  1  0
  9 26  1  0
 10 27  1  0
 12 28  1  0
 13 29  1  0
 14 30  1  0
 15 31  1  0
 17 32  1  0
M  CHG  2  19  -1  21  -1
M  END
>  <mol_id>  (63) 
2026-08-23-6tgu-s0-n100-r1-0063

>  <rmsd_to_ref>  (63) 
3.3010204081647805

$$$$
6tgu.A
     RDKit          3D

 32 34  0  0  0  0  0  0  0  0999 V2000
    1.6058   22.5192   39.1468 C   0  0  0  0  0  0  0  0  0  0  0  0
    1.6903   21.2721   39.9365 C   0  0  0  0  0  0  0  0  0  0  0  0
    1.3320   20.0877   39.3208 C   0  0  0  0  0  0  0  0  0  0  0  0
    1.4077   18.9182   40.0587 C   0  0  0  0  0  0  0  0  0  0  0  0
    1.8292   18.9312   41.3763 C   0  0  0  0  0  0  0  0  0  0  0  0
    1.7769   16.4312   41.5641 C   0  0  0  0  0  0  0  0  0  0  0  0
    2.0527   14.3387   40.7964 C   0  0  0  0  0  0  0  0  0  0  0  0
    2.9332   13.1853   40.6290 C   0  0  0  0  0  0  0  0  0  0  0  0
    2.4831   12.0357   40.0053 C   0  0  0  0  0  0  0  0  0  0  0  0
    3.3202   10.9498   39.8632 C   0  0  0  0  0  0  0  0  0  0  0  0
    4.6216   10.9235   40.3131 C   0  0  0  0  0  0  0  0  0  0  0  0
    5.0753   12.0809   40.9408 C   0  0  0  0  0  0  0  0  0  0  0  0
    4.2362   13.1639   41.0812 C   0  0  0  0  0  0  0  0  0  0  0  0
    0.7219   14.3288   40.3526 C   0  0  0  0  0  0  0  0  0  0  0  0
    2.1926   20.1266   42.0039 C   0  0  0  0  0  0  0  0  0  0  0  0
    2.1215   21.3182   41.2675 C   0  0  0  0  0  0  0  0  0  0  0  0
    1.9088   17.7635   42.1387 N   0  0  0  0  0  0  0  0  0  0  0  0
    2.3703   15.4827   41.3705 N   0  0  0  0  0  0  0  0  0  0  0  0
    1.9708   23.7246   39.7577 O   0  0  0  0  0  0  0  0  0  0  0  0
    1.2119   22.4851   37.9438 O   0  0  0  0  0  0  0  0  0  0  0  0
    2.4794   22.5427   41.8586 O   0  0  0  0  0  0  0  0  0  0  0  0
    0.0837   15.9813   40.8214 S   0  0  0  0  0  0  0  0  0  0  0  0
    5.6873    9.5714   40.1447 Cl  0  0  0  0  0  0  0  0  0  0  0  0
    0.9953   20.0869   38.2707 H   0  0  0  0  0  0  0  0  0  0  0  0
    1.1215   17.9768   39.5614 H   0  0  0  0  0  0  0  0  0  0  0  0
    1.4728   12.0121   39.6375 H   0  0  0  0  0  0  0  0  0  0  0  0
    2.9457   10.0480   39.3663 H   0  0  0  0  0  0  0  0  0  0  0  0
    6.0662   12.1592   41.3237 H   0  0  0  0  0  0  0  0  0  0  0  0
    4.5984   14.0539   41.5700 H   0  0  0  0  0  0  0  0  0  0  0  0
    0.1429   13.5695   39.8483 H   0  0  0  0  0  0  0  0  0  0  0  0
    2.5260   20.1436   43.0439 H   0  0  0  0  0  0  0  0  0  0  0  0
    2.0674   17.7656   43.1635 H   0  0  0  0  0  0  0  0  0  0  0  0
  1  2  1  0
  1 19  1  0
  1 20  2  0
  2  3  1  0
  2 16  2  0
  3  4  2  0
  4  5  1  0
  5 15  2  0
  5 17  1  0
  6 17  1  0
  6 18  2  0
  6 22  1  0
  7  8  1  0
  7 14  2  0
  7 18  1  0
  8  9  1  0
  8 13  2  0
  9 10  2  0
 10 11  1  0
 11 12  2  0
 11 23  1  0
 12 13  1  0
 14 22  1  0
 15 16  1  0
 16 21  1  0
  3 24  1  0
  4 25  1  0
  9 26  1  0
 10 27  1  0
 12 28  1  0
 13 29  1  0
 14 30  1  0
 15 31  1  0
 17 32  1  0
M  CHG  2  19  -1  21  -1
M  END
>  <mol_id>  (64) 
2026-08-23-6tgu-s0-n100-r1-0064

>  <rmsd_to_ref>  (64) 
3.346938775512864

$$$$
6tgu.A
     RDKit          3D

 32 34  0  0  0  0  0  0  0  0999 V2000
    5.9390   19.2659   41.9969 C   0  0  0  0  0  0  0  0  0  0  0  0
    4.4650   18.9421   41.7379 C   0  0  0  0  0  0  0  0  0  0  0  0
    3.6953   19.7603   40.9140 C   0  0  0  0  0  0  0  0  0  0  0  0
    2.4084   19.3984   40.5023 C   0  0  0  0  0  0  0  0  0  0  0  0
    1.7835   18.2709   41.0546 C   0  0  0  0  0  0  0  0  0  0  0  0
   -0.1005   16.6238   40.6063 C   0  0  0  0  0  0  0  0  0  0  0  0
   -0.3753   14.4201   41.1000 C   0  0  0  0  0  0  0  0  0  0  0  0
   -0.0415   13.1547   41.7546 C   0  0  0  0  0  0  0  0  0  0  0  0
   -0.7318   11.9673   41.4728 C   0  0  0  0  0  0  0  0  0  0  0  0
   -0.3758   10.7680   42.0818 C   0  0  0  0  0  0  0  0  0  0  0  0
    0.7055   10.7567   42.9426 C   0  0  0  0  0  0  0  0  0  0  0  0
    1.4195   11.9064   43.2451 C   0  0  0  0  0  0  0  0  0  0  0  0
    1.0407   13.0987   42.6342 C   0  0  0  0  0  0  0  0  0  0  0  0
   -1.3832   14.5657   40.1837 C   0  0  0  0  0  0  0  0  0  0  0  0
    2.5478   17.4308   41.8768 C   0  0  0  0  0  0  0  0  0  0  0  0
    3.8585   17.7821   42.2048 C   0  0  0  0  0  0  0  0  0  0  0  0
    0.4962   17.8517   40.5982 N   0  0  0  0  0  0  0  0  0  0  0  0
    0.4396   15.5599   41.2970 N   0  0  0  0  0  0  0  0  0  0  0  0
    6.4436   20.1962   41.3019 O   0  0  0  0  0  0  0  0  0  0  0  0
    6.5451   18.5362   42.8117 O   0  0  0  0  0  0  0  0  0  0  0  0
    4.6318   16.9021   42.9242 O   0  0  0  0  0  0  0  0  0  0  0  0
   -1.3594   16.1407   39.4860 S   0  0  0  0  0  0  0  0  0  0  0  0
    1.1859    9.2628   43.6769 Cl  0  0  0  0  0  0  0  0  0  0  0  0
    4.1125   20.7206   40.5768 H   0  0  0  0  0  0  0  0  0  0  0  0
    1.8855   19.9995   39.7439 H   0  0  0  0  0  0  0  0  0  0  0  0
   -1.5683   11.9841   40.7586 H   0  0  0  0  0  0  0  0  0  0  0  0
   -0.9436    9.8472   41.8822 H   0  0  0  0  0  0  0  0  0  0  0  0
    2.2637   11.8770   43.9497 H   0  0  0  0  0  0  0  0  0  0  0  0
    1.6069   14.0168   42.8496 H   0  0  0  0  0  0  0  0  0  0  0  0
   -2.1107   13.7814   39.9275 H   0  0  0  0  0  0  0  0  0  0  0  0
    2.1151   16.4960   42.2630 H   0  0  0  0  0  0  0  0  0  0  0  0
   -0.0798   18.6040   40.1942 H   0  0  0  0  0  0  0  0  0  0  0  0
  1  2  1  0
  1 19  1  0
  1 20  2  0
  2  3  1  0
  2 16  2  0
  3  4  2  0
  4  5  1  0
  5 15  2  0
  5 17  1  0
  6 17  1  0
  6 18  2  0
  6 22  1  0
  7  8  1  0
  7 14  2  0
  7 18  1  0
  8  9  1  0
  8 13  2  0
  9 10  2  0
 10 11  1  0
 11 12  2  0
 11 23  1  0
 12 13  1  0
 14 22  1  0
 15 16  1  0
 16 21  1  0
  3 24  1  0
  4 25  1  0
  9 26  1  0
 10 27  1  0
 12 28  1  0
 13 29  1  0
 14 30  1  0
 15 31  1  0
 17 32  1  0
M  CHG  2  19  -1  21  -1
M  END
>  <mol_id>  (65) 
2026-08-23-6tgu-s0-n100-r1-0065

>  <rmsd_to_ref>  (65) 
3.3928571428608265

$$$$
6tgu.A
     RDKit          3D

 32 34  0  0  0  0  0  0  0  0999 V2000
   -0.8718   21.2818   36.8189 C   0  0  0  0  0  0  0  0  0  0  0  0
   -0.7594   20.4363   37.9839 C   0  0  0  0  0  0  0  0  0  0  0  0
   -1.8381   20.0135   38.7399 C   0  0  0  0  0  0  0  0  0  0  0  0
   -1.6653   19.1994   39.8506 C   0  0  0  0  0  0  0  0  0  0  0  0
   -0.4042   18.7702   40.2569 C   0  0  0  0  0  0  0  0  0  0  0  0
    0.6774   16.9656   41.6501 C   0  0  0  0  0  0  0  0  0  0  0  0
    1.9748   15.3566   42.5287 C   0  0  0  0  0  0  0  0  0  0  0  0
    2.2899   14.4979   43.6915 C   0  0  0  0  0  0  0  0  0  0  0  0
    1.5737   14.5671   44.8669 C   0  0  0  0  0  0  0  0  0  0  0  0
    1.8536   13.7753   45.9612 C   0  0  0  0  0  0  0  0  0  0  0  0
    2.9044   12.8594   45.8914 C   0  0  0  0  0  0  0  0  0  0  0  0
    3.6263   12.7867   44.7113 C   0  0  0  0  0  0  0  0  0  0  0  0
    3.3189   13.5942   43.6359 C   0  0  0  0  0  0  0  0  0  0  0  0
    2.6763   15.2927   41.3714 C   0  0  0  0  0  0  0  0  0  0  0  0
    0.6520   19.1971   39.5000 C   0  0  0  0  0  0  0  0  0  0  0  0
    0.4868   20.0123   38.3861 C   0  0  0  0  0  0  0  0  0  0  0  0
   -0.3399   17.9702   41.4016 N   0  0  0  0  0  0  0  0  0  0  0  0
    1.0144   16.2574   42.4660 N   0  0  0  0  0  0  0  0  0  0  0  0
   -2.1433   21.6997   36.4300 O   0  0  0  0  0  0  0  0  0  0  0  0
    0.1441   21.6142   36.1984 O   0  0  0  0  0  0  0  0  0  0  0  0
    1.6115   20.4183   37.6459 O   0  0  0  0  0  0  0  0  0  0  0  0
    1.8908   16.5529   40.2595 S   0  0  0  0  0  0  0  0  0  0  0  0
    3.3208   11.8217   47.2394 Cl  0  0  0  0  0  0  0  0  0  0  0  0
   -2.8210   20.3338   38.4421 H   0  0  0  0  0  0  0  0  0  0  0  0
   -2.5639   18.9109   40.3909 H   0  0  0  0  0  0  0  0  0  0  0  0
    0.7392   15.2722   44.9686 H   0  0  0  0  0  0  0  0  0  0  0  0
    1.2726   13.8613   46.8532 H   0  0  0  0  0  0  0  0  0  0  0  0
    4.4530   12.0988   44.5880 H   0  0  0  0  0  0  0  0  0  0  0  0
    3.9056   13.5166   42.7155 H   0  0  0  0  0  0  0  0  0  0  0  0
    3.5526   14.6766   41.0127 H   0  0  0  0  0  0  0  0  0  0  0  0
    1.6638   18.9322   39.7403 H   0  0  0  0  0  0  0  0  0  0  0  0
   -1.0377   18.0655   42.1431 H   0  0  0  0  0  0  0  0  0  0  0  0
  1  2  1  0
  1 19  1  0
  1 20  2  0
  2  3  1  0
  2 16  2  0
  3  4  2  0
  4  5  1  0
  5 15  2  0
  5 17  1  0
  6 17  1  0
  6 18  2  0
  6 22  1  0
  7  8  1  0
  7 14  2  0
  7 18  1  0
  8  9  1  0
  8 13  2  0
  9 10  2  0
 10 11  1  0
 11 12  2  0
 11 23  1  0
 12 13  1  0
 14 22  1  0
 15 16  1  0
 16 21  1  0
  3 24  1  0
  4 25  1  0
  9 26  1  0
 10 27  1  0
 12 28  1  0
 13 29  1  0
 14 30  1  0
 15 31  1  0
 17 32  1  0
M  CHG  2  19  -1  21  -1
M  END
>  <mol_id>  (66) 
2026-08-23-6tgu-s0-n100-r1-0066

>  <rmsd_to_ref>  (66) 
3.4387755102091946

$$$$
6tgu.A
     RDKit          3D

 32 34  0  0  0  0  0  0  0  0999 V2000
    0.5445   21.1828   36.3969 C   0  0  0  0  0  0  0  0  0  0  0  0
    1.1871   20.1741   37.3531 C   0  0  0  0  0  0  0  0  0  0  0  0
    2.4538   20.4096   37.8829 C   0  0  0  0  0  0  0  0  0  0  0  0
    2.9926   19.6139   38.8993 C   0  0  0  0  0  0  0  0  0  0  0  0
    2.3374   18.4391   39.2959 C   0  0  0  0  0  0  0  0  0  0  0  0
    2.2086   16.7906   41.2270 C   0  0  0  0  0  0  0  0  0  0  0  0
    0.5146   15.5259   42.0676 C   0  0  0  0  0  0  0  0  0  0  0  0
   -0.8199   14.9258   42.0679 C   0  0  0  0  0  0  0  0  0  0  0  0
   -1.3035   14.1894   43.1587 C   0  0  0  0  0  0  0  0  0  0  0  0
   -2.5885   13.6557   43.1517 C   0  0  0  0  0  0  0  0  0  0  0  0
   -3.4029   13.9019   42.0624 C   0  0  0  0  0  0  0  0  0  0  0  0
   -2.9672   14.6296   40.9652 C   0  0  0  0  0  0  0  0  0  0  0  0
   -1.6744   15.1456   40.9863 C   0  0  0  0  0  0  0  0  0  0  0  0
    1.4053   15.4127   43.1021 C   0  0  0  0  0  0  0  0  0  0  0  0
    1.0568   18.1930   38.7805 C   0  0  0  0  0  0  0  0  0  0  0  0
    0.5142   19.0529   37.8238 C   0  0  0  0  0  0  0  0  0  0  0  0
    2.8408   17.6502   40.3754 N   0  0  0  0  0  0  0  0  0  0  0  0
    0.9077   16.3862   41.0152 N   0  0  0  0  0  0  0  0  0  0  0  0
    1.1436   22.2895   36.2571 O   0  0  0  0  0  0  0  0  0  0  0  0
   -0.5567   20.8668   35.8957 O   0  0  0  0  0  0  0  0  0  0  0  0
   -0.7806   18.8617   37.4035 O   0  0  0  0  0  0  0  0  0  0  0  0
    2.7898   16.4024   42.8348 S   0  0  0  0  0  0  0  0  0  0  0  0
   -5.0193   13.2784   42.0574 Cl  0  0  0  0  0  0  0  0  0  0  0  0
    3.0486   21.2472   37.4898 H   0  0  0  0  0  0  0  0  0  0  0  0
    3.9322   19.9102   39.3885 H   0  0  0  0  0  0  0  0  0  0  0  0
   -0.6566   14.0310   44.0341 H   0  0  0  0  0  0  0  0  0  0  0  0
   -2.9490   13.0500   43.9961 H   0  0  0  0  0  0  0  0  0  0  0  0
   -3.6264   14.7948   40.1003 H   0  0  0  0  0  0  0  0  0  0  0  0
   -1.3184   15.7397   40.1318 H   0  0  0  0  0  0  0  0  0  0  0  0
    1.2564   14.7748   43.9858 H   0  0  0  0  0  0  0  0  0  0  0  0
    0.4804   17.3236   39.1296 H   0  0  0  0  0  0  0  0  0  0  0  0
    3.8532   17.7463   40.5391 H   0  0  0  0  0  0  0  0  0  0  0  0
  1  2  1  0
  1 19  1  0
  1 20  2  0
  2  3  1  0
  2 16  2  0
  3  4  2  0
  4  5  1  0
  5 15  2  0
  5 17  1  0
  6 17  1  0
  6 18  2  0
  6 22  1  0
  7  8  1  0
  7 14  2  0
  7 18  1  0
  8  9  1  0
  8 13  2  0
  9 10  2  0
 10 11  1  0
 11 12  2  0
 11 23  1  0
 12 13  1  0
 14 22  1  0
 15 16  1  0
 16 21  1  0
  3 24  1  0
  4 25  1  0
  9 26  1  0
 10 27  1  0
 12 28  1  0
 13 29  1  0
 14 30  1  0
 15 31  1  0
 17 32  1  0
M  CHG  2  19  -1  21  -1
M  END
>  <mol_id>  (67) 
2026-08-23-6tgu-s0-n100-r1-0067

>  <rmsd_to_ref>  (67) 
3.4846938775538066

$$$$
6tgu.A
     RDKit          3D

 32 34  0  0  0  0  0  0  0  0999 V2000
    2.9845   19.9546   37.2289 C   0  0  0  0  0  0  0  0  0  0  0  0
    3.0850   19.1475   38.4352 C   0  0  0  0  0  0  0  0  0  0  0  0
    2.8336   17.7953   38.4426 C   0  0  0  0  0  0  0  0  0  0  0  0
    2.9446   17.0603   39.6235 C   0  0  0  0  0  0  0  0  0  0  0  0
    3.3004   17.6192   40.8223 C   0  0  0  0  0  0  0  0  0  0  0  0
    2.8807   15.7520   42.4585 C   0  0  0  0  0  0  0  0  0  0  0  0
    2.3384   13.9242   43.6675 C   0  0  0  0  0  0  0  0  0  0  0  0
    2.4741   13.1789   44.9272 C   0  0  0  0  0  0  0  0  0  0  0  0
    3.2374   13.6292   45.9812 C   0  0  0  0  0  0  0  0  0  0  0  0
    3.3832   12.9511   47.1716 C   0  0  0  0  0  0  0  0  0  0  0  0
    2.7195   11.7506   47.3026 C   0  0  0  0  0  0  0  0  0  0  0  0
    1.9401   11.2597   46.2662 C   0  0  0  0  0  0  0  0  0  0  0  0
    1.8231   11.9767   45.0871 C   0  0  0  0  0  0  0  0  0  0  0  0
    1.5612   13.4717   42.6029 C   0  0  0  0  0  0  0  0  0  0  0  0
    3.5509   19.0015   40.7825 C   0  0  0  0  0  0  0  0  0  0  0  0
    3.4434   19.7291   39.6234 C   0  0  0  0  0  0  0  0  0  0  0  0
    3.4238   16.9908   42.0512 N   0  0  0  0  0  0  0  0  0  0  0  0
    2.9177   15.0673   43.4209 N   0  0  0  0  0  0  0  0  0  0  0  0
    2.6147   19.3603   36.0069 O   0  0  0  0  0  0  0  0  0  0  0  0
    3.2315   21.1860   37.2905 O   0  0  0  0  0  0  0  0  0  0  0  0
    3.7013   21.0949   39.6330 O   0  0  0  0  0  0  0  0  0  0  0  0
    1.7508   14.7529   41.3521 S   0  0  0  0  0  0  0  0  0  0  0  0
    2.8125   10.7817   48.7533 Cl  0  0  0  0  0  0  0  0  0  0  0  0
    2.5466   17.2994   37.5252 H   0  0  0  0  0  0  0  0  0  0  0  0
    2.7473   16.0230   39.5492 H   0  0  0  0  0  0  0  0  0  0  0  0
    3.7648   14.5753   45.8876 H   0  0  0  0  0  0  0  0  0  0  0  0
    3.9942   13.3277   47.9970 H   0  0  0  0  0  0  0  0  0  0  0  0
    1.4024   10.3066   46.3454 H   0  0  0  0  0  0  0  0  0  0  0  0
    1.2156   11.5770   44.3015 H   0  0  0  0  0  0  0  0  0  0  0  0
    0.9334   12.5243   42.4936 H   0  0  0  0  0  0  0  0  0  0  0  0
    3.8385   19.5327   41.6777 H   0  0  0  0  0  0  0  0  0  0  0  0
    3.9948   17.4779   42.7976 H   0  0  0  0  0  0  0  0  0  0  0  0
  1  2  1  0
  1 19  1  0
  1 20  2  0
  2  3  1  0
  2 16  2  0
  3  4  2  0
  4  5  1  0
  5 15  2  0
  5 17  1  0
  6 17  1  0
  6 18  2  0
  6 22  1  0
  7  8  1  0
  7 14  2  0
  7 18  1  0
  8  9  1  0
  8 13  2  0
  9 10  2  0
 10 11  1  0
 11 12  2  0
 11 23  1  0
 12 13  1  0
 14 22  1  0
 15 16  1  0
 16 21  1  0
  3 24  1  0
  4 25  1  0
  9 26  1  0
 10 27  1  0
 12 28  1  0
 13 29  1  0
 14 30  1  0
 15 31  1  0
 17 32  1  0
M  CHG  2  19  -1  21  -1
M  END
>  <mol_id>  (68) 
2026-08-23-6tgu-s0-n100-r1-0068

>  <rmsd_to_ref>  (68) 
3.5306122448992925

$$$$
6tgu.A
     RDKit          3D

 32 34  0  0  0  0  0  0  0  0999 V2000
    2.8475   22.7661   41.9758 C   0  0  0  0  0  0  0  0  0  0  0  0
    1.8443   21.6268   42.1767 C   0  0  0  0  0  0  0  0  0  0  0  0
    0.4940   21.9013   42.3815 C   0  0  0  0  0  0  0  0  0  0  0  0
   -0.4766   20.8942   42.3792 C   0  0  0  0  0  0  0  0  0  0  0  0
   -0.0922   19.5459   42.3439 C   0  0  0  0  0  0  0  0  0  0  0  0
   -0.9958   17.2358   41.7871 C   0  0  0  0  0  0  0  0  0  0  0  0
   -0.0260   15.3620   40.9360 C   0  0  0  0  0  0  0  0  0  0  0  0
    1.0959   14.5213   40.5170 C   0  0  0  0  0  0  0  0  0  0  0  0
    0.9026   13.2852   39.8840 C   0  0  0  0  0  0  0  0  0  0  0  0
    1.9839   12.5171   39.4634 C   0  0  0  0  0  0  0  0  0  0  0  0
    3.2607   13.0157   39.6411 C   0  0  0  0  0  0  0  0  0  0  0  0
    3.4970   14.2355   40.2570 C   0  0  0  0  0  0  0  0  0  0  0  0
    2.4025   14.9840   40.6811 C   0  0  0  0  0  0  0  0  0  0  0  0
   -1.3423   15.0210   40.7701 C   0  0  0  0  0  0  0  0  0  0  0  0
    1.2617   19.2525   42.1270 C   0  0  0  0  0  0  0  0  0  0  0  0
    2.1956   20.2877   42.0548 C   0  0  0  0  0  0  0  0  0  0  0  0
   -1.0717   18.5081   42.2763 N   0  0  0  0  0  0  0  0  0  0  0  0
    0.2086   16.6662   41.4324 N   0  0  0  0  0  0  0  0  0  0  0  0
    2.3631   23.9281   41.8406 O   0  0  0  0  0  0  0  0  0  0  0  0
    4.0534   22.4493   41.8808 O   0  0  0  0  0  0  0  0  0  0  0  0
    3.5012   19.9961   41.7383 O   0  0  0  0  0  0  0  0  0  0  0  0
   -2.3773   16.3284   41.2028 S   0  0  0  0  0  0  0  0  0  0  0  0
    4.6150   12.0891   39.0856 Cl  0  0  0  0  0  0  0  0  0  0  0  0
    0.1814   22.9424   42.5503 H   0  0  0  0  0  0  0  0  0  0  0  0
   -1.5437   21.1602   42.4052 H   0  0  0  0  0  0  0  0  0  0  0  0
   -0.1203   12.9167   39.7173 H   0  0  0  0  0  0  0  0  0  0  0  0
    1.8257   11.5327   38.9986 H   0  0  0  0  0  0  0  0  0  0  0  0
    4.5232   14.6023   40.4066 H   0  0  0  0  0  0  0  0  0  0  0  0
    2.5711   15.9617   41.1561 H   0  0  0  0  0  0  0  0  0  0  0  0
   -1.6918   14.0426   40.4087 H   0  0  0  0  0  0  0  0  0  0  0  0
    1.5875   18.2080   42.0139 H   0  0  0  0  0  0  0  0  0  0  0  0
   -1.9919   18.7632   42.6623 H   0  0  0  0  0  0  0  0  0  0  0  0
  1  2  1  0
  1 19  1  0
  1 20  2  0
  2  3  1  0
  2 16  2  0
  3  4  2  0
  4  5  1  0
  5 15  2  0
  5 17  1  0
  6 17  1  0
  6 18  2  0
  6 22  1  0
  7  8  1  0
  7 14  2  0
  7 18  1  0
  8  9  1  0
  8 13  2  0
  9 10  2  0
 10 11  1  0
 11 12  2  0
 11 23  1  0
 12 13  1  0
 14 22  1  0
 15 16  1  0
 16 21  1  0
  3 24  1  0
  4 25  1  0
  9 26  1  0
 10 27  1  0
 12 28  1  0
 13 29  1  0
 14 30  1  0
 15 31  1  0
 17 32  1  0
M  CHG  2  19  -1  21  -1
M  END
>  <mol_id>  (69) 
2026-08-23-6tgu-s0-n100-r1-0069

>  <rmsd_to_ref>  (69) 
3.576530612247743

$$$$
6tgu.A
     RDKit          3D

 32 34  0  0  0  0  0  0  0  0999 V2000
    1.7514   23.8314   41.5656 C   0  0  0  0  0  0  0  0  0  0  0  0
    1.9694   22.4101   41.2219 C   0  0  0  0  0  0  0  0  0  0  0  0
    0.8797   21.5928   40.9935 C   0  0  0  0  0  0  0  0  0  0  0  0
    1.1008   20.2530   40.6736 C   0  0  0  0  0  0  0  0  0  0  0  0
    2.3453   19.6997   40.5734 C   0  0  0  0  0  0  0  0  0  0  0  0
    1.8619   17.2244   40.5028 C   0  0  0  0  0  0  0  0  0  0  0  0
    1.0389   15.1495   40.6180 C   0  0  0  0  0  0  0  0  0  0  0  0
    1.2370   13.7117   40.3075 C   0  0  0  0  0  0  0  0  0  0  0  0
    0.2796   12.7860   40.6665 C   0  0  0  0  0  0  0  0  0  0  0  0
    0.3940   11.4338   40.4145 C   0  0  0  0  0  0  0  0  0  0  0  0
    1.5262   10.9769   39.7691 C   0  0  0  0  0  0  0  0  0  0  0  0
    2.4759   11.9060   39.4143 C   0  0  0  0  0  0  0  0  0  0  0  0
    2.3658   13.2533   39.6630 C   0  0  0  0  0  0  0  0  0  0  0  0
   -0.0748   15.5990   41.2601 C   0  0  0  0  0  0  0  0  0  0  0  0
    3.4191   20.5724   40.8141 C   0  0  0  0  0  0  0  0  0  0  0  0
    3.2327   21.8943   41.1305 C   0  0  0  0  0  0  0  0  0  0  0  0
    2.6642   18.3712   40.2865 N   0  0  0  0  0  0  0  0  0  0  0  0
    1.9047   16.0791   40.3090 N   0  0  0  0  0  0  0  0  0  0  0  0
    2.8503   24.6451   41.7991 O   0  0  0  0  0  0  0  0  0  0  0  0
    0.5979   24.3032   41.6479 O   0  0  0  0  0  0  0  0  0  0  0  0
    4.3367   22.7264   41.3623 O   0  0  0  0  0  0  0  0  0  0  0  0
    0.1989   17.3847   41.3853 S   0  0  0  0  0  0  0  0  0  0  0  0
    1.7127    9.2702   39.4291 Cl  0  0  0  0  0  0  0  0  0  0  0  0
   -0.1426   21.9657   41.0568 H   0  0  0  0  0  0  0  0  0  0  0  0
    0.2201   19.6659   40.4938 H   0  0  0  0  0  0  0  0  0  0  0  0
   -0.6255   13.1023   41.1759 H   0  0  0  0  0  0  0  0  0  0  0  0
   -0.3926   10.7697   40.7229 H   0  0  0  0  0  0  0  0  0  0  0  0
    3.3885   11.5613   38.8977 H   0  0  0  0  0  0  0  0  0  0  0  0
    3.1439   13.9369   39.3619 H   0  0  0  0  0  0  0  0  0  0  0  0
   -0.9524   15.0931   41.6383 H   0  0  0  0  0  0  0  0  0  0  0  0
    4.4386   20.1982   40.7508 H   0  0  0  0  0  0  0  0  0  0  0  0
    3.6148   18.1640   39.8545 H   0  0  0  0  0  0  0  0  0  0  0  0
  1  2  1  0
  1 19  1  0
  1 20  2  0
  2  3  1  0
  2 16  2  0
  3  4  2  0
  4  5  1  0
  5 15  2  0
  5 17  1  0
  6 17  1  0
  6 18  2  0
  6 22  1  0
  7  8  1  0
  7 14  2  0
  7 18  1  0
  8  9  1  0
  8 13  2  0
  9 10  2  0
 10 11  1  0
 11 12  2  0
 11 23  1  0
 12 13  1  0
 14 22  1  0
 15 16  1  0
 16 21  1  0
  3 24  1  0
  4 25  1  0
  9 26  1  0
 10 27  1  0
 12 28  1  0
 13 29  1  0
 14 30  1  0
 15 31  1  0
 17 32  1  0
M  CHG  2  19  -1  21  -1
M  END
>  <mol_id>  (70) 
2026-08-23-6tgu-s0-n100-r1-0070

>  <rmsd_to_ref>  (70) 
3.622448979594921

$$$$
6tgu.A
     RDKit          3D

 32 34  0  0  0  0  0  0  0  0999 V2000
    2.8632   22.3795   41.0796 C   0  0  0  0  0  0  0  0  0  0  0  0
    2.3391   21.1125   41.7612 C   0  0  0  0  0  0  0  0  0  0  0  0
    1.7502   21.1795   43.0219 C   0  0  0  0  0  0  0  0  0  0  0  0
    1.0927   20.0849   43.5928 C   0  0  0  0  0  0  0  0  0  0  0  0
    1.1598   18.8252   42.9800 C   0  0  0  0  0  0  0  0  0  0  0  0
   -0.0306   16.5797   42.9175 C   0  0  0  0  0  0  0  0  0  0  0  0
   -0.3355   15.0387   41.2719 C   0  0  0  0  0  0  0  0  0  0  0  0
   -0.1054   14.4358   39.9586 C   0  0  0  0  0  0  0  0  0  0  0  0
   -0.8462   13.3347   39.5061 C   0  0  0  0  0  0  0  0  0  0  0  0
   -0.6340   12.7981   38.2400 C   0  0  0  0  0  0  0  0  0  0  0  0
    0.2950   13.3994   37.4119 C   0  0  0  0  0  0  0  0  0  0  0  0
    1.0453   14.4931   37.8169 C   0  0  0  0  0  0  0  0  0  0  0  0
    0.8265   15.0084   39.0915 C   0  0  0  0  0  0  0  0  0  0  0  0
   -1.2630   14.5837   42.1714 C   0  0  0  0  0  0  0  0  0  0  0  0
    1.7393   18.7426   41.7058 C   0  0  0  0  0  0  0  0  0  0  0  0
    2.3178   19.8748   41.1293 C   0  0  0  0  0  0  0  0  0  0  0  0
    0.4413   17.7125   43.5156 N   0  0  0  0  0  0  0  0  0  0  0  0
    0.3248   16.2378   41.6300 N   0  0  0  0  0  0  0  0  0  0  0  0
    2.5827   23.4797   41.6400 O   0  0  0  0  0  0  0  0  0  0  0  0
    3.4538   22.2327   39.9872 O   0  0  0  0  0  0  0  0  0  0  0  0
    2.7888   19.8079   39.8395 O   0  0  0  0  0  0  0  0  0  0  0  0
   -1.3881   15.6483   43.5200 S   0  0  0  0  0  0  0  0  0  0  0  0
    0.5408   12.7674   35.8177 Cl  0  0  0  0  0  0  0  0  0  0  0  0
    1.8040   22.1224   43.5858 H   0  0  0  0  0  0  0  0  0  0  0  0
    0.5218   20.2123   44.5243 H   0  0  0  0  0  0  0  0  0  0  0  0
   -1.6073   12.8879   40.1626 H   0  0  0  0  0  0  0  0  0  0  0  0
   -1.1945   11.9129   37.9047 H   0  0  0  0  0  0  0  0  0  0  0  0
    1.7943   14.9421   37.1479 H   0  0  0  0  0  0  0  0  0  0  0  0
    1.4007   15.8863   39.4226 H   0  0  0  0  0  0  0  0  0  0  0  0
   -1.8498   13.6613   42.0489 H   0  0  0  0  0  0  0  0  0  0  0  0
    1.7380   17.7869   41.1612 H   0  0  0  0  0  0  0  0  0  0  0  0
    0.2461   17.7758   44.5250 H   0  0  0  0  0  0  0  0  0  0  0  0
  1  2  1  0
  1 19  1  0
  1 20  2  0
  2  3  1  0
  2 16  2  0
  3  4  2  0
  4  5  1  0
  5 15  2  0
  5 17  1  0
  6 17  1  0
  6 18  2  0
  6 22  1  0
  7  8  1  0
  7 14  2  0
  7 18  1  0
  8  9  1  0
  8 13  2  0
  9 10  2  0
 10 11  1  0
 11 12  2  0
 11 23  1  0
 12 13  1  0
 14 22  1  0
 15 16  1  0
 16 21  1  0
  3 24  1  0
  4 25  1  0
  9 26  1  0
 10 27  1  0
 12 28  1  0
 13 29  1  0
 14 30  1  0
 15 31  1  0
 17 32  1  0
M  CHG  2  19  -1  21  -1
M  END
>  <mol_id>  (71) 
2026-08-23-6tgu-s0-n100-r1-0071

>  <rmsd_to_ref>  (71) 
3.6683673469444646

$$$$
6tgu.A
     RDKit          3D

 32 34  0  0  0  0  0  0  0  0999 V2000
    5.2413   20.7348   37.9613 C   0  0  0  0  0  0  0  0  0  0  0  0
    4.4699   19.7919   38.7676 C   0  0  0  0  0  0  0  0  0  0  0  0
    4.4987   18.4508   38.4798 C   0  0  0  0  0  0  0  0  0  0  0  0
    3.7844   17.5535   39.2192 C   0  0  0  0  0  0  0  0  0  0  0  0
    2.9831   17.9382   40.3089 C   0  0  0  0  0  0  0  0  0  0  0  0
    1.1015   17.0864   41.7486 C   0  0  0  0  0  0  0  0  0  0  0  0
   -0.6979   16.6986   43.0389 C   0  0  0  0  0  0  0  0  0  0  0  0
   -1.4740   15.7603   43.8668 C   0  0  0  0  0  0  0  0  0  0  0  0
   -2.6435   16.1711   44.4693 C   0  0  0  0  0  0  0  0  0  0  0  0
   -3.3829   15.3012   45.2485 C   0  0  0  0  0  0  0  0  0  0  0  0
   -2.9795   13.9976   45.4502 C   0  0  0  0  0  0  0  0  0  0  0  0
   -1.7960   13.5610   44.8482 C   0  0  0  0  0  0  0  0  0  0  0  0
   -1.0822   14.4569   44.0762 C   0  0  0  0  0  0  0  0  0  0  0  0
   -1.0996   18.0208   42.8335 C   0  0  0  0  0  0  0  0  0  0  0  0
    2.9732   19.2857   40.5749 C   0  0  0  0  0  0  0  0  0  0  0  0
    3.6945   20.2098   39.8313 C   0  0  0  0  0  0  0  0  0  0  0  0
    2.3156   16.9389   40.9916 N   0  0  0  0  0  0  0  0  0  0  0  0
    0.4269   16.4160   42.4165 N   0  0  0  0  0  0  0  0  0  0  0  0
    5.1707   22.0946   38.3020 O   0  0  0  0  0  0  0  0  0  0  0  0
    5.9538   20.4033   36.9954 O   0  0  0  0  0  0  0  0  0  0  0  0
    3.6308   21.5697   40.1674 O   0  0  0  0  0  0  0  0  0  0  0  0
    0.1808   18.7041   41.7722 S   0  0  0  0  0  0  0  0  0  0  0  0
   -3.9583   12.9435   46.4438 Cl  0  0  0  0  0  0  0  0  0  0  0  0
    5.1042   18.1087   37.6448 H   0  0  0  0  0  0  0  0  0  0  0  0
    3.8401   16.5075   38.9518 H   0  0  0  0  0  0  0  0  0  0  0  0
   -3.0063   17.1751   44.3465 H   0  0  0  0  0  0  0  0  0  0  0  0
   -4.2913   15.6684   45.7008 H   0  0  0  0  0  0  0  0  0  0  0  0
   -1.4696   12.5297   45.0043 H   0  0  0  0  0  0  0  0  0  0  0  0
   -0.1515   14.1282   43.5966 H   0  0  0  0  0  0  0  0  0  0  0  0
   -1.9904   18.5655   43.2144 H   0  0  0  0  0  0  0  0  0  0  0  0
    2.4031   19.6737   41.3911 H   0  0  0  0  0  0  0  0  0  0  0  0
    2.6986   15.9674   40.9824 H   0  0  0  0  0  0  0  0  0  0  0  0
  1  2  1  0
  1 19  1  0
  1 20  2  0
  2  3  1  0
  2 16  2  0
  3  4  2  0
  4  5  1  0
  5 15  2  0
  5 17  1  0
  6 17  1  0
  6 18  2  0
  6 22  1  0
  7  8  1  0
  7 14  2  0
  7 18  1  0
  8  9  1  0
  8 13  2  0
  9 10  2  0
 10 11  1  0
 11 12  2  0
 11 23  1  0
 12 13  1  0
 14 22  1  0
 15 16  1  0
 16 21  1  0
  3 24  1  0
  4 25  1  0
  9 26  1  0
 10 27  1  0
 12 28  1  0
 13 29  1  0
 14 30  1  0
 15 31  1  0
 17 32  1  0
M  CHG  2  19  -1  21  -1
M  END
>  <mol_id>  (72) 
2026-08-23-6tgu-s0-n100-r1-0072

>  <rmsd_to_ref>  (72) 
3.7142857142900483

$$$$
6tgu.A
     RDKit          3D

 32 34  0  0  0  0  0  0  0  0999 V2000
    4.4836   21.7418   41.3925 C   0  0  0  0  0  0  0  0  0  0  0  0
    4.0416   20.5114   42.1897 C   0  0  0  0  0  0  0  0  0  0  0  0
    4.0564   20.5284   43.5826 C   0  0  0  0  0  0  0  0  0  0  0  0
    3.4857   19.5027   44.3432 C   0  0  0  0  0  0  0  0  0  0  0  0
    3.0323   18.3317   43.7187 C   0  0  0  0  0  0  0  0  0  0  0  0
    1.4901   16.3465   44.0980 C   0  0  0  0  0  0  0  0  0  0  0  0
    0.2207   15.0863   42.6923 C   0  0  0  0  0  0  0  0  0  0  0  0
   -0.2439   14.6128   41.3880 C   0  0  0  0  0  0  0  0  0  0  0  0
   -1.3144   13.7161   41.2610 C   0  0  0  0  0  0  0  0  0  0  0  0
   -1.7618   13.3049   40.0093 C   0  0  0  0  0  0  0  0  0  0  0  0
   -1.1583   13.8321   38.8832 C   0  0  0  0  0  0  0  0  0  0  0  0
   -0.1008   14.7255   38.9629 C   0  0  0  0  0  0  0  0  0  0  0  0
    0.3399   15.1161   40.2244 C   0  0  0  0  0  0  0  0  0  0  0  0
   -0.3217   14.6934   43.8872 C   0  0  0  0  0  0  0  0  0  0  0  0
    3.0003   18.3027   42.3172 C   0  0  0  0  0  0  0  0  0  0  0  0
    3.5065   19.3794   41.5867 C   0  0  0  0  0  0  0  0  0  0  0  0
    2.3892   17.3029   44.4731 N   0  0  0  0  0  0  0  0  0  0  0  0
    1.2008   16.1037   42.7721 N   0  0  0  0  0  0  0  0  0  0  0  0
    4.6932   22.7995   42.0560 O   0  0  0  0  0  0  0  0  0  0  0  0
    4.5237   21.6265   40.1479 O   0  0  0  0  0  0  0  0  0  0  0  0
    3.3751   19.3861   40.2183 O   0  0  0  0  0  0  0  0  0  0  0  0
    0.3456   15.5964   45.1938 S   0  0  0  0  0  0  0  0  0  0  0  0
   -1.7317   13.3607   37.3177 Cl  0  0  0  0  0  0  0  0  0  0  0  0
    4.5316   21.3747   44.1002 H   0  0  0  0  0  0  0  0  0  0  0  0
    3.3922   19.6147   45.4335 H   0  0  0  0  0  0  0  0  0  0  0  0
   -1.8084   13.3316   42.1655 H   0  0  0  0  0  0  0  0  0  0  0  0
   -2.5794   12.5747   39.9179 H   0  0  0  0  0  0  0  0  0  0  0  0
    0.3778   15.1157   38.0526 H   0  0  0  0  0  0  0  0  0  0  0  0
    1.1665   15.8372   40.3060 H   0  0  0  0  0  0  0  0  0  0  0  0
   -1.0820   13.9062   43.9978 H   0  0  0  0  0  0  0  0  0  0  0  0
    2.5770   17.4326   41.7939 H   0  0  0  0  0  0  0  0  0  0  0  0
    2.6479   17.2787   45.4698 H   0  0  0  0  0  0  0  0  0  0  0  0
  1  2  1  0
  1 19  1  0
  1 20  2  0
  2  3  1  0
  2 16  2  0
  3  4  2  0
  4  5  1  0
  5 15  2  0
  5 17  1  0
  6 17  1  0
  6 18  2  0
  6 22  1  0
  7  8  1  0
  7 14  2  0
  7 18  1  0
  8  9  1  0
  8 13  2  0
  9 10  2  0
 10 11  1  0
 11 12  2  0
 11 23  1  0
 12 13  1  0
 14 22  1  0
 15 16  1  0
 16 21  1  0
  3 24  1  0
  4 25  1  0
  9 26  1  0
 10 27  1  0
 12 28  1  0
 13 29  1  0
 14 30  1  0
 15 31  1  0
 17 32  1  0
M  CHG  2  19  -1  21  -1
M  END
>  <mol_id>  (73) 
2026-08-23-6tgu-s0-n100-r1-0073

>  <rmsd_to_ref>  (73) 
3.7602040816329594

$$$$
6tgu.A
     RDKit          3D

 32 34  0  0  0  0  0  0  0  0999 V2000
    4.4768   19.3831   36.7808 C   0  0  0  0  0  0  0  0  0  0  0  0
    3.6038   18.5919   37.6446 C   0  0  0  0  0  0  0  0  0  0  0  0
    2.7879   17.6285   37.1073 C   0  0  0  0  0  0  0  0  0  0  0  0
    1.9639   16.8795   37.8960 C   0  0  0  0  0  0  0  0  0  0  0  0
    1.8971   17.0431   39.2911 C   0  0  0  0  0  0  0  0  0  0  0  0
    0.4149   16.5042   41.2536 C   0  0  0  0  0  0  0  0  0  0  0  0
   -0.7906   16.3690   43.1461 C   0  0  0  0  0  0  0  0  0  0  0  0
   -1.6580   15.5740   44.0314 C   0  0  0  0  0  0  0  0  0  0  0  0
   -2.1437   16.1206   45.1996 C   0  0  0  0  0  0  0  0  0  0  0  0
   -2.9595   15.3866   46.0401 C   0  0  0  0  0  0  0  0  0  0  0  0
   -3.3154   14.0877   45.7417 C   0  0  0  0  0  0  0  0  0  0  0  0
   -2.8331   13.5144   44.5616 C   0  0  0  0  0  0  0  0  0  0  0  0
   -2.0202   14.2766   43.7453 C   0  0  0  0  0  0  0  0  0  0  0  0
   -0.4243   17.6837   43.4444 C   0  0  0  0  0  0  0  0  0  0  0  0
    2.7242   18.0133   39.8020 C   0  0  0  0  0  0  0  0  0  0  0  0
    3.5674   18.7828   39.0120 C   0  0  0  0  0  0  0  0  0  0  0  0
    1.0345   16.2177   39.9876 N   0  0  0  0  0  0  0  0  0  0  0  0
   -0.2738   15.9521   42.0097 N   0  0  0  0  0  0  0  0  0  0  0  0
    5.2870   20.3556   37.3873 O   0  0  0  0  0  0  0  0  0  0  0  0
    4.5430   19.2448   35.5451 O   0  0  0  0  0  0  0  0  0  0  0  0
    4.3817   19.7544   39.6111 O   0  0  0  0  0  0  0  0  0  0  0  0
    0.6171   18.1691   42.0615 S   0  0  0  0  0  0  0  0  0  0  0  0
   -4.3525   13.2107   46.8425 Cl  0  0  0  0  0  0  0  0  0  0  0  0
    2.8062   17.4687   36.0327 H   0  0  0  0  0  0  0  0  0  0  0  0
    1.3400   16.1332   37.4243 H   0  0  0  0  0  0  0  0  0  0  0  0
   -1.8998   17.1281   45.4826 H   0  0  0  0  0  0  0  0  0  0  0  0
   -3.3148   15.8566   46.9443 H   0  0  0  0  0  0  0  0  0  0  0  0
   -3.1100   12.4854   44.3192 H   0  0  0  0  0  0  0  0  0  0  0  0
   -1.6347   13.8402   42.8152 H   0  0  0  0  0  0  0  0  0  0  0  0
   -0.6887   18.3200   44.3165 H   0  0  0  0  0  0  0  0  0  0  0  0
    2.7531   18.2037   40.8530 H   0  0  0  0  0  0  0  0  0  0  0  0
    0.7838   15.2853   39.5899 H   0  0  0  0  0  0  0  0  0  0  0  0
  1  2  1  0
  1 19  1  0
  1 20  2  0
  2  3  1  0
  2 16  2  0
  3  4  2  0
  4  5  1  0
  5 15  2  0
  5 17  1  0
  6 17  1  0
  6 18  2  0
  6 22  1  0
  7  8  1  0
  7 14  2  0
  7 18  1  0
  8  9  1  0
  8 13  2  0
  9 10  2  0
 10 11  1  0
 11 12  2  0
 11 23  1  0
 12 13  1  0
 14 22  1  0
 15 16  1  0
 16 21  1  0
  3 24  1  0
  4 25  1  0
  9 26  1  0
 10 27  1  0
 12 28  1  0
 13 29  1  0
 14 30  1  0
 15 31  1  0
 17 32  1  0
M  CHG  2  19  -1  21  -1
M  END
>  <mol_id>  (74) 
2026-08-23-6tgu-s0-n100-r1-0074

>  <rmsd_to_ref>  (74) 
3.806122448985939

$$$$
6tgu.A
     RDKit          3D

 32 34  0  0  0  0  0  0  0  0999 V2000
    1.2807   22.0705   41.0374 C   0  0  0  0  0  0  0  0  0  0  0  0
    1.2360   20.7489   41.8094 C   0  0  0  0  0  0  0  0  0  0  0  0
    0.2722   20.5363   42.7925 C   0  0  0  0  0  0  0  0  0  0  0  0
    0.0786   19.2832   43.3831 C   0  0  0  0  0  0  0  0  0  0  0  0
    0.9756   18.2366   43.1242 C   0  0  0  0  0  0  0  0  0  0  0  0
    1.1595   15.7035   43.2367 C   0  0  0  0  0  0  0  0  0  0  0  0
    2.2825   14.1791   41.9754 C   0  0  0  0  0  0  0  0  0  0  0  0
    3.2451   13.7454   40.9623 C   0  0  0  0  0  0  0  0  0  0  0  0
    3.3673   12.4019   40.5800 C   0  0  0  0  0  0  0  0  0  0  0  0
    4.2659   12.0160   39.5902 C   0  0  0  0  0  0  0  0  0  0  0  0
    5.0106   12.9910   38.9538 C   0  0  0  0  0  0  0  0  0  0  0  0
    4.9171   14.3315   39.2964 C   0  0  0  0  0  0  0  0  0  0  0  0
    4.0206   14.6963   40.2970 C   0  0  0  0  0  0  0  0  0  0  0  0
    1.4408   13.3307   42.6448 C   0  0  0  0  0  0  0  0  0  0  0  0
    1.9445   18.4305   42.1294 C   0  0  0  0  0  0  0  0  0  0  0  0
    2.0594   19.6723   41.5019 C   0  0  0  0  0  0  0  0  0  0  0  0
    0.7557   16.9341   43.6684 N   0  0  0  0  0  0  0  0  0  0  0  0
    2.0836   15.5578   42.2239 N   0  0  0  0  0  0  0  0  0  0  0  0
    0.3128   22.8656   41.2222 O   0  0  0  0  0  0  0  0  0  0  0  0
    2.2227   22.2235   40.2294 O   0  0  0  0  0  0  0  0  0  0  0  0
    2.9407   19.8201   40.4573 O   0  0  0  0  0  0  0  0  0  0  0  0
    0.3217   14.2107   43.6149 S   0  0  0  0  0  0  0  0  0  0  0  0
    6.1038   12.5303   37.6912 Cl  0  0  0  0  0  0  0  0  0  0  0  0
   -0.3560   21.3799   43.1144 H   0  0  0  0  0  0  0  0  0  0  0  0
   -0.7789   19.1183   44.0520 H   0  0  0  0  0  0  0  0  0  0  0  0
    2.7428   11.6408   41.0705 H   0  0  0  0  0  0  0  0  0  0  0  0
    4.3812   10.9560   39.3196 H   0  0  0  0  0  0  0  0  0  0  0  0
    5.5356   15.0874   38.7903 H   0  0  0  0  0  0  0  0  0  0  0  0
    3.9212   15.7574   40.5695 H   0  0  0  0  0  0  0  0  0  0  0  0
    1.4749   12.2336   42.5726 H   0  0  0  0  0  0  0  0  0  0  0  0
    2.6132   17.6052   41.8437 H   0  0  0  0  0  0  0  0  0  0  0  0
    0.1975   16.9212   44.5339 H   0  0  0  0  0  0  0  0  0  0  0  0
  1  2  1  0
  1 19  1  0
  1 20  2  0
  2  3  1  0
  2 16  2  0
  3  4  2  0
  4  5  1  0
  5 15  2  0
  5 17  1  0
  6 17  1  0
  6 18  2  0
  6 22  1  0
  7  8  1  0
  7 14  2  0
  7 18  1  0
  8  9  1  0
  8 13  2  0
  9 10  2  0
 10 11  1  0
 11 12  2  0
 11 23  1  0
 12 13  1  0
 14 22  1  0
 15 16  1  0
 16 21  1  0
  3 24  1  0
  4 25  1  0
  9 26  1  0
 10 27  1  0
 12 28  1  0
 13 29  1  0
 14 30  1  0
 15 31  1  0
 17 32  1  0
M  CHG  2  19  -1  21  -1
M  END
>  <mol_id>  (75) 
2026-08-23-6tgu-s0-n100-r1-0075

>  <rmsd_to_ref>  (75) 
3.8520408163298567

$$$$
6tgu.A
     RDKit          3D

 32 34  0  0  0  0  0  0  0  0999 V2000
    2.4774   21.9816   40.8643 C   0  0  0  0  0  0  0  0  0  0  0  0
    1.7447   20.7258   40.9408 C   0  0  0  0  0  0  0  0  0  0  0  0
    2.0033   19.7028   40.0214 C   0  0  0  0  0  0  0  0  0  0  0  0
    1.3208   18.5074   40.1011 C   0  0  0  0  0  0  0  0  0  0  0  0
    0.3756   18.2940   41.0799 C   0  0  0  0  0  0  0  0  0  0  0  0
    0.4375   15.8839   40.9943 C   0  0  0  0  0  0  0  0  0  0  0  0
    1.6201   13.9937   40.4965 C   0  0  0  0  0  0  0  0  0  0  0  0
    1.8727   12.8569   39.5894 C   0  0  0  0  0  0  0  0  0  0  0  0
    1.1694   12.6542   38.4316 C   0  0  0  0  0  0  0  0  0  0  0  0
    1.3638   11.6236   37.5513 C   0  0  0  0  0  0  0  0  0  0  0  0
    2.3548   10.7054   37.8562 C   0  0  0  0  0  0  0  0  0  0  0  0
    3.0613   10.9014   39.0137 C   0  0  0  0  0  0  0  0  0  0  0  0
    2.8715   11.9238   39.8916 C   0  0  0  0  0  0  0  0  0  0  0  0
    2.3379   14.1317   41.6772 C   0  0  0  0  0  0  0  0  0  0  0  0
    0.1032   19.2810   41.9905 C   0  0  0  0  0  0  0  0  0  0  0  0
    0.7927   20.4690   41.8991 C   0  0  0  0  0  0  0  0  0  0  0  0
   -0.2958   17.0333   41.2331 N   0  0  0  0  0  0  0  0  0  0  0  0
    0.7208   14.9060   40.2709 N   0  0  0  0  0  0  0  0  0  0  0  0
    2.1773   22.9406   41.8462 O   0  0  0  0  0  0  0  0  0  0  0  0
    3.3372   22.2320   39.9903 O   0  0  0  0  0  0  0  0  0  0  0  0
    0.5376   21.4945   42.8144 O   0  0  0  0  0  0  0  0  0  0  0  0
    1.6784   15.6107   42.4471 S   0  0  0  0  0  0  0  0  0  0  0  0
    2.7125    9.3251   36.8339 Cl  0  0  0  0  0  0  0  0  0  0  0  0
    2.7404   19.8314   39.2426 H   0  0  0  0  0  0  0  0  0  0  0  0
    1.5362   17.7355   39.3855 H   0  0  0  0  0  0  0  0  0  0  0  0
    0.3713   13.3612   38.1601 H   0  0  0  0  0  0  0  0  0  0  0  0
    0.7896   11.5194   36.6623 H   0  0  0  0  0  0  0  0  0  0  0  0
    3.8491   10.1708   39.2505 H   0  0  0  0  0  0  0  0  0  0  0  0
    3.4796   12.0233   40.8031 H   0  0  0  0  0  0  0  0  0  0  0  0
    3.1661   13.4853   42.1170 H   0  0  0  0  0  0  0  0  0  0  0  0
   -0.6473   19.1045   42.7528 H   0  0  0  0  0  0  0  0  0  0  0  0
   -1.3192   17.0571   41.5229 H   0  0  0  0  0  0  0  0  0  0  0  0
  1  2  1  0
  1 19  1  0
  1 20  2  0
  2  3  1  0
  2 16  2  0
  3  4  2  0
  4  5  1  0
  5 15  2  0
  5 17  1  0
  6 17  1  0
  6 18  2  0
  6 22  1  0
  7  8  1  0
  7 14  2  0
  7 18  1  0
  8  9  1  0
  8 13  2  0
  9 10  2  0
 10 11  1  0
 11 12  2  0
 11 23  1  0
 12 13  1  0
 14 22  1  0
 15 16  1  0
 16 21  1  0
  3 24  1  0
  4 25  1  0
  9 26  1  0
 10 27  1  0
 12 28  1  0
 13 29  1  0
 14 30  1  0
 15 31  1  0
 17 32  1  0
M  CHG  2  19  -1  21  -1
M  END
>  <mol_id>  (76) 
2026-08-23-6tgu-s0-n100-r1-0076

>  <rmsd_to_ref>  (76) 
3.8979591836793155

$$$$
6tgu.A
     RDKit          3D

 32 34  0  0  0  0  0  0  0  0999 V2000
    3.5828   16.6248   36.2439 C   0  0  0  0  0  0  0  0  0  0  0  0
    3.7716   16.2803   37.7239 C   0  0  0  0  0  0  0  0  0  0  0  0
    4.8858   16.7422   38.4210 C   0  0  0  0  0  0  0  0  0  0  0  0
    4.9993   16.6113   39.8090 C   0  0  0  0  0  0  0  0  0  0  0  0
    4.0643   15.8480   40.5231 C   0  0  0  0  0  0  0  0  0  0  0  0
    3.1593   15.5047   42.8739 C   0  0  0  0  0  0  0  0  0  0  0  0
    1.1088   14.9234   43.6697 C   0  0  0  0  0  0  0  0  0  0  0  0
   -0.2688   14.4418   43.5632 C   0  0  0  0  0  0  0  0  0  0  0  0
   -1.1356   14.4190   44.6651 C   0  0  0  0  0  0  0  0  0  0  0  0
   -2.4522   13.9886   44.5342 C   0  0  0  0  0  0  0  0  0  0  0  0
   -2.9088   13.6224   43.2821 C   0  0  0  0  0  0  0  0  0  0  0  0
   -2.0876   13.6352   42.1647 C   0  0  0  0  0  0  0  0  0  0  0  0
   -0.7702   14.0583   42.3183 C   0  0  0  0  0  0  0  0  0  0  0  0
    1.6758   15.3706   44.8337 C   0  0  0  0  0  0  0  0  0  0  0  0
    2.9314   15.3853   39.8386 C   0  0  0  0  0  0  0  0  0  0  0  0
    2.8110   15.6023   38.4648 C   0  0  0  0  0  0  0  0  0  0  0  0
    4.1296   15.7576   41.9474 N   0  0  0  0  0  0  0  0  0  0  0  0
    1.9023   15.0727   42.5077 N   0  0  0  0  0  0  0  0  0  0  0  0
    4.3876   17.4703   35.7536 O   0  0  0  0  0  0  0  0  0  0  0  0
    2.6043   16.1077   35.6619 O   0  0  0  0  0  0  0  0  0  0  0  0
    1.6505   15.2374   37.8245 O   0  0  0  0  0  0  0  0  0  0  0  0
    3.2384   16.0352   44.5429 S   0  0  0  0  0  0  0  0  0  0  0  0
   -4.5574   13.1232   43.0961 Cl  0  0  0  0  0  0  0  0  0  0  0  0
    5.7015   17.2247   37.8627 H   0  0  0  0  0  0  0  0  0  0  0  0
    5.8236   17.1082   40.3415 H   0  0  0  0  0  0  0  0  0  0  0  0
   -0.7687   14.7467   45.6490 H   0  0  0  0  0  0  0  0  0  0  0  0
   -3.1164   13.9406   45.4097 H   0  0  0  0  0  0  0  0  0  0  0  0
   -2.4675   13.3192   41.1819 H   0  0  0  0  0  0  0  0  0  0  0  0
   -0.1099   14.0910   41.4392 H   0  0  0  0  0  0  0  0  0  0  0  0
    1.1971   15.3131   45.8224 H   0  0  0  0  0  0  0  0  0  0  0  0
    2.1385   14.8519   40.3835 H   0  0  0  0  0  0  0  0  0  0  0  0
    5.0686   15.9090   42.3426 H   0  0  0  0  0  0  0  0  0  0  0  0
  1  2  1  0
  1 19  1  0
  1 20  2  0
  2  3  1  0
  2 16  2  0
  3  4  2  0
  4  5  1  0
  5 15  2  0
  5 17  1  0
  6 17  1  0
  6 18  2  0
  6 22  1  0
  7  8  1  0
  7 14  2  0
  7 18  1  0
  8  9  1  0
  8 13  2  0
  9 10  2  0
 10 11  1  0
 11 12  2  0
 11 23  1  0
 12 13  1  0
 14 22  1  0
 15 16  1  0
 16 21  1  0
  3 24  1  0
  4 25  1  0
  9 26  1  0
 10 27  1  0
 12 28  1  0
 13 29  1  0
 14 30  1  0
 15 31  1  0
 17 32  1  0
M  CHG  2  19  -1  21  -1
M  END
>  <mol_id>  (77) 
2026-08-23-6tgu-s0-n100-r1-0077

>  <rmsd_to_ref>  (77) 
3.9438775510258233

$$$$
6tgu.A
     RDKit          3D

 32 34  0  0  0  0  0  0  0  0999 V2000
   -1.9288   21.4372   38.9001 C   0  0  0  0  0  0  0  0  0  0  0  0
   -1.5470   20.3110   39.7614 C   0  0  0  0  0  0  0  0  0  0  0  0
   -0.6958   19.3134   39.3703 C   0  0  0  0  0  0  0  0  0  0  0  0
   -0.3445   18.2633   40.2232 C   0  0  0  0  0  0  0  0  0  0  0  0
   -0.8688   18.2323   41.4914 C   0  0  0  0  0  0  0  0  0  0  0  0
    0.6340   16.4780   42.4511 C   0  0  0  0  0  0  0  0  0  0  0  0
    2.5374   15.2668   42.4060 C   0  0  0  0  0  0  0  0  0  0  0  0
    3.1988   13.9684   42.1858 C   0  0  0  0  0  0  0  0  0  0  0  0
    2.5014   12.8356   41.8292 C   0  0  0  0  0  0  0  0  0  0  0  0
    3.1260   11.6026   41.6332 C   0  0  0  0  0  0  0  0  0  0  0  0
    4.4936   11.5219   41.8040 C   0  0  0  0  0  0  0  0  0  0  0  0
    5.2328   12.6464   42.1645 C   0  0  0  0  0  0  0  0  0  0  0  0
    4.5587   13.8552   42.3485 C   0  0  0  0  0  0  0  0  0  0  0  0
    3.2624   16.4276   42.7785 C   0  0  0  0  0  0  0  0  0  0  0  0
   -1.7343   19.2443   41.8901 C   0  0  0  0  0  0  0  0  0  0  0  0
   -2.0654   20.2616   41.0416 C   0  0  0  0  0  0  0  0  0  0  0  0
   -0.5505   17.2530   42.4676 N   0  0  0  0  0  0  0  0  0  0  0  0
    1.2583   15.5064   42.2979 N   0  0  0  0  0  0  0  0  0  0  0  0
   -1.3649   21.4183   37.6142 O   0  0  0  0  0  0  0  0  0  0  0  0
   -2.6966   22.3501   39.2665 O   0  0  0  0  0  0  0  0  0  0  0  0
   -2.9309   21.2650   41.4565 O   0  0  0  0  0  0  0  0  0  0  0  0
    2.0737   17.6869   42.9260 S   0  0  0  0  0  0  0  0  0  0  0  0
    5.3978   10.0383   41.6001 Cl  0  0  0  0  0  0  0  0  0  0  0  0
   -0.2865   19.3313   38.3792 H   0  0  0  0  0  0  0  0  0  0  0  0
    0.3234   17.4801   39.9036 H   0  0  0  0  0  0  0  0  0  0  0  0
    1.4363   12.9019   41.6963 H   0  0  0  0  0  0  0  0  0  0  0  0
    2.5943   10.7113   41.3543 H   0  0  0  0  0  0  0  0  0  0  0  0
    6.3059   12.5828   42.2940 H   0  0  0  0  0  0  0  0  0  0  0  0
    5.2102   14.6848   42.6323 H   0  0  0  0  0  0  0  0  0  0  0  0
    4.3870   16.4841   42.9377 H   0  0  0  0  0  0  0  0  0  0  0  0
   -2.1582   19.2374   42.8903 H   0  0  0  0  0  0  0  0  0  0  0  0
   -1.2099   17.0627   43.2680 H   0  0  0  0  0  0  0  0  0  0  0  0
  1  2  1  0
  1 19  1  0
  1 20  2  0
  2  3  1  0
  2 16  2  0
  3  4  2  0
  4  5  1  0
  5 15  2  0
  5 17  1  0
  6 17  1  0
  6 18  2  0
  6 22  1  0
  7  8  1  0
  7 14  2  0
  7 18  1  0
  8  9  1  0
  8 13  2  0
  9 10  2  0
 10 11  1  0
 11 12  2  0
 11 23  1  0
 12 13  1  0
 14 22  1  0
 15 16  1  0
 16 21  1  0
  3 24  1  0
  4 25  1  0
  9 26  1  0
 10 27  1  0
 12 28  1  0
 13 29  1  0
 14 30  1  0
 15 31  1  0
 17 32  1  0
M  CHG  2  19  -1  21  -1
M  END
>  <mol_id>  (78) 
2026-08-23-6tgu-s0-n100-r1-0078

>  <rmsd_to_ref>  (78) 
3.989795918372312

$$$$
6tgu.A
     RDKit          3D

 32 34  0  0  0  0  0  0  0  0999 V2000
   -1.2101   21.4098   39.3239 C   0  0  0  0  0  0  0  0  0  0  0  0
   -0.9171   20.4856   40.5091 C   0  0  0  0  0  0  0  0  0  0  0  0
   -1.9077   20.2021   41.4467 C   0  0  0  0  0  0  0  0  0  0  0  0
   -1.7401   19.2213   42.4297 C   0  0  0  0  0  0  0  0  0  0  0  0
   -0.4904   18.6108   42.6094 C   0  0  0  0  0  0  0  0  0  0  0  0
    0.5825   16.5394   43.6200 C   0  0  0  0  0  0  0  0  0  0  0  0
    2.4081   15.3093   43.0456 C   0  0  0  0  0  0  0  0  0  0  0  0
    3.6401   15.0269   42.3084 C   0  0  0  0  0  0  0  0  0  0  0  0
    4.3176   13.8057   42.4331 C   0  0  0  0  0  0  0  0  0  0  0  0
    5.4693   13.5451   41.6971 C   0  0  0  0  0  0  0  0  0  0  0  0
    5.9139   14.4992   40.8013 C   0  0  0  0  0  0  0  0  0  0  0  0
    5.2714   15.7177   40.6422 C   0  0  0  0  0  0  0  0  0  0  0  0
    4.1272   15.9642   41.3960 C   0  0  0  0  0  0  0  0  0  0  0  0
    1.8224   14.4344   43.9219 C   0  0  0  0  0  0  0  0  0  0  0  0
    0.5140   18.8768   41.6678 C   0  0  0  0  0  0  0  0  0  0  0  0
    0.2861   19.8045   40.6498 C   0  0  0  0  0  0  0  0  0  0  0  0
   -0.3195   17.5627   43.5651 N   0  0  0  0  0  0  0  0  0  0  0  0
    1.6739   16.4892   42.7791 N   0  0  0  0  0  0  0  0  0  0  0  0
   -2.4179   21.7523   39.1597 O   0  0  0  0  0  0  0  0  0  0  0  0
   -0.2515   21.6855   38.5696 O   0  0  0  0  0  0  0  0  0  0  0  0
    1.2374   19.9799   39.6730 O   0  0  0  0  0  0  0  0  0  0  0  0
    0.2930   15.0239   44.4523 S   0  0  0  0  0  0  0  0  0  0  0  0
    7.3232   14.1721   39.8482 Cl  0  0  0  0  0  0  0  0  0  0  0  0
   -2.8509   20.7671   41.4129 H   0  0  0  0  0  0  0  0  0  0  0  0
   -2.5903   18.9281   43.0631 H   0  0  0  0  0  0  0  0  0  0  0  0
    3.9325   13.0413   43.1241 H   0  0  0  0  0  0  0  0  0  0  0  0
    6.0150   12.5987   41.8256 H   0  0  0  0  0  0  0  0  0  0  0  0
    5.6559   16.4704   39.9382 H   0  0  0  0  0  0  0  0  0  0  0  0
    3.5952   16.9187   41.2697 H   0  0  0  0  0  0  0  0  0  0  0  0
    2.2692   13.4822   44.2441 H   0  0  0  0  0  0  0  0  0  0  0  0
    1.4804   18.3551   41.7312 H   0  0  0  0  0  0  0  0  0  0  0  0
   -0.9913   17.5824   44.3456 H   0  0  0  0  0  0  0  0  0  0  0  0
  1  2  1  0
  1 19  1  0
  1 20  2  0
  2  3  1  0
  2 16  2  0
  3  4  2  0
  4  5  1  0
  5 15  2  0
  5 17  1  0
  6 17  1  0
  6 18  2  0
  6 22  1  0
  7  8  1  0
  7 14  2  0
  7 18  1  0
  8  9  1  0
  8 13  2  0
  9 10  2  0
 10 11  1  0
 11 12  2  0
 11 23  1  0
 12 13  1  0
 14 22  1  0
 15 16  1  0
 16 21  1  0
  3 24  1  0
  4 25  1  0
  9 26  1  0
 10 27  1  0
 12 28  1  0
 13 29  1  0
 14 30  1  0
 15 31  1  0
 17 32  1  0
M  CHG  2  19  -1  21  -1
M  END
>  <mol_id>  (79) 
2026-08-23-6tgu-s0-n100-r1-0079

>  <rmsd_to_ref>  (79) 
4.035714285719714

$$$$
6tgu.A
     RDKit          3D

 32 34  0  0  0  0  0  0  0  0999 V2000
    7.0021   18.4006   39.5242 C   0  0  0  0  0  0  0  0  0  0  0  0
    5.6245   18.8190   39.8137 C   0  0  0  0  0  0  0  0  0  0  0  0
    4.8509   18.0817   40.7014 C   0  0  0  0  0  0  0  0  0  0  0  0
    3.5384   18.4748   40.9862 C   0  0  0  0  0  0  0  0  0  0  0  0
    3.0431   19.6063   40.3636 C   0  0  0  0  0  0  0  0  0  0  0  0
    0.9092   19.2491   41.5003 C   0  0  0  0  0  0  0  0  0  0  0  0
   -0.5330   17.7791   42.4043 C   0  0  0  0  0  0  0  0  0  0  0  0
   -1.5259   16.7021   42.1782 C   0  0  0  0  0  0  0  0  0  0  0  0
   -1.8488   16.2586   40.9137 C   0  0  0  0  0  0  0  0  0  0  0  0
   -2.7731   15.2548   40.6905 C   0  0  0  0  0  0  0  0  0  0  0  0
   -3.4116   14.6568   41.7573 C   0  0  0  0  0  0  0  0  0  0  0  0
   -3.0935   15.0955   43.0273 C   0  0  0  0  0  0  0  0  0  0  0  0
   -2.1732   16.0937   43.2327 C   0  0  0  0  0  0  0  0  0  0  0  0
   -0.2301   18.2171   43.6642 C   0  0  0  0  0  0  0  0  0  0  0  0
    3.8201   20.3484   39.4708 C   0  0  0  0  0  0  0  0  0  0  0  0
    5.1281   19.9570   39.1862 C   0  0  0  0  0  0  0  0  0  0  0  0
    1.7131   20.0261   40.6396 N   0  0  0  0  0  0  0  0  0  0  0  0
    0.1129   18.3875   41.4404 N   0  0  0  0  0  0  0  0  0  0  0  0
    7.5128   17.2663   40.1420 O   0  0  0  0  0  0  0  0  0  0  0  0
    7.6692   19.1006   38.7153 O   0  0  0  0  0  0  0  0  0  0  0  0
    5.8987   20.6927   38.3002 O   0  0  0  0  0  0  0  0  0  0  0  0
    1.0156   19.5310   43.3774 S   0  0  0  0  0  0  0  0  0  0  0  0
   -4.5845   13.3846   41.5134 Cl  0  0  0  0  0  0  0  0  0  0  0  0
    5.2438   17.1884   41.1914 H   0  0  0  0  0  0  0  0  0  0  0  0
    2.9385   17.8899   41.6848 H   0  0  0  0  0  0  0  0  0  0  0  0
   -1.3613   16.7106   40.0486 H   0  0  0  0  0  0  0  0  0  0  0  0
   -2.9909   14.9441   39.6623 H   0  0  0  0  0  0  0  0  0  0  0  0
   -3.5932   14.6256   43.8535 H   0  0  0  0  0  0  0  0  0  0  0  0
   -1.9378   16.4235   44.2351 H   0  0  0  0  0  0  0  0  0  0  0  0
   -0.5729   17.9342   44.6285 H   0  0  0  0  0  0  0  0  0  0  0  0
    3.4133   21.2226   39.0003 H   0  0  0  0  0  0  0  0  0  0  0  0
    1.3356   20.8840   40.2194 H   0  0  0  0  0  0  0  0  0  0  0  0
  1  2  1  0
  1 19  1  0
  1 20  2  0
  2  3  1  0
  2 16  2  0
  3  4  2  0
  4  5  1  0
  5 15  2  0
  5 17  1  0
  6 17  1  0
  6 18  2  0
  6 22  1  0
  7  8  1  0
  7 14  2  0
  7 18  1  0
  8  9  1  0
  8 13  2  0
  9 10  2  0
 10 11  1  0
 11 12  2  0
 11 23  1  0
 12 13  1  0
 14 22  1  0
 15 16  1  0
 16 21  1  0
  3 24  1  0
  4 25  1  0
  9 26  1  0
 10 27  1  0
 12 28  1  0
 13 29  1  0
 14 30  1  0
 15 31  1  0
 17 32  1  0
M  CHG  2  19  -1  21  -1
M  END
>  <mol_id>  (80) 
2026-08-23-6tgu-s0-n100-r1-0080

>  <rmsd_to_ref>  (80) 
4.081632653068409

$$$$
6tgu.A
     RDKit          3D

 32 34  0  0  0  0  0  0  0  0999 V2000
   -1.3049   21.7250   38.9033 C   0  0  0  0  0  0  0  0  0  0  0  0
   -1.6458   20.3503   39.4851 C   0  0  0  0  0  0  0  0  0  0  0  0
   -2.8744   19.7524   39.2139 C   0  0  0  0  0  0  0  0  0  0  0  0
   -3.1482   18.4266   39.5657 C   0  0  0  0  0  0  0  0  0  0  0  0
   -2.2460   17.7095   40.3649 C   0  0  0  0  0  0  0  0  0  0  0  0
   -1.6145   15.3318   41.0059 C   0  0  0  0  0  0  0  0  0  0  0  0
    0.3639   14.3560   41.5623 C   0  0  0  0  0  0  0  0  0  0  0  0
    1.7811   14.3420   41.9265 C   0  0  0  0  0  0  0  0  0  0  0  0
    2.5023   13.1471   42.0606 C   0  0  0  0  0  0  0  0  0  0  0  0
    3.8577   13.1579   42.3748 C   0  0  0  0  0  0  0  0  0  0  0  0
    4.4973   14.3756   42.5104 C   0  0  0  0  0  0  0  0  0  0  0  0
    3.8239   15.5809   42.3806 C   0  0  0  0  0  0  0  0  0  0  0  0
    2.4656   15.5490   42.0773 C   0  0  0  0  0  0  0  0  0  0  0  0
   -0.3809   13.2280   41.3406 C   0  0  0  0  0  0  0  0  0  0  0  0
   -1.0003   18.2926   40.6376 C   0  0  0  0  0  0  0  0  0  0  0  0
   -0.7291   19.5911   40.2025 C   0  0  0  0  0  0  0  0  0  0  0  0
   -2.4801   16.3356   40.6792 N   0  0  0  0  0  0  0  0  0  0  0  0
   -0.2885   15.5815   41.2891 N   0  0  0  0  0  0  0  0  0  0  0  0
   -2.1136   22.1932   38.0488 O   0  0  0  0  0  0  0  0  0  0  0  0
   -0.2198   22.2367   39.2560 O   0  0  0  0  0  0  0  0  0  0  0  0
    0.5297   20.1130   40.3838 O   0  0  0  0  0  0  0  0  0  0  0  0
   -1.9474   13.6302   40.7471 S   0  0  0  0  0  0  0  0  0  0  0  0
    6.1937   14.4051   42.8611 Cl  0  0  0  0  0  0  0  0  0  0  0  0
   -3.6534   20.3411   38.7074 H   0  0  0  0  0  0  0  0  0  0  0  0
   -4.0730   17.9453   39.2148 H   0  0  0  0  0  0  0  0  0  0  0  0
    1.9882   12.1855   41.9152 H   0  0  0  0  0  0  0  0  0  0  0  0
    4.4092   12.2162   42.5124 H   0  0  0  0  0  0  0  0  0  0  0  0
    4.3497   16.5379   42.5139 H   0  0  0  0  0  0  0  0  0  0  0  0
    1.9197   16.4960   41.9539 H   0  0  0  0  0  0  0  0  0  0  0  0
   -0.0261   12.2020   41.5179 H   0  0  0  0  0  0  0  0  0  0  0  0
   -0.2377   17.7275   41.1937 H   0  0  0  0  0  0  0  0  0  0  0  0
   -3.4708   16.0546   40.6553 H   0  0  0  0  0  0  0  0  0  0  0  0
  1  2  1  0
  1 19  1  0
  1 20  2  0
  2  3  1  0
  2 16  2  0
  3  4  2  0
  4  5  1  0
  5 15  2  0
  5 17  1  0
  6 17  1  0
  6 18  2  0
  6 22  1  0
  7  8  1  0
  7 14  2  0
  7 18  1  0
  8  9  1  0
  8 13  2  0
  9 10  2  0
 10 11  1  0
 11 12  2  0
 11 23  1  0
 12 13  1  0
 14 22  1  0
 15 16  1  0
 16 21  1  0
  3 24  1  0
  4 25  1  0
  9 26  1  0
 10 27  1  0
 12 28  1  0
 13 29  1  0
 14 30  1  0
 15 31  1  0
 17 32  1  0
M  CHG  2  19  -1  21  -1
M  END
>  <mol_id>  (81) 
2026-08-23-6tgu-s0-n100-r1-0081

>  <rmsd_to_ref>  (81) 
4.127551020408633

$$$$
6tgu.A
     RDKit          3D

 32 34  0  0  0  0  0  0  0  0999 V2000
    4.3032   21.8389   40.8553 C   0  0  0  0  0  0  0  0  0  0  0  0
    3.4127   20.7647   41.3434 C   0  0  0  0  0  0  0  0  0  0  0  0
    2.5401   20.1577   40.4739 C   0  0  0  0  0  0  0  0  0  0  0  0
    1.7145   19.1513   40.9366 C   0  0  0  0  0  0  0  0  0  0  0  0
    1.7594   18.7534   42.2592 C   0  0  0  0  0  0  0  0  0  0  0  0
    0.0150   17.1222   41.7264 C   0  0  0  0  0  0  0  0  0  0  0  0
   -1.0947   16.0147   40.1194 C   0  0  0  0  0  0  0  0  0  0  0  0
   -1.0836   14.9723   39.0947 C   0  0  0  0  0  0  0  0  0  0  0  0
   -2.2080   14.7263   38.3296 C   0  0  0  0  0  0  0  0  0  0  0  0
   -2.2293   13.7556   37.3529 C   0  0  0  0  0  0  0  0  0  0  0  0
   -1.1049   12.9969   37.1171 C   0  0  0  0  0  0  0  0  0  0  0  0
    0.0411   13.2091   37.8583 C   0  0  0  0  0  0  0  0  0  0  0  0
    0.0217   14.1914   38.8279 C   0  0  0  0  0  0  0  0  0  0  0  0
   -2.2417   16.7985   40.3456 C   0  0  0  0  0  0  0  0  0  0  0  0
    2.6398   19.3643   43.1435 C   0  0  0  0  0  0  0  0  0  0  0  0
    3.4607   20.3655   42.6813 C   0  0  0  0  0  0  0  0  0  0  0  0
    0.9020   17.7032   42.7241 N   0  0  0  0  0  0  0  0  0  0  0  0
   -0.0994   16.3562   40.9231 N   0  0  0  0  0  0  0  0  0  0  0  0
    5.1895   22.4431   41.7421 O   0  0  0  0  0  0  0  0  0  0  0  0
    4.2498   22.1999   39.6279 O   0  0  0  0  0  0  0  0  0  0  0  0
    4.3537   20.9930   43.5556 O   0  0  0  0  0  0  0  0  0  0  0  0
   -1.7059   17.9392   41.7134 S   0  0  0  0  0  0  0  0  0  0  0  0
   -1.0869   11.7425   35.8733 Cl  0  0  0  0  0  0  0  0  0  0  0  0
    2.4912   20.4588   39.4250 H   0  0  0  0  0  0  0  0  0  0  0  0
    1.0285   18.6893   40.2144 H   0  0  0  0  0  0  0  0  0  0  0  0
   -3.1349   15.2948   38.4677 H   0  0  0  0  0  0  0  0  0  0  0  0
   -3.1456   13.5984   36.7735 H   0  0  0  0  0  0  0  0  0  0  0  0
    0.9421   12.6220   37.6889 H   0  0  0  0  0  0  0  0  0  0  0  0
    0.9236   14.3701   39.4239 H   0  0  0  0  0  0  0  0  0  0  0  0
   -3.1842   16.8127   39.9177 H   0  0  0  0  0  0  0  0  0  0  0  0
    2.6585   19.0364   44.1797 H   0  0  0  0  0  0  0  0  0  0  0  0
    0.9109   17.3802   43.7014 H   0  0  0  0  0  0  0  0  0  0  0  0
  1  2  1  0
  1 19  1  0
  1 20  2  0
  2  3  1  0
  2 16  2  0
  3  4  2  0
  4  5  1  0
  5 15  2  0
  5 17  1  0
  6 17  1  0
  6 18  2  0
  6 22  1  0
  7  8  1  0
  7 14  2  0
  7 18  1  0
  8  9  1  0
  8 13  2  0
  9 10  2  0
 10 11  1  0
 11 12  2  0
 11 23  1  0
 12 13  1  0
 14 22  1  0
 15 16  1  0
 16 21  1  0
  3 24  1  0
  4 25  1  0
  9 26  1  0
 10 27  1  0
 12 28  1  0
 13 29  1  0
 14 30  1  0
 15 31  1  0
 17 32  1  0
M  CHG  2  19  -1  21  -1
M  END
>  <mol_id>  (82) 
2026-08-23-6tgu-s0-n100-r1-0082

>  <rmsd_to_ref>  (82) 
4.1734693877592

$$$$
6tgu.A
     RDKit          3D

 32 34  0  0  0  0  0  0  0  0999 V2000
   -0.5754   21.6152   41.7755 C   0  0  0  0  0  0  0  0  0  0  0  0
    0.0353   20.3810   42.4451 C   0  0  0  0  0  0  0  0  0  0  0  0
   -0.0091   20.2327   43.8296 C   0  0  0  0  0  0  0  0  0  0  0  0
    0.3640   19.0414   44.4605 C   0  0  0  0  0  0  0  0  0  0  0  0
    0.9649   18.0117   43.7220 C   0  0  0  0  0  0  0  0  0  0  0  0
    1.4314   15.5142   43.8103 C   0  0  0  0  0  0  0  0  0  0  0  0
    1.5854   13.9140   42.2004 C   0  0  0  0  0  0  0  0  0  0  0  0
    1.6744   13.4170   40.8271 C   0  0  0  0  0  0  0  0  0  0  0  0
    1.6479   12.0471   40.5292 C   0  0  0  0  0  0  0  0  0  0  0  0
    1.6998   11.5972   39.2136 C   0  0  0  0  0  0  0  0  0  0  0  0
    1.7341   12.5303   38.1945 C   0  0  0  0  0  0  0  0  0  0  0  0
    1.7560   13.8943   38.4438 C   0  0  0  0  0  0  0  0  0  0  0  0
    1.7148   14.3243   39.7673 C   0  0  0  0  0  0  0  0  0  0  0  0
    1.4883   13.1061   43.3024 C   0  0  0  0  0  0  0  0  0  0  0  0
    1.0073   18.1404   42.3264 C   0  0  0  0  0  0  0  0  0  0  0  0
    0.5524   19.3133   41.7211 C   0  0  0  0  0  0  0  0  0  0  0  0
    1.2928   16.7653   44.3386 N   0  0  0  0  0  0  0  0  0  0  0  0
    1.4630   15.3017   42.4484 N   0  0  0  0  0  0  0  0  0  0  0  0
   -1.2527   22.3844   42.5189 O   0  0  0  0  0  0  0  0  0  0  0  0
   -0.4253   21.7217   40.5386 O   0  0  0  0  0  0  0  0  0  0  0  0
    0.5015   19.3874   40.3494 O   0  0  0  0  0  0  0  0  0  0  0  0
    1.2095   14.0357   44.7258 S   0  0  0  0  0  0  0  0  0  0  0  0
    1.7577   11.9857   36.5500 Cl  0  0  0  0  0  0  0  0  0  0  0  0
   -0.3482   21.0786   44.4456 H   0  0  0  0  0  0  0  0  0  0  0  0
    0.1858   18.9120   45.5383 H   0  0  0  0  0  0  0  0  0  0  0  0
    1.5849   11.3162   41.3489 H   0  0  0  0  0  0  0  0  0  0  0  0
    1.7134   10.5205   38.9890 H   0  0  0  0  0  0  0  0  0  0  0  0
    1.8046   14.6181   37.6169 H   0  0  0  0  0  0  0  0  0  0  0  0
    1.7141   15.4031   39.9825 H   0  0  0  0  0  0  0  0  0  0  0  0
    1.5765   12.0099   43.2813 H   0  0  0  0  0  0  0  0  0  0  0  0
    1.3986   17.3182   41.7092 H   0  0  0  0  0  0  0  0  0  0  0  0
    1.4517   16.8201   45.3548 H   0  0  0  0  0  0  0  0  0  0  0  0
  1  2  1  0
  1 19  1  0
  1 20  2  0
  2  3  1  0
  2 16  2  0
  3  4  2  0
  4  5  1  0
  5 15  2  0
  5 17  1  0
  6 17  1  0
  6 18  2  0
  6 22  1  0
  7  8  1  0
  7 14  2  0
  7 18  1  0
  8  9  1  0
  8 13  2  0
  9 10  2  0
 10 11  1  0
 11 12  2  0
 11 23  1  0
 12 13  1  0
 14 22  1  0
 15 16  1  0
 16 21  1  0
  3 24  1  0
  4 25  1  0
  9 26  1  0
 10 27  1  0
 12 28  1  0
 13 29  1  0
 14 30  1  0
 15 31  1  0
 17 32  1  0
M  CHG  2  19  -1  21  -1
M  END
>  <mol_id>  (83) 
2026-08-23-6tgu-s0-n100-r1-0083

>  <rmsd_to_ref>  (83) 
4.219387755107726

$$$$
6tgu.A
     RDKit          3D

 32 34  0  0  0  0  0  0  0  0999 V2000
    5.7092   18.6002   36.4218 C   0  0  0  0  0  0  0  0  0  0  0  0
    5.1630   18.2247   37.7196 C   0  0  0  0  0  0  0  0  0  0  0  0
    4.0350   18.8442   38.2146 C   0  0  0  0  0  0  0  0  0  0  0  0
    3.5098   18.4928   39.4472 C   0  0  0  0  0  0  0  0  0  0  0  0
    4.0662   17.5240   40.2403 C   0  0  0  0  0  0  0  0  0  0  0  0
    2.2676   17.1208   41.9568 C   0  0  0  0  0  0  0  0  0  0  0  0
    0.3616   16.9700   43.1707 C   0  0  0  0  0  0  0  0  0  0  0  0
   -0.3387   16.6531   44.4369 C   0  0  0  0  0  0  0  0  0  0  0  0
   -1.7001   16.7905   44.5330 C   0  0  0  0  0  0  0  0  0  0  0  0
   -2.3141   16.4850   45.7296 C   0  0  0  0  0  0  0  0  0  0  0  0
   -1.6305   16.0453   46.8439 C   0  0  0  0  0  0  0  0  0  0  0  0
   -0.2677   15.9112   46.7370 C   0  0  0  0  0  0  0  0  0  0  0  0
    0.3582   16.2154   45.5401 C   0  0  0  0  0  0  0  0  0  0  0  0
   -0.3927   17.4288   42.0221 C   0  0  0  0  0  0  0  0  0  0  0  0
    5.2132   16.9035   39.7229 C   0  0  0  0  0  0  0  0  0  0  0  0
    5.7376   17.2513   38.4976 C   0  0  0  0  0  0  0  0  0  0  0  0
    3.6105   17.0809   41.4796 N   0  0  0  0  0  0  0  0  0  0  0  0
    1.6199   16.8746   42.9818 N   0  0  0  0  0  0  0  0  0  0  0  0
    6.8482   17.9550   35.9527 O   0  0  0  0  0  0  0  0  0  0  0  0
    5.1305   19.5090   35.7501 O   0  0  0  0  0  0  0  0  0  0  0  0
    6.8713   16.6047   38.0384 O   0  0  0  0  0  0  0  0  0  0  0  0
    0.8799   17.6658   40.7834 S   0  0  0  0  0  0  0  0  0  0  0  0
   -2.4449   15.6638   48.3559 Cl  0  0  0  0  0  0  0  0  0  0  0  0
    3.5439   19.6307   37.6208 H   0  0  0  0  0  0  0  0  0  0  0  0
    2.6407   19.0288   39.7663 H   0  0  0  0  0  0  0  0  0  0  0  0
   -2.3159   17.1219   43.7321 H   0  0  0  0  0  0  0  0  0  0  0  0
   -3.3829   16.5894   45.8158 H   0  0  0  0  0  0  0  0  0  0  0  0
    0.2701   15.5671   47.6083 H   0  0  0  0  0  0  0  0  0  0  0  0
    1.4351   16.1101   45.4535 H   0  0  0  0  0  0  0  0  0  0  0  0
   -1.4737   17.5867   41.9459 H   0  0  0  0  0  0  0  0  0  0  0  0
    5.7114   16.1294   40.2882 H   0  0  0  0  0  0  0  0  0  0  0  0
    4.3009   16.6710   42.1555 H   0  0  0  0  0  0  0  0  0  0  0  0
  1  2  1  0
  1 19  1  0
  1 20  2  0
  2  3  1  0
  2 16  2  0
  3  4  2  0
  4  5  1  0
  5 15  2  0
  5 17  1  0
  6 17  1  0
  6 18  2  0
  6 22  1  0
  7  8  1  0
  7 14  2  0
  7 18  1  0
  8  9  1  0
  8 13  2  0
  9 10  2  0
 10 11  1  0
 11 12  2  0
 11 23  1  0
 12 13  1  0
 14 22  1  0
 15 16  1  0
 16 21  1  0
  3 24  1  0
  4 25  1  0
  9 26  1  0
 10 27  1  0
 12 28  1  0
 13 29  1  0
 14 30  1  0
 15 31  1  0
 17 32  1  0
M  CHG  2  19  -1  21  -1
M  END
>  <mol_id>  (84) 
2026-08-23-6tgu-s0-n100-r1-0084

>  <rmsd_to_ref>  (84) 
4.265306122451497

$$$$
6tgu.A
     RDKit          3D

 32 34  0  0  0  0  0  0  0  0999 V2000
   -1.4798   16.3689   36.9747 C   0  0  0  0  0  0  0  0  0  0  0  0
   -1.1195   17.2975   38.1377 C   0  0  0  0  0  0  0  0  0  0  0  0
   -1.9626   18.3490   38.4905 C   0  0  0  0  0  0  0  0  0  0  0  0
   -1.7675   19.0974   39.6560 C   0  0  0  0  0  0  0  0  0  0  0  0
   -0.6047   18.9208   40.4198 C   0  0  0  0  0  0  0  0  0  0  0  0
    0.3232   19.3314   42.7508 C   0  0  0  0  0  0  0  0  0  0  0  0
    1.8288   18.2076   44.0338 C   0  0  0  0  0  0  0  0  0  0  0  0
    2.8617   17.2053   44.2975 C   0  0  0  0  0  0  0  0  0  0  0  0
    3.3709   16.9838   45.5850 C   0  0  0  0  0  0  0  0  0  0  0  0
    4.3289   16.0022   45.8192 C   0  0  0  0  0  0  0  0  0  0  0  0
    4.7420   15.2131   44.7622 C   0  0  0  0  0  0  0  0  0  0  0  0
    4.2605   15.3942   43.4744 C   0  0  0  0  0  0  0  0  0  0  0  0
    3.3109   16.3890   43.2583 C   0  0  0  0  0  0  0  0  0  0  0  0
    1.2861   19.0191   44.9947 C   0  0  0  0  0  0  0  0  0  0  0  0
    0.2486   17.8598   40.0848 C   0  0  0  0  0  0  0  0  0  0  0  0
   -0.0188   17.0804   38.9578 C   0  0  0  0  0  0  0  0  0  0  0  0
   -0.4208   19.6306   41.6459 N   0  0  0  0  0  0  0  0  0  0  0  0
    1.2340   18.2964   42.7530 N   0  0  0  0  0  0  0  0  0  0  0  0
   -2.6369   16.5064   36.4796 O   0  0  0  0  0  0  0  0  0  0  0  0
   -0.6373   15.4995   36.6616 O   0  0  0  0  0  0  0  0  0  0  0  0
    0.7639   15.9803   38.6986 O   0  0  0  0  0  0  0  0  0  0  0  0
   -0.0291   19.9326   44.3595 S   0  0  0  0  0  0  0  0  0  0  0  0
    5.9040   13.9599   45.0465 Cl  0  0  0  0  0  0  0  0  0  0  0  0
   -2.8077   18.5984   37.8321 H   0  0  0  0  0  0  0  0  0  0  0  0
   -2.5278   19.8259   39.9741 H   0  0  0  0  0  0  0  0  0  0  0  0
    3.0072   17.5958   46.4235 H   0  0  0  0  0  0  0  0  0  0  0  0
    4.7491   15.8571   46.8253 H   0  0  0  0  0  0  0  0  0  0  0  0
    4.6198   14.7677   42.6447 H   0  0  0  0  0  0  0  0  0  0  0  0
    2.9056   16.5349   42.2462 H   0  0  0  0  0  0  0  0  0  0  0  0
    1.6427   19.0795   46.0335 H   0  0  0  0  0  0  0  0  0  0  0  0
    1.1276   17.6418   40.7092 H   0  0  0  0  0  0  0  0  0  0  0  0
   -0.9374   20.5196   41.7067 H   0  0  0  0  0  0  0  0  0  0  0  0
  1  2  1  0
  1 19  1  0
  1 20  2  0
  2  3  1  0
  2 16  2  0
  3  4  2  0
  4  5  1  0
  5 15  2  0
  5 17  1  0
  6 17  1  0
  6 18  2  0
  6 22  1  0
  7  8  1  0
  7 14  2  0
  7 18  1  0
  8  9  1  0
  8 13  2  0
  9 10  2  0
 10 11  1  0
 11 12  2  0
 11 23  1  0
 12 13  1  0
 14 22  1  0
 15 16  1  0
 16 21  1  0
  3 24  1  0
  4 25  1  0
  9 26  1  0
 10 27  1  0
 12 28  1  0
 13 29  1  0
 14 30  1  0
 15 31  1  0
 17 32  1  0
M  CHG  2  19  -1  21  -1
M  END
>  <mol_id>  (85) 
2026-08-23-6tgu-s0-n100-r1-0085

>  <rmsd_to_ref>  (85) 
4.311224489796633

$$$$
6tgu.A
     RDKit          3D

 32 34  0  0  0  0  0  0  0  0999 V2000
    0.4312   18.2407   34.5867 C   0  0  0  0  0  0  0  0  0  0  0  0
   -0.0168   17.6687   35.8363 C   0  0  0  0  0  0  0  0  0  0  0  0
    0.7448   16.7586   36.5004 C   0  0  0  0  0  0  0  0  0  0  0  0
    0.3138   16.2110   37.6959 C   0  0  0  0  0  0  0  0  0  0  0  0
   -0.8794   16.5394   38.2796 C   0  0  0  0  0  0  0  0  0  0  0  0
   -0.6429   15.5232   40.5718 C   0  0  0  0  0  0  0  0  0  0  0  0
   -0.0965   14.5883   42.5453 C   0  0  0  0  0  0  0  0  0  0  0  0
   -0.5572   13.9870   43.8130 C   0  0  0  0  0  0  0  0  0  0  0  0
    0.3517   13.5457   44.7463 C   0  0  0  0  0  0  0  0  0  0  0  0
   -0.0670   12.9803   45.9358 C   0  0  0  0  0  0  0  0  0  0  0  0
   -1.4162   12.8421   46.2216 C   0  0  0  0  0  0  0  0  0  0  0  0
   -2.3445   13.2790   45.2974 C   0  0  0  0  0  0  0  0  0  0  0  0
   -1.8909   13.8387   44.1202 C   0  0  0  0  0  0  0  0  0  0  0  0
    1.2581   14.7258   42.2555 C   0  0  0  0  0  0  0  0  0  0  0  0
   -1.6555   17.4794   37.5841 C   0  0  0  0  0  0  0  0  0  0  0  0
   -1.2376   18.0307   36.3941 C   0  0  0  0  0  0  0  0  0  0  0  0
   -1.3934   16.0600   39.4862 N   0  0  0  0  0  0  0  0  0  0  0  0
   -0.8996   15.0290   41.6148 N   0  0  0  0  0  0  0  0  0  0  0  0
   -0.3353   19.1630   33.9046 O   0  0  0  0  0  0  0  0  0  0  0  0
    1.5437   17.9027   34.0924 O   0  0  0  0  0  0  0  0  0  0  0  0
   -2.0013   18.9577   35.7066 O   0  0  0  0  0  0  0  0  0  0  0  0
    1.2030   15.5161   40.5874 S   0  0  0  0  0  0  0  0  0  0  0  0
   -1.8928   12.1183   47.7448 Cl  0  0  0  0  0  0  0  0  0  0  0  0
    1.6990   16.4779   36.0607 H   0  0  0  0  0  0  0  0  0  0  0  0
    0.9681   15.4900   38.1513 H   0  0  0  0  0  0  0  0  0  0  0  0
    1.4152   13.6391   44.5534 H   0  0  0  0  0  0  0  0  0  0  0  0
    0.6841   12.6438   46.6477 H   0  0  0  0  0  0  0  0  0  0  0  0
   -3.4069   13.1724   45.5186 H   0  0  0  0  0  0  0  0  0  0  0  0
   -2.6167   14.1865   43.3838 H   0  0  0  0  0  0  0  0  0  0  0  0
    2.1299   14.4857   42.7620 H   0  0  0  0  0  0  0  0  0  0  0  0
   -2.6167   17.8066   37.9607 H   0  0  0  0  0  0  0  0  0  0  0  0
   -2.4294   16.0840   39.6328 H   0  0  0  0  0  0  0  0  0  0  0  0
  1  2  1  0
  1 19  1  0
  1 20  2  0
  2  3  1  0
  2 16  2  0
  3  4  2  0
  4  5  1  0
  5 15  2  0
  5 17  1  0
  6 17  1  0
  6 18  2  0
  6 22  1  0
  7  8  1  0
  7 14  2  0
  7 18  1  0
  8  9  1  0
  8 13  2  0
  9 10  2  0
 10 11  1  0
 11 12  2  0
 11 23  1  0
 12 13  1  0
 14 22  1  0
 15 16  1  0
 16 21  1  0
  3 24  1  0
  4 25  1  0
  9 26  1  0
 10 27  1  0
 12 28  1  0
 13 29  1  0
 14 30  1  0
 15 31  1  0
 17 32  1  0
M  CHG  2  19  -1  21  -1
M  END
>  <mol_id>  (86) 
2026-08-23-6tgu-s0-n100-r1-0086

>  <rmsd_to_ref>  (86) 
4.357142857145184

$$$$
6tgu.A
     RDKit          3D

 32 34  0  0  0  0  0  0  0  0999 V2000
   -2.0149   16.1646   37.3890 C   0  0  0  0  0  0  0  0  0  0  0  0
   -1.4731   17.1011   38.4725 C   0  0  0  0  0  0  0  0  0  0  0  0
   -2.1831   18.2415   38.8415 C   0  0  0  0  0  0  0  0  0  0  0  0
   -1.8215   19.0146   39.9496 C   0  0  0  0  0  0  0  0  0  0  0  0
   -0.6185   18.7593   40.6239 C   0  0  0  0  0  0  0  0  0  0  0  0
    0.5390   19.1740   42.8490 C   0  0  0  0  0  0  0  0  0  0  0  0
    2.0398   17.9650   44.0580 C   0  0  0  0  0  0  0  0  0  0  0  0
    2.9956   16.8805   44.2850 C   0  0  0  0  0  0  0  0  0  0  0  0
    3.5907   16.6639   45.5360 C   0  0  0  0  0  0  0  0  0  0  0  0
    4.4714   15.6059   45.7386 C   0  0  0  0  0  0  0  0  0  0  0  0
    4.7186   14.7389   44.6909 C   0  0  0  0  0  0  0  0  0  0  0  0
    4.1473   14.9125   43.4394 C   0  0  0  0  0  0  0  0  0  0  0  0
    3.2776   15.9836   43.2534 C   0  0  0  0  0  0  0  0  0  0  0  0
    1.6579   18.8628   45.0195 C   0  0  0  0  0  0  0  0  0  0  0  0
    0.1024   17.6092   40.2723 C   0  0  0  0  0  0  0  0  0  0  0  0
   -0.3306   16.8137   39.2099 C   0  0  0  0  0  0  0  0  0  0  0  0
   -0.2662   19.4976   41.7952 N   0  0  0  0  0  0  0  0  0  0  0  0
    1.3482   18.0579   42.8271 N   0  0  0  0  0  0  0  0  0  0  0  0
   -3.1928   16.3913   36.9837 O   0  0  0  0  0  0  0  0  0  0  0  0
   -1.2854   15.2069   37.0509 O   0  0  0  0  0  0  0  0  0  0  0  0
    0.3230   15.6345   38.9413 O   0  0  0  0  0  0  0  0  0  0  0  0
    0.3822   19.8708   44.4500 S   0  0  0  0  0  0  0  0  0  0  0  0
    5.7812   13.3934   44.9400 Cl  0  0  0  0  0  0  0  0  0  0  0  0
   -3.0552   18.5433   38.2428 H   0  0  0  0  0  0  0  0  0  0  0  0
   -2.4819   19.8245   40.2929 H   0  0  0  0  0  0  0  0  0  0  0  0
    3.3576   17.3413   46.3707 H   0  0  0  0  0  0  0  0  0  0  0  0
    4.9612   15.4625   46.7130 H   0  0  0  0  0  0  0  0  0  0  0  0
    4.3754   14.2215   42.6145 H   0  0  0  0  0  0  0  0  0  0  0  0
    2.8022   16.1262   42.2717 H   0  0  0  0  0  0  0  0  0  0  0  0
    2.1061   18.9311   46.0217 H   0  0  0  0  0  0  0  0  0  0  0  0
    1.0080   17.3341   40.8328 H   0  0  0  0  0  0  0  0  0  0  0  0
   -0.6923   20.4334   41.8547 H   0  0  0  0  0  0  0  0  0  0  0  0
  1  2  1  0
  1 19  1  0
  1 20  2  0
  2  3  1  0
  2 16  2  0
  3  4  2  0
  4  5  1  0
  5 15  2  0
  5 17  1  0
  6 17  1  0
  6 18  2  0
  6 22  1  0
  7  8  1  0
  7 14  2  0
  7 18  1  0
  8  9  1  0
  8 13  2  0
  9 10  2  0
 10 11  1  0
 11 12  2  0
 11 23  1  0
 12 13  1  0
 14 22  1  0
 15 16  1  0
 16 21  1  0
  3 24  1  0
  4 25  1  0
  9 26  1  0
 10 27  1  0
 12 28  1  0
 13 29  1  0
 14 30  1  0
 15 31  1  0
 17 32  1  0
M  CHG  2  19  -1  21  -1
M  END
>  <mol_id>  (87) 
2026-08-23-6tgu-s0-n100-r1-0087

>  <rmsd_to_ref>  (87) 
4.403061224492871

$$$$
6tgu.A
     RDKit          3D

 32 34  0  0  0  0  0  0  0  0999 V2000
    2.9756   22.2001   43.3902 C   0  0  0  0  0  0  0  0  0  0  0  0
    2.7126   20.7811   43.1935 C   0  0  0  0  0  0  0  0  0  0  0  0
    2.6006   19.9082   44.2514 C   0  0  0  0  0  0  0  0  0  0  0  0
    2.3525   18.5675   44.0586 C   0  0  0  0  0  0  0  0  0  0  0  0
    2.2017   18.0226   42.7748 C   0  0  0  0  0  0  0  0  0  0  0  0
    2.2288   15.8008   41.6010 C   0  0  0  0  0  0  0  0  0  0  0  0
    2.3945   14.0114   40.2443 C   0  0  0  0  0  0  0  0  0  0  0  0
    2.0707   12.6119   39.9720 C   0  0  0  0  0  0  0  0  0  0  0  0
    1.3139   11.8512   40.8481 C   0  0  0  0  0  0  0  0  0  0  0  0
    1.0301   10.5285   40.5404 C   0  0  0  0  0  0  0  0  0  0  0  0
    1.4738    9.9332   39.3869 C   0  0  0  0  0  0  0  0  0  0  0  0
    2.2278   10.6857   38.5105 C   0  0  0  0  0  0  0  0  0  0  0  0
    2.4996   11.9800   38.8233 C   0  0  0  0  0  0  0  0  0  0  0  0
    3.1493   14.7640   39.3471 C   0  0  0  0  0  0  0  0  0  0  0  0
    2.3167   18.9117   41.7402 C   0  0  0  0  0  0  0  0  0  0  0  0
    2.5680   20.2704   41.9230 C   0  0  0  0  0  0  0  0  0  0  0  0
    1.9351   16.6630   42.6878 N   0  0  0  0  0  0  0  0  0  0  0  0
    2.0221   14.6746   41.3017 N   0  0  0  0  0  0  0  0  0  0  0  0
    3.0807   23.0468   42.3182 O   0  0  0  0  0  0  0  0  0  0  0  0
    3.1146   22.6996   44.5554 O   0  0  0  0  0  0  0  0  0  0  0  0
    2.6717   21.1040   40.8100 O   0  0  0  0  0  0  0  0  0  0  0  0
    3.2584   16.4433   40.1479 S   0  0  0  0  0  0  0  0  0  0  0  0
    1.1290    8.2683   38.9750 Cl  0  0  0  0  0  0  0  0  0  0  0  0
    2.7230   20.3432   45.2483 H   0  0  0  0  0  0  0  0  0  0  0  0
    2.2716   17.9072   44.9325 H   0  0  0  0  0  0  0  0  0  0  0  0
    0.9643   12.3243   41.7581 H   0  0  0  0  0  0  0  0  0  0  0  0
    0.4436    9.9492   41.2231 H   0  0  0  0  0  0  0  0  0  0  0  0
    2.6085   10.2706   37.5770 H   0  0  0  0  0  0  0  0  0  0  0  0
    3.1009   12.5529   38.1065 H   0  0  0  0  0  0  0  0  0  0  0  0
    3.6102   14.5467   38.4000 H   0  0  0  0  0  0  0  0  0  0  0  0
    2.2046   18.5820   40.7387 H   0  0  0  0  0  0  0  0  0  0  0  0
    1.4597   16.1824   43.5093 H   0  0  0  0  0  0  0  0  0  0  0  0
  1  2  1  0
  1 19  1  0
  1 20  2  0
  2  3  1  0
  2 16  2  0
  3  4  2  0
  4  5  1  0
  5 15  2  0
  5 17  1  0
  6 17  1  0
  6 18  2  0
  6 22  1  0
  7  8  1  0
  7 14  2  0
  7 18  1  0
  8  9  1  0
  8 13  2  0
  9 10  2  0
 10 11  1  0
 11 12  2  0
 11 23  1  0
 12 13  1  0
 14 22  1  0
 15 16  1  0
 16 21  1  0
  3 24  1  0
  4 25  1  0
  9 26  1  0
 10 27  1  0
 12 28  1  0
 13 29  1  0
 14 30  1  0
 15 31  1  0
 17 32  1  0
M  CHG  2  19  -1  21  -1
M  END
>  <mol_id>  (88) 
2026-08-23-6tgu-s0-n100-r1-0088

>  <rmsd_to_ref>  (88) 
4.448979591837456

$$$$
6tgu.A
     RDKit          3D

 32 34  0  0  0  0  0  0  0  0999 V2000
   -3.9092   18.8759   39.9201 C   0  0  0  0  0  0  0  0  0  0  0  0
   -2.6391   19.0042   40.7658 C   0  0  0  0  0  0  0  0  0  0  0  0
   -2.6055   19.8577   41.8663 C   0  0  0  0  0  0  0  0  0  0  0  0
   -1.5377   19.8615   42.7698 C   0  0  0  0  0  0  0  0  0  0  0  0
   -0.3788   19.1218   42.4934 C   0  0  0  0  0  0  0  0  0  0  0  0
    1.6593   18.1203   43.6365 C   0  0  0  0  0  0  0  0  0  0  0  0
    2.9005   16.2582   43.2268 C   0  0  0  0  0  0  0  0  0  0  0  0
    3.3380   15.0994   42.4477 C   0  0  0  0  0  0  0  0  0  0  0  0
    4.2575   14.1688   42.9522 C   0  0  0  0  0  0  0  0  0  0  0  0
    4.6344   13.0556   42.2074 C   0  0  0  0  0  0  0  0  0  0  0  0
    4.0504   12.8565   40.9706 C   0  0  0  0  0  0  0  0  0  0  0  0
    3.1327   13.7483   40.4361 C   0  0  0  0  0  0  0  0  0  0  0  0
    2.7771   14.8620   41.1919 C   0  0  0  0  0  0  0  0  0  0  0  0
    3.3511   16.5477   44.4876 C   0  0  0  0  0  0  0  0  0  0  0  0
   -0.4003   18.2495   41.3959 C   0  0  0  0  0  0  0  0  0  0  0  0
   -1.5161   18.2124   40.5577 C   0  0  0  0  0  0  0  0  0  0  0  0
    0.6937   19.0642   43.4356 N   0  0  0  0  0  0  0  0  0  0  0  0
    1.8609   17.0883   42.7447 N   0  0  0  0  0  0  0  0  0  0  0  0
   -4.9471   19.4449   40.3696 O   0  0  0  0  0  0  0  0  0  0  0  0
   -3.8407   18.1557   38.9001 O   0  0  0  0  0  0  0  0  0  0  0  0
   -1.5695   17.2809   39.5481 O   0  0  0  0  0  0  0  0  0  0  0  0
    2.4792   17.8697   45.1656 S   0  0  0  0  0  0  0  0  0  0  0  0
    4.4792   11.4533   40.0493 Cl  0  0  0  0  0  0  0  0  0  0  0  0
   -3.4445   20.5499   42.0298 H   0  0  0  0  0  0  0  0  0  0  0  0
   -1.6072   20.4460   43.6991 H   0  0  0  0  0  0  0  0  0  0  0  0
    4.6879   14.3213   43.9529 H   0  0  0  0  0  0  0  0  0  0  0  0
    5.3822   12.3482   42.5951 H   0  0  0  0  0  0  0  0  0  0  0  0
    2.6968   13.5799   39.4403 H   0  0  0  0  0  0  0  0  0  0  0  0
    2.0376   15.5706   40.7904 H   0  0  0  0  0  0  0  0  0  0  0  0
    4.1618   16.0079   44.9989 H   0  0  0  0  0  0  0  0  0  0  0  0
    0.4610   17.5951   41.1955 H   0  0  0  0  0  0  0  0  0  0  0  0
    0.7476   19.8726   44.0716 H   0  0  0  0  0  0  0  0  0  0  0  0
  1  2  1  0
  1 19  1  0
  1 20  2  0
  2  3  1  0
  2 16  2  0
  3  4  2  0
  4  5  1  0
  5 15  2  0
  5 17  1  0
  6 17  1  0
  6 18  2  0
  6 22  1  0
  7  8  1  0
  7 14  2  0
  7 18  1  0
  8  9  1  0
  8 13  2  0
  9 10  2  0
 10 11  1  0
 11 12  2  0
 11 23  1  0
 12 13  1  0
 14 22  1  0
 15 16  1  0
 16 21  1  0
  3 24  1  0
  4 25  1  0
  9 26  1  0
 10 27  1  0
 12 28  1  0
 13 29  1  0
 14 30  1  0
 15 31  1  0
 17 32  1  0
M  CHG  2  19  -1  21  -1
M  END
>  <mol_id>  (89) 
2026-08-23-6tgu-s0-n100-r1-0089

>  <rmsd_to_ref>  (89) 
4.494897959187713

$$$$
6tgu.A
     RDKit          3D

 32 34  0  0  0  0  0  0  0  0999 V2000
    7.5570   19.9276   39.3272 C   0  0  0  0  0  0  0  0  0  0  0  0
    6.3057   19.2297   39.5905 C   0  0  0  0  0  0  0  0  0  0  0  0
    5.6696   18.4782   38.6372 C   0  0  0  0  0  0  0  0  0  0  0  0
    4.5029   17.8338   38.9039 C   0  0  0  0  0  0  0  0  0  0  0  0
    3.8770   17.8955   40.1617 C   0  0  0  0  0  0  0  0  0  0  0  0
    1.6708   17.4374   41.2861 C   0  0  0  0  0  0  0  0  0  0  0  0
   -0.1866   17.3437   42.5422 C   0  0  0  0  0  0  0  0  0  0  0  0
   -1.4312   16.6150   42.8727 C   0  0  0  0  0  0  0  0  0  0  0  0
   -2.2770   17.0927   43.8482 C   0  0  0  0  0  0  0  0  0  0  0  0
   -3.4327   16.4065   44.1485 C   0  0  0  0  0  0  0  0  0  0  0  0
   -3.7872   15.2403   43.5038 C   0  0  0  0  0  0  0  0  0  0  0  0
   -2.9507   14.7514   42.5259 C   0  0  0  0  0  0  0  0  0  0  0  0
   -1.7993   15.4523   42.2399 C   0  0  0  0  0  0  0  0  0  0  0  0
    0.1756   18.5024   43.1807 C   0  0  0  0  0  0  0  0  0  0  0  0
    4.5351   18.6547   41.0982 C   0  0  0  0  0  0  0  0  0  0  0  0
    5.7332   19.3174   40.8293 C   0  0  0  0  0  0  0  0  0  0  0  0
    2.6996   17.1878   40.3254 N   0  0  0  0  0  0  0  0  0  0  0  0
    0.6620   16.9444   41.6253 N   0  0  0  0  0  0  0  0  0  0  0  0
    8.1673   19.8665   38.0978 O   0  0  0  0  0  0  0  0  0  0  0  0
    8.0682   20.5947   40.2669 O   0  0  0  0  0  0  0  0  0  0  0  0
    6.3513   20.0745   41.8265 O   0  0  0  0  0  0  0  0  0  0  0  0
    1.7333   18.9350   42.4021 S   0  0  0  0  0  0  0  0  0  0  0  0
   -5.2791   14.4288   43.9503 Cl  0  0  0  0  0  0  0  0  0  0  0  0
    6.1138   18.4021   37.6538 H   0  0  0  0  0  0  0  0  0  0  0  0
    4.0445   17.2576   38.1217 H   0  0  0  0  0  0  0  0  0  0  0  0
   -2.0620   18.0021   44.3980 H   0  0  0  0  0  0  0  0  0  0  0  0
   -4.1062   16.7858   44.9224 H   0  0  0  0  0  0  0  0  0  0  0  0
   -3.2268   13.8427   42.0255 H   0  0  0  0  0  0  0  0  0  0  0  0
   -1.1308   15.0827   41.4731 H   0  0  0  0  0  0  0  0  0  0  0  0
   -0.3198   19.0793   43.9825 H   0  0  0  0  0  0  0  0  0  0  0  0
    4.1555   18.7607   42.0885 H   0  0  0  0  0  0  0  0  0  0  0  0
    2.5066   16.3712   39.6953 H   0  0  0  0  0  0  0  0  0  0  0  0
  1  2  1  0
  1 19  1  0
  1 20  2  0
  2  3  1  0
  2 16  2  0
  3  4  2  0
  4  5  1  0
  5 15  2  0
  5 17  1  0
  6 17  1  0
  6 18  2  0
  6 22  1  0
  7  8  1  0
  7 14  2  0
  7 18  1  0
  8  9  1  0
  8 13  2  0
  9 10  2  0
 10 11  1  0
 11 12  2  0
 11 23  1  0
 12 13  1  0
 14 22  1  0
 15 16  1  0
 16 21  1  0
  3 24  1  0
  4 25  1  0
  9 26  1  0
 10 27  1  0
 12 28  1  0
 13 29  1  0
 14 30  1  0
 15 31  1  0
 17 32  1  0
M  CHG  2  19  -1  21  -1
M  END
>  <mol_id>  (90) 
2026-08-23-6tgu-s0-n100-r1-0090

>  <rmsd_to_ref>  (90) 
4.540816326533485

$$$$
6tgu.A
     RDKit          3D

 32 34  0  0  0  0  0  0  0  0999 V2000
   -0.8314   22.4560   41.6634 C   0  0  0  0  0  0  0  0  0  0  0  0
   -0.7868   21.0289   42.2167 C   0  0  0  0  0  0  0  0  0  0  0  0
   -1.8848   20.4963   42.8887 C   0  0  0  0  0  0  0  0  0  0  0  0
   -1.9554   19.1442   43.2398 C   0  0  0  0  0  0  0  0  0  0  0  0
   -0.8357   18.3154   43.0782 C   0  0  0  0  0  0  0  0  0  0  0  0
   -0.1877   15.8638   42.8959 C   0  0  0  0  0  0  0  0  0  0  0  0
    1.4654   14.7832   41.7666 C   0  0  0  0  0  0  0  0  0  0  0  0
    2.6958   14.6930   40.9798 C   0  0  0  0  0  0  0  0  0  0  0  0
    3.1617   13.4746   40.4657 C   0  0  0  0  0  0  0  0  0  0  0  0
    4.3164   13.4165   39.6915 C   0  0  0  0  0  0  0  0  0  0  0  0
    4.9781   14.5941   39.3982 C   0  0  0  0  0  0  0  0  0  0  0  0
    4.5491   15.8212   39.8811 C   0  0  0  0  0  0  0  0  0  0  0  0
    3.3981   15.8570   40.6634 C   0  0  0  0  0  0  0  0  0  0  0  0
    0.6789   13.7075   42.0841 C   0  0  0  0  0  0  0  0  0  0  0  0
    0.2734   18.8327   42.3938 C   0  0  0  0  0  0  0  0  0  0  0  0
    0.2794   20.1679   41.9860 C   0  0  0  0  0  0  0  0  0  0  0  0
   -0.9113   16.9192   43.3716 N   0  0  0  0  0  0  0  0  0  0  0  0
    0.9493   16.0473   42.1380 N   0  0  0  0  0  0  0  0  0  0  0  0
   -1.9529   23.0424   41.7027 O   0  0  0  0  0  0  0  0  0  0  0  0
    0.2184   22.8964   41.1459 O   0  0  0  0  0  0  0  0  0  0  0  0
    1.3250   20.6353   41.2258 O   0  0  0  0  0  0  0  0  0  0  0  0
   -0.7789   14.2141   42.8495 S   0  0  0  0  0  0  0  0  0  0  0  0
    6.3942   14.5423   38.4014 Cl  0  0  0  0  0  0  0  0  0  0  0  0
   -2.7221   21.1596   43.1513 H   0  0  0  0  0  0  0  0  0  0  0  0
   -2.8911   18.7301   43.6435 H   0  0  0  0  0  0  0  0  0  0  0  0
    2.6054   12.5497   40.6778 H   0  0  0  0  0  0  0  0  0  0  0  0
    4.6951   12.4528   39.3203 H   0  0  0  0  0  0  0  0  0  0  0  0
    5.1041   16.7428   39.6518 H   0  0  0  0  0  0  0  0  0  0  0  0
    3.0340   16.8241   41.0405 H   0  0  0  0  0  0  0  0  0  0  0  0
    0.9431   12.6598   41.8777 H   0  0  0  0  0  0  0  0  0  0  0  0
    1.1378   18.1873   42.1785 H   0  0  0  0  0  0  0  0  0  0  0  0
   -1.6350   16.6657   44.0593 H   0  0  0  0  0  0  0  0  0  0  0  0
  1  2  1  0
  1 19  1  0
  1 20  2  0
  2  3  1  0
  2 16  2  0
  3  4  2  0
  4  5  1  0
  5 15  2  0
  5 17  1  0
  6 17  1  0
  6 18  2  0
  6 22  1  0
  7  8  1  0
  7 14  2  0
  7 18  1  0
  8  9  1  0
  8 13  2  0
  9 10  2  0
 10 11  1  0
 11 12  2  0
 11 23  1  0
 12 13  1  0
 14 22  1  0
 15 16  1  0
 16 21  1  0
  3 24  1  0
  4 25  1  0
  9 26  1  0
 10 27  1  0
 12 28  1  0
 13 29  1  0
 14 30  1  0
 15 31  1  0
 17 32  1  0
M  CHG  2  19  -1  21  -1
M  END
>  <mol_id>  (91) 
2026-08-23-6tgu-s0-n100-r1-0091

>  <rmsd_to_ref>  (91) 
4.586734693885919

$$$$
6tgu.A
     RDKit          3D

 32 34  0  0  0  0  0  0  0  0999 V2000
    1.9807   23.4268   43.8913 C   0  0  0  0  0  0  0  0  0  0  0  0
    1.9733   22.3229   42.9457 C   0  0  0  0  0  0  0  0  0  0  0  0
    1.0439   21.3216   43.1183 C   0  0  0  0  0  0  0  0  0  0  0  0
    0.9940   20.2357   42.2366 C   0  0  0  0  0  0  0  0  0  0  0  0
    1.8510   20.1099   41.1728 C   0  0  0  0  0  0  0  0  0  0  0  0
    1.4999   17.7131   40.4727 C   0  0  0  0  0  0  0  0  0  0  0  0
    1.0024   15.5184   40.3298 C   0  0  0  0  0  0  0  0  0  0  0  0
    0.8735   14.3202   39.5100 C   0  0  0  0  0  0  0  0  0  0  0  0
    1.1309   14.3117   38.1555 C   0  0  0  0  0  0  0  0  0  0  0  0
    1.0057   13.1765   37.4046 C   0  0  0  0  0  0  0  0  0  0  0  0
    0.6187   11.9928   37.9621 C   0  0  0  0  0  0  0  0  0  0  0  0
    0.3537   11.9689   39.3165 C   0  0  0  0  0  0  0  0  0  0  0  0
    0.4819   13.1184   40.0688 C   0  0  0  0  0  0  0  0  0  0  0  0
    0.7374   15.5125   41.7113 C   0  0  0  0  0  0  0  0  0  0  0  0
    2.7841   21.1439   41.0238 C   0  0  0  0  0  0  0  0  0  0  0  0
    2.8354   22.2139   41.8895 C   0  0  0  0  0  0  0  0  0  0  0  0
    1.8907   19.0566   40.2539 N   0  0  0  0  0  0  0  0  0  0  0  0
    1.3645   16.7151   39.9309 N   0  0  0  0  0  0  0  0  0  0  0  0
    2.9108   24.4557   43.7444 O   0  0  0  0  0  0  0  0  0  0  0  0
    1.1491   23.4803   44.8637 O   0  0  0  0  0  0  0  0  0  0  0  0
    3.7719   23.2339   41.7244 O   0  0  0  0  0  0  0  0  0  0  0  0
    1.0332   17.1948   42.2690 S   0  0  0  0  0  0  0  0  0  0  0  0
    0.4441   10.5033   37.0318 Cl  0  0  0  0  0  0  0  0  0  0  0  0
    0.3513   21.3778   43.9396 H   0  0  0  0  0  0  0  0  0  0  0  0
    0.2370   19.5128   42.4335 H   0  0  0  0  0  0  0  0  0  0  0  0
    1.4414   15.2204   37.6585 H   0  0  0  0  0  0  0  0  0  0  0  0
    1.2119   13.1867   36.3383 H   0  0  0  0  0  0  0  0  0  0  0  0
    0.0493   11.0487   39.7721 H   0  0  0  0  0  0  0  0  0  0  0  0
    0.2595   13.0325   41.1238 H   0  0  0  0  0  0  0  0  0  0  0  0
    0.3999   14.6341   42.3777 H   0  0  0  0  0  0  0  0  0  0  0  0
    3.5074   21.1416   40.2139 H   0  0  0  0  0  0  0  0  0  0  0  0
    2.2482   19.2659   39.2859 H   0  0  0  0  0  0  0  0  0  0  0  0
  1  2  1  0
  1 19  1  0
  1 20  2  0
  2  3  1  0
  2 16  2  0
  3  4  2  0
  4  5  1  0
  5 15  2  0
  5 17  1  0
  6 17  1  0
  6 18  2  0
  6 22  1  0
  7  8  1  0
  7 14  2  0
  7 18  1  0
  8  9  1  0
  8 13  2  0
  9 10  2  0
 10 11  1  0
 11 12  2  0
 11 23  1  0
 12 13  1  0
 14 22  1  0
 15 16  1  0
 16 21  1  0
  3 24  1  0
  4 25  1  0
  9 26  1  0
 10 27  1  0
 12 28  1  0
 13 29  1  0
 14 30  1  0
 15 31  1  0
 17 32  1  0
M  CHG  2  19  -1  21  -1
M  END
>  <mol_id>  (92) 
2026-08-23-6tgu-s0-n100-r1-0092

>  <rmsd_to_ref>  (92) 
4.632653061230367

$$$$
6tgu.A
     RDKit          3D

 32 34  0  0  0  0  0  0  0  0999 V2000
    1.8236   16.4860   35.6755 C   0  0  0  0  0  0  0  0  0  0  0  0
    1.3361   17.1950   36.9421 C   0  0  0  0  0  0  0  0  0  0  0  0
   -0.0212   17.4408   37.1372 C   0  0  0  0  0  0  0  0  0  0  0  0
   -0.5226   17.9105   38.3555 C   0  0  0  0  0  0  0  0  0  0  0  0
    0.3572   18.3170   39.3692 C   0  0  0  0  0  0  0  0  0  0  0  0
    0.4450   18.7322   41.8758 C   0  0  0  0  0  0  0  0  0  0  0  0
    2.0981   18.5043   43.4220 C   0  0  0  0  0  0  0  0  0  0  0  0
    3.4734   18.2890   43.8730 C   0  0  0  0  0  0  0  0  0  0  0  0
    3.7999   18.1676   45.2312 C   0  0  0  0  0  0  0  0  0  0  0  0
    5.1095   17.9295   45.6363 C   0  0  0  0  0  0  0  0  0  0  0  0
    6.0842   17.7696   44.6694 C   0  0  0  0  0  0  0  0  0  0  0  0
    5.8043   17.8762   43.3154 C   0  0  0  0  0  0  0  0  0  0  0  0
    4.4899   18.1260   42.9305 C   0  0  0  0  0  0  0  0  0  0  0  0
    1.0254   18.6232   44.2656 C   0  0  0  0  0  0  0  0  0  0  0  0
    1.7255   18.0664   39.1934 C   0  0  0  0  0  0  0  0  0  0  0  0
    2.1850   17.5218   37.9928 C   0  0  0  0  0  0  0  0  0  0  0  0
   -0.1381   18.7382   40.6414 N   0  0  0  0  0  0  0  0  0  0  0  0
    1.7883   18.4700   42.0419 N   0  0  0  0  0  0  0  0  0  0  0  0
    0.9306   15.9997   34.9211 O   0  0  0  0  0  0  0  0  0  0  0  0
    3.0604   16.3737   35.5291 O   0  0  0  0  0  0  0  0  0  0  0  0
    3.5119   17.1838   37.8708 O   0  0  0  0  0  0  0  0  0  0  0  0
   -0.4520   18.6739   43.3810 S   0  0  0  0  0  0  0  0  0  0  0  0
    7.7119   17.4321   45.1575 Cl  0  0  0  0  0  0  0  0  0  0  0  0
   -0.7203   17.2598   36.3074 H   0  0  0  0  0  0  0  0  0  0  0  0
   -1.6092   17.9612   38.5189 H   0  0  0  0  0  0  0  0  0  0  0  0
    3.0079   18.2621   45.9887 H   0  0  0  0  0  0  0  0  0  0  0  0
    5.3642   17.8698   46.7048 H   0  0  0  0  0  0  0  0  0  0  0  0
    6.6006   17.7660   42.5645 H   0  0  0  0  0  0  0  0  0  0  0  0
    4.2472   18.1965   41.8600 H   0  0  0  0  0  0  0  0  0  0  0  0
    1.0977   18.6789   45.3618 H   0  0  0  0  0  0  0  0  0  0  0  0
    2.4361   18.2987   40.0003 H   0  0  0  0  0  0  0  0  0  0  0  0
   -1.0986   19.1097   40.6244 H   0  0  0  0  0  0  0  0  0  0  0  0
  1  2  1  0
  1 19  1  0
  1 20  2  0
  2  3  1  0
  2 16  2  0
  3  4  2  0
  4  5  1  0
  5 15  2  0
  5 17  1  0
  6 17  1  0
  6 18  2  0
  6 22  1  0
  7  8  1  0
  7 14  2  0
  7 18  1  0
  8  9  1  0
  8 13  2  0
  9 10  2  0
 10 11  1  0
 11 12  2  0
 11 23  1  0
 12 13  1  0
 14 22  1  0
 15 16  1  0
 16 21  1  0
  3 24  1  0
  4 25  1  0
  9 26  1  0
 10 27  1  0
 12 28  1  0
 13 29  1  0
 14 30  1  0
 15 31  1  0
 17 32  1  0
M  CHG  2  19  -1  21  -1
M  END
>  <mol_id>  (93) 
2026-08-23-6tgu-s0-n100-r1-0093

>  <rmsd_to_ref>  (93) 
4.67857142857794

$$$$
6tgu.A
     RDKit          3D

 32 34  0  0  0  0  0  0  0  0999 V2000
    6.4070   18.8301   35.8558 C   0  0  0  0  0  0  0  0  0  0  0  0
    5.4866   18.4759   36.9255 C   0  0  0  0  0  0  0  0  0  0  0  0
    4.1704   18.8747   36.9300 C   0  0  0  0  0  0  0  0  0  0  0  0
    3.3228   18.5095   37.9765 C   0  0  0  0  0  0  0  0  0  0  0  0
    3.7321   17.7512   39.0413 C   0  0  0  0  0  0  0  0  0  0  0  0
    1.7723   17.8908   40.6159 C   0  0  0  0  0  0  0  0  0  0  0  0
   -0.0973   18.2680   41.8238 C   0  0  0  0  0  0  0  0  0  0  0  0
   -0.9647   17.8572   42.9371 C   0  0  0  0  0  0  0  0  0  0  0  0
   -0.6894   16.7685   43.7342 C   0  0  0  0  0  0  0  0  0  0  0  0
   -1.4849   16.3606   44.7826 C   0  0  0  0  0  0  0  0  0  0  0  0
   -2.6220   17.0955   45.0386 C   0  0  0  0  0  0  0  0  0  0  0  0
   -2.9376   18.1992   44.2609 C   0  0  0  0  0  0  0  0  0  0  0  0
   -2.1075   18.5718   43.2168 C   0  0  0  0  0  0  0  0  0  0  0  0
   -0.3725   19.3733   41.0208 C   0  0  0  0  0  0  0  0  0  0  0  0
    5.0813   17.3592   39.0079 C   0  0  0  0  0  0  0  0  0  0  0  0
    5.9192   17.7156   37.9807 C   0  0  0  0  0  0  0  0  0  0  0  0
    2.9846   17.3472   40.1359 N   0  0  0  0  0  0  0  0  0  0  0  0
    1.0018   17.6541   41.4801 N   0  0  0  0  0  0  0  0  0  0  0  0
    5.9661   19.6128   34.7712 O   0  0  0  0  0  0  0  0  0  0  0  0
    7.5977   18.4296   35.9112 O   0  0  0  0  0  0  0  0  0  0  0  0
    7.2467   17.3039   37.9911 O   0  0  0  0  0  0  0  0  0  0  0  0
    0.9936   19.4085   39.8484 S   0  0  0  0  0  0  0  0  0  0  0  0
   -3.7244   16.6958   46.3336 Cl  0  0  0  0  0  0  0  0  0  0  0  0
    3.7910   19.4772   36.1157 H   0  0  0  0  0  0  0  0  0  0  0  0
    2.3208   18.8432   37.9053 H   0  0  0  0  0  0  0  0  0  0  0  0
    0.2055   16.1824   43.5403 H   0  0  0  0  0  0  0  0  0  0  0  0
   -1.2468   15.4925   45.4041 H   0  0  0  0  0  0  0  0  0  0  0  0
   -3.8372   18.8001   44.4438 H   0  0  0  0  0  0  0  0  0  0  0  0
   -2.3724   19.4275   42.6308 H   0  0  0  0  0  0  0  0  0  0  0  0
   -1.2403   20.1146   41.0522 H   0  0  0  0  0  0  0  0  0  0  0  0
    5.4976   16.7585   39.8030 H   0  0  0  0  0  0  0  0  0  0  0  0
    3.3433   16.5271   40.7009 H   0  0  0  0  0  0  0  0  0  0  0  0
  1  2  1  0
  1 19  1  0
  1 20  2  0
  2  3  1  0
  2 16  2  0
  3  4  2  0
  4  5  1  0
  5 15  2  0
  5 17  1  0
  6 17  1  0
  6 18  2  0
  6 22  1  0
  7  8  1  0
  7 14  2  0
  7 18  1  0
  8  9  1  0
  8 13  2  0
  9 10  2  0
 10 11  1  0
 11 12  2  0
 11 23  1  0
 12 13  1  0
 14 22  1  0
 15 16  1  0
 16 21  1  0
  3 24  1  0
  4 25  1  0
  9 26  1  0
 10 27  1  0
 12 28  1  0
 13 29  1  0
 14 30  1  0
 15 31  1  0
 17 32  1  0
M  CHG  2  19  -1  21  -1
M  END
>  <mol_id>  (94) 
2026-08-23-6tgu-s0-n100-r1-0094

>  <rmsd_to_ref>  (94) 
4.724489795921222

$$$$
6tgu.A
     RDKit          3D

 32 34  0  0  0  0  0  0  0  0999 V2000
    6.7950   18.6005   40.4442 C   0  0  0  0  0  0  0  0  0  0  0  0
    5.4910   17.9931   40.9688 C   0  0  0  0  0  0  0  0  0  0  0  0
    5.0068   18.3379   42.2287 C   0  0  0  0  0  0  0  0  0  0  0  0
    3.7337   17.9561   42.6643 C   0  0  0  0  0  0  0  0  0  0  0  0
    2.9692   17.0588   41.9046 C   0  0  0  0  0  0  0  0  0  0  0  0
    0.5739   16.2739   41.5734 C   0  0  0  0  0  0  0  0  0  0  0  0
   -0.5672   15.5216   39.7548 C   0  0  0  0  0  0  0  0  0  0  0  0
   -0.7056   15.0444   38.3785 C   0  0  0  0  0  0  0  0  0  0  0  0
   -1.9589   14.8048   37.7973 C   0  0  0  0  0  0  0  0  0  0  0  0
   -2.0689   14.3834   36.4758 C   0  0  0  0  0  0  0  0  0  0  0  0
   -0.9162   14.2459   35.7255 C   0  0  0  0  0  0  0  0  0  0  0  0
    0.3428   14.4778   36.2585 C   0  0  0  0  0  0  0  0  0  0  0  0
    0.4326   14.8877   37.5859 C   0  0  0  0  0  0  0  0  0  0  0  0
   -1.6243   15.7568   40.5936 C   0  0  0  0  0  0  0  0  0  0  0  0
    3.4370   16.7105   40.6294 C   0  0  0  0  0  0  0  0  0  0  0  0
    4.6793   17.1743   40.1928 C   0  0  0  0  0  0  0  0  0  0  0  0
    1.6425   16.7093   42.3031 N   0  0  0  0  0  0  0  0  0  0  0  0
    0.7029   15.8954   40.2540 N   0  0  0  0  0  0  0  0  0  0  0  0
    7.3000   19.5353   41.1328 O   0  0  0  0  0  0  0  0  0  0  0  0
    7.2117   18.1826   39.3417 O   0  0  0  0  0  0  0  0  0  0  0  0
    5.0805   16.9136   38.9041 O   0  0  0  0  0  0  0  0  0  0  0  0
   -1.0963   16.4900   42.0604 S   0  0  0  0  0  0  0  0  0  0  0  0
   -1.0401   13.7615   34.0667 Cl  0  0  0  0  0  0  0  0  0  0  0  0
    5.6455   18.9286   42.9018 H   0  0  0  0  0  0  0  0  0  0  0  0
    3.3311   18.3606   43.6048 H   0  0  0  0  0  0  0  0  0  0  0  0
   -2.8700   14.9522   38.3958 H   0  0  0  0  0  0  0  0  0  0  0  0
   -3.0534   14.1641   36.0369 H   0  0  0  0  0  0  0  0  0  0  0  0
    1.2476   14.3414   35.6480 H   0  0  0  0  0  0  0  0  0  0  0  0
    1.4224   15.0927   38.0197 H   0  0  0  0  0  0  0  0  0  0  0  0
   -2.6710   15.5105   40.3615 H   0  0  0  0  0  0  0  0  0  0  0  0
    2.8258   16.0727   39.9739 H   0  0  0  0  0  0  0  0  0  0  0  0
    1.4613   16.8014   43.3128 H   0  0  0  0  0  0  0  0  0  0  0  0
  1  2  1  0
  1 19  1  0
  1 20  2  0
  2  3  1  0
  2 16  2  0
  3  4  2  0
  4  5  1  0
  5 15  2  0
  5 17  1  0
  6 17  1  0
  6 18  2  0
  6 22  1  0
  7  8  1  0
  7 14  2  0
  7 18  1  0
  8  9  1  0
  8 13  2  0
  9 10  2  0
 10 11  1  0
 11 12  2  0
 11 23  1  0
 12 13  1  0
 14 22  1  0
 15 16  1  0
 16 21  1  0
  3 24  1  0
  4 25  1  0
  9 26  1  0
 10 27  1  0
 12 28  1  0
 13 29  1  0
 14 30  1  0
 15 31  1  0
 17 32  1  0
M  CHG  2  19  -1  21  -1
M  END
>  <mol_id>  (95) 
2026-08-23-6tgu-s0-n100-r1-0095

>  <rmsd_to_ref>  (95) 
4.770408163267983

$$$$
6tgu.A
     RDKit          3D

 32 34  0  0  0  0  0  0  0  0999 V2000
    5.6899   16.6446   35.2304 C   0  0  0  0  0  0  0  0  0  0  0  0
    4.8845   16.9304   36.3941 C   0  0  0  0  0  0  0  0  0  0  0  0
    4.8507   18.1591   37.0289 C   0  0  0  0  0  0  0  0  0  0  0  0
    4.0542   18.3722   38.1453 C   0  0  0  0  0  0  0  0  0  0  0  0
    3.2540   17.3652   38.6790 C   0  0  0  0  0  0  0  0  0  0  0  0
    1.2354   17.0708   40.1645 C   0  0  0  0  0  0  0  0  0  0  0  0
   -0.6809   16.4578   41.1625 C   0  0  0  0  0  0  0  0  0  0  0  0
   -1.5639   16.5568   42.3454 C   0  0  0  0  0  0  0  0  0  0  0  0
   -1.2370   17.3288   43.4393 C   0  0  0  0  0  0  0  0  0  0  0  0
   -2.0473   17.4323   44.5508 C   0  0  0  0  0  0  0  0  0  0  0  0
   -3.2536   16.7312   44.5851 C   0  0  0  0  0  0  0  0  0  0  0  0
   -3.5856   15.9545   43.4873 C   0  0  0  0  0  0  0  0  0  0  0  0
   -2.7512   15.8737   42.3917 C   0  0  0  0  0  0  0  0  0  0  0  0
   -0.9974   15.6998   40.0852 C   0  0  0  0  0  0  0  0  0  0  0  0
    3.2987   16.1561   38.0410 C   0  0  0  0  0  0  0  0  0  0  0  0
    4.0938   15.9351   36.9222 C   0  0  0  0  0  0  0  0  0  0  0  0
    2.5064   17.6793   39.8179 N   0  0  0  0  0  0  0  0  0  0  0  0
    0.4786   17.0653   41.0059 N   0  0  0  0  0  0  0  0  0  0  0  0
    6.4834   17.6669   34.7127 O   0  0  0  0  0  0  0  0  0  0  0  0
    5.6620   15.5180   34.7230 O   0  0  0  0  0  0  0  0  0  0  0  0
    4.0974   14.6701   36.3079 O   0  0  0  0  0  0  0  0  0  0  0  0
    0.4181   15.9195   38.9064 S   0  0  0  0  0  0  0  0  0  0  0  0
   -4.3337   16.8114   45.9615 Cl  0  0  0  0  0  0  0  0  0  0  0  0
    5.4616   18.9505   36.6316 H   0  0  0  0  0  0  0  0  0  0  0  0
    4.0840   19.3662   38.5856 H   0  0  0  0  0  0  0  0  0  0  0  0
   -0.2990   17.8976   43.4579 H   0  0  0  0  0  0  0  0  0  0  0  0
   -1.7555   18.0428   45.3772 H   0  0  0  0  0  0  0  0  0  0  0  0
   -4.5055   15.3853   43.4465 H   0  0  0  0  0  0  0  0  0  0  0  0
   -3.0376   15.2524   41.5377 H   0  0  0  0  0  0  0  0  0  0  0  0
   -1.8716   15.0368   39.8161 H   0  0  0  0  0  0  0  0  0  0  0  0
    2.7296   15.3137   38.3846 H   0  0  0  0  0  0  0  0  0  0  0  0
    2.8405   18.3813   40.4824 H   0  0  0  0  0  0  0  0  0  0  0  0
  1  2  1  0
  1 19  1  0
  1 20  2  0
  2  3  1  0
  2 16  2  0
  3  4  2  0
  4  5  1  0
  5 15  2  0
  5 17  1  0
  6 17  1  0
  6 18  2  0
  6 22  1  0
  7  8  1  0
  7 14  2  0
  7 18  1  0
  8  9  1  0
  8 13  2  0
  9 10  2  0
 10 11  1  0
 11 12  2  0
 11 23  1  0
 12 13  1  0
 14 22  1  0
 15 16  1  0
 16 21  1  0
  3 24  1  0
  4 25  1  0
  9 26  1  0
 10 27  1  0
 12 28  1  0
 13 29  1  0
 14 30  1  0
 15 31  1  0
 17 32  1  0
M  CHG  2  19  -1  21  -1
M  END
>  <mol_id>  (96) 
2026-08-23-6tgu-s0-n100-r1-0096

>  <rmsd_to_ref>  (96) 
4.816326530619071

$$$$
6tgu.A
     RDKit          3D

 32 34  0  0  0  0  0  0  0  0999 V2000
    5.6384   14.4207   36.5224 C   0  0  0  0  0  0  0  0  0  0  0  0
    4.9552   15.6996   37.0147 C   0  0  0  0  0  0  0  0  0  0  0  0
    4.7389   16.7658   36.1445 C   0  0  0  0  0  0  0  0  0  0  0  0
    3.9549   17.8676   36.5017 C   0  0  0  0  0  0  0  0  0  0  0  0
    3.5034   18.0124   37.8215 C   0  0  0  0  0  0  0  0  0  0  0  0
    1.7388   19.2196   39.1971 C   0  0  0  0  0  0  0  0  0  0  0  0
    0.6084   18.6616   41.0908 C   0  0  0  0  0  0  0  0  0  0  0  0
    0.3252   17.8560   42.2791 C   0  0  0  0  0  0  0  0  0  0  0  0
   -0.7890   18.1004   43.0946 C   0  0  0  0  0  0  0  0  0  0  0  0
   -1.0582   17.3008   44.2010 C   0  0  0  0  0  0  0  0  0  0  0  0
   -0.2281   16.2265   44.4605 C   0  0  0  0  0  0  0  0  0  0  0  0
    0.8810   15.9452   43.6771 C   0  0  0  0  0  0  0  0  0  0  0  0
    1.1399   16.7637   42.5811 C   0  0  0  0  0  0  0  0  0  0  0  0
   -0.1605   19.7188   40.6814 C   0  0  0  0  0  0  0  0  0  0  0  0
    3.7031   16.9436   38.7069 C   0  0  0  0  0  0  0  0  0  0  0  0
    4.4236   15.8217   38.2929 C   0  0  0  0  0  0  0  0  0  0  0  0
    2.6490   19.0976   38.1869 N   0  0  0  0  0  0  0  0  0  0  0  0
    1.6531   18.2902   40.2118 N   0  0  0  0  0  0  0  0  0  0  0  0
    5.8335   14.3287   35.2748 O   0  0  0  0  0  0  0  0  0  0  0  0
    5.8745   13.5390   37.3772 O   0  0  0  0  0  0  0  0  0  0  0  0
    4.5236   14.7379   39.1326 O   0  0  0  0  0  0  0  0  0  0  0  0
    0.3617   20.3034   39.1473 S   0  0  0  0  0  0  0  0  0  0  0  0
   -0.5742   15.1977   45.8109 Cl  0  0  0  0  0  0  0  0  0  0  0  0
    5.1990   16.7403   35.1457 H   0  0  0  0  0  0  0  0  0  0  0  0
    3.6919   18.6222   35.7457 H   0  0  0  0  0  0  0  0  0  0  0  0
   -1.4611   18.9377   42.8557 H   0  0  0  0  0  0  0  0  0  0  0  0
   -1.9144   17.5193   44.8560 H   0  0  0  0  0  0  0  0  0  0  0  0
    1.5395   15.0970   43.9156 H   0  0  0  0  0  0  0  0  0  0  0  0
    2.0058   16.5448   41.9390 H   0  0  0  0  0  0  0  0  0  0  0  0
   -0.9996   20.1385   41.2556 H   0  0  0  0  0  0  0  0  0  0  0  0
    3.2927   16.9891   39.7265 H   0  0  0  0  0  0  0  0  0  0  0  0
    2.7344   19.9297   37.5859 H   0  0  0  0  0  0  0  0  0  0  0  0
  1  2  1  0
  1 19  1  0
  1 20  2  0
  2  3  1  0
  2 16  2  0
  3  4  2  0
  4  5  1  0
  5 15  2  0
  5 17  1  0
  6 17  1  0
  6 18  2  0
  6 22  1  0
  7  8  1  0
  7 14  2  0
  7 18  1  0
  8  9  1  0
  8 13  2  0
  9 10  2  0
 10 11  1  0
 11 12  2  0
 11 23  1  0
 12 13  1  0
 14 22  1  0
 15 16  1  0
 16 21  1  0
  3 24  1  0
  4 25  1  0
  9 26  1  0
 10 27  1  0
 12 28  1  0
 13 29  1  0
 14 30  1  0
 15 31  1  0
 17 32  1  0
M  CHG  2  19  -1  21  -1
M  END
>  <mol_id>  (97) 
2026-08-23-6tgu-s0-n100-r1-0097

>  <rmsd_to_ref>  (97) 
4.86224489796465

$$$$
6tgu.A
     RDKit          3D

 32 34  0  0  0  0  0  0  0  0999 V2000
   -0.9247   23.8709   42.6104 C   0  0  0  0  0  0  0  0  0  0  0  0
   -0.2726   22.7198   42.0078 C   0  0  0  0  0  0  0  0  0  0  0  0
    0.7107   22.8873   41.0588 C   0  0  0  0  0  0  0  0  0  0  0  0
    1.3414   21.8180   40.4747 C   0  0  0  0  0  0  0  0  0  0  0  0
    1.0251   20.5062   40.8064 C   0  0  0  0  0  0  0  0  0  0  0  0
    1.8634   18.1496   40.5669 C   0  0  0  0  0  0  0  0  0  0  0  0
    2.4627   15.9740   40.5973 C   0  0  0  0  0  0  0  0  0  0  0  0
    3.1193   14.8313   39.9024 C   0  0  0  0  0  0  0  0  0  0  0  0
    3.1790   13.5999   40.4987 C   0  0  0  0  0  0  0  0  0  0  0  0
    3.7862   12.5432   39.8556 C   0  0  0  0  0  0  0  0  0  0  0  0
    4.3520   12.6839   38.5979 C   0  0  0  0  0  0  0  0  0  0  0  0
    4.2873   13.9252   38.0061 C   0  0  0  0  0  0  0  0  0  0  0  0
    3.6811   14.9650   38.6572 C   0  0  0  0  0  0  0  0  0  0  0  0
    1.9101   15.8097   41.8401 C   0  0  0  0  0  0  0  0  0  0  0  0
    0.0400   20.3552   41.7562 C   0  0  0  0  0  0  0  0  0  0  0  0
   -0.6037   21.4344   42.3529 C   0  0  0  0  0  0  0  0  0  0  0  0
    1.7056   19.4840   40.1538 N   0  0  0  0  0  0  0  0  0  0  0  0
    2.3776   17.1582   40.0808 N   0  0  0  0  0  0  0  0  0  0  0  0
   -0.5515   25.1511   42.2243 O   0  0  0  0  0  0  0  0  0  0  0  0
   -1.8215   23.7224   43.4761 O   0  0  0  0  0  0  0  0  0  0  0  0
   -1.5955   21.2310   43.3109 O   0  0  0  0  0  0  0  0  0  0  0  0
    1.2704   17.4930   42.1815 S   0  0  0  0  0  0  0  0  0  0  0  0
    5.1219   11.3326   37.7881 Cl  0  0  0  0  0  0  0  0  0  0  0  0
    0.9821   23.9154   40.7761 H   0  0  0  0  0  0  0  0  0  0  0  0
    2.1064   22.0504   39.7343 H   0  0  0  0  0  0  0  0  0  0  0  0
    2.7476   13.4348   41.4916 H   0  0  0  0  0  0  0  0  0  0  0  0
    3.8075   11.5914   40.3679 H   0  0  0  0  0  0  0  0  0  0  0  0
    4.7154   14.0833   37.0249 H   0  0  0  0  0  0  0  0  0  0  0  0
    3.6457   15.9299   38.1661 H   0  0  0  0  0  0  0  0  0  0  0  0
    1.8196   14.9953   42.5049 H   0  0  0  0  0  0  0  0  0  0  0  0
   -0.2837   19.3831   42.0733 H   0  0  0  0  0  0  0  0  0  0  0  0
    2.1685   19.7226   39.2238 H   0  0  0  0  0  0  0  0  0  0  0  0
  1  2  1  0
  1 19  1  0
  1 20  2  0
  2  3  1  0
  2 16  2  0
  3  4  2  0
  4  5  1  0
  5 15  2  0
  5 17  1  0
  6 17  1  0
  6 18  2  0
  6 22  1  0
  7  8  1  0
  7 14  2  0
  7 18  1  0
  8  9  1  0
  8 13  2  0
  9 10  2  0
 10 11  1  0
 11 12  2  0
 11 23  1  0
 12 13  1  0
 14 22  1  0
 15 16  1  0
 16 21  1  0
  3 24  1  0
  4 25  1  0
  9 26  1  0
 10 27  1  0
 12 28  1  0
 13 29  1  0
 14 30  1  0
 15 31  1  0
 17 32  1  0
M  CHG  2  19  -1  21  -1
M  END
>  <mol_id>  (98) 
2026-08-23-6tgu-s0-n100-r1-0098

>  <rmsd_to_ref>  (98) 
4.908163265308603

$$$$
6tgu.A
     RDKit          3D

 32 34  0  0  0  0  0  0  0  0999 V2000
    7.9381   16.4280   42.6164 C   0  0  0  0  0  0  0  0  0  0  0  0
    6.6192   17.0392   42.1350 C   0  0  0  0  0  0  0  0  0  0  0  0
    6.5967   18.3055   41.5549 C   0  0  0  0  0  0  0  0  0  0  0  0
    5.4523   18.8170   40.9342 C   0  0  0  0  0  0  0  0  0  0  0  0
    4.2323   18.1325   41.0328 C   0  0  0  0  0  0  0  0  0  0  0  0
    1.9599   17.9492   39.9076 C   0  0  0  0  0  0  0  0  0  0  0  0
    0.5071   16.2200   39.6339 C   0  0  0  0  0  0  0  0  0  0  0  0
   -0.0126   14.8728   39.8705 C   0  0  0  0  0  0  0  0  0  0  0  0
   -1.1074   14.3628   39.1583 C   0  0  0  0  0  0  0  0  0  0  0  0
   -1.5644   13.0666   39.3754 C   0  0  0  0  0  0  0  0  0  0  0  0
   -0.8896   12.2683   40.2797 C   0  0  0  0  0  0  0  0  0  0  0  0
    0.2008   12.7303   41.0012 C   0  0  0  0  0  0  0  0  0  0  0  0
    0.6358   14.0338   40.7781 C   0  0  0  0  0  0  0  0  0  0  0  0
   -0.0257   17.0981   38.7275 C   0  0  0  0  0  0  0  0  0  0  0  0
    4.2398   16.8519   41.6038 C   0  0  0  0  0  0  0  0  0  0  0  0
    5.4197   16.3375   42.1444 C   0  0  0  0  0  0  0  0  0  0  0  0
    3.0701   18.6082   40.3514 N   0  0  0  0  0  0  0  0  0  0  0  0
    1.7028   16.6419   40.2621 N   0  0  0  0  0  0  0  0  0  0  0  0
    8.9957   17.0523   42.3086 O   0  0  0  0  0  0  0  0  0  0  0  0
    7.8714   15.3250   43.2019 O   0  0  0  0  0  0  0  0  0  0  0  0
    5.4405   15.0429   42.6063 O   0  0  0  0  0  0  0  0  0  0  0  0
    0.9560   18.5064   38.5828 S   0  0  0  0  0  0  0  0  0  0  0  0
   -1.4219   10.6388   40.5304 Cl  0  0  0  0  0  0  0  0  0  0  0  0
    7.5070   18.9222   41.5859 H   0  0  0  0  0  0  0  0  0  0  0  0
    5.5095   19.7581   40.3676 H   0  0  0  0  0  0  0  0  0  0  0  0
   -1.6133   14.9976   38.4160 H   0  0  0  0  0  0  0  0  0  0  0  0
   -2.4450   12.6849   38.8381 H   0  0  0  0  0  0  0  0  0  0  0  0
    0.7092   12.0832   41.7312 H   0  0  0  0  0  0  0  0  0  0  0  0
    1.5099   14.4108   41.3293 H   0  0  0  0  0  0  0  0  0  0  0  0
   -0.9564   16.9268   38.1668 H   0  0  0  0  0  0  0  0  0  0  0  0
    3.3171   16.2533   41.6258 H   0  0  0  0  0  0  0  0  0  0  0  0
    3.0699   19.6208   40.1629 H   0  0  0  0  0  0  0  0  0  0  0  0
  1  2  1  0
  1 19  1  0
  1 20  2  0
  2  3  1  0
  2 16  2  0
  3  4  2  0
  4  5  1  0
  5 15  2  0
  5 17  1  0
  6 17  1  0
  6 18  2  0
  6 22  1  0
  7  8  1  0
  7 14  2  0
  7 18  1  0
  8  9  1  0
  8 13  2  0
  9 10  2  0
 10 11  1  0
 11 12  2  0
 11 23  1  0
 12 13  1  0
 14 22  1  0
 15 16  1  0
 16 21  1  0
  3 24  1  0
  4 25  1  0
  9 26  1  0
 10 27  1  0
 12 28  1  0
 13 29  1  0
 14 30  1  0
 15 31  1  0
 17 32  1  0
M  CHG  2  19  -1  21  -1
M  END
>  <mol_id>  (99) 
2026-08-23-6tgu-s0-n100-r1-0099

>  <rmsd_to_ref>  (99) 
4.954081632656888

$$$$
6tgu.A
     RDKit          3D

 32 34  0  0  0  0  0  0  0  0999 V2000
   -0.8573   17.9279   35.5503 C   0  0  0  0  0  0  0  0  0  0  0  0
   -0.2049   18.0014   36.8489 C   0  0  0  0  0  0  0  0  0  0  0  0
    0.7041   19.0211   37.0848 C   0  0  0  0  0  0  0  0  0  0  0  0
    1.3337   19.1125   38.3053 C   0  0  0  0  0  0  0  0  0  0  0  0
    1.1002   18.2122   39.3416 C   0  0  0  0  0  0  0  0  0  0  0  0
    1.4516   17.9523   41.8196 C   0  0  0  0  0  0  0  0  0  0  0  0
    1.4731   17.5269   44.0374 C   0  0  0  0  0  0  0  0  0  0  0  0
    2.1377   17.5864   45.3331 C   0  0  0  0  0  0  0  0  0  0  0  0
    1.5407   17.0841   46.4588 C   0  0  0  0  0  0  0  0  0  0  0  0
    2.1817   17.1474   47.6801 C   0  0  0  0  0  0  0  0  0  0  0  0
    3.4377   17.7171   47.7973 C   0  0  0  0  0  0  0  0  0  0  0  0
    4.0415   18.2197   46.6861 C   0  0  0  0  0  0  0  0  0  0  0  0
    3.3871   18.1479   45.4761 C   0  0  0  0  0  0  0  0  0  0  0  0
    0.1546   16.9336   43.8999 C   0  0  0  0  0  0  0  0  0  0  0  0
    0.1966   17.2140   39.0788 C   0  0  0  0  0  0  0  0  0  0  0  0
   -0.4502   17.1093   37.8441 C   0  0  0  0  0  0  0  0  0  0  0  0
    1.8096   18.3951   40.5358 N   0  0  0  0  0  0  0  0  0  0  0  0
    1.9261   17.9607   42.9135 N   0  0  0  0  0  0  0  0  0  0  0  0
   -1.7690   16.9041   35.3180 O   0  0  0  0  0  0  0  0  0  0  0  0
   -0.6319   18.7515   34.6275 O   0  0  0  0  0  0  0  0  0  0  0  0
   -1.3550   16.0779   37.6369 O   0  0  0  0  0  0  0  0  0  0  0  0
   -0.1831   17.1153   42.1655 S   0  0  0  0  0  0  0  0  0  0  0  0
    4.2646   17.8025   49.3555 Cl  0  0  0  0  0  0  0  0  0  0  0  0
    0.9053   19.7426   36.2857 H   0  0  0  0  0  0  0  0  0  0  0  0
    2.0448   19.9329   38.4506 H   0  0  0  0  0  0  0  0  0  0  0  0
    0.5579   16.6231   46.4460 H   0  0  0  0  0  0  0  0  0  0  0  0
    1.7027   16.7463   48.5735 H   0  0  0  0  0  0  0  0  0  0  0  0
    5.0261   18.6696   46.7603 H   0  0  0  0  0  0  0  0  0  0  0  0
    3.8657   18.5503   44.5749 H   0  0  0  0  0  0  0  0  0  0  0  0
   -0.4284   16.5089   44.6669 H   0  0  0  0  0  0  0  0  0  0  0  0
   -0.0445   16.4636   39.8073 H   0  0  0  0  0  0  0  0  0  0  0  0
    2.7296   18.9273   40.4834 H   0  0  0  0  0  0  0  0  0  0  0  0
  1  2  1  0
  1 19  1  0
  1 20  2  0
  2  3  1  0
  2 16  2  0
  3  4  2  0
  4  5  1  0
  5 15  2  0
  5 17  1  0
  6 17  1  0
  6 18  2  0
  6 22  1  0
  7  8  1  0
  7 14  2  0
  7 18  1  0
  8  9  1  0
  8 13  2  0
  9 10  2  0
 10 11  1  0
 11 12  2  0
 11 23  1  0
 12 13  1  0
 14 22  1  0
 15 16  1  0
 16 21  1  0
  3 24  1  0
  4 25  1  0
  9 26  1  0
 10 27  1  0
 12 28  1  0
 13 29  1  0
 14 30  1  0
 15 31  1  0
 17 32  1  0
M  CHG  2  19  -1  21  -1
M  END
>  <mol_id>  (100) 
2026-08-23-6tgu-s0-n100-r1-0100

>  <rmsd_to_ref>  (100) 
5.0000000000042855

$$$$
