
     RDKit          3D

 22 23  0  0  0  0  0  0  0  0999 V2000
    2.8360   20.2300   37.4390 C   0  0  0  0  0  0  0  0  0  0  0  0
    1.7270   18.6420   40.5640 N   0  0  0  0  0  0  0  0  0  0  0  0
    1.6020   21.2090   39.3370 C   0  0  0  0  0  0  0  0  0  0  0  0
    2.7000   17.5800   38.6610 C   0  0  0  0  0  0  0  0  0  0  0  0
    2.6970   16.2160   39.1980 C   0  0  0  0  0  0  0  0  0  0  0  0
    3.3040   17.8470   37.3630 C   0  0  0  0  0  0  0  0  0  0  0  0
    1.2050   19.7680   41.2540 C   0  0  0  0  0  0  0  0  0  0  0  0
    2.1990   15.9610   40.3870 O   0  0  0  0  0  1  0  0  0  0  0  0
    0.6690   19.6690   42.3740 O   0  0  0  0  0  0  0  0  0  0  0  0
    1.2190   21.0640   40.6660 C   0  0  0  0  0  0  0  0  0  0  0  0
    3.4400   19.0580   36.8260 C   0  0  0  0  0  0  0  0  0  0  0  0
    2.2000   20.0350   38.6820 C   0  0  0  0  0  0  0  0  0  0  0  0
    3.2480   15.3110   38.5410 O   0  0  0  0  0  0  0  0  0  0  0  0
    2.2090   18.7700   39.3340 C   0  0  0  0  0  0  0  0  0  0  0  0
    0.8020   22.1300   41.3710 N   0  0  0  0  0  0  0  0  0  0  0  0
    2.8734   21.2183   36.9575 H   0  0  0  0  0  0  0  0  0  0  0  0
    1.7316   17.7191   41.0214 H   0  0  0  0  0  0  0  0  0  0  0  0
    1.4641   22.1588   38.7996 H   0  0  0  0  0  0  0  0  0  0  0  0
    3.6742   16.9873   36.7851 H   0  0  0  0  0  0  0  0  0  0  0  0
    4.0214   19.1741   35.8994 H   0  0  0  0  0  0  0  0  0  0  0  0
    0.5193   22.0180   42.3551 H   0  0  0  0  0  0  0  0  0  0  0  0
    0.7652   23.0587   40.9271 H   0  0  0  0  0  0  0  0  0  0  0  0
  1 12  2  0
  2  7  1  0
  3 10  2  0
  4  5  1  0
  4 14  2  0
  5  8  1  0
  6  4  1  0
  7  9  2  0
 10  7  1  0
 10 15  1  0
 11  6  2  0
 11  1  1  0
 12 14  1  0
 12  3  1  0
 13  5  2  0
 14  2  1  0
  1 16  1  0
  2 17  1  0
  3 18  1  0
  6 19  1  0
 11 20  1  0
 15 21  1  0
 15 22  1  0
M  CHG  1   8  -1
M  END
>  <mol_id>  (1) 
2026-09-18-3war-s0-n100-refligand-seed1-0001

>  <rmsd_to_ref>  (1) 


$$$$

     RDKit          3D

 46 51  0  0  0  0  0  0  0  0999 V2000
    2.0270   17.9320   40.4360 C   0  0  0  0  0  0  0  0  0  0  0  0
   -0.5790   17.9200   43.5880 C   0  0  0  0  0  0  0  0  0  0  0  0
    2.8670   19.1580   36.9540 C   0  0  0  0  0  0  0  0  0  0  0  0
    3.4160   17.6870   38.8800 N   0  0  0  0  0  0  0  0  0  0  0  0
    0.0050   21.7550   42.0580 C   0  0  0  0  0  0  0  0  0  0  0  0
    2.2400   16.6260   40.3620 C   0  0  0  0  0  0  0  0  0  0  0  0
   -0.8670   20.2730   43.6640 N   0  0  0  0  0  0  0  0  0  0  0  0
    3.1280   21.6580   34.3930 N   0  0  0  0  0  0  0  0  0  0  0  0
   -0.7430   21.4920   43.1660 C   0  0  0  0  0  0  0  0  0  0  0  0
    0.5060   19.3800   41.9000 C   0  0  0  0  0  0  0  0  0  0  0  0
    1.4620   21.1510   40.0780 Cl  0  0  0  0  0  0  0  0  0  0  0  0
    0.7870   16.9710   41.9760 C   0  0  0  0  0  0  0  0  0  0  0  0
    2.7600   21.4110   36.7670 N   0  0  0  0  0  0  0  0  0  0  0  0
    1.5520   15.9700   41.2610 C   0  0  0  0  0  0  0  0  0  0  0  0
    1.8350   13.0620   41.5280 C   0  0  0  0  0  0  0  0  0  0  0  0
    3.9580   17.0250   36.7800 O   0  0  0  0  0  0  0  0  0  0  0  0
    3.0900   20.4660   37.6250 C   0  0  0  0  0  0  0  0  0  0  0  0
   -0.3520   19.2400   43.0470 C   0  0  0  0  0  0  0  0  0  0  0  0
    0.5780   20.6750   41.4390 C   0  0  0  0  0  0  0  0  0  0  0  0
    3.1310   16.4350   39.4000 N   0  0  0  0  0  0  0  0  0  0  0  0
    3.0390   20.9880   35.5120 C   0  0  0  0  0  0  0  0  0  0  0  0
    3.5350   17.8820   37.4830 C   0  0  0  0  0  0  0  0  0  0  0  0
    1.0450   18.1880   41.3960 C   0  0  0  0  0  0  0  0  0  0  0  0
    2.7420   13.6550   40.5750 C   0  0  0  0  0  0  0  0  0  0  0  0
    1.5900   14.4550   41.1470 C   0  0  0  0  0  0  0  0  0  0  0  0
    3.2710   19.4380   35.4720 C   0  0  0  0  0  0  0  0  0  0  0  0
    2.8350   18.6130   39.6010 C   0  0  0  0  0  0  0  0  0  0  0  0
   -0.0490   16.7980   43.0310 C   0  0  0  0  0  0  0  0  0  0  0  0
   -1.2055   17.8181   44.4864 H   0  0  0  0  0  0  0  0  0  0  0  0
    1.8208   18.8762   37.1438 H   0  0  0  0  0  0  0  0  0  0  0  0
    0.1416   22.7792   41.6806 H   0  0  0  0  0  0  0  0  0  0  0  0
    3.3528   21.1676   33.5156 H   0  0  0  0  0  0  0  0  0  0  0  0
   -1.2626   22.3236   43.6644 H   0  0  0  0  0  0  0  0  0  0  0  0
    2.3545   22.3254   37.0126 H   0  0  0  0  0  0  0  0  0  0  0  0
    1.1371   12.2787   41.1973 H   0  0  0  0  0  0  0  0  0  0  0  0
    1.9717   12.5492   42.4915 H   0  0  0  0  0  0  0  0  0  0  0  0
    2.4614   20.5389   38.5247 H   0  0  0  0  0  0  0  0  0  0  0  0
    4.1410   20.5705   37.9323 H   0  0  0  0  0  0  0  0  0  0  0  0
   -0.3032   20.4982   40.8048 H   0  0  0  0  0  0  0  0  0  0  0  0
    2.7232   13.3355   39.5226 H   0  0  0  0  0  0  0  0  0  0  0  0
    3.8320   13.7893   40.5120 H   0  0  0  0  0  0  0  0  0  0  0  0
    0.6206   14.9729   41.1927 H   0  0  0  0  0  0  0  0  0  0  0  0
    2.6126   18.9307   34.7515 H   0  0  0  0  0  0  0  0  0  0  0  0
    4.2665   19.0933   35.1554 H   0  0  0  0  0  0  0  0  0  0  0  0
    2.9754   19.7022   39.5387 H   0  0  0  0  0  0  0  0  0  0  0  0
   -0.2871   15.7962   43.4179 H   0  0  0  0  0  0  0  0  0  0  0  0
  1 23  1  0
  3 22  1  0
  3 17  1  0
  4 20  1  0
  4 27  1  0
  5  9  2  0
  6  1  1  0
  6 14  1  0
  8 21  2  3
  9  7  1  0
 10 18  1  0
 12 28  1  0
 13 17  1  0
 14 12  2  0
 16 22  2  0
 18  2  1  0
 18  7  2  0
 19 11  1  0
 19 10  1  0
 19  5  1  0
 20  6  2  0
 21 13  1  0
 22  4  1  0
 23 10  2  0
 23 12  1  0
 24 25  1  0
 24 15  1  0
 25 14  1  0
 25 15  1  0
 26 21  1  0
 26  3  1  0
 27  1  2  0
 28  2  2  0
  2 29  1  0
  3 30  1  0
  5 31  1  0
  8 32  1  0
  9 33  1  0
 13 34  1  0
 15 35  1  0
 15 36  1  0
 17 37  1  0
 17 38  1  0
 19 39  1  0
 24 40  1  0
 24 41  1  0
 25 42  1  0
 26 43  1  0
 26 44  1  0
 27 45  1  0
 28 46  1  0
M  END
>  <mol_id>  (2) 
2026-09-18-3war-s0-n100-refligand-seed1-0002

>  <rmsd_to_ref>  (2) 


$$$$

     RDKit          3D

 19 20  0  0  0  0  0  0  0  0999 V2000
    2.9930   18.6730   37.7550 O   0  0  0  0  0  0  0  0  0  0  0  0
    1.1900   20.3370   41.2250 C   0  0  0  0  0  0  0  0  0  0  0  0
    2.0240   20.0720   39.1490 C   0  0  0  0  0  0  0  0  0  0  0  0
    3.0560   18.0350   38.8710 C   0  0  0  0  0  0  0  0  0  0  0  0
    1.7870   19.0570   41.1360 C   0  0  0  0  0  0  0  0  0  0  0  0
    1.3570   20.8940   40.0440 C   0  0  0  0  0  0  0  0  0  0  0  0
    2.4570   20.8070   36.9420 O   0  0  0  0  0  0  0  0  0  0  0  0
    2.5410   19.9540   37.8560 C   0  0  0  0  0  0  0  0  0  0  0  0
    2.7870   16.7910   39.1700 C   0  0  0  0  0  0  0  0  0  0  0  0
    2.2640   18.9780   39.8150 C   0  0  0  0  0  0  0  0  0  0  0  0
    2.5360   16.0720   38.0860 O   0  0  0  0  0  0  0  0  0  0  0  0
    0.6895   20.7760   42.1006 H   0  0  0  0  0  0  0  0  0  0  0  0
    4.1341   17.8209   38.9133 H   0  0  0  0  0  0  0  0  0  0  0  0
    2.6152   18.9642   41.8539 H   0  0  0  0  0  0  0  0  0  0  0  0
    1.0785   18.2494   41.3723 H   0  0  0  0  0  0  0  0  0  0  0  0
    1.0043   21.9054   39.7937 H   0  0  0  0  0  0  0  0  0  0  0  0
    3.6498   16.3555   39.6953 H   0  0  0  0  0  0  0  0  0  0  0  0
    1.8907   16.7766   39.8075 H   0  0  0  0  0  0  0  0  0  0  0  0
    2.2218   15.1718   38.3525 H   0  0  0  0  0  0  0  0  0  0  0  0
  1  8  1  0
  1  4  1  0
  3 10  2  0
  3  6  1  0
  4  9  1  0
  4 10  1  0
  5  2  1  0
  6  2  2  0
  7  8  2  0
  8  3  1  0
 10  5  1  0
 11  9  1  0
  2 12  1  0
  4 13  1  0
  5 14  1  0
  5 15  1  0
  6 16  1  0
  9 17  1  0
  9 18  1  0
 11 19  1  0
M  END
>  <mol_id>  (3) 
2026-09-18-3war-s0-n100-refligand-seed1-0003

>  <rmsd_to_ref>  (3) 


$$$$

     RDKit          3D

 39 42  0  0  0  0  0  0  0  0999 V2000
    0.7060   21.0280   41.8030 C   0  0  0  0  0  0  0  0  0  0  0  0
    2.1860   19.5610   39.1260 O   0  0  0  0  0  0  0  0  0  0  0  0
    2.7760   21.0500   37.0070 C   0  0  0  0  0  0  0  0  0  0  0  0
    2.0720   16.0330   40.1240 C   0  0  0  0  0  0  0  0  0  0  0  0
    2.6780   21.4200   35.6380 O   0  0  0  0  0  0  0  0  0  0  0  0
    2.8150   17.8710   38.5270 C   0  0  0  0  0  0  0  0  0  0  0  0
    2.1910   17.4560   39.5560 C   0  0  0  0  0  0  0  0  0  0  0  0
    2.7530   15.1660   39.3180 C   0  0  0  0  0  0  0  0  0  0  0  0
    3.5380   15.5830   38.1550 C   0  0  0  0  0  0  0  0  0  0  0  0
    2.4220   14.2370   40.1920 C   0  0  0  0  0  0  0  0  0  0  0  0
    1.9100   13.9220   41.3900 C   0  0  0  0  0  0  0  0  0  0  0  0
    1.5160   16.1970   41.4790 O   0  0  0  0  0  0  0  0  0  0  0  0
    1.6320   20.7910   39.3630 C   0  0  0  0  0  0  0  0  0  0  0  0
    2.7140   19.0710   38.2500 C   0  0  0  0  0  0  0  0  0  0  0  0
    1.2910   15.0890   42.0360 C   0  0  0  0  0  0  0  0  0  0  0  0
    1.1420   20.9850   40.5820 C   0  0  0  0  0  0  0  0  0  0  0  0
    3.3970   16.8400   37.6060 C   0  0  0  0  0  0  0  0  0  0  0  0
    3.1300   19.6130   37.0880 C   0  0  0  0  0  0  0  0  0  0  0  0
    1.8270   21.4680   37.9430 C   0  0  0  0  0  0  0  0  0  0  0  0
    0.3363   21.0645   42.8384 H   0  0  0  0  0  0  0  0  0  0  0  0
    3.5811   21.6980   37.3837 H   0  0  0  0  0  0  0  0  0  0  0  0
    2.4251   22.3748   35.5715 H   0  0  0  0  0  0  0  0  0  0  0  0
    1.1497   17.7658   39.3835 H   0  0  0  0  0  0  0  0  0  0  0  0
    2.8732   17.8628   40.3170 H   0  0  0  0  0  0  0  0  0  0  0  0
    3.6426   15.2714   39.9563 H   0  0  0  0  0  0  0  0  0  0  0  0
    4.5953   15.4865   38.4429 H   0  0  0  0  0  0  0  0  0  0  0  0
    3.1479   14.9313   37.3593 H   0  0  0  0  0  0  0  0  0  0  0  0
    1.4989   14.0358   39.6285 H   0  0  0  0  0  0  0  0  0  0  0  0
    1.1475   13.1402   41.2583 H   0  0  0  0  0  0  0  0  0  0  0  0
    2.7291   13.5664   42.0324 H   0  0  0  0  0  0  0  0  0  0  0  0
    0.6536   20.4146   39.0296 H   0  0  0  0  0  0  0  0  0  0  0  0
    0.2025   14.9313   42.0508 H   0  0  0  0  0  0  0  0  0  0  0  0
    1.7412   15.1558   43.0374 H   0  0  0  0  0  0  0  0  0  0  0  0
    4.3913   17.1877   37.2890 H   0  0  0  0  0  0  0  0  0  0  0  0
    2.6860   16.7344   36.7733 H   0  0  0  0  0  0  0  0  0  0  0  0
    2.6536   19.0789   36.2526 H   0  0  0  0  0  0  0  0  0  0  0  0
    4.2249   19.5215   37.0345 H   0  0  0  0  0  0  0  0  0  0  0  0
    2.0509   22.5260   38.1441 H   0  0  0  0  0  0  0  0  0  0  0  0
    0.8924   21.1783   37.4404 H   0  0  0  0  0  0  0  0  0  0  0  0
  2 13  1  0
  3  5  1  0
  3 18  1  0
  3 19  1  0
  4  7  1  0
  4 10  1  0
  4 12  1  0
  6  7  1  0
  8  9  1  0
  8  4  1  0
  8 10  1  0
 10 11  1  0
 11 15  1  0
 12 15  1  0
 13 16  1  0
 14  6  2  3
 14  2  1  0
 16  1  3  0
 17  9  1  0
 17  6  1  0
 18 14  1  0
 19 13  1  0
  1 20  1  0
  3 21  1  0
  5 22  1  0
  7 23  1  0
  7 24  1  0
  8 25  1  0
  9 26  1  0
  9 27  1  0
 10 28  1  0
 11 29  1  0
 11 30  1  0
 13 31  1  0
 15 32  1  0
 15 33  1  0
 17 34  1  0
 17 35  1  0
 18 36  1  0
 18 37  1  0
 19 38  1  0
 19 39  1  0
M  END
>  <mol_id>  (4) 
2026-09-18-3war-s0-n100-refligand-seed1-0004

>  <rmsd_to_ref>  (4) 


$$$$

     RDKit          3D

 21 22  0  0  0  0  0  0  0  0999 V2000
    2.2310   19.2880   39.1020 C   0  0  0  0  0  0  0  0  0  0  0  0
    1.3210   18.8090   41.2820 C   0  0  0  0  0  0  0  0  0  0  0  0
    1.0770   21.0650   40.2760 C   0  0  0  0  0  0  0  0  0  0  0  0
    2.7500   20.4840   36.8970 C   0  0  0  0  0  0  0  0  0  0  0  0
    2.6050   16.9270   38.8570 O   0  0  0  0  0  0  0  0  0  0  0  0
    3.2970   19.0470   37.4690 S   0  0  0  0  0  0  0  0  0  0  0  0
    1.9760   18.3990   40.1400 C   0  0  0  0  0  0  0  0  0  0  0  0
    0.8170   20.2010   41.2920 C   0  0  0  0  0  0  0  0  0  0  0  0
    1.7530   20.6030   39.0760 C   0  0  0  0  0  0  0  0  0  0  0  0
    2.3850   16.9970   39.8720 C   0  0  0  0  0  0  0  0  0  0  0  0
    2.0930   21.2600   37.8370 C   0  0  0  0  0  0  0  0  0  0  0  0
    1.1802   18.1366   42.1411 H   0  0  0  0  0  0  0  0  0  0  0  0
    0.7743   22.1190   40.3625 H   0  0  0  0  0  0  0  0  0  0  0  0
    3.6115   21.0551   36.5206 H   0  0  0  0  0  0  0  0  0  0  0  0
    2.0150   20.2509   36.1125 H   0  0  0  0  0  0  0  0  0  0  0  0
    3.5420   16.6289   38.7422 H   0  0  0  0  0  0  0  0  0  0  0  0
    0.2152   20.5455   42.1459 H   0  0  0  0  0  0  0  0  0  0  0  0
    1.5646   16.3103   40.1275 H   0  0  0  0  0  0  0  0  0  0  0  0
    3.2603   16.7240   40.4797 H   0  0  0  0  0  0  0  0  0  0  0  0
    2.7399   22.1167   38.0772 H   0  0  0  0  0  0  0  0  0  0  0  0
    1.1333   21.5349   37.3750 H   0  0  0  0  0  0  0  0  0  0  0  0
  1  7  2  0
  2  8  2  0
  3  8  1  0
  4  6  1  0
  4 11  1  0
  5 10  1  0
  6  1  1  0
  7  2  1  0
  9  1  1  0
  9  3  2  0
 10  7  1  0
 11  9  1  0
  2 12  1  0
  3 13  1  0
  4 14  1  0
  4 15  1  0
  5 16  1  0
  8 17  1  0
 10 18  1  0
 10 19  1  0
 11 20  1  0
 11 21  1  0
M  END
>  <mol_id>  (5) 
2026-09-18-3war-s0-n100-refligand-seed1-0005

>  <rmsd_to_ref>  (5) 


$$$$

     RDKit          3D

 34 35  0  0  0  0  0  0  0  0999 V2000
    1.1730   21.2030   40.3290 C   0  0  0  0  0  0  0  0  0  0  0  0
    2.2260   20.6960   37.6410 C   0  0  0  0  0  0  0  0  0  0  0  0
    0.5180   19.0210   41.9840 C   0  0  0  0  0  0  0  0  0  0  0  0
    3.1920   20.1870   36.7430 C   0  0  0  0  0  0  0  0  0  0  0  0
   -0.8010   20.5520   43.2750 F   0  0  0  0  0  0  0  0  0  0  0  0
    0.4180   21.4070   41.4160 C   0  0  0  0  0  0  0  0  0  0  0  0
    1.6140   15.5660   41.3890 C   0  0  0  0  0  0  0  0  0  0  0  0
    3.6780   18.9660   37.0910 N   0  0  0  0  0  0  0  0  0  0  0  0
    1.0980   14.1460   41.7620 C   0  0  0  0  0  0  0  0  0  0  0  0
    3.0230   18.5950   38.3210 C   0  0  0  0  0  0  0  0  0  0  0  0
    2.4800   15.3360   40.0780 C   0  0  0  0  0  0  0  0  0  0  0  0
    1.1450   16.0160   40.0700 C   0  0  0  0  0  0  0  0  0  0  0  0
    3.6000   20.7900   35.7080 O   0  0  0  0  0  0  0  0  0  0  0  0
    2.2770   19.7490   38.7260 N   0  0  0  0  0  0  0  0  0  0  0  0
    1.3410   18.8630   40.8510 C   0  0  0  0  0  0  0  0  0  0  0  0
    1.5770   19.9930   40.0000 C   0  0  0  0  0  0  0  0  0  0  0  0
    3.1970   17.5880   39.1000 N   0  0  0  0  0  0  0  0  0  0  0  0
    0.0430   20.2660   42.2460 C   0  0  0  0  0  0  0  0  0  0  0  0
    1.4604   22.0592   39.7010 H   0  0  0  0  0  0  0  0  0  0  0  0
    1.2276   20.7183   37.1798 H   0  0  0  0  0  0  0  0  0  0  0  0
    2.4223   21.7320   37.9544 H   0  0  0  0  0  0  0  0  0  0  0  0
    0.2696   18.1676   42.6321 H   0  0  0  0  0  0  0  0  0  0  0  0
    0.0846   22.4214   41.6802 H   0  0  0  0  0  0  0  0  0  0  0  0
    1.6835   16.0621   42.3683 H   0  0  0  0  0  0  0  0  0  0  0  0
    4.3781   18.4132   36.5761 H   0  0  0  0  0  0  0  0  0  0  0  0
    1.0613   14.0451   42.8567 H   0  0  0  0  0  0  0  0  0  0  0  0
    0.0898   14.0014   41.3465 H   0  0  0  0  0  0  0  0  0  0  0  0
    1.7781   13.3879   41.3465 H   0  0  0  0  0  0  0  0  0  0  0  0
    3.4015   15.9124   39.9090 H   0  0  0  0  0  0  0  0  0  0  0  0
    2.9385   14.4762   39.5675 H   0  0  0  0  0  0  0  0  0  0  0  0
    1.0932   17.0941   39.8580 H   0  0  0  0  0  0  0  0  0  0  0  0
    0.2180   15.8405   39.5044 H   0  0  0  0  0  0  0  0  0  0  0  0
    1.7955   17.8876   40.6228 H   0  0  0  0  0  0  0  0  0  0  0  0
    2.6239   17.4895   39.9501 H   0  0  0  0  0  0  0  0  0  0  0  0
  1  6  2  0
  2 14  1  0
  3 18  2  0
  4  8  1  0
  4  2  1  0
  6 18  1  0
  7  9  1  0
  8 10  1  0
 10 14  1  0
 10 17  2  3
 11  7  1  0
 12 11  1  0
 12  7  1  0
 13  4  2  0
 14 16  1  0
 15  3  1  0
 16  1  1  0
 16 15  2  0
 18  5  1  0
  1 19  1  0
  2 20  1  0
  2 21  1  0
  3 22  1  0
  6 23  1  0
  7 24  1  0
  8 25  1  0
  9 26  1  0
  9 27  1  0
  9 28  1  0
 11 29  1  0
 11 30  1  0
 12 31  1  0
 12 32  1  0
 15 33  1  0
 17 34  1  0
M  END
>  <mol_id>  (6) 
2026-09-18-3war-s0-n100-refligand-seed1-0006

>  <rmsd_to_ref>  (6) 


$$$$

     RDKit          3D

 16 16  0  0  0  0  0  0  0  0999 V2000
    3.1220   20.1830   36.5950 C   0  0  0  0  0  0  0  0  0  0  0  0
    1.2160   20.7560   40.2750 C   0  0  0  0  0  0  0  0  0  0  0  0
    1.7850   20.9870   38.8810 C   0  0  0  0  0  0  0  0  0  0  0  0
    2.5280   20.1020   38.0610 C   0  0  0  0  0  0  0  0  0  0  0  0
    2.6890   18.7900   38.7840 C   0  0  0  0  0  0  0  0  0  0  0  0
    3.6860   17.6350   37.8930 Cl  0  0  0  0  0  0  0  0  0  0  0  0
    2.3240   21.3990   36.5870 O   0  0  0  0  0  0  0  0  0  0  0  0
    1.5640   19.5100   40.8280 C   0  0  0  0  0  0  0  0  0  0  0  0
    2.3220   18.8220   39.9580 C   0  0  0  0  0  0  0  0  0  0  0  0
    4.2111   20.3192   36.5217 H   0  0  0  0  0  0  0  0  0  0  0  0
    3.0635   19.3823   35.8430 H   0  0  0  0  0  0  0  0  0  0  0  0
    0.5917   21.4940   40.8000 H   0  0  0  0  0  0  0  0  0  0  0  0
    1.5919   21.9806   38.4504 H   0  0  0  0  0  0  0  0  0  0  0  0
    2.1401   21.6792   37.5186 H   0  0  0  0  0  0  0  0  0  0  0  0
    1.2609   19.1528   41.8233 H   0  0  0  0  0  0  0  0  0  0  0  0
    2.7840   17.9776   40.4905 H   0  0  0  0  0  0  0  0  0  0  0  0
  1  4  1  0
  2  8  2  0
  3  2  1  0
  4  5  1  0
  4  3  2  0
  5  9  2  0
  6  5  1  0
  7  1  1  0
  9  8  1  0
  1 10  1  0
  1 11  1  0
  2 12  1  0
  3 13  1  0
  7 14  1  0
  8 15  1  0
  9 16  1  0
M  END
>  <mol_id>  (7) 
2026-09-18-3war-s0-n100-refligand-seed1-0007

>  <rmsd_to_ref>  (7) 


$$$$

     RDKit          3D

 17 18  0  0  0  0  0  0  0  0999 V2000
    2.0620   20.2020   38.8490 C   0  0  0  0  0  0  0  0  0  0  0  0
    1.3400   21.1320   39.5270 C   0  0  0  0  0  0  0  0  0  0  0  0
    3.3510   19.3190   37.1090 C   0  0  0  0  0  0  0  0  0  0  0  0
    2.4720   18.8840   39.2130 C   0  0  0  0  0  0  0  0  0  0  0  0
    3.3460   18.3350   38.1960 N   0  0  0  0  0  0  0  0  0  0  0  0
    2.1420   18.0780   40.2890 C   0  0  0  0  0  0  0  0  0  0  0  0
    0.7690   20.8450   40.8050 C   0  0  0  0  0  0  0  0  0  0  0  0
    1.4150   18.4620   41.4000 C   0  0  0  0  0  0  0  0  0  0  0  0
    0.8420   19.7520   41.4620 C   0  0  0  0  0  0  0  0  0  0  0  0
    2.5250   20.5410   37.5070 C   0  0  0  0  0  0  0  0  0  0  0  0
    1.1918   22.1272   39.0826 H   0  0  0  0  0  0  0  0  0  0  0  0
    3.8726   19.1955   36.1485 H   0  0  0  0  0  0  0  0  0  0  0  0
    2.4907   17.0352   40.2568 H   0  0  0  0  0  0  0  0  0  0  0  0
    0.2008   21.6596   41.2778 H   0  0  0  0  0  0  0  0  0  0  0  0
    1.2822   17.7617   42.2378 H   0  0  0  0  0  0  0  0  0  0  0  0
    0.2618   19.8475   42.3916 H   0  0  0  0  0  0  0  0  0  0  0  0
    2.3275   21.4531   36.9247 H   0  0  0  0  0  0  0  0  0  0  0  0
  1  4  1  0
  1  2  2  0
  2  7  1  0
  3 10  2  0
  3  5  1  0
  4  6  1  0
  5  4  2  0
  6  8  2  0
  7  9  2  0
  8  9  1  0
 10  1  1  0
  2 11  1  0
  3 12  1  0
  6 13  1  0
  7 14  1  0
  8 15  1  0
  9 16  1  0
 10 17  1  0
M  END
>  <mol_id>  (8) 
2026-09-18-3war-s0-n100-refligand-seed1-0008

>  <rmsd_to_ref>  (8) 


$$$$

     RDKit          3D

 21 21  0  0  0  0  0  0  0  0999 V2000
    2.1050   21.2900   36.8570 O   0  0  0  0  0  0  0  0  0  0  0  0
    1.6320   17.5270   42.1770 O   0  0  0  0  0  0  0  0  0  0  0  0
    2.2390   20.4330   37.9420 N   0  0  0  0  0  0  0  0  0  0  0  0
    2.8900   19.1990   37.8180 C   0  0  0  0  0  0  0  0  0  0  0  0
    2.4670   18.4560   39.0820 C   0  0  0  0  0  0  0  0  0  0  0  0
    1.2750   19.7100   41.2220 C   0  0  0  0  0  0  0  0  0  0  0  0
    0.9590   18.4600   41.9360 C   0  0  0  0  0  0  0  0  0  0  0  0
    1.3400   21.6470   39.7340 O   0  0  0  0  0  0  0  0  0  0  0  0
    1.7340   20.6840   39.1810 C   0  0  0  0  0  0  0  0  0  0  0  0
    3.2260   18.7870   36.5990 O   0  0  0  0  0  0  0  0  0  0  0  0
    1.8860   19.4990   40.0260 C   0  0  0  0  0  0  0  0  0  0  0  0
    2.9480   17.1060   39.0990 C   0  0  0  0  0  0  0  0  0  0  0  0
    1.9605   22.2139   37.1821 H   0  0  0  0  0  0  0  0  0  0  0  0
    1.7993   17.7907   39.6490 H   0  0  0  0  0  0  0  0  0  0  0  0
    0.3383   20.2589   41.0450 H   0  0  0  0  0  0  0  0  0  0  0  0
    1.9731   20.2810   41.8518 H   0  0  0  0  0  0  0  0  0  0  0  0
   -0.0754   18.3886   42.3033 H   0  0  0  0  0  0  0  0  0  0  0  0
    2.2990   18.8256   40.7914 H   0  0  0  0  0  0  0  0  0  0  0  0
    3.0669   16.7722   40.1404 H   0  0  0  0  0  0  0  0  0  0  0  0
    2.2271   16.4534   38.5848 H   0  0  0  0  0  0  0  0  0  0  0  0
    3.9192   17.0563   38.5848 H   0  0  0  0  0  0  0  0  0  0  0  0
  1  3  1  0
  3  9  1  0
  4  3  1  0
  4  5  1  0
  5 12  1  0
  5 11  1  0
  6  7  1  0
  7  2  2  0
  9  8  2  0
  9 11  1  0
 10  4  2  0
 11  6  1  0
  1 13  1  0
  5 14  1  0
  6 15  1  0
  6 16  1  0
  7 17  1  0
 11 18  1  0
 12 19  1  0
 12 20  1  0
 12 21  1  0
M  END
>  <mol_id>  (9) 
2026-09-18-3war-s0-n100-refligand-seed1-0009

>  <rmsd_to_ref>  (9) 


$$$$

     RDKit          3D

 37 40  0  0  0  0  0  0  0  0999 V2000
    1.3010   21.2290   40.6640 C   0  0  0  0  0  0  0  0  0  0  0  0
   -0.8920   18.3850   44.8630 C   0  0  0  0  0  0  0  0  0  0  0  0
   -0.3570   21.2620   42.5040 C   0  0  0  0  0  0  0  0  0  0  0  0
    0.1550   18.5690   42.9260 C   0  0  0  0  0  0  0  0  0  0  0  0
    1.7390   20.4970   39.6110 O   0  0  0  0  0  0  0  0  0  0  0  0
    3.1250   18.1470   37.2590 C   0  0  0  0  0  0  0  0  0  0  0  0
   -0.8450   20.7280   43.6010 N   0  0  0  0  0  0  0  0  0  0  0  0
   -1.3140   18.4750   46.1180 N   0  0  0  0  0  0  0  0  0  0  0  0
    0.5480   20.5530   41.6790 C   0  0  0  0  0  0  0  0  0  0  0  0
    3.4280   16.8210   37.0990 C   0  0  0  0  0  0  0  0  0  0  0  0
    0.8230   19.2460   41.8570 C   0  0  0  0  0  0  0  0  0  0  0  0
    3.3540   15.9590   38.1890 C   0  0  0  0  0  0  0  0  0  0  0  0
   -0.5300   17.0800   44.4050 O   0  0  0  0  0  0  0  0  0  0  0  0
    2.4760   17.7360   39.4930 C   0  0  0  0  0  0  0  0  0  0  0  0
    2.6150   18.6090   38.4140 C   0  0  0  0  0  0  0  0  0  0  0  0
    3.3090   19.0110   36.1820 O   0  0  0  0  0  0  0  0  0  0  0  0
    2.8550   16.4040   39.3040 C   0  0  0  0  0  0  0  0  0  0  0  0
    2.2800   19.9800   38.5000 C   0  0  0  0  0  0  0  0  0  0  0  0
    3.4560   20.3200   36.4030 C   0  0  0  0  0  0  0  0  0  0  0  0
    2.4170   20.8740   37.3170 C   0  0  0  0  0  0  0  0  0  0  0  0
   -0.6110   19.3920   43.7830 C   0  0  0  0  0  0  0  0  0  0  0  0
    0.1830   17.2540   43.2930 N   0  0  0  0  0  0  0  0  0  0  0  0
    0.6651   22.0324   40.2636 H   0  0  0  0  0  0  0  0  0  0  0  0
    2.2183   21.5599   41.1729 H   0  0  0  0  0  0  0  0  0  0  0  0
   -0.6583   22.2814   42.2211 H   0  0  0  0  0  0  0  0  0  0  0  0
   -1.5889   19.3893   46.5046 H   0  0  0  0  0  0  0  0  0  0  0  0
    3.7288   16.4387   36.1124 H   0  0  0  0  0  0  0  0  0  0  0  0
    1.5347   18.7189   41.2046 H   0  0  0  0  0  0  0  0  0  0  0  0
    3.7107   14.9215   38.1088 H   0  0  0  0  0  0  0  0  0  0  0  0
    2.0817   18.0838   40.4592 H   0  0  0  0  0  0  0  0  0  0  0  0
    2.7249   15.6988   40.1382 H   0  0  0  0  0  0  0  0  0  0  0  0
    1.2743   19.7585   38.1133 H   0  0  0  0  0  0  0  0  0  0  0  0
    4.4456   20.4913   36.8517 H   0  0  0  0  0  0  0  0  0  0  0  0
    3.3513   20.8321   35.4351 H   0  0  0  0  0  0  0  0  0  0  0  0
    2.7163   21.8794   37.6481 H   0  0  0  0  0  0  0  0  0  0  0  0
    1.4547   20.9377   36.7879 H   0  0  0  0  0  0  0  0  0  0  0  0
    0.6808   16.5083   42.7861 H   0  0  0  0  0  0  0  0  0  0  0  0
  1  9  1  0
  2  8  2  3
  3  7  2  0
  4 22  1  0
  4 21  2  0
  5  1  1  0
  6 15  1  0
  7 21  1  0
  9 11  2  0
  9  3  1  0
 10  6  2  0
 10 12  1  0
 11  4  1  0
 12 17  2  0
 13  2  1  0
 15 18  1  0
 15 14  2  0
 16 19  1  0
 16  6  1  0
 17 14  1  0
 18  5  1  0
 19 20  1  0
 20 18  1  0
 21  2  1  0
 22 13  1  0
  1 23  1  0
  1 24  1  0
  3 25  1  0
  8 26  1  0
 10 27  1  0
 11 28  1  0
 12 29  1  0
 14 30  1  0
 17 31  1  0
 18 32  1  0
 19 33  1  0
 19 34  1  0
 20 35  1  0
 20 36  1  0
 22 37  1  0
M  END
>  <mol_id>  (10) 
2026-09-18-3war-s0-n100-refligand-seed1-0010

>  <rmsd_to_ref>  (10) 


$$$$

     RDKit          3D

 61 64  0  0  0  0  0  0  0  0999 V2000
    2.6460   21.6450   36.2370 C   0  0  0  0  0  0  0  0  0  0  0  0
   -1.7970   18.6140   44.6040 C   0  0  0  0  0  0  0  0  0  0  0  0
    2.4560   17.8420   39.7510 C   0  0  0  0  0  0  0  0  0  0  0  0
   -1.1360   20.7940   43.8230 N   0  0  0  0  0  0  0  0  0  0  0  0
    4.0960   13.0570   37.7560 O   0  0  0  0  0  0  0  0  0  0  0  0
    2.7490   16.9240   37.4490 C   0  0  0  0  0  0  0  0  0  0  0  0
    3.3660   19.4220   36.5050 N   0  0  0  0  0  0  0  0  0  0  0  0
    0.4760   20.1620   41.6630 C   0  0  0  0  0  0  0  0  0  0  0  0
    0.3750   17.7350   42.2230 C   0  0  0  0  0  0  0  0  0  0  0  0
    2.7530   19.2820   37.7170 C   0  0  0  0  0  0  0  0  0  0  0  0
    4.3110   13.3550   35.2150 O   0  0  0  0  0  0  0  0  0  0  0  0
   -1.4700   18.9100   46.1330 C   0  0  0  0  0  0  0  0  0  0  0  0
   -0.2660   16.9620   48.2530 C   0  0  0  0  0  0  0  0  0  0  0  0
    3.4230   20.4600   35.8000 C   0  0  0  0  0  0  0  0  0  0  0  0
    0.0110   19.1150   42.5490 C   0  0  0  0  0  0  0  0  0  0  0  0
    1.3010   20.6470   39.4170 N   0  0  0  0  0  0  0  0  0  0  0  0
    2.9950   17.9910   38.4180 C   0  0  0  0  0  0  0  0  0  0  0  0
    0.3150   17.1040   43.4500 F   0  0  0  0  0  0  0  0  0  0  0  0
   -1.0290   17.6420   46.9800 C   0  0  0  0  0  0  0  0  0  0  0  0
   -0.7690   21.7490   42.9690 C   0  0  0  0  0  0  0  0  0  0  0  0
    1.4030   19.9400   40.5780 C   0  0  0  0  0  0  0  0  0  0  0  0
    4.4580   13.8890   36.9750 C   0  0  0  0  0  0  0  0  0  0  0  0
    0.0830   21.4340   41.8630 C   0  0  0  0  0  0  0  0  0  0  0  0
    5.0880   13.5410   35.6990 C   0  0  0  0  0  0  0  0  0  0  0  0
   -0.8660   19.4190   43.6490 C   0  0  0  0  0  0  0  0  0  0  0  0
    2.0570   20.4410   38.2430 C   0  0  0  0  0  0  0  0  0  0  0  0
   -0.0460   18.7510   46.5830 C   0  0  0  0  0  0  0  0  0  0  0  0
    2.0140   21.5760   37.4180 C   0  0  0  0  0  0  0  0  0  0  0  0
    4.0980   16.4730   37.0130 C   0  0  0  0  0  0  0  0  0  0  0  0
    2.5400   19.0000   40.5890 C   0  0  0  0  0  0  0  0  0  0  0  0
    4.5370   15.3360   37.2510 C   0  0  0  0  0  0  0  0  0  0  0  0
    2.5899   22.5497   35.6139 H   0  0  0  0  0  0  0  0  0  0  0  0
   -1.6612   17.5394   44.4120 H   0  0  0  0  0  0  0  0  0  0  0  0
   -2.8353   18.9212   44.4099 H   0  0  0  0  0  0  0  0  0  0  0  0
    3.0021   17.0260   40.2468 H   0  0  0  0  0  0  0  0  0  0  0  0
    1.3818   17.6453   39.6192 H   0  0  0  0  0  0  0  0  0  0  0  0
    2.1988   16.0956   37.9191 H   0  0  0  0  0  0  0  0  0  0  0  0
    2.1384   17.2709   36.6023 H   0  0  0  0  0  0  0  0  0  0  0  0
   -0.3415   17.2931   41.5149 H   0  0  0  0  0  0  0  0  0  0  0  0
    1.3575   17.6475   41.7362 H   0  0  0  0  0  0  0  0  0  0  0  0
    3.5662   13.1767   35.8423 H   0  0  0  0  0  0  0  0  0  0  0  0
   -2.2188   19.7103   46.2266 H   0  0  0  0  0  0  0  0  0  0  0  0
   -0.6984   17.3473   49.1882 H   0  0  0  0  0  0  0  0  0  0  0  0
   -0.3903   15.8697   48.2143 H   0  0  0  0  0  0  0  0  0  0  0  0
    0.8048   17.2107   48.2143 H   0  0  0  0  0  0  0  0  0  0  0  0
    4.0320   20.4892   34.8844 H   0  0  0  0  0  0  0  0  0  0  0  0
    4.0473   17.9397   38.7342 H   0  0  0  0  0  0  0  0  0  0  0  0
   -1.6897   16.7626   46.9900 H   0  0  0  0  0  0  0  0  0  0  0  0
   -1.1214   22.7808   43.1144 H   0  0  0  0  0  0  0  0  0  0  0  0
    0.4156   22.2285   41.1787 H   0  0  0  0  0  0  0  0  0  0  0  0
    5.7450   12.6630   35.7850 H   0  0  0  0  0  0  0  0  0  0  0  0
    5.7540   14.3025   35.2670 H   0  0  0  0  0  0  0  0  0  0  0  0
    0.7365   18.5401   45.8392 H   0  0  0  0  0  0  0  0  0  0  0  0
    0.6474   19.3900   47.1496 H   0  0  0  0  0  0  0  0  0  0  0  0
    1.4356   22.4486   37.7555 H   0  0  0  0  0  0  0  0  0  0  0  0
    4.8139   17.1758   37.4641 H   0  0  0  0  0  0  0  0  0  0  0  0
    3.9788   16.4407   35.9200 H   0  0  0  0  0  0  0  0  0  0  0  0
    2.6650   18.6481   41.6237 H   0  0  0  0  0  0  0  0  0  0  0  0
    3.3817   19.5780   40.1799 H   0  0  0  0  0  0  0  0  0  0  0  0
    4.3984   15.3167   38.3421 H   0  0  0  0  0  0  0  0  0  0  0  0
    5.2550   15.4476   36.4252 H   0  0  0  0  0  0  0  0  0  0  0  0
  1 28  2  0
  3 30  1  0
  7 10  1  0
  8 23  2  0
  8 15  1  0
  9 15  1  0
  9 18  1  0
 10 26  2  0
 10 17  1  0
 11 24  1  0
 12  2  1  0
 12 27  1  0
 12 19  1  0
 14  1  1  0
 14  7  2  0
 15 25  2  0
 16 21  2  0
 17  6  1  0
 17  3  1  0
 19 13  1  0
 20  4  2  0
 21 30  1  0
 21  8  1  0
 22 31  1  0
 22  5  2  0
 23 20  1  0
 24 22  1  0
 25  4  1  0
 25  2  1  0
 26 16  1  0
 27 19  1  0
 28 26  1  0
 29 31  1  0
 29  6  1  0
  1 32  1  0
  2 33  1  0
  2 34  1  0
  3 35  1  0
  3 36  1  0
  6 37  1  0
  6 38  1  0
  9 39  1  0
  9 40  1  0
 11 41  1  0
 12 42  1  0
 13 43  1  0
 13 44  1  0
 13 45  1  0
 14 46  1  0
 17 47  1  0
 19 48  1  0
 20 49  1  0
 23 50  1  0
 24 51  1  0
 24 52  1  0
 27 53  1  0
 27 54  1  0
 28 55  1  0
 29 56  1  0
 29 57  1  0
 30 58  1  0
 30 59  1  0
 31 60  1  0
 31 61  1  0
M  END
>  <mol_id>  (11) 
2026-09-18-3war-s0-n100-refligand-seed1-0011

>  <rmsd_to_ref>  (11) 


$$$$

     RDKit          3D

 29 30  0  0  0  0  0  0  0  0999 V2000
    1.9800   18.8170   40.0410 C   0  0  0  0  0  0  0  0  0  0  0  0
    0.2100   20.5910   42.0550 C   0  0  0  0  0  0  0  0  0  0  0  0
    1.8330   19.9820   39.4940 C   0  0  0  0  0  0  0  0  0  0  0  0
    1.2710   21.0930   40.0160 C   0  0  0  0  0  0  0  0  0  0  0  0
    4.1490   14.1170   37.5210 N   0  0  0  0  0  0  0  0  0  0  0  0
   -0.6610   20.8450   42.9290 O   0  0  0  0  0  0  0  0  0  0  0  0
    3.2790   14.9640   38.1150 C   0  0  0  0  0  0  0  0  0  0  0  0
    0.5960   21.3850   41.1540 C   0  0  0  0  0  0  0  0  0  0  0  0
    4.9290   14.7890   36.8510 C   0  0  0  0  0  0  0  0  0  0  0  0
    3.4390   18.8160   36.4810 O   0  0  0  0  0  0  0  0  0  0  0  0
    3.6520   16.2610   37.8080 C   0  0  0  0  0  0  0  0  0  0  0  0
    2.8770   18.5520   37.5150 C   0  0  0  0  0  0  0  0  0  0  0  0
    1.4870   18.6320   41.2110 C   0  0  0  0  0  0  0  0  0  0  0  0
    0.6740   19.3610   42.0950 C   0  0  0  0  0  0  0  0  0  0  0  0
    4.6580   16.1680   36.9560 N   0  0  0  0  0  0  0  0  0  0  0  0
    2.9700   17.4650   38.3580 C   0  0  0  0  0  0  0  0  0  0  0  0
    2.4210   17.5380   39.5110 C   0  0  0  0  0  0  0  0  0  0  0  0
    1.2557   19.7855   38.5785 H   0  0  0  0  0  0  0  0  0  0  0  0
    2.8838   20.3058   39.5236 H   0  0  0  0  0  0  0  0  0  0  0  0
    1.3892   21.9695   39.3620 H   0  0  0  0  0  0  0  0  0  0  0  0
    2.2616   14.7723   37.7432 H   0  0  0  0  0  0  0  0  0  0  0  0
    3.2918   14.8154   39.2048 H   0  0  0  0  0  0  0  0  0  0  0  0
    0.3546   22.4465   41.3118 H   0  0  0  0  0  0  0  0  0  0  0  0
    5.7414   14.3653   36.2422 H   0  0  0  0  0  0  0  0  0  0  0  0
    2.1598   19.3177   37.8456 H   0  0  0  0  0  0  0  0  0  0  0  0
    1.7735   17.6550   41.6275 H   0  0  0  0  0  0  0  0  0  0  0  0
    1.2286   19.3254   43.0443 H   0  0  0  0  0  0  0  0  0  0  0  0
   -0.2713   18.8639   41.8317 H   0  0  0  0  0  0  0  0  0  0  0  0
    2.2814   16.6240   40.1069 H   0  0  0  0  0  0  0  0  0  0  0  0
  1 13  2  0
  2 14  1  0
  2  6  2  0
  3  4  1  0
  3  1  1  0
  4  8  2  0
  5  7  1  0
  8  2  1  0
  9 15  1  0
  9  5  2  0
 10 12  2  0
 11  7  1  0
 11 16  1  0
 12 16  1  0
 13 14  1  0
 15 11  2  0
 16 17  2  3
 17  1  1  0
  3 18  1  0
  3 19  1  0
  4 20  1  0
  7 21  1  0
  7 22  1  0
  8 23  1  0
  9 24  1  0
 12 25  1  0
 13 26  1  0
 14 27  1  0
 14 28  1  0
 17 29  1  0
M  END
>  <mol_id>  (12) 
2026-09-18-3war-s0-n100-refligand-seed1-0012

>  <rmsd_to_ref>  (12) 


$$$$

     RDKit          3D

 18 19  0  0  0  0  0  0  0  0999 V2000
    1.5000   20.5370   39.6540 C   0  0  0  0  0  0  0  0  0  0  0  0
    3.7050   19.6090   37.1890 O   0  0  0  0  0  1  0  0  0  0  0  0
    2.7400   20.0830   37.7180 C   0  0  0  0  0  0  0  0  0  0  0  0
    2.3160   18.5480   39.7160 C   0  0  0  0  0  0  0  0  0  0  0  0
    1.3630   18.8710   41.5160 C   0  0  0  0  0  0  0  0  0  0  0  0
    0.9370   19.9200   40.8690 C   0  0  0  0  0  0  0  0  0  0  0  0
    2.2790   20.8630   37.1620 O   0  0  0  0  0  0  0  0  0  0  0  0
    2.1730   19.0350   40.5290 C   0  0  0  0  0  0  0  0  0  0  0  0
    2.3660   19.7570   39.0660 C   0  0  0  0  0  0  0  0  0  0  0  0
    0.6806   20.7509   38.9520 H   0  0  0  0  0  0  0  0  0  0  0  0
    2.0203   21.4595   39.9511 H   0  0  0  0  0  0  0  0  0  0  0  0
    3.2529   17.9725   39.6856 H   0  0  0  0  0  0  0  0  0  0  0  0
    1.6327   17.7480   39.3948 H   0  0  0  0  0  0  0  0  0  0  0  0
    1.7603   19.0267   42.5299 H   0  0  0  0  0  0  0  0  0  0  0  0
    0.8046   17.9678   41.8031 H   0  0  0  0  0  0  0  0  0  0  0  0
    0.2982   19.2765   40.2462 H   0  0  0  0  0  0  0  0  0  0  0  0
    3.2652   19.0928   40.4117 H   0  0  0  0  0  0  0  0  0  0  0  0
    3.4567   19.8953   39.1027 H   0  0  0  0  0  0  0  0  0  0  0  0
  2  3  1  0
  6  1  1  0
  6  5  1  0
  7  3  2  0
  8  4  1  0
  8  6  1  0
  8  5  1  0
  9  3  1  0
  9  1  1  0
  9  4  1  0
  1 10  1  0
  1 11  1  0
  4 12  1  0
  4 13  1  0
  5 14  1  0
  5 15  1  0
  6 16  1  0
  8 17  1  0
  9 18  1  0
M  CHG  1   2  -1
M  END
>  <mol_id>  (13) 
2026-09-18-3war-s0-n100-refligand-seed1-0013

>  <rmsd_to_ref>  (13) 


$$$$

     RDKit          3D

 19 20  0  0  0  0  0  0  0  0999 V2000
    2.9840   20.2830   36.7120 N   0  0  0  0  0  0  0  0  0  0  0  0
    2.7200   19.1990   40.5990 C   0  0  0  0  0  0  0  0  0  0  0  0
    1.7220   19.9580   41.2470 C   0  0  0  0  0  0  0  0  0  0  0  0
    2.0470   20.5820   38.8410 C   0  0  0  0  0  0  0  0  0  0  0  0
    1.1510   20.9450   39.7830 C   0  0  0  0  0  0  0  0  0  0  0  0
    2.0980   20.9740   37.4820 N   0  0  0  0  0  0  0  0  0  0  0  0
    3.6920   18.8310   38.4260 N   0  0  0  0  0  0  0  0  0  0  0  0
    2.8840   19.4980   39.2770 C   0  0  0  0  0  0  0  0  0  0  0  0
    3.7120   19.2400   37.1560 C   0  0  0  0  0  0  0  0  0  0  0  0
    1.0180   21.0660   40.9080 C   0  0  0  0  0  0  0  0  0  0  0  0
    3.6760   19.3764   41.1134 H   0  0  0  0  0  0  0  0  0  0  0  0
    2.3972   18.1485   40.6465 H   0  0  0  0  0  0  0  0  0  0  0  0
    0.9360   19.2155   41.4492 H   0  0  0  0  0  0  0  0  0  0  0  0
    2.4096   20.4745   41.9329 H   0  0  0  0  0  0  0  0  0  0  0  0
    0.8917   21.9567   39.4377 H   0  0  0  0  0  0  0  0  0  0  0  0
    0.7328   19.9281   39.8157 H   0  0  0  0  0  0  0  0  0  0  0  0
    4.3509   18.7020   36.4402 H   0  0  0  0  0  0  0  0  0  0  0  0
    1.4694   21.9922   41.2933 H   0  0  0  0  0  0  0  0  0  0  0  0
   -0.0109   21.1461   41.2887 H   0  0  0  0  0  0  0  0  0  0  0  0
  1  9  2  0
  1  6  1  0
  2  3  1  0
  4  8  1  0
  4  5  1  0
  5 10  1  0
  6  4  2  0
  7  8  2  0
  8  2  1  0
  9  7  1  0
 10  3  1  0
  2 11  1  0
  2 12  1  0
  3 13  1  0
  3 14  1  0
  5 15  1  0
  5 16  1  0
  9 17  1  0
 10 18  1  0
 10 19  1  0
M  END
>  <mol_id>  (14) 
2026-09-18-3war-s0-n100-refligand-seed1-0014

>  <rmsd_to_ref>  (14) 


$$$$

     RDKit          3D

 54 58  0  0  0  0  0  0  0  0999 V2000
    0.9570   15.6620   41.3240 O   0  0  0  0  0  0  0  0  0  0  0  0
    0.4690   21.3900   41.8230 N   0  0  0  0  0  0  0  0  0  0  0  0
    2.5370   16.5220   39.7200 C   0  0  0  0  0  0  0  0  0  0  0  0
    2.9320   17.6610   39.0890 C   0  0  0  0  0  0  0  0  0  0  0  0
    3.2000   14.1120   39.3300 C   0  0  0  0  0  0  0  0  0  0  0  0
    1.8280   19.0390   40.6290 C   0  0  0  0  0  0  0  0  0  0  0  0
    2.7720   21.8530   34.9170 N   0  0  0  0  0  0  0  0  0  0  0  0
    3.4280   15.3950   37.0090 C   0  0  0  0  0  0  0  0  0  0  0  0
    2.8800   18.9960   39.6100 C   0  0  0  0  0  0  0  0  0  0  0  0
    3.3240   13.3500   38.0700 C   0  0  0  0  0  0  0  0  0  0  0  0
    1.3190   21.5600   39.2580 O   0  0  0  0  0  0  0  0  0  0  0  0
    3.6520   20.0900   36.1180 N   0  0  0  0  0  0  0  0  0  0  0  0
    0.4620   18.3270   42.3210 C   0  0  0  0  0  0  0  0  0  0  0  0
   -0.2980   20.3560   42.5650 C   0  0  0  0  0  0  0  0  0  0  0  0
    1.1560   20.1970   41.2970 C   0  0  0  0  0  0  0  0  0  0  0  0
   -1.2240   19.4980   44.1400 C   0  0  0  0  0  0  0  0  0  0  0  0
   -0.9280   20.7350   43.5820 O   0  0  0  0  0  0  0  0  0  0  0  0
    2.8340   21.1140   35.9710 C   0  0  0  0  0  0  0  0  0  0  0  0
    2.9130   19.9950   38.6140 O   0  0  0  0  0  0  0  0  0  0  0  0
    4.2330   15.7690   38.1290 C   0  0  0  0  0  0  0  0  0  0  0  0
    2.0980   21.5960   37.0980 C   0  0  0  0  0  0  0  0  0  0  0  0
    0.3000   19.5530   42.2950 C   0  0  0  0  0  0  0  0  0  0  0  0
    1.5810   16.6330   40.7950 C   0  0  0  0  0  0  0  0  0  0  0  0
   -0.8690   18.2550   44.0870 C   0  0  0  0  0  0  0  0  0  0  0  0
    1.3200   17.9900   41.2390 C   0  0  0  0  0  0  0  0  0  0  0  0
    3.2540   15.3470   39.1960 C   0  0  0  0  0  0  0  0  0  0  0  0
   -0.1220   17.5490   43.2230 C   0  0  0  0  0  0  0  0  0  0  0  0
    3.4810   13.9510   36.9310 N   0  0  0  0  0  4  0  0  0  0  0  0
    1.8200   20.7550   38.2680 C   0  0  0  0  0  0  0  0  0  0  0  0
    2.3376   17.6939   38.1640 H   0  0  0  0  0  0  0  0  0  0  0  0
    4.0208   17.5055   39.1064 H   0  0  0  0  0  0  0  0  0  0  0  0
    2.2335   13.8589   39.7902 H   0  0  0  0  0  0  0  0  0  0  0  0
    4.0618   13.8281   39.9518 H   0  0  0  0  0  0  0  0  0  0  0  0
    2.1055   22.6372   34.8763 H   0  0  0  0  0  0  0  0  0  0  0  0
    2.3908   15.7301   37.1573 H   0  0  0  0  0  0  0  0  0  0  0  0
    3.7959   15.8580   36.0815 H   0  0  0  0  0  0  0  0  0  0  0  0
    3.8068   19.2686   40.1361 H   0  0  0  0  0  0  0  0  0  0  0  0
    4.1912   12.6845   38.1928 H   0  0  0  0  0  0  0  0  0  0  0  0
    2.3265   12.8981   37.9656 H   0  0  0  0  0  0  0  0  0  0  0  0
    1.5546   21.1815   40.1419 H   0  0  0  0  0  0  0  0  0  0  0  0
    3.6434   19.5454   36.9922 H   0  0  0  0  0  0  0  0  0  0  0  0
    4.2994   19.8349   35.3586 H   0  0  0  0  0  0  0  0  0  0  0  0
    2.1148   20.7353   41.3284 H   0  0  0  0  0  0  0  0  0  0  0  0
   -2.0337   19.6145   44.8753 H   0  0  0  0  0  0  0  0  0  0  0  0
    5.1776   15.2073   38.1765 H   0  0  0  0  0  0  0  0  0  0  0  0
    4.5833   16.8112   38.1618 H   0  0  0  0  0  0  0  0  0  0  0  0
    2.6490   22.4711   37.4730 H   0  0  0  0  0  0  0  0  0  0  0  0
    1.0933   21.7354   36.6725 H   0  0  0  0  0  0  0  0  0  0  0  0
   -1.2592   17.6530   44.9209 H   0  0  0  0  0  0  0  0  0  0  0  0
   -0.7678   16.8257   42.7036 H   0  0  0  0  0  0  0  0  0  0  0  0
    0.6675   17.0385   43.7941 H   0  0  0  0  0  0  0  0  0  0  0  0
    2.7363   13.6346   36.2936 H   0  0  0  0  0  0  0  0  0  0  0  0
    4.4240   13.7075   36.5958 H   0  0  0  0  0  0  0  0  0  0  0  0
    1.0511   19.9995   38.0487 H   0  0  0  0  0  0  0  0  0  0  0  0
  2 14  2  0
  3 23  1  0
  4  9  1  0
  4  3  1  0
  6 25  2  0
  7 18  2  3
  8 20  1  0
  9 19  1  0
  9  6  1  0
 10  5  1  0
 13 27  1  0
 14 17  1  0
 15  6  1  0
 15  2  1  0
 15 22  1  0
 17 16  1  0
 18 12  1  0
 18 21  1  0
 20 26  1  0
 21 29  1  0
 22 13  2  0
 22 14  1  0
 23 25  1  0
 23  1  2  0
 24 16  2  0
 25 13  1  0
 26  5  1  0
 26  3  2  3
 27 24  1  0
 28  8  1  0
 28 10  1  0
 29 19  1  0
 29 11  1  0
  4 30  1  0
  4 31  1  0
  5 32  1  0
  5 33  1  0
  7 34  1  0
  8 35  1  0
  8 36  1  0
  9 37  1  0
 10 38  1  0
 10 39  1  0
 11 40  1  0
 12 41  1  0
 12 42  1  0
 15 43  1  0
 16 44  1  0
 20 45  1  0
 20 46  1  0
 21 47  1  0
 21 48  1  0
 24 49  1  0
 27 50  1  0
 27 51  1  0
 28 52  1  0
 28 53  1  0
 29 54  1  0
M  CHG  1  28   1
M  END
>  <mol_id>  (15) 
2026-09-18-3war-s0-n100-refligand-seed1-0015

>  <rmsd_to_ref>  (15) 


$$$$

     RDKit          3D

 40 44  0  0  0  0  0  0  0  0999 V2000
    3.4640   20.4910   36.2270 N   0  0  0  0  0  0  0  0  0  0  0  0
   -0.1270   19.9820   43.2570 N   0  0  0  0  0  4  0  0  0  0  0  0
    1.4840   19.8510   39.9210 C   0  0  0  0  0  0  0  0  0  0  0  0
    0.1700   15.9750   43.1760 C   0  0  0  0  0  0  0  0  0  0  0  0
    1.8140   14.5980   41.7040 C   0  0  0  0  0  0  0  0  0  0  0  0
    4.0880   22.5500   35.5100 F   0  0  0  0  0  0  0  0  0  0  0  0
   -0.2150   17.3160   43.8210 C   0  0  0  0  0  0  0  0  0  0  0  0
    0.9350   18.4990   41.9000 C   0  0  0  0  0  0  0  0  0  0  0  0
    2.3710   17.4090   40.1340 C   0  0  0  0  0  0  0  0  0  0  0  0
    2.2800   18.7380   39.3970 C   0  0  0  0  0  0  0  0  0  0  0  0
    3.2320   16.6480   39.7590 O   0  0  0  0  0  0  0  0  0  0  0  0
    2.8500   20.2230   37.5230 C   0  0  0  0  0  0  0  0  0  0  0  0
    0.3920   20.7200   42.2870 C   0  0  0  0  0  0  0  0  0  0  0  0
    0.9640   14.9040   40.5090 C   0  0  0  0  0  0  0  0  0  0  0  0
    0.9410   19.7620   41.2930 C   0  0  0  0  0  0  0  0  0  0  0  0
    3.0930   21.6620   35.5760 C   0  0  0  0  0  0  0  0  0  0  0  0
    4.1630   19.7910   35.3310 O   0  0  0  0  0  0  0  0  0  0  0  0
    1.9970   21.8080   35.0700 O   0  0  0  0  0  0  0  0  0  0  0  0
    1.5170   17.2450   41.3140 C   0  0  0  0  0  0  0  0  0  0  0  0
    1.2430   20.9960   39.1470 C   0  0  0  0  0  0  0  0  0  0  0  0
    2.9720   18.9520   38.1940 C   0  0  0  0  0  0  0  0  0  0  0  0
    1.9660   21.1670   38.0180 C   0  0  0  0  0  0  0  0  0  0  0  0
    0.1380   18.6650   43.0840 C   0  0  0  0  0  0  0  0  0  0  0  0
    1.0860   15.8270   41.7300 C   0  0  0  0  0  0  0  0  0  0  0  0
    0.2708   20.2867   44.1569 H   0  0  0  0  0  0  0  0  0  0  0  0
   -1.1492   20.1074   43.2426 H   0  0  0  0  0  0  0  0  0  0  0  0
   -0.1622   15.0510   43.6719 H   0  0  0  0  0  0  0  0  0  0  0  0
    2.9096   14.6203   41.6084 H   0  0  0  0  0  0  0  0  0  0  0  0
    1.8780   13.7400   42.3893 H   0  0  0  0  0  0  0  0  0  0  0  0
   -0.7337   17.3347   44.7909 H   0  0  0  0  0  0  0  0  0  0  0  0
   -0.3856   21.3462   41.8253 H   0  0  0  0  0  0  0  0  0  0  0  0
    1.1714   21.3962   42.6681 H   0  0  0  0  0  0  0  0  0  0  0  0
    1.4252   15.1804   39.5494 H   0  0  0  0  0  0  0  0  0  0  0  0
    0.1500   14.4091   39.9589 H   0  0  0  0  0  0  0  0  0  0  0  0
   -0.0618   19.5700   40.8837 H   0  0  0  0  0  0  0  0  0  0  0  0
    4.7786   19.1745   35.8013 H   0  0  0  0  0  0  0  0  0  0  0  0
    2.0681   17.0774   42.2511 H   0  0  0  0  0  0  0  0  0  0  0  0
    0.4863   21.7344   39.4507 H   0  0  0  0  0  0  0  0  0  0  0  0
    3.6016   18.1574   37.7671 H   0  0  0  0  0  0  0  0  0  0  0  0
    1.8456   22.1082   37.4615 H   0  0  0  0  0  0  0  0  0  0  0  0
  1 12  1  0
  3 15  1  0
  4  7  2  0
  5 24  1  0
  6 16  1  0
  8 23  2  0
 10  3  2  0
 10  9  1  0
 11  9  2  0
 12 22  1  0
 12 21  2  0
 13  2  1  0
 14  5  1  0
 14 24  1  0
 15  8  1  0
 15 13  1  0
 16  1  1  0
 17  1  1  0
 18 16  2  0
 19  9  1  0
 19 24  1  0
 19  8  1  0
 20  3  1  0
 21 10  1  0
 22 20  2  0
 23  2  1  0
 23  7  1  0
 24  4  1  0
  2 25  1  0
  2 26  1  0
  4 27  1  0
  5 28  1  0
  5 29  1  0
  7 30  1  0
 13 31  1  0
 13 32  1  0
 14 33  1  0
 14 34  1  0
 15 35  1  0
 17 36  1  0
 19 37  1  0
 20 38  1  0
 21 39  1  0
 22 40  1  0
M  CHG  1   2   1
M  END
>  <mol_id>  (16) 
2026-09-18-3war-s0-n100-refligand-seed1-0016

>  <rmsd_to_ref>  (16) 


$$$$

     RDKit          3D

 51 58  0  0  0  0  0  0  0  0999 V2000
   -1.1550   19.6220   44.8080 O   0  0  0  0  0  0  0  0  0  0  0  0
    1.7420   16.2660   40.9780 C   0  0  0  0  0  0  0  0  0  0  0  0
    3.5670   15.0910   38.2060 C   0  0  0  0  0  0  0  0  0  0  0  0
    0.8240   18.7630   41.7030 C   0  0  0  0  0  0  0  0  0  0  0  0
    2.6940   20.1180   36.9440 C   0  0  0  0  0  0  0  0  0  0  0  0
    2.4510   15.4810   40.1650 N   0  0  0  0  0  0  0  0  0  0  0  0
    1.3830   20.4350   40.0280 C   0  0  0  0  0  0  0  0  0  0  0  0
    0.4390   21.1600   41.9020 C   0  0  0  0  0  0  0  0  0  0  0  0
    2.3510   21.1570   35.9790 C   0  0  0  0  0  0  0  0  0  0  0  0
    1.7870   21.6320   38.4030 C   0  0  0  0  0  0  0  0  0  0  0  0
    3.4490   17.9380   37.6300 C   0  0  0  0  0  0  0  0  0  0  0  0
    1.5780   17.7330   40.8170 C   0  0  0  0  0  0  0  0  0  0  0  0
   -1.0560   18.4810   45.6750 C   0  0  0  0  0  0  0  0  0  0  0  0
    0.0630   18.5880   42.9260 C   0  0  0  0  0  0  0  0  0  0  0  0
    1.1330   15.7590   41.9710 O   0  0  0  0  0  0  0  0  0  0  0  0
   -0.2870   20.9520   43.1610 C   0  0  0  0  0  0  0  0  0  0  0  0
    2.2370   20.4620   38.3010 C   0  0  0  0  0  0  0  0  0  0  0  0
    0.9060   20.1510   41.2460 C   0  0  0  0  0  0  0  0  0  0  0  0
    1.1410   21.7430   35.4170 C   0  0  0  0  0  0  0  0  0  0  0  0
    2.6940   14.0640   40.2130 C   0  0  0  0  0  0  0  0  0  0  0  0
    1.3710   21.6870   39.5050 O   0  0  0  0  0  0  0  0  0  0  0  0
    3.4010   13.8460   38.8740 C   0  0  0  0  0  0  0  0  0  0  0  0
    2.1310   18.2460   39.6540 C   0  0  0  0  0  0  0  0  0  0  0  0
    3.4460   21.2870   34.8850 C   0  0  0  0  0  0  0  0  0  0  0  0
    2.8130   17.3990   38.7530 C   0  0  0  0  0  0  0  0  0  0  0  0
    3.2650   18.9590   36.7470 C   0  0  0  0  0  0  0  0  0  0  0  0
    2.9890   16.0260   39.0380 C   0  0  0  0  0  0  0  0  0  0  0  0
    2.5890   22.5290   35.1700 C   0  0  0  0  0  0  0  0  0  0  0  0
    2.0660   19.6190   39.2940 C   0  0  0  0  0  0  0  0  0  0  0  0
   -0.4820   19.7180   43.6020 C   0  0  0  0  0  0  0  0  0  0  0  0
    4.0520   15.2692   37.2349 H   0  0  0  0  0  0  0  0  0  0  0  0
    0.4207   19.9673   40.2834 H   0  0  0  0  0  0  0  0  0  0  0  0
    0.5856   22.1796   41.5162 H   0  0  0  0  0  0  0  0  0  0  0  0
    0.9825   21.8055   37.6732 H   0  0  0  0  0  0  0  0  0  0  0  0
    2.5521   22.3966   38.2029 H   0  0  0  0  0  0  0  0  0  0  0  0
    4.3625   17.3741   37.3903 H   0  0  0  0  0  0  0  0  0  0  0  0
    0.6256   17.5689   40.2917 H   0  0  0  0  0  0  0  0  0  0  0  0
   -1.0848   18.8134   46.7232 H   0  0  0  0  0  0  0  0  0  0  0  0
   -1.8985   17.8003   45.4829 H   0  0  0  0  0  0  0  0  0  0  0  0
   -0.1089   17.9556   45.4829 H   0  0  0  0  0  0  0  0  0  0  0  0
   -0.0940   17.5783   43.3333 H   0  0  0  0  0  0  0  0  0  0  0  0
   -0.6654   21.8123   43.7326 H   0  0  0  0  0  0  0  0  0  0  0  0
    3.1936   20.1658   38.7562 H   0  0  0  0  0  0  0  0  0  0  0  0
    0.6374   21.2495   34.5727 H   0  0  0  0  0  0  0  0  0  0  0  0
    0.1670   22.0403   35.8328 H   0  0  0  0  0  0  0  0  0  0  0  0
    2.4407   13.3362   40.9979 H   0  0  0  0  0  0  0  0  0  0  0  0
    3.7318   12.8715   38.4855 H   0  0  0  0  0  0  0  0  0  0  0  0
    4.5067   21.2819   35.1765 H   0  0  0  0  0  0  0  0  0  0  0  0
    3.6818   20.7183   33.9734 H   0  0  0  0  0  0  0  0  0  0  0  0
    3.6488   18.7843   35.7311 H   0  0  0  0  0  0  0  0  0  0  0  0
    2.8153   23.5808   34.9407 H   0  0  0  0  0  0  0  0  0  0  0  0
  1 13  1  0
  2 15  2  0
  3 22  1  0
  3 27  2  0
  4 14  2  0
  5 17  1  0
  6 20  1  0
  6  2  1  0
  7 29  1  0
  7 18  1  0
  8 16  1  0
  9  5  1  0
 10 21  1  0
 11 25  2  0
 12 23  1  0
 12  2  1  0
 12  4  1  0
 14 30  1  0
 16 30  2  0
 17 10  1  0
 17 29  1  0
 18  4  1  0
 18  8  2  0
 19  9  1  0
 21  7  1  0
 22 20  2  0
 24  9  1  0
 25 27  1  0
 25 23  1  0
 26  5  2  0
 26 11  1  0
 27  6  1  0
 28 24  1  0
 28 19  1  0
 28  9  1  0
 29 23  2  0
 30  1  1  0
  3 31  1  0
  7 32  1  0
  8 33  1  0
 10 34  1  0
 10 35  1  0
 11 36  1  0
 12 37  1  0
 13 38  1  0
 13 39  1  0
 13 40  1  0
 14 41  1  0
 16 42  1  0
 17 43  1  0
 19 44  1  0
 19 45  1  0
 20 46  1  0
 22 47  1  0
 24 48  1  0
 24 49  1  0
 26 50  1  0
 28 51  1  0
M  END
>  <mol_id>  (17) 
2026-09-18-3war-s0-n100-refligand-seed1-0017

>  <rmsd_to_ref>  (17) 


$$$$

     RDKit          3D

 24 27  0  0  0  0  0  0  0  0999 V2000
    2.4410   17.1730   39.3560 C   0  0  0  0  0  0  0  0  0  0  0  0
    0.1480   19.9250   42.3390 C   0  0  0  0  0  0  0  0  0  0  0  0
    1.7320   20.9680   39.1940 N   0  0  0  0  0  0  0  0  0  0  0  0
    1.0550   21.0820   40.3420 C   0  0  0  0  0  0  0  0  0  0  0  0
    3.5480   17.5790   36.7360 N   0  0  0  0  0  0  0  0  0  0  0  0
    2.1530   18.6140   39.5150 C   0  0  0  0  0  0  0  0  0  0  0  0
    2.7720   19.7780   37.4000 C   0  0  0  0  0  0  0  0  0  0  0  0
    2.8440   14.9430   39.5010 N   0  0  0  0  0  0  0  0  0  0  0  0
    2.2340   19.7690   38.7390 C   0  0  0  0  0  0  0  0  0  0  0  0
    0.8320   19.9720   41.1810 C   0  0  0  0  0  0  0  0  0  0  0  0
    0.6860   22.2160   40.6930 O   0  0  0  0  0  0  0  0  0  0  0  0
    0.6560   17.5720   42.5910 C   0  0  0  0  0  0  0  0  0  0  0  0
    1.4620   18.8150   40.7390 C   0  0  0  0  0  0  0  0  0  0  0  0
    0.0650   18.7460   43.0900 C   0  0  0  0  0  0  0  0  0  0  0  0
    1.3170   17.6120   41.4500 C   0  0  0  0  0  0  0  0  0  0  0  0
    2.8430   20.7900   36.7680 O   0  0  0  0  0  0  0  0  0  0  0  0
    2.8910   15.9830   38.7260 C   0  0  0  0  0  0  0  0  0  0  0  0
    3.2000   18.5460   36.9420 C   0  0  0  0  0  0  0  0  0  0  0  0
    2.0230   16.6600   40.6020 C   0  0  0  0  0  0  0  0  0  0  0  0
    2.2740   15.3170   40.7290 N   0  0  0  0  0  0  0  0  0  0  0  0
   -0.3566   20.8320   42.7033 H   0  0  0  0  0  0  0  0  0  0  0  0
    0.5679   16.6274   43.1477 H   0  0  0  0  0  0  0  0  0  0  0  0
   -0.4563   18.7385   44.0586 H   0  0  0  0  0  0  0  0  0  0  0  0
    3.2442   15.9461   37.6849 H   0  0  0  0  0  0  0  0  0  0  0  0
  1  6  2  0
  1 19  1  0
  2 14  2  0
  3  4  1  0
  4 11  2  0
  4 10  1  0
  5 18  3  0
  6 13  1  0
  7  9  1  0
  8 20  1  0
  9  3  2  0
  9  6  1  0
 10  2  1  0
 12 14  1  0
 13 10  2  0
 13 15  1  0
 15 12  2  0
 16  7  2  0
 17  1  1  0
 17  8  2  0
 18  7  1  0
 19 20  2  0
 19 15  1  0
  2 21  1  0
 12 22  1  0
 14 23  1  0
 17 24  1  0
M  END
>  <mol_id>  (18) 
2026-09-18-3war-s0-n100-refligand-seed1-0018

>  <rmsd_to_ref>  (18) 


$$$$

     RDKit          3D

 17 17  0  0  0  0  0  0  0  0999 V2000
    2.4540   19.5760   38.6860 C   0  0  0  0  0  0  0  0  0  0  0  0
    3.4770   17.0170   38.5720 Cl  0  0  0  0  0  0  0  0  0  0  0  0
    2.7630   20.0510   37.3630 C   0  0  0  0  0  0  0  0  0  0  0  0
    1.7400   20.5220   39.5540 C   0  0  0  0  0  0  0  0  0  0  0  0
    1.4270   19.0980   41.2980 C   0  0  0  0  0  0  0  0  0  0  0  0
    0.6390   21.4690   41.6140 C   0  0  0  0  0  0  0  0  0  0  0  0
    2.8660   18.2290   39.2190 C   0  0  0  0  0  0  0  0  0  0  0  0
    3.7090   19.3990   36.7440 O   0  0  0  0  0  0  0  0  0  0  0  0
    1.2930   20.4400   40.8260 C   0  0  0  0  0  0  0  0  0  0  0  0
    2.1990   21.0860   36.9220 O   0  0  0  0  0  1  0  0  0  0  0  0
    2.1860   18.1200   40.5370 C   0  0  0  0  0  0  0  0  0  0  0  0
    1.5274   21.4881   39.0730 H   0  0  0  0  0  0  0  0  0  0  0  0
    0.9518   18.8028   42.2451 H   0  0  0  0  0  0  0  0  0  0  0  0
    0.7758   21.2538   42.6840 H   0  0  0  0  0  0  0  0  0  0  0  0
    1.0808   22.4482   41.3775 H   0  0  0  0  0  0  0  0  0  0  0  0
   -0.4352   21.4847   41.3775 H   0  0  0  0  0  0  0  0  0  0  0  0
    2.2720   17.1336   41.0163 H   0  0  0  0  0  0  0  0  0  0  0  0
  1  7  2  0
  1  4  1  0
  2  7  1  0
  3  1  1  0
  4  9  2  0
  7 11  1  0
  8  3  2  0
  9  5  1  0
  9  6  1  0
 10  3  1  0
 11  5  2  0
  4 12  1  0
  5 13  1  0
  6 14  1  0
  6 15  1  0
  6 16  1  0
 11 17  1  0
M  CHG  1  10  -1
M  END
>  <mol_id>  (19) 
2026-09-18-3war-s0-n100-refligand-seed1-0019

>  <rmsd_to_ref>  (19) 


$$$$

     RDKit          3D

 21 22  0  0  0  0  0  0  0  0999 V2000
    1.2380   17.4290   41.3220 C   0  0  0  0  0  0  0  0  0  0  0  0
    1.9040   18.8200   39.6990 C   0  0  0  0  0  0  0  0  0  0  0  0
    2.3220   17.4980   39.3530 C   0  0  0  0  0  0  0  0  0  0  0  0
   -0.3750   20.3460   41.1990 F   0  0  0  0  0  0  0  0  0  0  0  0
    3.2920   18.2120   37.3220 C   0  0  0  0  0  0  0  0  0  0  0  0
    1.9240   16.6230   40.4060 C   0  0  0  0  0  0  0  0  0  0  0  0
    3.0630   17.2300   38.2200 C   0  0  0  0  0  0  0  0  0  0  0  0
    0.5690   19.6980   42.9320 F   0  0  0  0  0  0  0  0  0  0  0  0
    3.3380   21.3430   35.9090 N   0  0  0  0  0  0  0  0  0  0  0  0
    3.0810   20.5530   36.7000 C   0  0  0  0  0  0  0  0  0  0  0  0
    2.8820   19.5420   37.6040 C   0  0  0  0  0  0  0  0  0  0  0  0
    1.2470   18.7250   40.9600 C   0  0  0  0  0  0  0  0  0  0  0  0
    1.5740   20.9100   41.5390 F   0  0  0  0  0  0  0  0  0  0  0  0
    2.1810   19.8470   38.7310 C   0  0  0  0  0  0  0  0  0  0  0  0
    0.7750   19.9220   41.6770 C   0  0  0  0  0  0  0  0  0  0  0  0
    0.7491   17.0479   42.2307 H   0  0  0  0  0  0  0  0  0  0  0  0
    3.7962   17.9817   36.3719 H   0  0  0  0  0  0  0  0  0  0  0  0
    2.1156   15.5425   40.4824 H   0  0  0  0  0  0  0  0  0  0  0  0
    3.4654   16.2206   38.0492 H   0  0  0  0  0  0  0  0  0  0  0  0
    2.7444   20.6340   39.2536 H   0  0  0  0  0  0  0  0  0  0  0  0
    1.1846   20.1128   38.3481 H   0  0  0  0  0  0  0  0  0  0  0  0
  2 12  2  0
  3  2  1  0
  3  6  1  0
  4 15  1  0
  5 11  2  0
  5  7  1  0
  6  1  2  0
  7  3  2  0
  9 10  3  0
 10 11  1  0
 11 14  1  0
 12  1  1  0
 12 15  1  0
 13 15  1  0
 14  2  1  0
 15  8  1  0
  1 16  1  0
  5 17  1  0
  6 18  1  0
  7 19  1  0
 14 20  1  0
 14 21  1  0
M  END
>  <mol_id>  (20) 
2026-09-18-3war-s0-n100-refligand-seed1-0020

>  <rmsd_to_ref>  (20) 


$$$$

     RDKit          3D

 26 28  0  0  0  0  0  0  0  0999 V2000
    2.7740   17.8950   38.7510 C   0  0  0  0  0  0  0  0  0  0  0  0
    1.4180   19.6180   40.3850 C   0  0  0  0  0  0  0  0  0  0  0  0
    2.0600   21.0570   36.6850 O   0  0  0  0  0  0  0  0  0  0  0  0
    2.4880   19.2510   38.3790 C   0  0  0  0  0  0  0  0  0  0  0  0
    0.5490   17.2040   42.8080 C   0  0  0  0  0  0  0  0  0  0  0  0
    1.0820   18.3540   43.2640 O   0  0  0  0  0  0  0  0  0  0  0  0
    2.6090   21.3590   41.4620 O   0  0  0  0  0  1  0  0  0  0  0  0
    2.7250   15.5540   39.7050 O   0  0  0  0  0  0  0  0  0  0  0  0
    1.1050   16.1560   41.8340 C   0  0  0  0  0  0  0  0  0  0  0  0
    4.0000   20.0120   36.9690 O   0  0  0  0  0  1  0  0  0  0  0  0
    2.3230   16.8030   39.7130 C   0  0  0  0  0  0  0  0  0  0  0  0
    0.3830   21.4050   41.4500 O   0  0  0  0  0  0  0  0  0  0  0  0
    1.4470   20.8670   41.1900 C   0  0  0  0  0  0  0  0  0  0  0  0
    0.3390   18.4720   42.1740 C   0  0  0  0  0  0  0  0  0  0  0  0
    2.8290   20.0650   37.2420 C   0  0  0  0  0  0  0  0  0  0  0  0
    1.5980   17.1680   40.9070 N   0  0  0  0  0  0  0  0  0  0  0  0
    1.1280   18.4610   40.9540 C   0  0  0  0  0  0  0  0  0  0  0  0
    1.7910   20.0410   39.1440 N   0  0  0  0  0  0  0  0  0  0  0  0
    3.8425   17.9674   39.0020 H   0  0  0  0  0  0  0  0  0  0  0  0
    2.1359   17.5008   37.9463 H   0  0  0  0  0  0  0  0  0  0  0  0
    0.3512   19.7804   40.1715 H   0  0  0  0  0  0  0  0  0  0  0  0
    0.0774   16.3896   43.3776 H   0  0  0  0  0  0  0  0  0  0  0  0
    1.9025   15.5352   42.2682 H   0  0  0  0  0  0  0  0  0  0  0  0
    0.4304   15.3741   41.4552 H   0  0  0  0  0  0  0  0  0  0  0  0
   -0.4969   19.1280   41.8895 H   0  0  0  0  0  0  0  0  0  0  0  0
    1.0763   18.6240   39.8674 H   0  0  0  0  0  0  0  0  0  0  0  0
  1 11  1  0
  2 17  1  0
  2 13  1  0
  3 15  2  0
  4  1  1  0
  4 18  2  0
  5  9  1  0
  5  6  1  0
  8 11  2  0
 10 15  1  0
 11 16  1  0
 13 12  2  0
 13  7  1  0
 14  5  1  0
 14  6  1  0
 15  4  1  0
 16  9  1  0
 17 16  1  0
 17 14  1  0
 18  2  1  0
  1 19  1  0
  1 20  1  0
  2 21  1  0
  5 22  1  0
  9 23  1  0
  9 24  1  0
 14 25  1  0
 17 26  1  0
M  CHG  2   7  -1  10  -1
M  END
>  <mol_id>  (21) 
2026-09-18-3war-s0-n100-refligand-seed1-0021

>  <rmsd_to_ref>  (21) 


$$$$

     RDKit          3D

 53 57  0  0  0  0  0  0  0  0999 V2000
    3.6320   17.2930   36.2650 C   0  0  0  0  0  0  0  0  0  0  0  0
    2.9810   19.7310   36.7590 C   0  0  0  0  0  0  0  0  0  0  0  0
    2.0380   20.6190   39.0620 C   0  0  0  0  0  0  0  0  0  0  0  0
    1.8060   16.1690   40.5940 C   0  0  0  0  0  0  0  0  0  0  0  0
    2.3860   15.8690   39.4000 C   0  0  0  0  0  0  0  0  0  0  0  0
    1.8540   17.5050   41.0530 C   0  0  0  0  0  0  0  0  0  0  0  0
    2.0170   18.5560   40.0260 C   0  0  0  0  0  0  0  0  0  0  0  0
    5.5840   13.1160   37.5760 C   0  0  0  0  0  0  0  0  0  0  0  0
    0.3790   19.7110   43.5790 O   0  0  0  0  0  0  0  0  0  0  0  0
    4.4990   14.0010   37.1470 C   0  0  0  0  0  0  0  0  0  0  0  0
    0.8630   21.6730   41.4790 C   0  0  0  0  0  0  0  0  0  0  0  0
    3.5380   20.8510   36.0460 C   0  0  0  0  0  0  0  0  0  0  0  0
    0.8760   20.2130   41.2970 C   0  0  0  0  0  0  0  0  0  0  0  0
    2.8180   16.9620   38.5040 C   0  0  0  0  0  0  0  0  0  0  0  0
    3.4400   16.3630   37.3910 C   0  0  0  0  0  0  0  0  0  0  0  0
    1.6270   17.9340   42.3470 C   0  0  0  0  0  0  0  0  0  0  0  0
    0.9150   19.2800   42.4010 C   0  0  0  0  0  0  0  0  0  0  0  0
    3.2290   20.2140   40.7750 F   0  0  0  0  0  0  0  0  0  0  0  0
    1.2960   15.1820   41.4510 C   0  0  0  0  0  0  0  0  0  0  0  0
    2.5350   18.2640   38.7890 C   0  0  0  0  0  0  0  0  0  0  0  0
    2.4870   19.5800   38.1440 C   0  0  0  0  0  0  0  0  0  0  0  0
    1.9550   19.9150   40.2750 C   0  0  0  0  0  0  0  0  0  0  0  0
    3.3220   18.4790   36.3540 C   0  0  0  0  0  0  0  0  0  0  0  0
    5.5580   13.8170   36.0870 C   0  0  0  0  0  0  0  0  0  0  0  0
   -0.4510   22.1000   40.9830 O   0  0  0  0  0  0  0  0  0  0  0  0
    4.3610   15.3290   37.7170 N   0  0  0  0  0  4  0  0  0  0  0  0
    4.0620   16.9181   35.3245 H   0  0  0  0  0  0  0  0  0  0  0  0
    1.0581   21.0204   38.7641 H   0  0  0  0  0  0  0  0  0  0  0  0
    2.7009   21.4960   39.1006 H   0  0  0  0  0  0  0  0  0  0  0  0
    2.5323   14.8198   39.1037 H   0  0  0  0  0  0  0  0  0  0  0  0
    6.3066   13.4496   38.3353 H   0  0  0  0  0  0  0  0  0  0  0  0
    5.6607   12.0904   37.9662 H   0  0  0  0  0  0  0  0  0  0  0  0
    0.8775   19.3102   44.3346 H   0  0  0  0  0  0  0  0  0  0  0  0
    3.4097   13.8486   37.1604 H   0  0  0  0  0  0  0  0  0  0  0  0
    0.9792   21.9323   42.5417 H   0  0  0  0  0  0  0  0  0  0  0  0
    1.6890   22.1658   40.9452 H   0  0  0  0  0  0  0  0  0  0  0  0
    3.9085   21.5961   36.7654 H   0  0  0  0  0  0  0  0  0  0  0  0
    4.3697   20.5064   35.4139 H   0  0  0  0  0  0  0  0  0  0  0  0
    2.7613   21.3062   35.4139 H   0  0  0  0  0  0  0  0  0  0  0  0
   -0.1599   19.9995   40.9948 H   0  0  0  0  0  0  0  0  0  0  0  0
    2.7493   15.6856   36.8675 H   0  0  0  0  0  0  0  0  0  0  0  0
    1.0065   17.1862   42.8625 H   0  0  0  0  0  0  0  0  0  0  0  0
    2.6055   18.0546   42.8348 H   0  0  0  0  0  0  0  0  0  0  0  0
   -0.0075   18.8067   42.0336 H   0  0  0  0  0  0  0  0  0  0  0  0
    1.4535   15.4868   42.4961 H   0  0  0  0  0  0  0  0  0  0  0  0
    0.2194   15.0550   41.2644 H   0  0  0  0  0  0  0  0  0  0  0  0
    1.8153   14.2304   41.2644 H   0  0  0  0  0  0  0  0  0  0  0  0
    1.4807   19.3554   37.7606 H   0  0  0  0  0  0  0  0  0  0  0  0
    5.3553   13.2187   35.1864 H   0  0  0  0  0  0  0  0  0  0  0  0
    6.2189   14.4611   35.4883 H   0  0  0  0  0  0  0  0  0  0  0  0
   -1.0463   22.2935   41.7500 H   0  0  0  0  0  0  0  0  0  0  0  0
    4.2065   15.1591   38.7211 H   0  0  0  0  0  0  0  0  0  0  0  0
    5.2006   15.7508   37.2950 H   0  0  0  0  0  0  0  0  0  0  0  0
  1 23  2  0
  1 15  1  0
  2 21  1  0
  3 22  1  0
  4  6  1  0
  4 19  1  0
  5  4  2  0
  6 16  1  0
  7 22  1  0
  7  6  2  0
 10  8  1  0
 10 26  1  0
 12  2  1  0
 13 11  1  0
 13 17  1  0
 14 20  2  0
 14  5  1  0
 15 26  1  0
 15 14  1  0
 16 17  1  0
 17  9  1  0
 20  7  1  0
 21 20  1  0
 21  3  1  0
 22 18  1  0
 22 13  1  0
 23  2  2  0
 24 10  1  0
 24  8  1  0
 25 11  1  0
  1 27  1  0
  3 28  1  0
  3 29  1  0
  5 30  1  0
  8 31  1  0
  8 32  1  0
  9 33  1  0
 10 34  1  0
 11 35  1  0
 11 36  1  0
 12 37  1  0
 12 38  1  0
 12 39  1  0
 13 40  1  0
 15 41  1  0
 16 42  1  0
 16 43  1  0
 17 44  1  0
 19 45  1  0
 19 46  1  0
 19 47  1  0
 21 48  1  0
 24 49  1  0
 24 50  1  0
 25 51  1  0
 26 52  1  0
 26 53  1  0
M  CHG  1  26   1
M  END
>  <mol_id>  (22) 
2026-09-18-3war-s0-n100-refligand-seed1-0022

>  <rmsd_to_ref>  (22) 


$$$$

     RDKit          3D

 19 19  0  0  0  0  0  0  0  0999 V2000
    1.9660   19.6490   40.9170 C   0  0  0  0  0  0  0  0  0  0  0  0
    2.7430   20.8400   36.2510 O   0  0  0  0  0  0  0  0  0  0  0  0
    2.3280   19.6360   39.4510 C   0  0  0  0  0  0  0  0  0  0  0  0
    3.3800   17.4050   39.3100 N   0  0  0  0  0  4  0  0  0  0  0  0
    2.6650   20.1900   37.3180 C   0  0  0  0  0  0  0  0  0  0  0  0
    2.0320   20.5990   38.4610 C   0  0  0  0  0  0  0  0  0  0  0  0
    3.2820   18.9110   37.4920 N   0  0  0  0  0  0  0  0  0  0  0  0
    0.9040   21.1110   41.2870 S   0  0  0  0  0  0  0  0  0  0  0  0
    1.7320   18.3370   41.3460 O   0  0  0  0  0  0  0  0  0  0  0  0
    3.0300   18.6400   38.9040 C   0  0  0  0  0  0  0  0  0  0  0  0
    2.7553   19.8891   41.6445 H   0  0  0  0  0  0  0  0  0  0  0  0
    3.3894   17.3718   40.3394 H   0  0  0  0  0  0  0  0  0  0  0  0
    2.7001   16.7199   38.9506 H   0  0  0  0  0  0  0  0  0  0  0  0
    4.3183   17.1785   38.9506 H   0  0  0  0  0  0  0  0  0  0  0  0
    2.4047   21.5871   38.7688 H   0  0  0  0  0  0  0  0  0  0  0  0
    0.9468   20.6873   38.3044 H   0  0  0  0  0  0  0  0  0  0  0  0
    3.7766   18.3309   36.7994 H   0  0  0  0  0  0  0  0  0  0  0  0
    0.7933   21.2633   42.6440 H   0  0  0  0  0  0  0  0  0  0  0  0
    1.7271   18.3093   42.3356 H   0  0  0  0  0  0  0  0  0  0  0  0
  1  8  1  0
  1  9  1  0
  2  5  2  0
  3  1  1  0
  5  7  1  0
  5  6  1  0
  6  3  1  0
  7 10  1  0
 10  4  1  0
 10  3  2  0
  1 11  1  0
  4 12  1  0
  4 13  1  0
  4 14  1  0
  6 15  1  0
  6 16  1  0
  7 17  1  0
  8 18  1  0
  9 19  1  0
M  CHG  1   4   1
M  END
>  <mol_id>  (23) 
2026-09-18-3war-s0-n100-refligand-seed1-0023

>  <rmsd_to_ref>  (23) 


$$$$

     RDKit          3D

 71 75  0  0  0  0  0  0  0  0999 V2000
    2.3040   17.0430   39.9180 C   0  0  0  0  0  0  0  0  0  0  0  0
    3.4930   16.7610   37.5800 C   0  0  0  0  0  0  0  0  0  0  0  0
    2.8890   19.1730   38.2510 C   0  0  0  0  0  0  0  0  0  0  0  0
   -1.1310   21.2040   43.5770 N   0  0  0  0  0  0  0  0  0  0  0  0
    3.0860   18.1910   37.0270 C   0  0  0  0  0  0  0  0  0  0  0  0
   -0.5730   21.9530   42.6670 C   0  0  0  0  0  0  0  0  0  0  0  0
   -0.0500   16.9460   43.5250 C   0  0  0  0  0  0  0  0  0  0  0  0
    4.3060   19.4400   38.8220 C   0  0  0  0  0  0  0  0  0  0  0  0
    1.2730   22.3360   39.7210 C   0  0  0  0  0  0  0  0  0  0  0  0
    1.9050   19.8230   39.4240 C   0  0  0  0  0  0  0  0  0  0  0  0
    1.5170   17.8170   40.8530 C   0  0  0  0  0  0  0  0  0  0  0  0
    0.2700   21.4520   41.6620 C   0  0  0  0  0  0  0  0  0  0  0  0
    4.9450   16.3520   37.5560 C   0  0  0  0  0  0  0  0  0  0  0  0
    2.7300   17.6160   38.8330 C   0  0  0  0  0  0  0  0  0  0  0  0
    3.5380   20.5280   35.7970 O   0  0  0  0  0  0  0  0  0  0  0  0
    2.5040   15.6860   37.2450 O   0  0  0  0  0  0  0  0  0  0  0  0
    2.4890   15.5190   40.3550 C   0  0  0  0  0  0  0  0  0  0  0  0
    2.3930   21.6790   37.4370 C   0  0  0  0  0  0  0  0  0  0  0  0
    0.5290   18.1710   42.9690 O   0  0  0  0  0  0  0  0  0  0  0  0
    1.6060   21.0730   38.9040 C   0  0  0  0  0  0  0  0  0  0  0  0
    1.4210   19.1260   40.4900 C   0  0  0  0  0  0  0  0  0  0  0  0
    5.4860   14.7100   35.7810 N   0  0  0  0  0  0  0  0  0  0  0  0
    0.0430   19.4020   42.6250 C   0  0  0  0  0  0  0  0  0  0  0  0
    2.8350   20.2740   37.0330 C   0  0  0  0  0  0  0  0  0  0  0  0
   -0.8590   19.9070   43.5200 C   0  0  0  0  0  0  0  0  0  0  0  0
    0.5660   20.0970   41.5700 C   0  0  0  0  0  0  0  0  0  0  0  0
    1.2890   22.5920   41.2660 C   0  0  0  0  0  0  0  0  0  0  0  0
    5.9780   13.7190   33.6450 C   0  0  0  0  0  0  0  0  0  0  0  0
    6.0730   13.5550   35.1590 C   0  0  0  0  0  0  0  0  0  0  0  0
   -0.9340   23.2000   42.5900 O   0  0  0  0  0  0  0  0  0  0  0  0
    5.6520   12.1500   35.4770 C   0  0  0  0  0  0  0  0  0  0  0  0
    5.0360   14.9230   37.0110 C   0  0  0  0  0  0  0  0  0  0  0  0
    4.5820   14.0590   37.6630 O   0  0  0  0  0  0  0  0  0  0  0  0
    1.3889   16.7747   39.3698 H   0  0  0  0  0  0  0  0  0  0  0  0
    3.1130   18.4885   35.9684 H   0  0  0  0  0  0  0  0  0  0  0  0
   -0.0267   16.9953   44.6236 H   0  0  0  0  0  0  0  0  0  0  0  0
   -1.0911   16.8451   43.1845 H   0  0  0  0  0  0  0  0  0  0  0  0
    0.5329   16.0775   43.1845 H   0  0  0  0  0  0  0  0  0  0  0  0
    4.2658   19.4324   39.9212 H   0  0  0  0  0  0  0  0  0  0  0  0
    4.9949   18.6559   38.4749 H   0  0  0  0  0  0  0  0  0  0  0  0
    4.6623   20.4211   38.4749 H   0  0  0  0  0  0  0  0  0  0  0  0
    0.2418   22.5779   39.4242 H   0  0  0  0  0  0  0  0  0  0  0  0
    2.1880   22.8975   39.4812 H   0  0  0  0  0  0  0  0  0  0  0  0
    1.8287   19.8258   40.5214 H   0  0  0  0  0  0  0  0  0  0  0  0
    0.5050   17.3888   40.9026 H   0  0  0  0  0  0  0  0  0  0  0  0
    2.0199   17.7754   41.8304 H   0  0  0  0  0  0  0  0  0  0  0  0
   -0.3133   21.2172   40.7594 H   0  0  0  0  0  0  0  0  0  0  0  0
    5.5124   17.0343   36.9060 H   0  0  0  0  0  0  0  0  0  0  0  0
    5.3671   16.3971   38.5708 H   0  0  0  0  0  0  0  0  0  0  0  0
    2.4247   18.2610   39.6701 H   0  0  0  0  0  0  0  0  0  0  0  0
    4.4498   20.8574   35.9976 H   0  0  0  0  0  0  0  0  0  0  0  0
    2.1450   15.2957   38.0810 H   0  0  0  0  0  0  0  0  0  0  0  0
    2.4973   15.4508   41.4529 H   0  0  0  0  0  0  0  0  0  0  0  0
    1.6570   14.9197   39.9567 H   0  0  0  0  0  0  0  0  0  0  0  0
    3.4402   15.1362   39.9567 H   0  0  0  0  0  0  0  0  0  0  0  0
    1.6979   22.1455   36.7235 H   0  0  0  0  0  0  0  0  0  0  0  0
    3.1439   22.4787   37.5183 H   0  0  0  0  0  0  0  0  0  0  0  0
    0.6677   20.5226   38.7405 H   0  0  0  0  0  0  0  0  0  0  0  0
    5.3983   15.5238   35.1557 H   0  0  0  0  0  0  0  0  0  0  0  0
   -0.5042   19.5601   41.6840 H   0  0  0  0  0  0  0  0  0  0  0  0
    2.3353   19.3500   36.7067 H   0  0  0  0  0  0  0  0  0  0  0  0
   -1.3718   19.2206   44.2099 H   0  0  0  0  0  0  0  0  0  0  0  0
    2.2847   22.4381   41.7075 H   0  0  0  0  0  0  0  0  0  0  0  0
    1.0407   23.6108   41.5983 H   0  0  0  0  0  0  0  0  0  0  0  0
    5.4394   14.6489   33.4100 H   0  0  0  0  0  0  0  0  0  0  0  0
    6.9902   13.7634   33.2168 H   0  0  0  0  0  0  0  0  0  0  0  0
    5.4359   12.8630   33.2168 H   0  0  0  0  0  0  0  0  0  0  0  0
    7.0709   13.5882   35.6207 H   0  0  0  0  0  0  0  0  0  0  0  0
    5.6122   12.0172   36.5682 H   0  0  0  0  0  0  0  0  0  0  0  0
    4.6573   11.9593   35.0479 H   0  0  0  0  0  0  0  0  0  0  0  0
    6.3780   11.4437   35.0479 H   0  0  0  0  0  0  0  0  0  0  0  0
  1 17  1  0
  1 11  1  0
  2 16  1  0
  2 14  1  0
  3  8  1  0
  3 10  1  0
  5  2  1  0
  5  3  1  0
  5 14  1  0
  6  4  1  0
  9 27  1  0
 10 21  1  0
 12  6  1  0
 13  2  1  0
 14  1  1  0
 15 24  1  0
 18 20  1  0
 19  7  1  0
 20 10  1  0
 20  9  1  0
 21 11  1  0
 21 26  2  0
 22 32  1  0
 23 19  1  0
 23 25  1  0
 24 18  1  0
 24  3  1  0
 25  4  2  0
 26 12  1  0
 26 23  1  0
 27 12  1  0
 28 29  1  0
 29 31  1  0
 29 22  1  0
 30  6  2  0
 32 13  1  0
 32 33  2  0
  1 34  1  0
  5 35  1  0
  7 36  1  0
  7 37  1  0
  7 38  1  0
  8 39  1  0
  8 40  1  0
  8 41  1  0
  9 42  1  0
  9 43  1  0
 10 44  1  0
 11 45  1  0
 11 46  1  0
 12 47  1  0
 13 48  1  0
 13 49  1  0
 14 50  1  0
 15 51  1  0
 16 52  1  0
 17 53  1  0
 17 54  1  0
 17 55  1  0
 18 56  1  0
 18 57  1  0
 20 58  1  0
 22 59  1  0
 23 60  1  0
 24 61  1  0
 25 62  1  0
 27 63  1  0
 27 64  1  0
 28 65  1  0
 28 66  1  0
 28 67  1  0
 29 68  1  0
 31 69  1  0
 31 70  1  0
 31 71  1  0
M  END
>  <mol_id>  (24) 
2026-09-18-3war-s0-n100-refligand-seed1-0024

>  <rmsd_to_ref>  (24) 


$$$$

     RDKit          3D

 44 45  0  0  0  0  0  0  0  0999 V2000
    2.4790   20.1980   39.2620 N   0  0  0  0  0  0  0  0  0  0  0  0
    3.2000   18.8970   37.3280 C   0  0  0  0  0  0  0  0  0  0  0  0
    4.3530   15.4950   36.7270 C   0  0  0  0  0  0  0  0  0  0  0  0
    2.6190   17.5310   39.2160 C   0  0  0  0  0  0  0  0  0  0  0  0
    3.1970   20.1490   36.7410 O   0  0  0  0  0  0  0  0  0  0  0  0
   -0.1760   20.5160   42.9780 N   0  0  0  0  0  4  0  0  0  0  0  0
    2.6700   18.8010   38.6300 C   0  0  0  0  0  0  0  0  0  0  0  0
    3.5380   14.3660   36.2720 O   0  0  0  0  0  0  0  0  0  0  0  0
   -0.0180   22.2900   41.6620 N   0  0  0  0  0  4  0  0  0  0  0  0
    1.3950   20.7080   39.7780 C   0  0  0  0  0  0  0  0  0  0  0  0
    3.6170   17.7690   36.6870 C   0  0  0  0  0  0  0  0  0  0  0  0
    1.6390   18.0760   41.7730 C   0  0  0  0  0  0  0  0  0  0  0  0
    0.1390   18.4910   42.0330 C   0  0  0  0  0  0  0  0  0  0  0  0
    2.5220   14.5250   39.7210 N   0  0  0  0  0  0  0  0  0  0  0  0
    1.2640   21.9120   39.8020 O   0  0  0  0  0  0  0  0  0  0  0  0
    3.0490   16.4860   38.5330 C   0  0  0  0  0  0  0  0  0  0  0  0
    2.8420   15.2460   39.0960 C   0  0  0  0  0  0  0  0  0  0  0  0
   -0.1110   21.0050   41.7310 C   0  0  0  0  0  0  0  0  0  0  0  0
    0.3010   19.1940   43.3980 C   0  0  0  0  0  0  0  0  0  0  0  0
    0.9180   19.0290   40.9660 O   0  0  0  0  0  0  0  0  0  0  0  0
    0.9330   20.4260   40.9960 C   0  0  0  0  0  0  0  0  0  0  0  0
    3.6280   16.6060   37.2810 C   0  0  0  0  0  0  0  0  0  0  0  0
    3.3127   20.8027   39.2778 H   0  0  0  0  0  0  0  0  0  0  0  0
    4.9297   15.8638   35.8660 H   0  0  0  0  0  0  0  0  0  0  0  0
    4.9740   15.1045   37.5467 H   0  0  0  0  0  0  0  0  0  0  0  0
    2.2247   17.4047   40.2351 H   0  0  0  0  0  0  0  0  0  0  0  0
    3.5586   20.2681   35.8271 H   0  0  0  0  0  0  0  0  0  0  0  0
   -1.1750   20.5376   43.2277 H   0  0  0  0  0  0  0  0  0  0  0  0
    0.5184   21.1165   43.4451 H   0  0  0  0  0  0  0  0  0  0  0  0
    3.1847   13.8766   37.0567 H   0  0  0  0  0  0  0  0  0  0  0  0
    0.0105   22.6837   42.6133 H   0  0  0  0  0  0  0  0  0  0  0  0
    0.8437   22.5453   41.1588 H   0  0  0  0  0  0  0  0  0  0  0  0
   -0.8339   22.6668   41.1588 H   0  0  0  0  0  0  0  0  0  0  0  0
    0.8535   20.1448   39.0037 H   0  0  0  0  0  0  0  0  0  0  0  0
    3.9531   17.8399   35.6420 H   0  0  0  0  0  0  0  0  0  0  0  0
    2.1523   17.9340   42.7355 H   0  0  0  0  0  0  0  0  0  0  0  0
    1.6657   17.1367   41.2011 H   0  0  0  0  0  0  0  0  0  0  0  0
    2.1447   18.8680   41.2011 H   0  0  0  0  0  0  0  0  0  0  0  0
   -0.8973   18.1225   42.0515 H   0  0  0  0  0  0  0  0  0  0  0  0
    1.2303   22.2216   40.7417 H   0  0  0  0  0  0  0  0  0  0  0  0
   -1.0792   20.7299   41.2873 H   0  0  0  0  0  0  0  0  0  0  0  0
    1.3464   19.2132   43.7397 H   0  0  0  0  0  0  0  0  0  0  0  0
   -0.2161   18.7334   44.2527 H   0  0  0  0  0  0  0  0  0  0  0  0
    1.5842   21.0236   41.6508 H   0  0  0  0  0  0  0  0  0  0  0  0
  1 10  1  0
  2  7  2  0
  3 22  1  0
  5  2  1  0
  6 19  1  0
  7  4  1  0
  7  1  1  0
  8  3  1  0
 10 15  1  0
 11 22  2  0
 11  2  1  0
 13 12  1  0
 13 19  1  0
 16 17  1  0
 16  4  2  0
 17 14  3  0
 18  9  1  0
 18  6  1  0
 20 21  1  0
 20 13  1  0
 21 10  1  0
 21 18  1  0
 22 16  1  0
  1 23  1  0
  3 24  1  0
  3 25  1  0
  4 26  1  0
  5 27  1  0
  6 28  1  0
  6 29  1  0
  8 30  1  0
  9 31  1  0
  9 32  1  0
  9 33  1  0
 10 34  1  0
 11 35  1  0
 12 36  1  0
 12 37  1  0
 12 38  1  0
 13 39  1  0
 15 40  1  0
 18 41  1  0
 19 42  1  0
 19 43  1  0
 21 44  1  0
M  CHG  2   6   1   9   1
M  END
>  <mol_id>  (25) 
2026-09-18-3war-s0-n100-refligand-seed1-0025

>  <rmsd_to_ref>  (25) 


$$$$

     RDKit          3D

 26 28  0  0  0  0  0  0  0  0999 V2000
    1.3070   16.5840   41.2110 C   0  0  0  0  0  0  0  0  0  0  0  0
    3.6970   19.3220   36.9080 O   0  0  0  0  0  0  0  0  0  0  0  0
    0.8290   17.8020   41.6360 C   0  0  0  0  0  0  0  0  0  0  0  0
    2.1700   21.0310   37.2930 O   0  0  0  0  0  1  0  0  0  0  0  0
    1.2880   21.3940   40.3070 Cl  0  0  0  0  0  0  0  0  0  0  0  0
    2.7520   15.8800   39.2880 C   0  0  0  0  0  0  0  0  0  0  0  0
    2.1430   16.9000   40.0160 C   0  0  0  0  0  0  0  0  0  0  0  0
    3.3740   18.6020   37.9880 C   0  0  0  0  0  0  0  0  0  0  0  0
    0.9140   20.0740   41.1490 C   0  0  0  0  0  0  0  0  0  0  0  0
    3.6840   16.1740   38.3610 C   0  0  0  0  0  0  0  0  0  0  0  0
    0.2490   18.0420   42.8070 C   0  0  0  0  0  0  0  0  0  0  0  0
   -0.1230   19.3420   43.1600 C   0  0  0  0  0  0  0  0  0  0  0  0
    2.6350   14.6550   39.5250 O   0  0  0  0  0  0  0  0  0  0  0  0
    3.0550   20.4940   36.6110 C   0  0  0  0  0  0  0  0  0  0  0  0
    3.5340   21.0380   35.5190 O   0  0  0  0  0  0  0  0  0  0  0  0
    1.0250   15.4990   41.6710 O   0  0  0  0  0  0  0  0  0  0  0  0
    0.2430   20.3000   42.3600 C   0  0  0  0  0  0  0  0  0  0  0  0
    1.3020   18.8560   40.8620 C   0  0  0  0  0  0  0  0  0  0  0  0
    3.8850   17.4020   37.8470 C   0  0  0  0  0  0  0  0  0  0  0  0
    2.0840   18.2330   39.8870 C   0  0  0  0  0  0  0  0  0  0  0  0
    2.6120   19.0020   38.9890 N   0  0  0  0  0  0  0  0  0  0  0  0
    4.3240   15.3556   37.9996 H   0  0  0  0  0  0  0  0  0  0  0  0
    0.0603   17.2117   43.5034 H   0  0  0  0  0  0  0  0  0  0  0  0
   -0.6999   19.5461   44.0741 H   0  0  0  0  0  0  0  0  0  0  0  0
    0.0154   21.3373   42.6468 H   0  0  0  0  0  0  0  0  0  0  0  0
    4.6994   17.3981   37.1075 H   0  0  0  0  0  0  0  0  0  0  0  0
  1  3  1  0
  1 16  2  0
  2  8  1  0
  3 11  2  0
  5  9  1  0
  6 13  2  0
  6  7  1  0
  7  1  1  0
  8 21  2  0
  9 17  1  0
 10  6  1  0
 11 12  1  0
 14  2  1  0
 14  4  1  0
 15 14  2  0
 17 12  2  0
 18  9  2  0
 18  3  1  0
 19  8  1  0
 19 10  2  0
 20  7  2  0
 20 18  1  0
 21 20  1  0
 10 22  1  0
 11 23  1  0
 12 24  1  0
 17 25  1  0
 19 26  1  0
M  CHG  1   4  -1
M  END
>  <mol_id>  (26) 
2026-09-18-3war-s0-n100-refligand-seed1-0026

>  <rmsd_to_ref>  (26) 


$$$$

     RDKit          3D

 16 17  0  0  0  0  0  0  0  0999 V2000
    0.6940   21.0080   41.4260 C   0  0  0  0  0  0  0  0  0  0  0  0
    1.7080   20.3530   39.6290 C   0  0  0  0  0  0  0  0  0  0  0  0
    2.1620   21.0780   37.3380 O   0  0  0  0  0  0  0  0  0  0  0  0
    3.0020   17.9010   39.0540 C   0  0  0  0  0  0  0  0  0  0  0  0
    2.2670   20.0960   38.3620 C   0  0  0  0  0  0  0  0  0  0  0  0
    1.8620   19.3340   40.5840 C   0  0  0  0  0  0  0  0  0  0  0  0
    3.4370   18.7350   36.8140 O   0  0  0  0  0  0  0  0  0  0  0  0
    1.1730   19.7610   41.6910 N   0  0  0  0  0  0  0  0  0  0  0  0
    2.4580   18.1550   40.2960 N   0  0  0  0  0  0  0  0  0  0  0  0
    2.8980   18.8490   38.0250 C   0  0  0  0  0  0  0  0  0  0  0  0
    1.0460   21.4050   40.1810 N   0  0  0  0  0  0  0  0  0  0  0  0
    0.1009   21.6112   42.1291 H   0  0  0  0  0  0  0  0  0  0  0  0
    2.5522   20.9053   36.4447 H   0  0  0  0  0  0  0  0  0  0  0  0
    3.5208   16.9488   38.8692 H   0  0  0  0  0  0  0  0  0  0  0  0
    3.8800   17.8909   36.5468 H   0  0  0  0  0  0  0  0  0  0  0  0
    2.5071   17.4272   41.0232 H   0  0  0  0  0  0  0  0  0  0  0  0
  1  8  1  0
  2 11  1  0
  2  6  1  0
  3  5  1  0
  4  9  1  0
  5  2  2  0
  6  8  2  0
  7 10  1  0
  9  6  1  0
 10  5  1  0
 10  4  2  0
 11  1  2  0
  1 12  1  0
  3 13  1  0
  4 14  1  0
  7 15  1  0
  9 16  1  0
M  END
>  <mol_id>  (27) 
2026-09-18-3war-s0-n100-refligand-seed1-0027

>  <rmsd_to_ref>  (27) 


$$$$

     RDKit          3D

 51 55  0  0  0  0  0  0  0  0999 V2000
    1.7890   16.0670   40.1880 C   0  0  0  0  0  0  0  0  0  0  0  0
    0.9120   19.5180   42.0560 C   0  0  0  0  0  0  0  0  0  0  0  0
    2.8620   20.6210   38.7640 C   0  0  0  0  0  0  0  0  0  0  0  0
    0.0120   18.7480   44.1100 O   0  0  0  0  0  0  0  0  0  0  0  0
    3.9830   19.0670   37.2470 F   0  0  0  0  0  0  0  0  0  0  0  0
    1.4620   21.0420   39.4550 C   0  0  0  0  0  0  0  0  0  0  0  0
    1.0060   19.0120   39.6070 C   0  0  0  0  0  0  0  0  0  0  0  0
    1.0530   21.1270   40.0980 C   0  0  0  0  0  0  0  0  0  0  0  0
    2.1790   14.9200   41.1950 C   0  0  0  0  0  0  0  0  0  0  0  0
    0.2580   18.6240   42.9950 C   0  0  0  0  0  0  0  0  0  0  0  0
    2.7060   16.4530   39.1940 C   0  0  0  0  0  0  0  0  0  0  0  0
    0.5610   17.2250   41.5130 C   0  0  0  0  0  0  0  0  0  0  0  0
    1.9800   19.7420   37.0850 O   0  0  0  0  0  0  0  0  0  0  0  0
    1.0080   17.1840   40.6690 C   0  0  0  0  0  0  0  0  0  0  0  0
    3.3650   20.4170   35.3730 O   0  0  0  0  0  0  0  0  0  0  0  0
    3.6290   19.8220   38.8680 C   0  0  0  0  0  0  0  0  0  0  0  0
    2.1650   19.2230   38.5600 C   0  0  0  0  0  0  0  0  0  0  0  0
    2.3360   17.8750   41.0790 S   0  0  0  0  0  4  0  0  0  0  0  0
    1.1290   20.1580   40.4910 C   0  0  0  0  0  0  0  0  0  0  0  0
    3.1520   20.3230   36.3660 C   0  0  0  0  0  0  0  0  0  0  0  0
    0.0670   17.3830   42.7310 C   0  0  0  0  0  0  0  0  0  0  0  0
    1.3790   18.3320   40.7030 C   0  0  0  0  0  0  0  0  0  0  0  0
    2.1240   18.0170   39.8570 C   0  0  0  0  0  0  0  0  0  0  0  0
    4.5190   20.0480   37.5420 C   0  0  0  0  0  0  0  0  0  0  0  0
    1.0691   15.4273   39.6565 H   0  0  0  0  0  0  0  0  0  0  0  0
    1.4731   20.2850   42.6100 H   0  0  0  0  0  0  0  0  0  0  0  0
    1.6040   18.9428   41.4234 H   0  0  0  0  0  0  0  0  0  0  0  0
    0.1543   20.0034   41.4234 H   0  0  0  0  0  0  0  0  0  0  0  0
    3.3064   21.5872   38.4829 H   0  0  0  0  0  0  0  0  0  0  0  0
    1.3684   22.0615   39.0526 H   0  0  0  0  0  0  0  0  0  0  0  0
    1.1290   19.9954   39.3938 H   0  0  0  0  0  0  0  0  0  0  0  0
    0.0690   19.5626   39.4374 H   0  0  0  0  0  0  0  0  0  0  0  0
    1.4984   21.8760   40.7693 H   0  0  0  0  0  0  0  0  0  0  0  0
    0.0245   21.4874   39.9489 H   0  0  0  0  0  0  0  0  0  0  0  0
    2.0564   15.2807   42.2269 H   0  0  0  0  0  0  0  0  0  0  0  0
    1.5261   14.0501   41.0306 H   0  0  0  0  0  0  0  0  0  0  0  0
    3.2268   14.6283   41.0306 H   0  0  0  0  0  0  0  0  0  0  0  0
    2.4386   16.2225   38.1522 H   0  0  0  0  0  0  0  0  0  0  0  0
    3.7492   16.1219   39.0837 H   0  0  0  0  0  0  0  0  0  0  0  0
    0.5558   16.1292   41.6092 H   0  0  0  0  0  0  0  0  0  0  0  0
    0.4551   18.3100   41.3660 H   0  0  0  0  0  0  0  0  0  0  0  0
    4.2279   19.9575   39.7807 H   0  0  0  0  0  0  0  0  0  0  0  0
    3.2093   18.8091   38.9566 H   0  0  0  0  0  0  0  0  0  0  0  0
    2.5518   18.2021   38.6948 H   0  0  0  0  0  0  0  0  0  0  0  0
    3.3841   17.8333   41.9602 H   0  0  0  0  0  0  0  0  0  0  0  0
    1.1252   20.2067   41.5899 H   0  0  0  0  0  0  0  0  0  0  0  0
    0.2754   19.5551   40.1477 H   0  0  0  0  0  0  0  0  0  0  0  0
    2.0662   19.6956   40.1477 H   0  0  0  0  0  0  0  0  0  0  0  0
   -1.0061   17.1418   42.7500 H   0  0  0  0  0  0  0  0  0  0  0  0
    0.5455   16.7197   43.4665 H   0  0  0  0  0  0  0  0  0  0  0  0
    5.5119   20.5194   37.5857 H   0  0  0  0  0  0  0  0  0  0  0  0
  1 14  1  0
  1  9  1  0
  2 10  1  0
  3 16  1  0
  3  6  1  0
  5 24  1  0
  6  8  1  0
  7 17  1  0
  7 23  1  0
  7 22  1  0
  8 19  1  0
 10  4  2  0
 11 23  1  0
 11  1  1  0
 12 21  1  0
 14 22  1  0
 14 18  1  0
 14 12  1  0
 15 20  2  0
 17 13  1  0
 17  3  1  0
 20 13  1  0
 20 24  1  0
 21 10  1  0
 22 18  1  0
 23 22  1  0
 23 18  1  0
 24 16  1  0
  1 25  1  0
  2 26  1  0
  2 27  1  0
  2 28  1  0
  3 29  1  0
  6 30  1  0
  6 31  1  0
  7 32  1  0
  8 33  1  0
  8 34  1  0
  9 35  1  0
  9 36  1  0
  9 37  1  0
 11 38  1  0
 11 39  1  0
 12 40  1  0
 12 41  1  0
 16 42  1  0
 16 43  1  0
 17 44  1  0
 18 45  1  0
 19 46  1  0
 19 47  1  0
 19 48  1  0
 21 49  1  0
 21 50  1  0
 24 51  1  0
M  END
>  <mol_id>  (28) 
2026-09-18-3war-s0-n100-refligand-seed1-0028

>  <rmsd_to_ref>  (28) 


$$$$

     RDKit          3D

 32 35  0  0  0  0  0  0  0  0999 V2000
    2.8170   17.3280   38.3100 C   0  0  0  0  0  0  0  0  0  0  0  0
   -1.1020   19.9480   44.8940 O   0  0  0  0  0  0  0  0  0  0  0  0
    0.8830   19.5900   41.2160 C   0  0  0  0  0  0  0  0  0  0  0  0
   -0.4370   20.9410   42.6950 C   0  0  0  0  0  0  0  0  0  0  0  0
    1.8170   20.8740   38.4600 C   0  0  0  0  0  0  0  0  0  0  0  0
    0.8850   18.5590   42.1710 C   0  0  0  0  0  0  0  0  0  0  0  0
    2.7960   18.7640   38.0530 C   0  0  0  0  0  0  0  0  0  0  0  0
    2.0040   17.7510   40.5650 C   0  0  0  0  0  0  0  0  0  0  0  0
   -0.4030   19.9150   43.6240 C   0  0  0  0  0  0  0  0  0  0  0  0
    1.6590   19.0910   40.1380 N   0  0  0  0  0  0  0  0  0  0  0  0
    2.8250   17.0610   39.6700 C   0  0  0  0  0  0  0  0  0  0  0  0
    3.1900   20.4710   36.4860 C   0  0  0  0  0  0  0  0  0  0  0  0
    3.7210   16.6800   37.4330 C   0  0  0  0  0  0  0  0  0  0  0  0
    3.4080   19.1300   36.8820 C   0  0  0  0  0  0  0  0  0  0  0  0
    2.3750   21.3410   37.2080 C   0  0  0  0  0  0  0  0  0  0  0  0
    4.2800   16.0790   36.7700 N   0  0  0  0  0  0  0  0  0  0  0  0
    0.2300   18.7100   43.3820 C   0  0  0  0  0  0  0  0  0  0  0  0
    1.6190   17.4840   41.6730 O   0  0  0  0  0  0  0  0  0  0  0  0
    0.2390   20.7890   41.5050 C   0  0  0  0  0  0  0  0  0  0  0  0
    2.0810   19.6090   38.9350 C   0  0  0  0  0  0  0  0  0  0  0  0
    1.8768   16.8291   38.0323 H   0  0  0  0  0  0  0  0  0  0  0  0
   -1.0366   19.1799   45.5151 H   0  0  0  0  0  0  0  0  0  0  0  0
   -0.9962   21.8647   42.9046 H   0  0  0  0  0  0  0  0  0  0  0  0
    1.1686   21.5440   39.0438 H   0  0  0  0  0  0  0  0  0  0  0  0
    1.1206   17.2535   40.1382 H   0  0  0  0  0  0  0  0  0  0  0  0
    2.5697   15.9963   39.7762 H   0  0  0  0  0  0  0  0  0  0  0  0
    3.8277   17.4026   39.9663 H   0  0  0  0  0  0  0  0  0  0  0  0
    3.6822   20.8405   35.5743 H   0  0  0  0  0  0  0  0  0  0  0  0
    4.0229   18.4329   36.2939 H   0  0  0  0  0  0  0  0  0  0  0  0
    2.1615   22.3543   36.8371 H   0  0  0  0  0  0  0  0  0  0  0  0
    0.2140   17.8993   44.1254 H   0  0  0  0  0  0  0  0  0  0  0  0
    0.2699   21.6170   40.7815 H   0  0  0  0  0  0  0  0  0  0  0  0
  1 13  1  0
  1 11  1  0
  3 19  2  0
  3  6  1  0
  4  9  2  0
  5 20  1  0
  6 17  2  0
  7  1  1  0
  7 20  2  0
  8 11  1  0
  8 18  1  0
  9  2  1  0
 10  8  1  0
 10  3  1  0
 12 14  2  0
 12 15  1  0
 14  7  1  0
 15  5  2  0
 16 13  3  0
 17  9  1  0
 18  6  1  0
 19  4  1  0
 20 10  1  0
  1 21  1  0
  2 22  1  0
  4 23  1  0
  5 24  1  0
  8 25  1  0
 11 26  1  0
 11 27  1  0
 12 28  1  0
 14 29  1  0
 15 30  1  0
 17 31  1  0
 19 32  1  0
M  END
>  <mol_id>  (29) 
2026-09-18-3war-s0-n100-refligand-seed1-0029

>  <rmsd_to_ref>  (29) 


$$$$

     RDKit          3D

 50 52  0  0  0  0  0  0  0  0999 V2000
    3.4470   18.6960   37.2780 C   0  0  0  0  0  0  0  0  0  0  0  0
   -1.4210   21.0970   43.2630 O   0  0  0  0  0  0  0  0  0  0  0  0
    2.4190   18.3150   39.7700 C   0  0  0  0  0  0  0  0  0  0  0  0
    0.0210   16.6080   43.8970 O   0  0  0  0  0  0  0  0  0  0  0  0
    1.4310   17.3320   41.9410 C   0  0  0  0  0  0  0  0  0  0  0  0
    2.7730   19.6760   37.9010 C   0  0  0  0  0  0  0  0  0  0  0  0
   -0.9120   17.2150   44.8050 C   0  0  0  0  0  0  0  0  0  0  0  0
    2.2730   19.5150   39.0970 C   0  0  0  0  0  0  0  0  0  0  0  0
    3.6620   17.4090   37.9460 C   0  0  0  0  0  0  0  0  0  0  0  0
    0.5460   17.5250   43.0230 C   0  0  0  0  0  0  0  0  0  0  0  0
   -0.9920   18.6700   44.4370 C   0  0  0  0  0  0  0  0  0  0  0  0
    3.4370   13.0640   35.4670 O   0  0  0  0  0  0  0  0  0  0  0  0
    1.7060   18.3380   41.1200 C   0  0  0  0  0  0  0  0  0  0  0  0
    2.5420   20.8040   37.1810 O   0  0  0  0  0  0  0  0  0  0  0  0
    5.3000   12.0790   36.8460 O   0  0  0  0  0  0  0  0  0  0  0  0
    3.3180   21.8150   35.0350 C   0  0  0  0  0  0  0  0  0  0  0  0
    0.2140   22.2230   42.2820 N   0  0  0  0  0  0  0  0  0  0  0  0
    4.8670   13.4590   36.0590 P   0  0  0  0  0  5  0  0  0  0  0  0
    4.0320   14.4550   37.9760 O   0  0  0  0  0  0  0  0  0  0  0  0
    2.3920   21.9900   35.2310 O   0  0  0  0  0  0  0  0  0  0  0  0
   -0.3920   21.1190   42.6950 C   0  0  0  0  0  0  0  0  0  0  0  0
    4.5640   14.9920   37.2800 C   0  0  0  0  0  0  0  0  0  0  0  0
    5.7220   13.8410   35.0660 O   0  0  0  0  0  0  0  0  0  0  0  0
    3.9360   19.2030   35.9340 C   0  0  0  0  0  0  0  0  0  0  0  0
    2.9520   20.6720   35.8700 C   0  0  0  0  0  0  0  0  0  0  0  0
   -0.0980   18.7250   43.2760 C   0  0  0  0  0  0  0  0  0  0  0  0
   -1.7340   19.4150   45.0080 O   0  0  0  0  0  0  0  0  0  0  0  0
    0.2370   19.8420   42.3830 C   0  0  0  0  0  0  0  0  0  0  0  0
    4.4580   16.4720   37.3300 N   0  0  0  0  0  0  0  0  0  0  0  0
    3.0770   17.2660   39.2040 C   0  0  0  0  0  0  0  0  0  0  0  0
    1.1170   19.6840   41.4030 C   0  0  0  0  0  0  0  0  0  0  0  0
    1.8932   16.3473   41.7779 H   0  0  0  0  0  0  0  0  0  0  0  0
   -1.9007   16.7437   44.7032 H   0  0  0  0  0  0  0  0  0  0  0  0
   -0.5865   17.0890   45.8482 H   0  0  0  0  0  0  0  0  0  0  0  0
    1.7294   20.3434   39.5748 H   0  0  0  0  0  0  0  0  0  0  0  0
    2.8081   12.8903   36.2116 H   0  0  0  0  0  0  0  0  0  0  0  0
    5.2532   12.2281   37.8236 H   0  0  0  0  0  0  0  0  0  0  0  0
    3.5700   21.6010   33.9859 H   0  0  0  0  0  0  0  0  0  0  0  0
    4.1651   22.4995   35.1893 H   0  0  0  0  0  0  0  0  0  0  0  0
    1.1166   22.1616   41.7896 H   0  0  0  0  0  0  0  0  0  0  0  0
   -0.2176   23.1423   42.4535 H   0  0  0  0  0  0  0  0  0  0  0  0
    2.2613   22.0147   36.2120 H   0  0  0  0  0  0  0  0  0  0  0  0
    4.6919   19.9867   36.0907 H   0  0  0  0  0  0  0  0  0  0  0  0
    4.3818   18.3714   35.3685 H   0  0  0  0  0  0  0  0  0  0  0  0
    3.0889   19.6184   35.3685 H   0  0  0  0  0  0  0  0  0  0  0  0
    2.1308   20.1625   35.3446 H   0  0  0  0  0  0  0  0  0  0  0  0
    3.9212   20.1659   35.9905 H   0  0  0  0  0  0  0  0  0  0  0  0
    5.1768   16.9189   36.7431 H   0  0  0  0  0  0  0  0  0  0  0  0
    3.1471   16.3070   39.7382 H   0  0  0  0  0  0  0  0  0  0  0  0
    1.4161   20.5495   40.7935 H   0  0  0  0  0  0  0  0  0  0  0  0
  1  6  2  0
  1  9  1  0
  3 13  1  0
  4  7  1  0
  5 10  1  0
  6  8  1  0
  8  3  2  0
  9 30  2  0
 10 26  2  0
 10  4  1  0
 11  7  1  0
 11 27  2  0
 12 18  1  0
 13 31  1  0
 13  5  2  0
 14  6  1  0
 16 20  1  0
 16 25  1  0
 17 21  1  0
 18 15  1  0
 18 22  1  0
 21  2  2  0
 22 29  1  0
 22 19  2  0
 23 18  2  0
 24  1  1  0
 25 14  1  0
 26 11  1  0
 28 21  1  0
 28 26  1  0
 29  9  1  0
 30  3  1  0
 31 28  2  0
  5 32  1  0
  7 33  1  0
  7 34  1  0
  8 35  1  0
 12 36  1  0
 15 37  1  0
 16 38  1  0
 16 39  1  0
 17 40  1  0
 17 41  1  0
 20 42  1  0
 24 43  1  0
 24 44  1  0
 24 45  1  0
 25 46  1  0
 25 47  1  0
 29 48  1  0
 30 49  1  0
 31 50  1  0
M  END
>  <mol_id>  (30) 
2026-09-18-3war-s0-n100-refligand-seed1-0030

>  <rmsd_to_ref>  (30) 


$$$$

     RDKit          3D

 17 18  0  0  0  0  0  0  0  0999 V2000
    1.3520   21.2590   39.7120 C   0  0  0  0  0  0  0  0  0  0  0  0
    3.2210   16.2400   38.5750 N   0  0  0  0  0  0  0  0  0  0  0  0
    2.9940   18.4480   37.6760 C   0  0  0  0  0  0  0  0  0  0  0  0
    1.9630   20.0760   39.1480 C   0  0  0  0  0  0  0  0  0  0  0  0
    2.5040   20.6500   36.8790 O   0  0  0  0  0  0  0  0  0  0  0  0
    2.4960   19.7500   37.8800 C   0  0  0  0  0  0  0  0  0  0  0  0
    2.9800   17.5770   38.7460 C   0  0  0  0  0  0  0  0  0  0  0  0
    1.4930   19.7330   41.3630 O   0  0  0  0  0  0  0  0  0  0  0  0
    2.0210   19.1370   40.1550 C   0  0  0  0  0  0  0  0  0  0  0  0
    2.6230   18.0990   39.8270 N   0  0  0  0  0  0  0  0  0  0  0  0
    1.0630   20.9650   41.0040 C   0  0  0  0  0  0  0  0  0  0  0  0
    1.1594   22.2105   39.1947 H   0  0  0  0  0  0  0  0  0  0  0  0
    3.2060   15.6061   39.3867 H   0  0  0  0  0  0  0  0  0  0  0  0
    3.4172   15.8682   37.6347 H   0  0  0  0  0  0  0  0  0  0  0  0
    3.3816   18.1358   36.6950 H   0  0  0  0  0  0  0  0  0  0  0  0
    2.1521   21.5627   37.0312 H   0  0  0  0  0  0  0  0  0  0  0  0
    0.5376   21.6514   41.6843 H   0  0  0  0  0  0  0  0  0  0  0  0
  1 11  2  0
  2  7  1  0
  3  6  2  0
  3  7  1  0
  4  1  1  0
  4  9  2  0
  5  6  1  0
  6  4  1  0
  7 10  2  0
  9  8  1  0
 10  9  1  0
 11  8  1  0
  1 12  1  0
  2 13  1  0
  2 14  1  0
  3 15  1  0
  5 16  1  0
 11 17  1  0
M  END
>  <mol_id>  (31) 
2026-09-18-3war-s0-n100-refligand-seed1-0031

>  <rmsd_to_ref>  (31) 


$$$$

     RDKit          3D

 33 34  0  0  0  0  0  0  0  0999 V2000
    2.4980   21.3600   36.6020 C   0  0  0  0  0  0  0  0  0  0  0  0
    2.9270   15.0600   39.4060 C   0  0  0  0  0  0  0  0  0  0  0  0
    0.3800   20.0810   42.0110 C   0  0  0  0  0  0  0  0  0  0  0  0
    2.6210   20.2330   36.9510 N   0  0  0  0  0  0  0  0  0  0  0  0
    3.2430   18.2190   37.8420 C   0  0  0  0  0  0  0  0  0  0  0  0
    2.8610   18.6670   39.1020 C   0  0  0  0  0  0  0  0  0  0  0  0
    1.4870   18.2980   40.8280 C   0  0  0  0  0  0  0  0  0  0  0  0
    0.0690   17.8090   42.6650 C   0  0  0  0  0  0  0  0  0  0  0  0
    0.1090   21.4210   42.1450 O   0  0  0  0  0  0  0  0  0  0  0  0
    2.8980   19.0710   36.8030 N   0  0  0  0  0  0  0  0  0  0  0  0
    1.1630   19.6540   40.9540 C   0  0  0  0  0  0  0  0  0  0  0  0
    1.3120   16.0990   41.0250 C   0  0  0  0  0  0  0  0  0  0  0  0
    2.3110   17.7580   39.8390 C   0  0  0  0  0  0  0  0  0  0  0  0
    2.2020   16.2900   40.0280 C   0  0  0  0  0  0  0  0  0  0  0  0
    4.1660   17.4700   37.7170 O   0  0  0  0  0  0  0  0  0  0  0  0
    1.7160   20.7620   39.9130 S   0  0  0  0  0  0  0  0  0  0  0  0
    0.8810   17.3660   41.6410 C   0  0  0  0  0  0  0  0  0  0  0  0
    0.8780   14.9380   41.2590 O   0  0  0  0  0  0  0  0  0  0  0  0
   -0.1640   19.1330   42.8580 C   0  0  0  0  0  0  0  0  0  0  0  0
    2.1360   22.1190   37.3111 H   0  0  0  0  0  0  0  0  0  0  0  0
    2.7460   21.6461   35.5692 H   0  0  0  0  0  0  0  0  0  0  0  0
    3.3080   14.4136   40.2103 H   0  0  0  0  0  0  0  0  0  0  0  0
    2.2188   14.4928   38.7842 H   0  0  0  0  0  0  0  0  0  0  0  0
    3.7663   15.4049   38.7842 H   0  0  0  0  0  0  0  0  0  0  0  0
    1.2427   20.1881   42.6850 H   0  0  0  0  0  0  0  0  0  0  0  0
    3.7555   19.0397   39.6225 H   0  0  0  0  0  0  0  0  0  0  0  0
    2.1048   19.4503   38.9455 H   0  0  0  0  0  0  0  0  0  0  0  0
   -0.3987   17.0754   43.3381 H   0  0  0  0  0  0  0  0  0  0  0  0
    0.0619   21.6537   43.1061 H   0  0  0  0  0  0  0  0  0  0  0  0
    2.8777   18.6863   35.8478 H   0  0  0  0  0  0  0  0  0  0  0  0
    1.4426   16.2441   39.2336 H   0  0  0  0  0  0  0  0  0  0  0  0
   -0.0078   17.3787   40.9930 H   0  0  0  0  0  0  0  0  0  0  0  0
   -0.7942   19.4557   43.6998 H   0  0  0  0  0  0  0  0  0  0  0  0
  1  4  2  3
  3  9  1  0
  3 19  1  0
  5  6  1  0
  6 13  1  0
  7 11  1  0
  7 17  1  0
  8 19  2  0
 10  4  1  0
 10  5  1  0
 11  3  1  0
 12 18  2  0
 12 17  1  0
 13 14  1  0
 13  7  2  0
 14  2  1  0
 14 12  1  0
 15  5  2  0
 16 11  2  0
 17  8  1  0
  1 20  1  0
  1 21  1  0
  2 22  1  0
  2 23  1  0
  2 24  1  0
  3 25  1  0
  6 26  1  0
  6 27  1  0
  8 28  1  0
  9 29  1  0
 10 30  1  0
 14 31  1  0
 17 32  1  0
 19 33  1  0
M  END
>  <mol_id>  (32) 
2026-09-18-3war-s0-n100-refligand-seed1-0032

>  <rmsd_to_ref>  (32) 


$$$$

     RDKit          3D

 23 25  0  0  0  0  0  0  0  0999 V2000
    2.7720   18.8350   38.2540 C   0  0  0  0  0  0  0  0  0  0  0  0
    3.0480   17.4810   38.2350 C   0  0  0  0  0  0  0  0  0  0  0  0
    2.0180   19.2100   39.2850 C   0  0  0  0  0  0  0  0  0  0  0  0
    2.3910   20.9540   37.9290 O   0  0  0  0  0  0  0  0  0  0  0  0
    1.7150   18.6320   40.3240 C   0  0  0  0  0  0  0  0  0  0  0  0
    1.1880   21.2870   39.9670 C   0  0  0  0  0  0  0  0  0  0  0  0
    3.0300   19.8070   37.3780 C   0  0  0  0  0  0  0  0  0  0  0  0
    2.7750   15.3940   38.9930 N   0  0  0  0  0  0  0  0  0  0  0  0
    0.4620   21.5030   42.1480 O   0  0  0  0  0  0  0  0  0  0  0  0
    1.9650   17.2290   40.2680 C   0  0  0  0  0  0  0  0  0  0  0  0
    2.5860   16.6150   39.2250 C   0  0  0  0  0  0  0  0  0  0  0  0
    1.1270   19.2800   41.3540 C   0  0  0  0  0  0  0  0  0  0  0  0
    1.8450   20.6050   39.0620 C   0  0  0  0  0  0  0  0  0  0  0  0
    3.4740   14.8210   38.1910 C   0  0  0  0  0  0  0  0  0  0  0  0
    3.7940   19.9430   36.3200 O   0  0  0  0  0  0  0  0  0  0  0  0
    0.9250   20.6800   41.1840 C   0  0  0  0  0  0  0  0  0  0  0  0
    3.6523   17.0730   37.4114 H   0  0  0  0  0  0  0  0  0  0  0  0
    0.8537   22.3154   39.7657 H   0  0  0  0  0  0  0  0  0  0  0  0
    0.2506   21.1438   43.0460 H   0  0  0  0  0  0  0  0  0  0  0  0
    1.6374   16.6089   41.1154 H   0  0  0  0  0  0  0  0  0  0  0  0
    0.8216   18.7561   42.2717 H   0  0  0  0  0  0  0  0  0  0  0  0
    3.4877   13.7215   38.1598 H   0  0  0  0  0  0  0  0  0  0  0  0
    4.0966   15.3989   37.4921 H   0  0  0  0  0  0  0  0  0  0  0  0
  1  3  1  0
  2  1  2  0
  2 11  1  0
  3  5  2  0
  4 13  1  0
  5 12  1  0
  6 16  1  0
  7  4  1  0
  7  1  1  0
  8 11  1  0
 10  5  1  0
 11 10  2  0
 13  3  1  0
 13  6  2  0
 14  8  2  3
 15  7  2  0
 16 12  2  0
 16  9  1  0
  2 17  1  0
  6 18  1  0
  9 19  1  0
 10 20  1  0
 12 21  1  0
 14 22  1  0
 14 23  1  0
M  END
>  <mol_id>  (33) 
2026-09-18-3war-s0-n100-refligand-seed1-0033

>  <rmsd_to_ref>  (33) 


$$$$

     RDKit          3D

 56 59  0  0  0  0  0  0  0  0999 V2000
    1.9250   19.1230   38.5970 C   0  0  0  0  0  0  0  0  0  0  0  0
    1.8920   13.2810   41.2110 O   0  0  0  0  0  0  0  0  0  0  0  0
    3.2050   16.1940   39.1850 C   0  0  0  0  0  0  0  0  0  0  0  0
    3.3830   14.7480   37.1450 C   0  0  0  0  0  0  0  0  0  0  0  0
    3.2460   18.9710   36.5030 C   0  0  0  0  0  0  0  0  0  0  0  0
    3.2540   14.8210   38.4590 C   0  0  0  0  0  0  0  0  0  0  0  0
    2.0770   16.4380   38.3900 O   0  0  0  0  0  0  0  0  0  0  0  0
    0.8970   20.6110   40.7300 C   0  0  0  0  0  0  0  0  0  0  0  0
    4.3540   15.4810   36.8440 O   0  0  0  0  0  0  0  0  0  0  0  0
    1.1550   19.2170   40.6830 C   0  0  0  0  0  0  0  0  0  0  0  0
    2.3840   17.0350   37.1910 N   0  0  0  0  0  0  0  0  0  0  0  0
   -0.4860   21.7150   45.3570 C   0  0  0  0  0  0  0  0  0  0  0  0
    3.1680   20.4100   36.3560 C   0  0  0  0  0  0  0  0  0  0  0  0
    2.5380   21.0980   37.3020 C   0  0  0  0  0  0  0  0  0  0  0  0
    3.8240   21.1880   35.4030 O   0  0  0  0  0  0  0  0  0  0  0  0
    1.1500   18.8300   41.7060 C   0  0  0  0  0  0  0  0  0  0  0  0
    2.8000   13.8940   39.4070 C   0  0  0  0  0  0  0  0  0  0  0  0
   -1.1990   22.8730   42.2160 O   0  0  0  0  0  0  0  0  0  0  0  0
    0.4240   18.2090   43.0790 C   0  0  0  0  0  0  0  0  0  0  0  0
    1.4780   18.4570   39.6930 N   0  0  0  0  0  0  0  0  0  0  0  0
    0.2530   20.9230   41.8450 C   0  0  0  0  0  0  0  0  0  0  0  0
   -0.4270   22.1450   42.2290 C   0  0  0  0  0  0  0  0  0  0  0  0
    2.2810   14.4760   40.4670 O   0  0  0  0  0  0  0  0  0  0  0  0
   -0.2310   20.3950   43.8240 N   0  0  0  0  0  4  0  0  0  0  0  0
    2.0210   20.4330   38.4410 C   0  0  0  0  0  0  0  0  0  0  0  0
    0.3690   19.6990   42.6650 C   0  0  0  0  0  0  0  0  0  0  0  0
   -0.9860   19.3850   45.6570 C   0  0  0  0  0  0  0  0  0  0  0  0
    1.4100   21.1530   39.5670 C   0  0  0  0  0  0  0  0  0  0  0  0
    2.5410   18.3510   37.3330 C   0  0  0  0  0  0  0  0  0  0  0  0
   -0.8420   20.6560   44.9060 C   0  0  0  0  0  0  0  0  0  0  0  0
    1.9513   13.4631   42.1823 H   0  0  0  0  0  0  0  0  0  0  0  0
    3.0131   16.1446   40.2670 H   0  0  0  0  0  0  0  0  0  0  0  0
    4.0649   16.8784   39.2311 H   0  0  0  0  0  0  0  0  0  0  0  0
    3.5806   13.7100   36.8391 H   0  0  0  0  0  0  0  0  0  0  0  0
    2.4642   15.0735   36.6352 H   0  0  0  0  0  0  0  0  0  0  0  0
    3.9442   18.4062   35.8677 H   0  0  0  0  0  0  0  0  0  0  0  0
    4.0839   14.2839   37.9765 H   0  0  0  0  0  0  0  0  0  0  0  0
    4.7886   15.8091   37.6708 H   0  0  0  0  0  0  0  0  0  0  0  0
   -0.5014   21.6693   46.4559 H   0  0  0  0  0  0  0  0  0  0  0  0
    0.5355   21.9351   45.0134 H   0  0  0  0  0  0  0  0  0  0  0  0
   -1.1671   22.5075   45.0134 H   0  0  0  0  0  0  0  0  0  0  0  0
    3.2482   21.8527   37.6710 H   0  0  0  0  0  0  0  0  0  0  0  0
    1.6338   21.4588   36.7900 H   0  0  0  0  0  0  0  0  0  0  0  0
    3.6980   22.1699   35.3937 H   0  0  0  0  0  0  0  0  0  0  0  0
    2.0066   18.3253   41.2353 H   0  0  0  0  0  0  0  0  0  0  0  0
    2.0323   13.2588   38.9409 H   0  0  0  0  0  0  0  0  0  0  0  0
    3.6653   13.3013   39.7388 H   0  0  0  0  0  0  0  0  0  0  0  0
   -0.4694   17.5718   43.0021 H   0  0  0  0  0  0  0  0  0  0  0  0
    0.7393   17.6336   43.9619 H   0  0  0  0  0  0  0  0  0  0  0  0
   -0.7906   21.0439   43.2524 H   0  0  0  0  0  0  0  0  0  0  0  0
    0.5037   19.9617   44.4014 H   0  0  0  0  0  0  0  0  0  0  0  0
   -0.9625   19.5926   46.7370 H   0  0  0  0  0  0  0  0  0  0  0  0
   -1.9436   18.9110   45.3955 H   0  0  0  0  0  0  0  0  0  0  0  0
   -0.1587   18.7088   45.3955 H   0  0  0  0  0  0  0  0  0  0  0  0
    1.3547   22.2476   39.4734 H   0  0  0  0  0  0  0  0  0  0  0  0
   -1.9031   20.9425   44.8616 H   0  0  0  0  0  0  0  0  0  0  0  0
  1 20  1  0
  5 29  1  0
  6  4  1  0
  6  3  1  0
  6 17  1  0
  7  3  1  0
  8 21  1  0
  9  4  1  0
 10  8  1  0
 10 16  1  0
 11 29  2  3
 11  7  1  0
 13  5  2  0
 13 14  1  0
 14 25  1  0
 15 13  1  0
 16 26  1  0
 16 19  1  0
 17 23  1  0
 18 22  2  0
 20 10  2  0
 21 22  2  0
 21 26  1  0
 23  2  1  0
 24 30  1  0
 25  1  2  0
 25 28  1  0
 26 19  1  0
 26 24  1  0
 28  8  2  0
 29  1  1  0
 30 12  1  0
 30 27  1  0
  2 31  1  0
  3 32  1  0
  3 33  1  0
  4 34  1  0
  4 35  1  0
  5 36  1  0
  6 37  1  0
  9 38  1  0
 12 39  1  0
 12 40  1  0
 12 41  1  0
 14 42  1  0
 14 43  1  0
 15 44  1  0
 16 45  1  0
 17 46  1  0
 17 47  1  0
 19 48  1  0
 19 49  1  0
 24 50  1  0
 24 51  1  0
 27 52  1  0
 27 53  1  0
 27 54  1  0
 28 55  1  0
 30 56  1  0
M  CHG  1  24   1
M  END
>  <mol_id>  (34) 
2026-09-18-3war-s0-n100-refligand-seed1-0034

>  <rmsd_to_ref>  (34) 


$$$$

     RDKit          3D

 31 31  0  0  0  0  0  0  0  0999 V2000
    2.1100   18.9270   39.9870 C   0  0  0  0  0  0  0  0  0  0  0  0
    1.8110   20.7110   41.0110 O   0  0  0  0  0  0  0  0  0  0  0  0
    3.6180   17.1340   37.4200 C   0  0  0  0  0  0  0  0  0  0  0  0
    3.2090   18.4120   38.0550 C   0  0  0  0  0  0  0  0  0  0  0  0
    1.9030   21.0380   38.7570 C   0  0  0  0  0  0  0  0  0  0  0  0
    2.7420   16.9140   39.6470 O   0  0  0  0  0  0  0  0  0  0  0  0
    0.8500   21.2370   41.4610 C   0  0  0  0  0  0  0  0  0  0  0  0
    3.0670   19.4770   37.3840 C   0  0  0  0  0  0  0  0  0  0  0  0
    2.6900   18.0300   39.1890 N   0  0  0  0  0  0  0  0  0  0  0  0
    1.8430   18.4200   41.1320 O   0  0  0  0  0  0  0  0  0  0  0  0
    0.6650   17.6950   41.3750 C   0  0  0  0  0  0  0  0  0  0  0  0
    2.2960   21.3710   36.4260 O   0  0  0  0  0  0  0  0  0  0  0  0
    2.3870   20.6570   37.4740 C   0  0  0  0  0  0  0  0  0  0  0  0
    1.9670   20.2230   39.8470 C   0  0  0  0  0  0  0  0  0  0  0  0
    1.5641   19.3009   39.1083 H   0  0  0  0  0  0  0  0  0  0  0  0
    3.8542   16.3958   38.2006 H   0  0  0  0  0  0  0  0  0  0  0  0
    2.7960   16.7558   36.7944 H   0  0  0  0  0  0  0  0  0  0  0  0
    4.5068   17.3033   36.7944 H   0  0  0  0  0  0  0  0  0  0  0  0
    3.8524   19.2709   38.2966 H   0  0  0  0  0  0  0  0  0  0  0  0
    0.8382   21.2777   38.6201 H   0  0  0  0  0  0  0  0  0  0  0  0
    2.6138   21.8307   39.0334 H   0  0  0  0  0  0  0  0  0  0  0  0
    2.7397   16.9627   40.6358 H   0  0  0  0  0  0  0  0  0  0  0  0
    0.8981   21.2106   42.5596 H   0  0  0  0  0  0  0  0  0  0  0  0
    0.8109   22.2823   41.1207 H   0  0  0  0  0  0  0  0  0  0  0  0
   -0.0516   20.7066   41.1207 H   0  0  0  0  0  0  0  0  0  0  0  0
    2.7178   19.0887   36.4159 H   0  0  0  0  0  0  0  0  0  0  0  0
    4.0026   19.9147   37.7623 H   0  0  0  0  0  0  0  0  0  0  0  0
    0.5103   17.5998   42.4599 H   0  0  0  0  0  0  0  0  0  0  0  0
   -0.1897   18.2236   40.9277 H   0  0  0  0  0  0  0  0  0  0  0  0
    0.7518   16.6938   40.9277 H   0  0  0  0  0  0  0  0  0  0  0  0
    0.8743   20.0994   39.8187 H   0  0  0  0  0  0  0  0  0  0  0  0
  1 10  1  0
  2  7  1  0
  4  3  1  0
  4  9  1  0
  5 14  1  0
  8 13  1  0
  8  4  1  0
  9  6  1  0
  9  1  1  0
 10 11  1  0
 12 13  2  0
 13  5  1  0
 14  1  1  0
 14  2  1  0
  1 15  1  0
  3 16  1  0
  3 17  1  0
  3 18  1  0
  4 19  1  0
  5 20  1  0
  5 21  1  0
  6 22  1  0
  7 23  1  0
  7 24  1  0
  7 25  1  0
  8 26  1  0
  8 27  1  0
 11 28  1  0
 11 29  1  0
 11 30  1  0
 14 31  1  0
M  END
>  <mol_id>  (35) 
2026-09-18-3war-s0-n100-refligand-seed1-0035

>  <rmsd_to_ref>  (35) 


$$$$

     RDKit          3D

 18 19  0  0  0  0  0  0  0  0999 V2000
    1.7570   19.0090   40.7290 O   0  0  0  0  0  0  0  0  0  0  0  0
    3.0410   16.1590   38.7840 C   0  0  0  0  0  0  0  0  0  0  0  0
    2.3320   21.1130   37.2140 O   0  0  0  0  0  0  0  0  0  0  0  0
    3.4310   17.0270   37.6800 C   0  0  0  0  0  0  0  0  0  0  0  0
    1.3940   20.2660   40.5850 C   0  0  0  0  0  0  0  0  0  0  0  0
    2.2270   18.2910   39.6440 C   0  0  0  0  0  0  0  0  0  0  0  0
    2.1450   20.4500   38.2840 C   0  0  0  0  0  0  0  0  0  0  0  0
    2.5500   19.0310   38.4250 C   0  0  0  0  0  0  0  0  0  0  0  0
    1.6300   21.0030   39.4600 C   0  0  0  0  0  0  0  0  0  0  0  0
    3.1270   18.2990   37.4730 N   0  0  0  0  0  0  0  0  0  0  0  0
    0.8360   20.9490   41.6970 N   0  0  0  0  0  0  0  0  0  0  0  0
    2.4630   16.9120   39.7920 C   0  0  0  0  0  0  0  0  0  0  0  0
    3.1844   15.0688   38.8122 H   0  0  0  0  0  0  0  0  0  0  0  0
    4.0660   16.5607   36.9123 H   0  0  0  0  0  0  0  0  0  0  0  0
    1.4049   22.0795   39.4800 H   0  0  0  0  0  0  0  0  0  0  0  0
    0.5458   21.9329   41.6044 H   0  0  0  0  0  0  0  0  0  0  0  0
    0.7213   20.4607   42.5966 H   0  0  0  0  0  0  0  0  0  0  0  0
    2.1808   16.4187   40.7338 H   0  0  0  0  0  0  0  0  0  0  0  0
  2 12  1  0
  3  7  2  0
  4  2  2  0
  5  1  1  0
  5 11  1  0
  6 12  2  0
  6  1  1  0
  7  8  1  0
  7  9  1  0
  8  6  1  0
  9  5  2  0
 10  4  1  0
 10  8  2  0
  2 13  1  0
  4 14  1  0
  9 15  1  0
 11 16  1  0
 11 17  1  0
 12 18  1  0
M  END
>  <mol_id>  (36) 
2026-09-18-3war-s0-n100-refligand-seed1-0036

>  <rmsd_to_ref>  (36) 


$$$$

     RDKit          3D

 46 48  0  0  0  0  0  0  0  0999 V2000
    3.3910   15.2830   36.9620 N   0  0  0  0  0  4  0  0  0  0  0  0
    2.1360   16.4540   39.9710 N   0  0  0  0  0  0  0  0  0  0  0  0
    0.9340   20.8880   41.3820 C   0  0  0  0  0  0  0  0  0  0  0  0
    2.0660   18.6530   39.5590 C   0  0  0  0  0  0  0  0  0  0  0  0
   -1.0570   19.9870   43.2540 C   0  0  0  0  0  0  0  0  0  0  0  0
    3.3500   17.5080   38.0120 C   0  0  0  0  0  0  0  0  0  0  0  0
    0.1410   14.8790   41.4260 C   0  0  0  0  0  0  0  0  0  0  0  0
   -0.6070   21.2870   43.2430 O   0  0  0  0  0  0  0  0  0  0  0  0
   -0.4500   21.5170   41.9700 C   0  0  0  0  0  0  0  0  0  0  0  0
    2.9240   19.7240   37.5340 C   0  0  0  0  0  0  0  0  0  0  0  0
    0.2140   19.2130   42.7830 C   0  0  0  0  0  0  0  0  0  0  0  0
    0.9290   16.0750   42.0190 C   0  0  0  0  0  0  0  0  0  0  0  0
    1.3260   18.4030   40.8140 C   0  0  0  0  0  0  0  0  0  0  0  0
    2.2160   19.7740   38.7910 N   0  0  0  0  0  0  0  0  0  0  0  0
    2.9380   20.6790   36.7760 O   0  0  0  0  0  0  0  0  0  0  0  0
    2.5850   17.4900   39.1290 C   0  0  0  0  0  0  0  0  0  0  0  0
    0.1110   16.5990   43.1920 C   0  0  0  0  0  0  0  0  0  0  0  0
    3.4650   18.5880   37.2500 N   0  0  0  0  0  0  0  0  0  0  0  0
    1.4140   17.0420   41.0610 N   0  0  0  0  0  0  0  0  0  0  0  0
    0.6040   19.5440   41.5550 C   0  0  0  0  0  0  0  0  0  0  0  0
    3.4140   13.9850   37.3610 C   0  0  0  0  0  0  0  0  0  0  0  0
    4.0720   16.3580   37.6860 C   0  0  0  0  0  0  0  0  0  0  0  0
    3.7816   15.2926   36.0090 H   0  0  0  0  0  0  0  0  0  0  0  0
    2.4026   15.5265   37.1192 H   0  0  0  0  0  0  0  0  0  0  0  0
    1.8137   21.1836   41.9726 H   0  0  0  0  0  0  0  0  0  0  0  0
    1.2187   21.1956   40.3650 H   0  0  0  0  0  0  0  0  0  0  0  0
   -1.3650   19.6770   44.2635 H   0  0  0  0  0  0  0  0  0  0  0  0
   -1.9446   19.8146   42.6275 H   0  0  0  0  0  0  0  0  0  0  0  0
   -0.2637   14.2648   42.2439 H   0  0  0  0  0  0  0  0  0  0  0  0
   -0.6862   15.2559   40.8066 H   0  0  0  0  0  0  0  0  0  0  0  0
    0.8137   14.2676   40.8066 H   0  0  0  0  0  0  0  0  0  0  0  0
   -0.4386   22.6049   41.8079 H   0  0  0  0  0  0  0  0  0  0  0  0
   -1.2849   21.0350   41.4403 H   0  0  0  0  0  0  0  0  0  0  0  0
    1.0352   19.4315   43.4814 H   0  0  0  0  0  0  0  0  0  0  0  0
   -0.0417   18.1432   42.7676 H   0  0  0  0  0  0  0  0  0  0  0  0
    1.9065   15.7421   42.3982 H   0  0  0  0  0  0  0  0  0  0  0  0
    1.8180   20.6674   39.1140 H   0  0  0  0  0  0  0  0  0  0  0  0
    0.5866   16.2943   44.1359 H   0  0  0  0  0  0  0  0  0  0  0  0
    0.0622   17.6969   43.1437 H   0  0  0  0  0  0  0  0  0  0  0  0
   -0.9067   16.1843   43.1437 H   0  0  0  0  0  0  0  0  0  0  0  0
   -0.2659   19.5988   40.8840 H   0  0  0  0  0  0  0  0  0  0  0  0
    3.4148   13.9392   38.4600 H   0  0  0  0  0  0  0  0  0  0  0  0
    2.5249   13.4663   36.9731 H   0  0  0  0  0  0  0  0  0  0  0  0
    4.3209   13.4982   36.9731 H   0  0  0  0  0  0  0  0  0  0  0  0
    4.4420   15.9296   38.6291 H   0  0  0  0  0  0  0  0  0  0  0  0
    4.8367   16.7135   36.9798 H   0  0  0  0  0  0  0  0  0  0  0  0
  1 21  1  0
  1 22  1  0
  2 19  1  0
  3 20  1  0
  3  9  1  0
  4 13  2  0
  6 16  1  0
  7 12  1  0
  8  5  1  0
  9  8  1  0
 10 14  1  0
 11  5  1  0
 12 17  1  0
 13 19  1  0
 13 20  1  0
 14  4  1  0
 15 10  2  0
 16  4  1  0
 16  2  2  0
 18 10  1  0
 18  6  2  0
 19 12  1  0
 20 11  1  0
 22  6  1  0
  1 23  1  0
  1 24  1  0
  3 25  1  0
  3 26  1  0
  5 27  1  0
  5 28  1  0
  7 29  1  0
  7 30  1  0
  7 31  1  0
  9 32  1  0
  9 33  1  0
 11 34  1  0
 11 35  1  0
 12 36  1  0
 14 37  1  0
 17 38  1  0
 17 39  1  0
 17 40  1  0
 20 41  1  0
 21 42  1  0
 21 43  1  0
 21 44  1  0
 22 45  1  0
 22 46  1  0
M  CHG  1   1   1
M  END
>  <mol_id>  (37) 
2026-09-18-3war-s0-n100-refligand-seed1-0037

>  <rmsd_to_ref>  (37) 


$$$$

     RDKit          3D

 33 35  0  0  0  0  0  0  0  0999 V2000
    0.5050   21.8800   41.8820 N   0  0  0  0  0  0  0  0  0  0  0  0
    0.8020   20.5720   41.6380 C   0  0  0  0  0  0  0  0  0  0  0  0
    0.5280   19.5340   42.4530 C   0  0  0  0  0  0  0  0  0  0  0  0
    3.3730   14.3890   37.4230 C   0  0  0  0  0  0  0  0  0  0  0  0
    0.1320   17.9290   43.4660 C   0  0  0  0  0  0  0  0  0  0  0  0
    3.1630   16.7070   38.3740 C   0  0  0  0  0  0  0  0  0  0  0  0
    4.2620   14.9840   36.5360 O   0  0  0  0  0  0  0  0  0  0  0  0
    2.5610   18.5440   39.3550 C   0  0  0  0  0  0  0  0  0  0  0  0
    3.2990   17.6460   37.4220 N   0  0  0  0  0  0  0  0  0  0  0  0
    2.5950   20.1460   37.4880 C   0  0  0  0  0  0  0  0  0  0  0  0
    2.9820   20.5680   36.3720 N   0  0  0  0  0  0  0  0  0  0  0  0
    2.8720   18.8480   37.9770 C   0  0  0  0  0  0  0  0  0  0  0  0
    0.7440   18.0930   42.3590 C   0  0  0  0  0  0  0  0  0  0  0  0
    1.5210   17.8930   41.1900 C   0  0  0  0  0  0  0  0  0  0  0  0
    2.0730   16.7980   40.5680 N   0  0  0  0  0  0  0  0  0  0  0  0
    2.7330   17.2890   39.4760 N   0  0  0  0  0  0  0  0  0  0  0  0
    1.4270   20.3340   40.5840 N   0  0  0  0  0  0  0  0  0  0  0  0
    1.8230   19.0380   40.3730 C   0  0  0  0  0  0  0  0  0  0  0  0
    3.0540   15.2380   38.3880 C   0  0  0  0  0  0  0  0  0  0  0  0
    0.7573   22.6026   41.1928 H   0  0  0  0  0  0  0  0  0  0  0  0
    0.0283   22.1456   42.7556 H   0  0  0  0  0  0  0  0  0  0  0  0
    0.0365   19.8374   43.3892 H   0  0  0  0  0  0  0  0  0  0  0  0
    3.8418   13.4969   37.8639 H   0  0  0  0  0  0  0  0  0  0  0  0
    2.4603   14.1033   36.8795 H   0  0  0  0  0  0  0  0  0  0  0  0
    0.8255   18.1148   44.2994 H   0  0  0  0  0  0  0  0  0  0  0  0
   -0.7111   18.6329   43.5266 H   0  0  0  0  0  0  0  0  0  0  0  0
   -0.2462   16.8978   43.5266 H   0  0  0  0  0  0  0  0  0  0  0  0
    4.0801   16.2687   37.9534 H   0  0  0  0  0  0  0  0  0  0  0  0
    4.9682   15.4567   37.0439 H   0  0  0  0  0  0  0  0  0  0  0  0
    2.0063   20.8244   38.1230 H   0  0  0  0  0  0  0  0  0  0  0  0
    2.7467   21.5253   36.0736 H   0  0  0  0  0  0  0  0  0  0  0  0
    1.9920   15.0392   38.5945 H   0  0  0  0  0  0  0  0  0  0  0  0
    3.8765   15.0163   39.0840 H   0  0  0  0  0  0  0  0  0  0  0  0
  2  1  1  0
  2  3  1  0
  4 19  1  0
  6 19  1  0
  6 16  1  0
  7  4  1  0
  8 16  1  0
  8 18  2  0
  9 12  2  0
  9  6  1  0
 10 12  1  0
 11 10  2  3
 12  8  1  0
 13  3  2  0
 13  5  1  0
 14 13  1  0
 15 14  2  0
 16 15  1  0
 17  2  2  0
 18 17  1  0
 18 14  1  0
  1 20  1  0
  1 21  1  0
  3 22  1  0
  4 23  1  0
  4 24  1  0
  5 25  1  0
  5 26  1  0
  5 27  1  0
  6 28  1  0
  7 29  1  0
 10 30  1  0
 11 31  1  0
 19 32  1  0
 19 33  1  0
M  END
>  <mol_id>  (38) 
2026-09-18-3war-s0-n100-refligand-seed1-0038

>  <rmsd_to_ref>  (38) 


$$$$

     RDKit          3D

 58 63  0  0  0  0  0  0  0  0999 V2000
    1.5500   11.8460   42.0090 C   0  0  0  0  0  0  0  0  0  0  0  0
    1.9100   19.9660   40.2580 C   0  0  0  0  0  0  0  0  0  0  0  0
    1.7440   20.3600   38.7530 C   0  0  0  0  0  0  0  0  0  0  0  0
    2.8960   21.3130   36.1830 C   0  0  0  0  0  0  0  0  0  0  0  0
    1.1590   14.2520   41.9230 C   0  0  0  0  0  0  0  0  0  0  0  0
    2.1880   16.0350   40.3610 C   0  0  0  0  0  0  0  0  0  0  0  0
    1.7610   13.0700   41.3650 C   0  0  0  0  0  0  0  0  0  0  0  0
    2.9390   20.1230   38.3540 C   0  0  0  0  0  0  0  0  0  0  0  0
    1.4240   15.4960   41.3860 N   0  0  0  0  0  0  0  0  0  0  0  0
    3.6390   16.6780   38.8080 N   0  0  0  0  0  0  0  0  0  0  0  0
    3.0520   17.8150   39.2890 C   0  0  0  0  0  0  0  0  0  0  0  0
    3.4900   21.5120   34.9780 N   0  0  0  0  0  4  0  0  0  0  0  0
    0.3200   19.2170   42.3330 C   0  0  0  0  0  0  0  0  0  0  0  0
   -0.3480   21.9340   42.2940 C   0  0  0  0  0  0  0  0  0  0  0  0
    0.5180   21.4700   41.3500 C   0  0  0  0  0  0  0  0  0  0  0  0
    0.2420   14.1800   43.0160 C   0  0  0  0  0  0  0  0  0  0  0  0
    0.8830   20.0830   41.3010 C   0  0  0  0  0  0  0  0  0  0  0  0
   -0.5380   19.7710   43.3340 C   0  0  0  0  0  0  0  0  0  0  0  0
   -0.8940   21.1300   43.2710 C   0  0  0  0  0  0  0  0  0  0  0  0
    1.5630   21.7520   36.0540 C   0  0  0  0  0  0  0  0  0  0  0  0
    0.7450   11.7680   43.1410 C   0  0  0  0  0  0  0  0  0  0  0  0
    2.1290   17.4000   40.2170 C   0  0  0  0  0  0  0  0  0  0  0  0
    1.6870   18.4260   40.6260 O   0  0  0  0  0  0  0  0  0  0  0  0
    2.6760   22.5200   34.3190 C   0  0  0  0  0  0  0  0  0  0  0  0
    3.3920   19.1170   39.5210 S   0  0  0  0  0  4  0  0  0  0  0  0
    3.2220   20.0720   36.9000 C   0  0  0  0  0  0  0  0  0  0  0  0
    0.0840   12.9070   43.6340 C   0  0  0  0  0  0  0  0  0  0  0  0
    3.0270   15.5970   39.3300 N   0  0  0  0  0  0  0  0  0  0  0  0
    1.4580   22.5210   34.8900 N   0  0  0  0  0  4  0  0  0  0  0  0
    2.0258   10.9354   41.6160 H   0  0  0  0  0  0  0  0  0  0  0  0
    1.0042   19.7281   38.2398 H   0  0  0  0  0  0  0  0  0  0  0  0
    1.3752   21.3796   38.5673 H   0  0  0  0  0  0  0  0  0  0  0  0
    3.3548   21.9312   36.9687 H   0  0  0  0  0  0  0  0  0  0  0  0
    2.3731   13.1275   40.4529 H   0  0  0  0  0  0  0  0  0  0  0  0
    3.6999   20.9117   38.2597 H   0  0  0  0  0  0  0  0  0  0  0  0
    0.9085   16.2325   41.8887 H   0  0  0  0  0  0  0  0  0  0  0  0
    4.4287   16.6516   38.1473 H   0  0  0  0  0  0  0  0  0  0  0  0
    3.0391   18.1926   38.2559 H   0  0  0  0  0  0  0  0  0  0  0  0
    4.4550   21.8501   35.1016 H   0  0  0  0  0  0  0  0  0  0  0  0
    3.5500   20.6431   34.4281 H   0  0  0  0  0  0  0  0  0  0  0  0
    0.5550   18.1424   42.3405 H   0  0  0  0  0  0  0  0  0  0  0  0
   -0.6238   22.9987   42.2754 H   0  0  0  0  0  0  0  0  0  0  0  0
    0.9436   22.1687   40.6147 H   0  0  0  0  0  0  0  0  0  0  0  0
   -0.3140   15.0635   43.3627 H   0  0  0  0  0  0  0  0  0  0  0  0
   -0.9176   19.1373   44.1491 H   0  0  0  0  0  0  0  0  0  0  0  0
   -1.6049   21.5493   43.9982 H   0  0  0  0  0  0  0  0  0  0  0  0
    0.8915   20.8834   35.9863 H   0  0  0  0  0  0  0  0  0  0  0  0
    1.2788   22.3541   36.9296 H   0  0  0  0  0  0  0  0  0  0  0  0
    0.6242   10.8038   43.6565 H   0  0  0  0  0  0  0  0  0  0  0  0
    1.3800   17.2835   39.4199 H   0  0  0  0  0  0  0  0  0  0  0  0
    2.5846   22.2825   33.2489 H   0  0  0  0  0  0  0  0  0  0  0  0
    3.1432   23.5105   34.4226 H   0  0  0  0  0  0  0  0  0  0  0  0
    4.6687   18.9926   40.0021 H   0  0  0  0  0  0  0  0  0  0  0  0
    2.6318   19.2540   36.4613 H   0  0  0  0  0  0  0  0  0  0  0  0
    4.3058   19.9178   36.7922 H   0  0  0  0  0  0  0  0  0  0  0  0
   -0.5682   12.8127   44.5147 H   0  0  0  0  0  0  0  0  0  0  0  0
    1.1757   23.4835   35.1240 H   0  0  0  0  0  0  0  0  0  0  0  0
    0.7477   22.1348   34.2519 H   0  0  0  0  0  0  0  0  0  0  0  0
  1 21  2  0
  2 23  1  0
  2 17  1  0
  3  2  1  0
  4 26  1  0
  5 16  1  0
  6  9  1  0
  7  5  2  0
  7  1  1  0
  8 26  1  0
  8  3  1  0
  8 25  1  0
  9  5  1  0
 10 28  1  0
 11 10  1  0
 11 25  1  0
 11 22  1  0
 12  4  1  0
 13 18  2  0
 14 19  2  0
 15 14  1  0
 16 27  2  0
 17 15  2  0
 17 13  1  0
 19 18  1  0
 20  4  1  0
 21 27  1  0
 22  6  1  0
 22 23  1  0
 24 29  1  0
 24 12  1  0
 25  2  1  0
 28  6  2  0
 29 20  1  0
  1 30  1  0
  3 31  1  0
  3 32  1  0
  4 33  1  0
  7 34  1  0
  8 35  1  0
  9 36  1  0
 10 37  1  0
 11 38  1  0
 12 39  1  0
 12 40  1  0
 13 41  1  0
 14 42  1  0
 15 43  1  0
 16 44  1  0
 18 45  1  0
 19 46  1  0
 20 47  1  0
 20 48  1  0
 21 49  1  0
 22 50  1  0
 24 51  1  0
 24 52  1  0
 25 53  1  0
 26 54  1  0
 26 55  1  0
 27 56  1  0
 29 57  1  0
 29 58  1  0
M  CHG  2  12   1  29   1
M  END
>  <mol_id>  (39) 
2026-09-18-3war-s0-n100-refligand-seed1-0039

>  <rmsd_to_ref>  (39) 


$$$$

     RDKit          3D

 47 51  0  0  0  0  0  0  0  0999 V2000
    1.2040   19.7920   41.3300 C   0  0  0  0  0  0  0  0  0  0  0  0
    0.7840   17.1370   41.7970 C   0  0  0  0  0  0  0  0  0  0  0  0
    2.1390   17.4240   40.1810 C   0  0  0  0  0  0  0  0  0  0  0  0
    2.0630   15.2440   40.8810 N   0  0  0  0  0  0  0  0  0  0  0  0
    1.6920   16.5790   41.0620 N   0  0  0  0  0  0  0  0  0  0  0  0
    3.0670   13.8460   39.3600 N   0  0  0  0  0  0  0  0  0  0  0  0
    2.4350   20.6600   37.3040 C   0  0  0  0  0  0  0  0  0  0  0  0
    0.9980   17.2640   43.0810 C   0  0  0  0  0  0  0  0  0  0  0  0
    2.6300   19.4830   38.3470 C   0  0  0  0  0  0  0  0  0  0  0  0
    1.0830   21.0450   40.6480 C   0  0  0  0  0  0  0  0  0  0  0  0
    3.7380   17.0570   37.0420 N   0  0  0  0  0  0  0  0  0  0  0  0
    2.8460   20.7630   35.9220 C   0  0  0  0  0  0  0  0  0  0  0  0
    1.9070   18.9050   40.2800 N   0  0  0  0  0  0  0  0  0  0  0  0
   -0.2080   17.9370   43.9360 C   0  0  0  0  0  0  0  0  0  0  0  0
    3.0110   16.4020   39.1660 C   0  0  0  0  0  0  0  0  0  0  0  0
    3.1590   21.9930   35.1390 C   0  0  0  0  0  0  0  0  0  0  0  0
    3.6880   18.0870   36.8850 N   0  0  0  0  0  0  0  0  0  0  0  0
    3.3850   15.9160   37.9140 C   0  0  0  0  0  0  0  0  0  0  0  0
    0.4150   19.6950   42.3750 O   0  0  0  0  0  0  0  0  0  0  0  0
    2.7150   15.0900   39.8900 C   0  0  0  0  0  0  0  0  0  0  0  0
    1.9040   21.6380   38.2150 C   0  0  0  0  0  0  0  0  0  0  0  0
    3.6400   13.6780   38.2050 C   0  0  0  0  0  0  0  0  0  0  0  0
    0.6180   22.0340   41.2340 F   0  0  0  0  0  0  0  0  0  0  0  0
    3.7250   14.7210   37.3550 C   0  0  0  0  0  0  0  0  0  0  0  0
    1.6760   20.9740   39.4340 C   0  0  0  0  0  0  0  0  0  0  0  0
    2.1000   19.6780   39.3320 N   0  0  0  0  0  0  0  0  0  0  0  0
    3.5000   18.4270   38.2000 O   0  0  0  0  0  0  0  0  0  0  0  0
   -0.1530   17.4987   41.3485 H   0  0  0  0  0  0  0  0  0  0  0  0
    3.0703   17.5314   40.7565 H   0  0  0  0  0  0  0  0  0  0  0  0
    2.3107   20.6322   36.2114 H   0  0  0  0  0  0  0  0  0  0  0  0
    1.9360   16.9356   43.5524 H   0  0  0  0  0  0  0  0  0  0  0  0
    2.3770   18.6048   37.7349 H   0  0  0  0  0  0  0  0  0  0  0  0
    4.2586   16.6649   36.2444 H   0  0  0  0  0  0  0  0  0  0  0  0
    3.7605   20.1549   35.8593 H   0  0  0  0  0  0  0  0  0  0  0  0
    1.8866   20.5086   35.4479 H   0  0  0  0  0  0  0  0  0  0  0  0
   -0.0035   17.8229   45.0108 H   0  0  0  0  0  0  0  0  0  0  0  0
   -0.2809   19.0062   43.6881 H   0  0  0  0  0  0  0  0  0  0  0  0
   -1.1563   17.4376   43.6881 H   0  0  0  0  0  0  0  0  0  0  0  0
    3.6464   17.2626   38.9099 H   0  0  0  0  0  0  0  0  0  0  0  0
    3.3702   22.8231   35.8291 H   0  0  0  0  0  0  0  0  0  0  0  0
    4.0392   21.8101   34.5052 H   0  0  0  0  0  0  0  0  0  0  0  0
    2.2984   22.2531   34.5052 H   0  0  0  0  0  0  0  0  0  0  0  0
    4.5603   18.4724   36.4957 H   0  0  0  0  0  0  0  0  0  0  0  0
    2.6268   22.4548   38.3578 H   0  0  0  0  0  0  0  0  0  0  0  0
    0.9746   22.0784   37.8247 H   0  0  0  0  0  0  0  0  0  0  0  0
    4.0505   12.6967   37.9248 H   0  0  0  0  0  0  0  0  0  0  0  0
    4.0400   14.6167   36.3062 H   0  0  0  0  0  0  0  0  0  0  0  0
  1 19  2  0
  2  8  2  3
  3 13  1  0
  3  5  1  0
  4  5  1  0
  5  2  1  0
  6 20  1  0
  7 12  1  0
  7 21  1  0
  7  9  1  0
  8 14  1  0
  9 27  1  0
  9 26  1  0
 10 23  1  0
 10  1  1  0
 11 18  1  0
 13  1  1  0
 15 18  1  0
 15 20  1  0
 15  3  1  0
 16 12  1  0
 17 11  1  0
 17 27  1  0
 20  4  2  0
 21 25  1  0
 22  6  2  0
 24 18  2  0
 24 22  1  0
 25 10  2  0
 26 25  1  0
 26 13  1  0
  2 28  1  0
  3 29  1  0
  7 30  1  0
  8 31  1  0
  9 32  1  0
 11 33  1  0
 12 34  1  0
 12 35  1  0
 14 36  1  0
 14 37  1  0
 14 38  1  0
 15 39  1  0
 16 40  1  0
 16 41  1  0
 16 42  1  0
 17 43  1  0
 21 44  1  0
 21 45  1  0
 22 46  1  0
 24 47  1  0
M  END
>  <mol_id>  (40) 
2026-09-18-3war-s0-n100-refligand-seed1-0040

>  <rmsd_to_ref>  (40) 


$$$$

     RDKit          3D

 15 16  0  0  0  0  0  0  0  0999 V2000
    1.9720   19.2220   39.6330 C   0  0  0  0  0  0  0  0  0  0  0  0
    1.1270   21.4080   40.1780 N   0  0  0  0  0  0  0  0  0  0  0  0
    3.0720   16.4810   38.9400 O   0  0  0  0  0  1  0  0  0  0  0  0
    3.2410   17.3800   38.1120 C   0  0  0  0  0  0  0  0  0  0  0  0
    3.8570   17.2910   36.8860 O   0  0  0  0  0  0  0  0  0  0  0  0
    2.6640   18.7790   38.4310 C   0  0  0  0  0  0  0  0  0  0  0  0
    2.2720   20.7670   38.0300 N   0  0  0  0  0  0  0  0  0  0  0  0
    2.8530   19.7260   37.4960 N   0  0  0  0  0  0  0  0  0  0  0  0
    0.8440   20.6380   41.2680 C   0  0  0  0  0  0  0  0  0  0  0  0
    1.7960   20.6220   39.2760 C   0  0  0  0  0  0  0  0  0  0  0  0
    1.2410   19.1740   41.2190 S   0  0  0  0  0  0  0  0  0  0  0  0
    1.0085   18.9447   39.1805 H   0  0  0  0  0  0  0  0  0  0  0  0
    2.1835   21.6568   37.5188 H   0  0  0  0  0  0  0  0  0  0  0  0
    1.3563   21.0887   42.1308 H   0  0  0  0  0  0  0  0  0  0  0  0
   -0.2546   20.6268   41.3232 H   0  0  0  0  0  0  0  0  0  0  0  0
  1  6  1  0
  1 11  1  0
  2  9  1  0
  4  6  1  0
  4  3  1  0
  5  4  2  0
  7 10  1  0
  8  7  1  0
  8  6  2  0
 10  1  1  0
 10  2  2  0
 11  9  1  0
  1 12  1  0
  7 13  1  0
  9 14  1  0
  9 15  1  0
M  CHG  1   3  -1
M  END
>  <mol_id>  (41) 
2026-09-18-3war-s0-n100-refligand-seed1-0041

>  <rmsd_to_ref>  (41) 


$$$$

     RDKit          3D

 25 27  0  0  0  0  0  0  0  0999 V2000
    3.6360   18.4120   36.4770 O   0  0  0  0  0  0  0  0  0  0  0  0
    2.3820   16.9870   40.3820 N   0  0  0  0  0  0  0  0  0  0  0  0
    1.7540   18.2300   40.7280 C   0  0  0  0  0  0  0  0  0  0  0  0
    3.6030   16.2680   38.4710 O   0  0  0  0  0  0  0  0  0  0  0  0
    2.7230   20.4250   37.2990 C   0  0  0  0  0  0  0  0  0  0  0  0
    0.6240   19.9510   41.7420 C   0  0  0  0  0  0  0  0  0  0  0  0
    1.6690   20.2960   39.5140 C   0  0  0  0  0  0  0  0  0  0  0  0
    2.9950   19.0380   37.5210 C   0  0  0  0  0  0  0  0  0  0  0  0
    2.0530   21.0550   38.3920 C   0  0  0  0  0  0  0  0  0  0  0  0
    0.9320   20.7950   40.6810 C   0  0  0  0  0  0  0  0  0  0  0  0
    2.9800   17.0590   39.0860 C   0  0  0  0  0  0  0  0  0  0  0  0
    1.1570   18.6500   41.8300 C   0  0  0  0  0  0  0  0  0  0  0  0
    3.0760   21.0670   36.1420 O   0  0  0  0  0  0  0  0  0  0  0  0
    2.7180   18.3650   38.6410 C   0  0  0  0  0  0  0  0  0  0  0  0
    2.0280   19.0010   39.6300 C   0  0  0  0  0  0  0  0  0  0  0  0
    2.0530   15.6230   40.8550 C   0  0  0  0  0  0  0  0  0  0  0  0
    3.8649   17.4510   36.5415 H   0  0  0  0  0  0  0  0  0  0  0  0
   -0.0527   20.3080   42.5324 H   0  0  0  0  0  0  0  0  0  0  0  0
    1.8371   22.1330   38.3571 H   0  0  0  0  0  0  0  0  0  0  0  0
    0.6197   21.8491   40.7166 H   0  0  0  0  0  0  0  0  0  0  0  0
    1.0826   18.0354   42.7392 H   0  0  0  0  0  0  0  0  0  0  0  0
    2.8699   22.0284   36.0267 H   0  0  0  0  0  0  0  0  0  0  0  0
    2.0492   15.6073   41.9549 H   0  0  0  0  0  0  0  0  0  0  0  0
    1.0596   15.3348   40.4808 H   0  0  0  0  0  0  0  0  0  0  0  0
    2.8058   14.9136   40.4808 H   0  0  0  0  0  0  0  0  0  0  0  0
  1  8  1  0
  2  3  1  0
  2 16  1  0
  3 12  2  0
  4 11  2  0
  5  8  1  0
  5  9  2  0
  6 12  1  0
  7 15  2  0
  7 10  1  0
  8 14  2  0
  9  7  1  0
 10  6  2  0
 11  2  1  0
 13  5  1  0
 14 11  1  0
 14 15  1  0
 15  3  1  0
  1 17  1  0
  6 18  1  0
  9 19  1  0
 10 20  1  0
 12 21  1  0
 13 22  1  0
 16 23  1  0
 16 24  1  0
 16 25  1  0
M  END
>  <mol_id>  (42) 
2026-09-18-3war-s0-n100-refligand-seed1-0042

>  <rmsd_to_ref>  (42) 


$$$$

     RDKit          3D

 34 36  0  0  0  0  0  0  0  0999 V2000
    3.1290   17.4730   37.8920 C   0  0  0  0  0  0  0  0  0  0  0  0
    2.7550   21.3300   38.4870 C   0  0  0  0  0  0  0  0  0  0  0  0
    2.5640   18.6650   38.5690 C   0  0  0  0  0  0  0  0  0  0  0  0
    0.1860   19.1410   42.6290 C   0  0  0  0  0  0  0  0  0  0  0  0
    0.6440   18.1630   41.9290 C   0  0  0  0  0  0  0  0  0  0  0  0
    2.3080   15.7310   39.6120 C   0  0  0  0  0  0  0  0  0  0  0  0
    3.6260   15.1690   37.6390 C   0  0  0  0  0  0  0  0  0  0  0  0
    3.0630   19.9750   36.5200 O   0  0  0  0  0  0  0  0  0  0  0  0
    2.9240   19.9310   37.7440 C   0  0  0  0  0  0  0  0  0  0  0  0
    1.8070   18.8870   39.8010 C   0  0  0  0  0  0  0  0  0  0  0  0
    3.8410   17.6140   36.8540 O   0  0  0  0  0  0  0  0  0  0  0  0
    0.7870   20.8680   41.2380 C   0  0  0  0  0  0  0  0  0  0  0  0
    1.3980   17.7930   40.7150 C   0  0  0  0  0  0  0  0  0  0  0  0
    0.1830   20.5190   42.3070 C   0  0  0  0  0  0  0  0  0  0  0  0
    1.3190   20.2340   40.1730 C   0  0  0  0  0  0  0  0  0  0  0  0
    1.6440   16.4490   40.5620 C   0  0  0  0  0  0  0  0  0  0  0  0
    1.3900   21.2710   39.1180 C   0  0  0  0  0  0  0  0  0  0  0  0
    2.9600   16.1670   38.4230 C   0  0  0  0  0  0  0  0  0  0  0  0
    2.8131   22.1599   37.7674 H   0  0  0  0  0  0  0  0  0  0  0  0
    3.5475   21.5026   39.2300 H   0  0  0  0  0  0  0  0  0  0  0  0
    3.4933   18.7773   39.1468 H   0  0  0  0  0  0  0  0  0  0  0  0
   -0.2586   18.8723   43.5986 H   0  0  0  0  0  0  0  0  0  0  0  0
    0.3604   17.2305   42.4389 H   0  0  0  0  0  0  0  0  0  0  0  0
    2.3461   14.6464   39.7917 H   0  0  0  0  0  0  0  0  0  0  0  0
    4.1113   14.4418   38.3066 H   0  0  0  0  0  0  0  0  0  0  0  0
    2.8919   14.6511   37.0043 H   0  0  0  0  0  0  0  0  0  0  0  0
    4.3860   15.6482   37.0043 H   0  0  0  0  0  0  0  0  0  0  0  0
    0.9026   21.9596   41.1677 H   0  0  0  0  0  0  0  0  0  0  0  0
    0.6538   21.0558   43.1438 H   0  0  0  0  0  0  0  0  0  0  0  0
   -0.8739   20.7675   42.1305 H   0  0  0  0  0  0  0  0  0  0  0  0
    1.2207   15.8295   41.3664 H   0  0  0  0  0  0  0  0  0  0  0  0
    1.1609   22.2499   39.5643 H   0  0  0  0  0  0  0  0  0  0  0  0
    0.6610   21.0145   38.3352 H   0  0  0  0  0  0  0  0  0  0  0  0
    2.0518   16.0377   37.8160 H   0  0  0  0  0  0  0  0  0  0  0  0
  1 18  1  0
  1  3  1  0
  2 17  1  0
  3  9  1  0
  3 10  1  0
  5  4  2  0
  6 16  2  0
  8  9  2  0
  9  2  1  0
 10 15  1  0
 10 13  2  0
 11  1  2  0
 12 14  1  0
 13  5  1  0
 14  4  1  0
 15 12  2  0
 16 13  1  0
 17 15  1  0
 18  7  1  0
 18  6  1  0
  2 19  1  0
  2 20  1  0
  3 21  1  0
  4 22  1  0
  5 23  1  0
  6 24  1  0
  7 25  1  0
  7 26  1  0
  7 27  1  0
 12 28  1  0
 14 29  1  0
 14 30  1  0
 16 31  1  0
 17 32  1  0
 17 33  1  0
 18 34  1  0
M  END
>  <mol_id>  (43) 
2026-09-18-3war-s0-n100-refligand-seed1-0043

>  <rmsd_to_ref>  (43) 


$$$$

     RDKit          3D

 19 18  0  0  0  0  0  0  0  0999 V2000
    0.7540   20.6270   40.8140 C   0  0  0  0  0  0  0  0  0  0  0  0
    3.0790   19.4390   37.9330 C   0  0  0  0  0  0  0  0  0  0  0  0
    1.4000   21.5110   39.3140 N   0  0  0  0  0  0  0  0  0  0  0  0
    4.4480   19.8520   37.9050 F   0  0  0  0  0  0  0  0  0  0  0  0
    2.6350   20.6690   37.1210 F   0  0  0  0  0  0  0  0  0  0  0  0
    2.2940   18.6510   40.1510 C   0  0  0  0  0  0  0  0  0  0  0  0
    3.4940   17.7600   38.2500 F   0  0  0  0  0  0  0  0  0  0  0  0
    1.4500   18.8720   41.0980 C   0  0  0  0  0  0  0  0  0  0  0  0
    1.6670   20.4410   39.7690 C   0  0  0  0  0  0  0  0  0  0  0  0
    2.9630   18.3920   36.9870 F   0  0  0  0  0  0  0  0  0  0  0  0
    2.2750   19.5020   39.2520 C   0  0  0  0  0  0  0  0  0  0  0  0
    0.6560   19.5100   41.5790 C   0  0  0  0  0  0  0  0  0  0  0  0
    0.1909   21.5551   40.9915 H   0  0  0  0  0  0  0  0  0  0  0  0
    1.8704   21.8387   38.4583 H   0  0  0  0  0  0  0  0  0  0  0  0
    0.6990   22.1071   39.7768 H   0  0  0  0  0  0  0  0  0  0  0  0
    2.9710   17.7841   40.1416 H   0  0  0  0  0  0  0  0  0  0  0  0
    3.4940   17.7600   39.1910 H   0  0  0  0  0  0  0  0  0  0  0  0
    1.5580   18.0094   41.7720 H   0  0  0  0  0  0  0  0  0  0  0  0
   -0.0093   19.2904   42.4271 H   0  0  0  0  0  0  0  0  0  0  0  0
  1 12  2  0
  2 11  1  0
  3  9  1  0
  4  2  1  0
  5  2  1  0
  6  8  2  0
  8 12  1  0
  9  1  1  0
 10  2  1  0
 11  9  2  0
 11  6  1  0
  1 13  1  0
  3 14  1  0
  3 15  1  0
  6 16  1  0
  7 17  1  0
  8 18  1  0
 12 19  1  0
M  END
>  <mol_id>  (44) 
2026-09-18-3war-s0-n100-refligand-seed1-0044

>  <rmsd_to_ref>  (44) 


$$$$

     RDKit          3D

 45 48  0  0  0  0  0  0  0  0999 V2000
    3.7580   20.4310   35.4950 O   0  0  0  0  0  0  0  0  0  0  0  0
    2.4540   19.9440   39.9170 O   0  0  0  0  0  0  0  0  0  0  0  0
   -0.0120   20.2570   42.5390 C   0  0  0  0  0  0  0  0  0  0  0  0
    1.0980   18.2860   41.6260 C   0  0  0  0  0  0  0  0  0  0  0  0
    1.8660   17.2530   40.6630 C   0  0  0  0  0  0  0  0  0  0  0  0
    1.1600   20.5400   40.5180 N   0  0  0  0  0  0  0  0  0  0  0  0
    4.4310   13.4680   38.1560 O   0  0  0  0  0  0  0  0  0  0  0  0
    2.7690   15.4510   39.0120 C   0  0  0  0  0  0  0  0  0  0  0  0
   -0.1150   18.1400   43.6980 C   0  0  0  0  0  0  0  0  0  0  0  0
   -0.4670   19.4250   43.5400 C   0  0  0  0  0  0  0  0  0  0  0  0
    1.8040   14.8790   40.9220 C   0  0  0  0  0  0  0  0  0  0  0  0
    1.7250   22.0650   35.7960 O   0  0  0  0  0  0  0  0  0  0  0  0
    2.5470   20.2710   38.7760 C   0  0  0  0  0  0  0  0  0  0  0  0
    1.3100   13.7410   41.7980 C   0  0  0  0  0  0  0  0  0  0  0  0
    3.3890   19.8700   37.8630 C   0  0  0  0  0  0  0  0  0  0  0  0
    2.4200   14.5600   39.8590 C   0  0  0  0  0  0  0  0  0  0  0  0
    4.4720   15.6210   37.0330 O   0  0  0  0  0  0  0  0  0  0  0  0
    0.7230   17.6620   42.7710 C   0  0  0  0  0  0  0  0  0  0  0  0
    1.7630   16.1330   41.3810 C   0  0  0  0  0  0  0  0  0  0  0  0
    2.5090   16.8220   39.2160 S   0  0  0  0  0  0  0  0  0  0  0  0
    1.2730   16.3600   42.8270 C   0  0  0  0  0  0  0  0  0  0  0  0
    2.5530   14.1790   36.6810 N   0  0  0  0  0  0  0  0  0  0  0  0
    3.5930   14.6610   37.6140 S   0  0  0  0  0  6  0  0  0  0  0  0
    3.2480   20.5740   36.7410 N   0  0  0  0  0  0  0  0  0  0  0  0
    1.7440   21.2490   38.1790 C   0  0  0  0  0  0  0  0  0  0  0  0
   -1.3300   20.0620   44.4820 O   0  0  0  0  0  0  0  0  0  0  0  0
    2.1920   21.3740   36.8350 C   0  0  0  0  0  0  0  0  0  0  0  0
    0.7800   19.6900   41.5130 C   0  0  0  0  0  0  0  0  0  0  0  0
    4.7094   20.1642   35.5565 H   0  0  0  0  0  0  0  0  0  0  0  0
   -0.2574   21.3293   42.5382 H   0  0  0  0  0  0  0  0  0  0  0  0
    2.1920   18.1712   40.1526 H   0  0  0  0  0  0  0  0  0  0  0  0
    0.6821   21.4043   40.2255 H   0  0  0  0  0  0  0  0  0  0  0  0
   -0.4883   17.5241   44.5294 H   0  0  0  0  0  0  0  0  0  0  0  0
    1.4289   14.0150   42.8567 H   0  0  0  0  0  0  0  0  0  0  0  0
    0.2478   13.5495   41.5859 H   0  0  0  0  0  0  0  0  0  0  0  0
    1.8955   12.8342   41.5859 H   0  0  0  0  0  0  0  0  0  0  0  0
    4.1184   19.0583   38.0016 H   0  0  0  0  0  0  0  0  0  0  0  0
    2.6564   13.5035   39.6645 H   0  0  0  0  0  0  0  0  0  0  0  0
    2.1089   16.3134   43.5405 H   0  0  0  0  0  0  0  0  0  0  0  0
    0.5560   15.5988   43.1683 H   0  0  0  0  0  0  0  0  0  0  0  0
    1.7552   13.8093   37.2174 H   0  0  0  0  0  0  0  0  0  0  0  0
    2.2359   14.9589   36.0877 H   0  0  0  0  0  0  0  0  0  0  0  0
    0.6887   20.9394   38.2006 H   0  0  0  0  0  0  0  0  0  0  0  0
    1.8196   22.2070   38.7143 H   0  0  0  0  0  0  0  0  0  0  0  0
   -1.7068   19.5443   45.2370 H   0  0  0  0  0  0  0  0  0  0  0  0
  1 24  1  0
  2  6  1  0
  3 10  2  0
  4 18  1  0
  5 20  1  0
  5 19  1  0
  5  4  1  0
  6 28  1  0
  8 20  1  0
  8 16  2  0
 10  9  1  0
 10 26  1  0
 11 19  2  0
 11 14  1  0
 12 27  2  0
 13  2  1  0
 15 13  2  0
 16 11  1  0
 17 23  2  0
 18 21  1  0
 18  9  2  0
 19 21  1  0
 22 23  1  0
 23  7  2  0
 23  8  1  0
 24 27  1  0
 24 15  1  0
 25 13  1  0
 27 25  1  0
 28  4  2  0
 28  3  1  0
  1 29  1  0
  3 30  1  0
  5 31  1  0
  6 32  1  0
  9 33  1  0
 14 34  1  0
 14 35  1  0
 14 36  1  0
 15 37  1  0
 16 38  1  0
 21 39  1  0
 21 40  1  0
 22 41  1  0
 22 42  1  0
 25 43  1  0
 25 44  1  0
 26 45  1  0
M  END
>  <mol_id>  (45) 
2026-09-18-3war-s0-n100-refligand-seed1-0045

>  <rmsd_to_ref>  (45) 


$$$$

     RDKit          3D

 35 37  0  0  0  0  0  0  0  0999 V2000
   -0.6910   20.8530   43.3300 O   0  0  0  0  0  0  0  0  0  0  0  0
    2.1010   21.3060   37.1280 O   0  0  0  0  0  1  0  0  0  0  0  0
    1.6340   21.4260   39.4410 O   0  0  0  0  0  0  0  0  0  0  0  0
    1.4800   15.8800   41.1090 C   0  0  0  0  0  0  0  0  0  0  0  0
    2.8680   20.3130   36.8350 C   0  0  0  0  0  0  0  0  0  0  0  0
    1.2610   18.5250   41.1220 C   0  0  0  0  0  0  0  0  0  0  0  0
    2.9810   15.6010   37.7300 C   0  0  0  0  0  0  0  0  0  0  0  0
    1.7200   17.2530   40.5770 N   0  0  0  0  0  0  0  0  0  0  0  0
    2.4490   14.7820   40.6750 C   0  0  0  0  0  0  0  0  0  0  0  0
    0.3140   18.9590   42.2460 C   0  0  0  0  0  0  0  0  0  0  0  0
    0.8180   21.4690   41.6390 C   0  0  0  0  0  0  0  0  0  0  0  0
    2.3960   17.5880   39.3440 C   0  0  0  0  0  0  0  0  0  0  0  0
    2.9590   17.0010   38.1550 N   0  0  0  0  0  0  0  0  0  0  0  0
    1.4020   20.9290   40.4560 C   0  0  0  0  0  0  0  0  0  0  0  0
    0.0430   20.4360   42.4740 C   0  0  0  0  0  0  0  0  0  0  0  0
    2.3010   18.9460   39.0550 C   0  0  0  0  0  0  0  0  0  0  0  0
    2.8450   19.2080   37.7810 C   0  0  0  0  0  0  0  0  0  0  0  0
    1.6960   19.4980   40.2850 C   0  0  0  0  0  0  0  0  0  0  0  0
    1.2760   15.9230   42.6740 C   0  0  0  0  0  0  0  0  0  0  0  0
    3.6620   20.3990   35.9280 O   0  0  0  0  0  0  0  0  0  0  0  0
    3.2580   18.0060   37.3020 N   0  0  0  0  0  0  0  0  0  0  0  0
    0.5486   15.5602   40.6189 H   0  0  0  0  0  0  0  0  0  0  0  0
    2.9912   14.9490   38.6159 H   0  0  0  0  0  0  0  0  0  0  0  0
    2.0861   15.3867   37.1273 H   0  0  0  0  0  0  0  0  0  0  0  0
    3.8822   15.4149   37.1273 H   0  0  0  0  0  0  0  0  0  0  0  0
    2.8766   14.2975   41.5652 H   0  0  0  0  0  0  0  0  0  0  0  0
    1.9107   14.0346   40.0736 H   0  0  0  0  0  0  0  0  0  0  0  0
    3.2575   15.2232   40.0736 H   0  0  0  0  0  0  0  0  0  0  0  0
   -0.6576   18.4837   42.0457 H   0  0  0  0  0  0  0  0  0  0  0  0
    0.8438   18.6520   43.1598 H   0  0  0  0  0  0  0  0  0  0  0  0
    0.1240   22.2715   41.3484 H   0  0  0  0  0  0  0  0  0  0  0  0
    1.6440   21.8347   42.2667 H   0  0  0  0  0  0  0  0  0  0  0  0
    2.2345   15.7210   43.1744 H   0  0  0  0  0  0  0  0  0  0  0  0
    0.9109   16.9178   42.9690 H   0  0  0  0  0  0  0  0  0  0  0  0
    0.5404   15.1602   42.9690 H   0  0  0  0  0  0  0  0  0  0  0  0
  3 14  2  0
  4 19  1  0
  5  2  1  0
  5 17  1  0
  6 10  1  0
  7 13  1  0
  8  4  1  0
  8  6  1  0
  9  4  1  0
 10 15  1  0
 11 15  1  0
 12  8  1  0
 13 12  1  0
 14 11  1  0
 15  1  2  0
 16 12  2  0
 16 18  1  0
 17 16  1  0
 18 14  1  0
 18  6  2  0
 20  5  2  0
 21 17  2  0
 21 13  1  0
  4 22  1  0
  7 23  1  0
  7 24  1  0
  7 25  1  0
  9 26  1  0
  9 27  1  0
  9 28  1  0
 10 29  1  0
 10 30  1  0
 11 31  1  0
 11 32  1  0
 19 33  1  0
 19 34  1  0
 19 35  1  0
M  CHG  1   2  -1
M  END
>  <mol_id>  (46) 
2026-09-18-3war-s0-n100-refligand-seed1-0046

>  <rmsd_to_ref>  (46) 


$$$$

     RDKit          3D

 32 34  0  0  0  0  0  0  0  0999 V2000
    0.3360   18.7630   42.0730 C   0  0  0  0  0  0  0  0  0  0  0  0
   -0.2490   19.7540   42.7390 C   0  0  0  0  0  0  0  0  0  0  0  0
    1.9130   16.5780   40.6560 C   0  0  0  0  0  0  0  0  0  0  0  0
    2.9440   16.7460   38.7990 C   0  0  0  0  0  0  0  0  0  0  0  0
    1.1720   19.0050   40.9540 C   0  0  0  0  0  0  0  0  0  0  0  0
   -0.0860   21.0650   42.2500 C   0  0  0  0  0  0  0  0  0  0  0  0
    1.3420   20.2860   40.5210 C   0  0  0  0  0  0  0  0  0  0  0  0
   -0.6550   21.8540   42.7800 F   0  0  0  0  0  0  0  0  0  0  0  0
    1.9860   20.4660   39.3940 N   0  0  0  0  0  0  0  0  0  0  0  0
    2.5730   15.9030   39.7130 N   0  0  0  0  0  0  0  0  0  0  0  0
    2.2010   21.0750   37.0010 O   0  0  0  0  0  1  0  0  0  0  0  0
    2.4350   19.5140   38.6490 C   0  0  0  0  0  0  0  0  0  0  0  0
    1.8570   17.9020   40.3430 C   0  0  0  0  0  0  0  0  0  0  0  0
    3.6050   16.1820   37.5050 C   0  0  0  0  0  0  0  0  0  0  0  0
    0.7840   21.3270   41.2340 C   0  0  0  0  0  0  0  0  0  0  0  0
    2.4770   18.1050   39.0900 C   0  0  0  0  0  0  0  0  0  0  0  0
    3.7900   14.6970   37.5600 C   0  0  0  0  0  0  0  0  0  0  0  0
    1.3700   15.8830   41.8840 C   0  0  0  0  0  0  0  0  0  0  0  0
    3.7050   19.4660   36.7010 O   0  0  0  0  0  0  0  0  0  0  0  0
    2.8280   20.0400   37.3690 C   0  0  0  0  0  0  0  0  0  0  0  0
    0.1665   17.7263   42.3994 H   0  0  0  0  0  0  0  0  0  0  0  0
   -0.8421   19.5562   43.6441 H   0  0  0  0  0  0  0  0  0  0  0  0
    1.8448   18.1782   41.4077 H   0  0  0  0  0  0  0  0  0  0  0  0
    4.5891   16.6562   37.3753 H   0  0  0  0  0  0  0  0  0  0  0  0
    2.9358   16.4059   36.6612 H   0  0  0  0  0  0  0  0  0  0  0  0
    1.0408   22.3667   40.9829 H   0  0  0  0  0  0  0  0  0  0  0  0
    3.8306   14.3712   38.6099 H   0  0  0  0  0  0  0  0  0  0  0  0
    2.9464   14.2035   37.0553 H   0  0  0  0  0  0  0  0  0  0  0  0
    4.7289   14.4255   37.0553 H   0  0  0  0  0  0  0  0  0  0  0  0
    1.7569   16.3782   42.7868 H   0  0  0  0  0  0  0  0  0  0  0  0
    0.2713   15.9355   41.8793 H   0  0  0  0  0  0  0  0  0  0  0  0
    1.6868   14.8296   41.8793 H   0  0  0  0  0  0  0  0  0  0  0  0
  1  2  2  0
  3 18  1  0
  4 16  2  0
  4 10  1  0
  5  1  1  0
  6  2  1  0
  6  8  1  0
  7  5  2  0
  7 15  1  0
  9  7  1  0
 10  3  2  0
 11 20  1  0
 12 16  1  0
 12  9  2  0
 13 16  1  0
 13  3  1  0
 13  5  1  0
 14 17  1  0
 14  4  1  0
 15  6  2  0
 19 20  2  0
 20 12  1  0
  1 21  1  0
  2 22  1  0
 13 23  1  0
 14 24  1  0
 14 25  1  0
 15 26  1  0
 17 27  1  0
 17 28  1  0
 17 29  1  0
 18 30  1  0
 18 31  1  0
 18 32  1  0
M  CHG  1  11  -1
M  END
>  <mol_id>  (47) 
2026-09-18-3war-s0-n100-refligand-seed1-0047

>  <rmsd_to_ref>  (47) 


$$$$

     RDKit          3D

 24 26  0  0  0  0  0  0  0  0999 V2000
    0.3320   18.9620   42.4230 C   0  0  0  0  0  0  0  0  0  0  0  0
   -0.4040   19.9230   43.1720 C   0  0  0  0  0  0  0  0  0  0  0  0
    2.5820   20.9420   37.2250 C   0  0  0  0  0  0  0  0  0  0  0  0
    1.9280   17.5580   40.6530 N   0  0  0  0  0  0  0  0  0  0  0  0
    3.2160   20.0450   36.5150 N   0  0  0  0  0  0  0  0  0  0  0  0
    1.6930   18.8170   40.2950 C   0  0  0  0  0  0  0  0  0  0  0  0
    2.9810   18.3830   38.2230 C   0  0  0  0  0  0  0  0  0  0  0  0
    2.2150   19.3560   39.0880 C   0  0  0  0  0  0  0  0  0  0  0  0
    3.3890   18.7890   36.9870 C   0  0  0  0  0  0  0  0  0  0  0  0
    0.9110   19.5680   41.2240 C   0  0  0  0  0  0  0  0  0  0  0  0
    0.3510   17.7610   42.7720 O   0  0  0  0  0  0  0  0  0  0  0  0
    0.5550   21.2400   41.2540 S   0  0  0  0  0  0  0  0  0  0  0  0
    2.5760   16.7560   39.9460 C   0  0  0  0  0  0  0  0  0  0  0  0
    2.0350   20.6640   38.5520 C   0  0  0  0  0  0  0  0  0  0  0  0
   -0.3910   21.1610   42.6860 C   0  0  0  0  0  0  0  0  0  0  0  0
    3.1320   17.0810   38.6990 C   0  0  0  0  0  0  0  0  0  0  0  0
   -0.9473   19.6593   44.0914 H   0  0  0  0  0  0  0  0  0  0  0  0
    2.4547   21.9506   36.8049 H   0  0  0  0  0  0  0  0  0  0  0  0
    3.8867   18.0541   36.3372 H   0  0  0  0  0  0  0  0  0  0  0  0
    1.8085   19.7482   41.8339 H   0  0  0  0  0  0  0  0  0  0  0  0
    2.7191   15.7331   40.3244 H   0  0  0  0  0  0  0  0  0  0  0  0
    1.5010   21.4406   39.1192 H   0  0  0  0  0  0  0  0  0  0  0  0
   -0.9139   22.0164   43.1386 H   0  0  0  0  0  0  0  0  0  0  0  0
    3.6743   16.3261   38.1107 H   0  0  0  0  0  0  0  0  0  0  0  0
  1 11  2  0
  1  2  1  0
  3 14  2  0
  5  9  2  0
  5  3  1  0
  6  4  2  0
  7 16  1  0
  7  8  2  0
  8  6  1  0
  9  7  1  0
 10  6  1  0
 10 12  1  0
 10  1  1  0
 12 15  1  0
 13  4  1  0
 14  8  1  0
 15  2  2  0
 16 13  2  0
  2 17  1  0
  3 18  1  0
  9 19  1  0
 10 20  1  0
 13 21  1  0
 14 22  1  0
 15 23  1  0
 16 24  1  0
M  END
>  <mol_id>  (48) 
2026-09-18-3war-s0-n100-refligand-seed1-0048

>  <rmsd_to_ref>  (48) 


$$$$

     RDKit          3D

 65 65  0  0  0  0  0  0  0  0999 V2000
   -0.8170   21.1610   44.1310 N   0  0  0  0  0  0  0  0  0  0  0  0
    6.6940   12.7560   35.2930 C   0  0  0  0  0  0  0  0  0  0  0  0
    2.7900   17.5800   38.9740 C   0  0  0  0  0  0  0  0  0  0  0  0
    5.7500   13.8540   34.9870 C   0  0  0  0  0  0  0  0  0  0  0  0
    2.9810   19.5450   37.6480 O   0  0  0  0  0  0  0  0  0  0  0  0
    1.2080   16.8940   41.1470 C   0  0  0  0  0  0  0  0  0  0  0  0
    4.7610   13.8500   36.0480 N   0  0  0  0  0  4  0  0  0  0  0  0
   -3.0770   19.4630   45.4260 C   0  0  0  0  0  0  0  0  0  0  0  0
   -1.0650   20.1100   44.2140 N   0  0  0  0  0  0  0  0  0  0  0  0
    4.6730   14.8670   37.0270 C   0  0  0  0  0  0  0  0  0  0  0  0
   -1.5790   19.2160   45.1670 C   0  0  0  0  0  0  0  0  0  0  0  0
    2.3330   20.6790   37.7760 C   0  0  0  0  0  0  0  0  0  0  0  0
    0.9160   18.4230   41.3070 C   0  0  0  0  0  0  0  0  0  0  0  0
    0.6980   21.2070   41.2120 C   0  0  0  0  0  0  0  0  0  0  0  0
    1.5510   19.1680   40.3850 C   0  0  0  0  0  0  0  0  0  0  0  0
    3.5320   15.1180   37.3630 C   0  0  0  0  0  0  0  0  0  0  0  0
    3.4600   18.8600   36.7740 O   0  0  0  0  0  0  0  0  0  0  0  0
    1.3920   20.5030   40.1660 C   0  0  0  0  0  0  0  0  0  0  0  0
    6.1990   11.7550   36.0000 N   0  0  0  0  0  0  0  0  0  0  0  0
   -0.4270   19.5130   46.0860 C   0  0  0  0  0  0  0  0  0  0  0  0
    2.1590   21.3910   36.7170 O   0  0  0  0  0  0  0  0  0  0  0  0
    2.3130   18.4700   39.6340 N   0  0  0  0  0  0  0  0  0  0  0  0
    7.4860   12.5940   34.3420 O   0  0  0  0  0  0  0  0  0  0  0  0
    2.7770   16.2160   39.1980 C   0  0  0  0  0  0  0  0  0  0  0  0
    0.1940   20.4330   42.2470 C   0  0  0  0  0  0  0  0  0  0  0  0
    1.9020   16.1270   40.3710 C   0  0  0  0  0  0  0  0  0  0  0  0
   -0.4340   21.0310   43.3630 C   0  0  0  0  0  0  0  0  0  0  0  0
    1.9480   21.1410   39.0550 C   0  0  0  0  0  0  0  0  0  0  0  0
    2.9760   15.2910   38.5870 O   0  0  0  0  0  0  0  0  0  0  0  0
   -1.6710   17.6640   44.8930 C   0  0  0  0  0  0  0  0  0  0  0  0
    0.3200   19.0850   42.3240 C   0  0  0  0  0  0  0  0  0  0  0  0
   -1.6393   21.7797   44.0858 H   0  0  0  0  0  0  0  0  0  0  0  0
    3.3116   17.9008   38.0602 H   0  0  0  0  0  0  0  0  0  0  0  0
    6.2808   14.8172   34.9650 H   0  0  0  0  0  0  0  0  0  0  0  0
    5.2799   13.7135   34.0025 H   0  0  0  0  0  0  0  0  0  0  0  0
    0.6729   16.3071   41.9080 H   0  0  0  0  0  0  0  0  0  0  0  0
    3.8438   13.8275   35.5799 H   0  0  0  0  0  0  0  0  0  0  0  0
    5.0716   13.0475   36.6141 H   0  0  0  0  0  0  0  0  0  0  0  0
   -3.2615   19.4934   46.5100 H   0  0  0  0  0  0  0  0  0  0  0  0
   -3.3736   20.4222   44.9765 H   0  0  0  0  0  0  0  0  0  0  0  0
   -3.6658   18.6498   44.9765 H   0  0  0  0  0  0  0  0  0  0  0  0
   -1.1265   19.8493   45.2086 H   0  0  0  0  0  0  0  0  0  0  0  0
   -1.9707   19.9337   43.7562 H   0  0  0  0  0  0  0  0  0  0  0  0
    5.2350   14.5444   37.9159 H   0  0  0  0  0  0  0  0  0  0  0  0
    5.0884   15.7828   36.5811 H   0  0  0  0  0  0  0  0  0  0  0  0
   -1.2592   19.9717   44.4345 H   0  0  0  0  0  0  0  0  0  0  0  0
    0.5739   22.2998   41.1918 H   0  0  0  0  0  0  0  0  0  0  0  0
    3.3054   16.0575   36.8377 H   0  0  0  0  0  0  0  0  0  0  0  0
    3.1161   14.1180   37.1707 H   0  0  0  0  0  0  0  0  0  0  0  0
    3.9773   18.1203   37.1806 H   0  0  0  0  0  0  0  0  0  0  0  0
    6.7983   10.9556   36.2506 H   0  0  0  0  0  0  0  0  0  0  0  0
    5.2140   11.7743   36.3004 H   0  0  0  0  0  0  0  0  0  0  0  0
   -0.7599   19.4272   47.1309 H   0  0  0  0  0  0  0  0  0  0  0  0
    0.3852   18.7949   45.8998 H   0  0  0  0  0  0  0  0  0  0  0  0
   -0.0633   20.5343   45.8998 H   0  0  0  0  0  0  0  0  0  0  0  0
    3.0512   19.1725   39.4843 H   0  0  0  0  0  0  0  0  0  0  0  0
    1.8056   15.0791   40.6915 H   0  0  0  0  0  0  0  0  0  0  0  0
    0.3623   21.7710   43.5310 H   0  0  0  0  0  0  0  0  0  0  0  0
   -1.3577   20.5235   43.0481 H   0  0  0  0  0  0  0  0  0  0  0  0
    2.8715   21.5865   39.4532 H   0  0  0  0  0  0  0  0  0  0  0  0
    1.0205   21.6330   38.7269 H   0  0  0  0  0  0  0  0  0  0  0  0
   -1.7030   17.1239   45.8507 H   0  0  0  0  0  0  0  0  0  0  0  0
   -2.5836   17.4465   44.3187 H   0  0  0  0  0  0  0  0  0  0  0  0
   -0.7905   17.3402   44.3187 H   0  0  0  0  0  0  0  0  0  0  0  0
   -0.0571   18.5383   43.2009 H   0  0  0  0  0  0  0  0  0  0  0  0
  1  9  1  0
  2 19  1  0
  3 24  2  0
  3 22  1  0
  4  2  1  0
  4  7  1  0
  5 12  1  0
  6 13  1  0
  7 10  1  0
 10 16  1  0
 11  8  1  0
 11 20  1  0
 12 28  1  0
 13 31  2  0
 14 25  2  0
 15 13  1  0
 16 29  1  0
 17  5  1  0
 18 15  2  0
 18 14  1  0
 21 12  2  0
 22 15  1  0
 23  2  2  0
 24 26  1  0
 25 31  1  0
 25 27  1  0
 26  6  2  0
 27  1  1  0
 28 18  1  0
 29 24  1  0
 30 11  1  0
  1 32  1  0
  3 33  1  0
  4 34  1  0
  4 35  1  0
  6 36  1  0
  7 37  1  0
  7 38  1  0
  8 39  1  0
  8 40  1  0
  8 41  1  0
  9 42  1  0
  9 43  1  0
 10 44  1  0
 10 45  1  0
 11 46  1  0
 14 47  1  0
 16 48  1  0
 16 49  1  0
 17 50  1  0
 19 51  1  0
 19 52  1  0
 20 53  1  0
 20 54  1  0
 20 55  1  0
 22 56  1  0
 26 57  1  0
 27 58  1  0
 27 59  1  0
 28 60  1  0
 28 61  1  0
 30 62  1  0
 30 63  1  0
 30 64  1  0
 31 65  1  0
M  CHG  1   7   1
M  END
>  <mol_id>  (49) 
2026-09-18-3war-s0-n100-refligand-seed1-0049

>  <rmsd_to_ref>  (49) 


$$$$

     RDKit          3D

 20 21  0  0  0  0  0  0  0  0999 V2000
    3.3250   18.3310   37.3120 N   0  0  0  0  0  0  0  0  0  0  0  0
    1.8120   17.5750   40.5140 C   0  0  0  0  0  0  0  0  0  0  0  0
    3.1070   16.3790   38.4220 N   0  0  0  0  0  0  0  0  0  0  0  0
    3.1280   19.5110   37.0680 C   0  0  0  0  0  0  0  0  0  0  0  0
    1.5010   20.3800   40.8960 C   0  0  0  0  0  0  0  0  0  0  0  0
    2.5910   20.6100   37.4600 C   0  0  0  0  0  0  0  0  0  0  0  0
    2.0140   16.2330   40.2510 C   0  0  0  0  0  0  0  0  0  0  0  0
    1.9020   19.8300   39.6930 C   0  0  0  0  0  0  0  0  0  0  0  0
    2.6830   15.5820   39.3420 C   0  0  0  0  0  0  0  0  0  0  0  0
    2.0040   20.8040   38.7510 C   0  0  0  0  0  0  0  0  0  0  0  0
    1.1400   20.9180   41.7870 N   0  0  0  0  0  0  0  0  0  0  0  0
    2.2420   18.3760   39.4770 C   0  0  0  0  0  0  0  0  0  0  0  0
    2.9140   17.6990   38.4250 C   0  0  0  0  0  0  0  0  0  0  0  0
    1.3614   17.9588   41.4412 H   0  0  0  0  0  0  0  0  0  0  0  0
    3.6172   19.7222   36.1057 H   0  0  0  0  0  0  0  0  0  0  0  0
    2.5816   21.4569   36.7581 H   0  0  0  0  0  0  0  0  0  0  0  0
    1.4985   15.5718   40.9631 H   0  0  0  0  0  0  0  0  0  0  0  0
    2.8621   14.4968   39.3576 H   0  0  0  0  0  0  0  0  0  0  0  0
    1.6116   21.8022   38.9954 H   0  0  0  0  0  0  0  0  0  0  0  0
    3.2034   18.5245   39.9904 H   0  0  0  0  0  0  0  0  0  0  0  0
  1 13  2  0
  3 13  1  0
  3  9  2  0
  4  1  1  0
  4  6  2  0
  5 11  3  0
  6 10  1  0
  7  2  2  0
  8  5  1  0
  9  7  1  0
 10  8  2  0
 12  8  1  0
 12  2  1  0
 13 12  1  0
  2 14  1  0
  4 15  1  0
  6 16  1  0
  7 17  1  0
  9 18  1  0
 10 19  1  0
 12 20  1  0
M  END
>  <mol_id>  (50) 
2026-09-18-3war-s0-n100-refligand-seed1-0050

>  <rmsd_to_ref>  (50) 


$$$$

     RDKit          3D

 47 48  0  0  0  0  0  0  0  0999 V2000
    2.8170   19.5690   38.1020 C   0  0  0  0  0  0  0  0  0  0  0  0
   -0.1510   15.5010   42.8690 O   0  0  0  0  0  1  0  0  0  0  0  0
    2.0960   18.1190   39.7980 C   0  0  0  0  0  0  0  0  0  0  0  0
    3.0310   20.6330   36.7280 C   0  0  0  0  0  0  0  0  0  0  0  0
    2.9720   17.4990   38.1840 C   0  0  0  0  0  0  0  0  0  0  0  0
    1.0000   20.1090   41.6490 C   0  0  0  0  0  0  0  0  0  0  0  0
    0.4060   17.7320   41.7930 C   0  0  0  0  0  0  0  0  0  0  0  0
    1.3160   18.7320   40.7470 C   0  0  0  0  0  0  0  0  0  0  0  0
    0.8820   16.6130   41.3540 C   0  0  0  0  0  0  0  0  0  0  0  0
    2.3500   19.1860   38.6830 C   0  0  0  0  0  0  0  0  0  0  0  0
    0.7350   14.4230   41.0490 O   0  0  0  0  0  0  0  0  0  0  0  0
    0.8060   20.7890   40.8600 C   0  0  0  0  0  0  0  0  0  0  0  0
    2.1840   16.7560   40.3590 C   0  0  0  0  0  0  0  0  0  0  0  0
    0.5400   15.6730   41.9210 C   0  0  0  0  0  0  0  0  0  0  0  0
    3.4490   19.3150   36.8670 C   0  0  0  0  0  0  0  0  0  0  0  0
    3.4550   18.0790   37.5140 C   0  0  0  0  0  0  0  0  0  0  0  0
    2.4490   20.6090   37.1960 C   0  0  0  0  0  0  0  0  0  0  0  0
    1.8650   20.1710   38.9640 C   0  0  0  0  0  0  0  0  0  0  0  0
    1.6900   19.4480   40.4190 C   0  0  0  0  0  0  0  0  0  0  0  0
    0.9430   20.7320   40.3310 C   0  0  0  0  0  0  0  0  0  0  0  0
    3.2653   19.4573   39.1003 H   0  0  0  0  0  0  0  0  0  0  0  0
    3.0867   18.5907   39.7205 H   0  0  0  0  0  0  0  0  0  0  0  0
    1.6951   18.1678   38.7748 H   0  0  0  0  0  0  0  0  0  0  0  0
    2.7267   20.8666   35.6971 H   0  0  0  0  0  0  0  0  0  0  0  0
    3.7875   21.4030   36.9394 H   0  0  0  0  0  0  0  0  0  0  0  0
    3.6007   16.9736   38.9179 H   0  0  0  0  0  0  0  0  0  0  0  0
    2.3466   16.6255   37.9477 H   0  0  0  0  0  0  0  0  0  0  0  0
    0.6700   20.3444   42.6716 H   0  0  0  0  0  0  0  0  0  0  0  0
    1.5314   19.1676   41.4456 H   0  0  0  0  0  0  0  0  0  0  0  0
    0.6367   17.9052   42.8545 H   0  0  0  0  0  0  0  0  0  0  0  0
   -0.6872   17.8532   41.7797 H   0  0  0  0  0  0  0  0  0  0  0  0
    2.1330   18.6401   41.4778 H   0  0  0  0  0  0  0  0  0  0  0  0
    0.4095   16.1067   40.4993 H   0  0  0  0  0  0  0  0  0  0  0  0
    0.2709   21.7114   41.1299 H   0  0  0  0  0  0  0  0  0  0  0  0
    2.1402   16.0051   39.5563 H   0  0  0  0  0  0  0  0  0  0  0  0
    3.1305   16.5929   40.8952 H   0  0  0  0  0  0  0  0  0  0  0  0
    4.2890   19.6476   37.4946 H   0  0  0  0  0  0  0  0  0  0  0  0
    3.4606   17.4057   36.6442 H   0  0  0  0  0  0  0  0  0  0  0  0
    4.0982   18.4840   38.3092 H   0  0  0  0  0  0  0  0  0  0  0  0
    1.5205   20.3593   36.6617 H   0  0  0  0  0  0  0  0  0  0  0  0
    2.2486   21.5698   37.6928 H   0  0  0  0  0  0  0  0  0  0  0  0
    1.1041   20.2027   39.7577 H   0  0  0  0  0  0  0  0  0  0  0  0
    2.1552   21.0953   38.4430 H   0  0  0  0  0  0  0  0  0  0  0  0
    2.5800   19.6457   41.0345 H   0  0  0  0  0  0  0  0  0  0  0  0
    1.8370   19.1811   39.3620 H   0  0  0  0  0  0  0  0  0  0  0  0
    1.5806   21.5565   39.9792 H   0  0  0  0  0  0  0  0  0  0  0  0
    0.1023   20.7417   39.6217 H   0  0  0  0  0  0  0  0  0  0  0  0
  1 17  1  0
  1 10  1  0
  3 13  1  0
  3  8  1  0
  4 17  1  0
  5 10  1  0
  8 19  1  0
  8  7  1  0
  9  7  1  0
  9 14  1  0
 10 18  2  3
 11 14  2  0
 12  6  2  3
 13  9  1  0
 14  2  1  0
 15  4  1  0
 15 16  1  0
 15  1  1  0
 16  5  1  0
 20 19  1  0
 20 12  1  0
  1 21  1  0
  3 22  1  0
  3 23  1  0
  4 24  1  0
  4 25  1  0
  5 26  1  0
  5 27  1  0
  6 28  1  0
  6 29  1  0
  7 30  1  0
  7 31  1  0
  8 32  1  0
  9 33  1  0
 12 34  1  0
 13 35  1  0
 13 36  1  0
 15 37  1  0
 16 38  1  0
 16 39  1  0
 17 40  1  0
 17 41  1  0
 18 42  1  0
 18 43  1  0
 19 44  1  0
 19 45  1  0
 20 46  1  0
 20 47  1  0
M  CHG  1   2  -1
M  END
>  <mol_id>  (51) 
2026-09-18-3war-s0-n100-refligand-seed1-0051

>  <rmsd_to_ref>  (51) 


$$$$

     RDKit          3D

 34 35  0  0  0  0  0  0  0  0999 V2000
    3.1530   18.7790   38.7250 C   0  0  0  0  0  0  0  0  0  0  0  0
    1.3480   17.9810   41.2120 C   0  0  0  0  0  0  0  0  0  0  0  0
    2.9430   17.8610   37.6870 C   0  0  0  0  0  0  0  0  0  0  0  0
    0.5200   16.2750   42.7600 C   0  0  0  0  0  0  0  0  0  0  0  0
    2.6530   19.2430   38.2910 C   0  0  0  0  0  0  0  0  0  0  0  0
    1.7850   16.6970   40.9290 C   0  0  0  0  0  0  0  0  0  0  0  0
    0.3830   17.9020   42.6640 S   0  0  0  0  0  0  0  0  0  0  0  0
    1.6550   19.1570   40.4830 C   0  0  0  0  0  0  0  0  0  0  0  0
    2.1880   20.8600   38.4570 S   0  0  0  0  0  0  0  0  0  0  0  0
    3.2530   18.9720   40.3340 C   0  0  0  0  0  0  0  0  0  0  0  0
    3.4720   19.6680   36.9300 N   0  0  0  0  0  0  0  0  0  0  0  0
    2.6030   16.4800   38.4190 C   0  0  0  0  0  0  0  0  0  0  0  0
    1.2590   15.6600   41.7510 N   0  0  0  0  0  0  0  0  0  0  0  0
    0.2930   21.1660   40.5230 O   0  0  0  0  0  0  0  0  0  0  0  0
    2.5340   16.2870   39.7090 C   0  0  0  0  0  0  0  0  0  0  0  0
    1.4700   20.4840   41.1820 C   0  0  0  0  0  0  0  0  0  0  0  0
    2.9530   20.5880   36.9160 C   0  0  0  0  0  0  0  0  0  0  0  0
    2.7050   21.7380   35.6750 S   0  0  0  0  0  0  0  0  0  0  0  0
    4.1712   18.7246   39.1377 H   0  0  0  0  0  0  0  0  0  0  0  0
    2.7168   16.8721   38.1123 H   0  0  0  0  0  0  0  0  0  0  0  0
    2.0982   18.1955   37.0670 H   0  0  0  0  0  0  0  0  0  0  0  0
    3.8492   17.7949   37.0670 H   0  0  0  0  0  0  0  0  0  0  0  0
    0.0556   15.6993   43.5741 H   0  0  0  0  0  0  0  0  0  0  0  0
    1.7921   18.5873   38.4882 H   0  0  0  0  0  0  0  0  0  0  0  0
    1.0048   19.2232   39.5982 H   0  0  0  0  0  0  0  0  0  0  0  0
    3.6434   18.0877   40.8589 H   0  0  0  0  0  0  0  0  0  0  0  0
    3.9204   19.7473   40.7384 H   0  0  0  0  0  0  0  0  0  0  0  0
    4.1895   19.2239   36.3394 H   0  0  0  0  0  0  0  0  0  0  0  0
    3.3560   15.9444   37.8222 H   0  0  0  0  0  0  0  0  0  0  0  0
    1.9081   17.1781   37.9294 H   0  0  0  0  0  0  0  0  0  0  0  0
   -0.3161   21.5189   41.2191 H   0  0  0  0  0  0  0  0  0  0  0  0
    3.3073   15.5602   39.9982 H   0  0  0  0  0  0  0  0  0  0  0  0
    1.2646   20.3234   42.2507 H   0  0  0  0  0  0  0  0  0  0  0  0
    2.3775   21.1007   41.1034 H   0  0  0  0  0  0  0  0  0  0  0  0
  1  3  1  0
  1 10  1  0
  2  7  1  0
  5  9  1  0
  5  1  1  0
  6  2  2  0
  6 13  1  0
  7  4  1  0
  8 10  1  0
  8 16  1  0
  8  2  1  0
 11  5  1  0
 12 15  2  3
 13  4  2  0
 14 16  1  0
 15  6  1  0
 17 11  1  0
 17  9  1  0
 18 17  2  0
  1 19  1  0
  3 20  1  0
  3 21  1  0
  3 22  1  0
  4 23  1  0
  5 24  1  0
  8 25  1  0
 10 26  1  0
 10 27  1  0
 11 28  1  0
 12 29  1  0
 12 30  1  0
 14 31  1  0
 15 32  1  0
 16 33  1  0
 16 34  1  0
M  END
>  <mol_id>  (52) 
2026-09-18-3war-s0-n100-refligand-seed1-0052

>  <rmsd_to_ref>  (52) 


$$$$

     RDKit          3D

 29 30  0  0  0  0  0  0  0  0999 V2000
    3.3600   20.0730   36.5960 O   0  0  0  0  0  0  0  0  0  0  0  0
    2.9980   19.5280   37.5240 C   0  0  0  0  0  0  0  0  0  0  0  0
    0.7320   19.2190   41.5510 C   0  0  0  0  0  0  0  0  0  0  0  0
    2.8440   17.3230   38.7880 C   0  0  0  0  0  0  0  0  0  0  0  0
   -0.8510   18.3330   44.8130 C   0  0  0  0  0  0  0  0  0  0  0  0
    2.4910   20.1540   38.6360 C   0  0  0  0  0  0  0  0  0  0  0  0
   -0.8450   20.4000   43.4640 C   0  0  0  0  0  0  0  0  0  0  0  0
    2.2610   17.5320   40.0060 C   0  0  0  0  0  0  0  0  0  0  0  0
    3.8160   17.6200   36.7280 O   0  0  0  0  0  0  0  0  0  0  0  0
    1.9110   19.5590   39.6310 C   0  0  0  0  0  0  0  0  0  0  0  0
    0.2910   18.5570   42.6310 C   0  0  0  0  0  0  0  0  0  0  0  0
    0.9140   21.4010   40.6290 O   0  0  0  0  0  0  0  0  0  0  0  0
    3.2540   18.1940   37.7240 C   0  0  0  0  0  0  0  0  0  0  0  0
   -0.4300   19.1160   43.6400 C   0  0  0  0  0  0  0  0  0  0  0  0
   -0.4680   21.1600   42.4290 C   0  0  0  0  0  0  0  0  0  0  0  0
    0.4410   20.6350   41.5030 C   0  0  0  0  0  0  0  0  0  0  0  0
    1.5380   18.6230   40.4690 C   0  0  0  0  0  0  0  0  0  0  0  0
    3.7699   16.7865   39.0428 H   0  0  0  0  0  0  0  0  0  0  0  0
    1.9296   16.9678   38.2903 H   0  0  0  0  0  0  0  0  0  0  0  0
   -0.5645   18.8659   45.7316 H   0  0  0  0  0  0  0  0  0  0  0  0
   -1.9426   18.1993   44.7920 H   0  0  0  0  0  0  0  0  0  0  0  0
   -0.3605   17.3486   44.7920 H   0  0  0  0  0  0  0  0  0  0  0  0
    2.5846   21.2488   38.6866 H   0  0  0  0  0  0  0  0  0  0  0  0
   -1.5252   20.8355   44.2107 H   0  0  0  0  0  0  0  0  0  0  0  0
    1.5725   16.6824   40.1247 H   0  0  0  0  0  0  0  0  0  0  0  0
    3.1815   17.7103   40.5813 H   0  0  0  0  0  0  0  0  0  0  0  0
    0.5294   17.4858   42.7061 H   0  0  0  0  0  0  0  0  0  0  0  0
   -1.3594   18.7522   43.1774 H   0  0  0  0  0  0  0  0  0  0  0  0
   -0.8652   22.1786   42.3082 H   0  0  0  0  0  0  0  0  0  0  0  0
  1  2  2  0
  2 13  1  0
  2  6  1  0
  3 11  2  0
  4  8  1  0
  6 10  2  0
  7 14  1  0
  8 17  1  0
  9 13  2  0
 10 17  2  0
 11 14  1  0
 12 16  2  0
 13  4  1  0
 14  5  1  0
 15  7  2  0
 16  3  1  0
 16 15  1  0
 17  3  1  0
  4 18  1  0
  4 19  1  0
  5 20  1  0
  5 21  1  0
  5 22  1  0
  6 23  1  0
  7 24  1  0
  8 25  1  0
  8 26  1  0
 11 27  1  0
 14 28  1  0
 15 29  1  0
M  END
>  <mol_id>  (53) 
2026-09-18-3war-s0-n100-refligand-seed1-0053

>  <rmsd_to_ref>  (53) 


$$$$

     RDKit          3D

 46 47  0  0  0  0  0  0  0  0999 V2000
    3.4950   15.1430   37.9530 N   0  0  0  0  0  0  0  0  0  0  0  0
    2.3510   19.9710   38.6490 N   0  0  0  0  0  0  0  0  0  0  0  0
   -0.7290   19.6750   44.1960 C   0  0  0  0  0  0  0  0  0  0  0  0
   -0.4850   20.6210   43.3160 N   0  0  0  0  0  0  0  0  0  0  0  0
    5.1370   14.5930   36.4250 O   0  0  0  0  0  0  0  0  0  0  0  0
    2.7800   18.7440   38.3080 C   0  0  0  0  0  0  0  0  0  0  0  0
    1.7050   20.1010   39.8450 C   0  0  0  0  0  0  0  0  0  0  0  0
    0.5170   21.5230   41.4020 C   0  0  0  0  0  0  0  0  0  0  0  0
   -1.4390   19.8740   45.2210 O   0  0  0  0  0  0  0  0  0  0  0  0
    3.6640   17.2410   36.7530 C   0  0  0  0  0  0  0  0  0  0  0  0
    2.3920   15.9200   39.8930 C   0  0  0  0  0  0  0  0  0  0  0  0
    1.2690   21.3770   40.1790 C   0  0  0  0  0  0  0  0  0  0  0  0
    2.6500   17.1890   39.0320 O   0  0  0  0  0  0  0  0  0  0  0  0
    3.3650   16.4670   37.8720 C   0  0  0  0  0  0  0  0  0  0  0  0
    0.7350   19.1570   41.9040 C   0  0  0  0  0  0  0  0  0  0  0  0
    3.4800   19.6350   36.2040 O   0  0  0  0  0  0  0  0  0  0  0  0
    3.4930   12.9360   37.0140 C   0  0  0  0  0  0  0  0  0  0  0  0
    3.8730   12.1640   35.7640 C   0  0  0  0  0  0  0  0  0  0  0  0
   -0.2530   18.3690   43.9310 C   0  0  0  0  0  0  0  0  0  0  0  0
    0.4400   18.0850   42.7550 C   0  0  0  0  0  0  0  0  0  0  0  0
    0.9980   16.7140   42.6120 C   0  0  0  0  0  0  0  0  0  0  0  0
    4.1180   14.2970   37.1020 C   0  0  0  0  0  0  0  0  0  0  0  0
    0.2150   20.3880   42.1920 C   0  0  0  0  0  0  0  0  0  0  0  0
    3.3170   18.6100   37.0260 C   0  0  0  0  0  0  0  0  0  0  0  0
    1.4180   18.9670   40.6700 C   0  0  0  0  0  0  0  0  0  0  0  0
    2.5035   20.7818   38.0323 H   0  0  0  0  0  0  0  0  0  0  0  0
   -0.8415   21.5709   43.4934 H   0  0  0  0  0  0  0  0  0  0  0  0
    2.7119   17.8921   39.0006 H   0  0  0  0  0  0  0  0  0  0  0  0
    0.1774   22.5194   41.7213 H   0  0  0  0  0  0  0  0  0  0  0  0
    3.0870   16.8792   35.8891 H   0  0  0  0  0  0  0  0  0  0  0  0
    4.7377   17.1674   36.5255 H   0  0  0  0  0  0  0  0  0  0  0  0
    2.4456   16.1835   40.9596 H   0  0  0  0  0  0  0  0  0  0  0  0
    1.3938   15.5184   39.6642 H   0  0  0  0  0  0  0  0  0  0  0  0
    3.1541   15.1605   39.6642 H   0  0  0  0  0  0  0  0  0  0  0  0
    1.4884   22.2423   39.5363 H   0  0  0  0  0  0  0  0  0  0  0  0
    3.2080   20.5441   36.4863 H   0  0  0  0  0  0  0  0  0  0  0  0
    3.8094   12.3523   37.8910 H   0  0  0  0  0  0  0  0  0  0  0  0
    2.4040   13.0867   36.9772 H   0  0  0  0  0  0  0  0  0  0  0  0
    4.3421   11.2110   36.0500 H   0  0  0  0  0  0  0  0  0  0  0  0
    2.9704   11.9640   35.1679 H   0  0  0  0  0  0  0  0  0  0  0  0
    4.5820   12.7573   35.1679 H   0  0  0  0  0  0  0  0  0  0  0  0
   -0.4321   17.5672   44.6625 H   0  0  0  0  0  0  0  0  0  0  0  0
    1.1732   16.2836   43.6090 H   0  0  0  0  0  0  0  0  0  0  0  0
    0.2849   16.0836   42.0606 H   0  0  0  0  0  0  0  0  0  0  0  0
    1.9487   16.7607   42.0606 H   0  0  0  0  0  0  0  0  0  0  0  0
    1.7224   17.9585   40.3533 H   0  0  0  0  0  0  0  0  0  0  0  0
  2  7  1  0
  3  9  2  0
  4  3  1  0
  5 22  2  0
  6  2  1  0
  7 12  2  0
  7 25  1  0
  8 23  2  0
 10 24  1  0
 10 14  1  0
 12  8  1  0
 13 11  1  0
 14  1  2  3
 14 13  1  0
 15 23  1  0
 15 20  1  0
 16 24  1  0
 17 22  1  0
 18 17  1  0
 19  3  1  0
 20 19  2  0
 21 20  1  0
 22  1  1  0
 23  4  1  0
 24  6  2  3
 25 15  2  0
  2 26  1  0
  4 27  1  0
  6 28  1  0
  8 29  1  0
 10 30  1  0
 10 31  1  0
 11 32  1  0
 11 33  1  0
 11 34  1  0
 12 35  1  0
 16 36  1  0
 17 37  1  0
 17 38  1  0
 18 39  1  0
 18 40  1  0
 18 41  1  0
 19 42  1  0
 21 43  1  0
 21 44  1  0
 21 45  1  0
 25 46  1  0
M  END
>  <mol_id>  (54) 
2026-09-18-3war-s0-n100-refligand-seed1-0054

>  <rmsd_to_ref>  (54) 


$$$$

     RDKit          3D

 14 14  0  0  0  0  0  0  0  0999 V2000
    3.5320   18.6780   38.3990 C   0  0  0  0  0  0  0  0  0  0  0  0
    1.7880   20.6040   41.0620 O   0  0  0  0  0  0  0  0  0  0  0  0
    2.1190   20.2340   39.8490 C   0  0  0  0  0  0  0  0  0  0  0  0
    2.2150   21.3950   36.3580 O   0  0  0  0  0  0  0  0  0  0  0  0
    2.4600   20.6490   37.4220 C   0  0  0  0  0  0  0  0  0  0  0  0
    3.3520   19.5310   37.3090 C   0  0  0  0  0  0  0  0  0  0  0  0
    2.9650   18.9950   39.6300 C   0  0  0  0  0  0  0  0  0  0  0  0
    1.8850   20.9870   38.7040 C   0  0  0  0  0  0  0  0  0  0  0  0
    4.1213   17.7562   38.2853 H   0  0  0  0  0  0  0  0  0  0  0  0
    1.2354   21.4139   41.1990 H   0  0  0  0  0  0  0  0  0  0  0  0
    2.6131   21.1561   35.4836 H   0  0  0  0  0  0  0  0  0  0  0  0
    3.8913   19.3470   36.3681 H   0  0  0  0  0  0  0  0  0  0  0  0
    3.1380   18.3182   40.4797 H   0  0  0  0  0  0  0  0  0  0  0  0
    1.2378   21.8735   38.7766 H   0  0  0  0  0  0  0  0  0  0  0  0
  1  7  2  0
  3  2  1  0
  4  5  1  0
  5  8  1  0
  6  5  2  0
  6  1  1  0
  7  3  1  0
  8  3  2  0
  1  9  1  0
  2 10  1  0
  4 11  1  0
  6 12  1  0
  7 13  1  0
  8 14  1  0
M  END
>  <mol_id>  (55) 
2026-09-18-3war-s0-n100-refligand-seed1-0055

>  <rmsd_to_ref>  (55) 


$$$$

     RDKit          3D

 28 31  0  0  0  0  0  0  0  0999 V2000
    1.5030   16.2320   42.0060 O   0  0  0  0  0  0  0  0  0  0  0  0
    1.3550   18.2490   41.1900 C   0  0  0  0  0  0  0  0  0  0  0  0
    0.9860   17.4860   42.2860 C   0  0  0  0  0  0  0  0  0  0  0  0
    2.7400   20.0610   37.5660 C   0  0  0  0  0  0  0  0  0  0  0  0
    0.1880   18.1090   43.3480 C   0  0  0  0  0  0  0  0  0  0  0  0
    2.7710   18.1190   39.1490 C   0  0  0  0  0  0  0  0  0  0  0  0
    1.5230   20.1670   39.7840 C   0  0  0  0  0  0  0  0  0  0  0  0
    0.1980   20.2800   42.0540 C   0  0  0  0  0  0  0  0  0  0  0  0
    2.2190   17.6270   40.2930 N   0  0  0  0  0  0  0  0  0  0  0  0
    1.3250   21.9890   38.1780 C   0  0  0  0  0  0  0  0  0  0  0  0
   -0.4470   19.4150   43.0260 C   0  0  0  0  0  0  0  0  0  0  0  0
    2.1500   21.2380   37.2680 C   0  0  0  0  0  0  0  0  0  0  0  0
    3.4910   19.4860   36.7120 O   0  0  0  0  0  0  0  0  0  0  0  0
    2.3530   21.7200   35.9950 F   0  0  0  0  0  0  0  0  0  0  0  0
    2.4800   19.4830   38.8730 C   0  0  0  0  0  0  0  0  0  0  0  0
    1.0140   21.4190   39.4120 C   0  0  0  0  0  0  0  0  0  0  0  0
    3.4890   17.5450   38.4550 O   0  0  0  0  0  0  0  0  0  0  0  0
    1.0070   19.5450   41.0810 C   0  0  0  0  0  0  0  0  0  0  0  0
    2.6000   15.3680   40.1330 O   0  0  0  0  0  0  0  0  0  0  0  0
    2.1560   16.3050   40.7790 C   0  0  0  0  0  0  0  0  0  0  0  0
    0.0655   17.6342   44.3327 H   0  0  0  0  0  0  0  0  0  0  0  0
   -0.5792   20.8391   41.5124 H   0  0  0  0  0  0  0  0  0  0  0  0
    0.8751   20.9478   42.6067 H   0  0  0  0  0  0  0  0  0  0  0  0
    0.9497   22.9868   37.9068 H   0  0  0  0  0  0  0  0  0  0  0  0
   -0.5194   19.9811   43.9664 H   0  0  0  0  0  0  0  0  0  0  0  0
   -1.3999   19.1401   42.5502 H   0  0  0  0  0  0  0  0  0  0  0  0
    3.4511   19.8637   39.2223 H   0  0  0  0  0  0  0  0  0  0  0  0
    0.3567   21.9622   40.1068 H   0  0  0  0  0  0  0  0  0  0  0  0
  1  3  1  0
  2  3  1  0
  3  5  2  0
  6  9  1  0
  7 18  1  0
  8 11  1  0
  9 20  1  0
  9  2  1  0
 10 16  1  0
 11  5  1  0
 12  4  1  0
 12 10  2  0
 13  4  2  0
 14 12  1  0
 15  4  1  0
 15  6  1  0
 15  7  1  0
 16  7  2  0
 17  6  2  0
 18  2  2  0
 18  8  1  0
 19 20  2  0
 20  1  1  0
  5 21  1  0
  8 22  1  0
  8 23  1  0
 10 24  1  0
 11 25  1  0
 11 26  1  0
 15 27  1  0
 16 28  1  0
M  END
>  <mol_id>  (56) 
2026-09-18-3war-s0-n100-refligand-seed1-0056

>  <rmsd_to_ref>  (56) 


$$$$

     RDKit          3D

 21 21  0  0  0  0  0  0  0  0999 V2000
    2.3200   19.4930   39.9970 C   0  0  0  0  0  0  0  0  0  0  0  0
    2.0770   19.5690   37.2690 O   0  0  0  0  0  0  0  0  0  0  0  0
    1.7140   20.8630   39.7840 C   0  0  0  0  0  0  0  0  0  0  0  0
    3.4280   19.1540   39.3840 C   0  0  0  0  0  0  0  0  0  0  0  0
    3.5740   16.9310   38.3550 O   0  0  0  0  0  0  0  0  0  0  0  0
    0.5970   19.7680   41.6260 C   0  0  0  0  0  0  0  0  0  0  0  0
    1.5150   18.5130   40.9400 S   0  0  0  0  0  0  0  0  0  0  0  0
    3.0220   18.4440   37.8590 P   0  0  0  0  0  5  0  0  0  0  0  0
    0.9040   21.0750   40.9620 C   0  0  0  0  0  0  0  0  0  0  0  0
    3.8790   18.2800   36.6380 O   0  0  0  0  0  0  0  0  0  0  0  0
    1.7352   19.1427   39.1337 H   0  0  0  0  0  0  0  0  0  0  0  0
    1.6563   20.0698   38.0122 H   0  0  0  0  0  0  0  0  0  0  0  0
    2.4989   21.6298   39.7062 H   0  0  0  0  0  0  0  0  0  0  0  0
    1.1317   20.9279   38.8530 H   0  0  0  0  0  0  0  0  0  0  0  0
    4.0502   20.0467   39.2230 H   0  0  0  0  0  0  0  0  0  0  0  0
    3.9899   18.4330   39.9959 H   0  0  0  0  0  0  0  0  0  0  0  0
    3.5879   16.8928   39.3442 H   0  0  0  0  0  0  0  0  0  0  0  0
   -0.4724   19.5424   41.5013 H   0  0  0  0  0  0  0  0  0  0  0  0
    0.8494   19.8468   42.6937 H   0  0  0  0  0  0  0  0  0  0  0  0
    1.4500   21.7200   41.6662 H   0  0  0  0  0  0  0  0  0  0  0  0
   -0.0401   21.5548   40.6646 H   0  0  0  0  0  0  0  0  0  0  0  0
  1  4  1  0
  1  7  1  0
  2  8  1  0
  3  1  1  0
  3  9  1  0
  7  6  1  0
  8  5  1  0
  8  4  1  0
  9  6  1  0
 10  8  2  0
  1 11  1  0
  2 12  1  0
  3 13  1  0
  3 14  1  0
  4 15  1  0
  4 16  1  0
  5 17  1  0
  6 18  1  0
  6 19  1  0
  9 20  1  0
  9 21  1  0
M  END
>  <mol_id>  (57) 
2026-09-18-3war-s0-n100-refligand-seed1-0057

>  <rmsd_to_ref>  (57) 


$$$$

     RDKit          3D

 21 21  0  0  0  0  0  0  0  0999 V2000
    2.2120   18.5300   40.5240 C   0  0  0  0  0  0  0  0  0  0  0  0
    2.7580   18.3000   39.0940 C   0  0  0  0  0  0  0  0  0  0  0  0
    3.2980   17.2400   38.2930 C   0  0  0  0  0  0  0  0  0  0  0  0
    1.8130   20.7450   39.3470 C   0  0  0  0  0  0  0  0  0  0  0  0
    2.0930   19.4040   38.4750 C   0  0  0  0  0  0  0  0  0  0  0  0
    3.3580   19.5020   36.7050 O   0  0  0  0  0  0  0  0  0  0  0  0
    2.0710   20.0370   40.7400 C   0  0  0  0  0  0  0  0  0  0  0  0
    2.5960   19.3660   37.5230 N   0  0  0  0  0  0  0  0  0  0  0  0
    2.9115   18.1110   41.2624 H   0  0  0  0  0  0  0  0  0  0  0  0
    1.2376   18.0341   40.6450 H   0  0  0  0  0  0  0  0  0  0  0  0
    3.7652   17.8855   39.2483 H   0  0  0  0  0  0  0  0  0  0  0  0
    3.6990   16.4529   38.9485 H   0  0  0  0  0  0  0  0  0  0  0  0
    2.5043   16.8194   37.6581 H   0  0  0  0  0  0  0  0  0  0  0  0
    4.1049   17.6347   37.6581 H   0  0  0  0  0  0  0  0  0  0  0  0
    0.7860   21.1239   39.2388 H   0  0  0  0  0  0  0  0  0  0  0  0
    2.3948   21.6478   39.1095 H   0  0  0  0  0  0  0  0  0  0  0  0
    1.0003   19.3776   38.3509 H   0  0  0  0  0  0  0  0  0  0  0  0
    4.2487   19.6610   37.1068 H   0  0  0  0  0  0  0  0  0  0  0  0
    1.2244   20.2337   41.4143 H   0  0  0  0  0  0  0  0  0  0  0  0
    2.9944   20.4324   41.1882 H   0  0  0  0  0  0  0  0  0  0  0  0
    2.5562   18.3401   37.4403 H   0  0  0  0  0  0  0  0  0  0  0  0
  1  7  1  0
  2  3  1  0
  2  1  1  0
  4  7  1  0
  5  8  1  0
  5  2  1  0
  5  4  1  0
  6  8  1  0
  1  9  1  0
  1 10  1  0
  2 11  1  0
  3 12  1  0
  3 13  1  0
  3 14  1  0
  4 15  1  0
  4 16  1  0
  5 17  1  0
  6 18  1  0
  7 19  1  0
  7 20  1  0
  8 21  1  0
M  END
>  <mol_id>  (58) 
2026-09-18-3war-s0-n100-refligand-seed1-0058

>  <rmsd_to_ref>  (58) 


$$$$

     RDKit          3D

 35 37  0  0  0  0  0  0  0  0999 V2000
    3.0620   15.7530   39.1830 O   0  0  0  0  0  0  0  0  0  0  0  0
    0.7520   18.5580   42.2970 C   0  0  0  0  0  0  0  0  0  0  0  0
    2.6850   21.4400   36.2530 O   0  0  0  0  0  0  0  0  0  0  0  0
    1.7150   19.3760   40.3120 C   0  0  0  0  0  0  0  0  0  0  0  0
    4.2000   16.9580   37.4620 O   0  0  0  0  0  0  0  0  0  0  0  0
    2.8220   18.0470   38.6920 C   0  0  0  0  0  0  0  0  0  0  0  0
    0.0480   22.0130   42.0680 O   0  0  0  0  0  0  0  0  0  0  0  0
    3.1560   14.5960   39.3100 C   0  0  0  0  0  0  0  0  0  0  0  0
    4.6370   16.6150   36.1890 O   0  0  0  0  0  0  0  0  0  0  0  0
    2.5780   16.9380   39.5570 C   0  0  0  0  0  0  0  0  0  0  0  0
    1.2800   20.6310   40.6400 C   0  0  0  0  0  0  0  0  0  0  0  0
    1.8740   17.0560   40.6510 N   0  0  0  0  0  0  0  0  0  0  0  0
    0.5310   20.8460   41.7570 C   0  0  0  0  0  0  0  0  0  0  0  0
    1.4310   18.2910   41.1230 C   0  0  0  0  0  0  0  0  0  0  0  0
    2.2180   20.3140   38.3790 C   0  0  0  0  0  0  0  0  0  0  0  0
    2.2680   19.2200   39.0810 C   0  0  0  0  0  0  0  0  0  0  0  0
    0.5140   17.4670   43.1380 O   0  0  0  0  0  0  0  0  0  0  0  0
    3.3790   19.0830   36.7390 C   0  0  0  0  0  0  0  0  0  0  0  0
    3.4510   17.9760   37.5990 C   0  0  0  0  0  0  0  0  0  0  0  0
   -0.3840   17.8630   44.1780 C   0  0  0  0  0  0  0  0  0  0  0  0
    2.7230   20.3190   37.0950 C   0  0  0  0  0  0  0  0  0  0  0  0
    0.3160   19.7800   42.5750 C   0  0  0  0  0  0  0  0  0  0  0  0
    2.2210   22.2639   36.5463 H   0  0  0  0  0  0  0  0  0  0  0  0
   -0.4915   22.1221   42.8908 H   0  0  0  0  0  0  0  0  0  0  0  0
    3.1764   14.3451   40.3808 H   0  0  0  0  0  0  0  0  0  0  0  0
    2.2949   14.1038   38.8344 H   0  0  0  0  0  0  0  0  0  0  0  0
    4.0853   14.2492   38.8344 H   0  0  0  0  0  0  0  0  0  0  0  0
    5.4138   16.0053   36.2599 H   0  0  0  0  0  0  0  0  0  0  0  0
    1.5395   21.4803   39.9909 H   0  0  0  0  0  0  0  0  0  0  0  0
    1.7770   21.2271   38.8053 H   0  0  0  0  0  0  0  0  0  0  0  0
    3.8450   19.0051   35.7456 H   0  0  0  0  0  0  0  0  0  0  0  0
    0.0759   17.6602   45.1565 H   0  0  0  0  0  0  0  0  0  0  0  0
   -0.5969   18.9385   44.0888 H   0  0  0  0  0  0  0  0  0  0  0  0
   -1.3217   17.2949   44.0888 H   0  0  0  0  0  0  0  0  0  0  0  0
   -0.2442   19.9384   43.5083 H   0  0  0  0  0  0  0  0  0  0  0  0
  1  8  1  0
  1 10  1  0
  2 22  2  0
  2 17  1  0
  3 21  1  0
  4 11  1  0
  4 14  2  0
  5 19  1  0
  6 16  2  0
  6 10  1  0
  9  5  1  0
 10 12  2  0
 11 13  2  0
 12 14  1  0
 13  7  1  0
 13 22  1  0
 14  2  1  0
 15 16  1  0
 16  4  1  0
 17 20  1  0
 18 21  1  0
 18 19  2  0
 19  6  1  0
 21 15  2  0
  3 23  1  0
  7 24  1  0
  8 25  1  0
  8 26  1  0
  8 27  1  0
  9 28  1  0
 11 29  1  0
 15 30  1  0
 18 31  1  0
 20 32  1  0
 20 33  1  0
 20 34  1  0
 22 35  1  0
M  END
>  <mol_id>  (59) 
2026-09-18-3war-s0-n100-refligand-seed1-0059

>  <rmsd_to_ref>  (59) 


$$$$

     RDKit          3D

 27 29  0  0  0  0  0  0  0  0999 V2000
    1.8930   19.5370   38.9050 C   0  0  0  0  0  0  0  0  0  0  0  0
    1.1860   18.6250   41.0500 C   0  0  0  0  0  0  0  0  0  0  0  0
    3.3690   18.8270   37.2720 C   0  0  0  0  0  0  0  0  0  0  0  0
    0.1450   18.2960   43.2560 C   0  0  0  0  0  0  0  0  0  0  0  0
    3.1440   20.2080   37.1360 C   0  0  0  0  0  0  0  0  0  0  0  0
    0.4710   16.8760   43.1030 C   0  0  0  0  0  0  0  0  0  0  0  0
    1.3260   19.6770   40.1710 C   0  0  0  0  0  0  0  0  0  0  0  0
    0.5800   19.0670   42.2680 C   0  0  0  0  0  0  0  0  0  0  0  0
    1.0790   16.4080   42.0040 C   0  0  0  0  0  0  0  0  0  0  0  0
    2.4300   18.2580   38.2840 C   0  0  0  0  0  0  0  0  0  0  0  0
    2.1890   20.6320   38.1050 C   0  0  0  0  0  0  0  0  0  0  0  0
    0.3070   20.8060   42.2680 S   0  0  0  0  0  0  0  0  0  0  0  0
    1.5160   17.2630   40.9040 C   0  0  0  0  0  0  0  0  0  0  0  0
    0.9420   20.8680   40.7200 C   0  0  0  0  0  0  0  0  0  0  0  0
    3.7090   20.8490   36.2420 O   0  0  0  0  0  0  0  0  0  0  0  0
    2.8866   19.7495   39.3265 H   0  0  0  0  0  0  0  0  0  0  0  0
    4.4053   18.6565   37.5991 H   0  0  0  0  0  0  0  0  0  0  0  0
    3.2000   18.3347   36.3030 H   0  0  0  0  0  0  0  0  0  0  0  0
   -0.4136   18.6899   44.1178 H   0  0  0  0  0  0  0  0  0  0  0  0
    0.2102   16.1761   43.9105 H   0  0  0  0  0  0  0  0  0  0  0  0
    1.2578   15.3254   41.9269 H   0  0  0  0  0  0  0  0  0  0  0  0
    1.6308   17.6682   37.8114 H   0  0  0  0  0  0  0  0  0  0  0  0
    2.8901   17.5578   38.9968 H   0  0  0  0  0  0  0  0  0  0  0  0
    2.6103   21.4423   38.7181 H   0  0  0  0  0  0  0  0  0  0  0  0
    1.2803   21.0104   37.6140 H   0  0  0  0  0  0  0  0  0  0  0  0
    2.0599   16.8745   40.0304 H   0  0  0  0  0  0  0  0  0  0  0  0
    1.0446   21.8173   40.1738 H   0  0  0  0  0  0  0  0  0  0  0  0
  1  7  1  0
  2  8  2  0
  3 10  1  0
  5  3  1  0
  5 11  1  0
  6  4  2  0
  7 14  2  0
  7  2  1  0
  8 12  1  0
  8  4  1  0
  9  6  1  0
 10  1  1  0
 11  1  1  0
 13  2  1  0
 13  9  2  0
 14 12  1  0
 15  5  2  0
  1 16  1  0
  3 17  1  0
  3 18  1  0
  4 19  1  0
  6 20  1  0
  9 21  1  0
 10 22  1  0
 10 23  1  0
 11 24  1  0
 11 25  1  0
 13 26  1  0
 14 27  1  0
M  END
>  <mol_id>  (60) 
2026-09-18-3war-s0-n100-refligand-seed1-0060

>  <rmsd_to_ref>  (60) 


$$$$

     RDKit          3D

 15 14  0  0  0  0  0  0  0  0999 V2000
    1.8940   20.3290   39.3390 N   0  0  0  0  0  0  0  0  0  0  0  0
    2.9910   20.1800   36.7570 O   0  0  0  0  0  0  0  0  0  0  0  0
    3.1000   19.2240   37.4080 C   0  0  0  0  0  0  0  0  0  0  0  0
    0.8830   19.0250   40.9820 O   0  0  0  0  0  0  0  0  0  0  0  0
    3.5510   18.1070   36.9650 O   0  0  0  0  0  1  0  0  0  0  0  0
    1.7450   21.3850   38.5740 O   0  0  0  0  0  0  0  0  0  0  0  0
    2.6800   19.1940   38.9020 C   0  0  0  0  0  0  0  0  0  0  0  0
    1.2410   20.1100   40.5570 C   0  0  0  0  0  0  0  0  0  0  0  0
    0.9140   21.3650   41.4320 C   0  0  0  0  0  0  0  0  0  0  0  0
    1.6315   22.1892   39.1401 H   0  0  0  0  0  0  0  0  0  0  0  0
    2.0876   18.2828   39.0718 H   0  0  0  0  0  0  0  0  0  0  0  0
    3.6127   19.2230   39.4845 H   0  0  0  0  0  0  0  0  0  0  0  0
    0.9836   21.0978   42.4968 H   0  0  0  0  0  0  0  0  0  0  0  0
    1.6334   22.1662   41.2072 H   0  0  0  0  0  0  0  0  0  0  0  0
   -0.1049   21.7133   41.2072 H   0  0  0  0  0  0  0  0  0  0  0  0
  1  8  1  0
  2  3  2  0
  3  7  1  0
  5  3  1  0
  6  1  1  0
  7  1  1  0
  8  4  2  0
  8  9  1  0
  6 10  1  0
  7 11  1  0
  7 12  1  0
  9 13  1  0
  9 14  1  0
  9 15  1  0
M  CHG  1   5  -1
M  END
>  <mol_id>  (61) 
2026-09-18-3war-s0-n100-refligand-seed1-0061

>  <rmsd_to_ref>  (61) 


$$$$

     RDKit          3D

 19 19  0  0  0  0  0  0  0  0999 V2000
    2.5290   21.1390   36.4660 C   0  0  0  0  0  0  0  0  0  0  0  0
    3.6300   17.6170   37.8440 O   0  0  0  0  0  0  0  0  0  0  0  0
    2.9620   20.1660   37.2860 N   0  0  0  0  0  0  0  0  0  0  0  0
    2.9490   18.4700   38.7770 C   0  0  0  0  0  0  0  0  0  0  0  0
    1.9460   18.6060   40.8820 C   0  0  0  0  0  0  0  0  0  0  0  0
    1.8630   20.5190   39.4120 C   0  0  0  0  0  0  0  0  0  0  0  0
    1.5040   21.7650   36.8270 O   0  0  0  0  0  1  0  0  0  0  0  0
    0.7210   20.7700   41.8060 Cl  0  0  0  0  0  0  0  0  0  0  0  0
    3.1310   21.4270   35.4020 O   0  0  0  0  0  0  0  0  0  0  0  0
    2.6860   17.8420   39.9650 C   0  0  0  0  0  0  0  0  0  0  0  0
    2.6040   19.7100   38.4840 C   0  0  0  0  0  0  0  0  0  0  0  0
    1.6130   19.8190   40.6320 C   0  0  0  0  0  0  0  0  0  0  0  0
    2.8710   16.4460   40.0400 N   0  0  0  0  0  0  0  0  0  0  0  0
    3.8747   17.9593   36.9479 H   0  0  0  0  0  0  0  0  0  0  0  0
    3.7622   19.6499   36.8933 H   0  0  0  0  0  0  0  0  0  0  0  0
    1.6446   18.1530   41.8380 H   0  0  0  0  0  0  0  0  0  0  0  0
    1.5302   21.5476   39.2087 H   0  0  0  0  0  0  0  0  0  0  0  0
    2.6807   15.9479   40.9212 H   0  0  0  0  0  0  0  0  0  0  0  0
    3.1964   15.9245   39.2135 H   0  0  0  0  0  0  0  0  0  0  0  0
  1  7  1  0
  1  3  1  0
  2  4  1  0
  3 11  1  0
  4 10  2  0
  6 12  1  0
  9  1  2  0
 10 13  1  0
 10  5  1  0
 11  4  1  0
 11  6  2  0
 12  5  2  0
 12  8  1  0
  2 14  1  0
  3 15  1  0
  5 16  1  0
  6 17  1  0
 13 18  1  0
 13 19  1  0
M  CHG  1   7  -1
M  END
>  <mol_id>  (62) 
2026-09-18-3war-s0-n100-refligand-seed1-0062

>  <rmsd_to_ref>  (62) 


$$$$

     RDKit          3D

 14 14  0  0  0  0  0  0  0  0999 V2000
    0.8310   20.9460   41.4960 C   0  0  0  0  0  0  0  0  0  0  0  0
    0.7090   19.6540   41.9640 C   0  0  0  0  0  0  0  0  0  0  0  0
    3.2410   19.0640   36.6740 O   0  0  0  0  0  0  0  0  0  0  0  0
    1.5730   18.5780   40.8610 S   0  0  0  0  0  0  0  0  0  0  0  0
    1.5250   21.1020   40.2960 C   0  0  0  0  0  0  0  0  0  0  0  0
    2.3190   20.9440   37.0930 O   0  0  0  0  0  1  0  0  0  0  0  0
    2.8300   19.5300   38.8760 C   0  0  0  0  0  0  0  0  0  0  0  0
    4.2590   18.5040   39.3120 Cl  0  0  0  0  0  0  0  0  0  0  0  0
    2.7480   19.8940   37.5210 C   0  0  0  0  0  0  0  0  0  0  0  0
    1.9630   19.9070   39.8810 C   0  0  0  0  0  0  0  0  0  0  0  0
    0.4056   21.8036   42.0378 H   0  0  0  0  0  0  0  0  0  0  0  0
    0.1661   19.3462   42.8698 H   0  0  0  0  0  0  0  0  0  0  0  0
    1.6868   22.0563   39.7733 H   0  0  0  0  0  0  0  0  0  0  0  0
    2.2325   18.6232   38.7007 H   0  0  0  0  0  0  0  0  0  0  0  0
  1  2  2  0
  3  9  2  0
  4  2  1  0
  5  1  1  0
  6  9  1  0
  7  8  1  0
  7 10  1  0
  9  7  1  0
 10  5  2  0
 10  4  1  0
  1 11  1  0
  2 12  1  0
  5 13  1  0
  7 14  1  0
M  CHG  1   6  -1
M  END
>  <mol_id>  (63) 
2026-09-18-3war-s0-n100-refligand-seed1-0063

>  <rmsd_to_ref>  (63) 


$$$$

     RDKit          3D

 43 48  0  0  0  0  0  0  0  0999 V2000
    1.7430   20.6180   39.8440 O   0  0  0  0  0  0  0  0  0  0  0  0
   -0.5380   19.2240   43.9550 C   0  0  0  0  0  0  0  0  0  0  0  0
    2.9870   19.0690   37.1670 C   0  0  0  0  0  0  0  0  0  0  0  0
    3.7090   16.3470   36.8520 O   0  0  0  0  0  0  0  0  0  0  0  0
    0.9150   19.3420   41.1460 C   0  0  0  0  0  0  0  0  0  0  0  0
    2.1230   16.1750   39.9040 C   0  0  0  0  0  0  0  0  0  0  0  0
    3.2290   21.7160   34.7870 C   0  0  0  0  0  0  0  0  0  0  0  0
   -0.0860   17.8550   43.6820 C   0  0  0  0  0  0  0  0  0  0  0  0
    2.8550   15.7310   38.8380 C   0  0  0  0  0  0  0  0  0  0  0  0
   -0.4400   20.2420   42.9850 C   0  0  0  0  0  0  0  0  0  0  0  0
    2.2530   18.3200   39.3710 C   0  0  0  0  0  0  0  0  0  0  0  0
    0.1850   20.2660   41.8020 C   0  0  0  0  0  0  0  0  0  0  0  0
    1.0580   18.1390   41.4510 C   0  0  0  0  0  0  0  0  0  0  0  0
    3.5840   21.3110   35.8520 C   0  0  0  0  0  0  0  0  0  0  0  0
    2.5350   20.2850   37.5740 C   0  0  0  0  0  0  0  0  0  0  0  0
    0.6110   17.5010   42.5810 C   0  0  0  0  0  0  0  0  0  0  0  0
   -1.0450   19.4840   45.1530 O   0  0  0  0  0  0  0  0  0  0  0  0
    4.0810   20.9590   34.9780 O   0  0  0  0  0  0  0  0  0  0  0  0
   -0.5260   16.9200   45.8670 N   0  0  0  0  0  0  0  0  0  0  0  0
   -0.4900   16.8910   44.6950 C   0  0  0  0  0  0  0  0  0  0  0  0
    2.6600   21.3910   36.7380 N   0  0  0  0  0  4  0  0  0  0  0  0
    1.7380   19.5140   39.7460 C   0  0  0  0  0  0  0  0  0  0  0  0
    2.8380   18.0240   38.1520 C   0  0  0  0  0  0  0  0  0  0  0  0
    3.2640   16.7100   37.9460 C   0  0  0  0  0  0  0  0  0  0  0  0
    1.8120   17.3860   40.2770 C   0  0  0  0  0  0  0  0  0  0  0  0
    1.9370   20.2370   38.8260 C   0  0  0  0  0  0  0  0  0  0  0  0
    3.4277   18.8965   36.1740 H   0  0  0  0  0  0  0  0  0  0  0  0
    1.7314   15.3795   40.5550 H   0  0  0  0  0  0  0  0  0  0  0  0
    3.4478   22.7469   34.4717 H   0  0  0  0  0  0  0  0  0  0  0  0
    2.2969   21.7593   34.2044 H   0  0  0  0  0  0  0  0  0  0  0  0
    0.8425   18.0506   44.2384 H   0  0  0  0  0  0  0  0  0  0  0  0
    3.7538   15.2314   39.2286 H   0  0  0  0  0  0  0  0  0  0  0  0
    2.1887   15.0646   38.2706 H   0  0  0  0  0  0  0  0  0  0  0  0
   -0.9655   21.1730   43.2439 H   0  0  0  0  0  0  0  0  0  0  0  0
    0.0840   21.2197   41.2632 H   0  0  0  0  0  0  0  0  0  0  0  0
    4.1052   21.2436   36.8183 H   0  0  0  0  0  0  0  0  0  0  0  0
    0.8898   16.4370   42.5926 H   0  0  0  0  0  0  0  0  0  0  0  0
   -1.3593   20.3974   45.3699 H   0  0  0  0  0  0  0  0  0  0  0  0
   -0.8568   16.0983   46.3926 H   0  0  0  0  0  0  0  0  0  0  0  0
   -0.8335   15.9350   44.2730 H   0  0  0  0  0  0  0  0  0  0  0  0
    2.8549   22.2135   37.3266 H   0  0  0  0  0  0  0  0  0  0  0  0
    1.7734   21.4541   36.2175 H   0  0  0  0  0  0  0  0  0  0  0  0
    1.8215   20.5403   37.7750 H   0  0  0  0  0  0  0  0  0  0  0  0
  2 17  1  0
  3 15  2  0
  3 23  1  0
  4 24  2  0
  5 13  1  0
  5 12  2  0
  6 25  2  0
  7 18  1  0
  7 14  1  0
  8  2  1  0
  8 20  1  0
  9  6  1  0
 10  2  2  0
 11 25  1  0
 12 10  1  0
 13 16  2  0
 14 21  1  0
 16  8  1  0
 18 14  1  0
 20 19  2  3
 21 15  1  0
 22 11  1  0
 22  1  1  0
 22  5  1  0
 23 11  2  0
 24 23  1  0
 24  9  1  0
 25 13  1  0
 26 15  1  0
 26 22  1  0
 26  1  1  0
  3 27  1  0
  6 28  1  0
  7 29  1  0
  7 30  1  0
  8 31  1  0
  9 32  1  0
  9 33  1  0
 10 34  1  0
 12 35  1  0
 14 36  1  0
 16 37  1  0
 17 38  1  0
 19 39  1  0
 20 40  1  0
 21 41  1  0
 21 42  1  0
 26 43  1  0
M  CHG  1  21   1
M  END
>  <mol_id>  (64) 
2026-09-18-3war-s0-n100-refligand-seed1-0064

>  <rmsd_to_ref>  (64) 


$$$$

     RDKit          3D

 53 57  0  0  0  0  0  0  0  0999 V2000
    0.5800   14.5400   41.5150 C   0  0  0  0  0  0  0  0  0  0  0  0
    1.2680   20.0890   40.6110 C   0  0  0  0  0  0  0  0  0  0  0  0
    3.0020   14.4690   34.9870 O   0  0  0  0  0  0  0  0  0  0  0  0
    1.1370   18.1090   41.8200 C   0  0  0  0  0  0  0  0  0  0  0  0
   -1.0350   20.4370   44.0150 N   0  0  0  0  0  0  0  0  0  0  0  0
    2.2380   21.5650   37.0070 C   0  0  0  0  0  0  0  0  0  0  0  0
   -0.8960   21.5440   43.2280 C   0  0  0  0  0  0  0  0  0  0  0  0
    2.0920   15.1900   39.7140 C   0  0  0  0  0  0  0  0  0  0  0  0
   -0.1150   21.5320   41.9980 N   0  0  0  0  0  0  0  0  0  0  0  0
    2.2460   22.4850   34.9870 O   0  0  0  0  0  0  0  0  0  0  0  0
    3.5770   19.6990   35.6990 C   0  0  0  0  0  0  0  0  0  0  0  0
    1.7900   18.7790   40.6380 C   0  0  0  0  0  0  0  0  0  0  0  0
    2.8720   20.9260   35.7830 C   0  0  0  0  0  0  0  0  0  0  0  0
    0.4760   20.3100   41.6610 C   0  0  0  0  0  0  0  0  0  0  0  0
    2.9110   19.3340   38.1310 C   0  0  0  0  0  0  0  0  0  0  0  0
    4.0720   15.8960   36.9170 N   0  0  0  0  0  0  0  0  0  0  0  0
    1.6440   20.9190   39.4840 N   0  0  0  0  0  0  0  0  0  0  0  0
    3.5730   18.8500   36.9770 C   0  0  0  0  0  0  0  0  0  0  0  0
    2.9840   14.5040   38.5730 C   0  0  0  0  0  0  0  0  0  0  0  0
    1.5080   14.5970   40.5230 O   0  0  0  0  0  0  0  0  0  0  0  0
   -0.7710   17.0430   46.9610 C   0  0  0  0  0  0  0  0  0  0  0  0
    2.2230   20.5950   38.1580 C   0  0  0  0  0  0  0  0  0  0  0  0
    4.3130   16.9440   38.9500 O   0  0  0  0  0  0  0  0  0  0  0  0
    3.2760   15.1770   36.1990 C   0  0  0  0  0  0  0  0  0  0  0  0
    2.7460   18.5960   39.4500 C   0  0  0  0  0  0  0  0  0  0  0  0
    2.6090   15.0650   37.2750 N   0  0  0  0  0  0  0  0  0  0  0  0
    3.1720   17.3340   39.3140 C   0  0  0  0  0  0  0  0  0  0  0  0
    0.3480   19.0970   42.4330 C   0  0  0  0  0  0  0  0  0  0  0  0
    2.7190   21.6340   34.7220 N   0  0  0  0  0  0  0  0  0  0  0  0
    2.1620   16.6080   39.5570 N   0  0  0  0  0  0  0  0  0  0  0  0
   -0.5930   18.2160   44.5840 N   0  0  0  0  0  0  0  0  0  0  0  0
   -0.5070   18.2850   46.0580 C   0  0  0  0  0  0  0  0  0  0  0  0
   -0.5210   19.2460   43.7590 C   0  0  0  0  0  0  0  0  0  0  0  0
    1.0850   14.5710   42.4917 H   0  0  0  0  0  0  0  0  0  0  0  0
   -0.1030   15.3979   41.4279 H   0  0  0  0  0  0  0  0  0  0  0  0
    0.0072   13.6050   41.4279 H   0  0  0  0  0  0  0  0  0  0  0  0
    1.2540   17.0623   42.1373 H   0  0  0  0  0  0  0  0  0  0  0  0
    1.8453   22.5918   37.0465 H   0  0  0  0  0  0  0  0  0  0  0  0
   -1.3910   22.4777   43.5332 H   0  0  0  0  0  0  0  0  0  0  0  0
    1.2146   15.1506   39.0517 H   0  0  0  0  0  0  0  0  0  0  0  0
    2.2104   22.5491   35.9743 H   0  0  0  0  0  0  0  0  0  0  0  0
    4.0913   19.3778   34.7812 H   0  0  0  0  0  0  0  0  0  0  0  0
    4.8970   16.4808   37.1128 H   0  0  0  0  0  0  0  0  0  0  0  0
    4.0800   17.8740   36.9964 H   0  0  0  0  0  0  0  0  0  0  0  0
    4.0483   14.7028   38.7673 H   0  0  0  0  0  0  0  0  0  0  0  0
    2.8147   13.4171   38.5715 H   0  0  0  0  0  0  0  0  0  0  0  0
   -0.7082   17.3386   48.0187 H   0  0  0  0  0  0  0  0  0  0  0  0
   -1.7741   16.6435   46.7509 H   0  0  0  0  0  0  0  0  0  0  0  0
   -0.0171   16.2700   46.7509 H   0  0  0  0  0  0  0  0  0  0  0  0
   -0.5106   18.7945   41.8154 H   0  0  0  0  0  0  0  0  0  0  0  0
    3.0242   21.3789   33.7719 H   0  0  0  0  0  0  0  0  0  0  0  0
    1.2679   17.1099   39.6548 H   0  0  0  0  0  0  0  0  0  0  0  0
   -0.2485   19.2432   46.5323 H   0  0  0  0  0  0  0  0  0  0  0  0
  2 12  1  0
  2 14  2  0
  3 24  2  0
  6 22  1  0
  7  5  1  0
  8 19  1  0
  8 20  1  0
  9  7  2  0
 11 13  1  0
 11 18  2  0
 12  4  2  0
 13  6  2  0
 14  9  1  0
 14 28  1  0
 15 22  1  0
 15 25  2  0
 16 26  1  0
 17  2  1  0
 18 15  1  0
 20  1  1  0
 22 17  2  0
 23 27  2  0
 24 16  1  0
 24 26  1  0
 25 12  1  0
 26 19  1  0
 27 25  1  0
 27 30  1  0
 28  4  1  0
 28 33  1  0
 29 10  1  0
 29 13  1  0
 30  8  1  0
 31 32  2  3
 32 21  1  0
 33  5  2  0
 33 31  1  0
  1 34  1  0
  1 35  1  0
  1 36  1  0
  4 37  1  0
  6 38  1  0
  7 39  1  0
  8 40  1  0
 10 41  1  0
 11 42  1  0
 16 43  1  0
 18 44  1  0
 19 45  1  0
 19 46  1  0
 21 47  1  0
 21 48  1  0
 21 49  1  0
 28 50  1  0
 29 51  1  0
 30 52  1  0
 32 53  1  0
M  END
>  <mol_id>  (65) 
2026-09-18-3war-s0-n100-refligand-seed1-0065

>  <rmsd_to_ref>  (65) 


$$$$

     RDKit          3D

 40 45  0  0  0  0  0  0  0  0999 V2000
    4.5250   16.2560   36.8990 C   0  0  0  0  0  0  0  0  0  0  0  0
    0.6240   18.7470   41.7770 C   0  0  0  0  0  0  0  0  0  0  0  0
    0.6670   16.3480   41.9680 N   0  0  0  0  0  0  0  0  0  0  0  0
    2.9650   15.0840   38.8700 C   0  0  0  0  0  0  0  0  0  0  0  0
    3.0760   18.2280   38.0500 C   0  0  0  0  0  0  0  0  0  0  0  0
    2.3150   15.8770   39.8530 C   0  0  0  0  0  0  0  0  0  0  0  0
    3.1390   20.9280   35.7490 O   0  0  0  0  0  0  0  0  0  0  0  0
    1.8200   14.8590   40.5830 C   0  0  0  0  0  0  0  0  0  0  0  0
   -0.2460   18.8140   42.9060 C   0  0  0  0  0  0  0  0  0  0  0  0
    0.3000   13.9050   42.0750 O   0  0  0  0  0  0  0  0  0  0  0  0
   -0.5760   20.0530   43.3280 C   0  0  0  0  0  0  0  0  0  0  0  0
    2.8270   20.3700   36.7880 C   0  0  0  0  0  0  0  0  0  0  0  0
    3.3210   15.7800   37.5810 C   0  0  0  0  0  0  0  0  0  0  0  0
    1.0960   12.8040   42.1210 C   0  0  0  0  0  0  0  0  0  0  0  0
    3.8650   16.9250   37.9460 N   0  0  0  0  0  0  0  0  0  0  0  0
    1.8040   19.7360   39.7770 C   0  0  0  0  0  0  0  0  0  0  0  0
   -0.1230   21.2200   42.6520 N   0  0  0  0  0  0  0  0  0  0  0  0
    1.0730   19.8770   41.0450 C   0  0  0  0  0  0  0  0  0  0  0  0
    2.1620   21.1640   37.8120 C   0  0  0  0  0  0  0  0  0  0  0  0
    1.9680   17.2560   40.1210 C   0  0  0  0  0  0  0  0  0  0  0  0
    0.9180   15.0650   41.6020 C   0  0  0  0  0  0  0  0  0  0  0  0
    1.1070   17.4670   41.3020 C   0  0  0  0  0  0  0  0  0  0  0  0
    0.5950   21.0890   41.5540 C   0  0  0  0  0  0  0  0  0  0  0  0
    3.2110   19.0000   37.0300 N   0  0  0  0  0  0  0  0  0  0  0  0
    2.3620   18.4700   39.3040 C   0  0  0  0  0  0  0  0  0  0  0  0
    1.8400   20.9820   39.0250 C   0  0  0  0  0  0  0  0  0  0  0  0
    4.4764   16.6356   35.8677 H   0  0  0  0  0  0  0  0  0  0  0  0
    5.5380   15.8804   36.6922 H   0  0  0  0  0  0  0  0  0  0  0  0
    3.8960   14.6989   39.3115 H   0  0  0  0  0  0  0  0  0  0  0  0
    2.2388   14.3056   38.5930 H   0  0  0  0  0  0  0  0  0  0  0  0
    2.1462   13.8328   40.3582 H   0  0  0  0  0  0  0  0  0  0  0  0
   -0.6255   17.9092   43.4032 H   0  0  0  0  0  0  0  0  0  0  0  0
   -1.2123   20.1633   44.2185 H   0  0  0  0  0  0  0  0  0  0  0  0
    2.5393   15.2076   37.0601 H   0  0  0  0  0  0  0  0  0  0  0  0
    1.2901   12.5355   43.1699 H   0  0  0  0  0  0  0  0  0  0  0  0
    0.5931   11.9666   41.6152 H   0  0  0  0  0  0  0  0  0  0  0  0
    2.0488   13.0190   41.6152 H   0  0  0  0  0  0  0  0  0  0  0  0
    1.8692   22.1591   37.4458 H   0  0  0  0  0  0  0  0  0  0  0  0
    0.8371   22.0045   40.9944 H   0  0  0  0  0  0  0  0  0  0  0  0
    1.5496   21.8847   39.5825 H   0  0  0  0  0  0  0  0  0  0  0  0
  1 15  1  0
  2  9  2  0
  4  6  1  0
  5 25  1  0
  6 20  2  0
  6  8  1  0
  7 12  2  0
  8 21  2  0
  9 11  1  0
 10 14  1  0
 12 24  1  0
 12 19  1  0
 13  1  1  0
 13 15  1  0
 13  4  1  0
 15  5  1  0
 16 18  1  0
 17 11  2  0
 18 23  2  0
 18  2  1  0
 19 26  2  0
 20 22  1  0
 21  3  1  0
 21 10  1  0
 22  2  1  0
 22  3  2  0
 23 17  1  0
 24  5  2  0
 25 16  2  0
 25 20  1  0
 26 16  1  0
  1 27  1  0
  1 28  1  0
  4 29  1  0
  4 30  1  0
  8 31  1  0
  9 32  1  0
 11 33  1  0
 13 34  1  0
 14 35  1  0
 14 36  1  0
 14 37  1  0
 19 38  1  0
 23 39  1  0
 26 40  1  0
M  END
>  <mol_id>  (66) 
2026-09-18-3war-s0-n100-refligand-seed1-0066

>  <rmsd_to_ref>  (66) 


$$$$

     RDKit          3D

 49 53  0  0  0  0  0  0  0  0999 V2000
    2.0910   18.4180   40.1880 C   0  0  0  0  0  0  0  0  0  0  0  0
    0.3660   16.4450   43.1610 C   0  0  0  0  0  0  0  0  0  0  0  0
    2.6230   18.4940   38.9840 C   0  0  0  0  0  0  0  0  0  0  0  0
    3.5250   13.3230   38.9730 C   0  0  0  0  0  0  0  0  0  0  0  0
    2.0640   15.3770   41.6500 C   0  0  0  0  0  0  0  0  0  0  0  0
    0.4300   20.2770   41.7620 N   0  0  0  0  0  0  0  0  0  0  0  0
   -0.8620   19.7910   43.6850 N   0  0  0  0  0  0  0  0  0  0  0  0
    1.9100   20.7390   38.4060 C   0  0  0  0  0  0  0  0  0  0  0  0
   -0.2360   18.6140   43.2240 C   0  0  0  0  0  0  0  0  0  0  0  0
    3.1970   21.6820   35.2700 C   0  0  0  0  0  0  0  0  0  0  0  0
    2.4690   15.3270   40.2410 C   0  0  0  0  0  0  0  0  0  0  0  0
    3.6710   16.6380   37.3920 C   0  0  0  0  0  0  0  0  0  0  0  0
    1.3660   17.8150   41.3650 C   0  0  0  0  0  0  0  0  0  0  0  0
    1.2390   16.6910   42.0730 C   0  0  0  0  0  0  0  0  0  0  0  0
    4.2500   17.1350   36.8440 O   0  0  0  0  0  0  0  0  0  0  0  0
   -0.9230   21.8950   42.9040 O   0  0  0  0  0  0  0  0  0  0  0  0
    1.4030   21.1430   39.4430 O   0  0  0  0  0  0  0  0  0  0  0  0
    2.5690   19.6020   38.0610 C   0  0  0  0  0  0  0  0  0  0  0  0
    0.5120   18.9380   42.0630 C   0  0  0  0  0  0  0  0  0  0  0  0
    3.4510   15.0810   37.3860 C   0  0  0  0  0  0  0  0  0  0  0  0
    1.9970   21.6400   37.3330 O   0  0  0  0  0  0  0  0  0  0  0  0
    2.7900   17.0320   38.5180 C   0  0  0  0  0  0  0  0  0  0  0  0
    3.0230   19.7220   36.7900 N   0  0  0  0  0  0  0  0  0  0  0  0
    3.5130   14.7300   38.8000 C   0  0  0  0  0  0  0  0  0  0  0  0
    2.9550   16.0290   39.5920 C   0  0  0  0  0  0  0  0  0  0  0  0
   -0.3610   17.4330   43.7900 N   0  0  0  0  0  0  0  0  0  0  0  0
   -0.4770   20.7250   42.8230 C   0  0  0  0  0  0  0  0  0  0  0  0
    2.7190   21.0530   36.4550 C   0  0  0  0  0  0  0  0  0  0  0  0
    1.2330   14.0250   42.0050 C   0  0  0  0  0  0  0  0  0  0  0  0
    0.2628   15.4114   43.5230 H   0  0  0  0  0  0  0  0  0  0  0  0
    3.5270   13.0856   40.0471 H   0  0  0  0  0  0  0  0  0  0  0  0
    2.6305   12.8881   38.5031 H   0  0  0  0  0  0  0  0  0  0  0  0
    4.4268   12.9035   38.5031 H   0  0  0  0  0  0  0  0  0  0  0  0
    2.9888   15.4368   42.2425 H   0  0  0  0  0  0  0  0  0  0  0  0
    3.8422   22.5310   35.5402 H   0  0  0  0  0  0  0  0  0  0  0  0
    3.7741   20.9570   34.6773 H   0  0  0  0  0  0  0  0  0  0  0  0
    2.3439   22.0438   34.6773 H   0  0  0  0  0  0  0  0  0  0  0  0
    3.1271   14.4466   40.1986 H   0  0  0  0  0  0  0  0  0  0  0  0
    1.4597   15.4725   39.8285 H   0  0  0  0  0  0  0  0  0  0  0  0
    3.4954   20.0076   38.4937 H   0  0  0  0  0  0  0  0  0  0  0  0
    2.4711   14.8228   36.9581 H   0  0  0  0  0  0  0  0  0  0  0  0
    4.1912   14.5432   36.7753 H   0  0  0  0  0  0  0  0  0  0  0  0
    1.7869   17.0266   38.0665 H   0  0  0  0  0  0  0  0  0  0  0  0
    4.3075   14.6254   39.5536 H   0  0  0  0  0  0  0  0  0  0  0  0
    3.1944   16.8739   40.2544 H   0  0  0  0  0  0  0  0  0  0  0  0
   -0.9447   17.2632   44.6215 H   0  0  0  0  0  0  0  0  0  0  0  0
    1.1642   13.9130   43.0971 H   0  0  0  0  0  0  0  0  0  0  0  0
    0.2212   14.0940   41.5790 H   0  0  0  0  0  0  0  0  0  0  0  0
    1.7515   13.1534   41.5790 H   0  0  0  0  0  0  0  0  0  0  0  0
  1 13  2  0
  2 26  1  0
  3  1  2  0
  5 29  1  0
  5 14  1  0
  6 19  2  0
  6 27  1  0
  8 17  2  0
  9  7  2  0
  9 26  1  0
 10 28  1  0
 11  5  1  0
 13 19  1  0
 13 14  1  0
 14  2  2  0
 15 12  2  0
 18  8  1  0
 18  3  1  0
 19  9  1  0
 20 12  1  0
 20 24  1  0
 21  8  1  0
 22 12  1  0
 22  3  1  0
 22 25  1  0
 23 18  1  0
 24  4  1  0
 24 25  1  0
 25 11  1  0
 27 16  2  0
 27  7  1  0
 28 23  2  0
 28 21  1  0
  2 30  1  0
  4 31  1  0
  4 32  1  0
  4 33  1  0
  5 34  1  0
 10 35  1  0
 10 36  1  0
 10 37  1  0
 11 38  1  0
 11 39  1  0
 18 40  1  0
 20 41  1  0
 20 42  1  0
 22 43  1  0
 24 44  1  0
 25 45  1  0
 26 46  1  0
 29 47  1  0
 29 48  1  0
 29 49  1  0
M  END
>  <mol_id>  (67) 
2026-09-18-3war-s0-n100-refligand-seed1-0067

>  <rmsd_to_ref>  (67) 


$$$$

     RDKit          3D

 63 70  0  0  0  0  0  0  0  0999 V2000
    1.2440   18.5800   40.6940 C   0  0  0  0  0  0  0  0  0  0  0  0
    1.1100   21.4730   40.3980 N   0  0  0  0  0  0  0  0  0  0  0  0
    2.8220   15.1030   38.7640 C   0  0  0  0  0  0  0  0  0  0  0  0
    2.7600   20.1640   39.4860 C   0  0  0  0  0  0  0  0  0  0  0  0
    2.2850   16.5820   38.4100 C   0  0  0  0  0  0  0  0  0  0  0  0
    1.5720   17.4870   41.5560 C   0  0  0  0  0  0  0  0  0  0  0  0
   -0.9340   20.0600   43.6080 C   0  0  0  0  0  0  0  0  0  0  0  0
    4.0560   14.8130   36.5710 O   0  0  0  0  0  0  0  0  0  0  0  0
    2.3320   18.8410   39.7290 C   0  0  0  0  0  0  0  0  0  0  0  0
   -0.6690   21.3480   43.4920 N   0  0  0  0  0  0  0  0  0  0  0  0
    3.4280   13.9700   39.8360 C   0  0  0  0  0  0  0  0  0  0  0  0
    3.4240   19.2510   35.5570 O   0  0  0  0  0  0  0  0  0  0  0  0
    2.2380   13.2100   41.8750 O   0  0  0  0  0  0  0  0  0  0  0  0
    3.0880   17.9130   38.7620 C   0  0  0  0  0  0  0  0  0  0  0  0
    0.1230   21.7950   42.5340 C   0  0  0  0  0  0  0  0  0  0  0  0
    0.6690   19.6340   41.7360 C   0  0  0  0  0  0  0  0  0  0  0  0
    1.6340   14.4120   41.4030 C   0  0  0  0  0  0  0  0  0  0  0  0
    0.6960   20.9610   41.6340 C   0  0  0  0  0  0  0  0  0  0  0  0
    1.1400   16.7000   42.5390 C   0  0  0  0  0  0  0  0  0  0  0  0
   -0.3470   19.1420   42.7280 C   0  0  0  0  0  0  0  0  0  0  0  0
    2.2390   22.2360   36.2020 C   0  0  0  0  0  0  0  0  0  0  0  0
    3.3620   21.7370   34.1400 O   0  0  0  0  0  0  0  0  0  0  0  0
    3.0140   14.3310   37.3760 C   0  0  0  0  0  0  0  0  0  0  0  0
    3.2200   12.8030   37.8230 C   0  0  0  0  0  0  0  0  0  0  0  0
    2.0970   13.3810   40.4800 C   0  0  0  0  0  0  0  0  0  0  0  0
    2.2180   15.8900   41.6170 C   0  0  0  0  0  0  0  0  0  0  0  0
   -0.1630   16.3820   42.7820 O   0  0  0  0  0  0  0  0  0  0  0  0
    2.9740   12.7460   39.2950 C   0  0  0  0  0  0  0  0  0  0  0  0
    1.6880   21.1690   39.3740 O   0  0  0  0  0  0  0  0  0  0  0  0
    3.0020   20.4020   37.6190 C   0  0  0  0  0  0  0  0  0  0  0  0
    3.4990   21.7160   35.6150 C   0  0  0  0  0  0  0  0  0  0  0  0
    1.8970   21.1680   37.1030 O   0  0  0  0  0  0  0  0  0  0  0  0
    3.8290   20.4380   36.1970 C   0  0  0  0  0  0  0  0  0  0  0  0
    0.4699   18.4834   39.9185 H   0  0  0  0  0  0  0  0  0  0  0  0
    0.8212   22.4597   40.3348 H   0  0  0  0  0  0  0  0  0  0  0  0
    3.8468   15.4155   38.5149 H   0  0  0  0  0  0  0  0  0  0  0  0
    3.5404   20.2762   40.2531 H   0  0  0  0  0  0  0  0  0  0  0  0
    2.1399   16.5970   37.3197 H   0  0  0  0  0  0  0  0  0  0  0  0
    1.4208   16.6657   39.0854 H   0  0  0  0  0  0  0  0  0  0  0  0
    1.8204   18.5320   41.3187 H   0  0  0  0  0  0  0  0  0  0  0  0
   -1.6159   19.7077   44.3959 H   0  0  0  0  0  0  0  0  0  0  0  0
    4.7876   15.1514   37.1458 H   0  0  0  0  0  0  0  0  0  0  0  0
    3.0715   18.7504   40.5383 H   0  0  0  0  0  0  0  0  0  0  0  0
    4.3923   14.3248   40.2287 H   0  0  0  0  0  0  0  0  0  0  0  0
    3.1921   18.5713   36.2384 H   0  0  0  0  0  0  0  0  0  0  0  0
    4.0453   17.6314   39.2248 H   0  0  0  0  0  0  0  0  0  0  0  0
    3.2296   18.4668   37.8222 H   0  0  0  0  0  0  0  0  0  0  0  0
    0.3226   22.8746   42.4654 H   0  0  0  0  0  0  0  0  0  0  0  0
    0.6859   14.9508   41.5471 H   0  0  0  0  0  0  0  0  0  0  0  0
    1.1123   16.8339   43.6305 H   0  0  0  0  0  0  0  0  0  0  0  0
   -0.6251   18.0783   42.7624 H   0  0  0  0  0  0  0  0  0  0  0  0
    1.4648   22.3807   35.4341 H   0  0  0  0  0  0  0  0  0  0  0  0
    2.3339   23.2216   36.6811 H   0  0  0  0  0  0  0  0  0  0  0  0
    2.4129   21.8825   33.8988 H   0  0  0  0  0  0  0  0  0  0  0  0
    2.1463   14.4759   36.7156 H   0  0  0  0  0  0  0  0  0  0  0  0
    2.5058   12.1545   37.2945 H   0  0  0  0  0  0  0  0  0  0  0  0
    4.2343   12.4542   37.5790 H   0  0  0  0  0  0  0  0  0  0  0  0
    3.2188   15.5318   41.3340 H   0  0  0  0  0  0  0  0  0  0  0  0
   -0.3168   16.3445   43.7593 H   0  0  0  0  0  0  0  0  0  0  0  0
    3.0248   11.6531   39.1811 H   0  0  0  0  0  0  0  0  0  0  0  0
    3.6891   19.6516   38.0371 H   0  0  0  0  0  0  0  0  0  0  0  0
    4.3656   22.3499   35.8541 H   0  0  0  0  0  0  0  0  0  0  0  0
    4.9287   20.4153   36.1903 H   0  0  0  0  0  0  0  0  0  0  0  0
  1  6  1  0
  1 16  1  0
  2 18  1  0
  3  5  1  0
  3 11  1  0
  4 29  1  0
  4  9  1  0
  5 14  1  0
  6 26  1  0
  6 19  1  0
  8 23  1  0
  9  1  1  0
 10  7  1  0
 11 25  1  0
 12 33  1  0
 14  9  1  0
 15 10  2  0
 16 20  1  0
 17 26  1  0
 17 13  1  0
 18 16  2  0
 18 15  1  0
 19 27  1  0
 20  7  2  0
 21 32  1  0
 22 31  1  0
 23 24  1  0
 23  3  1  0
 24 28  1  0
 25 17  1  0
 25 13  1  0
 26 19  1  0
 28 11  1  0
 28 25  1  0
 29  2  1  0
 30  4  1  0
 31 33  1  0
 31 21  1  0
 32 30  1  0
 33 30  1  0
  1 34  1  0
  2 35  1  0
  3 36  1  0
  4 37  1  0
  5 38  1  0
  5 39  1  0
  6 40  1  0
  7 41  1  0
  8 42  1  0
  9 43  1  0
 11 44  1  0
 12 45  1  0
 14 46  1  0
 14 47  1  0
 15 48  1  0
 17 49  1  0
 19 50  1  0
 20 51  1  0
 21 52  1  0
 21 53  1  0
 22 54  1  0
 23 55  1  0
 24 56  1  0
 24 57  1  0
 26 58  1  0
 27 59  1  0
 28 60  1  0
 30 61  1  0
 31 62  1  0
 33 63  1  0
M  END
>  <mol_id>  (68) 
2026-09-18-3war-s0-n100-refligand-seed1-0068

>  <rmsd_to_ref>  (68) 


$$$$

     RDKit          3D

 14 15  0  0  0  0  0  0  0  0999 V2000
    3.5130   18.4210   37.0520 O   0  0  0  0  0  1  0  0  0  0  0  0
    1.7750   16.6380   40.9480 C   0  0  0  0  0  0  0  0  0  0  0  0
    1.2980   17.7090   41.7800 C   0  0  0  0  0  0  0  0  0  0  0  0
    2.1570   20.6610   39.6630 C   0  0  0  0  0  0  0  0  0  0  0  0
    2.1970   18.3850   39.7680 C   0  0  0  0  0  0  0  0  0  0  0  0
    1.5590   20.3090   40.9110 N   0  0  0  0  0  0  0  0  0  0  0  0
    2.3030   17.0660   39.7880 N   0  0  0  0  0  0  0  0  0  0  0  0
    2.9540   19.4960   37.4930 C   0  0  0  0  0  0  0  0  0  0  0  0
    2.5220   19.4590   38.8970 C   0  0  0  0  0  0  0  0  0  0  0  0
    2.7740   20.5310   36.8270 O   0  0  0  0  0  0  0  0  0  0  0  0
    1.6100   18.8230   40.9910 C   0  0  0  0  0  0  0  0  0  0  0  0
    1.7142   15.5769   41.2315 H   0  0  0  0  0  0  0  0  0  0  0  0
    0.8179   17.6652   42.7687 H   0  0  0  0  0  0  0  0  0  0  0  0
    2.3227   21.6930   39.3201 H   0  0  0  0  0  0  0  0  0  0  0  0
  1  8  1  0
  2  3  1  0
  4  6  2  0
  5  7  1  0
  5 11  1  0
  6 11  1  0
  7  2  2  0
  8  9  1  0
  9  4  1  0
  9  5  2  0
 10  8  2  0
 11  3  2  0
  2 12  1  0
  3 13  1  0
  4 14  1  0
M  CHG  1   1  -1
M  END
>  <mol_id>  (69) 
2026-09-18-3war-s0-n100-refligand-seed1-0069

>  <rmsd_to_ref>  (69) 


$$$$

     RDKit          3D

 27 28  0  0  0  0  0  0  0  0999 V2000
    1.3170   18.7610   41.6980 C   0  0  0  0  0  0  0  0  0  0  0  0
    2.2620   17.7190   41.4670 F   0  0  0  0  0  0  0  0  0  0  0  0
    2.1790   20.8710   37.5700 O   0  0  0  0  0  0  0  0  0  0  0  0
    0.5180   19.1600   42.9350 C   0  0  0  0  0  0  0  0  0  0  0  0
    3.5440   20.9720   35.4020 O   0  0  0  0  0  0  0  0  0  0  0  0
    0.2940   20.8230   42.6670 S   0  0  0  0  0  0  0  0  0  0  0  0
    0.3780   18.4030   44.1760 Cl  0  0  0  0  0  0  0  0  0  0  0  0
    1.3810   19.5510   40.6810 C   0  0  0  0  0  0  0  0  0  0  0  0
    3.6700   19.9460   36.3260 N   0  0  0  0  0  0  0  0  0  0  0  0
    2.0270   19.5530   39.5740 N   0  0  0  0  0  4  0  0  0  0  0  0
    0.7570   20.8350   41.0800 C   0  0  0  0  0  0  0  0  0  0  0  0
    3.2320   17.4790   37.1540 C   0  0  0  0  0  0  0  0  0  0  0  0
    2.9080   17.7080   38.1760 C   0  0  0  0  0  0  0  0  0  0  0  0
    2.9150   19.9730   37.3800 C   0  0  0  0  0  0  0  0  0  0  0  0
    3.0920   16.7600   37.9960 C   0  0  0  0  0  0  0  0  0  0  0  0
    2.5980   18.9730   38.5050 C   0  0  0  0  0  0  0  0  0  0  0  0
   -0.3484   18.5782   43.2825 H   0  0  0  0  0  0  0  0  0  0  0  0
    3.4382   21.8336   35.8780 H   0  0  0  0  0  0  0  0  0  0  0  0
    4.3455   19.1824   36.1791 H   0  0  0  0  0  0  0  0  0  0  0  0
    1.4083   20.1969   39.0607 H   0  0  0  0  0  0  0  0  0  0  0  0
    2.8735   19.3140   40.1099 H   0  0  0  0  0  0  0  0  0  0  0  0
    1.4831   21.6470   40.9267 H   0  0  0  0  0  0  0  0  0  0  0  0
   -0.1404   20.9866   40.4622 H   0  0  0  0  0  0  0  0  0  0  0  0
    4.2371   17.7530   36.8008 H   0  0  0  0  0  0  0  0  0  0  0  0
    2.8617   17.6190   36.1277 H   0  0  0  0  0  0  0  0  0  0  0  0
    2.2591   16.0422   37.9638 H   0  0  0  0  0  0  0  0  0  0  0  0
    3.7377   16.0057   38.4694 H   0  0  0  0  0  0  0  0  0  0  0  0
  1  4  1  0
  2  1  1  0
  4  7  1  0
  5  9  1  0
  6  4  1  0
  8 11  1  0
  8  1  2  0
  9 14  1  0
 10  8  1  0
 11  6  1  0
 12 15  1  0
 12 13  1  0
 13 16  2  3
 14  3  2  0
 14 16  1  0
 15 13  1  0
 16 10  1  0
  4 17  1  0
  5 18  1  0
  9 19  1  0
 10 20  1  0
 10 21  1  0
 11 22  1  0
 11 23  1  0
 12 24  1  0
 12 25  1  0
 15 26  1  0
 15 27  1  0
M  CHG  1  10   1
M  END
>  <mol_id>  (70) 
2026-09-18-3war-s0-n100-refligand-seed1-0070

>  <rmsd_to_ref>  (70) 


$$$$

     RDKit          3D

 18 20  0  0  0  0  0  0  0  0999 V2000
    3.1700   20.0580   36.8920 N   0  0  0  0  0  0  0  0  0  0  0  0
    3.5050   18.8950   37.5910 C   0  0  0  0  0  0  0  0  0  0  0  0
    2.8660   18.9010   38.8060 C   0  0  0  0  0  0  0  0  0  0  0  0
    0.8280   21.2110   40.7540 C   0  0  0  0  0  0  0  0  0  0  0  0
    2.1160   20.1780   38.8170 C   0  0  0  0  0  0  0  0  0  0  0  0
    0.1210   20.9420   41.9550 C   0  0  0  0  0  0  0  0  0  0  0  0
    1.6600   18.9120   40.8070 C   0  0  0  0  0  0  0  0  0  0  0  0
    0.9290   18.6700   41.9960 N   0  0  0  0  0  0  0  0  0  0  0  0
    2.4020   20.7100   37.6630 C   0  0  0  0  0  0  0  0  0  0  0  0
    1.4870   20.1710   40.1210 C   0  0  0  0  0  0  0  0  0  0  0  0
    0.1780   19.7540   42.4810 C   0  0  0  0  0  0  0  0  0  0  0  0
    2.6260   18.1900   40.0250 C   0  0  0  0  0  0  0  0  0  0  0  0
    4.1738   18.1016   37.2259 H   0  0  0  0  0  0  0  0  0  0  0  0
    0.8519   22.2273   40.3338 H   0  0  0  0  0  0  0  0  0  0  0  0
   -0.4713   21.7333   42.4377 H   0  0  0  0  0  0  0  0  0  0  0  0
    1.9931   21.6877   37.3681 H   0  0  0  0  0  0  0  0  0  0  0  0
   -0.4170   19.5818   43.3900 H   0  0  0  0  0  0  0  0  0  0  0  0
    3.1041   17.2432   40.3165 H   0  0  0  0  0  0  0  0  0  0  0  0
  1  2  2  0
  1  9  1  0
  2  3  1  0
  3  5  1  0
  3 12  2  0
  4  6  1  0
  5 10  1  0
  6 11  2  0
  7  8  2  0
  8 11  1  0
  9  5  2  0
 10  4  2  0
 10  7  1  0
 12  7  1  0
  2 13  1  0
  4 14  1  0
  6 15  1  0
  9 16  1  0
 11 17  1  0
 12 18  1  0
M  END
>  <mol_id>  (71) 
2026-09-18-3war-s0-n100-refligand-seed1-0071

>  <rmsd_to_ref>  (71) 


$$$$

     RDKit          3D

 30 32  0  0  0  0  0  0  0  0999 V2000
    1.3670   19.7130   40.6640 C   0  0  0  0  0  0  0  0  0  0  0  0
    0.5000   21.8570   40.9590 C   0  0  0  0  0  0  0  0  0  0  0  0
    2.8690   15.0750   39.5330 C   0  0  0  0  0  0  0  0  0  0  0  0
    1.2480   21.0190   40.2430 C   0  0  0  0  0  0  0  0  0  0  0  0
   -0.1160   20.2200   42.5350 C   0  0  0  0  0  0  0  0  0  0  0  0
    2.7930   16.5510   37.8940 C   0  0  0  0  0  0  0  0  0  0  0  0
    0.7340   19.2860   41.8740 C   0  0  0  0  0  0  0  0  0  0  0  0
    2.3660   17.8130   37.2030 C   0  0  0  0  0  0  0  0  0  0  0  0
   -0.7690   19.8530   43.5950 O   0  0  0  0  0  0  0  0  0  0  0  0
    2.7130   20.0420   36.6770 O   0  0  0  0  0  0  0  0  0  0  0  0
    2.6700   16.4670   39.3240 C   0  0  0  0  0  0  0  0  0  0  0  0
    3.1890   15.3380   37.3480 C   0  0  0  0  0  0  0  0  0  0  0  0
    3.2000   19.0650   37.2610 C   0  0  0  0  0  0  0  0  0  0  0  0
    3.1950   14.3770   38.4120 N   0  0  0  0  0  0  0  0  0  0  0  0
    2.0620   18.7310   39.9270 N   0  0  0  0  0  0  0  0  0  0  0  0
    0.9410   18.0210   42.3630 C   0  0  0  0  0  0  0  0  0  0  0  0
    2.1190   17.5050   40.2760 C   0  0  0  0  0  0  0  0  0  0  0  0
    4.2460   19.0890   37.8420 O   0  0  0  0  0  1  0  0  0  0  0  0
    1.6410   17.1550   41.5950 C   0  0  0  0  0  0  0  0  0  0  0  0
   -0.1990   21.4620   42.0890 N   0  0  0  0  0  0  0  0  0  0  0  0
    0.4342   22.9076   40.6398 H   0  0  0  0  0  0  0  0  0  0  0  0
    2.7676   14.6011   40.5205 H   0  0  0  0  0  0  0  0  0  0  0  0
    1.7609   21.3635   39.3329 H   0  0  0  0  0  0  0  0  0  0  0  0
    1.3823   18.0764   37.6190 H   0  0  0  0  0  0  0  0  0  0  0  0
    2.4335   17.5342   36.1410 H   0  0  0  0  0  0  0  0  0  0  0  0
    3.1074   17.2059   40.0115 H   0  0  0  0  0  0  0  0  0  0  0  0
    3.4494   15.1493   36.2961 H   0  0  0  0  0  0  0  0  0  0  0  0
    0.5508   17.7210   43.3467 H   0  0  0  0  0  0  0  0  0  0  0  0
    1.8540   16.1497   41.9875 H   0  0  0  0  0  0  0  0  0  0  0  0
   -0.7896   22.1435   42.5867 H   0  0  0  0  0  0  0  0  0  0  0  0
  1  7  2  0
  2 20  1  0
  4  1  1  0
  4  2  2  0
  5  9  2  0
  6 11  1  0
  7 16  1  0
  7  5  1  0
  8 13  1  0
  8  6  1  0
 10 13  2  0
 11  3  1  0
 11 17  1  0
 12  6  2  0
 12 14  1  0
 13 18  1  0
 14  3  2  0
 15 17  2  0
 15  1  1  0
 17 19  1  0
 19 16  2  0
 20  5  1  0
  2 21  1  0
  3 22  1  0
  4 23  1  0
  8 24  1  0
  8 25  1  0
 11 26  1  0
 12 27  1  0
 16 28  1  0
 19 29  1  0
 20 30  1  0
M  CHG  1  18  -1
M  END
>  <mol_id>  (72) 
2026-09-18-3war-s0-n100-refligand-seed1-0072

>  <rmsd_to_ref>  (72) 


$$$$

     RDKit          3D

 25 26  0  0  0  0  0  0  0  0999 V2000
    2.7710   17.8720   39.0030 C   0  0  0  0  0  0  0  0  0  0  0  0
    3.4280   16.9120   38.0940 C   0  0  0  0  0  0  0  0  0  0  0  0
    0.7300   21.4390   41.2890 C   0  0  0  0  0  0  0  0  0  0  0  0
    1.5740   18.6830   40.8190 C   0  0  0  0  0  0  0  0  0  0  0  0
    2.6860   19.2090   38.8300 C   0  0  0  0  0  0  0  0  0  0  0  0
    2.1610   17.5970   40.2110 N   0  0  0  0  0  0  0  0  0  0  0  0
    0.3670   18.1020   43.1160 C   0  0  0  0  0  0  0  0  0  0  0  0
    1.4690   21.1300   40.1400 C   0  0  0  0  0  0  0  0  0  0  0  0
    1.9750   19.8370   39.8860 C   0  0  0  0  0  0  0  0  0  0  0  0
    0.4170   20.3780   42.1960 C   0  0  0  0  0  0  0  0  0  0  0  0
    3.9720   17.3780   37.0380 O   0  0  0  0  0  0  0  0  0  0  0  0
    3.2670   19.8270   37.5210 C   0  0  0  0  0  0  0  0  0  0  0  0
    3.3920   15.7240   38.3610 O   0  0  0  0  0  1  0  0  0  0  0  0
    2.3640   20.5820   36.7630 O   0  0  0  0  0  0  0  0  0  0  0  0
    0.8220   19.0530   42.0570 C   0  0  0  0  0  0  0  0  0  0  0  0
    0.3995   22.4690   41.4884 H   0  0  0  0  0  0  0  0  0  0  0  0
    0.5726   18.5317   44.1075 H   0  0  0  0  0  0  0  0  0  0  0  0
   -0.7134   17.9248   43.0100 H   0  0  0  0  0  0  0  0  0  0  0  0
    0.9069   17.1495   43.0100 H   0  0  0  0  0  0  0  0  0  0  0  0
    1.6627   21.9265   39.4065 H   0  0  0  0  0  0  0  0  0  0  0  0
    2.4031   20.8383   39.7307 H   0  0  0  0  0  0  0  0  0  0  0  0
   -0.1938   20.6295   43.0756 H   0  0  0  0  0  0  0  0  0  0  0  0
    4.1076   20.4803   37.7978 H   0  0  0  0  0  0  0  0  0  0  0  0
    3.5592   18.9768   36.8872 H   0  0  0  0  0  0  0  0  0  0  0  0
    1.7635   21.0841   37.3691 H   0  0  0  0  0  0  0  0  0  0  0  0
  1  6  1  0
  2 13  1  0
  2  1  1  0
  3 10  1  0
  4 15  1  0
  5  1  2  0
  5  9  1  0
  6  4  2  0
  8  3  2  0
  9  8  1  0
  9  4  1  0
 11  2  2  0
 12  5  1  0
 14 12  1  0
 15 10  2  0
 15  7  1  0
  3 16  1  0
  7 17  1  0
  7 18  1  0
  7 19  1  0
  8 20  1  0
  9 21  1  0
 10 22  1  0
 12 23  1  0
 12 24  1  0
 14 25  1  0
M  CHG  1  13  -1
M  END
>  <mol_id>  (73) 
2026-09-18-3war-s0-n100-refligand-seed1-0073

>  <rmsd_to_ref>  (73) 


$$$$

     RDKit          3D

 62 66  0  0  0  0  0  0  0  0999 V2000
    0.5370   18.5960   42.7670 C   0  0  0  0  0  0  0  0  0  0  0  0
    2.6080   17.9090   39.4770 O   0  0  0  0  0  0  0  0  0  0  0  0
    1.4220   18.2270   41.6830 C   0  0  0  0  0  0  0  0  0  0  0  0
    3.5920   21.1190   34.8090 C   0  0  0  0  0  0  0  0  0  0  0  0
    4.5350   15.9650   37.0600 C   0  0  0  0  0  0  0  0  0  0  0  0
    2.6290   15.5710   39.1730 C   0  0  0  0  0  0  0  0  0  0  0  0
    1.7250   22.6870   35.6480 C   0  0  0  0  0  0  0  0  0  0  0  0
    3.4160   15.0580   36.8990 O   0  0  0  0  0  0  0  0  0  0  0  0
    1.5610   20.6950   41.1660 C   0  0  0  0  0  0  0  0  0  0  0  0
   -0.0900   19.8640   42.7850 C   0  0  0  0  0  0  0  0  0  0  0  0
    0.2660   17.7730   43.9970 C   0  0  0  0  0  0  0  0  0  0  0  0
    2.7750   19.2370   39.6820 C   0  0  0  0  0  0  0  0  0  0  0  0
   -1.1810   19.4780   44.8470 N   0  0  0  0  0  0  0  0  0  0  0  0
    3.2220   21.1190   36.2270 C   0  0  0  0  0  0  0  0  0  0  0  0
    0.4080   20.8870   41.9650 C   0  0  0  0  0  0  0  0  0  0  0  0
    3.1450   14.5390   38.1720 C   0  0  0  0  0  0  0  0  0  0  0  0
    1.4660   21.1830   38.6900 C   0  0  0  0  0  0  0  0  0  0  0  0
    1.9860   21.5290   36.6400 C   0  0  0  0  0  0  0  0  0  0  0  0
    1.5570   21.7290   37.4920 C   0  0  0  0  0  0  0  0  0  0  0  0
    4.0900   17.1290   37.8730 C   0  0  0  0  0  0  0  0  0  0  0  0
    2.2210   19.7690   38.4490 C   0  0  0  0  0  0  0  0  0  0  0  0
   -0.3610   18.4790   45.1650 C   0  0  0  0  0  0  0  0  0  0  0  0
    1.7630   19.3380   40.8120 C   0  0  0  0  0  0  0  0  0  0  0  0
    3.1640   16.9110   38.9030 C   0  0  0  0  0  0  0  0  0  0  0  0
    1.4090   23.5550   33.4600 O   0  0  0  0  0  0  0  0  0  0  0  0
    2.0160   22.7870   34.3060 C   0  0  0  0  0  0  0  0  0  0  0  0
   -0.2110   18.0430   46.3160 O   0  0  0  0  0  0  0  0  0  0  0  0
    2.9870   21.8770   33.7680 C   0  0  0  0  0  0  0  0  0  0  0  0
   -1.0680   20.2590   43.6780 N   0  0  0  0  0  0  0  0  0  0  0  0
    3.1520   20.1230   37.3510 C   0  0  0  0  0  0  0  0  0  0  0  0
    2.3506   17.8236   42.1131 H   0  0  0  0  0  0  0  0  0  0  0  0
    0.8909   17.4847   41.0690 H   0  0  0  0  0  0  0  0  0  0  0  0
    4.6526   21.4101   34.7924 H   0  0  0  0  0  0  0  0  0  0  0  0
    3.2321   20.1173   34.5315 H   0  0  0  0  0  0  0  0  0  0  0  0
    4.8763   16.3111   36.0732 H   0  0  0  0  0  0  0  0  0  0  0  0
    5.3661   15.4503   37.5644 H   0  0  0  0  0  0  0  0  0  0  0  0
    1.5313   15.6075   39.1121 H   0  0  0  0  0  0  0  0  0  0  0  0
    2.9608   15.2675   40.1769 H   0  0  0  0  0  0  0  0  0  0  0  0
    0.6374   22.8435   35.6988 H   0  0  0  0  0  0  0  0  0  0  0  0
    2.5045   23.3704   36.0159 H   0  0  0  0  0  0  0  0  0  0  0  0
    1.4529   21.2863   40.2448 H   0  0  0  0  0  0  0  0  0  0  0  0
    2.4312   21.0166   41.7570 H   0  0  0  0  0  0  0  0  0  0  0  0
    0.5158   16.7026   44.0389 H   0  0  0  0  0  0  0  0  0  0  0  0
    3.7521   19.6946   39.8965 H   0  0  0  0  0  0  0  0  0  0  0  0
    4.1932   21.6226   36.1126 H   0  0  0  0  0  0  0  0  0  0  0  0
   -0.1077   21.8584   41.9421 H   0  0  0  0  0  0  0  0  0  0  0  0
    2.3858   13.7498   38.0682 H   0  0  0  0  0  0  0  0  0  0  0  0
    4.0994   14.1633   38.5695 H   0  0  0  0  0  0  0  0  0  0  0  0
    1.9798   21.7901   39.4499 H   0  0  0  0  0  0  0  0  0  0  0  0
    0.4366   21.0871   39.0657 H   0  0  0  0  0  0  0  0  0  0  0  0
    1.5345   20.5315   36.7459 H   0  0  0  0  0  0  0  0  0  0  0  0
    1.9612   22.7254   37.7241 H   0  0  0  0  0  0  0  0  0  0  0  0
    0.5772   21.3485   37.1675 H   0  0  0  0  0  0  0  0  0  0  0  0
    4.4788   18.1379   37.6705 H   0  0  0  0  0  0  0  0  0  0  0  0
    1.5963   18.9130   38.1539 H   0  0  0  0  0  0  0  0  0  0  0  0
    0.8084   18.9198   40.4601 H   0  0  0  0  0  0  0  0  0  0  0  0
    0.8757   24.2297   33.9504 H   0  0  0  0  0  0  0  0  0  0  0  0
    2.7339   23.5920   34.5217 H   0  0  0  0  0  0  0  0  0  0  0  0
    2.4906   21.1929   33.0640 H   0  0  0  0  0  0  0  0  0  0  0  0
    3.7667   22.4549   33.2503 H   0  0  0  0  0  0  0  0  0  0  0  0
    3.2476   19.1670   36.8154 H   0  0  0  0  0  0  0  0  0  0  0  0
    3.8084   20.7142   38.0065 H   0  0  0  0  0  0  0  0  0  0  0  0
  1 10  1  0
  1 11  2  0
  3  1  1  0
  5 20  1  0
  8  5  1  0
  8 16  1  0
  9 15  1  0
 10 29  1  0
 11 22  1  0
 12  2  1  0
 13 22  1  0
 14  4  1  0
 14 18  1  0
 14 30  1  0
 15 10  2  0
 16  6  1  0
 18  7  1  0
 18 19  1  0
 19 17  1  0
 20 24  2  0
 21 17  1  0
 21 12  1  0
 22 27  2  0
 23 12  1  0
 23  9  1  0
 23  3  1  0
 24  6  1  0
 24  2  1  0
 26 25  1  0
 26  7  1  0
 28 26  1  0
 28  4  1  0
 29 13  2  0
 30 21  1  0
  3 31  1  0
  3 32  1  0
  4 33  1  0
  4 34  1  0
  5 35  1  0
  5 36  1  0
  6 37  1  0
  6 38  1  0
  7 39  1  0
  7 40  1  0
  9 41  1  0
  9 42  1  0
 11 43  1  0
 12 44  1  0
 14 45  1  0
 15 46  1  0
 16 47  1  0
 16 48  1  0
 17 49  1  0
 17 50  1  0
 18 51  1  0
 19 52  1  0
 19 53  1  0
 20 54  1  0
 21 55  1  0
 23 56  1  0
 25 57  1  0
 26 58  1  0
 28 59  1  0
 28 60  1  0
 30 61  1  0
 30 62  1  0
M  END
>  <mol_id>  (74) 
2026-09-18-3war-s0-n100-refligand-seed1-0074

>  <rmsd_to_ref>  (74) 


$$$$

     RDKit          3D

 33 35  0  0  0  0  0  0  0  0999 V2000
   -0.2520   19.9110   43.0140 C   0  0  0  0  0  0  0  0  0  0  0  0
    1.9430   18.8450   39.9220 C   0  0  0  0  0  0  0  0  0  0  0  0
    0.2400   17.5050   43.1090 C   0  0  0  0  0  0  0  0  0  0  0  0
   -0.3800   18.5090   43.6480 C   0  0  0  0  0  0  0  0  0  0  0  0
    1.0060   17.5900   41.9140 C   0  0  0  0  0  0  0  0  0  0  0  0
    3.3430   19.2130   37.1170 C   0  0  0  0  0  0  0  0  0  0  0  0
    2.5970   17.6490   39.5070 C   0  0  0  0  0  0  0  0  0  0  0  0
    0.6480   21.1910   40.9940 C   0  0  0  0  0  0  0  0  0  0  0  0
    3.6680   15.7210   38.3900 C   0  0  0  0  0  0  0  0  0  0  0  0
   -0.9800   20.6630   43.9910 N   0  0  0  0  0  0  0  0  0  0  0  0
    3.3250   17.2010   38.3670 C   0  0  0  0  0  0  0  0  0  0  0  0
    2.5710   20.1770   37.8240 C   0  0  0  0  0  0  0  0  0  0  0  0
    2.0110   20.1570   39.1670 C   0  0  0  0  0  0  0  0  0  0  0  0
    1.3950   21.3170   39.7670 C   0  0  0  0  0  0  0  0  0  0  0  0
    3.6790   17.9710   37.2880 N   0  0  0  0  0  0  0  0  0  0  0  0
    4.3020   15.2950   37.0970 C   0  0  0  0  0  0  0  0  0  0  0  0
    0.5530   20.0250   41.7300 C   0  0  0  0  0  0  0  0  0  0  0  0
    1.1670   18.8220   41.2320 C   0  0  0  0  0  0  0  0  0  0  0  0
    2.2420   21.1490   37.1170 O   0  0  0  0  0  0  0  0  0  0  0  0
    0.1687   16.5270   43.6074 H   0  0  0  0  0  0  0  0  0  0  0  0
   -0.9923   18.3626   44.5500 H   0  0  0  0  0  0  0  0  0  0  0  0
    1.4820   16.6836   41.5118 H   0  0  0  0  0  0  0  0  0  0  0  0
    3.7623   19.6262   36.1878 H   0  0  0  0  0  0  0  0  0  0  0  0
    2.5190   16.8611   40.2707 H   0  0  0  0  0  0  0  0  0  0  0  0
    0.1197   22.0802   41.3684 H   0  0  0  0  0  0  0  0  0  0  0  0
    4.3689   15.5270   39.2153 H   0  0  0  0  0  0  0  0  0  0  0  0
    2.7394   15.1483   38.5302 H   0  0  0  0  0  0  0  0  0  0  0  0
   -1.0960   21.6800   43.8765 H   0  0  0  0  0  0  0  0  0  0  0  0
   -1.3877   20.1870   44.8084 H   0  0  0  0  0  0  0  0  0  0  0  0
    1.4960   22.3011   39.2860 H   0  0  0  0  0  0  0  0  0  0  0  0
    5.1980   14.6930   37.3088 H   0  0  0  0  0  0  0  0  0  0  0  0
    3.5853   14.6945   36.5176 H   0  0  0  0  0  0  0  0  0  0  0  0
    4.5871   16.1855   36.5176 H   0  0  0  0  0  0  0  0  0  0  0  0
  1  4  2  0
  1 10  1  0
  2 18  2  0
  3  4  1  0
  5  3  2  0
  6 15  2  0
  6 12  1  0
  7  2  1  0
  8 17  2  0
 11  9  1  0
 11  7  2  0
 12 13  1  0
 13 14  2  0
 13  2  1  0
 14  8  1  0
 15 11  1  0
 16  9  1  0
 17  1  1  0
 18 17  1  0
 18  5  1  0
 19 12  2  0
  3 20  1  0
  4 21  1  0
  5 22  1  0
  6 23  1  0
  7 24  1  0
  8 25  1  0
  9 26  1  0
  9 27  1  0
 10 28  1  0
 10 29  1  0
 14 30  1  0
 16 31  1  0
 16 32  1  0
 16 33  1  0
M  END
>  <mol_id>  (75) 
2026-09-18-3war-s0-n100-refligand-seed1-0075

>  <rmsd_to_ref>  (75) 


$$$$

     RDKit          3D

 24 26  0  0  0  0  0  0  0  0999 V2000
    3.0690   19.0660   37.7560 C   0  0  0  0  0  0  0  0  0  0  0  0
    3.7540   20.5730   36.0210 O   0  0  0  0  0  0  0  0  0  0  0  0
    1.1590   17.5980   41.9620 C   0  0  0  0  0  0  0  0  0  0  0  0
    2.9310   16.8170   39.2850 C   0  0  0  0  0  0  0  0  0  0  0  0
    0.3120   18.1760   42.8270 C   0  0  0  0  0  0  0  0  0  0  0  0
    2.6060   19.2420   39.0540 C   0  0  0  0  0  0  0  0  0  0  0  0
    0.0650   19.5430   42.8270 C   0  0  0  0  0  0  0  0  0  0  0  0
    2.8420   20.3520   36.8420 C   0  0  0  0  0  0  0  0  0  0  0  0
    1.8540   21.0710   37.0010 O   0  0  0  0  0  1  0  0  0  0  0  0
    2.0590   20.2350   39.7700 N   0  0  0  0  0  0  0  0  0  0  0  0
    2.4760   18.0420   39.8120 C   0  0  0  0  0  0  0  0  0  0  0  0
    1.6950   18.3490   40.9140 C   0  0  0  0  0  0  0  0  0  0  0  0
    3.5090   16.7250   38.0370 C   0  0  0  0  0  0  0  0  0  0  0  0
    0.6720   20.3630   41.8420 C   0  0  0  0  0  0  0  0  0  0  0  0
    3.5480   17.9030   37.2530 C   0  0  0  0  0  0  0  0  0  0  0  0
    1.5080   19.7640   40.8190 C   0  0  0  0  0  0  0  0  0  0  0  0
    1.4298   16.5381   42.0777 H   0  0  0  0  0  0  0  0  0  0  0  0
    2.8214   15.9043   39.8892 H   0  0  0  0  0  0  0  0  0  0  0  0
   -0.6623   17.6892   42.6726 H   0  0  0  0  0  0  0  0  0  0  0  0
    0.8384   18.0412   43.7834 H   0  0  0  0  0  0  0  0  0  0  0  0
   -0.5967   19.9863   43.5857 H   0  0  0  0  0  0  0  0  0  0  0  0
    3.9227   15.7758   37.6658 H   0  0  0  0  0  0  0  0  0  0  0  0
    0.5093   21.4508   41.8537 H   0  0  0  0  0  0  0  0  0  0  0  0
    3.9669   17.8740   36.2363 H   0  0  0  0  0  0  0  0  0  0  0  0
  1  6  2  0
  2  8  2  0
  3  5  1  0
  4 11  2  0
  5  7  1  0
  6 10  1  0
  6 11  1  0
  8  9  1  0
  8  1  1  0
 10 16  2  0
 11 12  1  0
 12  3  2  0
 13  4  1  0
 14  7  2  0
 15  1  1  0
 15 13  2  0
 16 12  1  0
 16 14  1  0
  3 17  1  0
  4 18  1  0
  5 19  1  0
  5 20  1  0
  7 21  1  0
 13 22  1  0
 14 23  1  0
 15 24  1  0
M  CHG  1   9  -1
M  END
>  <mol_id>  (76) 
2026-09-18-3war-s0-n100-refligand-seed1-0076

>  <rmsd_to_ref>  (76) 


$$$$

     RDKit          3D

 43 48  0  0  0  0  0  0  0  0999 V2000
    3.5200   14.2640   38.6800 C   0  0  0  0  0  0  0  0  0  0  0  0
   -0.2600   21.1610   42.1160 C   0  0  0  0  0  0  0  0  0  0  0  0
    2.9860   19.7400   37.1740 C   0  0  0  0  0  0  0  0  0  0  0  0
    0.8790   19.1080   41.7290 C   0  0  0  0  0  0  0  0  0  0  0  0
    4.2900   12.7810   36.3890 C   0  0  0  0  0  0  0  0  0  0  0  0
    2.5770   20.2750   38.2450 N   0  0  0  0  0  0  0  0  0  0  0  0
    2.3610   19.8470   39.5660 C   0  0  0  0  0  0  0  0  0  0  0  0
    3.5940   12.9660   38.7380 C   0  0  0  0  0  0  0  0  0  0  0  0
    3.0430   16.5120   38.6090 N   0  0  0  0  0  0  0  0  0  0  0  0
    2.8180   15.4090   39.3160 C   0  0  0  0  0  0  0  0  0  0  0  0
    3.1750   17.2300   37.6190 C   0  0  0  0  0  0  0  0  0  0  0  0
    2.7740   17.4470   38.7680 C   0  0  0  0  0  0  0  0  0  0  0  0
    2.1190   15.5900   40.4660 C   0  0  0  0  0  0  0  0  0  0  0  0
    2.0050   21.7450   36.1240 O   0  0  0  0  0  1  0  0  0  0  0  0
   -0.7410   22.3220   41.9430 O   0  0  0  0  0  0  0  0  0  0  0  0
    1.6210   20.8740   40.2120 C   0  0  0  0  0  0  0  0  0  0  0  0
    4.0050   14.7550   37.4120 N   0  0  0  0  0  0  0  0  0  0  0  0
    0.7530   20.4270   41.2630 C   0  0  0  0  0  0  0  0  0  0  0  0
    1.6840   18.0810   40.9420 C   0  0  0  0  0  0  0  0  0  0  0  0
    3.3840   18.4110   36.8250 C   0  0  0  0  0  0  0  0  0  0  0  0
   -0.6670   20.2380   43.1180 N   0  0  0  0  0  0  0  0  0  0  0  0
    3.0660   20.7210   36.1200 N   0  0  0  0  0  4  0  0  0  0  0  0
    1.0430   23.0740   40.2510 O   0  0  0  0  0  0  0  0  0  0  0  0
   -0.0400   19.0740   42.8830 C   0  0  0  0  0  0  0  0  0  0  0  0
    4.1320   12.1500   37.6520 N   0  0  0  0  0  0  0  0  0  0  0  0
    4.3510   14.0880   36.3560 C   0  0  0  0  0  0  0  0  0  0  0  0
    1.6800   16.6550   41.1750 C   0  0  0  0  0  0  0  0  0  0  0  0
    3.9330   20.8880   35.2430 O   0  0  0  0  0  0  0  0  0  0  0  0
    2.4100   18.4740   39.8380 C   0  0  0  0  0  0  0  0  0  0  0  0
   -0.2210   18.0710   43.4820 O   0  0  0  0  0  0  0  0  0  0  0  0
    1.0880   22.0040   39.5200 C   0  0  0  0  0  0  0  0  0  0  0  0
    4.3591   12.1880   35.4651 H   0  0  0  0  0  0  0  0  0  0  0  0
    3.2350   12.4600   39.6463 H   0  0  0  0  0  0  0  0  0  0  0  0
    3.4202   16.8764   36.6066 H   0  0  0  0  0  0  0  0  0  0  0  0
    1.8414   14.6355   40.9370 H   0  0  0  0  0  0  0  0  0  0  0  0
    4.4718   18.4666   36.6717 H   0  0  0  0  0  0  0  0  0  0  0  0
    2.6780   18.2131   36.0050 H   0  0  0  0  0  0  0  0  0  0  0  0
   -1.3253   20.4282   43.8870 H   0  0  0  0  0  0  0  0  0  0  0  0
    1.0537   22.8206   41.2080 H   0  0  0  0  0  0  0  0  0  0  0  0
    4.6895   14.6105   35.4491 H   0  0  0  0  0  0  0  0  0  0  0  0
    1.2215   16.3755   42.1350 H   0  0  0  0  0  0  0  0  0  0  0  0
    1.7190   22.2063   38.6420 H   0  0  0  0  0  0  0  0  0  0  0  0
    0.0542   21.7570   39.2366 H   0  0  0  0  0  0  0  0  0  0  0  0
  1  8  2  0
  1 10  1  0
  2 21  1  0
  3  6  2  0
  4 24  1  0
  5 25  2  0
  6  7  1  0
  7 29  1  0
  7 16  2  0
  9 12  1  0
  9 10  1  0
 10 13  2  0
 11 20  1  0
 11  9  1  0
 11 12  1  0
 12 29  2  0
 13 27  1  0
 15  2  2  0
 16 18  1  0
 17  1  1  0
 18  4  2  0
 18  2  1  0
 19 27  2  0
 19  4  1  0
 20  3  1  0
 22 14  1  0
 22  3  1  0
 24 21  1  0
 24 30  2  0
 25  8  1  0
 26  5  1  0
 26 17  2  0
 28 22  2  0
 29 19  1  0
 31 16  1  0
 31 23  1  0
  5 32  1  0
  8 33  1  0
 11 34  1  0
 13 35  1  0
 20 36  1  0
 20 37  1  0
 21 38  1  0
 23 39  1  0
 26 40  1  0
 27 41  1  0
 31 42  1  0
 31 43  1  0
M  CHG  2  14  -1  22   1
M  END
>  <mol_id>  (77) 
2026-09-18-3war-s0-n100-refligand-seed1-0077

>  <rmsd_to_ref>  (77) 


$$$$

     RDKit          3D

 17 18  0  0  0  0  0  0  0  0999 V2000
    2.1280   21.2430   37.0550 O   0  0  0  0  0  0  0  0  0  0  0  0
    2.0280   19.9850   39.1320 C   0  0  0  0  0  0  0  0  0  0  0  0
    3.2040   19.2420   37.1520 N   0  0  0  0  0  0  0  0  0  0  0  0
    0.9500   20.5770   41.1720 C   0  0  0  0  0  0  0  0  0  0  0  0
    3.0690   17.6970   38.9100 N   0  0  0  0  0  0  0  0  0  0  0  0
    1.3580   20.9660   39.9030 C   0  0  0  0  0  0  0  0  0  0  0  0
    2.4920   20.2140   37.7720 C   0  0  0  0  0  0  0  0  0  0  0  0
    2.3850   18.7070   39.6590 C   0  0  0  0  0  0  0  0  0  0  0  0
    1.1470   19.2900   41.6650 C   0  0  0  0  0  0  0  0  0  0  0  0
    1.8110   18.3370   40.9660 C   0  0  0  0  0  0  0  0  0  0  0  0
    3.4740   18.0390   37.7160 C   0  0  0  0  0  0  0  0  0  0  0  0
    3.5586   19.4267   36.2028 H   0  0  0  0  0  0  0  0  0  0  0  0
    0.4502   21.3167   41.8147 H   0  0  0  0  0  0  0  0  0  0  0  0
    1.1713   21.9794   39.5181 H   0  0  0  0  0  0  0  0  0  0  0  0
    0.7490   19.0370   42.6588 H   0  0  0  0  0  0  0  0  0  0  0  0
    1.9186   17.3166   41.3625 H   0  0  0  0  0  0  0  0  0  0  0  0
    4.0649   17.3131   37.1381 H   0  0  0  0  0  0  0  0  0  0  0  0
  1  7  2  0
  2  8  2  0
  2  6  1  0
  3 11  1  0
  3  7  1  0
  4  9  1  0
  5  8  1  0
  6  4  2  0
  7  2  1  0
  8 10  1  0
 10  9  2  0
 11  5  2  0
  3 12  1  0
  4 13  1  0
  6 14  1  0
  9 15  1  0
 10 16  1  0
 11 17  1  0
M  END
>  <mol_id>  (78) 
2026-09-18-3war-s0-n100-refligand-seed1-0078

>  <rmsd_to_ref>  (78) 


$$$$

     RDKit          3D

 49 52  0  0  0  0  0  0  0  0999 V2000
    1.8940   15.7630   40.9730 N   0  0  0  0  0  0  0  0  0  0  0  0
    3.7050   15.6550   37.8790 C   0  0  0  0  0  0  0  0  0  0  0  0
    0.5050   19.1190   41.7040 C   0  0  0  0  0  0  0  0  0  0  0  0
    2.5030   20.2010   38.6410 C   0  0  0  0  0  0  0  0  0  0  0  0
    3.9480   19.5070   37.0400 N   0  0  0  0  0  0  0  0  0  0  0  0
    0.4160   16.1800   42.7460 C   0  0  0  0  0  0  0  0  0  0  0  0
   -0.7220   19.6890   43.6190 C   0  0  0  0  0  0  0  0  0  0  0  0
    3.4430   20.3550   36.1840 N   0  0  0  0  0  0  0  0  0  0  0  0
    1.0370   20.9300   40.2280 O   0  0  0  0  0  0  0  0  0  0  0  0
    2.5120   16.1380   39.7990 C   0  0  0  0  0  0  0  0  0  0  0  0
    2.0700   21.9490   35.6740 O   0  0  0  0  0  0  0  0  0  0  0  0
    2.7820   13.6430   40.8320 C   0  0  0  0  0  0  0  0  0  0  0  0
    3.7340   17.0200   37.4380 C   0  0  0  0  0  0  0  0  0  0  0  0
    2.1850   20.4310   39.9980 O   0  0  0  0  0  0  0  0  0  0  0  0
    1.5180   16.5950   41.8790 N   0  0  0  0  0  0  0  0  0  0  0  0
    2.5180   17.5100   39.5090 C   0  0  0  0  0  0  0  0  0  0  0  0
    1.5300   14.3770   41.1330 C   0  0  0  0  0  0  0  0  0  0  0  0
   -0.1560   17.4020   43.3830 C   0  0  0  0  0  0  0  0  0  0  0  0
    3.0700   17.9690   38.3180 C   0  0  0  0  0  0  0  0  0  0  0  0
    0.4770   20.4870   41.4460 C   0  0  0  0  0  0  0  0  0  0  0  0
   -0.0260   21.4010   42.2860 C   0  0  0  0  0  0  0  0  0  0  0  0
    3.0880   15.3320   38.8830 N   0  0  0  0  0  0  0  0  0  0  0  0
    2.5180   21.1060   36.4750 C   0  0  0  0  0  0  0  0  0  0  0  0
    3.1530   19.1990   38.0930 C   0  0  0  0  0  0  0  0  0  0  0  0
    1.9390   21.0580   37.7430 C   0  0  0  0  0  0  0  0  0  0  0  0
   -0.7870   21.0670   43.3650 N   0  0  0  0  0  0  0  0  0  0  0  0
   -0.0690   18.7720   42.8910 C   0  0  0  0  0  0  0  0  0  0  0  0
    4.2460   14.8883   37.3050 H   0  0  0  0  0  0  0  0  0  0  0  0
    0.9490   18.3862   41.0142 H   0  0  0  0  0  0  0  0  0  0  0  0
    3.3727   20.8684   38.7317 H   0  0  0  0  0  0  0  0  0  0  0  0
    4.1589   18.6342   36.5354 H   0  0  0  0  0  0  0  0  0  0  0  0
    0.7890   15.4948   43.5215 H   0  0  0  0  0  0  0  0  0  0  0  0
   -0.3551   15.6584   42.1601 H   0  0  0  0  0  0  0  0  0  0  0  0
   -1.2615   19.3238   44.5053 H   0  0  0  0  0  0  0  0  0  0  0  0
    3.8350   20.3942   35.2323 H   0  0  0  0  0  0  0  0  0  0  0  0
    3.2734   13.3549   41.7730 H   0  0  0  0  0  0  0  0  0  0  0  0
    2.5466   12.7399   40.2498 H   0  0  0  0  0  0  0  0  0  0  0  0
    3.4551   14.2895   40.2498 H   0  0  0  0  0  0  0  0  0  0  0  0
    4.2232   17.3268   36.5017 H   0  0  0  0  0  0  0  0  0  0  0  0
    2.3314   16.7873   42.4810 H   0  0  0  0  0  0  0  0  0  0  0  0
    2.0853   18.2244   40.2249 H   0  0  0  0  0  0  0  0  0  0  0  0
    1.1962   14.1762   42.1617 H   0  0  0  0  0  0  0  0  0  0  0  0
    0.6961   14.0792   40.4804 H   0  0  0  0  0  0  0  0  0  0  0  0
   -1.2339   17.1993   43.4671 H   0  0  0  0  0  0  0  0  0  0  0  0
    0.5190   17.4822   44.2478 H   0  0  0  0  0  0  0  0  0  0  0  0
    0.1840   22.4641   42.0968 H   0  0  0  0  0  0  0  0  0  0  0  0
    2.2858   19.1343   37.4194 H   0  0  0  0  0  0  0  0  0  0  0  0
    0.8862   20.7646   37.6180 H   0  0  0  0  0  0  0  0  0  0  0  0
    2.0885   22.0617   38.1676 H   0  0  0  0  0  0  0  0  0  0  0  0
  1 17  1  0
  1 15  1  0
  2 22  2  0
  3 27  1  0
  4 25  1  0
  4 14  1  0
  6 18  1  0
  8 23  1  0
  8  5  1  0
  9 20  1  0
 10  1  1  0
 11 23  2  0
 12 17  1  0
 13  2  1  0
 13 19  2  0
 14  9  1  0
 15  6  1  0
 16 10  2  0
 19 16  1  0
 20  3  2  0
 20 21  1  0
 21 26  2  0
 22 10  1  0
 23 25  1  0
 24  5  1  0
 24 19  1  0
 24  4  1  0
 26  7  1  0
 27 18  1  0
 27  7  2  0
  2 28  1  0
  3 29  1  0
  4 30  1  0
  5 31  1  0
  6 32  1  0
  6 33  1  0
  7 34  1  0
  8 35  1  0
 12 36  1  0
 12 37  1  0
 12 38  1  0
 13 39  1  0
 15 40  1  0
 16 41  1  0
 17 42  1  0
 17 43  1  0
 18 44  1  0
 18 45  1  0
 21 46  1  0
 24 47  1  0
 25 48  1  0
 25 49  1  0
M  END
>  <mol_id>  (79) 
2026-09-18-3war-s0-n100-refligand-seed1-0079

>  <rmsd_to_ref>  (79) 


$$$$

     RDKit          3D

 48 50  0  0  0  0  0  0  0  0999 V2000
    0.7010   17.1600   41.9890 N   0  0  0  0  0  0  0  0  0  0  0  0
    3.6320   14.4730   37.0830 C   0  0  0  0  0  0  0  0  0  0  0  0
    3.1180   12.2310   36.5490 C   0  0  0  0  0  0  0  0  0  0  0  0
    1.4360   18.9320   40.9360 C   0  0  0  0  0  0  0  0  0  0  0  0
   -0.3570   20.2610   44.1240 S   0  0  0  0  0  0  0  0  0  0  0  0
    3.8950   20.5680   36.2110 O   0  0  0  0  0  0  0  0  0  0  0  0
    0.7610   18.5440   42.0370 C   0  0  0  0  0  0  0  0  0  0  0  0
    0.0910   18.9490   43.1920 C   0  0  0  0  0  0  0  0  0  0  0  0
    3.3590   19.4020   38.4010 N   0  0  0  0  0  0  0  0  0  0  0  0
    2.9660   18.1160   39.0850 C   0  0  0  0  0  0  0  0  0  0  0  0
    2.0700   21.3000   37.6620 O   0  0  0  0  0  0  0  0  0  0  0  0
    0.0780   16.8070   43.0310 C   0  0  0  0  0  0  0  0  0  0  0  0
    4.4210   15.6030   36.6690 N   0  0  0  0  0  0  0  0  0  0  0  0
   -0.2740   17.7940   43.8030 N   0  0  0  0  0  0  0  0  0  0  0  0
    3.3380   16.8270   38.6580 C   0  0  0  0  0  0  0  0  0  0  0  0
    2.8650   20.2810   37.1340 S   0  0  0  0  0  4  0  0  0  0  0  0
   -0.3100   15.4310   43.4810 N   0  0  0  0  0  0  0  0  0  0  0  0
   -0.1540   21.3620   43.1050 C   0  0  0  0  0  0  0  0  0  0  0  0
    1.9060   18.2040   40.0080 N   0  0  0  0  0  4  0  0  0  0  0  0
    0.8350   21.1120   41.0020 O   0  0  0  0  0  0  0  0  0  0  0  0
    3.3170   13.5460   36.2010 O   0  0  0  0  0  0  0  0  0  0  0  0
    3.0980   14.3460   38.5180 C   0  0  0  0  0  0  0  0  0  0  0  0
    2.9530   15.4850   39.3110 C   0  0  0  0  0  0  0  0  0  0  0  0
    1.8310   20.2100   40.6740 C   0  0  0  0  0  0  0  0  0  0  0  0
    2.2160   19.1690   36.8450 O   0  0  0  0  0  0  0  0  0  0  0  0
    4.1320   16.8760   37.4420 C   0  0  0  0  0  0  0  0  0  0  0  0
   -0.3610   21.1380   41.6110 C   0  0  0  0  0  0  0  0  0  0  0  0
    3.1042   12.1398   37.6451 H   0  0  0  0  0  0  0  0  0  0  0  0
    2.1572   11.8849   36.1402 H   0  0  0  0  0  0  0  0  0  0  0  0
    3.9333   11.6161   36.1402 H   0  0  0  0  0  0  0  0  0  0  0  0
    4.7232   20.7988   36.7019 H   0  0  0  0  0  0  0  0  0  0  0  0
    3.2991   20.0827   39.1717 H   0  0  0  0  0  0  0  0  0  0  0  0
    3.9713   18.1188   39.5315 H   0  0  0  0  0  0  0  0  0  0  0  0
    2.0992   21.2625   38.6509 H   0  0  0  0  0  0  0  0  0  0  0  0
   -0.8221   15.3037   44.3656 H   0  0  0  0  0  0  0  0  0  0  0  0
   -0.0645   14.6127   42.9057 H   0  0  0  0  0  0  0  0  0  0  0  0
   -0.8387   22.1741   43.3908 H   0  0  0  0  0  0  0  0  0  0  0  0
    0.9320   21.5274   43.1620 H   0  0  0  0  0  0  0  0  0  0  0  0
    1.0959   18.1562   39.3737 H   0  0  0  0  0  0  0  0  0  0  0  0
    2.4141   17.6199   40.6874 H   0  0  0  0  0  0  0  0  0  0  0  0
    2.8301   13.3578   38.9201 H   0  0  0  0  0  0  0  0  0  0  0  0
    2.5841   15.4282   40.3457 H   0  0  0  0  0  0  0  0  0  0  0  0
    2.7310   20.4369   41.2644 H   0  0  0  0  0  0  0  0  0  0  0  0
    2.0444   20.2982   39.5985 H   0  0  0  0  0  0  0  0  0  0  0  0
    1.9507   18.7144   37.6834 H   0  0  0  0  0  0  0  0  0  0  0  0
    4.5244   17.8382   37.0812 H   0  0  0  0  0  0  0  0  0  0  0  0
   -0.9681   21.9562   41.1963 H   0  0  0  0  0  0  0  0  0  0  0  0
   -0.8815   20.1828   41.4476 H   0  0  0  0  0  0  0  0  0  0  0  0
  1  7  1  0
  1 12  2  0
  2 22  2  0
  4  7  2  0
  6 16  1  0
  7  8  1  0
  8 14  2  0
  8  5  1  0
 10  9  1  0
 10 19  1  0
 12 17  1  0
 12 14  1  0
 13  2  1  0
 13 26  2  0
 15 10  1  0
 15 23  2  0
 16 11  1  0
 16  9  1  0
 18  5  1  0
 19  4  1  0
 20 27  1  0
 21  3  1  0
 21  2  1  0
 22 23  1  0
 24  4  1  0
 24 20  1  0
 25 16  1  0
 26 15  1  0
 27 18  1  0
  3 28  1  0
  3 29  1  0
  3 30  1  0
  6 31  1  0
  9 32  1  0
 10 33  1  0
 11 34  1  0
 17 35  1  0
 17 36  1  0
 18 37  1  0
 18 38  1  0
 19 39  1  0
 19 40  1  0
 22 41  1  0
 23 42  1  0
 24 43  1  0
 24 44  1  0
 25 45  1  0
 26 46  1  0
 27 47  1  0
 27 48  1  0
M  CHG  1  19   1
M  END
>  <mol_id>  (80) 
2026-09-18-3war-s0-n100-refligand-seed1-0080

>  <rmsd_to_ref>  (80) 


$$$$

     RDKit          3D

 50 57  0  0  0  0  0  0  0  0999 V2000
    4.2420   17.4500   37.0920 C   0  0  0  0  0  0  0  0  0  0  0  0
    1.8900   20.7770   40.4910 C   0  0  0  0  0  0  0  0  0  0  0  0
    1.6130   19.4210   40.1700 C   0  0  0  0  0  0  0  0  0  0  0  0
    2.2370   16.9020   40.0260 C   0  0  0  0  0  0  0  0  0  0  0  0
    2.6220   19.7920   37.6290 C   0  0  0  0  0  0  0  0  0  0  0  0
    1.3950   16.5170   40.8520 C   0  0  0  0  0  0  0  0  0  0  0  0
    0.8860   21.4760   41.0930 C   0  0  0  0  0  0  0  0  0  0  0  0
    2.6370   18.4420   38.4420 C   0  0  0  0  0  0  0  0  0  0  0  0
    0.7650   17.0940   41.7640 C   0  0  0  0  0  0  0  0  0  0  0  0
    3.1630   16.4860   39.0080 C   0  0  0  0  0  0  0  0  0  0  0  0
    1.2950   18.5890   40.8410 C   0  0  0  0  0  0  0  0  0  0  0  0
    3.6790   19.8940   36.7050 C   0  0  0  0  0  0  0  0  0  0  0  0
    0.4830   16.2430   42.2600 C   0  0  0  0  0  0  0  0  0  0  0  0
   -1.1690   19.8150   44.5970 O   0  0  0  0  0  0  0  0  0  0  0  0
    0.8130   18.3910   41.7830 C   0  0  0  0  0  0  0  0  0  0  0  0
    3.3590   20.8160   35.8440 N   0  0  0  0  0  0  0  0  0  0  0  0
    0.3100   17.3410   42.6430 C   0  0  0  0  0  0  0  0  0  0  0  0
    4.7030   16.3020   36.5250 F   0  0  0  0  0  0  0  0  0  0  0  0
    1.9080   18.2870   39.5890 C   0  0  0  0  0  0  0  0  0  0  0  0
    0.0200   19.7600   42.3910 C   0  0  0  0  0  0  0  0  0  0  0  0
    1.5720   17.3690   40.6050 C   0  0  0  0  0  0  0  0  0  0  0  0
   -0.0480   20.9120   41.8950 C   0  0  0  0  0  0  0  0  0  0  0  0
    4.5020   18.7420   36.2530 C   0  0  0  0  0  0  0  0  0  0  0  0
   -0.6220   19.2430   43.6110 C   0  0  0  0  0  0  0  0  0  0  0  0
    3.3910   17.4010   38.2160 C   0  0  0  0  0  0  0  0  0  0  0  0
    4.0410   20.4220   34.6650 O   0  0  0  0  0  0  0  0  0  0  0  0
    1.3370   15.5310   40.2900 C   0  0  0  0  0  0  0  0  0  0  0  0
   -0.4780   17.8860   43.5590 O   0  0  0  0  0  0  0  0  0  0  0  0
    2.1451   21.2967   39.5557 H   0  0  0  0  0  0  0  0  0  0  0  0
    2.7041   20.7413   41.2298 H   0  0  0  0  0  0  0  0  0  0  0  0
    1.4206   20.3570   39.6252 H   0  0  0  0  0  0  0  0  0  0  0  0
    3.0565   17.3940   40.5704 H   0  0  0  0  0  0  0  0  0  0  0  0
    1.8625   20.5752   37.7694 H   0  0  0  0  0  0  0  0  0  0  0  0
    0.8316   22.5605   40.9171 H   0  0  0  0  0  0  0  0  0  0  0  0
    4.1061   16.1792   39.4838 H   0  0  0  0  0  0  0  0  0  0  0  0
    2.7189   15.6462   38.4535 H   0  0  0  0  0  0  0  0  0  0  0  0
   -0.3579   15.6324   41.8994 H   0  0  0  0  0  0  0  0  0  0  0  0
    0.9656   15.3258   42.6287 H   0  0  0  0  0  0  0  0  0  0  0  0
   -0.1936   18.8328   41.8234 H   0  0  0  0  0  0  0  0  0  0  0  0
    1.3296   18.8148   42.6568 H   0  0  0  0  0  0  0  0  0  0  0  0
    2.7537   21.6373   35.9855 H   0  0  0  0  0  0  0  0  0  0  0  0
    0.3116   18.2637   43.2418 H   0  0  0  0  0  0  0  0  0  0  0  0
    1.0950   19.5945   42.5550 H   0  0  0  0  0  0  0  0  0  0  0  0
   -0.5989   19.2321   41.6506 H   0  0  0  0  0  0  0  0  0  0  0  0
   -0.9392   21.5118   42.1315 H   0  0  0  0  0  0  0  0  0  0  0  0
    5.2166   18.7934   35.4183 H   0  0  0  0  0  0  0  0  0  0  0  0
    4.8718   19.9421   34.9091 H   0  0  0  0  0  0  0  0  0  0  0  0
    1.2882   14.7009   41.0101 H   0  0  0  0  0  0  0  0  0  0  0  0
    0.4367   15.5216   39.6580 H   0  0  0  0  0  0  0  0  0  0  0  0
    2.2299   15.4161   39.6580 H   0  0  0  0  0  0  0  0  0  0  0  0
  1 25  2  0
  2  7  1  0
  3  2  1  0
  3 11  1  0
  4 10  1  0
  4 21  1  0
  4  6  1  0
  5  8  2  0
  6 27  1  0
  6  9  1  0
  7 22  2  0
  9 15  1  0
  9 13  1  0
  9 17  1  0
 11 15  1  0
 12  5  1  0
 16 12  1  0
 17 13  1  0
 17 28  1  0
 18  1  1  0
 19  8  1  0
 19  3  1  0
 19 21  1  0
 19 11  1  0
 20 24  1  0
 21 11  1  0
 21  6  1  0
 22 20  1  0
 23 12  2  0
 23  1  1  0
 24 14  2  0
 25  8  1  0
 25 10  1  0
 26 16  1  0
 28 24  1  0
  2 29  1  0
  2 30  1  0
  3 31  1  0
  4 32  1  0
  5 33  1  0
  7 34  1  0
 10 35  1  0
 10 36  1  0
 13 37  1  0
 13 38  1  0
 15 39  1  0
 15 40  1  0
 16 41  1  0
 17 42  1  0
 20 43  1  0
 20 44  1  0
 22 45  1  0
 23 46  1  0
 26 47  1  0
 27 48  1  0
 27 49  1  0
 27 50  1  0
M  END
>  <mol_id>  (81) 
2026-09-18-3war-s0-n100-refligand-seed1-0081

>  <rmsd_to_ref>  (81) 


$$$$

     RDKit          3D

 49 53  0  0  0  0  0  0  0  0999 V2000
    1.4110   17.5190   41.7250 C   0  0  0  0  0  0  0  0  0  0  0  0
    3.1890   18.5770   39.9430 C   0  0  0  0  0  0  0  0  0  0  0  0
    1.0780   15.1930   42.1230 C   0  0  0  0  0  0  0  0  0  0  0  0
    0.5270   19.4270   42.1470 C   0  0  0  0  0  0  0  0  0  0  0  0
    0.2090   17.5560   43.1860 C   0  0  0  0  0  0  0  0  0  0  0  0
    0.9520   16.7820   42.3790 C   0  0  0  0  0  0  0  0  0  0  0  0
    2.3330   21.1540   36.9680 C   0  0  0  0  0  0  0  0  0  0  0  0
    3.0920   20.8390   35.7780 C   0  0  0  0  0  0  0  0  0  0  0  0
    0.2570   20.8190   41.9680 C   0  0  0  0  0  0  0  0  0  0  0  0
    1.3790   21.4080   39.7590 C   0  0  0  0  0  0  0  0  0  0  0  0
    2.5570   18.3160   36.4640 F   0  0  0  0  0  0  0  0  0  0  0  0
   -1.0800   20.5050   43.9700 C   0  0  0  0  0  0  0  0  0  0  0  0
   -0.7100   19.3090   44.1230 C   0  0  0  0  0  0  0  0  0  0  0  0
    3.2110   21.9040   34.8480 O   0  0  0  0  0  0  0  0  0  0  0  0
    2.6860   18.7240   37.7240 C   0  0  0  0  0  0  0  0  0  0  0  0
    0.0950   18.7540   43.1590 C   0  0  0  0  0  0  0  0  0  0  0  0
    2.2390   15.5710   38.7170 C   0  0  0  0  0  0  0  0  0  0  0  0
   -0.6490   21.2410   42.8980 N   0  0  0  0  0  0  0  0  0  0  0  0
    1.9480   20.2480   39.2400 C   0  0  0  0  0  0  0  0  0  0  0  0
    2.4150   20.0290   37.9730 C   0  0  0  0  0  0  0  0  0  0  0  0
    2.4890   14.6510   39.9450 C   0  0  0  0  0  0  0  0  0  0  0  0
    3.4170   16.3980   38.4860 C   0  0  0  0  0  0  0  0  0  0  0  0
    0.8190   21.6230   41.1000 C   0  0  0  0  0  0  0  0  0  0  0  0
    2.0200   19.2850   40.2200 C   0  0  0  0  0  0  0  0  0  0  0  0
    3.6680   19.9370   35.4210 O   0  0  0  0  0  0  0  0  0  0  0  0
    3.3480   21.5570   33.7110 O   0  0  0  0  0  0  0  0  0  0  0  0
    1.4280   18.8370   41.2260 C   0  0  0  0  0  0  0  0  0  0  0  0
    2.8580   13.5540   39.5860 O   0  0  0  0  0  0  0  0  0  0  0  0
    2.2020   14.8780   41.2780 N   0  0  0  0  0  0  0  0  0  0  0  0
    3.0610   17.9270   38.7140 C   0  0  0  0  0  0  0  0  0  0  0  0
    2.2408   16.9988   41.2241 H   0  0  0  0  0  0  0  0  0  0  0  0
    4.0387   19.2744   39.9019 H   0  0  0  0  0  0  0  0  0  0  0  0
    3.3624   17.8328   40.7343 H   0  0  0  0  0  0  0  0  0  0  0  0
    1.2054   14.6848   43.0902 H   0  0  0  0  0  0  0  0  0  0  0  0
    0.1622   14.8529   41.6174 H   0  0  0  0  0  0  0  0  0  0  0  0
   -0.3644   17.0326   43.9653 H   0  0  0  0  0  0  0  0  0  0  0  0
    2.7372   22.0715   37.4206 H   0  0  0  0  0  0  0  0  0  0  0  0
    1.2795   21.2969   36.6855 H   0  0  0  0  0  0  0  0  0  0  0  0
    1.3445   22.2722   39.0793 H   0  0  0  0  0  0  0  0  0  0  0  0
   -1.7570   20.9627   44.7063 H   0  0  0  0  0  0  0  0  0  0  0  0
   -1.0230   18.7276   45.0028 H   0  0  0  0  0  0  0  0  0  0  0  0
    2.0443   14.9526   37.8283 H   0  0  0  0  0  0  0  0  0  0  0  0
    1.3689   16.2155   38.9109 H   0  0  0  0  0  0  0  0  0  0  0  0
    3.4017   20.3198   37.5834 H   0  0  0  0  0  0  0  0  0  0  0  0
    3.7649   16.2554   37.4523 H   0  0  0  0  0  0  0  0  0  0  0  0
    4.2085   16.1030   39.1906 H   0  0  0  0  0  0  0  0  0  0  0  0
    0.8847   22.6660   41.4432 H   0  0  0  0  0  0  0  0  0  0  0  0
    3.7115   20.6364   33.6884 H   0  0  0  0  0  0  0  0  0  0  0  0
    3.0588   14.7966   41.8438 H   0  0  0  0  0  0  0  0  0  0  0  0
  1  6  2  0
  2 24  1  0
  3  6  1  0
  4 16  1  0
  6  5  1  0
  8  7  1  0
  9  4  1  0
  9 18  2  0
 10 23  2  0
 11 15  1  0
 12 13  2  0
 14  8  1  0
 15 20  1  0
 15 30  2  0
 16  5  2  0
 16 13  1  0
 17 21  1  0
 18 12  1  0
 19 10  1  0
 19 24  2  0
 20  7  1  0
 20 19  1  0
 21 29  1  0
 22 30  1  0
 22 17  1  0
 23  9  1  0
 24 27  1  0
 25  8  2  0
 26 14  1  0
 27  1  1  0
 27  4  2  0
 28 21  2  0
 29  3  1  0
 30  2  1  0
  1 31  1  0
  2 32  1  0
  2 33  1  0
  3 34  1  0
  3 35  1  0
  5 36  1  0
  7 37  1  0
  7 38  1  0
 10 39  1  0
 12 40  1  0
 13 41  1  0
 17 42  1  0
 17 43  1  0
 20 44  1  0
 22 45  1  0
 22 46  1  0
 23 47  1  0
 26 48  1  0
 29 49  1  0
M  END
>  <mol_id>  (82) 
2026-09-18-3war-s0-n100-refligand-seed1-0082

>  <rmsd_to_ref>  (82) 


$$$$

     RDKit          3D

 16 17  0  0  0  0  0  0  0  0999 V2000
    1.4160   19.9520   40.7120 C   0  0  0  0  0  0  0  0  0  0  0  0
    3.0660   18.8230   37.6140 C   0  0  0  0  0  0  0  0  0  0  0  0
    2.8130   16.7510   39.6410 O   0  0  0  0  0  0  0  0  0  0  0  0
    1.8390   21.1840   38.5090 N   0  0  0  0  0  0  0  0  0  0  0  0
    1.6680   18.6260   40.9780 N   0  0  0  0  0  0  0  0  0  0  0  0
    2.5160   18.9320   38.8920 C   0  0  0  0  0  0  0  0  0  0  0  0
    2.9970   19.9410   36.7570 C   0  0  0  0  0  0  0  0  0  0  0  0
    1.8860   20.1600   39.3560 C   0  0  0  0  0  0  0  0  0  0  0  0
    2.3610   21.1400   37.1890 C   0  0  0  0  0  0  0  0  0  0  0  0
    0.8840   20.8410   41.4670 N   0  0  0  0  0  0  0  0  0  0  0  0
    2.3350   18.0240   39.9510 C   0  0  0  0  0  0  0  0  0  0  0  0
    3.5417   17.8880   37.2832 H   0  0  0  0  0  0  0  0  0  0  0  0
    3.4365   19.8867   35.7501 H   0  0  0  0  0  0  0  0  0  0  0  0
    2.2765   22.0080   36.5186 H   0  0  0  0  0  0  0  0  0  0  0  0
    0.7605   21.8033   41.1213 H   0  0  0  0  0  0  0  0  0  0  0  0
    0.5801   20.5929   42.4194 H   0  0  0  0  0  0  0  0  0  0  0  0
  1  5  2  0
  1 10  1  0
  2  6  2  0
  3 11  2  0
  4  8  2  0
  6  8  1  0
  6 11  1  0
  7  9  2  0
  7  2  1  0
  8  1  1  0
  9  4  1  0
 11  5  1  0
  2 12  1  0
  7 13  1  0
  9 14  1  0
 10 15  1  0
 10 16  1  0
M  END
>  <mol_id>  (83) 
2026-09-18-3war-s0-n100-refligand-seed1-0083

>  <rmsd_to_ref>  (83) 


$$$$

     RDKit          3D

 46 49  0  0  0  0  0  0  0  0999 V2000
    0.6620   20.5280   41.2370 C   0  0  0  0  0  0  0  0  0  0  0  0
   -1.1610   19.7020   44.9170 N   0  0  0  0  0  0  0  0  0  0  0  0
    2.7520   20.7990   36.5150 C   0  0  0  0  0  0  0  0  0  0  0  0
    0.1360   19.0260   42.9770 C   0  0  0  0  0  0  0  0  0  0  0  0
    3.5530   17.2950   36.9370 O   0  0  0  0  0  0  0  0  0  0  0  0
    1.9280   20.5100   38.8290 C   0  0  0  0  0  0  0  0  0  0  0  0
    5.1750   15.6310   36.5470 O   0  0  0  0  0  0  0  0  0  0  0  0
    1.7930   15.3750   40.3470 C   0  0  0  0  0  0  0  0  0  0  0  0
    3.2320   19.5660   36.3470 N   0  0  0  0  0  0  0  0  0  0  0  0
    3.5500   15.2000   38.3600 C   0  0  0  0  0  0  0  0  0  0  0  0
   -0.7750   21.1220   43.0640 N   0  0  0  0  0  0  0  0  0  0  0  0
   -0.1690   21.4250   41.9350 C   0  0  0  0  0  0  0  0  0  0  0  0
    2.9010   17.2940   39.7370 O   0  0  0  0  0  0  0  0  0  0  0  0
    0.7780   19.2850   41.8300 N   0  0  0  0  0  0  0  0  0  0  0  0
    2.7250   14.4890   37.4310 O   0  0  0  0  0  0  0  0  0  0  0  0
    4.4320   16.3080   37.5890 C   0  0  0  0  0  0  0  0  0  0  0  0
    2.4910   16.0540   39.1820 C   0  0  0  0  0  0  0  0  0  0  0  0
    0.1870   17.7070   43.5910 C   0  0  0  0  0  0  0  0  0  0  0  0
    2.4700   19.1950   38.6840 C   0  0  0  0  0  0  0  0  0  0  0  0
    2.1010   18.2380   39.7660 N   0  0  0  0  0  0  0  0  0  0  0  0
   -0.6330   20.0050   43.6750 C   0  0  0  0  0  0  0  0  0  0  0  0
   -0.4160   17.4580   44.8840 C   0  0  0  0  0  0  0  0  0  0  0  0
    2.1770   13.9920   40.1270 O   0  0  0  0  0  0  0  0  0  0  0  0
    2.1160   21.3330   37.6830 C   0  0  0  0  0  0  0  0  0  0  0  0
    1.3030   21.0000   40.0850 C   0  0  0  0  0  0  0  0  0  0  0  0
   -1.0090   18.5000   45.4810 C   0  0  0  0  0  0  0  0  0  0  0  0
    3.0980   18.7010   37.4040 C   0  0  0  0  0  0  0  0  0  0  0  0
   -0.1707   20.1567   40.6215 H   0  0  0  0  0  0  0  0  0  0  0  0
    2.8561   21.4835   35.6603 H   0  0  0  0  0  0  0  0  0  0  0  0
    5.8409   15.0242   36.9575 H   0  0  0  0  0  0  0  0  0  0  0  0
    2.1623   15.7487   41.3134 H   0  0  0  0  0  0  0  0  0  0  0  0
    0.7069   15.5446   40.3882 H   0  0  0  0  0  0  0  0  0  0  0  0
    4.2000   14.5199   38.9300 H   0  0  0  0  0  0  0  0  0  0  0  0
   -0.3197   22.4307   41.5156 H   0  0  0  0  0  0  0  0  0  0  0  0
    2.0760   13.9297   37.9270 H   0  0  0  0  0  0  0  0  0  0  0  0
    5.0929   16.8166   38.3063 H   0  0  0  0  0  0  0  0  0  0  0  0
    1.8246   16.2028   38.3196 H   0  0  0  0  0  0  0  0  0  0  0  0
   -0.2942   17.0151   42.8841 H   0  0  0  0  0  0  0  0  0  0  0  0
    1.2598   17.5801   43.7982 H   0  0  0  0  0  0  0  0  0  0  0  0
    1.3158   18.3441   40.4241 H   0  0  0  0  0  0  0  0  0  0  0  0
   -0.3884   16.4630   45.3523 H   0  0  0  0  0  0  0  0  0  0  0  0
    2.3021   13.5414   40.9996 H   0  0  0  0  0  0  0  0  0  0  0  0
    1.7734   22.3782   37.6938 H   0  0  0  0  0  0  0  0  0  0  0  0
    0.5452   21.6921   39.6890 H   0  0  0  0  0  0  0  0  0  0  0  0
    2.2752   21.0504   40.5972 H   0  0  0  0  0  0  0  0  0  0  0  0
   -1.3957   18.3573   46.5009 H   0  0  0  0  0  0  0  0  0  0  0  0
  1 25  1  0
  1 14  1  0
  1 12  1  0
  2 26  1  0
  3 24  2  0
  4 18  1  0
  4 21  1  0
  5 27  1  0
  5 16  1  0
  6 25  1  0
  9  3  1  0
  9 27  2  0
 10 15  1  0
 10 17  1  0
 11 21  1  0
 12 11  2  0
 13 20  1  0
 14  4  2  0
 16  7  1  0
 16 10  1  0
 17 13  1  0
 17  8  1  0
 18 22  1  0
 19  6  2  0
 19 20  1  0
 21  2  2  0
 22 26  2  0
 23  8  1  0
 24  6  1  0
 27 19  1  0
  1 28  1  0
  3 29  1  0
  7 30  1  0
  8 31  1  0
  8 32  1  0
 10 33  1  0
 12 34  1  0
 15 35  1  0
 16 36  1  0
 17 37  1  0
 18 38  1  0
 18 39  1  0
 20 40  1  0
 22 41  1  0
 23 42  1  0
 24 43  1  0
 25 44  1  0
 25 45  1  0
 26 46  1  0
M  END
>  <mol_id>  (84) 
2026-09-18-3war-s0-n100-refligand-seed1-0084

>  <rmsd_to_ref>  (84) 


$$$$

     RDKit          3D

 52 56  0  0  0  0  0  0  0  0999 V2000
   -0.9340   19.8900   44.0020 C   0  0  0  0  0  0  0  0  0  0  0  0
    4.6230   13.6640   36.3420 C   0  0  0  0  0  0  0  0  0  0  0  0
    0.4050   19.0700   42.2010 C   0  0  0  0  0  0  0  0  0  0  0  0
    4.5890   12.4830   37.0290 N   0  0  0  0  0  4  0  0  0  0  0  0
    4.0260   14.6720   38.6870 C   0  0  0  0  0  0  0  0  0  0  0  0
    2.2820   18.5880   40.0940 N   0  0  0  0  0  0  0  0  0  0  0  0
   -1.5520   19.5550   45.1170 O   0  0  0  0  0  0  0  0  0  0  0  0
    0.8990   17.7540   41.8440 N   0  0  0  0  0  0  0  0  0  0  0  0
    1.6580   21.7070   37.9160 C   0  0  0  0  0  0  0  0  0  0  0  0
    2.8670   17.8000   39.0750 C   0  0  0  0  0  0  0  0  0  0  0  0
    3.1790   18.4390   37.8350 C   0  0  0  0  0  0  0  0  0  0  0  0
    1.5410   20.5990   40.7310 O   0  0  0  0  0  0  0  0  0  0  0  0
    2.0480   22.1840   35.4690 O   0  0  0  0  0  0  0  0  0  0  0  0
    3.7280   17.8330   36.9620 O   0  0  0  0  0  0  0  0  0  0  0  0
    4.6710   14.8690   37.2820 C   0  0  0  0  0  0  0  0  0  0  0  0
    0.5590   20.4260   41.7180 C   0  0  0  0  0  0  0  0  0  0  0  0
    3.4570   13.2200   38.8910 C   0  0  0  0  0  0  0  0  0  0  0  0
    2.9750   20.5230   36.3730 O   0  0  0  0  0  0  0  0  0  0  0  0
    2.4970   19.8710   39.9170 C   0  0  0  0  0  0  0  0  0  0  0  0
    2.9570   16.6380   39.3050 N   0  0  0  0  0  0  0  0  0  0  0  0
   -0.4570   17.4780   43.6640 N   0  0  0  0  0  0  0  0  0  0  0  0
    2.8380   15.4540   38.8640 N   0  0  0  0  0  0  0  0  0  0  0  0
   -0.7780   21.1380   43.5500 N   0  0  0  0  0  0  0  0  0  0  0  0
    2.8780   19.7500   37.5240 C   0  0  0  0  0  0  0  0  0  0  0  0
   -0.3780   18.8090   43.3050 C   0  0  0  0  0  0  0  0  0  0  0  0
    2.2200   21.5630   36.5700 C   0  0  0  0  0  0  0  0  0  0  0  0
   -0.0430   21.3600   42.4140 C   0  0  0  0  0  0  0  0  0  0  0  0
    2.1260   20.3850   38.6120 C   0  0  0  0  0  0  0  0  0  0  0  0
    0.2730   16.8640   42.7300 C   0  0  0  0  0  0  0  0  0  0  0  0
    3.2090   12.4470   37.5570 C   0  0  0  0  0  0  0  0  0  0  0  0
    5.5169   13.6770   35.7011 H   0  0  0  0  0  0  0  0  0  0  0  0
    3.7039   13.7360   35.7419 H   0  0  0  0  0  0  0  0  0  0  0  0
    4.7670   11.6849   36.4027 H   0  0  0  0  0  0  0  0  0  0  0  0
    5.3074   12.4197   37.7644 H   0  0  0  0  0  0  0  0  0  0  0  0
    4.8456   14.9370   39.3711 H   0  0  0  0  0  0  0  0  0  0  0  0
    2.0657   22.5923   38.4260 H   0  0  0  0  0  0  0  0  0  0  0  0
    0.5674   21.8498   37.9265 H   0  0  0  0  0  0  0  0  0  0  0  0
    5.7276   15.1355   37.4322 H   0  0  0  0  0  0  0  0  0  0  0  0
    4.0724   15.6499   36.7902 H   0  0  0  0  0  0  0  0  0  0  0  0
    4.1762   12.6474   39.4951 H   0  0  0  0  0  0  0  0  0  0  0  0
    2.4806   13.3253   39.3865 H   0  0  0  0  0  0  0  0  0  0  0  0
    3.5713   19.9919   40.1201 H   0  0  0  0  0  0  0  0  0  0  0  0
    3.2640   16.5562   40.2848 H   0  0  0  0  0  0  0  0  0  0  0  0
    2.3740   15.5156   37.9465 H   0  0  0  0  0  0  0  0  0  0  0  0
   -1.2073   21.9283   44.0520 H   0  0  0  0  0  0  0  0  0  0  0  0
    3.8038   19.5877   36.9526 H   0  0  0  0  0  0  0  0  0  0  0  0
   -1.2555   18.6853   42.6534 H   0  0  0  0  0  0  0  0  0  0  0  0
    0.0483   22.3977   42.0607 H   0  0  0  0  0  0  0  0  0  0  0  0
    1.1923   20.2710   39.1822 H   0  0  0  0  0  0  0  0  0  0  0  0
    0.3736   15.7707   42.6619 H   0  0  0  0  0  0  0  0  0  0  0  0
    2.4991   12.9703   36.8996 H   0  0  0  0  0  0  0  0  0  0  0  0
    2.7601   11.4479   37.6580 H   0  0  0  0  0  0  0  0  0  0  0  0
  1  7  2  0
  2  4  1  0
  2 15  1  0
  4 30  1  0
  5 22  1  0
  5 17  1  0
  8  3  2  0
  8 29  1  0
 10 20  1  0
 10  6  2  0
 11 10  1  0
 12 16  1  0
 13 26  2  0
 14 11  2  0
 15  5  1  0
 16  3  1  0
 16 27  2  0
 18 26  1  0
 19  6  1  0
 19 12  1  0
 22 20  1  0
 23  1  1  0
 24 18  1  0
 24 11  1  0
 24 28  1  0
 25  3  1  0
 25 21  1  0
 25  1  1  0
 26  9  1  0
 27 23  1  0
 28  9  1  0
 28 19  1  0
 29 21  2  0
 30 17  1  0
  2 31  1  0
  2 32  1  0
  4 33  1  0
  4 34  1  0
  5 35  1  0
  9 36  1  0
  9 37  1  0
 15 38  1  0
 15 39  1  0
 17 40  1  0
 17 41  1  0
 19 42  1  0
 20 43  1  0
 22 44  1  0
 23 45  1  0
 24 46  1  0
 25 47  1  0
 27 48  1  0
 28 49  1  0
 29 50  1  0
 30 51  1  0
 30 52  1  0
M  CHG  1   4   1
M  END
>  <mol_id>  (85) 
2026-09-18-3war-s0-n100-refligand-seed1-0085

>  <rmsd_to_ref>  (85) 


$$$$

     RDKit          3D

 27 29  0  0  0  0  0  0  0  0999 V2000
    2.4440   17.2280   40.4000 C   0  0  0  0  0  0  0  0  0  0  0  0
    1.4450   19.4580   40.6540 C   0  0  0  0  0  0  0  0  0  0  0  0
    3.1450   19.3420   37.3820 C   0  0  0  0  0  0  0  0  0  0  0  0
    2.7290   18.8990   38.7090 C   0  0  0  0  0  0  0  0  0  0  0  0
    0.0630   19.9060   42.6210 C   0  0  0  0  0  0  0  0  0  0  0  0
    1.0010   17.7620   42.3300 C   0  0  0  0  0  0  0  0  0  0  0  0
    1.5810   21.0270   38.8020 C   0  0  0  0  0  0  0  0  0  0  0  0
    1.9200   19.8140   39.4170 C   0  0  0  0  0  0  0  0  0  0  0  0
    3.8870   18.5830   36.7690 O   0  0  0  0  0  0  0  0  0  0  0  0
    0.2120   18.6170   43.0070 C   0  0  0  0  0  0  0  0  0  0  0  0
    2.8290   20.5670   36.8140 C   0  0  0  0  0  0  0  0  0  0  0  0
    1.6340   18.1510   41.1330 C   0  0  0  0  0  0  0  0  0  0  0  0
    3.0470   17.6250   39.2700 C   0  0  0  0  0  0  0  0  0  0  0  0
    3.8780   16.5640   38.6350 C   0  0  0  0  0  0  0  0  0  0  0  0
    0.6300   20.3220   41.4590 C   0  0  0  0  0  0  0  0  0  0  0  0
    2.0160   21.4100   37.5490 C   0  0  0  0  0  0  0  0  0  0  0  0
    3.3290   20.9130   35.7190 O   0  0  0  0  0  0  0  0  0  0  0  0
    2.5718   16.1970   40.7616 H   0  0  0  0  0  0  0  0  0  0  0  0
   -0.5113   20.6092   43.2420 H   0  0  0  0  0  0  0  0  0  0  0  0
    1.1539   16.7439   42.7173 H   0  0  0  0  0  0  0  0  0  0  0  0
    0.9263   21.7182   39.3531 H   0  0  0  0  0  0  0  0  0  0  0  0
   -0.3258   18.2589   43.8973 H   0  0  0  0  0  0  0  0  0  0  0  0
    4.3551   15.9549   39.4169 H   0  0  0  0  0  0  0  0  0  0  0  0
    3.2392   15.9231   38.0096 H   0  0  0  0  0  0  0  0  0  0  0  0
    4.6533   17.0307   38.0096 H   0  0  0  0  0  0  0  0  0  0  0  0
    0.4587   21.3556   41.1239 H   0  0  0  0  0  0  0  0  0  0  0  0
    1.7162   22.3844   37.1359 H   0  0  0  0  0  0  0  0  0  0  0  0
  1 12  2  0
  2 12  1  0
  2 15  1  0
  3  4  1  0
  4 13  2  0
  4  8  1  0
  5 10  1  0
  6 10  2  0
  7  8  1  0
  8  2  2  0
  9  3  2  0
 11  3  1  0
 11 16  1  0
 12  6  1  0
 13  1  1  0
 14 13  1  0
 15  5  2  0
 16  7  2  0
 17 11  2  0
  1 18  1  0
  5 19  1  0
  6 20  1  0
  7 21  1  0
 10 22  1  0
 14 23  1  0
 14 24  1  0
 14 25  1  0
 15 26  1  0
 16 27  1  0
M  END
>  <mol_id>  (86) 
2026-09-18-3war-s0-n100-refligand-seed1-0086

>  <rmsd_to_ref>  (86) 


$$$$

     RDKit          3D

 18 20  0  0  0  0  0  0  0  0999 V2000
    3.3930   18.7300   37.2190 N   0  0  0  0  0  0  0  0  0  0  0  0
    1.2090   20.8050   39.8210 S   0  0  0  0  0  0  0  0  0  0  0  0
    0.8380   19.8410   41.1350 C   0  0  0  0  0  0  0  0  0  0  0  0
    1.3380   17.7660   42.0980 C   0  0  0  0  0  0  0  0  0  0  0  0
    0.1860   19.6430   42.3510 C   0  0  0  0  0  0  0  0  0  0  0  0
    2.1650   18.4020   39.7540 C   0  0  0  0  0  0  0  0  0  0  0  0
    2.4630   20.7760   36.9100 O   0  0  0  0  0  0  0  0  0  0  0  0
    2.8380   17.4000   39.1110 N   0  0  0  0  0  0  0  0  0  0  0  0
    1.5660   18.5120   40.9430 C   0  0  0  0  0  0  0  0  0  0  0  0
    2.0360   19.6440   38.9630 C   0  0  0  0  0  0  0  0  0  0  0  0
    0.4880   18.3920   42.9220 N   0  0  0  0  0  0  0  0  0  0  0  0
    3.4830   17.5660   38.0010 C   0  0  0  0  0  0  0  0  0  0  0  0
    2.6650   19.7720   37.6100 C   0  0  0  0  0  0  0  0  0  0  0  0
    3.9014   18.7772   36.3244 H   0  0  0  0  0  0  0  0  0  0  0  0
    1.7973   16.7884   42.3061 H   0  0  0  0  0  0  0  0  0  0  0  0
    0.4936   20.4345   43.0502 H   0  0  0  0  0  0  0  0  0  0  0  0
   -0.8970   19.6734   42.1609 H   0  0  0  0  0  0  0  0  0  0  0  0
    4.1361   16.7528   37.6514 H   0  0  0  0  0  0  0  0  0  0  0  0
  1 13  1  0
  1 12  1  0
  2  3  1  0
  3  5  1  0
  4 11  2  0
  5 11  1  0
  6  9  1  0
  7 13  2  0
  8  6  1  0
  9  3  2  0
  9  4  1  0
 10  6  2  0
 10  2  1  0
 12  8  2  0
 13 10  1  0
  1 14  1  0
  4 15  1  0
  5 16  1  0
  5 17  1  0
 12 18  1  0
M  END
>  <mol_id>  (87) 
2026-09-18-3war-s0-n100-refligand-seed1-0087

>  <rmsd_to_ref>  (87) 


$$$$

     RDKit          3D

 42 45  0  0  0  0  0  0  0  0999 V2000
    1.1280   20.4060   40.6550 O   0  0  0  0  0  0  0  0  0  0  0  0
    3.2780   17.1720   38.1410 C   0  0  0  0  0  0  0  0  0  0  0  0
    0.6410   18.6040   42.1530 C   0  0  0  0  0  0  0  0  0  0  0  0
    0.5320   19.9610   41.8380 C   0  0  0  0  0  0  0  0  0  0  0  0
   -1.2390   18.9260   45.4100 O   0  0  0  0  0  0  0  0  0  0  0  0
    3.3190   21.8530   34.9910 O   0  0  0  0  0  0  0  0  0  0  0  0
   -0.9120   20.5090   43.6810 N   0  0  0  0  0  0  0  0  0  0  0  0
    1.4240   17.7480   41.3030 C   0  0  0  0  0  0  0  0  0  0  0  0
    3.0380   19.5490   37.5590 C   0  0  0  0  0  0  0  0  0  0  0  0
    1.9600   18.1920   40.0930 C   0  0  0  0  0  0  0  0  0  0  0  0
   -0.3010   20.8230   42.5870 C   0  0  0  0  0  0  0  0  0  0  0  0
    3.4580   14.8720   38.1490 C   0  0  0  0  0  0  0  0  0  0  0  0
    0.0510   18.2920   43.4010 C   0  0  0  0  0  0  0  0  0  0  0  0
    2.9470   21.3680   36.1070 C   0  0  0  0  0  0  0  0  0  0  0  0
   -0.7080   19.2610   44.1400 C   0  0  0  0  0  0  0  0  0  0  0  0
   -0.5390   17.9410   46.1540 C   0  0  0  0  0  0  0  0  0  0  0  0
    3.3830   20.1450   36.4180 N   0  0  0  0  0  0  0  0  0  0  0  0
    1.5780   21.4240   38.1290 C   0  0  0  0  0  0  0  0  0  0  0  0
    1.7660   19.6450   39.8080 C   0  0  0  0  0  0  0  0  0  0  0  0
    3.7330   16.1100   37.5860 N   0  0  0  0  0  0  0  0  0  0  0  0
    3.6050   18.4030   37.5690 N   0  0  0  0  0  0  0  0  0  0  0  0
    2.9160   14.7270   39.2290 O   0  0  0  0  0  0  0  0  0  0  0  0
    2.6050   17.2860   39.3370 C   0  0  0  0  0  0  0  0  0  0  0  0
    3.7970   13.6680   37.2970 C   0  0  0  0  0  0  0  0  0  0  0  0
    2.1590   20.1280   38.5230 C   0  0  0  0  0  0  0  0  0  0  0  0
    1.8970   22.0170   36.7920 C   0  0  0  0  0  0  0  0  0  0  0  0
    1.6065   16.7096   41.6166 H   0  0  0  0  0  0  0  0  0  0  0  0
   -0.4405   21.8458   42.2069 H   0  0  0  0  0  0  0  0  0  0  0  0
   -0.6242   17.4426   43.2202 H   0  0  0  0  0  0  0  0  0  0  0  0
    0.9302   18.1426   44.0449 H   0  0  0  0  0  0  0  0  0  0  0  0
   -0.6731   18.1297   47.2294 H   0  0  0  0  0  0  0  0  0  0  0  0
   -0.9327   16.9446   45.9047 H   0  0  0  0  0  0  0  0  0  0  0  0
    0.5315   17.9852   45.9047 H   0  0  0  0  0  0  0  0  0  0  0  0
    0.9079   21.9571   38.8195 H   0  0  0  0  0  0  0  0  0  0  0  0
    4.2989   16.1752   36.7279 H   0  0  0  0  0  0  0  0  0  0  0  0
    1.8257   16.5193   39.2150 H   0  0  0  0  0  0  0  0  0  0  0  0
    3.5417   17.4281   39.8959 H   0  0  0  0  0  0  0  0  0  0  0  0
    4.0374   12.8143   37.9477 H   0  0  0  0  0  0  0  0  0  0  0  0
    2.9355   13.4139   36.6620 H   0  0  0  0  0  0  0  0  0  0  0  0
    4.6645   13.9007   36.6620 H   0  0  0  0  0  0  0  0  0  0  0  0
    3.0098   20.6500   38.9853 H   0  0  0  0  0  0  0  0  0  0  0  0
    1.3597   22.8835   36.3790 H   0  0  0  0  0  0  0  0  0  0  0  0
  1  4  1  0
  2 23  1  0
  3 13  1  0
  4  3  1  0
  4 11  2  0
  5 16  1  0
  6 14  2  0
  7 15  2  0
  8  3  2  0
  9 21  1  0
  9 25  1  0
 10  8  1  0
 11  7  1  0
 12 22  2  0
 13 15  1  0
 14 17  1  0
 14 26  1  0
 15  5  1  0
 17  9  2  0
 19 10  2  0
 19  1  1  0
 20  2  1  0
 20 12  1  0
 21  2  2  0
 23 10  1  0
 24 12  1  0
 25 18  1  0
 25 19  1  0
 26 18  2  0
  8 27  1  0
 11 28  1  0
 13 29  1  0
 13 30  1  0
 16 31  1  0
 16 32  1  0
 16 33  1  0
 18 34  1  0
 20 35  1  0
 23 36  1  0
 23 37  1  0
 24 38  1  0
 24 39  1  0
 24 40  1  0
 25 41  1  0
 26 42  1  0
M  END
>  <mol_id>  (88) 
2026-09-18-3war-s0-n100-refligand-seed1-0088

>  <rmsd_to_ref>  (88) 


$$$$

     RDKit          3D

 32 34  0  0  0  0  0  0  0  0999 V2000
    2.5110   18.1070   39.2410 C   0  0  0  0  0  0  0  0  0  0  0  0
    3.9560   17.9950   39.6580 C   0  0  0  0  0  0  0  0  0  0  0  0
   -0.2140   19.1300   42.3700 C   0  0  0  0  0  0  0  0  0  0  0  0
    1.1630   19.8510   40.5320 C   0  0  0  0  0  0  0  0  0  0  0  0
    3.0100   20.0600   36.9270 C   0  0  0  0  0  0  0  0  0  0  0  0
   -0.3950   20.4770   42.7150 C   0  0  0  0  0  0  0  0  0  0  0  0
    3.3400   15.9390   38.3640 N   0  0  0  0  0  0  0  0  0  0  0  0
    3.4870   18.9380   36.5440 O   0  0  0  0  0  0  0  0  0  0  0  0
    0.5370   18.8460   41.2230 C   0  0  0  0  0  0  0  0  0  0  0  0
    2.2250   20.4280   38.1590 C   0  0  0  0  0  0  0  0  0  0  0  0
    1.0080   21.2180   40.9280 C   0  0  0  0  0  0  0  0  0  0  0  0
    1.7150   21.5460   38.2160 O   0  0  0  0  0  0  0  0  0  0  0  0
    2.9900   16.8460   39.3530 C   0  0  0  0  0  0  0  0  0  0  0  0
    2.5790   15.9480   40.2570 O   0  0  0  0  0  0  0  0  0  0  0  0
    2.0370   19.4480   39.2440 C   0  0  0  0  0  0  0  0  0  0  0  0
    2.4120   14.6690   39.8770 N   0  0  0  0  0  0  0  0  0  0  0  0
    0.2540   21.4720   42.0130 C   0  0  0  0  0  0  0  0  0  0  0  0
    2.9750   14.6540   38.6360 C   0  0  0  0  0  0  0  0  0  0  0  0
    3.1330   21.0480   36.0720 N   0  0  0  0  0  0  0  0  0  0  0  0
    3.5113   18.4612   38.9511 H   0  0  0  0  0  0  0  0  0  0  0  0
    4.7697   18.2532   38.9643 H   0  0  0  0  0  0  0  0  0  0  0  0
    4.5945   18.3268   40.4900 H   0  0  0  0  0  0  0  0  0  0  0  0
   -0.6474   18.3237   42.9799 H   0  0  0  0  0  0  0  0  0  0  0  0
   -1.0589   20.7423   43.5510 H   0  0  0  0  0  0  0  0  0  0  0  0
    3.8318   16.2119   37.5011 H   0  0  0  0  0  0  0  0  0  0  0  0
    0.6256   17.8069   40.8731 H   0  0  0  0  0  0  0  0  0  0  0  0
    1.4884   22.0319   40.3651 H   0  0  0  0  0  0  0  0  0  0  0  0
    2.9782   19.7797   39.7067 H   0  0  0  0  0  0  0  0  0  0  0  0
    0.1510   22.5129   42.3535 H   0  0  0  0  0  0  0  0  0  0  0  0
    3.1084   13.7787   37.9833 H   0  0  0  0  0  0  0  0  0  0  0  0
    3.6516   20.9071   35.1933 H   0  0  0  0  0  0  0  0  0  0  0  0
    2.7109   21.9643   36.2796 H   0  0  0  0  0  0  0  0  0  0  0  0
  1 15  1  0
  1 13  1  0
  1  2  1  0
  3  6  2  0
  4 11  1  0
  4  9  2  0
  5 10  1  0
  7 18  1  0
  7 13  1  0
  8  5  2  0
  9  3  1  0
 10 12  2  0
 11 17  2  0
 13  2  1  0
 13 14  1  0
 15 10  1  0
 15  4  1  0
 16 14  1  0
 17  6  1  0
 18 16  2  0
 19  5  1  0
  1 20  1  0
  2 21  1  0
  2 22  1  0
  3 23  1  0
  6 24  1  0
  7 25  1  0
  9 26  1  0
 11 27  1  0
 15 28  1  0
 17 29  1  0
 18 30  1  0
 19 31  1  0
 19 32  1  0
M  END
>  <mol_id>  (89) 
2026-09-18-3war-s0-n100-refligand-seed1-0089

>  <rmsd_to_ref>  (89) 


$$$$

     RDKit          3D

 26 28  0  0  0  0  0  0  0  0999 V2000
    3.5910   21.0280   35.5750 O   0  0  0  0  0  0  0  0  0  0  0  0
    1.5430   19.1520   40.4040 C   0  0  0  0  0  0  0  0  0  0  0  0
    0.9730   17.1100   42.3280 C   0  0  0  0  0  0  0  0  0  0  0  0
    2.0790   21.5480   37.4410 C   0  0  0  0  0  0  0  0  0  0  0  0
    2.1590   15.4590   40.7640 O   0  0  0  0  0  0  0  0  0  0  0  0
    0.5750   18.4780   42.5870 C   0  0  0  0  0  0  0  0  0  0  0  0
    2.6610   17.6870   39.0870 O   0  0  0  0  0  0  0  0  0  0  0  0
    1.5210   21.1370   38.6970 C   0  0  0  0  0  0  0  0  0  0  0  0
    2.6470   18.8560   38.4610 C   0  0  0  0  0  0  0  0  0  0  0  0
    0.9520   19.4480   41.6350 C   0  0  0  0  0  0  0  0  0  0  0  0
    1.7160   16.7550   41.1640 C   0  0  0  0  0  0  0  0  0  0  0  0
    2.9510   20.5980   36.7910 C   0  0  0  0  0  0  0  0  0  0  0  0
    1.8530   19.9130   39.2040 C   0  0  0  0  0  0  0  0  0  0  0  0
    2.0920   17.8270   40.2690 C   0  0  0  0  0  0  0  0  0  0  0  0
    0.6360   21.0270   41.7940 C   0  0  0  0  0  0  0  0  0  0  0  0
    3.1990   19.2950   37.2940 C   0  0  0  0  0  0  0  0  0  0  0  0
    3.4207   21.9365   35.2205 H   0  0  0  0  0  0  0  0  0  0  0  0
    0.6952   16.3253   43.0471 H   0  0  0  0  0  0  0  0  0  0  0  0
    1.8556   22.5300   36.9986 H   0  0  0  0  0  0  0  0  0  0  0  0
    2.6717   15.3484   39.9244 H   0  0  0  0  0  0  0  0  0  0  0  0
    0.0035   18.7489   43.4870 H   0  0  0  0  0  0  0  0  0  0  0  0
    0.8345   21.7992   39.2448 H   0  0  0  0  0  0  0  0  0  0  0  0
    0.5844   21.2849   42.8621 H   0  0  0  0  0  0  0  0  0  0  0  0
    1.4351   21.6110   41.3140 H   0  0  0  0  0  0  0  0  0  0  0  0
   -0.3263   21.2585   41.3140 H   0  0  0  0  0  0  0  0  0  0  0  0
    3.8555   18.6193   36.7262 H   0  0  0  0  0  0  0  0  0  0  0  0
  1 12  1  0
  2 10  2  0
  3  6  2  0
  4  8  1  0
  5 11  1  0
  7 14  1  0
  8 13  2  0
  9  7  1  0
  9 13  1  0
 10 15  1  0
 10  6  1  0
 11  3  1  0
 12 16  1  0
 12  4  2  0
 13  2  1  0
 14  2  1  0
 14 11  2  0
 16  9  2  0
  1 17  1  0
  3 18  1  0
  4 19  1  0
  5 20  1  0
  6 21  1  0
  8 22  1  0
 15 23  1  0
 15 24  1  0
 15 25  1  0
 16 26  1  0
M  END
>  <mol_id>  (90) 
2026-09-18-3war-s0-n100-refligand-seed1-0090

>  <rmsd_to_ref>  (90) 


$$$$

     RDKit          3D

 11 10  0  0  0  0  0  0  0  0999 V2000
    1.4040   20.9790   40.9260 S   0  0  0  0  0  0  0  0  0  0  0  0
    1.6720   21.1910   39.1840 C   0  0  0  0  0  0  0  0  0  0  0  0
    2.1770   19.7500   38.7610 C   0  0  0  0  0  0  0  0  0  0  0  0
    2.8240   20.6780   36.6370 O   0  0  0  0  0  0  0  0  0  0  0  0
    3.4660   18.6520   37.1920 O   0  0  0  0  0  1  0  0  0  0  0  0
    2.8450   19.7320   37.3950 C   0  0  0  0  0  0  0  0  0  0  0  0
    2.3291   21.7108   41.6228 H   0  0  0  0  0  0  0  0  0  0  0  0
    0.7401   21.4582   38.6642 H   0  0  0  0  0  0  0  0  0  0  0  0
    2.3726   22.0015   38.9346 H   0  0  0  0  0  0  0  0  0  0  0  0
    2.9016   19.3985   39.5103 H   0  0  0  0  0  0  0  0  0  0  0  0
    1.2947   19.0955   38.7046 H   0  0  0  0  0  0  0  0  0  0  0  0
  2  1  1  0
  3  2  1  0
  4  6  2  0
  5  6  1  0
  6  3  1  0
  1  7  1  0
  2  8  1  0
  2  9  1  0
  3 10  1  0
  3 11  1  0
M  CHG  1   5  -1
M  END
>  <mol_id>  (91) 
2026-09-18-3war-s0-n100-refligand-seed1-0091

>  <rmsd_to_ref>  (91) 


$$$$

     RDKit          3D

 42 45  0  0  0  0  0  0  0  0999 V2000
   -0.0990   17.9480   43.6490 C   0  0  0  0  0  0  0  0  0  0  0  0
    0.4020   20.6150   41.8810 O   0  0  0  0  0  0  0  0  0  0  0  0
    2.9630   19.4270   37.7000 C   0  0  0  0  0  0  0  0  0  0  0  0
   -0.3790   20.2980   42.9870 C   0  0  0  0  0  0  0  0  0  0  0  0
    3.4340   17.4120   38.6600 C   0  0  0  0  0  0  0  0  0  0  0  0
    1.4910   20.4660   39.5820 C   0  0  0  0  0  0  0  0  0  0  0  0
    3.8320   13.9310   37.8390 C   0  0  0  0  0  0  0  0  0  0  0  0
   -0.5170   16.8490   44.5450 C   0  0  0  0  0  0  0  0  0  0  0  0
    2.6840   18.1380   39.6560 C   0  0  0  0  0  0  0  0  0  0  0  0
    3.5930   15.0600   38.5470 C   0  0  0  0  0  0  0  0  0  0  0  0
    2.7830   20.4690   36.9720 C   0  0  0  0  0  0  0  0  0  0  0  0
    2.3410   19.3760   39.0820 C   0  0  0  0  0  0  0  0  0  0  0  0
    2.0650   21.5430   37.4390 N   0  0  0  0  0  0  0  0  0  0  0  0
    5.0700   12.8450   36.0780 O   0  0  0  0  0  0  0  0  0  0  0  0
    1.5080   21.4650   38.6450 C   0  0  0  0  0  0  0  0  0  0  0  0
   -0.9830   21.3620   43.2490 O   0  0  0  0  0  0  0  0  0  0  0  0
   -0.6040   19.2000   43.7550 C   0  0  0  0  0  0  0  0  0  0  0  0
    3.6270   18.2150   37.4360 C   0  0  0  0  0  0  0  0  0  0  0  0
    2.0590   17.5990   40.7620 N   0  0  0  0  0  0  0  0  0  0  0  0
    2.5520   16.0810   38.3630 C   0  0  0  0  0  0  0  0  0  0  0  0
    4.5470   13.7300   36.5910 C   0  0  0  0  0  0  0  0  0  0  0  0
    5.0050   15.0900   36.5090 O   0  0  0  0  0  1  0  0  0  0  0  0
    1.2420   18.4030   41.6630 C   0  0  0  0  0  0  0  0  0  0  0  0
    3.2740   12.8540   38.5040 O   0  0  0  0  0  0  0  0  0  0  0  0
    3.2770   20.6690   35.7220 O   0  0  0  0  0  0  0  0  0  0  0  0
    0.7500   17.5640   42.6740 C   0  0  0  0  0  0  0  0  0  0  0  0
    1.0920   19.6820   41.2910 C   0  0  0  0  0  0  0  0  0  0  0  0
    4.4473   17.1647   39.0094 H   0  0  0  0  0  0  0  0  0  0  0  0
    2.8916   14.0777   37.2876 H   0  0  0  0  0  0  0  0  0  0  0  0
   -0.3972   17.1639   45.5921 H   0  0  0  0  0  0  0  0  0  0  0  0
   -1.5719   16.6019   44.3548 H   0  0  0  0  0  0  0  0  0  0  0  0
    0.1071   15.9634   44.3548 H   0  0  0  0  0  0  0  0  0  0  0  0
    3.4444   14.7058   39.5777 H   0  0  0  0  0  0  0  0  0  0  0  0
    4.4452   15.6494   38.1778 H   0  0  0  0  0  0  0  0  0  0  0  0
    0.9598   22.3703   38.9449 H   0  0  0  0  0  0  0  0  0  0  0  0
   -1.3032   19.3512   44.5906 H   0  0  0  0  0  0  0  0  0  0  0  0
    4.1687   17.9295   36.5222 H   0  0  0  0  0  0  0  0  0  0  0  0
    1.7292   15.9638   39.0836 H   0  0  0  0  0  0  0  0  0  0  0  0
    2.0426   16.0625   37.3883 H   0  0  0  0  0  0  0  0  0  0  0  0
    3.3473   12.9955   39.4811 H   0  0  0  0  0  0  0  0  0  0  0  0
    0.2435   16.7394   42.1511 H   0  0  0  0  0  0  0  0  0  0  0  0
    1.6661   17.3991   43.2602 H   0  0  0  0  0  0  0  0  0  0  0  0
  1 17  2  0
  1  8  1  0
  2  4  1  0
  3 12  1  0
  4 16  2  0
  4 17  1  0
  5 20  1  0
  5  9  1  0
  6 27  2  0
  7 24  1  0
  7 10  1  0
  9 19  1  0
 11 13  1  0
 11  3  1  0
 12  6  1  0
 12  9  2  0
 13 15  2  0
 14 21  2  0
 15  6  1  0
 18  3  2  0
 18  5  1  0
 19 23  2  0
 20 10  1  0
 21  7  1  0
 22 21  1  0
 23 26  1  0
 25 11  2  0
 26  1  1  0
 27 23  1  0
 27  2  1  0
  5 28  1  0
  7 29  1  0
  8 30  1  0
  8 31  1  0
  8 32  1  0
 10 33  1  0
 10 34  1  0
 15 35  1  0
 17 36  1  0
 18 37  1  0
 20 38  1  0
 20 39  1  0
 24 40  1  0
 26 41  1  0
 26 42  1  0
M  CHG  1  22  -1
M  END
>  <mol_id>  (92) 
2026-09-18-3war-s0-n100-refligand-seed1-0092

>  <rmsd_to_ref>  (92) 


$$$$

     RDKit          3D

 32 34  0  0  0  0  0  0  0  0999 V2000
    2.5410   21.0560   36.7860 C   0  0  0  0  0  0  0  0  0  0  0  0
    2.7550   16.7160   39.1220 C   0  0  0  0  0  0  0  0  0  0  0  0
    3.7030   16.4940   36.9790 O   0  0  0  0  0  0  0  0  0  0  0  0
    2.0620   17.4900   40.1150 C   0  0  0  0  0  0  0  0  0  0  0  0
    1.5610   16.9280   41.1830 N   0  0  0  0  0  0  0  0  0  0  0  0
    3.0190   15.3980   39.2150 O   0  0  0  0  0  0  0  0  0  0  0  0
    1.1270   19.6020   40.8610 C   0  0  0  0  0  0  0  0  0  0  0  0
    0.6980   21.6060   41.8720 C   0  0  0  0  0  0  0  0  0  0  0  0
    2.2590   19.4600   38.6430 C   0  0  0  0  0  0  0  0  0  0  0  0
    2.8580   14.2590   39.9590 C   0  0  0  0  0  0  0  0  0  0  0  0
    2.5080   22.2140   35.7840 C   0  0  0  0  0  0  0  0  0  0  0  0
    3.0990   17.3130   37.8770 C   0  0  0  0  0  0  0  0  0  0  0  0
    0.9930   17.5600   42.1600 C   0  0  0  0  0  0  0  0  0  0  0  0
    3.3610   19.5740   36.3290 S   0  0  0  0  0  0  0  0  0  0  0  0
    1.9060   18.9320   39.8910 C   0  0  0  0  0  0  0  0  0  0  0  0
    2.8810   18.6920   37.6830 C   0  0  0  0  0  0  0  0  0  0  0  0
    0.7310   20.7930   40.6750 O   0  0  0  0  0  0  0  0  0  0  0  0
    2.0560   20.8840   38.1240 C   0  0  0  0  0  0  0  0  0  0  0  0
    0.7360   18.9600   42.0030 C   0  0  0  0  0  0  0  0  0  0  0  0
    3.9698   16.8432   36.0919 H   0  0  0  0  0  0  0  0  0  0  0  0
    0.7244   20.9550   42.7583 H   0  0  0  0  0  0  0  0  0  0  0  0
    1.5697   22.2769   41.8837 H   0  0  0  0  0  0  0  0  0  0  0  0
   -0.2252   22.2040   41.8837 H   0  0  0  0  0  0  0  0  0  0  0  0
    2.8937   14.5118   41.0290 H   0  0  0  0  0  0  0  0  0  0  0  0
    1.8862   13.8010   39.7227 H   0  0  0  0  0  0  0  0  0  0  0  0
    3.6648   13.5496   39.7227 H   0  0  0  0  0  0  0  0  0  0  0  0
    2.4808   23.1694   36.3285 H   0  0  0  0  0  0  0  0  0  0  0  0
    3.4075   22.1777   35.1519 H   0  0  0  0  0  0  0  0  0  0  0  0
    1.6120   22.1265   35.1519 H   0  0  0  0  0  0  0  0  0  0  0  0
    0.7152   17.0354   43.0861 H   0  0  0  0  0  0  0  0  0  0  0  0
    1.5893   21.6877   38.7124 H   0  0  0  0  0  0  0  0  0  0  0  0
    0.2243   19.5185   42.8007 H   0  0  0  0  0  0  0  0  0  0  0  0
  1 18  2  0
  2  6  1  0
  2  4  2  0
  3 12  1  0
  4  5  1  0
  5 13  2  0
  6 10  1  0
  7 19  2  0
  9 15  2  0
 11  1  1  0
 12  2  1  0
 14  1  1  0
 14 16  1  0
 15  4  1  0
 15  7  1  0
 16 12  2  0
 16  9  1  0
 17  7  1  0
 17  8  1  0
 18  9  1  0
 19 13  1  0
  3 20  1  0
  8 21  1  0
  8 22  1  0
  8 23  1  0
 10 24  1  0
 10 25  1  0
 10 26  1  0
 11 27  1  0
 11 28  1  0
 11 29  1  0
 13 30  1  0
 18 31  1  0
 19 32  1  0
M  END
>  <mol_id>  (93) 
2026-09-18-3war-s0-n100-refligand-seed1-0093

>  <rmsd_to_ref>  (93) 


$$$$

     RDKit          3D

 20 22  0  0  0  0  0  0  0  0999 V2000
    3.1770   18.7400   39.6630 C   0  0  0  0  0  0  0  0  0  0  0  0
    3.3970   20.2210   36.5140 O   0  0  0  0  0  0  0  0  0  0  0  0
    2.5040   20.1600   37.5960 C   0  0  0  0  0  0  0  0  0  0  0  0
    2.7910   19.0590   36.9120 O   0  0  0  0  0  0  0  0  0  0  0  0
    1.1920   19.7630   41.3490 C   0  0  0  0  0  0  0  0  0  0  0  0
    0.8620   21.0210   42.0160 C   0  0  0  0  0  0  0  0  0  0  0  0
    1.8330   21.3250   37.5610 O   0  0  0  0  0  0  0  0  0  0  0  0
    0.3940   20.6910   40.6740 C   0  0  0  0  0  0  0  0  0  0  0  0
    2.2540   19.7510   39.1830 N   0  0  0  0  0  0  0  0  0  0  0  0
    3.4330   17.6680   39.2470 O   0  0  0  0  0  0  0  0  0  0  0  0
    2.4890   19.6520   40.6980 C   0  0  0  0  0  0  0  0  0  0  0  0
    4.1847   18.2991   39.6777 H   0  0  0  0  0  0  0  0  0  0  0  0
    1.1240   18.7195   41.6904 H   0  0  0  0  0  0  0  0  0  0  0  0
    0.1606   21.0357   42.8633 H   0  0  0  0  0  0  0  0  0  0  0  0
    1.4240   21.8445   42.4808 H   0  0  0  0  0  0  0  0  0  0  0  0
    1.6562   21.6319   38.4855 H   0  0  0  0  0  0  0  0  0  0  0  0
    0.8002   21.2311   39.8061 H   0  0  0  0  0  0  0  0  0  0  0  0
   -0.5944   20.6493   40.1930 H   0  0  0  0  0  0  0  0  0  0  0  0
    3.5813   17.0471   40.0037 H   0  0  0  0  0  0  0  0  0  0  0  0
    2.9510   20.0005   41.6334 H   0  0  0  0  0  0  0  0  0  0  0  0
  1 10  1  0
  1 11  1  0
  2  4  1  0
  2  3  1  0
  4  3  1  0
  5  6  1  0
  7  3  1  0
  8  5  1  0
  8  6  1  0
  9  3  1  0
  9  1  1  0
  9 11  1  0
 11  5  1  0
  1 12  1  0
  5 13  1  0
  6 14  1  0
  6 15  1  0
  7 16  1  0
  8 17  1  0
  8 18  1  0
 10 19  1  0
 11 20  1  0
M  END
>  <mol_id>  (94) 
2026-09-18-3war-s0-n100-refligand-seed1-0094

>  <rmsd_to_ref>  (94) 


$$$$

     RDKit          3D

 12 12  0  0  0  0  0  0  0  0999 V2000
    1.9930   20.1700   40.6710 C   0  0  0  0  0  0  0  0  0  0  0  0
    2.4790   20.6910   37.1360 C   0  0  0  0  0  0  0  0  0  0  0  0
    3.2140   19.1660   38.8710 C   0  0  0  0  0  0  0  0  0  0  0  0
    1.6580   20.8080   39.3710 C   0  0  0  0  0  0  0  0  0  0  0  0
    2.4300   21.2710   36.1610 N   0  0  0  0  0  0  0  0  0  0  0  0
    2.9870   19.0620   40.3040 C   0  0  0  0  0  0  0  0  0  0  0  0
    2.4590   20.1660   38.3120 C   0  0  0  0  0  0  0  0  0  0  0  0
    1.6139   20.4331   41.6695 H   0  0  0  0  0  0  0  0  0  0  0  0
    3.9049   18.5231   38.3059 H   0  0  0  0  0  0  0  0  0  0  0  0
    0.9338   21.6227   39.2234 H   0  0  0  0  0  0  0  0  0  0  0  0
    2.5653   18.0765   40.5510 H   0  0  0  0  0  0  0  0  0  0  0  0
    3.9276   19.1712   40.8638 H   0  0  0  0  0  0  0  0  0  0  0  0
  2  7  1  0
  3  6  1  0
  4  1  2  0
  5  2  3  0
  6  1  1  0
  7  3  2  0
  7  4  1  0
  1  8  1  0
  3  9  1  0
  4 10  1  0
  6 11  1  0
  6 12  1  0
M  END
>  <mol_id>  (95) 
2026-09-18-3war-s0-n100-refligand-seed1-0095

>  <rmsd_to_ref>  (95) 


$$$$

     RDKit          3D

 50 54  0  0  0  0  0  0  0  0999 V2000
    0.5810   17.8750   43.9230 O   0  0  0  0  0  0  0  0  0  0  0  0
    2.8710   14.7980   39.1640 C   0  0  0  0  0  0  0  0  0  0  0  0
    3.0870   15.6340   37.8190 C   0  0  0  0  0  0  0  0  0  0  0  0
    2.8200   16.8830   37.5820 N   0  0  0  0  0  4  0  0  0  0  0  0
    2.6130   18.8040   38.6410 C   0  0  0  0  0  0  0  0  0  0  0  0
    4.2140   14.8740   37.0510 C   0  0  0  0  0  0  0  0  0  0  0  0
    1.5290   20.9030   39.7440 C   0  0  0  0  0  0  0  0  0  0  0  0
    1.8850   14.6640   40.6150 N   0  0  0  0  0  0  0  0  0  0  0  0
    3.8270   19.7230   35.9760 C   0  0  0  0  0  0  0  0  0  0  0  0
    2.2840   18.0650   39.7540 N   0  0  0  0  0  0  0  0  0  0  0  0
    2.1710   20.8310   37.4370 C   0  0  0  0  0  0  0  0  0  0  0  0
    0.9770   16.2490   42.2840 C   0  0  0  0  0  0  0  0  0  0  0  0
    2.4770   21.3500   36.6980 C   0  0  0  0  0  0  0  0  0  0  0  0
    1.9370   16.9270   40.2030 C   0  0  0  0  0  0  0  0  0  0  0  0
    3.2670   19.0350   36.8100 N   0  0  0  0  0  4  0  0  0  0  0  0
    1.5010   18.2370   40.7480 C   0  0  0  0  0  0  0  0  0  0  0  0
    3.5660   18.0710   37.7390 C   0  0  0  0  0  0  0  0  0  0  0  0
    1.0090   18.6600   41.7420 C   0  0  0  0  0  0  0  0  0  0  0  0
    0.0670   20.3630   42.9250 N   0  0  0  0  0  0  0  0  0  0  0  0
    1.2930   21.0220   40.9250 C   0  0  0  0  0  0  0  0  0  0  0  0
    0.8220   17.5400   42.6100 C   0  0  0  0  0  0  0  0  0  0  0  0
    3.4140   21.0380   35.3740 C   0  0  0  0  0  0  0  0  0  0  0  0
    1.5460   15.9030   41.0440 C   0  0  0  0  0  0  0  0  0  0  0  0
    0.6860   20.0360   41.8820 C   0  0  0  0  0  0  0  0  0  0  0  0
    2.1770   20.2150   38.5670 C   0  0  0  0  0  0  0  0  0  0  0  0
    0.4645   18.8244   44.1783 H   0  0  0  0  0  0  0  0  0  0  0  0
    3.8706   14.8891   39.6140 H   0  0  0  0  0  0  0  0  0  0  0  0
    2.2205   14.0852   38.6361 H   0  0  0  0  0  0  0  0  0  0  0  0
    2.0863   15.7609   37.3802 H   0  0  0  0  0  0  0  0  0  0  0  0
    1.9752   17.0566   38.1451 H   0  0  0  0  0  0  0  0  0  0  0  0
    2.9249   16.8238   36.5591 H   0  0  0  0  0  0  0  0  0  0  0  0
    2.0639   19.1911   37.7700 H   0  0  0  0  0  0  0  0  0  0  0  0
    4.9016   14.4103   37.7736 H   0  0  0  0  0  0  0  0  0  0  0  0
    3.7650   14.0935   36.4192 H   0  0  0  0  0  0  0  0  0  0  0  0
    4.7694   15.5828   36.4192 H   0  0  0  0  0  0  0  0  0  0  0  0
    0.4892   20.8614   39.3874 H   0  0  0  0  0  0  0  0  0  0  0  0
    2.4787   21.4311   39.9150 H   0  0  0  0  0  0  0  0  0  0  0  0
    1.6087   13.7810   41.0676 H   0  0  0  0  0  0  0  0  0  0  0  0
    4.8148   19.9269   36.4151 H   0  0  0  0  0  0  0  0  0  0  0  0
    3.6179   19.0902   35.1009 H   0  0  0  0  0  0  0  0  0  0  0  0
    0.6602   15.4618   42.9840 H   0  0  0  0  0  0  0  0  0  0  0  0
    2.1269   22.3921   36.7357 H   0  0  0  0  0  0  0  0  0  0  0  0
    2.8121   19.7504   37.3950 H   0  0  0  0  0  0  0  0  0  0  0  0
    2.9718   18.3393   36.1101 H   0  0  0  0  0  0  0  0  0  0  0  0
    4.6233   17.8039   37.8832 H   0  0  0  0  0  0  0  0  0  0  0  0
   -0.1943   21.3469   43.0817 H   0  0  0  0  0  0  0  0  0  0  0  0
    2.2670   21.2694   41.3724 H   0  0  0  0  0  0  0  0  0  0  0  0
    0.4297   21.6982   40.8383 H   0  0  0  0  0  0  0  0  0  0  0  0
    4.2428   21.7474   35.2331 H   0  0  0  0  0  0  0  0  0  0  0  0
    2.9805   21.0761   34.3637 H   0  0  0  0  0  0  0  0  0  0  0  0
  2  8  1  0
  3  6  1  0
  3  2  1  0
  4 17  1  0
  4  3  1  0
  5 25  1  0
  5 10  1  0
  7 20  1  0
  8 23  1  0
  9 15  1  0
 10 14  1  0
 10 16  1  0
 11 25  2  0
 12 21  2  0
 13 11  2  0
 14 16  1  0
 14 23  2  0
 16 18  2  0
 17 15  1  0
 17  5  1  0
 18 24  1  0
 18 21  1  0
 20 24  1  0
 21  1  1  0
 22  9  1  0
 22 13  1  0
 23 12  1  0
 24 19  2  3
 25  7  1  0
  1 26  1  0
  2 27  1  0
  2 28  1  0
  3 29  1  0
  4 30  1  0
  4 31  1  0
  5 32  1  0
  6 33  1  0
  6 34  1  0
  6 35  1  0
  7 36  1  0
  7 37  1  0
  8 38  1  0
  9 39  1  0
  9 40  1  0
 12 41  1  0
 13 42  1  0
 15 43  1  0
 15 44  1  0
 17 45  1  0
 19 46  1  0
 20 47  1  0
 20 48  1  0
 22 49  1  0
 22 50  1  0
M  CHG  2   4   1  15   1
M  END
>  <mol_id>  (96) 
2026-09-18-3war-s0-n100-refligand-seed1-0096

>  <rmsd_to_ref>  (96) 


$$$$

     RDKit          3D

 39 42  0  0  0  0  0  0  0  0999 V2000
    1.8590   20.6060   39.0470 C   0  0  0  0  0  0  0  0  0  0  0  0
   -0.6540   16.5490   43.9130 C   0  0  0  0  0  0  0  0  0  0  0  0
    5.4250   13.9400   36.3360 N   0  0  0  0  0  0  0  0  0  0  0  0
    2.3440   20.7810   37.6500 C   0  0  0  0  0  0  0  0  0  0  0  0
    2.9470   18.7180   37.9250 C   0  0  0  0  0  0  0  0  0  0  0  0
   -0.6610   21.2490   42.3510 C   0  0  0  0  0  0  0  0  0  0  0  0
    0.0720   21.2960   41.4830 N   0  0  0  0  0  0  0  0  0  0  0  0
    3.6160   17.7190   37.5260 C   0  0  0  0  0  0  0  0  0  0  0  0
    1.2820   17.9890   41.6940 C   0  0  0  0  0  0  0  0  0  0  0  0
    3.1670   14.9560   38.8510 C   0  0  0  0  0  0  0  0  0  0  0  0
    0.4820   18.3000   42.8540 C   0  0  0  0  0  0  0  0  0  0  0  0
    1.9340   19.4890   39.7740 C   0  0  0  0  0  0  0  0  0  0  0  0
    2.5290   18.4920   39.0620 C   0  0  0  0  0  0  0  0  0  0  0  0
    2.6270   15.9750   39.5320 C   0  0  0  0  0  0  0  0  0  0  0  0
    3.8890   16.4630   37.4900 C   0  0  0  0  0  0  0  0  0  0  0  0
   -0.0410   19.5720   42.9270 C   0  0  0  0  0  0  0  0  0  0  0  0
    3.8870   15.2270   37.8220 C   0  0  0  0  0  0  0  0  0  0  0  0
    2.4480   17.1470   39.4200 C   0  0  0  0  0  0  0  0  0  0  0  0
    4.6510   14.3950   37.0580 C   0  0  0  0  0  0  0  0  0  0  0  0
   -0.8430   20.4060   43.2200 N   0  0  0  0  0  0  0  0  0  0  0  0
    1.2800   19.2510   41.0400 N   0  0  0  0  0  0  0  0  0  0  0  0
    2.7230   19.8130   37.1060 N   0  0  0  0  0  0  0  0  0  0  0  0
    0.7620   20.1970   41.7760 C   0  0  0  0  0  0  0  0  0  0  0  0
    0.2230   17.4850   43.8330 O   0  0  0  0  0  0  0  0  0  0  0  0
    1.3946   21.4808   39.5256 H   0  0  0  0  0  0  0  0  0  0  0  0
   -0.8601   16.3291   44.9709 H   0  0  0  0  0  0  0  0  0  0  0  0
   -1.5817   16.8725   43.4183 H   0  0  0  0  0  0  0  0  0  0  0  0
   -0.2709   15.6443   43.4183 H   0  0  0  0  0  0  0  0  0  0  0  0
    2.3468   21.7635   37.1554 H   0  0  0  0  0  0  0  0  0  0  0  0
    2.0335   18.2755   37.5012 H   0  0  0  0  0  0  0  0  0  0  0  0
   -1.3287   22.1202   42.4231 H   0  0  0  0  0  0  0  0  0  0  0  0
    4.3609   18.1629   36.8491 H   0  0  0  0  0  0  0  0  0  0  0  0
    2.2992   17.6764   41.9727 H   0  0  0  0  0  0  0  0  0  0  0  0
    0.9059   17.1537   41.0851 H   0  0  0  0  0  0  0  0  0  0  0  0
    3.8002   14.3937   39.5531 H   0  0  0  0  0  0  0  0  0  0  0  0
    2.3022   14.4124   38.4429 H   0  0  0  0  0  0  0  0  0  0  0  0
    1.3835   18.6402   43.3845 H   0  0  0  0  0  0  0  0  0  0  0  0
    2.2242   15.6193   40.4918 H   0  0  0  0  0  0  0  0  0  0  0  0
   -1.5141   20.4143   44.0013 H   0  0  0  0  0  0  0  0  0  0  0  0
  1 12  2  0
  3 19  3  0
  4  1  1  0
  5  8  1  0
  5 13  1  0
  6 20  1  0
  7 23  1  0
  7  6  2  0
  9 11  1  0
 10 14  1  0
 11 16  1  0
 11 24  1  0
 12 21  1  0
 13 18  2  0
 13 12  1  0
 15  8  2  0
 15 17  2  0
 16 20  1  0
 17 10  1  0
 18 14  2  0
 19 17  1  0
 21  9  1  0
 21 23  1  0
 22  4  2  0
 22  5  1  0
 23 16  2  0
 24  2  1  0
  1 25  1  0
  2 26  1  0
  2 27  1  0
  2 28  1  0
  4 29  1  0
  5 30  1  0
  6 31  1  0
  8 32  1  0
  9 33  1  0
  9 34  1  0
 10 35  1  0
 10 36  1  0
 11 37  1  0
 14 38  1  0
 20 39  1  0
M  END
>  <mol_id>  (97) 
2026-09-18-3war-s0-n100-refligand-seed1-0097

>  <rmsd_to_ref>  (97) 


$$$$

     RDKit          3D

 37 41  0  0  0  0  0  0  0  0999 V2000
    0.2620   19.0100   42.8920 C   0  0  0  0  0  0  0  0  0  0  0  0
    2.7190   17.3470   38.8250 C   0  0  0  0  0  0  0  0  0  0  0  0
    0.3020   21.3410   42.0810 C   0  0  0  0  0  0  0  0  0  0  0  0
    0.9500   20.9040   41.0530 C   0  0  0  0  0  0  0  0  0  0  0  0
    2.2910   19.2400   39.4030 C   0  0  0  0  0  0  0  0  0  0  0  0
    1.2910   17.7480   41.3410 N   0  0  0  0  0  0  0  0  0  0  0  0
    3.2880   20.5720   36.0640 O   0  0  0  0  0  0  0  0  0  0  0  0
    2.2950   18.3630   39.2900 C   0  0  0  0  0  0  0  0  0  0  0  0
    0.9520   18.6040   41.8320 C   0  0  0  0  0  0  0  0  0  0  0  0
   -0.0340   20.3610   43.0360 C   0  0  0  0  0  0  0  0  0  0  0  0
    1.6180   21.6820   40.0430 O   0  0  0  0  0  0  0  0  0  0  0  0
    1.2920   15.5560   41.6120 N   0  0  0  0  0  0  0  0  0  0  0  0
    3.2100   15.1870   39.2250 C   0  0  0  0  0  0  0  0  0  0  0  0
    3.1590   17.2660   37.6670 C   0  0  0  0  0  0  0  0  0  0  0  0
    3.2990   18.4140   36.9740 C   0  0  0  0  0  0  0  0  0  0  0  0
    2.3210   14.7550   39.9380 C   0  0  0  0  0  0  0  0  0  0  0  0
   -0.7620   20.8080   44.0170 O   0  0  0  0  0  0  0  0  0  0  0  0
    1.7950   16.6050   40.7910 C   0  0  0  0  0  0  0  0  0  0  0  0
    3.0080   19.7190   37.0540 C   0  0  0  0  0  0  0  0  0  0  0  0
    2.5200   20.1650   38.3800 C   0  0  0  0  0  0  0  0  0  0  0  0
    1.5420   14.7400   41.3050 C   0  0  0  0  0  0  0  0  0  0  0  0
    1.1310   19.5290   40.6580 C   0  0  0  0  0  0  0  0  0  0  0  0
    2.5250   15.9890   39.6980 C   0  0  0  0  0  0  0  0  0  0  0  0
   -0.0720   18.2846   43.6485 H   0  0  0  0  0  0  0  0  0  0  0  0
    0.0322   22.4005   42.2022 H   0  0  0  0  0  0  0  0  0  0  0  0
    3.0588   21.5306   36.1569 H   0  0  0  0  0  0  0  0  0  0  0  0
    1.2538   18.2547   38.9521 H   0  0  0  0  0  0  0  0  0  0  0  0
    3.0901   18.3054   40.0480 H   0  0  0  0  0  0  0  0  0  0  0  0
    2.0847   21.2285   39.2970 H   0  0  0  0  0  0  0  0  0  0  0  0
    4.2541   15.1072   39.5619 H   0  0  0  0  0  0  0  0  0  0  0  0
    3.5074   14.9742   38.1876 H   0  0  0  0  0  0  0  0  0  0  0  0
    3.4244   16.2950   37.2234 H   0  0  0  0  0  0  0  0  0  0  0  0
    3.8271   18.2120   36.0304 H   0  0  0  0  0  0  0  0  0  0  0  0
    2.0054   13.7040   39.8618 H   0  0  0  0  0  0  0  0  0  0  0  0
   -0.9537   21.7765   44.0898 H   0  0  0  0  0  0  0  0  0  0  0  0
    2.3361   21.2343   38.5613 H   0  0  0  0  0  0  0  0  0  0  0  0
    1.3175   13.8098   41.8475 H   0  0  0  0  0  0  0  0  0  0  0  0
  1 10  2  0
  2  8  1  0
  2 23  1  0
  3 10  1  0
  4  3  2  0
  5 22  1  0
  6  9  1  0
  7 19  1  0
  8  5  1  0
  9  1  1  0
 10 17  1  0
 11  4  1  0
 14  2  2  0
 15 19  2  0
 15 14  1  0
 16 13  1  0
 16 21  1  0
 18  6  2  0
 18 12  1  0
 19 20  1  0
 20  5  2  0
 21 12  2  0
 22  4  1  0
 22  9  2  0
 23 13  1  0
 23 16  1  0
 23 18  1  0
  1 24  1  0
  3 25  1  0
  7 26  1  0
  8 27  1  0
  8 28  1  0
 11 29  1  0
 13 30  1  0
 13 31  1  0
 14 32  1  0
 15 33  1  0
 16 34  1  0
 17 35  1  0
 20 36  1  0
 21 37  1  0
M  END
>  <mol_id>  (98) 
2026-09-18-3war-s0-n100-refligand-seed1-0098

>  <rmsd_to_ref>  (98) 


$$$$

     RDKit          3D

 39 44  0  0  0  0  0  0  0  0999 V2000
    1.7270   20.1810   39.3450 C   0  0  0  0  0  0  0  0  0  0  0  0
    3.7340   15.4260   37.1980 C   0  0  0  0  0  0  0  0  0  0  0  0
    3.5600   14.1720   37.7810 C   0  0  0  0  0  0  0  0  0  0  0  0
   -0.0480   18.0710   43.5470 N   0  0  0  0  0  0  0  0  0  0  0  0
    2.6150   15.1550   39.8300 C   0  0  0  0  0  0  0  0  0  0  0  0
    3.3900   16.6110   38.0270 C   0  0  0  0  0  0  0  0  0  0  0  0
    1.8260   21.1700   38.2500 C   0  0  0  0  0  0  0  0  0  0  0  0
    0.0800   19.1750   42.6870 C   0  0  0  0  0  0  0  0  0  0  0  0
   -0.1030   21.5590   42.3560 C   0  0  0  0  0  0  0  0  0  0  0  0
    0.8230   19.1070   41.5140 C   0  0  0  0  0  0  0  0  0  0  0  0
    1.2990   22.3560   38.4870 F   0  0  0  0  0  0  0  0  0  0  0  0
    0.6000   21.5350   41.1320 C   0  0  0  0  0  0  0  0  0  0  0  0
    3.2080   18.8750   37.8030 C   0  0  0  0  0  0  0  0  0  0  0  0
    2.7190   16.4740   39.2530 C   0  0  0  0  0  0  0  0  0  0  0  0
    2.2870   18.9390   38.9930 C   0  0  0  0  0  0  0  0  0  0  0  0
    3.7390   17.7230   37.4910 O   0  0  0  0  0  0  0  0  0  0  0  0
    2.4590   21.7840   35.8780 O   0  0  0  0  0  0  0  0  0  0  0  0
    3.2620   19.8460   36.8320 C   0  0  0  0  0  0  0  0  0  0  0  0
    2.5120   21.0400   36.9820 C   0  0  0  0  0  0  0  0  0  0  0  0
   -0.4850   20.4540   43.0320 C   0  0  0  0  0  0  0  0  0  0  0  0
    1.4850   17.7880   41.1040 C   0  0  0  0  0  0  0  0  0  0  0  0
    2.2180   17.7010   39.7870 C   0  0  0  0  0  0  0  0  0  0  0  0
    1.0300   20.3140   40.6960 C   0  0  0  0  0  0  0  0  0  0  0  0
    3.0960   14.0210   39.1200 C   0  0  0  0  0  0  0  0  0  0  0  0
    1.4540   16.8010   42.0610 C   0  0  0  0  0  0  0  0  0  0  0  0
    0.5620   16.9190   43.1700 C   0  0  0  0  0  0  0  0  0  0  0  0
    3.1560   12.8460   39.5700 O   0  0  0  0  0  0  0  0  0  0  0  0
    4.1094   15.5340   36.1697 H   0  0  0  0  0  0  0  0  0  0  0  0
    3.7875   13.2724   37.1902 H   0  0  0  0  0  0  0  0  0  0  0  0
    3.1596   15.1841   40.7853 H   0  0  0  0  0  0  0  0  0  0  0  0
    1.5290   14.9839   39.8668 H   0  0  0  0  0  0  0  0  0  0  0  0
   -0.3555   22.5394   42.7862 H   0  0  0  0  0  0  0  0  0  0  0  0
    0.7919   22.4536   40.5581 H   0  0  0  0  0  0  0  0  0  0  0  0
    3.9008   19.4303   38.4523 H   0  0  0  0  0  0  0  0  0  0  0  0
    1.9587   22.6383   35.8803 H   0  0  0  0  0  0  0  0  0  0  0  0
    3.8867   19.6970   35.9389 H   0  0  0  0  0  0  0  0  0  0  0  0
   -1.2246   20.5306   43.8427 H   0  0  0  0  0  0  0  0  0  0  0  0
    2.1131   15.9248   41.9727 H   0  0  0  0  0  0  0  0  0  0  0  0
    0.3551   16.0135   43.7593 H   0  0  0  0  0  0  0  0  0  0  0  0
  1 23  1  0
  2  3  2  0
  2  6  1  0
  3 24  1  0
  6 14  2  0
  7 11  1  0
  7  1  2  0
  8 20  1  0
  8  4  2  0
  9 20  2  0
 10  8  1  0
 12  9  1  0
 13 18  1  0
 13 15  1  0
 14 22  1  0
 14  5  1  0
 15  1  1  0
 15 22  2  0
 16 13  1  0
 16  6  1  0
 17 19  1  0
 18 19  2  0
 19  7  1  0
 21 10  2  0
 21 25  1  0
 22 21  1  0
 23 12  2  0
 23 10  1  0
 24 27  2  0
 24  5  1  0
 25 26  2  0
 26  4  1  0
  2 28  1  0
  3 29  1  0
  5 30  1  0
  5 31  1  0
  9 32  1  0
 12 33  1  0
 13 34  1  0
 17 35  1  0
 18 36  1  0
 20 37  1  0
 25 38  1  0
 26 39  1  0
M  END
>  <mol_id>  (99) 
2026-09-18-3war-s0-n100-refligand-seed1-0099

>  <rmsd_to_ref>  (99) 


$$$$

     RDKit          3D

 28 28  0  0  0  0  0  0  0  0999 V2000
    2.8000   20.5510   36.6390 O   0  0  0  0  0  0  0  0  0  0  0  0
    2.4800   18.0430   39.9130 C   0  0  0  0  0  0  0  0  0  0  0  0
    3.2190   18.4650   37.7210 C   0  0  0  0  0  0  0  0  0  0  0  0
   -0.2320   19.7350   42.6360 C   0  0  0  0  0  0  0  0  0  0  0  0
    3.0560   17.5370   38.7660 C   0  0  0  0  0  0  0  0  0  0  0  0
    0.9200   18.9780   42.2170 C   0  0  0  0  0  0  0  0  0  0  0  0
    0.7780   21.0210   40.7290 C   0  0  0  0  0  0  0  0  0  0  0  0
    0.5380   17.5130   42.2300 C   0  0  0  0  0  0  0  0  0  0  0  0
    3.7470   18.0770   36.5190 O   0  0  0  0  0  0  0  0  0  0  0  0
    1.9800   19.3500   39.9180 C   0  0  0  0  0  0  0  0  0  0  0  0
    2.7060   19.7940   37.7290 C   0  0  0  0  0  0  0  0  0  0  0  0
    2.0740   20.2440   38.8790 C   0  0  0  0  0  0  0  0  0  0  0  0
    1.2300   19.8340   40.8890 N   0  0  0  0  0  0  0  0  0  0  0  0
    2.4432   21.4745   36.6454 H   0  0  0  0  0  0  0  0  0  0  0  0
    2.4141   17.4223   40.8188 H   0  0  0  0  0  0  0  0  0  0  0  0
   -0.2731   19.7620   43.7349 H   0  0  0  0  0  0  0  0  0  0  0  0
   -0.1580   20.7611   42.2465 H   0  0  0  0  0  0  0  0  0  0  0  0
   -1.1444   19.2599   42.2465 H   0  0  0  0  0  0  0  0  0  0  0  0
    3.3651   16.4853   38.6751 H   0  0  0  0  0  0  0  0  0  0  0  0
    1.8548   18.8807   42.7885 H   0  0  0  0  0  0  0  0  0  0  0  0
    0.6024   21.4821   41.7121 H   0  0  0  0  0  0  0  0  0  0  0  0
    1.5110   21.6200   40.1687 H   0  0  0  0  0  0  0  0  0  0  0  0
   -0.1677   20.9808   40.1687 H   0  0  0  0  0  0  0  0  0  0  0  0
    0.4477   17.1668   43.2702 H   0  0  0  0  0  0  0  0  0  0  0  0
   -0.4247   17.3805   41.7146 H   0  0  0  0  0  0  0  0  0  0  0  0
    1.3135   16.9273   41.7146 H   0  0  0  0  0  0  0  0  0  0  0  0
    4.1282   17.1692   36.4157 H   0  0  0  0  0  0  0  0  0  0  0  0
    1.6690   21.2639   38.9551 H   0  0  0  0  0  0  0  0  0  0  0  0
  1 11  1  0
  2 10  2  0
  3 11  1  0
  3  5  2  0
  5  2  1  0
  6  8  1  0
  6  4  1  0
  7 13  1  0
  9  3  1  0
 10 13  1  0
 11 12  2  0
 12 10  1  0
 13  6  1  0
  1 14  1  0
  2 15  1  0
  4 16  1  0
  4 17  1  0
  4 18  1  0
  5 19  1  0
  6 20  1  0
  7 21  1  0
  7 22  1  0
  7 23  1  0
  8 24  1  0
  8 25  1  0
  8 26  1  0
  9 27  1  0
 12 28  1  0
M  END
>  <mol_id>  (100) 
2026-09-18-3war-s0-n100-refligand-seed1-0100

>  <rmsd_to_ref>  (100) 


$$$$
