
     RDKit          3D

 58 62  0  0  0  0  0  0  0  0999 V2000
    3.3600   19.1200   38.9760 C   0  0  0  0  0  0  0  0  0  0  0  0
    3.3410   16.6490   38.1210 O   0  0  0  0  0  0  0  0  0  0  0  0
    2.8870   24.4460   31.2510 C   0  0  0  0  0  0  0  0  0  0  0  0
    2.7600   14.0410   40.4040 O   0  0  0  0  0  0  0  0  0  0  0  0
    3.0510   17.7550   39.0050 C   0  0  0  0  0  0  0  0  0  0  0  0
    2.5930   19.8630   39.9900 C   0  0  0  0  0  0  0  0  0  0  0  0
    2.1020   16.3100   40.7240 N   0  0  0  0  0  0  0  0  0  0  0  0
    4.6550   24.5490   28.4300 C   0  0  0  0  0  0  0  0  0  0  0  0
    1.8790   15.3090   41.9250 C   0  0  0  0  0  0  0  0  0  0  0  0
    2.1720   25.8590   32.0610 S   0  0  0  0  0  0  0  0  0  0  0  0
    3.6560   22.8670   33.0340 C   0  0  0  0  0  0  0  0  0  0  0  0
    1.7690   14.9110   40.4020 C   0  0  0  0  0  0  0  0  0  0  0  0
    3.0270   25.0500   29.7990 C   0  0  0  0  0  0  0  0  0  0  0  0
    2.1910   24.8370   33.4810 C   0  0  0  0  0  0  0  0  0  0  0  0
    2.9160   22.6790   34.5130 C   0  0  0  0  0  0  0  0  0  0  0  0
    3.4430   21.7460   35.5750 C   0  0  0  0  0  0  0  0  0  0  0  0
   -0.4000   20.3700   43.2790 C   0  0  0  0  0  0  0  0  0  0  0  0
    0.8290   19.2020   41.8170 C   0  0  0  0  0  0  0  0  0  0  0  0
    0.0830   17.9900   42.5790 S   0  0  0  0  0  0  0  0  0  0  0  0
    2.4230   24.6920   28.7020 C   0  0  0  0  0  0  0  0  0  0  0  0
    0.4920   20.5330   42.1900 N   0  0  0  0  0  0  0  0  0  0  0  0
   -1.6020   18.5010   44.7260 C   0  0  0  0  0  0  0  0  0  0  0  0
    4.4100   19.7080   37.8520 C   0  0  0  0  0  0  0  0  0  0  0  0
    2.2270   17.5540   40.3210 C   0  0  0  0  0  0  0  0  0  0  0  0
    3.3460   23.5780   32.3270 C   0  0  0  0  0  0  0  0  0  0  0  0
    4.4020   25.4880   29.5790 O   0  0  0  0  0  0  0  0  0  0  0  0
    1.8790   18.8880   40.7200 C   0  0  0  0  0  0  0  0  0  0  0  0
   -0.6820   19.0180   43.6480 C   0  0  0  0  0  0  0  0  0  0  0  0
    2.3660   23.8120   34.7090 C   0  0  0  0  0  0  0  0  0  0  0  0
    3.4560   24.7150   27.5940 O   0  0  0  0  0  0  0  0  0  0  0  0
    4.5020   16.6010   37.3380 C   0  0  0  0  0  0  0  0  0  0  0  0
    3.4060   20.5300   36.9840 C   0  0  0  0  0  0  0  0  0  0  0  0
    3.0069   13.8242   41.3379 H   0  0  0  0  0  0  0  0  0  0  0  0
    3.2721   20.4180   40.6539 H   0  0  0  0  0  0  0  0  0  0  0  0
    1.9184   20.5996   39.5292 H   0  0  0  0  0  0  0  0  0  0  0  0
    5.5633   24.8346   27.8791 H   0  0  0  0  0  0  0  0  0  0  0  0
    4.8193   23.5092   28.7491 H   0  0  0  0  0  0  0  0  0  0  0  0
    2.7275   14.9660   42.5353 H   0  0  0  0  0  0  0  0  0  0  0  0
    1.2371   15.2558   42.8167 H   0  0  0  0  0  0  0  0  0  0  0  0
    4.5081   22.2169   32.7865 H   0  0  0  0  0  0  0  0  0  0  0  0
    1.0800   14.5545   39.6222 H   0  0  0  0  0  0  0  0  0  0  0  0
    2.2241   25.7866   29.9501 H   0  0  0  0  0  0  0  0  0  0  0  0
    2.2067   25.7068   34.1543 H   0  0  0  0  0  0  0  0  0  0  0  0
    1.5443   24.1107   32.9669 H   0  0  0  0  0  0  0  0  0  0  0  0
   -0.8458   21.2268   43.8054 H   0  0  0  0  0  0  0  0  0  0  0  0
    2.0110   23.6780   28.8122 H   0  0  0  0  0  0  0  0  0  0  0  0
    1.5906   25.3740   28.4741 H   0  0  0  0  0  0  0  0  0  0  0  0
   -1.1795   18.7384   45.7135 H   0  0  0  0  0  0  0  0  0  0  0  0
   -2.5886   18.9768   44.6253 H   0  0  0  0  0  0  0  0  0  0  0  0
   -1.7086   17.4108   44.6253 H   0  0  0  0  0  0  0  0  0  0  0  0
    5.1829   20.3468   38.3043 H   0  0  0  0  0  0  0  0  0  0  0  0
    4.9939   18.9503   37.3089 H   0  0  0  0  0  0  0  0  0  0  0  0
    2.9648   24.3292   35.4732 H   0  0  0  0  0  0  0  0  0  0  0  0
    1.3308   23.5514   34.9743 H   0  0  0  0  0  0  0  0  0  0  0  0
    5.3849   16.5645   37.9932 H   0  0  0  0  0  0  0  0  0  0  0  0
    4.4792   15.7030   36.7031 H   0  0  0  0  0  0  0  0  0  0  0  0
    4.5534   17.4978   36.7031 H   0  0  0  0  0  0  0  0  0  0  0  0
    2.3704   20.3321   37.2978 H   0  0  0  0  0  0  0  0  0  0  0  0
  1  5  2  0
  1  6  1  0
  2  5  1  0
  3 10  1  0
  3 25  2  0
  5 24  1  0
  6 27  1  0
  7  9  1  0
  8 26  1  0
 10 14  1  0
 11 15  1  0
 12  4  1  0
 12  7  1  0
 12  9  1  0
 13  3  1  0
 14 29  1  0
 15 29  1  0
 15 16  2  0
 16 32  2  0
 17 28  2  0
 18 21  2  0
 18 19  1  0
 19 28  1  0
 20 13  1  0
 21 17  1  0
 23  1  1  0
 24 27  2  0
 24  7  1  0
 25 11  2  0
 26 13  1  0
 27 18  1  0
 28 22  1  0
 30  8  1  0
 30 20  1  0
 31  2  1  0
 32 23  1  0
  4 33  1  0
  6 34  1  0
  6 35  1  0
  8 36  1  0
  8 37  1  0
  9 38  1  0
  9 39  1  0
 11 40  1  0
 12 41  1  0
 13 42  1  0
 14 43  1  0
 14 44  1  0
 17 45  1  0
 20 46  1  0
 20 47  1  0
 22 48  1  0
 22 49  1  0
 22 50  1  0
 23 51  1  0
 23 52  1  0
 29 53  1  0
 29 54  1  0
 31 55  1  0
 31 56  1  0
 31 57  1  0
 32 58  1  0
M  END
>  <mol_id>  (1) 
2026-08-24-6tgu-s0-n20-pocketids2-0001

>  <rmsd_to_ref>  (1) 


$$$$

     RDKit          3D

 47 48  0  0  0  0  0  0  0  0999 V2000
    2.1870   20.4940   39.3660 O   0  0  0  0  0  0  0  0  0  0  0  0
    3.4110   17.7410   37.0190 C   0  0  0  0  0  0  0  0  0  0  0  0
    2.1310   15.4070   39.9150 O   0  0  0  0  0  0  0  0  0  0  0  0
    2.4430   16.6440   39.1470 C   0  0  0  0  0  0  0  0  0  0  0  0
    4.2310   22.0660   35.1640 C   0  0  0  0  0  0  0  0  0  0  0  0
    3.5870   22.4930   33.8560 C   0  0  0  0  0  0  0  0  0  0  0  0
    0.8980   26.4400   31.2400 O   0  0  0  0  0  0  0  0  0  0  0  0
    3.8120   20.3770   37.0490 C   0  0  0  0  0  0  0  0  0  0  0  0
    4.5800   23.4540   31.4210 C   0  0  0  0  0  0  0  0  0  0  0  0
    1.6650   25.8980   30.4040 C   0  0  0  0  0  0  0  0  0  0  0  0
    4.2310   23.5360   32.9510 N   0  0  0  0  0  0  0  0  0  0  0  0
    2.7300   19.3290   39.0170 C   0  0  0  0  0  0  0  0  0  0  0  0
    3.2950   23.7470   30.6060 C   0  0  0  0  0  0  0  0  0  0  0  0
    3.9160   20.6530   35.4740 C   0  0  0  0  0  0  0  0  0  0  0  0
    1.7060   20.9100   40.5480 C   0  0  0  0  0  0  0  0  0  0  0  0
    2.7430   23.6240   33.5780 C   0  0  0  0  0  0  0  0  0  0  0  0
    3.0100   25.2460   30.7190 C   0  0  0  0  0  0  0  0  0  0  0  0
    1.2770   25.9280   28.9530 C   0  0  0  0  0  0  0  0  0  0  0  0
    3.3000   19.1150   37.6300 C   0  0  0  0  0  0  0  0  0  0  0  0
    2.4930   18.0410   39.8190 C   0  0  0  0  0  0  0  0  0  0  0  0
    2.8180   16.5640   37.7250 C   0  0  0  0  0  0  0  0  0  0  0  0
    2.1800   18.1850   41.0850 O   0  0  0  0  0  0  0  0  0  0  0  0
    3.9266   17.6050   36.0569 H   0  0  0  0  0  0  0  0  0  0  0  0
    2.1074   14.5311   39.4543 H   0  0  0  0  0  0  0  0  0  0  0  0
    3.8540   22.7051   35.9761 H   0  0  0  0  0  0  0  0  0  0  0  0
    5.3219   22.1688   35.0675 H   0  0  0  0  0  0  0  0  0  0  0  0
    3.3528   21.4203   33.7895 H   0  0  0  0  0  0  0  0  0  0  0  0
    3.1696   21.1742   37.4511 H   0  0  0  0  0  0  0  0  0  0  0  0
    4.8752   20.3221   37.3256 H   0  0  0  0  0  0  0  0  0  0  0  0
    5.3521   24.1983   31.1763 H   0  0  0  0  0  0  0  0  0  0  0  0
    4.9614   22.4520   31.1751 H   0  0  0  0  0  0  0  0  0  0  0  0
    2.4513   23.1724   31.0158 H   0  0  0  0  0  0  0  0  0  0  0  0
    3.4293   23.4566   29.5536 H   0  0  0  0  0  0  0  0  0  0  0  0
    2.9540   20.3957   35.0068 H   0  0  0  0  0  0  0  0  0  0  0  0
    4.7360   20.0344   35.0804 H   0  0  0  0  0  0  0  0  0  0  0  0
    2.2654   20.4262   41.3623 H   0  0  0  0  0  0  0  0  0  0  0  0
    1.8167   22.0017   40.6252 H   0  0  0  0  0  0  0  0  0  0  0  0
    0.6417   20.6430   40.6252 H   0  0  0  0  0  0  0  0  0  0  0  0
    2.5207   24.3541   34.3702 H   0  0  0  0  0  0  0  0  0  0  0  0
    1.7307   23.7613   33.1702 H   0  0  0  0  0  0  0  0  0  0  0  0
    3.7384   25.7361   30.0563 H   0  0  0  0  0  0  0  0  0  0  0  0
    3.0496   25.3787   31.8102 H   0  0  0  0  0  0  0  0  0  0  0  0
    0.1836   26.0125   28.8675 H   0  0  0  0  0  0  0  0  0  0  0  0
    1.7509   26.7922   28.4645 H   0  0  0  0  0  0  0  0  0  0  0  0
    1.6124   25.0012   28.4645 H   0  0  0  0  0  0  0  0  0  0  0  0
    2.6595   15.6249   37.1745 H   0  0  0  0  0  0  0  0  0  0  0  0
    2.2150   19.0809   41.5048 H   0  0  0  0  0  0  0  0  0  0  0  0
  1 15  1  0
  2 19  2  0
  2 21  1  0
  4 20  1  0
  4  3  1  0
  5 14  1  0
  6  5  1  0
  8 19  1  0
  9 11  1  0
 10 17  1  0
 10  7  2  0
 11 16  1  0
 11  6  1  0
 12  1  1  0
 12 20  2  0
 13 17  1  0
 13  9  1  0
 14  8  1  0
 16  6  1  0
 18 10  1  0
 19 12  1  0
 20 22  1  0
 21  4  2  0
  2 23  1  0
  3 24  1  0
  5 25  1  0
  5 26  1  0
  6 27  1  0
  8 28  1  0
  8 29  1  0
  9 30  1  0
  9 31  1  0
 13 32  1  0
 13 33  1  0
 14 34  1  0
 14 35  1  0
 15 36  1  0
 15 37  1  0
 15 38  1  0
 16 39  1  0
 16 40  1  0
 17 41  1  0
 17 42  1  0
 18 43  1  0
 18 44  1  0
 18 45  1  0
 21 46  1  0
 22 47  1  0
M  END
>  <mol_id>  (2) 
2026-08-24-6tgu-s0-n20-pocketids2-0002

>  <rmsd_to_ref>  (2) 


$$$$

     RDKit          3D

 42 43  0  0  0  0  0  0  0  0999 V2000
    4.4790   24.5160   30.3320 O   0  0  0  0  0  0  0  0  0  0  0  0
    1.2110   20.6260   40.9400 C   0  0  0  0  0  0  0  0  0  0  0  0
    3.6310   20.6770   36.7930 C   0  0  0  0  0  0  0  0  0  0  0  0
    4.4600   22.6600   31.8710 S   0  0  0  0  0  0  0  0  0  0  0  0
    4.8740   22.2230   33.5030 C   0  0  0  0  0  0  0  0  0  0  0  0
    2.3930   18.8510   39.1780 C   0  0  0  0  0  0  0  0  0  0  0  0
    2.1550   25.2210   31.4040 C   0  0  0  0  0  0  0  0  0  0  0  0
    2.9980   16.5710   38.9830 O   0  0  0  0  0  1  0  0  0  0  0  0
    3.8500   22.0410   34.5700 C   0  0  0  0  0  0  0  0  0  0  0  0
    3.5350   17.9480   37.2740 O   0  0  0  0  0  0  0  0  0  0  0  0
    2.1760   20.1880   38.7880 C   0  0  0  0  0  0  0  0  0  0  0  0
    2.3320   24.9760   28.8300 C   0  0  0  0  0  0  0  0  0  0  0  0
    3.0780   17.7910   38.3860 C   0  0  0  0  0  0  0  0  0  0  0  0
    3.3190   24.2760   31.5790 C   0  0  0  0  0  0  0  0  0  0  0  0
    2.4600   20.6550   37.4160 C   0  0  0  0  0  0  0  0  0  0  0  0
    3.9600   20.7280   35.4670 C   0  0  0  0  0  0  0  0  0  0  0  0
    3.5940   24.2080   29.1890 C   0  0  0  0  0  0  0  0  0  0  0  0
    1.6180   25.5240   29.9730 C   0  0  0  0  0  0  0  0  0  0  0  0
    1.6380   21.1060   39.7380 C   0  0  0  0  0  0  0  0  0  0  0  0
    1.3060   19.2730   41.2930 C   0  0  0  0  0  0  0  0  0  0  0  0
    1.8950   18.3840   40.3610 C   0  0  0  0  0  0  0  0  0  0  0  0
    0.7735   21.3299   41.6633 H   0  0  0  0  0  0  0  0  0  0  0  0
    4.1335   21.5583   37.2182 H   0  0  0  0  0  0  0  0  0  0  0  0
    3.8706   19.6136   36.9402 H   0  0  0  0  0  0  0  0  0  0  0  0
    5.4163   21.2684   33.4348 H   0  0  0  0  0  0  0  0  0  0  0  0
    5.4012   23.1241   33.8495 H   0  0  0  0  0  0  0  0  0  0  0  0
    1.6887   25.6929   32.2814 H   0  0  0  0  0  0  0  0  0  0  0  0
    3.9154   22.9084   35.2432 H   0  0  0  0  0  0  0  0  0  0  0  0
    2.8953   21.9392   34.0332 H   0  0  0  0  0  0  0  0  0  0  0  0
    2.6122   25.8084   28.1677 H   0  0  0  0  0  0  0  0  0  0  0  0
    1.6521   24.2570   28.3496 H   0  0  0  0  0  0  0  0  0  0  0  0
    2.7000   24.3316   32.4866 H   0  0  0  0  0  0  0  0  0  0  0  0
    2.1138   21.6989   37.3983 H   0  0  0  0  0  0  0  0  0  0  0  0
    1.9858   19.8352   36.8565 H   0  0  0  0  0  0  0  0  0  0  0  0
    3.3263   19.9763   34.9737 H   0  0  0  0  0  0  0  0  0  0  0  0
    5.0515   20.6010   35.5179 H   0  0  0  0  0  0  0  0  0  0  0  0
    3.2706   23.1676   29.3409 H   0  0  0  0  0  0  0  0  0  0  0  0
    4.2458   24.4962   28.3511 H   0  0  0  0  0  0  0  0  0  0  0  0
    0.7176   26.1395   29.8300 H   0  0  0  0  0  0  0  0  0  0  0  0
    1.5692   22.1789   39.5053 H   0  0  0  0  0  0  0  0  0  0  0  0
    0.9346   18.9127   42.2637 H   0  0  0  0  0  0  0  0  0  0  0  0
    1.9518   17.3099   40.5915 H   0  0  0  0  0  0  0  0  0  0  0  0
  1 14  1  0
  2 20  2  0
  3 15  1  0
  4  5  1  0
  5  9  1  0
  6 21  2  0
  7 14  1  0
  9 16  1  0
 10 13  2  0
 11  6  1  0
 11 19  2  0
 12 17  1  0
 12 18  1  0
 13  8  1  0
 13  6  1  0
 14  4  1  0
 15 11  1  0
 16  3  1  0
 17  1  1  0
 18  7  2  0
 19  2  1  0
 21 20  1  0
  2 22  1  0
  3 23  1  0
  3 24  1  0
  5 25  1  0
  5 26  1  0
  7 27  1  0
  9 28  1  0
  9 29  1  0
 12 30  1  0
 12 31  1  0
 14 32  1  0
 15 33  1  0
 15 34  1  0
 16 35  1  0
 16 36  1  0
 17 37  1  0
 17 38  1  0
 18 39  1  0
 19 40  1  0
 20 41  1  0
 21 42  1  0
M  CHG  1   8  -1
M  END
>  <mol_id>  (3) 
2026-08-24-6tgu-s0-n20-pocketids2-0003

>  <rmsd_to_ref>  (3) 


$$$$

     RDKit          3D

 89 90  0  0  0  0  0  0  0  0999 V2000
    1.3040   28.5230   32.5600 C   0  0  0  0  0  0  0  0  0  0  0  0
    2.0150   25.2380   34.6210 C   0  0  0  0  0  0  0  0  0  0  0  0
    1.6050   27.5850   33.7870 C   0  0  0  0  0  0  0  0  0  0  0  0
    2.8200   22.6660   34.4690 C   0  0  0  0  0  0  0  0  0  0  0  0
    2.4300   18.9740   39.8130 C   0  0  0  0  0  0  0  0  0  0  0  0
    1.8750   20.0810   40.5700 C   0  0  0  0  0  0  0  0  0  0  0  0
    4.2750   13.2830   39.5680 S   0  0  0  0  0  0  0  0  0  0  0  0
    2.9400   16.9050   38.8700 C   0  0  0  0  0  0  0  0  0  0  0  0
    3.5830   17.9830   37.8030 S   0  0  0  0  0  0  0  0  0  0  0  0
    0.1490   30.5260   33.2690 C   0  0  0  0  0  0  0  0  0  0  0  0
    1.7920   26.1760   33.7060 C   0  0  0  0  0  0  0  0  0  0  0  0
    2.6370   29.8650   32.6140 C   0  0  0  0  0  0  0  0  0  0  0  0
    2.8410   15.5430   38.7230 C   0  0  0  0  0  0  0  0  0  0  0  0
    1.5040   21.1840   39.9810 C   0  0  0  0  0  0  0  0  0  0  0  0
    1.9940   27.5690   31.7160 C   0  0  0  0  0  0  0  0  0  0  0  0
    2.2170   14.1240   35.4490 N   0  0  0  0  0  4  0  0  0  0  0  0
    1.5180   28.0060   35.0600 O   0  0  0  0  0  0  0  0  0  0  0  0
    2.9750   13.9980   36.5790 C   0  0  0  0  0  0  0  0  0  0  0  0
    3.1680   31.2520   32.1340 C   0  0  0  0  0  0  0  0  0  0  0  0
    2.5180   17.6550   39.9790 C   0  0  0  0  0  0  0  0  0  0  0  0
    2.1230   12.8390   34.6520 C   0  0  0  0  0  0  0  0  0  0  0  0
    3.0310   24.1950   34.8720 C   0  0  0  0  0  0  0  0  0  0  0  0
    3.3810   15.1990   37.2810 C   0  0  0  0  0  0  0  0  0  0  0  0
    3.1600   19.3910   38.6140 C   0  0  0  0  0  0  0  0  0  0  0  0
    1.9280   21.4940   38.6070 C   0  0  0  0  0  0  0  0  0  0  0  0
    3.4650   12.4010   34.0840 C   0  0  0  0  0  0  0  0  0  0  0  0
    3.2090   20.9870   36.5660 C   0  0  0  0  0  0  0  0  0  0  0  0
    3.9030   22.0640   33.9060 O   0  0  0  0  0  0  0  0  0  0  0  0
    1.5760   27.2230   30.3070 C   0  0  0  0  0  0  0  0  0  0  0  0
    2.8980   28.7470   31.7520 C   0  0  0  0  0  0  0  0  0  0  0  0
    2.5060   20.4130   37.7850 C   0  0  0  0  0  0  0  0  0  0  0  0
    3.0890   14.4520   39.7470 C   0  0  0  0  0  0  0  0  0  0  0  0
    2.2860   21.8390   35.6740 C   0  0  0  0  0  0  0  0  0  0  0  0
    0.2500   30.8380   33.3320 C   0  0  0  0  0  0  0  0  0  0  0  0
    3.9840   28.7800   30.7380 C   0  0  0  0  0  0  0  0  0  0  0  0
    1.0840   24.6532   34.5871 H   0  0  0  0  0  0  0  0  0  0  0  0
    2.4470   25.9417   35.3478 H   0  0  0  0  0  0  0  0  0  0  0  0
    2.0611   22.6859   33.6730 H   0  0  0  0  0  0  0  0  0  0  0  0
    1.4675   18.8448   39.2963 H   0  0  0  0  0  0  0  0  0  0  0  0
    0.9867   19.6902   41.0879 H   0  0  0  0  0  0  0  0  0  0  0  0
    2.7317   20.4098   41.1765 H   0  0  0  0  0  0  0  0  0  0  0  0
    4.6967   12.8674   40.8034 H   0  0  0  0  0  0  0  0  0  0  0  0
    0.1490   30.5260   34.3690 H   0  0  0  0  0  0  0  0  0  0  0  0
    0.1490   31.5631   32.9023 H   0  0  0  0  0  0  0  0  0  0  0  0
    1.0471   30.0075   32.9023 H   0  0  0  0  0  0  0  0  0  0  0  0
   -0.7491   30.0075   32.9023 H   0  0  0  0  0  0  0  0  0  0  0  0
    1.7418   25.7847   32.6792 H   0  0  0  0  0  0  0  0  0  0  0  0
    2.8151   30.4501   33.5283 H   0  0  0  0  0  0  0  0  0  0  0  0
    1.7730   15.4427   38.9666 H   0  0  0  0  0  0  0  0  0  0  0  0
    0.8624   21.8954   40.5216 H   0  0  0  0  0  0  0  0  0  0  0  0
    2.1188   26.5131   31.9979 H   0  0  0  0  0  0  0  0  0  0  0  0
    1.2662   14.4110   35.7220 H   0  0  0  0  0  0  0  0  0  0  0  0
    2.6734   14.8257   34.8489 H   0  0  0  0  0  0  0  0  0  0  0  0
    1.7163   27.3819   35.8024 H   0  0  0  0  0  0  0  0  0  0  0  0
    2.3987   13.3868   37.2892 H   0  0  0  0  0  0  0  0  0  0  0  0
    3.9205   13.5654   36.2200 H   0  0  0  0  0  0  0  0  0  0  0  0
    3.4068   31.8757   33.0081 H   0  0  0  0  0  0  0  0  0  0  0  0
    4.0745   31.1078   31.5278 H   0  0  0  0  0  0  0  0  0  0  0  0
    2.3970   31.7500   31.5278 H   0  0  0  0  0  0  0  0  0  0  0  0
    2.2719   17.1769   40.9386 H   0  0  0  0  0  0  0  0  0  0  0  0
    1.7429   12.0437   35.3101 H   0  0  0  0  0  0  0  0  0  0  0  0
    1.4471   13.0227   33.8038 H   0  0  0  0  0  0  0  0  0  0  0  0
    3.9403   24.5245   34.3480 H   0  0  0  0  0  0  0  0  0  0  0  0
    3.0228   24.1376   35.9705 H   0  0  0  0  0  0  0  0  0  0  0  0
    3.0985   16.0440   36.6359 H   0  0  0  0  0  0  0  0  0  0  0  0
    4.4474   15.0080   37.4713 H   0  0  0  0  0  0  0  0  0  0  0  0
    4.0606   19.9482   38.9114 H   0  0  0  0  0  0  0  0  0  0  0  0
    1.8166   22.5101   38.2007 H   0  0  0  0  0  0  0  0  0  0  0  0
    4.1564   12.1753   34.9093 H   0  0  0  0  0  0  0  0  0  0  0  0
    3.3257   11.5017   33.4661 H   0  0  0  0  0  0  0  0  0  0  0  0
    3.8830   13.2093   33.4661 H   0  0  0  0  0  0  0  0  0  0  0  0
    4.0425   21.6177   36.9086 H   0  0  0  0  0  0  0  0  0  0  0  0
    3.5540   20.1370   35.9591 H   0  0  0  0  0  0  0  0  0  0  0  0
    4.5031   21.7304   34.6193 H   0  0  0  0  0  0  0  0  0  0  0  0
    0.7290   26.5219   30.3375 H   0  0  0  0  0  0  0  0  0  0  0  0
    1.2746   28.1394   29.7785 H   0  0  0  0  0  0  0  0  0  0  0  0
    2.4200   26.7557   29.7785 H   0  0  0  0  0  0  0  0  0  0  0  0
    1.7335   19.7923   37.3075 H   0  0  0  0  0  0  0  0  0  0  0  0
    2.1387   13.9066   39.8444 H   0  0  0  0  0  0  0  0  0  0  0  0
    3.4798   15.0326   40.5956 H   0  0  0  0  0  0  0  0  0  0  0  0
    1.7926   22.5586   36.3439 H   0  0  0  0  0  0  0  0  0  0  0  0
    1.6844   21.0682   35.1701 H   0  0  0  0  0  0  0  0  0  0  0  0
    0.2500   30.8380   34.4320 H   0  0  0  0  0  0  0  0  0  0  0  0
    0.2500   31.8751   32.9653 H   0  0  0  0  0  0  0  0  0  0  0  0
    1.1481   30.3195   32.9653 H   0  0  0  0  0  0  0  0  0  0  0  0
   -0.6481   30.3195   32.9653 H   0  0  0  0  0  0  0  0  0  0  0  0
    4.9592   28.8096   31.2460 H   0  0  0  0  0  0  0  0  0  0  0  0
    3.9256   27.8797   30.1087 H   0  0  0  0  0  0  0  0  0  0  0  0
    3.8710   29.6751   30.1087 H   0  0  0  0  0  0  0  0  0  0  0  0
  1 12  1  0
  1  3  1  0
  2 22  1  0
  3 17  1  0
  4 28  1  0
  4 22  1  0
  4 33  1  0
  5 20  1  0
  5  6  1  0
  7 32  1  0
  8 20  2  0
  9  8  1  0
 11  3  2  3
 11  2  1  0
 12 19  1  0
 13 23  1  0
 13  8  1  0
 13 32  1  0
 14  6  1  0
 15 29  1  0
 15 30  1  0
 15  1  1  0
 16 18  1  0
 18 23  1  0
 21 16  1  0
 24  9  1  0
 24  5  1  0
 25 14  2  0
 26 21  1  0
 30 35  1  0
 30  1  1  0
 30 12  1  0
 31 27  1  0
 31 25  1  0
 31 24  1  0
 33 27  1  0
  2 36  1  0
  2 37  1  0
  4 38  1  0
  5 39  1  0
  6 40  1  0
  6 41  1  0
  7 42  1  0
 10 43  1  0
 10 44  1  0
 10 45  1  0
 10 46  1  0
 11 47  1  0
 12 48  1  0
 13 49  1  0
 14 50  1  0
 15 51  1  0
 16 52  1  0
 16 53  1  0
 17 54  1  0
 18 55  1  0
 18 56  1  0
 19 57  1  0
 19 58  1  0
 19 59  1  0
 20 60  1  0
 21 61  1  0
 21 62  1  0
 22 63  1  0
 22 64  1  0
 23 65  1  0
 23 66  1  0
 24 67  1  0
 25 68  1  0
 26 69  1  0
 26 70  1  0
 26 71  1  0
 27 72  1  0
 27 73  1  0
 28 74  1  0
 29 75  1  0
 29 76  1  0
 29 77  1  0
 31 78  1  0
 32 79  1  0
 32 80  1  0
 33 81  1  0
 33 82  1  0
 34 83  1  0
 34 84  1  0
 34 85  1  0
 34 86  1  0
 35 87  1  0
 35 88  1  0
 35 89  1  0
M  CHG  1  16   1
M  END
>  <mol_id>  (4) 
2026-08-24-6tgu-s0-n20-pocketids2-0004

>  <rmsd_to_ref>  (4) 


$$$$

     RDKit          3D

 36 36  0  0  0  0  0  0  0  0999 V2000
    0.9100   18.3360   41.9110 C   0  0  0  0  0  0  0  0  0  0  0  0
    2.6260   20.7860   38.8340 C   0  0  0  0  0  0  0  0  0  0  0  0
    2.6160   20.5880   37.5150 C   0  0  0  0  0  0  0  0  0  0  0  0
    2.2150   19.8200   39.9210 C   0  0  0  0  0  0  0  0  0  0  0  0
    2.7780   23.5440   33.3700 C   0  0  0  0  0  0  0  0  0  0  0  0
    1.3390   21.6650   41.2420 O   0  0  0  0  0  0  0  0  0  0  0  0
    2.3920   23.5590   34.8480 C   0  0  0  0  0  0  0  0  0  0  0  0
    2.4080   18.4270   39.9470 C   0  0  0  0  0  0  0  0  0  0  0  0
    1.5620   20.4280   41.0810 C   0  0  0  0  0  0  0  0  0  0  0  0
    4.5620   23.2370   33.3100 S   0  0  0  0  0  0  0  0  0  0  0  0
    3.4500   21.3860   35.2110 C   0  0  0  0  0  0  0  0  0  0  0  0
    2.5640   24.9790   32.8560 C   0  0  0  0  0  0  0  0  0  0  0  0
    2.8790   19.3360   36.9820 O   0  0  0  0  0  0  0  0  0  0  0  0
    2.1900   22.1570   35.2690 N   0  0  0  0  0  4  0  0  0  0  0  0
    1.6960   17.7050   40.9780 C   0  0  0  0  0  0  0  0  0  0  0  0
    4.5870   21.7180   34.2500 C   0  0  0  0  0  0  0  0  0  0  0  0
    0.8550   19.7680   41.9800 N   0  0  0  0  0  0  0  0  0  0  0  0
    0.3148   17.7355   42.6146 H   0  0  0  0  0  0  0  0  0  0  0  0
    1.9870   21.6679   38.9885 H   0  0  0  0  0  0  0  0  0  0  0  0
    3.7137   20.7682   38.9973 H   0  0  0  0  0  0  0  0  0  0  0  0
    1.6141   20.8744   37.1627 H   0  0  0  0  0  0  0  0  0  0  0  0
    3.4753   21.1835   37.1730 H   0  0  0  0  0  0  0  0  0  0  0  0
    2.2077   22.8013   32.7928 H   0  0  0  0  0  0  0  0  0  0  0  0
    3.1968   24.0171   35.4416 H   0  0  0  0  0  0  0  0  0  0  0  0
    1.4745   24.1458   35.0027 H   0  0  0  0  0  0  0  0  0  0  0  0
    3.0624   17.9165   39.2251 H   0  0  0  0  0  0  0  0  0  0  0  0
    3.5735   20.5322   35.8934 H   0  0  0  0  0  0  0  0  0  0  0  0
    2.4619   25.6634   33.7111 H   0  0  0  0  0  0  0  0  0  0  0  0
    3.4269   25.2820   32.2448 H   0  0  0  0  0  0  0  0  0  0  0  0
    1.6502   25.0171   32.2448 H   0  0  0  0  0  0  0  0  0  0  0  0
    3.0154   18.6866   37.7167 H   0  0  0  0  0  0  0  0  0  0  0  0
    1.8352   22.1459   36.2359 H   0  0  0  0  0  0  0  0  0  0  0  0
    1.5147   21.7207   34.6251 H   0  0  0  0  0  0  0  0  0  0  0  0
    1.7873   16.6095   41.0165 H   0  0  0  0  0  0  0  0  0  0  0  0
    5.4276   21.0178   34.1350 H   0  0  0  0  0  0  0  0  0  0  0  0
    0.2938   20.2554   42.6930 H   0  0  0  0  0  0  0  0  0  0  0  0
  1 17  1  0
  2  4  1  0
  3  2  1  0
  4  8  2  0
  4  9  1  0
  5 12  1  0
  5  7  1  0
  7 14  1  0
  8 15  1  0
  9  6  2  0
  9 17  1  0
 10  5  1  0
 10 16  1  0
 11 14  1  0
 13  3  1  0
 15  1  2  0
 16 11  2  0
  1 18  1  0
  2 19  1  0
  2 20  1  0
  3 21  1  0
  3 22  1  0
  5 23  1  0
  7 24  1  0
  7 25  1  0
  8 26  1  0
 11 27  1  0
 12 28  1  0
 12 29  1  0
 12 30  1  0
 13 31  1  0
 14 32  1  0
 14 33  1  0
 15 34  1  0
 16 35  1  0
 17 36  1  0
M  CHG  1  14   1
M  END
>  <mol_id>  (5) 
2026-08-24-6tgu-s0-n20-pocketids2-0005

>  <rmsd_to_ref>  (5) 


$$$$

     RDKit          3D

 70 75  0  0  0  0  0  0  0  0999 V2000
    2.6650   17.3230   39.3220 C   0  0  0  0  0  0  0  0  0  0  0  0
    1.6230   25.0470   31.3450 C   0  0  0  0  0  0  0  0  0  0  0  0
    1.0340   15.8410   42.1810 O   0  0  0  0  0  0  0  0  0  0  0  0
    2.4300   22.4080   34.5940 C   0  0  0  0  0  0  0  0  0  0  0  0
    1.3610   20.5040   41.0750 C   0  0  0  0  0  0  0  0  0  0  0  0
    2.5080   14.9430   40.0210 C   0  0  0  0  0  0  0  0  0  0  0  0
    4.0280   17.8440   37.3620 N   0  0  0  0  0  0  0  0  0  0  0  0
    2.6960   24.6260   33.5110 C   0  0  0  0  0  0  0  0  0  0  0  0
    1.3840   26.9040   28.3210 O   0  0  0  0  0  0  0  0  0  0  0  0
    3.6510   19.0560   37.5050 C   0  0  0  0  0  0  0  0  0  0  0  0
    1.7280   19.0700   40.7070 C   0  0  0  0  0  0  0  0  0  0  0  0
    2.0510   21.7810   37.3110 C   0  0  0  0  0  0  0  0  0  0  0  0
    0.9120   26.7190   29.6730 C   0  0  0  0  0  0  0  0  0  0  0  0
    2.8350   24.9100   31.9710 C   0  0  0  0  0  0  0  0  0  0  0  0
    2.7280   26.6580   28.3720 C   0  0  0  0  0  0  0  0  0  0  0  0
    3.7710   15.5270   38.0370 C   0  0  0  0  0  0  0  0  0  0  0  0
    4.0760   24.7830   31.1550 C   0  0  0  0  0  0  0  0  0  0  0  0
    2.3960   18.6830   39.5460 C   0  0  0  0  0  0  0  0  0  0  0  0
    4.1230   25.1320   29.8810 C   0  0  0  0  0  0  0  0  0  0  0  0
    1.6800   25.6780   30.1890 C   0  0  0  0  0  0  0  0  0  0  0  0
    3.2180   23.2830   33.7210 N   0  0  0  0  0  4  0  0  0  0  0  0
    2.9700   25.7050   29.4690 C   0  0  0  0  0  0  0  0  0  0  0  0
    2.0290   22.4920   36.0030 C   0  0  0  0  0  0  0  0  0  0  0  0
    4.6750   15.0390   36.9560 C   0  0  0  0  0  0  0  0  0  0  0  0
    1.1960   18.0560   41.6540 C   0  0  0  0  0  0  0  0  0  0  0  0
    2.2470   20.9750   38.1570 C   0  0  0  0  0  0  0  0  0  0  0  0
    3.4740   16.9280   38.2030 C   0  0  0  0  0  0  0  0  0  0  0  0
    2.2210   16.3180   40.2250 C   0  0  0  0  0  0  0  0  0  0  0  0
    2.8040   19.5490   38.5040 C   0  0  0  0  0  0  0  0  0  0  0  0
    3.7200   27.0270   27.3620 C   0  0  0  0  0  0  0  0  0  0  0  0
    3.3340   21.8550   35.4990 C   0  0  0  0  0  0  0  0  0  0  0  0
    1.4330   16.7450   41.3510 C   0  0  0  0  0  0  0  0  0  0  0  0
    3.2660   14.5760   38.9370 C   0  0  0  0  0  0  0  0  0  0  0  0
    3.5668   17.3984   39.9474 H   0  0  0  0  0  0  0  0  0  0  0  0
    1.2098   24.0427   31.1698 H   0  0  0  0  0  0  0  0  0  0  0  0
    0.9923   25.6578   32.0077 H   0  0  0  0  0  0  0  0  0  0  0  0
    0.4899   16.0967   42.9676 H   0  0  0  0  0  0  0  0  0  0  0  0
    1.7067   22.2041   33.7907 H   0  0  0  0  0  0  0  0  0  0  0  0
    1.3348   20.6063   42.1699 H   0  0  0  0  0  0  0  0  0  0  0  0
    2.1119   21.1926   40.6602 H   0  0  0  0  0  0  0  0  0  0  0  0
    0.3717   20.7472   40.6602 H   0  0  0  0  0  0  0  0  0  0  0  0
    2.1290   14.1834   40.7206 H   0  0  0  0  0  0  0  0  0  0  0  0
    1.6402   24.6774   33.8152 H   0  0  0  0  0  0  0  0  0  0  0  0
    3.2445   25.3691   34.1085 H   0  0  0  0  0  0  0  0  0  0  0  0
    4.0290   19.7832   36.7713 H   0  0  0  0  0  0  0  0  0  0  0  0
    0.9600   21.8020   37.4497 H   0  0  0  0  0  0  0  0  0  0  0  0
    3.1246   22.0155   37.3600 H   0  0  0  0  0  0  0  0  0  0  0  0
    1.0600   27.6361   30.2620 H   0  0  0  0  0  0  0  0  0  0  0  0
   -0.1637   26.4913   29.7052 H   0  0  0  0  0  0  0  0  0  0  0  0
    3.5397   25.7456   32.0941 H   0  0  0  0  0  0  0  0  0  0  0  0
    3.3293   27.5762   28.2994 H   0  0  0  0  0  0  0  0  0  0  0  0
    4.8416   25.3853   31.6660 H   0  0  0  0  0  0  0  0  0  0  0  0
    4.1989   23.6915   31.0964 H   0  0  0  0  0  0  0  0  0  0  0  0
    4.9457   25.8483   29.7393 H   0  0  0  0  0  0  0  0  0  0  0  0
    4.2809   24.2209   29.2852 H   0  0  0  0  0  0  0  0  0  0  0  0
    4.1579   23.3727   34.1327 H   0  0  0  0  0  0  0  0  0  0  0  0
    3.2001   22.8338   32.7943 H   0  0  0  0  0  0  0  0  0  0  0  0
    1.2151   23.1714   36.2962 H   0  0  0  0  0  0  0  0  0  0  0  0
    5.5588   14.5619   37.4046 H   0  0  0  0  0  0  0  0  0  0  0  0
    4.1399   14.3072   36.3330 H   0  0  0  0  0  0  0  0  0  0  0  0
    4.9931   15.8879   36.3330 H   0  0  0  0  0  0  0  0  0  0  0  0
    0.6379   18.3470   42.5561 H   0  0  0  0  0  0  0  0  0  0  0  0
    2.8501   21.5803   38.8497 H   0  0  0  0  0  0  0  0  0  0  0  0
    1.2531   20.5411   37.9727 H   0  0  0  0  0  0  0  0  0  0  0  0
    4.6397   27.3691   27.8592 H   0  0  0  0  0  0  0  0  0  0  0  0
    3.9462   26.1529   26.7337 H   0  0  0  0  0  0  0  0  0  0  0  0
    3.3200   27.8365   26.7337 H   0  0  0  0  0  0  0  0  0  0  0  0
    3.4681   20.7642   35.5461 H   0  0  0  0  0  0  0  0  0  0  0  0
    4.4033   21.9952   35.7156 H   0  0  0  0  0  0  0  0  0  0  0  0
    3.4828   13.5106   38.7697 H   0  0  0  0  0  0  0  0  0  0  0  0
  1 27  1  0
  1 18  1  0
  1 28  1  0
  2 14  1  0
  4 21  1  0
  4 31  1  0
  4 23  1  0
  6 28  1  0
  7 10  2  0
  7 27  1  0
  8 21  1  0
  9 15  1  0
  9 13  1  0
 10 29  1  0
 11  5  1  0
 11 25  2  0
 12 26  1  0
 13 20  1  0
 14  8  1  0
 15 30  1  0
 15 22  1  0
 16 27  2  0
 16 33  1  0
 17 14  1  0
 18 11  1  0
 19 17  1  0
 20  2  1  0
 22 19  1  0
 22 20  2  0
 23 12  1  0
 24 16  1  0
 26 29  1  0
 28 32  2  0
 29 18  2  0
 31 23  1  0
 32 25  1  0
 32  3  1  0
 33  6  2  0
  1 34  1  0
  2 35  1  0
  2 36  1  0
  3 37  1  0
  4 38  1  0
  5 39  1  0
  5 40  1  0
  5 41  1  0
  6 42  1  0
  8 43  1  0
  8 44  1  0
 10 45  1  0
 12 46  1  0
 12 47  1  0
 13 48  1  0
 13 49  1  0
 14 50  1  0
 15 51  1  0
 17 52  1  0
 17 53  1  0
 19 54  1  0
 19 55  1  0
 21 56  1  0
 21 57  1  0
 23 58  1  0
 24 59  1  0
 24 60  1  0
 24 61  1  0
 25 62  1  0
 26 63  1  0
 26 64  1  0
 30 65  1  0
 30 66  1  0
 30 67  1  0
 31 68  1  0
 31 69  1  0
 33 70  1  0
M  CHG  1  21   1
M  END
>  <mol_id>  (6) 
2026-08-24-6tgu-s0-n20-pocketids2-0006

>  <rmsd_to_ref>  (6) 


$$$$

     RDKit          3D

 53 56  0  0  0  0  0  0  0  0999 V2000
    1.8740   19.5500   40.4970 C   0  0  0  0  0  0  0  0  0  0  0  0
    2.0380   20.6390   39.3620 C   0  0  0  0  0  0  0  0  0  0  0  0
    3.2060   21.4640   36.1670 C   0  0  0  0  0  0  0  0  0  0  0  0
    2.7160   17.2620   39.6020 N   0  0  0  0  0  0  0  0  0  0  0  0
    3.9240   17.8190   37.2590 C   0  0  0  0  0  0  0  0  0  0  0  0
    2.9090   21.0640   37.2140 C   0  0  0  0  0  0  0  0  0  0  0  0
    4.4970   24.0720   29.8750 C   0  0  0  0  0  0  0  0  0  0  0  0
    4.2250   23.4380   32.1630 C   0  0  0  0  0  0  0  0  0  0  0  0
    0.8920   19.0930   41.4950 N   0  0  0  0  0  0  0  0  0  0  0  0
    4.4840   22.7090   33.2020 N   0  0  0  0  0  0  0  0  0  0  0  0
   -0.9080   19.6940   43.1240 C   0  0  0  0  0  0  0  0  0  0  0  0
    0.9090   17.6140   42.0720 C   0  0  0  0  0  0  0  0  0  0  0  0
    3.6120   22.4440   34.0930 C   0  0  0  0  0  0  0  0  0  0  0  0
    3.4070   23.7900   30.0940 C   0  0  0  0  0  0  0  0  0  0  0  0
    0.3020   20.1640   42.4350 C   0  0  0  0  0  0  0  0  0  0  0  0
    2.5640   23.5400   28.9640 C   0  0  0  0  0  0  0  0  0  0  0  0
    3.6420   23.6010   31.2780 C   0  0  0  0  0  0  0  0  0  0  0  0
    2.7470   20.1790   38.2230 C   0  0  0  0  0  0  0  0  0  0  0  0
    2.3300   18.3030   39.8790 C   0  0  0  0  0  0  0  0  0  0  0  0
    3.3530   21.9950   35.1020 C   0  0  0  0  0  0  0  0  0  0  0  0
    3.1300   18.7000   38.3350 C   0  0  0  0  0  0  0  0  0  0  0  0
    4.5980   23.8880   30.9940 C   0  0  0  0  0  0  0  0  0  0  0  0
    0.0420   17.3160   43.2710 C   0  0  0  0  0  0  0  0  0  0  0  0
   -1.1620   18.1600   43.3080 C   0  0  0  0  0  0  0  0  0  0  0  0
    2.2653   20.2855   41.2153 H   0  0  0  0  0  0  0  0  0  0  0  0
    1.0356   20.9580   39.0406 H   0  0  0  0  0  0  0  0  0  0  0  0
    2.6254   21.4633   39.7926 H   0  0  0  0  0  0  0  0  0  0  0  0
    2.7967   16.9892   38.6121 H   0  0  0  0  0  0  0  0  0  0  0  0
    4.5723   17.0996   37.7807 H   0  0  0  0  0  0  0  0  0  0  0  0
    3.2054   17.2748   36.6286 H   0  0  0  0  0  0  0  0  0  0  0  0
    4.5397   18.4774   36.6286 H   0  0  0  0  0  0  0  0  0  0  0  0
    3.4949   21.7949   37.7906 H   0  0  0  0  0  0  0  0  0  0  0  0
    2.0348   20.6003   36.7337 H   0  0  0  0  0  0  0  0  0  0  0  0
    5.0502   23.3802   29.2228 H   0  0  0  0  0  0  0  0  0  0  0  0
    4.8149   24.9906   29.3601 H   0  0  0  0  0  0  0  0  0  0  0  0
    4.2947   23.5173   33.2579 H   0  0  0  0  0  0  0  0  0  0  0  0
   -1.7667   20.0924   42.5637 H   0  0  0  0  0  0  0  0  0  0  0  0
   -0.7649   20.0505   44.1547 H   0  0  0  0  0  0  0  0  0  0  0  0
    0.5902   16.9420   41.2615 H   0  0  0  0  0  0  0  0  0  0  0  0
    1.9383   17.4690   42.4318 H   0  0  0  0  0  0  0  0  0  0  0  0
    2.6633   22.8351   33.6967 H   0  0  0  0  0  0  0  0  0  0  0  0
    2.3195   23.9538   30.1158 H   0  0  0  0  0  0  0  0  0  0  0  0
    1.0582   20.4289   43.1887 H   0  0  0  0  0  0  0  0  0  0  0  0
    0.0244   21.0344   41.8223 H   0  0  0  0  0  0  0  0  0  0  0  0
    1.5634   23.2433   29.3115 H   0  0  0  0  0  0  0  0  0  0  0  0
    2.4851   24.4534   28.3562 H   0  0  0  0  0  0  0  0  0  0  0  0
    2.9958   22.7313   28.3562 H   0  0  0  0  0  0  0  0  0  0  0  0
    2.6188   23.3765   31.6136 H   0  0  0  0  0  0  0  0  0  0  0  0
    5.6255   24.2523   30.8471 H   0  0  0  0  0  0  0  0  0  0  0  0
   -0.2659   16.2607   43.2323 H   0  0  0  0  0  0  0  0  0  0  0  0
    0.6313   17.5275   44.1755 H   0  0  0  0  0  0  0  0  0  0  0  0
   -1.6522   18.0108   44.2814 H   0  0  0  0  0  0  0  0  0  0  0  0
   -1.7790   17.8484   42.4523 H   0  0  0  0  0  0  0  0  0  0  0  0
  1  2  1  0
  1  9  1  0
  3  6  1  0
  4 19  2  3
  5 21  1  0
  6 18  1  0
  7 14  1  0
  7 22  1  0
  8 10  1  0
  9 12  1  0
  9 15  1  0
 10 13  2  3
 11 24  1  0
 12 23  1  0
 13 20  1  0
 14 16  1  0
 14 17  1  0
 15 11  1  0
 17  8  1  0
 18 21  2  0
 18  2  1  0
 19  1  1  0
 20  3  3  0
 21 19  1  0
 22 17  1  0
 22  8  1  0
 23 24  1  0
  1 25  1  0
  2 26  1  0
  2 27  1  0
  4 28  1  0
  5 29  1  0
  5 30  1  0
  5 31  1  0
  6 32  1  0
  6 33  1  0
  7 34  1  0
  7 35  1  0
  8 36  1  0
 11 37  1  0
 11 38  1  0
 12 39  1  0
 12 40  1  0
 13 41  1  0
 14 42  1  0
 15 43  1  0
 15 44  1  0
 16 45  1  0
 16 46  1  0
 16 47  1  0
 17 48  1  0
 22 49  1  0
 23 50  1  0
 23 51  1  0
 24 52  1  0
 24 53  1  0
M  END
>  <mol_id>  (7) 
2026-08-24-6tgu-s0-n20-pocketids2-0007

>  <rmsd_to_ref>  (7) 


$$$$

     RDKit          3D

 40 42  0  0  0  0  0  0  0  0999 V2000
    3.0190   19.7640   38.8770 C   0  0  0  0  0  0  0  0  0  0  0  0
    3.0390   22.6340   34.1900 C   0  0  0  0  0  0  0  0  0  0  0  0
    2.6700   21.4670   36.9310 C   0  0  0  0  0  0  0  0  0  0  0  0
    3.5290   23.6140   30.7980 C   0  0  0  0  0  0  0  0  0  0  0  0
    3.7330   20.9250   35.9180 C   0  0  0  0  0  0  0  0  0  0  0  0
    3.1740   23.9040   31.9930 C   0  0  0  0  0  0  0  0  0  0  0  0
    3.0330   23.0760   32.9760 N   0  0  0  0  0  0  0  0  0  0  0  0
    4.0860   21.6240   34.6750 C   0  0  0  0  0  0  0  0  0  0  0  0
    1.9070   23.1930   34.9660 C   0  0  0  0  0  0  0  0  0  0  0  0
    2.3560   20.9260   38.2300 N   0  0  0  0  0  0  0  0  0  0  0  0
    1.0530   16.7150   41.8410 C   0  0  0  0  0  0  0  0  0  0  0  0
    3.4240   18.1610   38.4460 S   0  0  0  0  0  0  0  0  0  0  0  0
    1.2890   18.0390   41.6510 C   0  0  0  0  0  0  0  0  0  0  0  0
    1.7400   22.5710   36.3220 C   0  0  0  0  0  0  0  0  0  0  0  0
    2.4740   16.0960   39.9680 C   0  0  0  0  0  0  0  0  0  0  0  0
    2.6010   17.4550   39.6760 C   0  0  0  0  0  0  0  0  0  0  0  0
    2.6760   19.8530   40.2660 C   0  0  0  0  0  0  0  0  0  0  0  0
    1.6270   15.7200   41.0510 C   0  0  0  0  0  0  0  0  0  0  0  0
    4.1210   24.6420   30.1350 C   0  0  0  0  0  0  0  0  0  0  0  0
    2.1260   18.4380   40.6690 C   0  0  0  0  0  0  0  0  0  0  0  0
    3.9364   19.9567   38.3014 H   0  0  0  0  0  0  0  0  0  0  0  0
    4.2392   22.7751   30.8415 H   0  0  0  0  0  0  0  0  0  0  0  0
    2.6122   23.3626   30.2445 H   0  0  0  0  0  0  0  0  0  0  0  0
    4.2396   19.9760   36.1476 H   0  0  0  0  0  0  0  0  0  0  0  0
    3.9159   24.6376   32.3415 H   0  0  0  0  0  0  0  0  0  0  0  0
    2.1181   24.1546   31.8134 H   0  0  0  0  0  0  0  0  0  0  0  0
    2.7132   22.2370   32.4714 H   0  0  0  0  0  0  0  0  0  0  0  0
    5.0262   21.4378   34.1353 H   0  0  0  0  0  0  0  0  0  0  0  0
    1.2507   23.9890   34.5842 H   0  0  0  0  0  0  0  0  0  0  0  0
    1.6022   21.3877   38.7586 H   0  0  0  0  0  0  0  0  0  0  0  0
    0.3779   16.4140   42.6557 H   0  0  0  0  0  0  0  0  0  0  0  0
    0.7997   18.7844   42.2952 H   0  0  0  0  0  0  0  0  0  0  0  0
    0.8970   22.9182   36.9375 H   0  0  0  0  0  0  0  0  0  0  0  0
    3.0116   15.3377   39.3798 H   0  0  0  0  0  0  0  0  0  0  0  0
    3.5652   20.1017   40.8639 H   0  0  0  0  0  0  0  0  0  0  0  0
    1.9301   20.6410   40.4466 H   0  0  0  0  0  0  0  0  0  0  0  0
    1.4288   14.6585   41.2607 H   0  0  0  0  0  0  0  0  0  0  0  0
    4.5332   25.3578   30.8614 H   0  0  0  0  0  0  0  0  0  0  0  0
    4.9328   24.2519   29.5035 H   0  0  0  0  0  0  0  0  0  0  0  0
    3.3762   25.1484   29.5035 H   0  0  0  0  0  0  0  0  0  0  0  0
  1 10  1  0
  1 17  1  0
  2  8  2  0
  2  9  1  0
  3 10  1  0
  4  6  1  0
  5  3  2  0
  6  7  1  0
  7  2  1  0
  8  5  1  0
  9 14  2  0
 12  1  1  0
 12 16  1  0
 13 11  2  0
 14  3  1  0
 15 18  2  0
 16 15  1  0
 16 20  2  0
 17 20  1  0
 18 11  1  0
 19  4  1  0
 20 13  1  0
  1 21  1  0
  4 22  1  0
  4 23  1  0
  5 24  1  0
  6 25  1  0
  6 26  1  0
  7 27  1  0
  8 28  1  0
  9 29  1  0
 10 30  1  0
 11 31  1  0
 13 32  1  0
 14 33  1  0
 15 34  1  0
 17 35  1  0
 17 36  1  0
 18 37  1  0
 19 38  1  0
 19 39  1  0
 19 40  1  0
M  END
>  <mol_id>  (8) 
2026-08-24-6tgu-s0-n20-pocketids2-0008

>  <rmsd_to_ref>  (8) 


$$$$

     RDKit          3D

 48 46  0  0  0  0  0  0  0  0999 V2000
    2.6410   21.4270   37.0600 S   0  0  0  0  0  0  0  0  0  0  0  0
    1.8720   14.7770   37.1870 N   0  0  0  0  0  0  0  0  0  0  0  0
    2.0900   24.7070   30.2680 C   0  0  0  0  0  0  0  0  0  0  0  0
    2.2900   15.7680   37.6030 C   0  0  0  0  0  0  0  0  0  0  0  0
    1.2040   21.3790   39.4040 O   0  0  0  0  0  0  0  0  0  0  0  0
    4.5350   16.3410   36.8800 N   0  0  0  0  0  0  0  0  0  0  0  0
    3.1970   19.8440   37.6660 C   0  0  0  0  0  0  0  0  0  0  0  0
    3.7940   17.2080   37.3280 C   0  0  0  0  0  0  0  0  0  0  0  0
    3.1420   20.6460   40.7340 O   0  0  0  0  0  0  0  0  0  0  0  0
    2.1670   25.0920   31.5950 C   0  0  0  0  0  0  0  0  0  0  0  0
    1.0790   19.3950   40.7250 O   0  0  0  0  0  0  0  0  0  0  0  0
    3.8300   22.8370   33.7020 C   0  0  0  0  0  0  0  0  0  0  0  0
    3.6880   23.3170   32.4350 C   0  0  0  0  0  0  0  0  0  0  0  0
    2.7160   16.9890   37.9940 C   0  0  0  0  0  0  0  0  0  0  0  0
    2.1100   18.0280   38.8480 C   0  0  0  0  0  0  0  0  0  0  0  0
    3.1330   21.4580   35.4340 C   0  0  0  0  0  0  0  0  0  0  0  0
    2.7140   22.5580   34.5700 C   0  0  0  0  0  0  0  0  0  0  0  0
    1.9500   20.3440   39.8960 S   0  0  0  0  0  4  0  0  0  0  0  0
    4.4630   19.6140   37.4340 O   0  0  0  0  0  0  0  0  0  0  0  0
    1.9370   24.6760   32.9980 N   0  0  0  0  0  0  0  0  0  0  0  0
    2.4600   19.3200   38.7230 C   0  0  0  0  0  0  0  0  0  0  0  0
    1.8780   26.6340   31.6160 C   0  0  0  0  0  0  0  0  0  0  0  0
    2.5870   24.2110   32.4020 C   0  0  0  0  0  0  0  0  0  0  0  0
    1.8746   23.6298   30.2106 H   0  0  0  0  0  0  0  0  0  0  0  0
    1.2864   25.2687   29.7693 H   0  0  0  0  0  0  0  0  0  0  0  0
    3.0478   24.9164   29.7693 H   0  0  0  0  0  0  0  0  0  0  0  0
    0.8276   21.9012   40.1561 H   0  0  0  0  0  0  0  0  0  0  0  0
    5.3811   16.6069   36.3563 H   0  0  0  0  0  0  0  0  0  0  0  0
    4.0730   18.2564   37.1461 H   0  0  0  0  0  0  0  0  0  0  0  0
    2.8968   20.5839   41.6911 H   0  0  0  0  0  0  0  0  0  0  0  0
    2.8446   25.9563   31.6566 H   0  0  0  0  0  0  0  0  0  0  0  0
    1.1337   25.3099   31.9027 H   0  0  0  0  0  0  0  0  0  0  0  0
    1.2329   19.5627   41.6885 H   0  0  0  0  0  0  0  0  0  0  0  0
    4.4512   23.5716   34.2354 H   0  0  0  0  0  0  0  0  0  0  0  0
    4.2145   21.8245   33.5095 H   0  0  0  0  0  0  0  0  0  0  0  0
    4.6039   23.8483   32.1368 H   0  0  0  0  0  0  0  0  0  0  0  0
    3.5119   22.4838   31.7388 H   0  0  0  0  0  0  0  0  0  0  0  0
    3.3068   16.5255   38.7978 H   0  0  0  0  0  0  0  0  0  0  0  0
    1.3596   17.7410   39.5993 H   0  0  0  0  0  0  0  0  0  0  0  0
    4.2330   21.4541   35.4339 H   0  0  0  0  0  0  0  0  0  0  0  0
    2.6271   20.5841   34.9977 H   0  0  0  0  0  0  0  0  0  0  0  0
    2.4696   23.4447   35.1734 H   0  0  0  0  0  0  0  0  0  0  0  0
    1.8150   22.2941   33.9937 H   0  0  0  0  0  0  0  0  0  0  0  0
    1.8068   24.3549   33.9680 H   0  0  0  0  0  0  0  0  0  0  0  0
    1.8780   26.6340   32.7160 H   0  0  0  0  0  0  0  0  0  0  0  0
    1.8780   27.6711   31.2493 H   0  0  0  0  0  0  0  0  0  0  0  0
    2.7761   26.1155   31.2493 H   0  0  0  0  0  0  0  0  0  0  0  0
    0.9799   26.1155   31.2493 H   0  0  0  0  0  0  0  0  0  0  0  0
  1  7  1  0
  2  4  3  0
  3 10  1  0
  4 14  1  0
  5 18  1  0
  6  8  2  3
  7 21  1  0
 10 23  1  0
 12 17  1  0
 13 12  1  0
 14  8  1  0
 14 15  1  0
 16  1  1  0
 17 16  1  0
 18 11  1  0
 18  9  1  0
 19  7  2  0
 21 15  2  3
 21 18  1  0
 23 13  1  0
 23 20  2  3
  3 24  1  0
  3 25  1  0
  3 26  1  0
  5 27  1  0
  6 28  1  0
  8 29  1  0
  9 30  1  0
 10 31  1  0
 10 32  1  0
 11 33  1  0
 12 34  1  0
 12 35  1  0
 13 36  1  0
 13 37  1  0
 14 38  1  0
 15 39  1  0
 16 40  1  0
 16 41  1  0
 17 42  1  0
 17 43  1  0
 20 44  1  0
 22 45  1  0
 22 46  1  0
 22 47  1  0
 22 48  1  0
M  END
>  <mol_id>  (9) 
2026-08-24-6tgu-s0-n20-pocketids2-0009

>  <rmsd_to_ref>  (9) 


$$$$

     RDKit          3D

 23 24  0  0  0  0  0  0  0  0999 V2000
    2.1790   20.7060   38.7580 C   0  0  0  0  0  0  0  0  0  0  0  0
    3.0340   22.4540   35.5520 N   0  0  0  0  0  4  0  0  0  0  0  0
    3.0900   22.5120   34.0580 C   0  0  0  0  0  0  0  0  0  0  0  0
    2.5640   21.5900   36.4270 C   0  0  0  0  0  0  0  0  0  0  0  0
    3.6960   19.2360   37.5140 S   0  0  0  0  0  0  0  0  0  0  0  0
    3.6570   23.6770   33.2740 C   0  0  0  0  0  0  0  0  0  0  0  0
    3.4730   18.8220   39.1610 C   0  0  0  0  0  0  0  0  0  0  0  0
    2.6900   20.6360   37.4960 C   0  0  0  0  0  0  0  0  0  0  0  0
    4.3170   22.4050   33.2980 C   0  0  0  0  0  0  0  0  0  0  0  0
    2.7150   19.7390   39.6740 C   0  0  0  0  0  0  0  0  0  0  0  0
    1.7830   22.2850   33.6510 O   0  0  0  0  0  0  0  0  0  0  0  0
    1.4175   21.4438   39.0508 H   0  0  0  0  0  0  0  0  0  0  0  0
    2.5364   23.3220   35.7967 H   0  0  0  0  0  0  0  0  0  0  0  0
    4.0192   22.1777   35.6702 H   0  0  0  0  0  0  0  0  0  0  0  0
    1.8429   22.2604   36.9174 H   0  0  0  0  0  0  0  0  0  0  0  0
    2.8449   20.7877   35.7288 H   0  0  0  0  0  0  0  0  0  0  0  0
    4.0949   24.5378   33.8006 H   0  0  0  0  0  0  0  0  0  0  0  0
    3.2828   24.3528   32.4909 H   0  0  0  0  0  0  0  0  0  0  0  0
    3.8916   17.9481   39.6816 H   0  0  0  0  0  0  0  0  0  0  0  0
    4.3361   21.7890   32.3868 H   0  0  0  0  0  0  0  0  0  0  0  0
    5.3391   22.0871   33.5513 H   0  0  0  0  0  0  0  0  0  0  0  0
    2.4944   19.7747   40.7511 H   0  0  0  0  0  0  0  0  0  0  0  0
    1.2024   22.1842   34.4465 H   0  0  0  0  0  0  0  0  0  0  0  0
  1 10  1  0
  2  4  1  0
  3  2  1  0
  4  8  1  0
  5  7  1  0
  6  9  1  0
  6  3  1  0
  7 10  2  0
  8  5  1  0
  8  1  2  0
  9  3  1  0
 11  3  1  0
  1 12  1  0
  2 13  1  0
  2 14  1  0
  4 15  1  0
  4 16  1  0
  6 17  1  0
  6 18  1  0
  7 19  1  0
  9 20  1  0
  9 21  1  0
 10 22  1  0
 11 23  1  0
M  CHG  1   2   1
M  END
>  <mol_id>  (10) 
2026-08-24-6tgu-s0-n20-pocketids2-0010

>  <rmsd_to_ref>  (10) 


$$$$

     RDKit          3D

 63 67  0  0  0  0  0  0  0  0999 V2000
    3.6820   25.6050   30.3750 C   0  0  0  0  0  0  0  0  0  0  0  0
    3.8420   21.7730   35.6750 C   0  0  0  0  0  0  0  0  0  0  0  0
    2.5680   19.3990   38.6260 C   0  0  0  0  0  0  0  0  0  0  0  0
    2.4650   16.6940   40.3230 O   0  0  0  0  0  0  0  0  0  0  0  0
    1.7570   26.5750   27.1320 C   0  0  0  0  0  0  0  0  0  0  0  0
    3.6680   18.4550   38.4210 C   0  0  0  0  0  0  0  0  0  0  0  0
    1.4670   18.7650   40.9390 C   0  0  0  0  0  0  0  0  0  0  0  0
    2.1040   25.7580   28.3070 C   0  0  0  0  0  0  0  0  0  0  0  0
    2.3240   23.5080   29.2630 C   0  0  0  0  0  0  0  0  0  0  0  0
    3.4640   20.4260   36.4540 C   0  0  0  0  0  0  0  0  0  0  0  0
    1.0790   16.7250   42.2830 C   0  0  0  0  0  0  0  0  0  0  0  0
    3.9340   23.1040   31.2670 C   0  0  0  0  0  0  0  0  0  0  0  0
    2.7970   22.4140   34.6570 C   0  0  0  0  0  0  0  0  0  0  0  0
    2.0670   22.3130   29.5010 F   0  0  0  0  0  0  0  0  0  0  0  0
    0.0870   17.3830   43.1040 C   0  0  0  0  0  0  0  0  0  0  0  0
    2.8210   23.7510   32.3250 C   0  0  0  0  0  0  0  0  0  0  0  0
    3.3870   23.3960   33.6560 C   0  0  0  0  0  0  0  0  0  0  0  0
    1.4220   15.4180   42.7620 O   0  0  0  0  0  0  0  0  0  0  0  0
    0.5480   19.5160   41.9450 C   0  0  0  0  0  0  0  0  0  0  0  0
    1.9750   19.7030   40.0360 C   0  0  0  0  0  0  0  0  0  0  0  0
    0.4960   14.3720   42.8550 C   0  0  0  0  0  0  0  0  0  0  0  0
   -0.2750   18.7920   42.9150 C   0  0  0  0  0  0  0  0  0  0  0  0
    3.7090   17.8320   37.0640 C   0  0  0  0  0  0  0  0  0  0  0  0
    3.1200   26.3750   29.2720 C   0  0  0  0  0  0  0  0  0  0  0  0
    1.6900   24.3870   28.3980 C   0  0  0  0  0  0  0  0  0  0  0  0
    1.5890   20.9360   40.4760 C   0  0  0  0  0  0  0  0  0  0  0  0
    2.8030   20.6660   37.8030 C   0  0  0  0  0  0  0  0  0  0  0  0
    0.7770   20.8580   41.6000 N   0  0  0  0  0  0  0  0  0  0  0  0
    4.5220   24.0400   32.5750 C   0  0  0  0  0  0  0  0  0  0  0  0
    3.6740   24.0000   29.9470 C   0  0  0  0  0  0  0  0  0  0  0  0
    1.7640   17.3650   41.1730 C   0  0  0  0  0  0  0  0  0  0  0  0
    4.7137   25.9329   30.5700 H   0  0  0  0  0  0  0  0  0  0  0  0
    3.0856   25.7574   31.2866 H   0  0  0  0  0  0  0  0  0  0  0  0
    4.8176   22.2531   35.8417 H   0  0  0  0  0  0  0  0  0  0  0  0
    1.7258   18.7912   38.2636 H   0  0  0  0  0  0  0  0  0  0  0  0
    2.6636   15.7386   40.4898 H   0  0  0  0  0  0  0  0  0  0  0  0
    1.3471   27.5401   27.4646 H   0  0  0  0  0  0  0  0  0  0  0  0
    2.6590   26.7487   26.5269 H   0  0  0  0  0  0  0  0  0  0  0  0
    1.0057   26.0465   26.5269 H   0  0  0  0  0  0  0  0  0  0  0  0
    4.6148   18.9917   38.5807 H   0  0  0  0  0  0  0  0  0  0  0  0
    3.5111   17.6339   39.1360 H   0  0  0  0  0  0  0  0  0  0  0  0
    2.7725   19.8442   35.8268 H   0  0  0  0  0  0  0  0  0  0  0  0
    4.4054   19.8909   36.6474 H   0  0  0  0  0  0  0  0  0  0  0  0
    4.2536   22.1237   30.8838 H   0  0  0  0  0  0  0  0  0  0  0  0
    1.7259   22.1644   34.6766 H   0  0  0  0  0  0  0  0  0  0  0  0
   -0.4130   16.8076   43.8970 H   0  0  0  0  0  0  0  0  0  0  0  0
    1.7681   23.9908   32.1157 H   0  0  0  0  0  0  0  0  0  0  0  0
    3.5097   23.4299   34.7486 H   0  0  0  0  0  0  0  0  0  0  0  0
   -0.2769   19.4800   41.2182 H   0  0  0  0  0  0  0  0  0  0  0  0
    0.2992   14.1496   43.9142 H   0  0  0  0  0  0  0  0  0  0  0  0
   -0.4418   14.6676   42.3620 H   0  0  0  0  0  0  0  0  0  0  0  0
    0.9031   13.4769   42.3620 H   0  0  0  0  0  0  0  0  0  0  0  0
   -1.1025   19.2685   43.4611 H   0  0  0  0  0  0  0  0  0  0  0  0
    3.7809   16.7390   37.1644 H   0  0  0  0  0  0  0  0  0  0  0  0
    2.7919   18.0902   36.5142 H   0  0  0  0  0  0  0  0  0  0  0  0
    4.5843   18.2081   36.5142 H   0  0  0  0  0  0  0  0  0  0  0  0
    3.4322   27.4202   29.1302 H   0  0  0  0  0  0  0  0  0  0  0  0
    0.8586   24.0286   27.7732 H   0  0  0  0  0  0  0  0  0  0  0  0
    1.8861   21.8805   39.9967 H   0  0  0  0  0  0  0  0  0  0  0  0
    1.8298   21.1481   37.6283 H   0  0  0  0  0  0  0  0  0  0  0  0
    3.4946   21.2938   38.3840 H   0  0  0  0  0  0  0  0  0  0  0  0
    5.4794   24.5659   32.7046 H   0  0  0  0  0  0  0  0  0  0  0  0
    4.4691   23.8803   29.1964 H   0  0  0  0  0  0  0  0  0  0  0  0
  2 10  1  0
  3 27  1  0
  3 20  1  0
  4 31  1  0
  5  8  1  0
  6  3  1  0
  7 31  1  0
  7 19  1  0
  8 25  1  0
  8 24  2  0
  9 14  1  0
  9 30  1  0
 10 27  1  0
 11 18  1  0
 11 15  1  0
 12 16  1  0
 12 29  1  0
 13  2  2  3
 16 29  1  0
 16 17  1  0
 17 13  1  0
 18 21  1  0
 19 22  1  0
 20 26  1  0
 20  7  2  0
 22 15  2  0
 23  6  1  0
 24  1  1  0
 25  9  2  0
 26 28  2  0
 28 19  1  0
 29 17  1  0
 30  1  1  0
 30 12  1  0
 31 11  2  0
  1 32  1  0
  1 33  1  0
  2 34  1  0
  3 35  1  0
  4 36  1  0
  5 37  1  0
  5 38  1  0
  5 39  1  0
  6 40  1  0
  6 41  1  0
 10 42  1  0
 10 43  1  0
 12 44  1  0
 13 45  1  0
 15 46  1  0
 16 47  1  0
 17 48  1  0
 19 49  1  0
 21 50  1  0
 21 51  1  0
 21 52  1  0
 22 53  1  0
 23 54  1  0
 23 55  1  0
 23 56  1  0
 24 57  1  0
 25 58  1  0
 26 59  1  0
 27 60  1  0
 27 61  1  0
 29 62  1  0
 30 63  1  0
M  END
>  <mol_id>  (11) 
2026-08-24-6tgu-s0-n20-pocketids2-0011

>  <rmsd_to_ref>  (11) 


$$$$

     RDKit          3D

 56 56  0  0  0  0  0  0  0  0999 V2000
    1.6910   19.3350   41.1920 C   0  0  0  0  0  0  0  0  0  0  0  0
    1.8580   22.9500   36.0150 C   0  0  0  0  0  0  0  0  0  0  0  0
    3.2860   18.0650   37.3270 C   0  0  0  0  0  0  0  0  0  0  0  0
    0.7450   18.9630   42.2260 C   0  0  0  0  0  0  0  0  0  0  0  0
    5.2130   23.9090   27.7770 O   0  0  0  0  0  0  0  0  0  0  0  0
    2.2140   19.1370   39.0040 C   0  0  0  0  0  0  0  0  0  0  0  0
    4.2700   24.2230   28.1260 C   0  0  0  0  0  0  0  0  0  0  0  0
    3.3800   21.0880   34.7080 C   0  0  0  0  0  0  0  0  0  0  0  0
    2.8720   20.6080   37.1420 C   0  0  0  0  0  0  0  0  0  0  0  0
    3.2010   19.1580   36.3890 C   0  0  0  0  0  0  0  0  0  0  0  0
    3.5410   26.0530   29.4730 F   0  0  0  0  0  0  0  0  0  0  0  0
    2.1690   17.0130   40.6490 O   0  0  0  0  0  0  0  0  0  0  0  0
    4.8860   25.2250   27.2510 C   0  0  0  0  0  0  0  0  0  0  0  0
    3.7110   24.7610   29.4320 C   0  0  0  0  0  0  0  0  0  0  0  0
    2.9190   21.9660   36.3050 S   0  0  0  0  0  4  0  0  0  0  0  0
    2.1650   18.1270   40.4910 N   0  0  0  0  0  0  0  0  0  0  0  0
    2.3220   20.4070   41.2680 O   0  0  0  0  0  0  0  0  0  0  0  0
    3.9420   23.0870   33.0980 C   0  0  0  0  0  0  0  0  0  0  0  0
    0.3720   19.7540   42.9920 O   0  0  0  0  0  1  0  0  0  0  0  0
   -0.0960   17.9060   41.9730 O   0  0  0  0  0  0  0  0  0  0  0  0
    4.4960   24.1490   30.6030 C   0  0  0  0  0  0  0  0  0  0  0  0
    2.3770   24.4830   29.5930 F   0  0  0  0  0  0  0  0  0  0  0  0
    2.5340   20.5010   38.5850 C   0  0  0  0  0  0  0  0  0  0  0  0
    3.4560   21.7620   33.9650 C   0  0  0  0  0  0  0  0  0  0  0  0
    3.8000   23.3370   31.7160 C   0  0  0  0  0  0  0  0  0  0  0  0
    3.5180   18.5060   38.7360 C   0  0  0  0  0  0  0  0  0  0  0  0
    1.4450   23.3330   36.9598 H   0  0  0  0  0  0  0  0  0  0  0  0
    2.2798   23.7837   35.4345 H   0  0  0  0  0  0  0  0  0  0  0  0
    1.0584   22.4667   35.4345 H   0  0  0  0  0  0  0  0  0  0  0  0
    4.1175   17.4110   37.0254 H   0  0  0  0  0  0  0  0  0  0  0  0
    2.3173   17.5443   37.3060 H   0  0  0  0  0  0  0  0  0  0  0  0
    1.1716   19.1924   38.6570 H   0  0  0  0  0  0  0  0  0  0  0  0
    4.0025   25.0135   27.4094 H   0  0  0  0  0  0  0  0  0  0  0  0
    3.8955   23.2015   28.2882 H   0  0  0  0  0  0  0  0  0  0  0  0
    4.3440   20.5742   34.8371 H   0  0  0  0  0  0  0  0  0  0  0  0
    2.6028   20.3512   34.4569 H   0  0  0  0  0  0  0  0  0  0  0  0
    3.9343   20.7302   37.3999 H   0  0  0  0  0  0  0  0  0  0  0  0
    2.3994   18.9438   35.6668 H   0  0  0  0  0  0  0  0  0  0  0  0
    4.1760   19.2505   35.8883 H   0  0  0  0  0  0  0  0  0  0  0  0
    2.1697   16.8173   41.6195 H   0  0  0  0  0  0  0  0  0  0  0  0
    4.7131   25.9207   28.0853 H   0  0  0  0  0  0  0  0  0  0  0  0
    5.7204   25.5914   26.6349 H   0  0  0  0  0  0  0  0  0  0  0  0
    3.9771   25.1582   26.6349 H   0  0  0  0  0  0  0  0  0  0  0  0
    3.6265   22.8817   37.0384 H   0  0  0  0  0  0  0  0  0  0  0  0
    3.4367   23.9345   33.5843 H   0  0  0  0  0  0  0  0  0  0  0  0
    5.0258   22.8996   33.1152 H   0  0  0  0  0  0  0  0  0  0  0  0
    5.2453   23.4795   30.1555 H   0  0  0  0  0  0  0  0  0  0  0  0
    4.8364   25.0428   31.1463 H   0  0  0  0  0  0  0  0  0  0  0  0
    3.3945   20.8540   39.1724 H   0  0  0  0  0  0  0  0  0  0  0  0
    1.6365   21.1136   38.7559 H   0  0  0  0  0  0  0  0  0  0  0  0
    2.3825   21.9989   33.9271 H   0  0  0  0  0  0  0  0  0  0  0  0
    4.4343   21.3163   33.7319 H   0  0  0  0  0  0  0  0  0  0  0  0
    2.7715   23.7237   31.6640 H   0  0  0  0  0  0  0  0  0  0  0  0
    4.3107   22.4040   31.4354 H   0  0  0  0  0  0  0  0  0  0  0  0
    3.7093   17.6557   39.4071 H   0  0  0  0  0  0  0  0  0  0  0  0
    4.3944   19.1531   38.8885 H   0  0  0  0  0  0  0  0  0  0  0  0
  1 17  2  0
  1  4  1  0
  3 26  1  0
  4 19  1  0
  5  7  1  0
  6 16  1  0
  7 14  1  0
  8 15  1  0
  9 15  1  0
  9 23  1  0
 10  9  1  0
 10  3  1  0
 13  5  1  0
 14 11  1  0
 14 22  1  0
 14 21  1  0
 15  2  1  0
 16 12  1  0
 16  1  1  0
 18 24  1  0
 20  4  2  0
 21 25  1  0
 23  6  1  0
 24  8  1  0
 25 18  1  0
 26  6  1  0
  2 27  1  0
  2 28  1  0
  2 29  1  0
  3 30  1  0
  3 31  1  0
  6 32  1  0
  7 33  1  0
  7 34  1  0
  8 35  1  0
  8 36  1  0
  9 37  1  0
 10 38  1  0
 10 39  1  0
 12 40  1  0
 13 41  1  0
 13 42  1  0
 13 43  1  0
 15 44  1  0
 18 45  1  0
 18 46  1  0
 21 47  1  0
 21 48  1  0
 23 49  1  0
 23 50  1  0
 24 51  1  0
 24 52  1  0
 25 53  1  0
 25 54  1  0
 26 55  1  0
 26 56  1  0
M  CHG  1  19  -1
M  END
>  <mol_id>  (12) 
2026-08-24-6tgu-s0-n20-pocketids2-0012

>  <rmsd_to_ref>  (12) 


$$$$

     RDKit          3D

 53 54  0  0  0  0  0  0  0  0999 V2000
    4.5770   23.2030   31.9950 C   0  0  0  0  0  0  0  0  0  0  0  0
    2.6070   19.1320   38.9910 N   0  0  0  0  0  0  0  0  0  0  0  0
    1.3000   20.3360   41.2430 C   0  0  0  0  0  0  0  0  0  0  0  0
    4.6240   23.4390   33.7200 S   0  0  0  0  0  0  0  0  0  0  0  0
    4.3030   16.6830   36.6570 C   0  0  0  0  0  0  0  0  0  0  0  0
    3.3430   24.3000   29.9910 C   0  0  0  0  0  0  0  0  0  0  0  0
    1.6640   18.8360   41.3430 C   0  0  0  0  0  0  0  0  0  0  0  0
    3.1060   16.4070   38.8390 C   0  0  0  0  0  0  0  0  0  0  0  0
    2.2250   18.3430   40.0260 C   0  0  0  0  0  0  0  0  0  0  0  0
    3.0240   23.1910   34.1940 C   0  0  0  0  0  0  0  0  0  0  0  0
    4.1640   21.2640   35.4950 C   0  0  0  0  0  0  0  0  0  0  0  0
    0.4510   18.0300   41.8190 C   0  0  0  0  0  0  0  0  0  0  0  0
    0.1620   21.0190   42.0510 C   0  0  0  0  0  0  0  0  0  0  0  0
   -0.4390   20.0510   43.0840 C   0  0  0  0  0  0  0  0  0  0  0  0
    3.6040   19.4570   36.9660 C   0  0  0  0  0  0  0  0  0  0  0  0
    3.9640   20.4770   36.6710 C   0  0  0  0  0  0  0  0  0  0  0  0
    3.5800   17.2520   37.7920 C   0  0  0  0  0  0  0  0  0  0  0  0
    2.4470   16.9160   39.9010 C   0  0  0  0  0  0  0  0  0  0  0  0
    2.9350   22.0630   35.1660 C   0  0  0  0  0  0  0  0  0  0  0  0
   -0.8120   18.7810   42.3410 C   0  0  0  0  0  0  0  0  0  0  0  0
    3.2670   23.7740   31.4400 C   0  0  0  0  0  0  0  0  0  0  0  0
    3.2840   18.5870   37.9190 C   0  0  0  0  0  0  0  0  0  0  0  0
    5.4292   23.7203   31.5302 H   0  0  0  0  0  0  0  0  0  0  0  0
    4.6350   22.1281   31.7689 H   0  0  0  0  0  0  0  0  0  0  0  0
    2.2183   20.8818   41.5054 H   0  0  0  0  0  0  0  0  0  0  0  0
    0.8828   20.3781   40.2261 H   0  0  0  0  0  0  0  0  0  0  0  0
    5.1175   16.0420   37.0252 H   0  0  0  0  0  0  0  0  0  0  0  0
    3.6124   16.0835   36.0456 H   0  0  0  0  0  0  0  0  0  0  0  0
    4.7233   17.4951   36.0456 H   0  0  0  0  0  0  0  0  0  0  0  0
    3.5003   25.3886   30.0039 H   0  0  0  0  0  0  0  0  0  0  0  0
    4.1804   23.8147   29.4682 H   0  0  0  0  0  0  0  0  0  0  0  0
    2.4025   24.0716   29.4682 H   0  0  0  0  0  0  0  0  0  0  0  0
    2.4547   18.6938   42.0944 H   0  0  0  0  0  0  0  0  0  0  0  0
    3.2805   15.3226   38.7797 H   0  0  0  0  0  0  0  0  0  0  0  0
    2.6406   24.1072   34.6668 H   0  0  0  0  0  0  0  0  0  0  0  0
    2.4246   22.9428   33.3057 H   0  0  0  0  0  0  0  0  0  0  0  0
    5.0062   21.9517   35.6614 H   0  0  0  0  0  0  0  0  0  0  0  0
    4.3783   20.5885   34.6537 H   0  0  0  0  0  0  0  0  0  0  0  0
    0.1265   17.4090   40.9710 H   0  0  0  0  0  0  0  0  0  0  0  0
    0.8243   17.5020   42.7089 H   0  0  0  0  0  0  0  0  0  0  0  0
    0.5694   21.8963   42.5748 H   0  0  0  0  0  0  0  0  0  0  0  0
   -0.6313   21.3214   41.3515 H   0  0  0  0  0  0  0  0  0  0  0  0
    0.3010   19.8269   43.8664 H   0  0  0  0  0  0  0  0  0  0  0  0
   -1.3211   20.4943   43.5692 H   0  0  0  0  0  0  0  0  0  0  0  0
    3.4361   18.9238   36.0186 H   0  0  0  0  0  0  0  0  0  0  0  0
    4.2531   21.0500   37.5643 H   0  0  0  0  0  0  0  0  0  0  0  0
    2.0731   16.2385   40.6828 H   0  0  0  0  0  0  0  0  0  0  0  0
    2.5669   22.4860   36.1124 H   0  0  0  0  0  0  0  0  0  0  0  0
    2.2865   21.3360   34.6553 H   0  0  0  0  0  0  0  0  0  0  0  0
   -1.4510   19.0428   41.4848 H   0  0  0  0  0  0  0  0  0  0  0  0
   -1.3433   18.1172   43.0389 H   0  0  0  0  0  0  0  0  0  0  0  0
    2.9564   24.6063   32.0886 H   0  0  0  0  0  0  0  0  0  0  0  0
    2.5512   22.9389   31.4252 H   0  0  0  0  0  0  0  0  0  0  0  0
  1  4  1  0
  2  9  2  0
  3  7  1  0
  3 13  1  0
  4 10  1  0
  5 17  1  0
  6 21  1  0
  7 12  1  0
  8 18  2  0
  9  7  1  0
 10 19  1  0
 11 16  1  0
 12 20  1  0
 13 14  1  0
 15 22  1  0
 16 15  2  3
 17 22  2  0
 17  8  1  0
 18  9  1  0
 19 11  1  0
 20 14  1  0
 21  1  1  0
 22  2  1  0
  1 23  1  0
  1 24  1  0
  3 25  1  0
  3 26  1  0
  5 27  1  0
  5 28  1  0
  5 29  1  0
  6 30  1  0
  6 31  1  0
  6 32  1  0
  7 33  1  0
  8 34  1  0
 10 35  1  0
 10 36  1  0
 11 37  1  0
 11 38  1  0
 12 39  1  0
 12 40  1  0
 13 41  1  0
 13 42  1  0
 14 43  1  0
 14 44  1  0
 15 45  1  0
 16 46  1  0
 18 47  1  0
 19 48  1  0
 19 49  1  0
 20 50  1  0
 20 51  1  0
 21 52  1  0
 21 53  1  0
M  END
>  <mol_id>  (13) 
2026-08-24-6tgu-s0-n20-pocketids2-0013

>  <rmsd_to_ref>  (13) 


$$$$

     RDKit          3D

 28 30  0  0  0  0  0  0  0  0999 V2000
    4.3660   22.3170   34.4390 C   0  0  0  0  0  0  0  0  0  0  0  0
    4.5380   23.4850   29.7480 C   0  0  0  0  0  0  0  0  0  0  0  0
    3.2560   20.1580   36.9980 C   0  0  0  0  0  0  0  0  0  0  0  0
    2.8620   18.8060   38.7840 C   0  0  0  0  0  0  0  0  0  0  0  0
    3.4400   21.6270   35.2360 C   0  0  0  0  0  0  0  0  0  0  0  0
    2.7250   17.4500   39.8410 Cl  0  0  0  0  0  0  0  0  0  0  0  0
    2.4220   20.0520   39.1980 C   0  0  0  0  0  0  0  0  0  0  0  0
    3.8200   25.4300   31.3660 C   0  0  0  0  0  0  0  0  0  0  0  0
    3.3900   18.9010   37.5660 C   0  0  0  0  0  0  0  0  0  0  0  0
    1.7390   20.4680   40.7680 Cl  0  0  0  0  0  0  0  0  0  0  0  0
    3.9850   22.9230   33.1920 C   0  0  0  0  0  0  0  0  0  0  0  0
    4.6430   24.1720   31.0460 C   0  0  0  0  0  0  0  0  0  0  0  0
    3.6640   24.5730   30.1810 C   0  0  0  0  0  0  0  0  0  0  0  0
    2.4910   21.2810   37.9600 S   0  0  0  0  0  0  0  0  0  0  0  0
    2.2820   22.0870   35.3490 O   0  0  0  0  0  0  0  0  0  0  0  0
    3.8550   20.5510   35.8440 N   0  0  0  0  0  0  0  0  0  0  0  0
    4.3750   23.3640   32.2770 N   0  0  0  0  0  4  0  0  0  0  0  0
    5.4099   22.3963   34.7767 H   0  0  0  0  0  0  0  0  0  0  0  0
    5.2916   23.6479   28.9634 H   0  0  0  0  0  0  0  0  0  0  0  0
    4.4176   22.4504   29.3943 H   0  0  0  0  0  0  0  0  0  0  0  0
    3.0695   25.4258   32.1702 H   0  0  0  0  0  0  0  0  0  0  0  0
    4.0112   26.4920   31.5798 H   0  0  0  0  0  0  0  0  0  0  0  0
    3.8861   18.0609   37.0580 H   0  0  0  0  0  0  0  0  0  0  0  0
    2.8863   22.9514   33.1457 H   0  0  0  0  0  0  0  0  0  0  0  0
    2.8323   24.8396   29.5122 H   0  0  0  0  0  0  0  0  0  0  0  0
    4.6329   20.0019   35.4514 H   0  0  0  0  0  0  0  0  0  0  0  0
    4.3953   22.4658   31.7732 H   0  0  0  0  0  0  0  0  0  0  0  0
    4.5599   24.2182   32.8221 H   0  0  0  0  0  0  0  0  0  0  0  0
  1  5  1  0
  2 12  1  0
  3  9  2  0
  3 14  1  0
  4  7  2  0
  4  6  1  0
  5 15  2  0
  5 16  1  0
  7 10  1  0
  9  4  1  0
 11  1  2  3
 12  8  1  0
 12 17  1  0
 13  2  1  0
 13 12  1  0
 13  8  1  0
 14  7  1  0
 16  3  1  0
 17 11  1  0
  1 18  1  0
  2 19  1  0
  2 20  1  0
  8 21  1  0
  8 22  1  0
  9 23  1  0
 11 24  1  0
 13 25  1  0
 16 26  1  0
 17 27  1  0
 17 28  1  0
M  CHG  1  17   1
M  END
>  <mol_id>  (14) 
2026-08-24-6tgu-s0-n20-pocketids2-0014

>  <rmsd_to_ref>  (14) 


$$$$

     RDKit          3D

 62 63  0  0  0  0  0  0  0  0999 V2000
    2.4220   23.0430   34.6520 C   0  0  0  0  0  0  0  0  0  0  0  0
    0.9270   19.7360   41.7160 C   0  0  0  0  0  0  0  0  0  0  0  0
    2.2640   15.0810   39.2430 N   0  0  0  0  0  4  0  0  0  0  0  0
    2.5060   17.8810   39.2260 N   0  0  0  0  0  0  0  0  0  0  0  0
    3.8960   14.8390   37.4860 C   0  0  0  0  0  0  0  0  0  0  0  0
    1.3500   21.7620   41.5160 C   0  0  0  0  0  0  0  0  0  0  0  0
    2.9230   19.2280   39.1370 N   0  0  0  0  0  0  0  0  0  0  0  0
    3.8250   25.5370   31.0140 O   0  0  0  0  0  0  0  0  0  0  0  0
    3.6260   22.5240   34.0150 N   0  0  0  0  0  4  0  0  0  0  0  0
    3.0680   17.1060   38.3710 C   0  0  0  0  0  0  0  0  0  0  0  0
    3.3850   19.2990   37.8040 C   0  0  0  0  0  0  0  0  0  0  0  0
    3.0640   21.0370   36.3070 O   0  0  0  0  0  0  0  0  0  0  0  0
    2.0970   26.8140   32.2020 C   0  0  0  0  0  0  0  0  0  0  0  0
    1.5150   20.5310   40.5670 C   0  0  0  0  0  0  0  0  0  0  0  0
    3.1490   15.6840   38.3750 C   0  0  0  0  0  0  0  0  0  0  0  0
    3.9730   20.3090   36.7930 C   0  0  0  0  0  0  0  0  0  0  0  0
    2.8420   14.1730   40.2860 C   0  0  0  0  0  0  0  0  0  0  0  0
    2.2510   24.4300   34.2180 C   0  0  0  0  0  0  0  0  0  0  0  0
    3.0580   25.5670   31.9820 C   0  0  0  0  0  0  0  0  0  0  0  0
    3.0770   24.4810   33.0290 C   0  0  0  0  0  0  0  0  0  0  0  0
    0.2740   20.8870   42.3100 C   0  0  0  0  0  0  0  0  0  0  0  0
    2.9350   20.2980   40.2390 C   0  0  0  0  0  0  0  0  0  0  0  0
    4.0070   23.4840   33.0330 C   0  0  0  0  0  0  0  0  0  0  0  0
    3.5410   17.9220   37.4370 C   0  0  0  0  0  0  0  0  0  0  0  0
    1.5501   22.4452   34.3480 H   0  0  0  0  0  0  0  0  0  0  0  0
    2.5126   22.9906   35.7470 H   0  0  0  0  0  0  0  0  0  0  0  0
    1.6908   19.2868   42.3678 H   0  0  0  0  0  0  0  0  0  0  0  0
    0.3140   18.8538   41.4793 H   0  0  0  0  0  0  0  0  0  0  0  0
    1.6055   14.5255   38.6784 H   0  0  0  0  0  0  0  0  0  0  0  0
    1.8385   15.8563   39.7709 H   0  0  0  0  0  0  0  0  0  0  0  0
    2.7256   17.5351   40.1710 H   0  0  0  0  0  0  0  0  0  0  0  0
    4.5119   14.1423   38.0735 H   0  0  0  0  0  0  0  0  0  0  0  0
    3.2012   14.2689   36.8518 H   0  0  0  0  0  0  0  0  0  0  0  0
    4.5470   15.4586   36.8518 H   0  0  0  0  0  0  0  0  0  0  0  0
    0.9467   22.6654   41.0351 H   0  0  0  0  0  0  0  0  0  0  0  0
    2.2074   22.2335   42.0184 H   0  0  0  0  0  0  0  0  0  0  0  0
    4.3763   22.4095   34.7113 H   0  0  0  0  0  0  0  0  0  0  0  0
    3.4555   21.6017   33.5893 H   0  0  0  0  0  0  0  0  0  0  0  0
    2.1277   17.0508   37.8029 H   0  0  0  0  0  0  0  0  0  0  0  0
    2.9317   20.2969   37.7106 H   0  0  0  0  0  0  0  0  0  0  0  0
    2.5457   21.4521   37.0413 H   0  0  0  0  0  0  0  0  0  0  0  0
    1.9630   26.9879   33.2799 H   0  0  0  0  0  0  0  0  0  0  0  0
    2.5429   27.7067   31.7392 H   0  0  0  0  0  0  0  0  0  0  0  0
    1.1201   26.6102   31.7392 H   0  0  0  0  0  0  0  0  0  0  0  0
    1.0991   20.4376   39.5529 H   0  0  0  0  0  0  0  0  0  0  0  0
    4.2352   15.8509   38.3275 H   0  0  0  0  0  0  0  0  0  0  0  0
    4.7093   20.9454   37.3057 H   0  0  0  0  0  0  0  0  0  0  0  0
    4.4528   19.7509   35.9755 H   0  0  0  0  0  0  0  0  0  0  0  0
    2.5958   14.5597   41.2859 H   0  0  0  0  0  0  0  0  0  0  0  0
    2.4195   13.1642   40.1688 H   0  0  0  0  0  0  0  0  0  0  0  0
    3.9348   14.1288   40.1688 H   0  0  0  0  0  0  0  0  0  0  0  0
    1.1988   24.6477   33.9826 H   0  0  0  0  0  0  0  0  0  0  0  0
    2.5301   25.1701   34.9824 H   0  0  0  0  0  0  0  0  0  0  0  0
    2.4180   23.8638   32.4007 H   0  0  0  0  0  0  0  0  0  0  0  0
   -0.7702   21.0406   42.0000 H   0  0  0  0  0  0  0  0  0  0  0  0
    0.1150   20.9841   43.3941 H   0  0  0  0  0  0  0  0  0  0  0  0
    3.4807   19.9356   41.1227 H   0  0  0  0  0  0  0  0  0  0  0  0
    3.4382   21.2198   39.9118 H   0  0  0  0  0  0  0  0  0  0  0  0
    4.0466   23.0077   32.0423 H   0  0  0  0  0  0  0  0  0  0  0  0
    5.0012   23.8926   33.2666 H   0  0  0  0  0  0  0  0  0  0  0  0
    2.9984   17.7403   36.4975 H   0  0  0  0  0  0  0  0  0  0  0  0
    4.6157   17.7195   37.3186 H   0  0  0  0  0  0  0  0  0  0  0  0
  2 21  1  0
  3 17  1  0
  6 21  1  0
  7  4  1  0
  7 22  1  0
  8 19  2  0
  9  1  1  0
 10 15  1  0
 10  4  1  0
 11 16  1  0
 11  7  1  0
 12 16  1  0
 14  6  1  0
 14  2  1  0
 15  5  1  0
 15  3  1  0
 18  1  1  0
 19 13  1  0
 20 19  1  0
 20 23  1  0
 20 18  1  0
 22 14  1  0
 23  9  1  0
 24 11  1  0
 24 10  1  0
  1 25  1  0
  1 26  1  0
  2 27  1  0
  2 28  1  0
  3 29  1  0
  3 30  1  0
  4 31  1  0
  5 32  1  0
  5 33  1  0
  5 34  1  0
  6 35  1  0
  6 36  1  0
  9 37  1  0
  9 38  1  0
 10 39  1  0
 11 40  1  0
 12 41  1  0
 13 42  1  0
 13 43  1  0
 13 44  1  0
 14 45  1  0
 15 46  1  0
 16 47  1  0
 16 48  1  0
 17 49  1  0
 17 50  1  0
 17 51  1  0
 18 52  1  0
 18 53  1  0
 20 54  1  0
 21 55  1  0
 21 56  1  0
 22 57  1  0
 22 58  1  0
 23 59  1  0
 23 60  1  0
 24 61  1  0
 24 62  1  0
M  CHG  2   3   1   9   1
M  END
>  <mol_id>  (15) 
2026-08-24-6tgu-s0-n20-pocketids2-0015

>  <rmsd_to_ref>  (15) 


$$$$

     RDKit          3D

 58 59  0  0  0  0  0  0  0  0999 V2000
    2.8940   14.3440   38.7680 O   0  0  0  0  0  0  0  0  0  0  0  0
    3.5420   18.8840   37.8000 O   0  0  0  0  0  0  0  0  0  0  0  0
    2.6490   15.6540   39.1120 C   0  0  0  0  0  0  0  0  0  0  0  0
    1.8520   21.0790   38.9480 F   0  0  0  0  0  0  0  0  0  0  0  0
    3.8910   23.9400   32.8730 C   0  0  0  0  0  0  0  0  0  0  0  0
    2.5500   25.3570   31.4530 C   0  0  0  0  0  0  0  0  0  0  0  0
    3.0200   16.7140   38.3140 C   0  0  0  0  0  0  0  0  0  0  0  0
    3.2250   25.1830   32.6430 O   0  0  0  0  0  0  0  0  0  0  0  0
    3.2170   21.9630   34.3650 C   0  0  0  0  0  0  0  0  0  0  0  0
    3.6830   16.2830   37.0980 C   0  0  0  0  0  0  0  0  0  0  0  0
    1.3830   24.7830   29.0010 C   0  0  0  0  0  0  0  0  0  0  0  0
    4.2130   21.1640   35.1830 C   0  0  0  0  0  0  0  0  0  0  0  0
    1.6300   16.8950   41.0930 C   0  0  0  0  0  0  0  0  0  0  0  0
    2.2130   20.2590   40.0300 C   0  0  0  0  0  0  0  0  0  0  0  0
    3.3500   20.8290   40.5270 F   0  0  0  0  0  0  0  0  0  0  0  0
    4.0800   20.9710   33.7040 C   0  0  0  0  0  0  0  0  0  0  0  0
    3.2800   23.3860   34.1470 C   0  0  0  0  0  0  0  0  0  0  0  0
    3.3180   24.6570   30.3420 C   0  0  0  0  0  0  0  0  0  0  0  0
    2.9950   18.1430   38.6740 C   0  0  0  0  0  0  0  0  0  0  0  0
    1.0210   27.2650   32.1430 C   0  0  0  0  0  0  0  0  0  0  0  0
    2.0490   18.2130   40.9870 N   0  0  0  0  0  4  0  0  0  0  0  0
    1.1920   20.4230   41.0690 F   0  0  0  0  0  0  0  0  0  0  0  0
    2.0190   15.8310   40.4080 C   0  0  0  0  0  0  0  0  0  0  0  0
    1.4300   26.1440   31.1850 C   0  0  0  0  0  0  0  0  0  0  0  0
    2.4320   23.8630   29.4360 C   0  0  0  0  0  0  0  0  0  0  0  0
    0.6760   25.7610   29.8850 C   0  0  0  0  0  0  0  0  0  0  0  0
    2.3600   18.7860   39.9070 C   0  0  0  0  0  0  0  0  0  0  0  0
    3.3214   14.1316   37.9006 H   0  0  0  0  0  0  0  0  0  0  0  0
    4.9715   24.1003   33.0023 H   0  0  0  0  0  0  0  0  0  0  0  0
    3.7702   23.2480   32.0265 H   0  0  0  0  0  0  0  0  0  0  0  0
    3.1190   26.2795   31.2651 H   0  0  0  0  0  0  0  0  0  0  0  0
    2.0661   17.2555   38.3969 H   0  0  0  0  0  0  0  0  0  0  0  0
    2.1330   22.1428   34.4164 H   0  0  0  0  0  0  0  0  0  0  0  0
    4.5795   15.7002   37.3560 H   0  0  0  0  0  0  0  0  0  0  0  0
    2.9966   15.6580   36.5079 H   0  0  0  0  0  0  0  0  0  0  0  0
    3.9756   17.1640   36.5079 H   0  0  0  0  0  0  0  0  0  0  0  0
    1.8361   25.3862   28.2005 H   0  0  0  0  0  0  0  0  0  0  0  0
    0.5676   24.0722   28.8014 H   0  0  0  0  0  0  0  0  0  0  0  0
    5.1060   21.6524   35.6001 H   0  0  0  0  0  0  0  0  0  0  0  0
    4.1619   20.5141   36.0690 H   0  0  0  0  0  0  0  0  0  0  0  0
    1.8301   16.6304   42.1418 H   0  0  0  0  0  0  0  0  0  0  0  0
    0.6375   17.0150   40.6342 H   0  0  0  0  0  0  0  0  0  0  0  0
    3.6421   20.0413   33.3119 H   0  0  0  0  0  0  0  0  0  0  0  0
    4.7818   21.0041   32.8576 H   0  0  0  0  0  0  0  0  0  0  0  0
    3.8561   23.8085   34.9834 H   0  0  0  0  0  0  0  0  0  0  0  0
    2.2213   23.6719   34.0604 H   0  0  0  0  0  0  0  0  0  0  0  0
    3.8416   25.4173   29.7437 H   0  0  0  0  0  0  0  0  0  0  0  0
    4.0204   23.9557   30.8161 H   0  0  0  0  0  0  0  0  0  0  0  0
    1.1455   26.9237   33.1813 H   0  0  0  0  0  0  0  0  0  0  0  0
    1.6555   28.1464   31.9682 H   0  0  0  0  0  0  0  0  0  0  0  0
   -0.0320   27.5307   31.9682 H   0  0  0  0  0  0  0  0  0  0  0  0
    1.2866   18.7773   41.3884 H   0  0  0  0  0  0  0  0  0  0  0  0
    2.9723   18.1528   41.4395 H   0  0  0  0  0  0  0  0  0  0  0  0
    1.8241   14.8826   40.9300 H   0  0  0  0  0  0  0  0  0  0  0  0
    1.9946   23.0113   29.9775 H   0  0  0  0  0  0  0  0  0  0  0  0
    2.9898   23.4511   28.5821 H   0  0  0  0  0  0  0  0  0  0  0  0
   -0.3092   26.1790   29.6309 H   0  0  0  0  0  0  0  0  0  0  0  0
    1.9551   18.1092   39.1402 H   0  0  0  0  0  0  0  0  0  0  0  0
  1  3  1  0
  2 19  2  0
  3 23  2  0
  4 14  1  0
  5 17  1  0
  6  8  1  0
  7 10  1  0
  7 19  1  0
  7  3  1  0
  8  5  1  0
  9 12  1  0
 11 25  1  0
 11 26  1  0
 14 15  1  0
 14 22  1  0
 16  9  1  0
 16 12  1  0
 17  9  1  0
 18  6  1  0
 19 27  1  0
 21 13  1  0
 23 13  1  0
 24  6  1  0
 24 20  1  0
 25 18  1  0
 26 24  2  0
 27 14  1  0
 27 21  1  0
  1 28  1  0
  5 29  1  0
  5 30  1  0
  6 31  1  0
  7 32  1  0
  9 33  1  0
 10 34  1  0
 10 35  1  0
 10 36  1  0
 11 37  1  0
 11 38  1  0
 12 39  1  0
 12 40  1  0
 13 41  1  0
 13 42  1  0
 16 43  1  0
 16 44  1  0
 17 45  1  0
 17 46  1  0
 18 47  1  0
 18 48  1  0
 20 49  1  0
 20 50  1  0
 20 51  1  0
 21 52  1  0
 21 53  1  0
 23 54  1  0
 25 55  1  0
 25 56  1  0
 26 57  1  0
 27 58  1  0
M  CHG  1  21   1
M  END
>  <mol_id>  (16) 
2026-08-24-6tgu-s0-n20-pocketids2-0016

>  <rmsd_to_ref>  (16) 


$$$$

     RDKit          3D

 55 56  0  0  0  0  0  0  0  0999 V2000
   -0.0150   21.0300   42.0600 C   0  0  0  0  0  0  0  0  0  0  0  0
    1.7690   25.6930   33.6960 C   0  0  0  0  0  0  0  0  0  0  0  0
    1.2590   27.7680   31.8330 C   0  0  0  0  0  0  0  0  0  0  0  0
    3.9760   13.9860   35.3570 P   0  0  0  0  0  5  0  0  0  0  0  0
    3.8400   17.8990   38.7010 C   0  0  0  0  0  0  0  0  0  0  0  0
    2.9770   20.3760   39.8560 C   0  0  0  0  0  0  0  0  0  0  0  0
    2.5100   14.0660   34.8000 O   0  0  0  0  0  0  0  0  0  0  0  0
    1.7310   20.1050   40.6260 C   0  0  0  0  0  0  0  0  0  0  0  0
    2.7810   23.4170   34.5110 N   0  0  0  0  0  0  0  0  0  0  0  0
    4.1380   21.3050   34.6050 O   0  0  0  0  0  0  0  0  0  0  0  0
    1.4350   26.4680   31.3330 C   0  0  0  0  0  0  0  0  0  0  0  0
    1.1890   21.1600   41.2910 C   0  0  0  0  0  0  0  0  0  0  0  0
    1.1380   18.8500   40.7650 C   0  0  0  0  0  0  0  0  0  0  0  0
    3.3860   21.1990   35.4660 C   0  0  0  0  0  0  0  0  0  0  0  0
    2.6690   22.3930   35.2700 N   0  0  0  0  0  0  0  0  0  0  0  0
    3.0500   19.8760   37.7720 C   0  0  0  0  0  0  0  0  0  0  0  0
    4.1680   12.6060   35.8790 O   0  0  0  0  0  0  0  0  0  0  0  0
    5.1190   14.2440   34.1860 O   0  0  0  0  0  0  0  0  0  0  0  0
    4.1520   14.9350   36.7060 N   0  0  0  0  0  0  0  0  0  0  0  0
    3.3390   19.2580   38.9820 C   0  0  0  0  0  0  0  0  0  0  0  0
    3.8420   17.4780   37.3240 C   0  0  0  0  0  0  0  0  0  0  0  0
   -0.6840   19.7750   42.0550 C   0  0  0  0  0  0  0  0  0  0  0  0
    1.7330   25.3890   32.2800 C   0  0  0  0  0  0  0  0  0  0  0  0
   -0.0530   18.6850   41.4660 C   0  0  0  0  0  0  0  0  0  0  0  0
    4.6160   16.1950   36.9480 C   0  0  0  0  0  0  0  0  0  0  0  0
    3.2760   19.9880   36.3460 C   0  0  0  0  0  0  0  0  0  0  0  0
    1.3160   27.9900   33.2190 C   0  0  0  0  0  0  0  0  0  0  0  0
    2.2070   24.6410   34.6670 C   0  0  0  0  0  0  0  0  0  0  0  0
    1.5370   27.0310   34.1280 C   0  0  0  0  0  0  0  0  0  0  0  0
   -0.4102   21.8783   42.6381 H   0  0  0  0  0  0  0  0  0  0  0  0
    1.0778   28.6066   31.1446 H   0  0  0  0  0  0  0  0  0  0  0  0
    4.1953   17.2384   39.5056 H   0  0  0  0  0  0  0  0  0  0  0  0
    2.8243   21.2736   39.2388 H   0  0  0  0  0  0  0  0  0  0  0  0
    3.7954   20.5213   40.5765 H   0  0  0  0  0  0  0  0  0  0  0  0
    1.8713   14.1009   35.5556 H   0  0  0  0  0  0  0  0  0  0  0  0
    1.3512   26.2636   30.2554 H   0  0  0  0  0  0  0  0  0  0  0  0
    1.6871   22.1393   41.2379 H   0  0  0  0  0  0  0  0  0  0  0  0
    1.6218   17.9725   40.3111 H   0  0  0  0  0  0  0  0  0  0  0  0
    1.9616   19.7174   37.7579 H   0  0  0  0  0  0  0  0  0  0  0  0
    3.8911   20.5642   37.9421 H   0  0  0  0  0  0  0  0  0  0  0  0
    4.1655   12.6243   36.8688 H   0  0  0  0  0  0  0  0  0  0  0  0
    3.1954   14.9685   37.0863 H   0  0  0  0  0  0  0  0  0  0  0  0
    2.7934   17.3229   37.0301 H   0  0  0  0  0  0  0  0  0  0  0  0
    4.3783   18.2809   36.7971 H   0  0  0  0  0  0  0  0  0  0  0  0
   -1.6807   19.6688   42.5081 H   0  0  0  0  0  0  0  0  0  0  0  0
    1.9258   24.3670   31.9217 H   0  0  0  0  0  0  0  0  0  0  0  0
   -0.4990   17.6834   41.5548 H   0  0  0  0  0  0  0  0  0  0  0  0
    5.3359   16.0640   37.7694 H   0  0  0  0  0  0  0  0  0  0  0  0
    4.8547   16.4661   35.9090 H   0  0  0  0  0  0  0  0  0  0  0  0
    2.4524   19.4105   35.9008 H   0  0  0  0  0  0  0  0  0  0  0  0
    4.3442   19.7253   36.3541 H   0  0  0  0  0  0  0  0  0  0  0  0
    1.1696   29.0182   33.5815 H   0  0  0  0  0  0  0  0  0  0  0  0
    2.9186   25.1741   35.3147 H   0  0  0  0  0  0  0  0  0  0  0  0
    1.1978   24.2666   34.8938 H   0  0  0  0  0  0  0  0  0  0  0  0
    1.5394   27.2748   35.2006 H   0  0  0  0  0  0  0  0  0  0  0  0
  2 29  2  0
  2 28  1  0
  3 27  2  0
  4 17  1  0
  4 19  1  0
  5 20  2  3
  6  8  1  0
  7  4  1  0
  8 13  2  0
  8 12  1  0
  9 28  1  0
  9 15  2  3
 10 14  2  0
 11  3  1  0
 11 23  2  0
 12  1  2  0
 13 24  1  0
 14 26  1  0
 15 14  1  0
 16 20  1  0
 18  4  2  0
 19 25  1  0
 20  6  1  0
 21  5  1  0
 22  1  1  0
 23  2  1  0
 24 22  2  0
 25 21  1  0
 26 16  1  0
 27 29  1  0
  1 30  1  0
  3 31  1  0
  5 32  1  0
  6 33  1  0
  6 34  1  0
  7 35  1  0
 11 36  1  0
 12 37  1  0
 13 38  1  0
 16 39  1  0
 16 40  1  0
 17 41  1  0
 19 42  1  0
 21 43  1  0
 21 44  1  0
 22 45  1  0
 23 46  1  0
 24 47  1  0
 25 48  1  0
 25 49  1  0
 26 50  1  0
 26 51  1  0
 27 52  1  0
 28 53  1  0
 28 54  1  0
 29 55  1  0
M  END
>  <mol_id>  (17) 
2026-08-24-6tgu-s0-n20-pocketids2-0017

>  <rmsd_to_ref>  (17) 


$$$$

     RDKit          3D

 31 32  0  0  0  0  0  0  0  0999 V2000
    3.2920   19.8710   38.7080 C   0  0  0  0  0  0  0  0  0  0  0  0
    4.6170   25.0560   31.3460 O   0  0  0  0  0  0  0  0  0  0  0  0
    2.3220   21.2580   35.8070 S   0  0  0  0  0  0  0  0  0  0  0  0
    2.8070   21.6810   34.2560 C   0  0  0  0  0  0  0  0  0  0  0  0
    3.3650   17.7460   37.4230 C   0  0  0  0  0  0  0  0  0  0  0  0
    1.9560   19.6070   36.3510 S   0  0  0  0  0  0  0  0  0  0  0  0
    2.5790   23.1930   33.9890 C   0  0  0  0  0  0  0  0  0  0  0  0
    4.0860   19.3310   39.6750 C   0  0  0  0  0  0  0  0  0  0  0  0
    2.9090   19.0860   37.6050 C   0  0  0  0  0  0  0  0  0  0  0  0
    4.5140   17.9600   39.6010 C   0  0  0  0  0  0  0  0  0  0  0  0
    3.8370   23.5940   33.1110 C   0  0  0  0  0  0  0  0  0  0  0  0
    4.1970   17.1820   38.4910 C   0  0  0  0  0  0  0  0  0  0  0  0
    3.5550   24.1790   31.7650 C   0  0  0  0  0  0  0  0  0  0  0  0
    4.3860   20.1260   40.7480 N   0  0  0  0  0  0  0  0  0  0  0  0
    3.8690   21.1140   33.2060 C   0  0  0  0  0  0  0  0  0  0  0  0
    3.7440   22.4880   32.1640 O   0  0  0  0  0  0  0  0  0  0  0  0
    2.9526   20.9142   38.7893 H   0  0  0  0  0  0  0  0  0  0  0  0
    5.0699   25.4300   32.1429 H   0  0  0  0  0  0  0  0  0  0  0  0
    2.2381   20.7691   34.0218 H   0  0  0  0  0  0  0  0  0  0  0  0
    3.1053   17.1648   36.5259 H   0  0  0  0  0  0  0  0  0  0  0  0
    1.6423   23.3601   33.4371 H   0  0  0  0  0  0  0  0  0  0  0  0
    2.4865   23.7867   34.9104 H   0  0  0  0  0  0  0  0  0  0  0  0
    5.0954   17.5235   40.4265 H   0  0  0  0  0  0  0  0  0  0  0  0
    4.5690   24.0276   33.8082 H   0  0  0  0  0  0  0  0  0  0  0  0
    4.5686   16.1495   38.4153 H   0  0  0  0  0  0  0  0  0  0  0  0
    2.6157   24.7495   31.8113 H   0  0  0  0  0  0  0  0  0  0  0  0
    3.4742   23.3575   31.0380 H   0  0  0  0  0  0  0  0  0  0  0  0
    4.9825   19.7646   41.5059 H   0  0  0  0  0  0  0  0  0  0  0  0
    4.0152   21.0857   40.7976 H   0  0  0  0  0  0  0  0  0  0  0  0
    4.8742   20.9832   33.6331 H   0  0  0  0  0  0  0  0  0  0  0  0
    3.6978   20.1157   32.7771 H   0  0  0  0  0  0  0  0  0  0  0  0
  1  8  2  0
  2 13  1  0
  3  6  1  0
  4  3  1  0
  5  9  2  0
  5 12  1  0
  6  9  1  0
  7  4  1  0
  8 14  1  0
  9  1  1  0
 10  8  1  0
 11 13  1  0
 11  7  1  0
 12 10  2  0
 15  4  1  0
 16 11  1  0
 16 15  1  0
  1 17  1  0
  2 18  1  0
  4 19  1  0
  5 20  1  0
  7 21  1  0
  7 22  1  0
 10 23  1  0
 11 24  1  0
 12 25  1  0
 13 26  1  0
 13 27  1  0
 14 28  1  0
 14 29  1  0
 15 30  1  0
 15 31  1  0
M  END
>  <mol_id>  (18) 
2026-08-24-6tgu-s0-n20-pocketids2-0018

>  <rmsd_to_ref>  (18) 


$$$$

     RDKit          3D

 56 57  0  0  0  0  0  0  0  0999 V2000
    2.5380   21.7960   35.4010 C   0  0  0  0  0  0  0  0  0  0  0  0
    2.9380   15.9260   37.5490 C   0  0  0  0  0  0  0  0  0  0  0  0
    3.7170   14.7220   36.8270 C   0  0  0  0  0  0  0  0  0  0  0  0
    3.2820   22.1280   34.6080 C   0  0  0  0  0  0  0  0  0  0  0  0
    2.7880   25.8440   31.7360 C   0  0  0  0  0  0  0  0  0  0  0  0
    3.6750   24.7510   31.7450 C   0  0  0  0  0  0  0  0  0  0  0  0
    3.3630   20.6220   36.8370 C   0  0  0  0  0  0  0  0  0  0  0  0
    5.1910   15.0420   37.0270 N   0  0  0  0  0  4  0  0  0  0  0  0
    2.6760   17.8250   39.6970 C   0  0  0  0  0  0  0  0  0  0  0  0
    2.4340   25.0460   33.9360 C   0  0  0  0  0  0  0  0  0  0  0  0
    2.2270   18.8510   40.5990 C   0  0  0  0  0  0  0  0  0  0  0  0
    1.6870   21.0130   41.4070 O   0  0  0  0  0  0  0  0  0  0  0  0
    2.2440   20.8910   38.1230 C   0  0  0  0  0  0  0  0  0  0  0  0
    2.8710   23.7260   33.8650 C   0  0  0  0  0  0  0  0  0  0  0  0
    1.9210   20.2430   40.4320 C   0  0  0  0  0  0  0  0  0  0  0  0
    3.0820   18.1960   38.3670 C   0  0  0  0  0  0  0  0  0  0  0  0
    2.9470   19.6520   37.8610 C   0  0  0  0  0  0  0  0  0  0  0  0
    3.7100   23.5520   32.9080 C   0  0  0  0  0  0  0  0  0  0  0  0
    2.5660   26.6500   30.6970 C   0  0  0  0  0  0  0  0  0  0  0  0
    1.8240   20.9730   39.2620 C   0  0  0  0  0  0  0  0  0  0  0  0
    2.2370   26.0790   33.1440 C   0  0  0  0  0  0  0  0  0  0  0  0
    3.5810   17.3150   37.3760 C   0  0  0  0  0  0  0  0  0  0  0  0
    2.9586   21.9837   36.3999 H   0  0  0  0  0  0  0  0  0  0  0  0
    1.6018   22.3617   35.2852 H   0  0  0  0  0  0  0  0  0  0  0  0
    2.3338   20.7214   35.2852 H   0  0  0  0  0  0  0  0  0  0  0  0
    1.9188   15.9683   37.1373 H   0  0  0  0  0  0  0  0  0  0  0  0
    2.9655   15.7070   38.6266 H   0  0  0  0  0  0  0  0  0  0  0  0
    3.4694   14.6867   35.7558 H   0  0  0  0  0  0  0  0  0  0  0  0
    3.4437   13.7407   37.2422 H   0  0  0  0  0  0  0  0  0  0  0  0
    4.2763   22.2043   35.0723 H   0  0  0  0  0  0  0  0  0  0  0  0
    3.2566   21.3784   33.8033 H   0  0  0  0  0  0  0  0  0  0  0  0
    3.5063   24.2292   30.7915 H   0  0  0  0  0  0  0  0  0  0  0  0
    4.6214   25.2668   31.9649 H   0  0  0  0  0  0  0  0  0  0  0  0
    3.0203   20.5308   35.7957 H   0  0  0  0  0  0  0  0  0  0  0  0
    4.2989   21.0638   36.4643 H   0  0  0  0  0  0  0  0  0  0  0  0
    5.3989   15.0871   38.0348 H   0  0  0  0  0  0  0  0  0  0  0  0
    5.7644   14.3059   36.5908 H   0  0  0  0  0  0  0  0  0  0  0  0
    5.4076   15.9496   36.5908 H   0  0  0  0  0  0  0  0  0  0  0  0
    2.7086   16.7735   40.0184 H   0  0  0  0  0  0  0  0  0  0  0  0
    1.4395   24.9243   34.3901 H   0  0  0  0  0  0  0  0  0  0  0  0
    3.4209   25.4116   34.2558 H   0  0  0  0  0  0  0  0  0  0  0  0
    1.2945   18.4356   41.0087 H   0  0  0  0  0  0  0  0  0  0  0  0
    3.2024   19.0087   41.0825 H   0  0  0  0  0  0  0  0  0  0  0  0
    1.5388   21.7351   38.1140 H   0  0  0  0  0  0  0  0  0  0  0  0
    1.8933   23.8476   34.3542 H   0  0  0  0  0  0  0  0  0  0  0  0
    3.7717   19.9828   38.5094 H   0  0  0  0  0  0  0  0  0  0  0  0
    3.4847   22.5917   32.4212 H   0  0  0  0  0  0  0  0  0  0  0  0
    4.7137   23.5748   33.3575 H   0  0  0  0  0  0  0  0  0  0  0  0
    1.8508   27.4807   30.7883 H   0  0  0  0  0  0  0  0  0  0  0  0
    3.0981   26.4841   29.7487 H   0  0  0  0  0  0  0  0  0  0  0  0
    2.1907   21.9620   39.5742 H   0  0  0  0  0  0  0  0  0  0  0  0
    0.8328   20.5710   39.0052 H   0  0  0  0  0  0  0  0  0  0  0  0
    2.7370   26.9577   33.5775 H   0  0  0  0  0  0  0  0  0  0  0  0
    1.1516   26.2360   33.0590 H   0  0  0  0  0  0  0  0  0  0  0  0
    4.6727   17.2285   37.4791 H   0  0  0  0  0  0  0  0  0  0  0  0
    3.3356   17.7097   36.3790 H   0  0  0  0  0  0  0  0  0  0  0  0
  3  8  1  0
  3  2  1  0
  4  1  1  0
  5  6  1  0
  5 21  1  0
  6 18  1  0
  9 11  1  0
 13  7  1  0
 13 20  1  0
 14 10  1  0
 14  4  1  0
 15 11  1  0
 15 12  2  0
 16  9  2  0
 17  7  1  0
 17 13  1  0
 17 16  1  0
 18 14  1  0
 19  5  2  3
 20 15  1  0
 21 10  1  0
 22  2  1  0
 22 16  1  0
  1 23  1  0
  1 24  1  0
  1 25  1  0
  2 26  1  0
  2 27  1  0
  3 28  1  0
  3 29  1  0
  4 30  1  0
  4 31  1  0
  6 32  1  0
  6 33  1  0
  7 34  1  0
  7 35  1  0
  8 36  1  0
  8 37  1  0
  8 38  1  0
  9 39  1  0
 10 40  1  0
 10 41  1  0
 11 42  1  0
 11 43  1  0
 13 44  1  0
 14 45  1  0
 17 46  1  0
 18 47  1  0
 18 48  1  0
 19 49  1  0
 19 50  1  0
 20 51  1  0
 20 52  1  0
 21 53  1  0
 21 54  1  0
 22 55  1  0
 22 56  1  0
M  CHG  1   8   1
M  END
>  <mol_id>  (19) 
2026-08-24-6tgu-s0-n20-pocketids2-0019

>  <rmsd_to_ref>  (19) 


$$$$

     RDKit          3D

 54 52  0  0  0  0  0  0  0  0999 V2000
    4.3850   22.9220   33.2180 C   0  0  0  0  0  0  0  0  0  0  0  0
    2.6230   20.5210   38.2350 C   0  0  0  0  0  0  0  0  0  0  0  0
    1.5860   25.3330   34.6270 C   0  0  0  0  0  0  0  0  0  0  0  0
    4.1810   23.1950   32.1670 C   0  0  0  0  0  0  0  0  0  0  0  0
    1.3880   21.1520   40.9930 S   0  0  0  0  0  0  0  0  0  0  0  0
    2.7990   15.0340   37.5180 N   0  0  0  0  0  0  0  0  0  0  0  0
   -0.0100   20.9120   42.0910 C   0  0  0  0  0  0  0  0  0  0  0  0
    2.2120   22.8740   34.2560 C   0  0  0  0  0  0  0  0  0  0  0  0
    3.0500   20.4490   36.9600 C   0  0  0  0  0  0  0  0  0  0  0  0
    1.6190   18.4850   41.4840 C   0  0  0  0  0  0  0  0  0  0  0  0
    3.1000   18.0180   38.9200 C   0  0  0  0  0  0  0  0  0  0  0  0
    2.5260   19.4480   39.1910 C   0  0  0  0  0  0  0  0  0  0  0  0
    1.8450   19.6560   40.5250 C   0  0  0  0  0  0  0  0  0  0  0  0
    3.0140   23.4940   33.0490 C   0  0  0  0  0  0  0  0  0  0  0  0
    2.6530   21.4880   36.0430 C   0  0  0  0  0  0  0  0  0  0  0  0
    1.7610   23.9000   35.2690 C   0  0  0  0  0  0  0  0  0  0  0  0
    3.7660   17.5820   37.7640 C   0  0  0  0  0  0  0  0  0  0  0  0
    2.0810   24.5460   32.0890 C   0  0  0  0  0  0  0  0  0  0  0  0
    1.1580   25.3610   33.1430 C   0  0  0  0  0  0  0  0  0  0  0  0
    3.2220   16.0820   37.5200 C   0  0  0  0  0  0  0  0  0  0  0  0
    3.0060   21.6020   34.7070 O   0  0  0  0  0  0  0  0  0  0  0  0
    3.8622   23.6217   33.8867 H   0  0  0  0  0  0  0  0  0  0  0  0
    4.0285   21.8987   33.4068 H   0  0  0  0  0  0  0  0  0  0  0  0
    5.4674   22.9739   33.4068 H   0  0  0  0  0  0  0  0  0  0  0  0
    2.3119   21.5154   38.5877 H   0  0  0  0  0  0  0  0  0  0  0  0
    0.8227   25.8714   35.2079 H   0  0  0  0  0  0  0  0  0  0  0  0
    2.5833   25.7961   34.6574 H   0  0  0  0  0  0  0  0  0  0  0  0
    4.0852   22.3894   31.4241 H   0  0  0  0  0  0  0  0  0  0  0  0
    4.7378   23.8293   31.4616 H   0  0  0  0  0  0  0  0  0  0  0  0
    0.3299   20.9704   43.1355 H   0  0  0  0  0  0  0  0  0  0  0  0
   -0.7606   21.6944   41.9054 H   0  0  0  0  0  0  0  0  0  0  0  0
   -0.4566   19.9240   41.9054 H   0  0  0  0  0  0  0  0  0  0  0  0
    2.8512   23.4042   33.5347 H   0  0  0  0  0  0  0  0  0  0  0  0
    1.2625   22.4546   33.8919 H   0  0  0  0  0  0  0  0  0  0  0  0
    3.6869   19.6167   36.6259 H   0  0  0  0  0  0  0  0  0  0  0  0
    1.6880   18.8426   42.5220 H   0  0  0  0  0  0  0  0  0  0  0  0
    0.6214   18.0556   41.3097 H   0  0  0  0  0  0  0  0  0  0  0  0
    2.3851   17.7152   41.3097 H   0  0  0  0  0  0  0  0  0  0  0  0
    3.8087   17.8363   39.7414 H   0  0  0  0  0  0  0  0  0  0  0  0
    2.1554   17.4675   38.7990 H   0  0  0  0  0  0  0  0  0  0  0  0
    2.8249   19.8062   41.0018 H   0  0  0  0  0  0  0  0  0  0  0  0
    3.3209   23.4154   34.1024 H   0  0  0  0  0  0  0  0  0  0  0  0
    2.6536   24.5135   32.8472 H   0  0  0  0  0  0  0  0  0  0  0  0
    2.2078   22.7734   32.8472 H   0  0  0  0  0  0  0  0  0  0  0  0
    1.9995   22.2754   36.4467 H   0  0  0  0  0  0  0  0  0  0  0  0
    2.5114   23.9600   36.0711 H   0  0  0  0  0  0  0  0  0  0  0  0
    0.7830   23.5825   35.6599 H   0  0  0  0  0  0  0  0  0  0  0  0
    3.5207   18.2278   36.9080 H   0  0  0  0  0  0  0  0  0  0  0  0
    4.8598   17.6154   37.8758 H   0  0  0  0  0  0  0  0  0  0  0  0
    2.7953   23.9152   32.6384 H   0  0  0  0  0  0  0  0  0  0  0  0
    1.4426   23.9116   31.4566 H   0  0  0  0  0  0  0  0  0  0  0  0
    2.6315   25.2581   31.4566 H   0  0  0  0  0  0  0  0  0  0  0  0
    1.1416   26.4134   32.8234 H   0  0  0  0  0  0  0  0  0  0  0  0
    0.1839   24.8506   33.1198 H   0  0  0  0  0  0  0  0  0  0  0  0
  2 12  2  3
  3 16  1  0
  4 14  1  0
  4  1  1  0
  5  7  1  0
  6 20  3  0
  8 21  1  0
  8 16  1  0
  9  2  1  0
 11 12  1  0
 12 13  1  0
 13  5  1  0
 13 10  1  0
 15  9  2  3
 17 11  1  0
 18 19  1  0
 19  3  1  0
 20 17  1  0
 21 15  1  0
  1 22  1  0
  1 23  1  0
  1 24  1  0
  2 25  1  0
  3 26  1  0
  3 27  1  0
  4 28  1  0
  4 29  1  0
  7 30  1  0
  7 31  1  0
  7 32  1  0
  8 33  1  0
  8 34  1  0
  9 35  1  0
 10 36  1  0
 10 37  1  0
 10 38  1  0
 11 39  1  0
 11 40  1  0
 13 41  1  0
 14 42  1  0
 14 43  1  0
 14 44  1  0
 15 45  1  0
 16 46  1  0
 16 47  1  0
 17 48  1  0
 17 49  1  0
 18 50  1  0
 18 51  1  0
 18 52  1  0
 19 53  1  0
 19 54  1  0
M  END
>  <mol_id>  (20) 
2026-08-24-6tgu-s0-n20-pocketids2-0020

>  <rmsd_to_ref>  (20) 


$$$$
