3war.A
     RDKit          3D

 13 13  0  0  0  0  0  0  0  0999 V2000
    2.0001   18.6245   40.6926 N   0  0  0  0  0  0  0  0  0  0  0  0
    2.5782   18.5757   39.4013 C   0  0  0  0  0  0  0  0  0  0  0  0
    2.4967   19.7718   38.6000 C   0  0  0  0  0  0  0  0  0  0  0  0
    1.8538   20.9004   39.0765 C   0  0  0  0  0  0  0  0  0  0  0  0
    1.3289   20.9112   40.3502 C   0  0  0  0  0  0  0  0  0  0  0  0
    1.3818   19.7712   41.1205 C   0  0  0  0  0  0  0  0  0  0  0  0
    3.0116   19.7599   37.1684 C   0  0  0  0  0  0  0  0  0  0  0  0
    3.7306   18.7870   36.7954 O   0  0  0  0  0  0  0  0  0  0  0  0
    2.6655   20.7081   36.4973 O   0  0  0  0  0  0  0  0  0  0  0  0
    3.0681   17.6653   39.0256 H   0  0  0  0  0  0  0  0  0  0  0  0
    1.7616   21.7908   38.4372 H   0  0  0  0  0  0  0  0  0  0  0  0
    0.8693   21.8270   40.7502 H   0  0  0  0  0  0  0  0  0  0  0  0
    0.9112   19.7806   42.1147 H   0  0  0  0  0  0  0  0  0  0  0  0
  1  2  1  0
  1  6  2  0
  2  3  2  0
  3  4  1  0
  3  7  1  0
  4  5  2  0
  5  6  1  0
  7  8  1  0
  7  9  2  0
  2 10  1  0
  4 11  1  0
  5 12  1  0
  6 13  1  0
M  CHG  1   8  -1
M  END
>  <mol_id>  (1) 
2026-09-18-3war-s0-n100-r8-0001

>  <rmsd_to_ref>  (1) 
0.0

>  <pose_kind>  (1) 
native

$$$$
3war.A
     RDKit          3D

 13 13  0  0  0  0  0  0  0  0999 V2000
    1.4772   18.9019   40.6383 N   0  0  0  0  0  0  0  0  0  0  0  0
    2.1699   18.6965   39.4831 C   0  0  0  0  0  0  0  0  0  0  0  0
    2.3019   19.6896   38.5338 C   0  0  0  0  0  0  0  0  0  0  0  0
    1.7161   20.9415   38.7494 C   0  0  0  0  0  0  0  0  0  0  0  0
    1.0102   21.1361   39.9369 C   0  0  0  0  0  0  0  0  0  0  0  0
    0.8940   20.1113   40.8789 C   0  0  0  0  0  0  0  0  0  0  0  0
    3.0538   19.4199   37.3130 C   0  0  0  0  0  0  0  0  0  0  0  0
    3.1774   20.4386   36.3615 O   0  0  0  0  0  0  0  0  0  0  0  0
    3.6016   18.3201   37.0615 O   0  0  0  0  0  0  0  0  0  0  0  0
    2.6243   17.7173   39.3216 H   0  0  0  0  0  0  0  0  0  0  0  0
    1.8055   21.7384   38.0187 H   0  0  0  0  0  0  0  0  0  0  0  0
    0.5331   22.0882   40.1599 H   0  0  0  0  0  0  0  0  0  0  0  0
    0.3481   20.2535   41.8031 H   0  0  0  0  0  0  0  0  0  0  0  0
  1  2  1  0
  1  6  2  0
  2  3  2  0
  3  4  1  0
  3  7  1  0
  4  5  2  0
  5  6  1  0
  7  8  1  0
  7  9  2  0
  2 10  1  0
  4 11  1  0
  5 12  1  0
  6 13  1  0
M  CHG  1   8  -1
M  END
>  <mol_id>  (2) 
2026-09-18-3war-s0-n100-r8-0002

>  <rmsd_to_ref>  (2) 
0.5000000000041012

>  <pose_kind>  (2) 
conformer

$$$$
3war.A
     RDKit          3D

 13 13  0  0  0  0  0  0  0  0999 V2000
    2.6621   18.3692   40.7384 N   0  0  0  0  0  0  0  0  0  0  0  0
    3.0436   18.5839   39.3921 C   0  0  0  0  0  0  0  0  0  0  0  0
    2.6241   19.8203   38.7801 C   0  0  0  0  0  0  0  0  0  0  0  0
    1.8588   20.7339   39.4829 C   0  0  0  0  0  0  0  0  0  0  0  0
    1.5334   20.4950   40.8001 C   0  0  0  0  0  0  0  0  0  0  0  0
    1.9102   19.3108   41.3929 C   0  0  0  0  0  0  0  0  0  0  0  0
    2.9168   20.0737   37.3088 C   0  0  0  0  0  0  0  0  0  0  0  0
    3.7421   19.3155   36.7200 O   0  0  0  0  0  0  0  0  0  0  0  0
    2.3055   21.0006   36.8226 O   0  0  0  0  0  0  0  0  0  0  0  0
    3.6343   17.8401   38.8373 H   0  0  0  0  0  0  0  0  0  0  0  0
    1.5096   21.6526   38.9891 H   0  0  0  0  0  0  0  0  0  0  0  0
    0.9748   21.2475   41.3760 H   0  0  0  0  0  0  0  0  0  0  0  0
    1.5969   19.1130   42.4287 H   0  0  0  0  0  0  0  0  0  0  0  0
  1  2  1  0
  1  6  2  0
  2  3  2  0
  3  4  1  0
  3  7  1  0
  4  5  2  0
  5  6  1  0
  7  8  1  0
  7  9  2  0
  2 10  1  0
  4 11  1  0
  5 12  1  0
  6 13  1  0
M  CHG  1   8  -1
M  END
>  <mol_id>  (3) 
2026-09-18-3war-s0-n100-r8-0003

>  <rmsd_to_ref>  (3) 
0.5459183673494655

>  <pose_kind>  (3) 
rigid

$$$$
3war.A
     RDKit          3D

 13 13  0  0  0  0  0  0  0  0999 V2000
    2.0028   18.4540   40.1620 N   0  0  0  0  0  0  0  0  0  0  0  0
    2.6210   18.7973   39.0063 C   0  0  0  0  0  0  0  0  0  0  0  0
    2.4589   20.0616   38.4851 C   0  0  0  0  0  0  0  0  0  0  0  0
    1.6698   21.0142   39.1136 C   0  0  0  0  0  0  0  0  0  0  0  0
    1.0420   20.6397   40.3029 C   0  0  0  0  0  0  0  0  0  0  0  0
    1.2261   19.3470   40.8079 C   0  0  0  0  0  0  0  0  0  0  0  0
    3.1275   20.4333   37.2349 C   0  0  0  0  0  0  0  0  0  0  0  0
    3.9273   19.4949   36.5814 O   0  0  0  0  0  0  0  0  0  0  0  0
    2.9554   21.6047   36.7853 O   0  0  0  0  0  0  0  0  0  0  0  0
    3.2291   18.0433   38.5341 H   0  0  0  0  0  0  0  0  0  0  0  0
    1.5327   22.0125   38.7159 H   0  0  0  0  0  0  0  0  0  0  0  0
    0.4194   21.3637   40.8158 H   0  0  0  0  0  0  0  0  0  0  0  0
    0.7134   19.0945   41.7466 H   0  0  0  0  0  0  0  0  0  0  0  0
  1  2  1  0
  1  6  2  0
  2  3  2  0
  3  4  1  0
  3  7  1  0
  4  5  2  0
  5  6  1  0
  7  8  1  0
  7  9  2  0
  2 10  1  0
  4 11  1  0
  5 12  1  0
  6 13  1  0
M  CHG  1   8  -1
M  END
>  <mol_id>  (4) 
2026-09-18-3war-s0-n100-r8-0004

>  <rmsd_to_ref>  (4) 
0.5918367346981831

>  <pose_kind>  (4) 
conformer

$$$$
3war.A
     RDKit          3D

 13 13  0  0  0  0  0  0  0  0999 V2000
    2.3087   19.0994   40.8652 N   0  0  0  0  0  0  0  0  0  0  0  0
    2.5813   18.8500   39.4986 C   0  0  0  0  0  0  0  0  0  0  0  0
    2.0883   19.8125   38.5447 C   0  0  0  0  0  0  0  0  0  0  0  0
    1.3587   20.9117   38.9610 C   0  0  0  0  0  0  0  0  0  0  0  0
    1.1405   21.1285   40.3039 C   0  0  0  0  0  0  0  0  0  0  0  0
    1.5881   20.2090   41.2258 C   0  0  0  0  0  0  0  0  0  0  0  0
    2.2619   19.5581   37.0547 C   0  0  0  0  0  0  0  0  0  0  0  0
    3.0566   18.6431   36.6889 O   0  0  0  0  0  0  0  0  0  0  0  0
    1.5945   20.2717   36.3375 O   0  0  0  0  0  0  0  0  0  0  0  0
    3.1444   17.9609   39.1785 H   0  0  0  0  0  0  0  0  0  0  0  0
    0.9521   21.6140   38.2184 H   0  0  0  0  0  0  0  0  0  0  0  0
    0.6107   22.0326   40.6383 H   0  0  0  0  0  0  0  0  0  0  0  0
    1.3595   20.3702   42.2896 H   0  0  0  0  0  0  0  0  0  0  0  0
  1  2  1  0
  1  6  2  0
  2  3  2  0
  3  4  1  0
  3  7  1  0
  4  5  2  0
  5  6  1  0
  7  8  1  0
  7  9  2  0
  2 10  1  0
  4 11  1  0
  5 12  1  0
  6 13  1  0
M  CHG  1   8  -1
M  END
>  <mol_id>  (5) 
2026-09-18-3war-s0-n100-r8-0005

>  <rmsd_to_ref>  (5) 
0.6377551020413014

>  <pose_kind>  (5) 
rigid

$$$$
3war.A
     RDKit          3D

 13 13  0  0  0  0  0  0  0  0999 V2000
    1.8752   18.8157   40.3863 N   0  0  0  0  0  0  0  0  0  0  0  0
    2.2802   18.5433   39.1284 C   0  0  0  0  0  0  0  0  0  0  0  0
    2.6262   19.5749   38.2893 C   0  0  0  0  0  0  0  0  0  0  0  0
    2.5491   20.8712   38.7603 C   0  0  0  0  0  0  0  0  0  0  0  0
    2.1289   21.1520   40.0649 C   0  0  0  0  0  0  0  0  0  0  0  0
    1.7891   20.0663   40.8755 C   0  0  0  0  0  0  0  0  0  0  0  0
    3.0683   19.2964   36.9198 C   0  0  0  0  0  0  0  0  0  0  0  0
    3.4137   20.3558   36.0878 O   0  0  0  0  0  0  0  0  0  0  0  0
    3.1260   18.0828   36.5220 O   0  0  0  0  0  0  0  0  0  0  0  0
    2.3380   17.5276   38.7671 H   0  0  0  0  0  0  0  0  0  0  0  0
    2.8209   21.7073   38.1060 H   0  0  0  0  0  0  0  0  0  0  0  0
    2.0665   22.1612   40.4388 H   0  0  0  0  0  0  0  0  0  0  0  0
    1.4599   20.2444   41.8901 H   0  0  0  0  0  0  0  0  0  0  0  0
  1  2  1  0
  1  6  2  0
  2  3  2  0
  3  4  1  0
  3  7  1  0
  4  5  2  0
  5  6  1  0
  7  8  1  0
  7  9  2  0
  2 10  1  0
  4 11  1  0
  5 12  1  0
  6 13  1  0
M  CHG  1   8  -1
M  END
>  <mol_id>  (6) 
2026-09-18-3war-s0-n100-r8-0006

>  <rmsd_to_ref>  (6) 
0.6836734693909992

>  <pose_kind>  (6) 
conformer

$$$$
3war.A
     RDKit          3D

 13 13  0  0  0  0  0  0  0  0999 V2000
    2.7581   18.9074   40.6116 N   0  0  0  0  0  0  0  0  0  0  0  0
    2.8445   18.7894   39.2035 C   0  0  0  0  0  0  0  0  0  0  0  0
    2.6342   19.9882   38.4302 C   0  0  0  0  0  0  0  0  0  0  0  0
    2.3346   21.1876   39.0514 C   0  0  0  0  0  0  0  0  0  0  0  0
    2.2872   21.2613   40.4263 C   0  0  0  0  0  0  0  0  0  0  0  0
    2.4668   20.1218   41.1780 C   0  0  0  0  0  0  0  0  0  0  0  0
    2.6176   19.9151   36.9106 C   0  0  0  0  0  0  0  0  0  0  0  0
    3.0423   18.8604   36.3541 O   0  0  0  0  0  0  0  0  0  0  0  0
    2.1765   20.9010   36.3605 O   0  0  0  0  0  0  0  0  0  0  0  0
    3.0624   17.8255   38.7205 H   0  0  0  0  0  0  0  0  0  0  0  0
    2.1339   22.0841   38.4464 H   0  0  0  0  0  0  0  0  0  0  0  0
    2.1066   22.2267   40.9216 H   0  0  0  0  0  0  0  0  0  0  0  0
    2.3733   20.1879   42.2720 H   0  0  0  0  0  0  0  0  0  0  0  0
  1  2  1  0
  1  6  2  0
  2  3  2  0
  3  4  1  0
  3  7  1  0
  4  5  2  0
  5  6  1  0
  7  8  1  0
  7  9  2  0
  2 10  1  0
  4 11  1  0
  5 12  1  0
  6 13  1  0
M  CHG  1   8  -1
M  END
>  <mol_id>  (7) 
2026-09-18-3war-s0-n100-r8-0007

>  <rmsd_to_ref>  (7) 
0.7295918367387577

>  <pose_kind>  (7) 
rigid

$$$$
3war.A
     RDKit          3D

 13 13  0  0  0  0  0  0  0  0999 V2000
    1.6438   18.9398   40.5794 N   0  0  0  0  0  0  0  0  0  0  0  0
    2.3844   18.6306   39.4979 C   0  0  0  0  0  0  0  0  0  0  0  0
    2.3408   19.4390   38.3787 C   0  0  0  0  0  0  0  0  0  0  0  0
    1.5321   20.5594   38.3881 C   0  0  0  0  0  0  0  0  0  0  0  0
    0.7660   20.8855   39.4976 C   0  0  0  0  0  0  0  0  0  0  0  0
    0.8555   20.0317   40.5887 C   0  0  0  0  0  0  0  0  0  0  0  0
    3.1618   19.0627   37.2300 C   0  0  0  0  0  0  0  0  0  0  0  0
    3.1793   19.8162   36.0654 O   0  0  0  0  0  0  0  0  0  0  0  0
    3.8983   18.0243   37.2486 O   0  0  0  0  0  0  0  0  0  0  0  0
    2.9924   17.7372   39.5671 H   0  0  0  0  0  0  0  0  0  0  0  0
    1.4890   21.1994   37.5201 H   0  0  0  0  0  0  0  0  0  0  0  0
    0.1310   21.7555   39.5191 H   0  0  0  0  0  0  0  0  0  0  0  0
    0.2728   20.2495   41.4779 H   0  0  0  0  0  0  0  0  0  0  0  0
  1  2  1  0
  1  6  2  0
  2  3  2  0
  3  4  1  0
  3  7  1  0
  4  5  2  0
  5  6  1  0
  7  8  1  0
  7  9  2  0
  2 10  1  0
  4 11  1  0
  5 12  1  0
  6 13  1  0
M  CHG  1   8  -1
M  END
>  <mol_id>  (8) 
2026-09-18-3war-s0-n100-r8-0008

>  <rmsd_to_ref>  (8) 
0.7755102040854835

>  <pose_kind>  (8) 
conformer

$$$$
3war.A
     RDKit          3D

 13 13  0  0  0  0  0  0  0  0999 V2000
    2.9970   18.2474   40.6315 N   0  0  0  0  0  0  0  0  0  0  0  0
    3.5349   18.5150   39.3497 C   0  0  0  0  0  0  0  0  0  0  0  0
    2.8506   19.4942   38.5420 C   0  0  0  0  0  0  0  0  0  0  0  0
    1.7039   20.1156   39.0034 C   0  0  0  0  0  0  0  0  0  0  0  0
    1.2314   19.8436   40.2686 C   0  0  0  0  0  0  0  0  0  0  0  0
    1.8624   18.8973   41.0446 C   0  0  0  0  0  0  0  0  0  0  0  0
    3.3176   19.7607   37.1188 C   0  0  0  0  0  0  0  0  0  0  0  0
    4.4458   19.3113   36.7613 O   0  0  0  0  0  0  0  0  0  0  0  0
    2.5361   20.3894   36.4382 O   0  0  0  0  0  0  0  0  0  0  0  0
    4.4354   17.9986   38.9857 H   0  0  0  0  0  0  0  0  0  0  0  0
    1.1683   20.8281   38.3589 H   0  0  0  0  0  0  0  0  0  0  0  0
    0.3535   20.3804   40.6574 H   0  0  0  0  0  0  0  0  0  0  0  0
    1.4413   18.6540   42.0313 H   0  0  0  0  0  0  0  0  0  0  0  0
  1  2  1  0
  1  6  2  0
  2  3  2  0
  3  4  1  0
  3  7  1  0
  4  5  2  0
  5  6  1  0
  7  8  1  0
  7  9  2  0
  2 10  1  0
  4 11  1  0
  5 12  1  0
  6 13  1  0
M  CHG  1   8  -1
M  END
>  <mol_id>  (9) 
2026-09-18-3war-s0-n100-r8-0009

>  <rmsd_to_ref>  (9) 
0.8214285714326377

>  <pose_kind>  (9) 
rigid

$$$$
3war.A
     RDKit          3D

 13 13  0  0  0  0  0  0  0  0999 V2000
    1.5807   18.9053   40.5000 N   0  0  0  0  0  0  0  0  0  0  0  0
    2.4313   18.6501   39.4782 C   0  0  0  0  0  0  0  0  0  0  0  0
    2.9507   19.7206   38.7741 C   0  0  0  0  0  0  0  0  0  0  0  0
    2.6159   21.0191   39.0981 C   0  0  0  0  0  0  0  0  0  0  0  0
    1.7456   21.2556   40.1452 C   0  0  0  0  0  0  0  0  0  0  0  0
    1.2400   20.1693   40.8335 C   0  0  0  0  0  0  0  0  0  0  0  0
    3.8779   19.4866   37.6574 C   0  0  0  0  0  0  0  0  0  0  0  0
    4.2304   18.1869   37.3119 O   0  0  0  0  0  0  0  0  0  0  0  0
    4.3143   20.5037   37.0582 O   0  0  0  0  0  0  0  0  0  0  0  0
    2.6757   17.6223   39.2470 H   0  0  0  0  0  0  0  0  0  0  0  0
    3.0101   21.8636   38.5616 H   0  0  0  0  0  0  0  0  0  0  0  0
    1.4688   22.2668   40.4171 H   0  0  0  0  0  0  0  0  0  0  0  0
    0.5446   20.2987   41.6740 H   0  0  0  0  0  0  0  0  0  0  0  0
  1  2  1  0
  1  6  2  0
  2  3  2  0
  3  4  1  0
  3  7  1  0
  4  5  2  0
  5  6  1  0
  7  8  1  0
  7  9  2  0
  2 10  1  0
  4 11  1  0
  5 12  1  0
  6 13  1  0
M  CHG  1   8  -1
M  END
>  <mol_id>  (10) 
2026-09-18-3war-s0-n100-r8-0010

>  <rmsd_to_ref>  (10) 
0.8673469387797664

>  <pose_kind>  (10) 
conformer

$$$$
3war.A
     RDKit          3D

 13 13  0  0  0  0  0  0  0  0999 V2000
    2.1924   17.7389   40.4521 N   0  0  0  0  0  0  0  0  0  0  0  0
    2.6067   18.2231   39.1880 C   0  0  0  0  0  0  0  0  0  0  0  0
    2.4822   19.6407   38.9551 C   0  0  0  0  0  0  0  0  0  0  0  0
    1.9531   20.4734   39.9250 C   0  0  0  0  0  0  0  0  0  0  0  0
    1.5877   19.9621   41.1510 C   0  0  0  0  0  0  0  0  0  0  0  0
    1.6826   18.6081   41.3821 C   0  0  0  0  0  0  0  0  0  0  0  0
    2.8185   20.2150   37.5869 C   0  0  0  0  0  0  0  0  0  0  0  0
    3.4426   19.4832   36.7638 O   0  0  0  0  0  0  0  0  0  0  0  0
    2.4363   21.3510   37.4062 O   0  0  0  0  0  0  0  0  0  0  0  0
    3.0061   17.5475   38.4172 H   0  0  0  0  0  0  0  0  0  0  0  0
    1.8239   21.5458   39.7169 H   0  0  0  0  0  0  0  0  0  0  0  0
    1.2216   20.6329   41.9421 H   0  0  0  0  0  0  0  0  0  0  0  0
    1.3372   18.2093   42.3473 H   0  0  0  0  0  0  0  0  0  0  0  0
  1  2  1  0
  1  6  2  0
  2  3  2  0
  3  4  1  0
  3  7  1  0
  4  5  2  0
  5  6  1  0
  7  8  1  0
  7  9  2  0
  2 10  1  0
  4 11  1  0
  5 12  1  0
  6 13  1  0
M  CHG  1   8  -1
M  END
>  <mol_id>  (11) 
2026-09-18-3war-s0-n100-r8-0011

>  <rmsd_to_ref>  (11) 
0.913265306124191

>  <pose_kind>  (11) 
rigid

$$$$
3war.A
     RDKit          3D

 13 13  0  0  0  0  0  0  0  0999 V2000
    2.5511   18.5790   41.0886 N   0  0  0  0  0  0  0  0  0  0  0  0
    2.4381   18.4270   39.7400 C   0  0  0  0  0  0  0  0  0  0  0  0
    2.1153   19.4860   38.9116 C   0  0  0  0  0  0  0  0  0  0  0  0
    1.9016   20.7296   39.4627 C   0  0  0  0  0  0  0  0  0  0  0  0
    2.0221   20.8580   40.8332 C   0  0  0  0  0  0  0  0  0  0  0  0
    2.3465   19.7880   41.6533 C   0  0  0  0  0  0  0  0  0  0  0  0
    2.0008   19.2952   37.4699 C   0  0  0  0  0  0  0  0  0  0  0  0
    1.6790   20.3562   36.6545 O   0  0  0  0  0  0  0  0  0  0  0  0
    2.1960   18.1662   36.9804 O   0  0  0  0  0  0  0  0  0  0  0  0
    2.6106   17.4393   39.3274 H   0  0  0  0  0  0  0  0  0  0  0  0
    1.6475   21.5915   38.8674 H   0  0  0  0  0  0  0  0  0  0  0  0
    1.8669   21.8099   41.3313 H   0  0  0  0  0  0  0  0  0  0  0  0
    2.4402   19.8874   42.7186 H   0  0  0  0  0  0  0  0  0  0  0  0
  1  2  1  0
  1  6  2  0
  2  3  2  0
  3  4  1  0
  3  7  1  0
  4  5  2  0
  5  6  1  0
  7  8  1  0
  7  9  2  0
  2 10  1  0
  4 11  1  0
  5 12  1  0
  6 13  1  0
M  CHG  1   8  -1
M  END
>  <mol_id>  (12) 
2026-09-18-3war-s0-n100-r8-0012

>  <rmsd_to_ref>  (12) 
0.9591836734739039

>  <pose_kind>  (12) 
conformer

$$$$
3war.A
     RDKit          3D

 13 13  0  0  0  0  0  0  0  0999 V2000
    2.7243   18.9970   40.5581 N   0  0  0  0  0  0  0  0  0  0  0  0
    2.6302   18.9910   39.1456 C   0  0  0  0  0  0  0  0  0  0  0  0
    2.4363   20.2633   38.4952 C   0  0  0  0  0  0  0  0  0  0  0  0
    2.3215   21.4263   39.2356 C   0  0  0  0  0  0  0  0  0  0  0  0
    2.4461   21.3881   40.6070 C   0  0  0  0  0  0  0  0  0  0  0  0
    2.6124   20.1789   41.2443 C   0  0  0  0  0  0  0  0  0  0  0  0
    2.2311   20.3193   36.9887 C   0  0  0  0  0  0  0  0  0  0  0  0
    2.4903   19.2845   36.3070 O   0  0  0  0  0  0  0  0  0  0  0  0
    1.8168   21.3797   36.5726 O   0  0  0  0  0  0  0  0  0  0  0  0
    2.7018   18.0567   38.5695 H   0  0  0  0  0  0  0  0  0  0  0  0
    2.1303   22.3835   38.7282 H   0  0  0  0  0  0  0  0  0  0  0  0
    2.4129   22.3199   41.1907 H   0  0  0  0  0  0  0  0  0  0  0  0
    2.6571   20.1604   42.3433 H   0  0  0  0  0  0  0  0  0  0  0  0
  1  2  1  0
  1  6  2  0
  2  3  2  0
  3  4  1  0
  3  7  1  0
  4  5  2  0
  5  6  1  0
  7  8  1  0
  7  9  2  0
  2 10  1  0
  4 11  1  0
  5 12  1  0
  6 13  1  0
M  CHG  1   8  -1
M  END
>  <mol_id>  (13) 
2026-09-18-3war-s0-n100-r8-0013

>  <rmsd_to_ref>  (13) 
1.0051020408207174

>  <pose_kind>  (13) 
rigid

$$$$
3war.A
     RDKit          3D

 13 13  0  0  0  0  0  0  0  0999 V2000
    1.6592   18.3953   40.0386 N   0  0  0  0  0  0  0  0  0  0  0  0
    2.0044   18.9031   38.8357 C   0  0  0  0  0  0  0  0  0  0  0  0
    2.0552   20.2746   38.7119 C   0  0  0  0  0  0  0  0  0  0  0  0
    1.7734   21.1426   39.7468 C   0  0  0  0  0  0  0  0  0  0  0  0
    1.4258   20.5738   40.9558 C   0  0  0  0  0  0  0  0  0  0  0  0
    1.3736   19.1981   41.0842 C   0  0  0  0  0  0  0  0  0  0  0  0
    2.4231   20.8282   37.4305 C   0  0  0  0  0  0  0  0  0  0  0  0
    2.7246   20.0321   36.3290 O   0  0  0  0  0  0  0  0  0  0  0  0
    2.4939   22.0830   37.2312 O   0  0  0  0  0  0  0  0  0  0  0  0
    2.2343   18.2605   37.9943 H   0  0  0  0  0  0  0  0  0  0  0  0
    1.8144   22.2252   39.6459 H   0  0  0  0  0  0  0  0  0  0  0  0
    1.1881   21.2030   41.8243 H   0  0  0  0  0  0  0  0  0  0  0  0
    1.1015   18.7481   42.0304 H   0  0  0  0  0  0  0  0  0  0  0  0
  1  2  1  0
  1  6  2  0
  2  3  2  0
  3  4  1  0
  3  7  1  0
  4  5  2  0
  5  6  1  0
  7  8  1  0
  7  9  2  0
  2 10  1  0
  4 11  1  0
  5 12  1  0
  6 13  1  0
M  CHG  1   8  -1
M  END
>  <mol_id>  (14) 
2026-09-18-3war-s0-n100-r8-0014

>  <rmsd_to_ref>  (14) 
1.0510204081639853

>  <pose_kind>  (14) 
conformer

$$$$
3war.A
     RDKit          3D

 13 13  0  0  0  0  0  0  0  0999 V2000
    2.7416   18.0800   39.7462 N   0  0  0  0  0  0  0  0  0  0  0  0
    3.3340   18.7011   38.6205 C   0  0  0  0  0  0  0  0  0  0  0  0
    2.7549   19.9449   38.1766 C   0  0  0  0  0  0  0  0  0  0  0  0
    1.6515   20.4802   38.8169 C   0  0  0  0  0  0  0  0  0  0  0  0
    1.1245   19.8547   39.9254 C   0  0  0  0  0  0  0  0  0  0  0  0
    1.6540   18.6568   40.3502 C   0  0  0  0  0  0  0  0  0  0  0  0
    3.2804   20.6169   36.9168 C   0  0  0  0  0  0  0  0  0  0  0  0
    4.3768   20.2115   36.4308 O   0  0  0  0  0  0  0  0  0  0  0  0
    2.5721   21.4979   36.4791 O   0  0  0  0  0  0  0  0  0  0  0  0
    4.1981   18.2544   38.1069 H   0  0  0  0  0  0  0  0  0  0  0  0
    1.1942   21.4070   38.4401 H   0  0  0  0  0  0  0  0  0  0  0  0
    0.2838   20.3105   40.4691 H   0  0  0  0  0  0  0  0  0  0  0  0
    1.1879   18.1442   41.2046 H   0  0  0  0  0  0  0  0  0  0  0  0
  1  2  1  0
  1  6  2  0
  2  3  2  0
  3  4  1  0
  3  7  1  0
  4  5  2  0
  5  6  1  0
  7  8  1  0
  7  9  2  0
  2 10  1  0
  4 11  1  0
  5 12  1  0
  6 13  1  0
M  CHG  1   8  -1
M  END
>  <mol_id>  (15) 
2026-09-18-3war-s0-n100-r8-0015

>  <rmsd_to_ref>  (15) 
1.0969387755109035

>  <pose_kind>  (15) 
rigid

$$$$
3war.A
     RDKit          3D

 13 13  0  0  0  0  0  0  0  0999 V2000
    0.5081   18.1818   39.8382 N   0  0  0  0  0  0  0  0  0  0  0  0
    1.5366   18.3656   38.9883 C   0  0  0  0  0  0  0  0  0  0  0  0
    1.9955   19.6420   38.7276 C   0  0  0  0  0  0  0  0  0  0  0  0
    1.3871   20.7164   39.3479 C   0  0  0  0  0  0  0  0  0  0  0  0
    0.3273   20.5365   40.2247 C   0  0  0  0  0  0  0  0  0  0  0  0
   -0.0850   19.2289   40.4429 C   0  0  0  0  0  0  0  0  0  0  0  0
    3.1135   19.7911   37.7986 C   0  0  0  0  0  0  0  0  0  0  0  0
    3.6381   21.0349   37.4791 O   0  0  0  0  0  0  0  0  0  0  0  0
    3.6557   18.7831   37.2409 O   0  0  0  0  0  0  0  0  0  0  0  0
    1.9605   17.4747   38.5420 H   0  0  0  0  0  0  0  0  0  0  0  0
    1.7361   21.7190   39.1528 H   0  0  0  0  0  0  0  0  0  0  0  0
   -0.1567   21.3645   40.7153 H   0  0  0  0  0  0  0  0  0  0  0  0
   -0.9110   19.0427   41.1217 H   0  0  0  0  0  0  0  0  0  0  0  0
  1  2  1  0
  1  6  2  0
  2  3  2  0
  3  4  1  0
  3  7  1  0
  4  5  2  0
  5  6  1  0
  7  8  1  0
  7  9  2  0
  2 10  1  0
  4 11  1  0
  5 12  1  0
  6 13  1  0
M  CHG  1   8  -1
M  END
>  <mol_id>  (16) 
2026-09-18-3war-s0-n100-r8-0016

>  <rmsd_to_ref>  (16) 
1.1428571428605911

>  <pose_kind>  (16) 
conformer

$$$$
3war.A
     RDKit          3D

 13 13  0  0  0  0  0  0  0  0999 V2000
    2.0359   19.3896   40.5962 N   0  0  0  0  0  0  0  0  0  0  0  0
    2.6793   18.7844   39.4899 C   0  0  0  0  0  0  0  0  0  0  0  0
    2.2817   19.2272   38.1765 C   0  0  0  0  0  0  0  0  0  0  0  0
    1.2934   20.1828   38.0208 C   0  0  0  0  0  0  0  0  0  0  0  0
    0.7133   20.7640   39.1270 C   0  0  0  0  0  0  0  0  0  0  0  0
    1.0684   20.3386   40.3875 C   0  0  0  0  0  0  0  0  0  0  0  0
    2.8623   18.5524   36.9426 C   0  0  0  0  0  0  0  0  0  0  0  0
    3.8684   17.7976   37.0866 O   0  0  0  0  0  0  0  0  0  0  0  0
    2.2822   18.8020   35.9080 O   0  0  0  0  0  0  0  0  0  0  0  0
    3.4488   18.0102   39.6263 H   0  0  0  0  0  0  0  0  0  0  0  0
    0.9701   20.4789   37.0120 H   0  0  0  0  0  0  0  0  0  0  0  0
   -0.0305   21.5649   39.0038 H   0  0  0  0  0  0  0  0  0  0  0  0
    0.5576   20.7756   41.2582 H   0  0  0  0  0  0  0  0  0  0  0  0
  1  2  1  0
  1  6  2  0
  2  3  2  0
  3  4  1  0
  3  7  1  0
  4  5  2  0
  5  6  1  0
  7  8  1  0
  7  9  2  0
  2 10  1  0
  4 11  1  0
  5 12  1  0
  6 13  1  0
M  CHG  1   8  -1
M  END
>  <mol_id>  (17) 
2026-09-18-3war-s0-n100-r8-0017

>  <rmsd_to_ref>  (17) 
1.1887755102065494

>  <pose_kind>  (17) 
rigid

$$$$
3war.A
     RDKit          3D

 13 13  0  0  0  0  0  0  0  0999 V2000
    1.8295   19.7324   40.3560 N   0  0  0  0  0  0  0  0  0  0  0  0
    2.4057   19.0240   39.3691 C   0  0  0  0  0  0  0  0  0  0  0  0
    2.5178   19.6044   38.1225 C   0  0  0  0  0  0  0  0  0  0  0  0
    2.0642   20.8720   37.8571 C   0  0  0  0  0  0  0  0  0  0  0  0
    1.4736   21.5782   38.8979 C   0  0  0  0  0  0  0  0  0  0  0  0
    1.3623   20.9944   40.1468 C   0  0  0  0  0  0  0  0  0  0  0  0
    3.1384   18.8463   37.0521 C   0  0  0  0  0  0  0  0  0  0  0  0
    3.6201   17.5487   37.2627 O   0  0  0  0  0  0  0  0  0  0  0  0
    3.2733   19.3130   35.8920 O   0  0  0  0  0  0  0  0  0  0  0  0
    2.7801   18.0130   39.5364 H   0  0  0  0  0  0  0  0  0  0  0  0
    2.1656   21.2980   36.8747 H   0  0  0  0  0  0  0  0  0  0  0  0
    1.0986   22.5898   38.7320 H   0  0  0  0  0  0  0  0  0  0  0  0
    0.8986   21.5318   40.9892 H   0  0  0  0  0  0  0  0  0  0  0  0
  1  2  1  0
  1  6  2  0
  2  3  2  0
  3  4  1  0
  3  7  1  0
  4  5  2  0
  5  6  1  0
  7  8  1  0
  7  9  2  0
  2 10  1  0
  4 11  1  0
  5 12  1  0
  6 13  1  0
M  CHG  1   8  -1
M  END
>  <mol_id>  (18) 
2026-09-18-3war-s0-n100-r8-0018

>  <rmsd_to_ref>  (18) 
1.2346938775563872

>  <pose_kind>  (18) 
conformer

$$$$
3war.A
     RDKit          3D

 13 13  0  0  0  0  0  0  0  0999 V2000
    0.8221   18.0448   40.1573 N   0  0  0  0  0  0  0  0  0  0  0  0
    1.4331   18.5657   38.9914 C   0  0  0  0  0  0  0  0  0  0  0  0
    1.9020   19.9281   39.0488 C   0  0  0  0  0  0  0  0  0  0  0  0
    1.7296   20.6883   40.1918 C   0  0  0  0  0  0  0  0  0  0  0  0
    1.1534   20.1312   41.3123 C   0  0  0  0  0  0  0  0  0  0  0  0
    0.6833   18.8378   41.2674 C   0  0  0  0  0  0  0  0  0  0  0  0
    2.4812   20.5820   37.8031 C   0  0  0  0  0  0  0  0  0  0  0  0
    2.7772   19.8438   36.8181 O   0  0  0  0  0  0  0  0  0  0  0  0
    2.5989   21.7865   37.8709 O   0  0  0  0  0  0  0  0  0  0  0  0
    1.5452   17.9578   38.0815 H   0  0  0  0  0  0  0  0  0  0  0  0
    2.0533   21.7395   40.2060 H   0  0  0  0  0  0  0  0  0  0  0  0
    1.0691   20.7174   42.2393 H   0  0  0  0  0  0  0  0  0  0  0  0
    0.1784   18.4260   42.1536 H   0  0  0  0  0  0  0  0  0  0  0  0
  1  2  1  0
  1  6  2  0
  2  3  2  0
  3  4  1  0
  3  7  1  0
  4  5  2  0
  5  6  1  0
  7  8  1  0
  7  9  2  0
  2 10  1  0
  4 11  1  0
  5 12  1  0
  6 13  1  0
M  CHG  1   8  -1
M  END
>  <mol_id>  (19) 
2026-09-18-3war-s0-n100-r8-0019

>  <rmsd_to_ref>  (19) 
1.2806122449023194

>  <pose_kind>  (19) 
rigid

$$$$
3war.A
     RDKit          3D

 13 13  0  0  0  0  0  0  0  0999 V2000
    1.9851   19.8933   41.4663 N   0  0  0  0  0  0  0  0  0  0  0  0
    2.0501   19.1862   40.3234 C   0  0  0  0  0  0  0  0  0  0  0  0
    2.1137   19.8835   39.1329 C   0  0  0  0  0  0  0  0  0  0  0  0
    2.1106   21.2636   39.1155 C   0  0  0  0  0  0  0  0  0  0  0  0
    2.0422   21.9601   40.3219 C   0  0  0  0  0  0  0  0  0  0  0  0
    1.9796   21.2379   41.4966 C   0  0  0  0  0  0  0  0  0  0  0  0
    2.1855   19.1564   37.8672 C   0  0  0  0  0  0  0  0  0  0  0  0
    2.1896   17.7640   37.8657 O   0  0  0  0  0  0  0  0  0  0  0  0
    2.2434   19.7791   36.7826 O   0  0  0  0  0  0  0  0  0  0  0  0
    2.0537   18.1014   40.3146 H   0  0  0  0  0  0  0  0  0  0  0  0
    2.1613   21.7927   38.1680 H   0  0  0  0  0  0  0  0  0  0  0  0
    2.0381   23.0299   40.3396 H   0  0  0  0  0  0  0  0  0  0  0  0
    1.9274   21.8154   42.4122 H   0  0  0  0  0  0  0  0  0  0  0  0
  1  2  1  0
  1  6  2  0
  2  3  2  0
  3  4  1  0
  3  7  1  0
  4  5  2  0
  5  6  1  0
  7  8  1  0
  7  9  2  0
  2 10  1  0
  4 11  1  0
  5 12  1  0
  6 13  1  0
M  CHG  1   8  -1
M  END
>  <mol_id>  (20) 
2026-09-18-3war-s0-n100-r8-0020

>  <rmsd_to_ref>  (20) 
1.3265306122461853

>  <pose_kind>  (20) 
conformer

$$$$
3war.A
     RDKit          3D

 13 13  0  0  0  0  0  0  0  0999 V2000
    1.7665   18.9438   40.9443 N   0  0  0  0  0  0  0  0  0  0  0  0
    2.4251   19.4280   39.7885 C   0  0  0  0  0  0  0  0  0  0  0  0
    1.6187   20.1243   38.8168 C   0  0  0  0  0  0  0  0  0  0  0  0
    0.2572   20.2795   39.0076 C   0  0  0  0  0  0  0  0  0  0  0  0
   -0.3367   19.8152   40.1607 C   0  0  0  0  0  0  0  0  0  0  0  0
    0.4159   19.1316   41.0892 C   0  0  0  0  0  0  0  0  0  0  0  0
    2.2420   20.5868   37.5082 C   0  0  0  0  0  0  0  0  0  0  0  0
    3.5040   20.5821   37.4079 O   0  0  0  0  0  0  0  0  0  0  0  0
    1.4457   20.9170   36.6562 O   0  0  0  0  0  0  0  0  0  0  0  0
    3.5046   19.2796   39.6383 H   0  0  0  0  0  0  0  0  0  0  0  0
   -0.3522   20.7746   38.2373 H   0  0  0  0  0  0  0  0  0  0  0  0
   -1.4080   19.9898   40.3389 H   0  0  0  0  0  0  0  0  0  0  0  0
   -0.0841   18.7215   41.9790 H   0  0  0  0  0  0  0  0  0  0  0  0
  1  2  1  0
  1  6  2  0
  2  3  2  0
  3  4  1  0
  3  7  1  0
  4  5  2  0
  5  6  1  0
  7  8  1  0
  7  9  2  0
  2 10  1  0
  4 11  1  0
  5 12  1  0
  6 13  1  0
M  CHG  1   8  -1
M  END
>  <mol_id>  (21) 
2026-09-18-3war-s0-n100-r8-0021

>  <rmsd_to_ref>  (21) 
1.3724489795939447

>  <pose_kind>  (21) 
rigid

$$$$
3war.A
     RDKit          3D

 13 13  0  0  0  0  0  0  0  0999 V2000
    1.9272   18.4378   39.7963 N   0  0  0  0  0  0  0  0  0  0  0  0
    2.5247   19.2013   38.8400 C   0  0  0  0  0  0  0  0  0  0  0  0
    1.9090   20.3207   38.3110 C   0  0  0  0  0  0  0  0  0  0  0  0
    0.6573   20.6755   38.7617 C   0  0  0  0  0  0  0  0  0  0  0  0
    0.0722   19.8849   39.7322 C   0  0  0  0  0  0  0  0  0  0  0  0
    0.7002   18.7646   40.2548 C   0  0  0  0  0  0  0  0  0  0  0  0
    2.5720   21.1209   37.2872 C   0  0  0  0  0  0  0  0  0  0  0  0
    1.9500   22.2333   36.7674 O   0  0  0  0  0  0  0  0  0  0  0  0
    3.7046   20.7920   36.8856 O   0  0  0  0  0  0  0  0  0  0  0  0
    3.5101   18.9037   38.4997 H   0  0  0  0  0  0  0  0  0  0  0  0
    0.1288   21.5368   38.3866 H   0  0  0  0  0  0  0  0  0  0  0  0
   -0.9124   20.1084   40.1309 H   0  0  0  0  0  0  0  0  0  0  0  0
    0.2457   18.1498   41.0092 H   0  0  0  0  0  0  0  0  0  0  0  0
  1  2  1  0
  1  6  2  0
  2  3  2  0
  3  4  1  0
  3  7  1  0
  4  5  2  0
  5  6  1  0
  7  8  1  0
  7  9  2  0
  2 10  1  0
  4 11  1  0
  5 12  1  0
  6 13  1  0
M  CHG  1   8  -1
M  END
>  <mol_id>  (22) 
2026-09-18-3war-s0-n100-r8-0022

>  <rmsd_to_ref>  (22) 
1.418367346941529

>  <pose_kind>  (22) 
conformer

$$$$
3war.A
     RDKit          3D

 13 13  0  0  0  0  0  0  0  0999 V2000
    1.9458   19.7804   41.3361 N   0  0  0  0  0  0  0  0  0  0  0  0
    2.8290   19.0354   40.5182 C   0  0  0  0  0  0  0  0  0  0  0  0
    3.0166   19.4961   39.1648 C   0  0  0  0  0  0  0  0  0  0  0  0
    2.3343   20.6035   38.6932 C   0  0  0  0  0  0  0  0  0  0  0  0
    1.5050   21.3140   39.5331 C   0  0  0  0  0  0  0  0  0  0  0  0
    1.3006   20.8759   40.8223 C   0  0  0  0  0  0  0  0  0  0  0  0
    3.8763   18.6893   38.2032 C   0  0  0  0  0  0  0  0  0  0  0  0
    4.6140   17.7760   38.6767 O   0  0  0  0  0  0  0  0  0  0  0  0
    3.7621   19.0011   37.0374 O   0  0  0  0  0  0  0  0  0  0  0  0
    3.3494   18.1440   40.8985 H   0  0  0  0  0  0  0  0  0  0  0  0
    2.4543   20.9173   37.6458 H   0  0  0  0  0  0  0  0  0  0  0  0
    1.0079   22.2277   39.1751 H   0  0  0  0  0  0  0  0  0  0  0  0
    0.5945   21.4244   41.4631 H   0  0  0  0  0  0  0  0  0  0  0  0
  1  2  1  0
  1  6  2  0
  2  3  2  0
  3  4  1  0
  3  7  1  0
  4  5  2  0
  5  6  1  0
  7  8  1  0
  7  9  2  0
  2 10  1  0
  4 11  1  0
  5 12  1  0
  6 13  1  0
M  CHG  1   8  -1
M  END
>  <mol_id>  (23) 
2026-09-18-3war-s0-n100-r8-0023

>  <rmsd_to_ref>  (23) 
1.4642857142899146

>  <pose_kind>  (23) 
rigid

$$$$
3war.A
     RDKit          3D

 13 13  0  0  0  0  0  0  0  0999 V2000
    1.3236   18.4558   38.7017 N   0  0  0  0  0  0  0  0  0  0  0  0
    2.0915   18.8685   37.6709 C   0  0  0  0  0  0  0  0  0  0  0  0
    2.8996   19.9833   37.7620 C   0  0  0  0  0  0  0  0  0  0  0  0
    2.9352   20.7092   38.9352 C   0  0  0  0  0  0  0  0  0  0  0  0
    2.1395   20.2642   39.9732 C   0  0  0  0  0  0  0  0  0  0  0  0
    1.3316   19.1447   39.8737 C   0  0  0  0  0  0  0  0  0  0  0  0
    3.7136   20.3952   36.6254 C   0  0  0  0  0  0  0  0  0  0  0  0
    3.6736   19.6600   35.4460 O   0  0  0  0  0  0  0  0  0  0  0  0
    4.4515   21.3877   36.6644 O   0  0  0  0  0  0  0  0  0  0  0  0
    2.0405   18.2708   36.7542 H   0  0  0  0  0  0  0  0  0  0  0  0
    3.5516   21.5895   39.0565 H   0  0  0  0  0  0  0  0  0  0  0  0
    2.1339   20.7920   40.8977 H   0  0  0  0  0  0  0  0  0  0  0  0
    0.7056   18.7957   40.6921 H   0  0  0  0  0  0  0  0  0  0  0  0
  1  2  1  0
  1  6  2  0
  2  3  2  0
  3  4  1  0
  3  7  1  0
  4  5  2  0
  5  6  1  0
  7  8  1  0
  7  9  2  0
  2 10  1  0
  4 11  1  0
  5 12  1  0
  6 13  1  0
M  CHG  1   8  -1
M  END
>  <mol_id>  (24) 
2026-09-18-3war-s0-n100-r8-0024

>  <rmsd_to_ref>  (24) 
1.5102040816331141

>  <pose_kind>  (24) 
conformer

$$$$
3war.A
     RDKit          3D

 13 13  0  0  0  0  0  0  0  0999 V2000
    1.5255   19.2077   41.1321 N   0  0  0  0  0  0  0  0  0  0  0  0
    1.6925   18.3121   40.0486 C   0  0  0  0  0  0  0  0  0  0  0  0
    2.1425   18.8714   38.7980 C   0  0  0  0  0  0  0  0  0  0  0  0
    2.3699   20.2302   38.6716 C   0  0  0  0  0  0  0  0  0  0  0  0
    2.2200   21.0606   39.7606 C   0  0  0  0  0  0  0  0  0  0  0  0
    1.7728   20.5449   40.9564 C   0  0  0  0  0  0  0  0  0  0  0  0
    2.2512   17.9832   37.5676 C   0  0  0  0  0  0  0  0  0  0  0  0
    2.1942   16.7283   37.7241 O   0  0  0  0  0  0  0  0  0  0  0  0
    2.3763   18.5808   36.5204 O   0  0  0  0  0  0  0  0  0  0  0  0
    1.4880   17.2366   40.1560 H   0  0  0  0  0  0  0  0  0  0  0  0
    2.6709   20.6484   37.6997 H   0  0  0  0  0  0  0  0  0  0  0  0
    2.4568   22.1314   39.6752 H   0  0  0  0  0  0  0  0  0  0  0  0
    1.6079   21.2302   41.8009 H   0  0  0  0  0  0  0  0  0  0  0  0
  1  2  1  0
  1  6  2  0
  2  3  2  0
  3  4  1  0
  3  7  1  0
  4  5  2  0
  5  6  1  0
  7  8  1  0
  7  9  2  0
  2 10  1  0
  4 11  1  0
  5 12  1  0
  6 13  1  0
M  CHG  1   8  -1
M  END
>  <mol_id>  (25) 
2026-09-18-3war-s0-n100-r8-0025

>  <rmsd_to_ref>  (25) 
1.5561224489821854

>  <pose_kind>  (25) 
rigid

$$$$
3war.A
     RDKit          3D

 13 13  0  0  0  0  0  0  0  0999 V2000
    3.0603   19.1001   39.8546 N   0  0  0  0  0  0  0  0  0  0  0  0
    2.5337   19.1941   38.6188 C   0  0  0  0  0  0  0  0  0  0  0  0
    2.1438   20.4379   38.1912 C   0  0  0  0  0  0  0  0  0  0  0  0
    2.2739   21.5671   38.9747 C   0  0  0  0  0  0  0  0  0  0  0  0
    2.8152   21.4390   40.2319 C   0  0  0  0  0  0  0  0  0  0  0  0
    3.2037   20.1727   40.6470 C   0  0  0  0  0  0  0  0  0  0  0  0
    1.5689   20.5769   36.8570 C   0  0  0  0  0  0  0  0  0  0  0  0
    1.4120   19.4831   36.0234 O   0  0  0  0  0  0  0  0  0  0  0  0
    1.2179   21.7467   36.4929 O   0  0  0  0  0  0  0  0  0  0  0  0
    2.4437   18.2953   38.0280 H   0  0  0  0  0  0  0  0  0  0  0  0
    1.9571   22.5584   38.6191 H   0  0  0  0  0  0  0  0  0  0  0  0
    2.9231   22.3139   40.8561 H   0  0  0  0  0  0  0  0  0  0  0  0
    3.6298   20.1166   41.6551 H   0  0  0  0  0  0  0  0  0  0  0  0
  1  2  1  0
  1  6  2  0
  2  3  2  0
  3  4  1  0
  3  7  1  0
  4  5  2  0
  5  6  1  0
  7  8  1  0
  7  9  2  0
  2 10  1  0
  4 11  1  0
  5 12  1  0
  6 13  1  0
M  CHG  1   8  -1
M  END
>  <mol_id>  (26) 
2026-09-18-3war-s0-n100-r8-0026

>  <rmsd_to_ref>  (26) 
1.6020408163300481

>  <pose_kind>  (26) 
conformer

$$$$
3war.A
     RDKit          3D

 13 13  0  0  0  0  0  0  0  0999 V2000
    1.9880   18.0846   39.2347 N   0  0  0  0  0  0  0  0  0  0  0  0
    3.2307   18.5473   38.7392 C   0  0  0  0  0  0  0  0  0  0  0  0
    3.3628   19.9665   38.5203 C   0  0  0  0  0  0  0  0  0  0  0  0
    2.3026   20.8216   38.7627 C   0  0  0  0  0  0  0  0  0  0  0  0
    1.1199   20.3301   39.2702 C   0  0  0  0  0  0  0  0  0  0  0  0
    0.9716   18.9754   39.4666 C   0  0  0  0  0  0  0  0  0  0  0  0
    4.6364   20.5209   37.8996 C   0  0  0  0  0  0  0  0  0  0  0  0
    5.6491   19.7647   37.8266 O   0  0  0  0  0  0  0  0  0  0  0  0
    4.5548   21.6669   37.5131 O   0  0  0  0  0  0  0  0  0  0  0  0
    4.0593   17.8546   38.5302 H   0  0  0  0  0  0  0  0  0  0  0  0
    2.4042   21.8960   38.5498 H   0  0  0  0  0  0  0  0  0  0  0  0
    0.2973   21.0172   39.5175 H   0  0  0  0  0  0  0  0  0  0  0  0
    0.0030   18.5940   39.8222 H   0  0  0  0  0  0  0  0  0  0  0  0
  1  2  1  0
  1  6  2  0
  2  3  2  0
  3  4  1  0
  3  7  1  0
  4  5  2  0
  5  6  1  0
  7  8  1  0
  7  9  2  0
  2 10  1  0
  4 11  1  0
  5 12  1  0
  6 13  1  0
M  CHG  1   8  -1
M  END
>  <mol_id>  (27) 
2026-09-18-3war-s0-n100-r8-0027

>  <rmsd_to_ref>  (27) 
1.6479591836751406

>  <pose_kind>  (27) 
rigid

$$$$
3war.A
     RDKit          3D

 13 13  0  0  0  0  0  0  0  0999 V2000
    1.7727   17.1747   39.6750 N   0  0  0  0  0  0  0  0  0  0  0  0
    2.5351   17.9508   38.8912 C   0  0  0  0  0  0  0  0  0  0  0  0
    2.6324   19.2890   39.2129 C   0  0  0  0  0  0  0  0  0  0  0  0
    1.9547   19.8024   40.3191 C   0  0  0  0  0  0  0  0  0  0  0  0
    1.1741   18.9540   41.1031 C   0  0  0  0  0  0  0  0  0  0  0  0
    1.1004   17.6188   40.7500 C   0  0  0  0  0  0  0  0  0  0  0  0
    3.4612   20.1509   38.3673 C   0  0  0  0  0  0  0  0  0  0  0  0
    3.5740   21.5091   38.6744 O   0  0  0  0  0  0  0  0  0  0  0  0
    4.0854   19.7228   37.3636 O   0  0  0  0  0  0  0  0  0  0  0  0
    3.0715   17.5905   38.0314 H   0  0  0  0  0  0  0  0  0  0  0  0
    2.0385   20.8711   40.5676 H   0  0  0  0  0  0  0  0  0  0  0  0
    0.6414   19.3209   41.9601 H   0  0  0  0  0  0  0  0  0  0  0  0
    0.5166   16.8999   41.3078 H   0  0  0  0  0  0  0  0  0  0  0  0
  1  2  1  0
  1  6  2  0
  2  3  2  0
  3  4  1  0
  3  7  1  0
  4  5  2  0
  5  6  1  0
  7  8  1  0
  7  9  2  0
  2 10  1  0
  4 11  1  0
  5 12  1  0
  6 13  1  0
M  CHG  1   8  -1
M  END
>  <mol_id>  (28) 
2026-09-18-3war-s0-n100-r8-0028

>  <rmsd_to_ref>  (28) 
1.6938775510206245

>  <pose_kind>  (28) 
conformer

$$$$
3war.A
     RDKit          3D

 13 13  0  0  0  0  0  0  0  0999 V2000
    2.6535   17.8989   38.7206 N   0  0  0  0  0  0  0  0  0  0  0  0
    2.7389   18.8095   37.6401 C   0  0  0  0  0  0  0  0  0  0  0  0
    2.3606   20.1761   37.9019 C   0  0  0  0  0  0  0  0  0  0  0  0
    1.9095   20.5583   39.1528 C   0  0  0  0  0  0  0  0  0  0  0  0
    1.8682   19.6436   40.1821 C   0  0  0  0  0  0  0  0  0  0  0  0
    2.2080   18.3308   39.9434 C   0  0  0  0  0  0  0  0  0  0  0  0
    2.3367   21.1858   36.7641 C   0  0  0  0  0  0  0  0  0  0  0  0
    2.8930   20.8736   35.6706 O   0  0  0  0  0  0  0  0  0  0  0  0
    1.7607   22.2218   37.0176 O   0  0  0  0  0  0  0  0  0  0  0  0
    3.0790   18.4886   36.6444 H   0  0  0  0  0  0  0  0  0  0  0  0
    1.5832   21.5944   39.3257 H   0  0  0  0  0  0  0  0  0  0  0  0
    1.5650   19.9608   41.1908 H   0  0  0  0  0  0  0  0  0  0  0  0
    2.1189   17.6025   40.7629 H   0  0  0  0  0  0  0  0  0  0  0  0
  1  2  1  0
  1  6  2  0
  2  3  2  0
  3  4  1  0
  3  7  1  0
  4  5  2  0
  5  6  1  0
  7  8  1  0
  7  9  2  0
  2 10  1  0
  4 11  1  0
  5 12  1  0
  6 13  1  0
M  CHG  1   8  -1
M  END
>  <mol_id>  (29) 
2026-09-18-3war-s0-n100-r8-0029

>  <rmsd_to_ref>  (29) 
1.7397959183673601

>  <pose_kind>  (29) 
rigid

$$$$
3war.A
     RDKit          3D

 13 13  0  0  0  0  0  0  0  0999 V2000
    0.3158   18.1473   40.1806 N   0  0  0  0  0  0  0  0  0  0  0  0
    1.5844   18.3912   39.8116 C   0  0  0  0  0  0  0  0  0  0  0  0
    1.9460   19.6372   39.2967 C   0  0  0  0  0  0  0  0  0  0  0  0
    0.9525   20.5878   39.1882 C   0  0  0  0  0  0  0  0  0  0  0  0
   -0.3510   20.3392   39.5666 C   0  0  0  0  0  0  0  0  0  0  0  0
   -0.6405   19.0732   40.0722 C   0  0  0  0  0  0  0  0  0  0  0  0
    3.3274   19.8676   38.9073 C   0  0  0  0  0  0  0  0  0  0  0  0
    3.6240   21.1446   38.3961 O   0  0  0  0  0  0  0  0  0  0  0  0
    4.2379   19.0216   38.9980 O   0  0  0  0  0  0  0  0  0  0  0  0
    2.3101   17.5900   39.9282 H   0  0  0  0  0  0  0  0  0  0  0  0
    1.2127   21.5566   38.7925 H   0  0  0  0  0  0  0  0  0  0  0  0
   -1.1240   21.0894   39.4784 H   0  0  0  0  0  0  0  0  0  0  0  0
   -1.6335   18.8082   40.3868 H   0  0  0  0  0  0  0  0  0  0  0  0
  1  2  1  0
  1  6  2  0
  2  3  2  0
  3  4  1  0
  3  7  1  0
  4  5  2  0
  5  6  1  0
  7  8  1  0
  7  9  2  0
  2 10  1  0
  4 11  1  0
  5 12  1  0
  6 13  1  0
M  CHG  1   8  -1
M  END
>  <mol_id>  (30) 
2026-09-18-3war-s0-n100-r8-0030

>  <rmsd_to_ref>  (30) 
1.7857142857185164

>  <pose_kind>  (30) 
conformer

$$$$
3war.A
     RDKit          3D

 13 13  0  0  0  0  0  0  0  0999 V2000
    0.6723   17.3573   40.4205 N   0  0  0  0  0  0  0  0  0  0  0  0
    0.7725   17.7858   39.0751 C   0  0  0  0  0  0  0  0  0  0  0  0
    1.7477   18.8070   38.7824 C   0  0  0  0  0  0  0  0  0  0  0  0
    2.5241   19.3534   39.7887 C   0  0  0  0  0  0  0  0  0  0  0  0
    2.4112   18.8864   41.0799 C   0  0  0  0  0  0  0  0  0  0  0  0
    1.4716   17.9254   41.3790 C   0  0  0  0  0  0  0  0  0  0  0  0
    1.8425   19.3819   37.3769 C   0  0  0  0  0  0  0  0  0  0  0  0
    1.2472   18.7770   36.4377 O   0  0  0  0  0  0  0  0  0  0  0  0
    2.4915   20.4019   37.2892 O   0  0  0  0  0  0  0  0  0  0  0  0
    0.1345   17.3586   38.2874 H   0  0  0  0  0  0  0  0  0  0  0  0
    3.2329   20.1621   39.5575 H   0  0  0  0  0  0  0  0  0  0  0  0
    3.0690   19.2798   41.8688 H   0  0  0  0  0  0  0  0  0  0  0  0
    1.3582   17.6017   42.4242 H   0  0  0  0  0  0  0  0  0  0  0  0
  1  2  1  0
  1  6  2  0
  2  3  2  0
  3  4  1  0
  3  7  1  0
  4  5  2  0
  5  6  1  0
  7  8  1  0
  7  9  2  0
  2 10  1  0
  4 11  1  0
  5 12  1  0
  6 13  1  0
M  CHG  1   8  -1
M  END
>  <mol_id>  (31) 
2026-09-18-3war-s0-n100-r8-0031

>  <rmsd_to_ref>  (31) 
1.8316326530641858

>  <pose_kind>  (31) 
rigid

$$$$
3war.A
     RDKit          3D

 13 13  0  0  0  0  0  0  0  0999 V2000
    4.4010   20.8820   41.0240 N   0  0  0  0  0  0  0  0  0  0  0  0
    4.1951   20.3981   39.7878 C   0  0  0  0  0  0  0  0  0  0  0  0
    2.9285   20.4592   39.2042 C   0  0  0  0  0  0  0  0  0  0  0  0
    1.9178   21.0314   39.9481 C   0  0  0  0  0  0  0  0  0  0  0  0
    2.1273   21.5291   41.2180 C   0  0  0  0  0  0  0  0  0  0  0  0
    3.4168   21.4347   41.7379 C   0  0  0  0  0  0  0  0  0  0  0  0
    2.7405   19.9262   37.8650 C   0  0  0  0  0  0  0  0  0  0  0  0
    1.4398   20.0196   37.3362 O   0  0  0  0  0  0  0  0  0  0  0  0
    3.6409   19.4061   37.1782 O   0  0  0  0  0  0  0  0  0  0  0  0
    5.0431   19.9620   39.2654 H   0  0  0  0  0  0  0  0  0  0  0  0
    0.9323   21.0877   39.5140 H   0  0  0  0  0  0  0  0  0  0  0  0
    1.3300   21.9761   41.7947 H   0  0  0  0  0  0  0  0  0  0  0  0
    3.6541   21.8010   42.7201 H   0  0  0  0  0  0  0  0  0  0  0  0
  1  2  1  0
  1  6  2  0
  2  3  2  0
  3  4  1  0
  3  7  1  0
  4  5  2  0
  5  6  1  0
  7  8  1  0
  7  9  2  0
  2 10  1  0
  4 11  1  0
  5 12  1  0
  6 13  1  0
M  CHG  1   8  -1
M  END
>  <mol_id>  (32) 
2026-09-18-3war-s0-n100-r8-0032

>  <rmsd_to_ref>  (32) 
1.8775510204121322

>  <pose_kind>  (32) 
conformer

$$$$
3war.A
     RDKit          3D

 13 13  0  0  0  0  0  0  0  0999 V2000
    1.0770   19.8421   40.9887 N   0  0  0  0  0  0  0  0  0  0  0  0
    2.0719   18.9599   40.5029 C   0  0  0  0  0  0  0  0  0  0  0  0
    3.0110   19.4921   39.5468 C   0  0  0  0  0  0  0  0  0  0  0  0
    2.9132   20.8020   39.1126 C   0  0  0  0  0  0  0  0  0  0  0  0
    1.9449   21.6324   39.6329 C   0  0  0  0  0  0  0  0  0  0  0  0
    1.0290   21.1342   40.5322 C   0  0  0  0  0  0  0  0  0  0  0  0
    4.0459   18.5752   38.9120 C   0  0  0  0  0  0  0  0  0  0  0  0
    4.2301   17.4312   39.4219 O   0  0  0  0  0  0  0  0  0  0  0  0
    4.6064   19.0382   37.9420 O   0  0  0  0  0  0  0  0  0  0  0  0
    2.1261   17.9142   40.8401 H   0  0  0  0  0  0  0  0  0  0  0  0
    3.6100   21.1812   38.3505 H   0  0  0  0  0  0  0  0  0  0  0  0
    1.9036   22.6894   39.3311 H   0  0  0  0  0  0  0  0  0  0  0  0
    0.2302   21.7964   40.8975 H   0  0  0  0  0  0  0  0  0  0  0  0
  1  2  1  0
  1  6  2  0
  2  3  2  0
  3  4  1  0
  3  7  1  0
  4  5  2  0
  5  6  1  0
  7  8  1  0
  7  9  2  0
  2 10  1  0
  4 11  1  0
  5 12  1  0
  6 13  1  0
M  CHG  1   8  -1
M  END
>  <mol_id>  (33) 
2026-09-18-3war-s0-n100-r8-0033

>  <rmsd_to_ref>  (33) 
1.923469387760477

>  <pose_kind>  (33) 
rigid

$$$$
3war.A
     RDKit          3D

 13 13  0  0  0  0  0  0  0  0999 V2000
    2.7018   18.5677   40.4692 N   0  0  0  0  0  0  0  0  0  0  0  0
    2.0085   18.1006   39.4070 C   0  0  0  0  0  0  0  0  0  0  0  0
    1.5124   18.9719   38.4593 C   0  0  0  0  0  0  0  0  0  0  0  0
    1.7233   20.3466   38.5909 C   0  0  0  0  0  0  0  0  0  0  0  0
    2.4428   20.8142   39.6959 C   0  0  0  0  0  0  0  0  0  0  0  0
    2.9190   19.9031   40.6171 C   0  0  0  0  0  0  0  0  0  0  0  0
    0.7591   18.4334   37.3099 C   0  0  0  0  0  0  0  0  0  0  0  0
    0.2614   19.3137   36.3583 O   0  0  0  0  0  0  0  0  0  0  0  0
    0.5792   17.1716   37.2117 O   0  0  0  0  0  0  0  0  0  0  0  0
    1.8723   17.0291   39.3507 H   0  0  0  0  0  0  0  0  0  0  0  0
    1.3292   21.0269   37.8398 H   0  0  0  0  0  0  0  0  0  0  0  0
    2.5934   21.8813   39.7765 H   0  0  0  0  0  0  0  0  0  0  0  0
    3.4747   20.3028   41.4646 H   0  0  0  0  0  0  0  0  0  0  0  0
  1  2  1  0
  1  6  2  0
  2  3  2  0
  3  4  1  0
  3  7  1  0
  4  5  2  0
  5  6  1  0
  7  8  1  0
  7  9  2  0
  2 10  1  0
  4 11  1  0
  5 12  1  0
  6 13  1  0
M  CHG  1   8  -1
M  END
>  <mol_id>  (34) 
2026-09-18-3war-s0-n100-r8-0034

>  <rmsd_to_ref>  (34) 
1.96938775510591

>  <pose_kind>  (34) 
conformer

$$$$
3war.A
     RDKit          3D

 13 13  0  0  0  0  0  0  0  0999 V2000
    1.8689   20.6016   41.7374 N   0  0  0  0  0  0  0  0  0  0  0  0
    2.5043   19.7836   40.7724 C   0  0  0  0  0  0  0  0  0  0  0  0
    1.7278   19.4072   39.6172 C   0  0  0  0  0  0  0  0  0  0  0  0
    0.4117   19.8132   39.4862 C   0  0  0  0  0  0  0  0  0  0  0  0
   -0.1575   20.6312   40.4375 C   0  0  0  0  0  0  0  0  0  0  0  0
    0.5645   20.9836   41.5556 C   0  0  0  0  0  0  0  0  0  0  0  0
    2.3156   18.4523   38.5889 C   0  0  0  0  0  0  0  0  0  0  0  0
    3.5578   18.2121   38.6315 O   0  0  0  0  0  0  0  0  0  0  0  0
    1.5116   17.9903   37.8082 O   0  0  0  0  0  0  0  0  0  0  0  0
    3.5449   19.4498   40.8984 H   0  0  0  0  0  0  0  0  0  0  0  0
   -0.1814   19.4822   38.6209 H   0  0  0  0  0  0  0  0  0  0  0  0
   -1.1847   21.0012   40.3042 H   0  0  0  0  0  0  0  0  0  0  0  0
    0.0776   21.5936   42.3308 H   0  0  0  0  0  0  0  0  0  0  0  0
  1  2  1  0
  1  6  2  0
  2  3  2  0
  3  4  1  0
  3  7  1  0
  4  5  2  0
  5  6  1  0
  7  8  1  0
  7  9  2  0
  2 10  1  0
  4 11  1  0
  5 12  1  0
  6 13  1  0
M  CHG  1   8  -1
M  END
>  <mol_id>  (35) 
2026-09-18-3war-s0-n100-r8-0035

>  <rmsd_to_ref>  (35) 
2.015306122450803

>  <pose_kind>  (35) 
rigid

$$$$
3war.A
     RDKit          3D

 13 13  0  0  0  0  0  0  0  0999 V2000
    2.2802   18.1220   38.6069 N   0  0  0  0  0  0  0  0  0  0  0  0
    2.4796   19.0096   37.5926 C   0  0  0  0  0  0  0  0  0  0  0  0
    3.1658   20.1906   37.7909 C   0  0  0  0  0  0  0  0  0  0  0  0
    3.6741   20.4965   39.0577 C   0  0  0  0  0  0  0  0  0  0  0  0
    3.4616   19.5776   40.0856 C   0  0  0  0  0  0  0  0  0  0  0  0
    2.7631   18.3905   39.8540 C   0  0  0  0  0  0  0  0  0  0  0  0
    3.3530   21.1083   36.6722 C   0  0  0  0  0  0  0  0  0  0  0  0
    4.0512   22.3010   36.8916 O   0  0  0  0  0  0  0  0  0  0  0  0
    2.9221   20.8915   35.5145 O   0  0  0  0  0  0  0  0  0  0  0  0
    2.0803   18.7644   36.6068 H   0  0  0  0  0  0  0  0  0  0  0  0
    4.2169   21.4182   39.2392 H   0  0  0  0  0  0  0  0  0  0  0  0
    3.8332   19.7608   41.0917 H   0  0  0  0  0  0  0  0  0  0  0  0
    2.5935   17.6717   40.6458 H   0  0  0  0  0  0  0  0  0  0  0  0
  1  2  1  0
  1  6  2  0
  2  3  2  0
  3  4  1  0
  3  7  1  0
  4  5  2  0
  5  6  1  0
  7  8  1  0
  7  9  2  0
  2 10  1  0
  4 11  1  0
  5 12  1  0
  6 13  1  0
M  CHG  1   8  -1
M  END
>  <mol_id>  (36) 
2026-09-18-3war-s0-n100-r8-0036

>  <rmsd_to_ref>  (36) 
2.061224489797134

>  <pose_kind>  (36) 
conformer

$$$$
3war.A
     RDKit          3D

 13 13  0  0  0  0  0  0  0  0999 V2000
    0.5300   20.6548   40.6390 N   0  0  0  0  0  0  0  0  0  0  0  0
    1.8395   20.1921   40.3649 C   0  0  0  0  0  0  0  0  0  0  0  0
    2.4564   20.6523   39.1454 C   0  0  0  0  0  0  0  0  0  0  0  0
    1.7742   21.4871   38.2785 C   0  0  0  0  0  0  0  0  0  0  0  0
    0.5110   21.9337   38.5993 C   0  0  0  0  0  0  0  0  0  0  0  0
   -0.0991   21.4884   39.7505 C   0  0  0  0  0  0  0  0  0  0  0  0
    3.8232   20.1198   38.7413 C   0  0  0  0  0  0  0  0  0  0  0  0
    4.5013   19.4867   39.6027 O   0  0  0  0  0  0  0  0  0  0  0  0
    4.1385   20.3514   37.5941 O   0  0  0  0  0  0  0  0  0  0  0  0
    2.3635   19.5114   41.0520 H   0  0  0  0  0  0  0  0  0  0  0  0
    2.2411   21.7948   37.3312 H   0  0  0  0  0  0  0  0  0  0  0  0
   -0.0081   22.6434   37.9383 H   0  0  0  0  0  0  0  0  0  0  0  0
   -1.1280   21.8130   39.9650 H   0  0  0  0  0  0  0  0  0  0  0  0
  1  2  1  0
  1  6  2  0
  2  3  2  0
  3  4  1  0
  3  7  1  0
  4  5  2  0
  5  6  1  0
  7  8  1  0
  7  9  2  0
  2 10  1  0
  4 11  1  0
  5 12  1  0
  6 13  1  0
M  CHG  1   8  -1
M  END
>  <mol_id>  (37) 
2026-09-18-3war-s0-n100-r8-0037

>  <rmsd_to_ref>  (37) 
2.107142857143628

>  <pose_kind>  (37) 
rigid

$$$$
3war.A
     RDKit          3D

 13 13  0  0  0  0  0  0  0  0999 V2000
    2.4281   19.0573   39.4735 N   0  0  0  0  0  0  0  0  0  0  0  0
    1.7592   19.4365   38.3568 C   0  0  0  0  0  0  0  0  0  0  0  0
    1.9578   20.6772   37.7847 C   0  0  0  0  0  0  0  0  0  0  0  0
    2.8624   21.5294   38.3835 C   0  0  0  0  0  0  0  0  0  0  0  0
    3.5298   21.1166   39.5208 C   0  0  0  0  0  0  0  0  0  0  0  0
    3.3140   19.8734   40.0722 C   0  0  0  0  0  0  0  0  0  0  0  0
    1.2244   21.0386   36.5967 C   0  0  0  0  0  0  0  0  0  0  0  0
    1.3708   22.2599   35.9703 O   0  0  0  0  0  0  0  0  0  0  0  0
    0.3940   20.2324   36.0630 O   0  0  0  0  0  0  0  0  0  0  0  0
    1.0374   18.7637   37.8742 H   0  0  0  0  0  0  0  0  0  0  0  0
    3.0226   22.4938   37.9466 H   0  0  0  0  0  0  0  0  0  0  0  0
    4.2322   21.8157   39.9608 H   0  0  0  0  0  0  0  0  0  0  0  0
    3.8461   19.5893   40.9487 H   0  0  0  0  0  0  0  0  0  0  0  0
  1  2  1  0
  1  6  2  0
  2  3  2  0
  3  4  1  0
  3  7  1  0
  4  5  2  0
  5  6  1  0
  7  8  1  0
  7  9  2  0
  2 10  1  0
  4 11  1  0
  5 12  1  0
  6 13  1  0
M  CHG  1   8  -1
M  END
>  <mol_id>  (38) 
2026-09-18-3war-s0-n100-r8-0038

>  <rmsd_to_ref>  (38) 
2.153061224490694

>  <pose_kind>  (38) 
conformer

$$$$
3war.A
     RDKit          3D

 13 13  0  0  0  0  0  0  0  0999 V2000
    2.9751   19.5167   40.7577 N   0  0  0  0  0  0  0  0  0  0  0  0
    2.6475   18.4472   39.8900 C   0  0  0  0  0  0  0  0  0  0  0  0
    1.6129   18.6867   38.9144 C   0  0  0  0  0  0  0  0  0  0  0  0
    0.9596   19.9050   38.8603 C   0  0  0  0  0  0  0  0  0  0  0  0
    1.3301   20.9265   39.7073 C   0  0  0  0  0  0  0  0  0  0  0  0
    2.3029   20.7076   40.6568 C   0  0  0  0  0  0  0  0  0  0  0  0
    1.1443   17.5528   38.0147 C   0  0  0  0  0  0  0  0  0  0  0  0
    1.8435   16.4988   37.9610 O   0  0  0  0  0  0  0  0  0  0  0  0
    0.1085   17.7696   37.4237 O   0  0  0  0  0  0  0  0  0  0  0  0
    3.1597   17.4760   39.9570 H   0  0  0  0  0  0  0  0  0  0  0  0
    0.1428   20.0584   38.1397 H   0  0  0  0  0  0  0  0  0  0  0  0
    0.8507   21.9131   39.6252 H   0  0  0  0  0  0  0  0  0  0  0  0
    2.5495   21.5170   41.3597 H   0  0  0  0  0  0  0  0  0  0  0  0
  1  2  1  0
  1  6  2  0
  2  3  2  0
  3  4  1  0
  3  7  1  0
  4  5  2  0
  5  6  1  0
  7  8  1  0
  7  9  2  0
  2 10  1  0
  4 11  1  0
  5 12  1  0
  6 13  1  0
M  CHG  1   8  -1
M  END
>  <mol_id>  (39) 
2026-09-18-3war-s0-n100-r8-0039

>  <rmsd_to_ref>  (39) 
2.1989795918401835

>  <pose_kind>  (39) 
rigid

$$$$
3war.A
     RDKit          3D

 13 13  0  0  0  0  0  0  0  0999 V2000
    3.9774   17.9580   38.5589 N   0  0  0  0  0  0  0  0  0  0  0  0
    3.6661   18.9611   37.6901 C   0  0  0  0  0  0  0  0  0  0  0  0
    3.1565   20.1265   38.2079 C   0  0  0  0  0  0  0  0  0  0  0  0
    2.9445   20.3329   39.5556 C   0  0  0  0  0  0  0  0  0  0  0  0
    3.2768   19.2832   40.3969 C   0  0  0  0  0  0  0  0  0  0  0  0
    3.7881   18.1134   39.8802 C   0  0  0  0  0  0  0  0  0  0  0  0
    2.8189   21.2092   37.2866 C   0  0  0  0  0  0  0  0  0  0  0  0
    2.2996   22.4169   37.7319 O   0  0  0  0  0  0  0  0  0  0  0  0
    2.9857   21.0960   36.0258 O   0  0  0  0  0  0  0  0  0  0  0  0
    3.8213   18.8323   36.6133 H   0  0  0  0  0  0  0  0  0  0  0  0
    2.5453   21.2654   39.8810 H   0  0  0  0  0  0  0  0  0  0  0  0
    3.1208   19.4177   41.4599 H   0  0  0  0  0  0  0  0  0  0  0  0
    4.0556   17.2795   40.5124 H   0  0  0  0  0  0  0  0  0  0  0  0
  1  2  1  0
  1  6  2  0
  2  3  2  0
  3  4  1  0
  3  7  1  0
  4  5  2  0
  5  6  1  0
  7  8  1  0
  7  9  2  0
  2 10  1  0
  4 11  1  0
  5 12  1  0
  6 13  1  0
M  CHG  1   8  -1
M  END
>  <mol_id>  (40) 
2026-09-18-3war-s0-n100-r8-0040

>  <rmsd_to_ref>  (40) 
2.2448979591880134

>  <pose_kind>  (40) 
conformer

$$$$
3war.A
     RDKit          3D

 13 13  0  0  0  0  0  0  0  0999 V2000
    1.3239   18.8641   37.8806 N   0  0  0  0  0  0  0  0  0  0  0  0
    2.4785   19.6492   37.6470 C   0  0  0  0  0  0  0  0  0  0  0  0
    2.5453   20.9304   38.3053 C   0  0  0  0  0  0  0  0  0  0  0  0
    1.5055   21.3703   39.1050 C   0  0  0  0  0  0  0  0  0  0  0  0
    0.4127   20.5609   39.3255 C   0  0  0  0  0  0  0  0  0  0  0  0
    0.3252   19.3430   38.6891 C   0  0  0  0  0  0  0  0  0  0  0  0
    3.7117   21.8658   38.0236 C   0  0  0  0  0  0  0  0  0  0  0  0
    4.7243   21.4011   37.4224 O   0  0  0  0  0  0  0  0  0  0  0  0
    3.5514   23.0051   38.4050 O   0  0  0  0  0  0  0  0  0  0  0  0
    3.2891   19.2973   36.9920 H   0  0  0  0  0  0  0  0  0  0  0  0
    1.5514   22.3681   39.5655 H   0  0  0  0  0  0  0  0  0  0  0  0
   -0.3868   20.8863   40.0073 H   0  0  0  0  0  0  0  0  0  0  0  0
   -0.5781   18.7324   38.8344 H   0  0  0  0  0  0  0  0  0  0  0  0
  1  2  1  0
  1  6  2  0
  2  3  2  0
  3  4  1  0
  3  7  1  0
  4  5  2  0
  5  6  1  0
  7  8  1  0
  7  9  2  0
  2 10  1  0
  4 11  1  0
  5 12  1  0
  6 13  1  0
M  CHG  1   8  -1
M  END
>  <mol_id>  (41) 
2026-09-18-3war-s0-n100-r8-0041

>  <rmsd_to_ref>  (41) 
2.2908163265319224

>  <pose_kind>  (41) 
rigid

$$$$
3war.A
     RDKit          3D

 13 13  0  0  0  0  0  0  0  0999 V2000
    3.0818   20.0852   40.7616 N   0  0  0  0  0  0  0  0  0  0  0  0
    3.5728   18.9544   40.2238 C   0  0  0  0  0  0  0  0  0  0  0  0
    3.1312   18.5351   38.9857 C   0  0  0  0  0  0  0  0  0  0  0  0
    2.1903   19.2867   38.3198 C   0  0  0  0  0  0  0  0  0  0  0  0
    1.7067   20.4422   38.8994 C   0  0  0  0  0  0  0  0  0  0  0  0
    2.1615   20.8582   40.1555 C   0  0  0  0  0  0  0  0  0  0  0  0
    3.6675   17.3074   38.4071 C   0  0  0  0  0  0  0  0  0  0  0  0
    3.2011   16.9034   37.1462 O   0  0  0  0  0  0  0  0  0  0  0  0
    4.5349   16.5966   38.9996 O   0  0  0  0  0  0  0  0  0  0  0  0
    4.3127   18.3940   40.7842 H   0  0  0  0  0  0  0  0  0  0  0  0
    1.8497   18.9632   37.3648 H   0  0  0  0  0  0  0  0  0  0  0  0
    0.9763   21.0315   38.3897 H   0  0  0  0  0  0  0  0  0  0  0  0
    1.7792   21.7655   40.6066 H   0  0  0  0  0  0  0  0  0  0  0  0
  1  2  1  0
  1  6  2  0
  2  3  2  0
  3  4  1  0
  3  7  1  0
  4  5  2  0
  5  6  1  0
  7  8  1  0
  7  9  2  0
  2 10  1  0
  4 11  1  0
  5 12  1  0
  6 13  1  0
M  CHG  1   8  -1
M  END
>  <mol_id>  (42) 
2026-09-18-3war-s0-n100-r8-0042

>  <rmsd_to_ref>  (42) 
2.3367346938815428

>  <pose_kind>  (42) 
conformer

$$$$
3war.A
     RDKit          3D

 13 13  0  0  0  0  0  0  0  0999 V2000
    1.9967   20.2447   40.4694 N   0  0  0  0  0  0  0  0  0  0  0  0
    2.9879   19.2575   40.2521 C   0  0  0  0  0  0  0  0  0  0  0  0
    3.6135   19.2303   38.9532 C   0  0  0  0  0  0  0  0  0  0  0  0
    3.2308   20.1192   37.9645 C   0  0  0  0  0  0  0  0  0  0  0  0
    2.2803   21.0807   38.2294 C   0  0  0  0  0  0  0  0  0  0  0  0
    1.6601   21.1077   39.4583 C   0  0  0  0  0  0  0  0  0  0  0  0
    4.6171   18.1365   38.6196 C   0  0  0  0  0  0  0  0  0  0  0  0
    5.0744   17.4303   39.5656 O   0  0  0  0  0  0  0  0  0  0  0  0
    4.8844   18.0359   37.4416 O   0  0  0  0  0  0  0  0  0  0  0  0
    3.2685   18.5426   41.0396 H   0  0  0  0  0  0  0  0  0  0  0  0
    3.6861   20.0581   36.9650 H   0  0  0  0  0  0  0  0  0  0  0  0
    2.0180   21.8239   37.4621 H   0  0  0  0  0  0  0  0  0  0  0  0
    0.8660   21.8481   39.6354 H   0  0  0  0  0  0  0  0  0  0  0  0
  1  2  1  0
  1  6  2  0
  2  3  2  0
  3  4  1  0
  3  7  1  0
  4  5  2  0
  5  6  1  0
  7  8  1  0
  7  9  2  0
  2 10  1  0
  4 11  1  0
  5 12  1  0
  6 13  1  0
M  CHG  1   8  -1
M  END
>  <mol_id>  (43) 
2026-09-18-3war-s0-n100-r8-0043

>  <rmsd_to_ref>  (43) 
2.3826530612259664

>  <pose_kind>  (43) 
rigid

$$$$
3war.A
     RDKit          3D

 13 13  0  0  0  0  0  0  0  0999 V2000
    0.8721   21.3259   39.3174 N   0  0  0  0  0  0  0  0  0  0  0  0
    1.4512   20.1611   38.9203 C   0  0  0  0  0  0  0  0  0  0  0  0
    2.3232   20.1758   37.8527 C   0  0  0  0  0  0  0  0  0  0  0  0
    2.6486   21.3184   37.1521 C   0  0  0  0  0  0  0  0  0  0  0  0
    2.0415   22.4945   37.5805 C   0  0  0  0  0  0  0  0  0  0  0  0
    1.1704   22.4725   38.6489 C   0  0  0  0  0  0  0  0  0  0  0  0
    2.9453   18.9061   37.4310 C   0  0  0  0  0  0  0  0  0  0  0  0
    2.6581   17.7229   38.0956 O   0  0  0  0  0  0  0  0  0  0  0  0
    3.7451   18.9011   36.4565 O   0  0  0  0  0  0  0  0  0  0  0  0
    1.2104   19.2540   39.4550 H   0  0  0  0  0  0  0  0  0  0  0  0
    3.3297   21.2887   36.3292 H   0  0  0  0  0  0  0  0  0  0  0  0
    2.2545   23.4452   37.0680 H   0  0  0  0  0  0  0  0  0  0  0  0
    0.6829   23.3875   39.0007 H   0  0  0  0  0  0  0  0  0  0  0  0
  1  2  1  0
  1  6  2  0
  2  3  2  0
  3  4  1  0
  3  7  1  0
  4  5  2  0
  5  6  1  0
  7  8  1  0
  7  9  2  0
  2 10  1  0
  4 11  1  0
  5 12  1  0
  6 13  1  0
M  CHG  1   8  -1
M  END
>  <mol_id>  (44) 
2026-09-18-3war-s0-n100-r8-0044

>  <rmsd_to_ref>  (44) 
2.428571428576538

>  <pose_kind>  (44) 
conformer

$$$$
3war.A
     RDKit          3D

 13 13  0  0  0  0  0  0  0  0999 V2000
    0.7385   17.1772   38.0382 N   0  0  0  0  0  0  0  0  0  0  0  0
    1.8817   18.0098   38.0997 C   0  0  0  0  0  0  0  0  0  0  0  0
    1.6553   19.4252   38.2574 C   0  0  0  0  0  0  0  0  0  0  0  0
    0.3701   19.9340   38.3163 C   0  0  0  0  0  0  0  0  0  0  0  0
   -0.7128   19.0831   38.2793 C   0  0  0  0  0  0  0  0  0  0  0  0
   -0.5138   17.7312   38.1099 C   0  0  0  0  0  0  0  0  0  0  0  0
    2.8338   20.3870   38.2348 C   0  0  0  0  0  0  0  0  0  0  0  0
    4.0021   19.9101   38.3372 O   0  0  0  0  0  0  0  0  0  0  0  0
    2.5331   21.5543   38.1072 O   0  0  0  0  0  0  0  0  0  0  0  0
    2.8983   17.5952   38.0304 H   0  0  0  0  0  0  0  0  0  0  0  0
    0.2126   21.0199   38.3929 H   0  0  0  0  0  0  0  0  0  0  0  0
   -1.7324   19.4822   38.3846 H   0  0  0  0  0  0  0  0  0  0  0  0
   -1.3907   17.0721   38.0293 H   0  0  0  0  0  0  0  0  0  0  0  0
  1  2  1  0
  1  6  2  0
  2  3  2  0
  3  4  1  0
  3  7  1  0
  4  5  2  0
  5  6  1  0
  7  8  1  0
  7  9  2  0
  2 10  1  0
  4 11  1  0
  5 12  1  0
  6 13  1  0
M  CHG  1   8  -1
M  END
>  <mol_id>  (45) 
2026-09-18-3war-s0-n100-r8-0045

>  <rmsd_to_ref>  (45) 
2.474489795919932

>  <pose_kind>  (45) 
rigid

$$$$
3war.A
     RDKit          3D

 13 13  0  0  0  0  0  0  0  0999 V2000
    3.1183   18.9516   38.7539 N   0  0  0  0  0  0  0  0  0  0  0  0
    2.1585   19.3886   37.9021 C   0  0  0  0  0  0  0  0  0  0  0  0
    2.0107   20.7538   37.7474 C   0  0  0  0  0  0  0  0  0  0  0  0
    2.7882   21.6776   38.4143 C   0  0  0  0  0  0  0  0  0  0  0  0
    3.7571   21.1972   39.2749 C   0  0  0  0  0  0  0  0  0  0  0  0
    3.9001   19.8178   39.4256 C   0  0  0  0  0  0  0  0  0  0  0  0
    0.9886   21.2644   36.8394 C   0  0  0  0  0  0  0  0  0  0  0  0
    0.1604   20.3801   36.1272 O   0  0  0  0  0  0  0  0  0  0  0  0
    0.8619   22.5210   36.7052 O   0  0  0  0  0  0  0  0  0  0  0  0
    1.5241   18.7029   37.3567 H   0  0  0  0  0  0  0  0  0  0  0  0
    2.6702   22.7544   38.2911 H   0  0  0  0  0  0  0  0  0  0  0  0
    4.4187   21.8181   39.8454 H   0  0  0  0  0  0  0  0  0  0  0  0
    4.6443   19.3862   40.0878 H   0  0  0  0  0  0  0  0  0  0  0  0
  1  2  1  0
  1  6  2  0
  2  3  2  0
  3  4  1  0
  3  7  1  0
  4  5  2  0
  5  6  1  0
  7  8  1  0
  7  9  2  0
  2 10  1  0
  4 11  1  0
  5 12  1  0
  6 13  1  0
M  CHG  1   8  -1
M  END
>  <mol_id>  (46) 
2026-09-18-3war-s0-n100-r8-0046

>  <rmsd_to_ref>  (46) 
2.5204081632668847

>  <pose_kind>  (46) 
conformer

$$$$
3war.A
     RDKit          3D

 13 13  0  0  0  0  0  0  0  0999 V2000
    1.2170   21.3595   42.5801 N   0  0  0  0  0  0  0  0  0  0  0  0
    2.0126   21.5481   41.4245 C   0  0  0  0  0  0  0  0  0  0  0  0
    1.7707   20.6659   40.3098 C   0  0  0  0  0  0  0  0  0  0  0  0
    0.8180   19.6661   40.3924 C   0  0  0  0  0  0  0  0  0  0  0  0
    0.0482   19.5366   41.5276 C   0  0  0  0  0  0  0  0  0  0  0  0
    0.2800   20.3587   42.6075 C   0  0  0  0  0  0  0  0  0  0  0  0
    2.6530   20.7498   39.0732 C   0  0  0  0  0  0  0  0  0  0  0  0
    3.4100   21.7558   38.9411 O   0  0  0  0  0  0  0  0  0  0  0  0
    2.5509   19.8113   38.3130 O   0  0  0  0  0  0  0  0  0  0  0  0
    2.7817   22.3333   41.3789 H   0  0  0  0  0  0  0  0  0  0  0  0
    0.6749   18.9732   39.5501 H   0  0  0  0  0  0  0  0  0  0  0  0
   -0.7484   18.7793   41.5711 H   0  0  0  0  0  0  0  0  0  0  0  0
   -0.3075   20.2073   43.5251 H   0  0  0  0  0  0  0  0  0  0  0  0
  1  2  1  0
  1  6  2  0
  2  3  2  0
  3  4  1  0
  3  7  1  0
  4  5  2  0
  5  6  1  0
  7  8  1  0
  7  9  2  0
  2 10  1  0
  4 11  1  0
  5 12  1  0
  6 13  1  0
M  CHG  1   8  -1
M  END
>  <mol_id>  (47) 
2026-09-18-3war-s0-n100-r8-0047

>  <rmsd_to_ref>  (47) 
2.566326530612983

>  <pose_kind>  (47) 
rigid

$$$$
3war.A
     RDKit          3D

 13 13  0  0  0  0  0  0  0  0999 V2000
    2.0115   18.4772   42.0255 N   0  0  0  0  0  0  0  0  0  0  0  0
    2.2061   18.9880   40.7753 C   0  0  0  0  0  0  0  0  0  0  0  0
    1.5847   18.3823   39.6871 C   0  0  0  0  0  0  0  0  0  0  0  0
    0.7716   17.2748   39.8244 C   0  0  0  0  0  0  0  0  0  0  0  0
    0.5935   16.7802   41.1037 C   0  0  0  0  0  0  0  0  0  0  0  0
    1.2146   17.3870   42.1842 C   0  0  0  0  0  0  0  0  0  0  0  0
    1.7961   18.9359   38.3349 C   0  0  0  0  0  0  0  0  0  0  0  0
    2.6097   20.0499   38.1692 O   0  0  0  0  0  0  0  0  0  0  0  0
    1.2175   18.3610   37.3762 O   0  0  0  0  0  0  0  0  0  0  0  0
    2.8436   19.8560   40.6691 H   0  0  0  0  0  0  0  0  0  0  0  0
    0.2754   16.7791   39.0154 H   0  0  0  0  0  0  0  0  0  0  0  0
   -0.0336   15.9107   41.2853 H   0  0  0  0  0  0  0  0  0  0  0  0
    1.1012   17.0305   43.2044 H   0  0  0  0  0  0  0  0  0  0  0  0
  1  2  1  0
  1  6  2  0
  2  3  2  0
  3  4  1  0
  3  7  1  0
  4  5  2  0
  5  6  1  0
  7  8  1  0
  7  9  2  0
  2 10  1  0
  4 11  1  0
  5 12  1  0
  6 13  1  0
M  CHG  1   8  -1
M  END
>  <mol_id>  (48) 
2026-09-18-3war-s0-n100-r8-0048

>  <rmsd_to_ref>  (48) 
2.6122448979601933

>  <pose_kind>  (48) 
conformer

$$$$
3war.A
     RDKit          3D

 13 13  0  0  0  0  0  0  0  0999 V2000
    2.9345   20.2853   39.5751 N   0  0  0  0  0  0  0  0  0  0  0  0
    2.1143   19.4340   38.7964 C   0  0  0  0  0  0  0  0  0  0  0  0
    0.7313   19.8133   38.6452 C   0  0  0  0  0  0  0  0  0  0  0  0
    0.2370   20.9479   39.2636 C   0  0  0  0  0  0  0  0  0  0  0  0
    1.0784   21.7615   39.9903 C   0  0  0  0  0  0  0  0  0  0  0  0
    2.3969   21.4031   40.1598 C   0  0  0  0  0  0  0  0  0  0  0  0
   -0.2280   18.8955   37.9022 C   0  0  0  0  0  0  0  0  0  0  0  0
    0.2556   17.9498   37.2134 O   0  0  0  0  0  0  0  0  0  0  0  0
   -1.4014   19.1595   38.0530 O   0  0  0  0  0  0  0  0  0  0  0  0
    2.5143   18.5231   38.3272 H   0  0  0  0  0  0  0  0  0  0  0  0
   -0.8299   21.2008   39.1749 H   0  0  0  0  0  0  0  0  0  0  0  0
    0.6983   22.6938   40.4333 H   0  0  0  0  0  0  0  0  0  0  0  0
    3.0421   22.0361   40.7867 H   0  0  0  0  0  0  0  0  0  0  0  0
  1  2  1  0
  1  6  2  0
  2  3  2  0
  3  4  1  0
  3  7  1  0
  4  5  2  0
  5  6  1  0
  7  8  1  0
  7  9  2  0
  2 10  1  0
  4 11  1  0
  5 12  1  0
  6 13  1  0
M  CHG  1   8  -1
M  END
>  <mol_id>  (49) 
2026-09-18-3war-s0-n100-r8-0049

>  <rmsd_to_ref>  (49) 
2.658163265310332

>  <pose_kind>  (49) 
rigid

$$$$
3war.A
     RDKit          3D

 13 13  0  0  0  0  0  0  0  0999 V2000
   -0.0773   20.1404   36.7679 N   0  0  0  0  0  0  0  0  0  0  0  0
    1.1929   19.6983   36.7417 C   0  0  0  0  0  0  0  0  0  0  0  0
    2.1803   20.3470   37.4891 C   0  0  0  0  0  0  0  0  0  0  0  0
    1.7989   21.4415   38.2410 C   0  0  0  0  0  0  0  0  0  0  0  0
    0.4884   21.8667   38.2441 C   0  0  0  0  0  0  0  0  0  0  0  0
   -0.4601   21.2031   37.4948 C   0  0  0  0  0  0  0  0  0  0  0  0
    3.5560   19.8786   37.4688 C   0  0  0  0  0  0  0  0  0  0  0  0
    3.8805   18.7767   36.6970 O   0  0  0  0  0  0  0  0  0  0  0  0
    4.3936   20.5076   38.1637 O   0  0  0  0  0  0  0  0  0  0  0  0
    1.4647   18.8326   36.1396 H   0  0  0  0  0  0  0  0  0  0  0  0
    2.5557   21.9515   38.8237 H   0  0  0  0  0  0  0  0  0  0  0  0
    0.1826   22.7294   38.8354 H   0  0  0  0  0  0  0  0  0  0  0  0
   -1.4905   21.5371   37.4971 H   0  0  0  0  0  0  0  0  0  0  0  0
  1  2  1  0
  1  6  2  0
  2  3  2  0
  3  4  1  0
  3  7  1  0
  4  5  2  0
  5  6  1  0
  7  8  1  0
  7  9  2  0
  2 10  1  0
  4 11  1  0
  5 12  1  0
  6 13  1  0
M  CHG  1   8  -1
M  END
>  <mol_id>  (50) 
2026-09-18-3war-s0-n100-r8-0050

>  <rmsd_to_ref>  (50) 
2.704081632654273

>  <pose_kind>  (50) 
conformer

$$$$
3war.A
     RDKit          3D

 13 13  0  0  0  0  0  0  0  0999 V2000
    0.5218   19.7718   39.4026 N   0  0  0  0  0  0  0  0  0  0  0  0
    0.6880   18.4589   38.8998 C   0  0  0  0  0  0  0  0  0  0  0  0
    1.9379   18.1598   38.2458 C   0  0  0  0  0  0  0  0  0  0  0  0
    2.9107   19.1326   38.0998 C   0  0  0  0  0  0  0  0  0  0  0  0
    2.7163   20.3898   38.6288 C   0  0  0  0  0  0  0  0  0  0  0  0
    1.5209   20.6966   39.2392 C   0  0  0  0  0  0  0  0  0  0  0  0
    2.1462   16.7990   37.5983 C   0  0  0  0  0  0  0  0  0  0  0  0
    1.3265   15.8725   37.8673 O   0  0  0  0  0  0  0  0  0  0  0  0
    3.1017   16.7320   36.8555 O   0  0  0  0  0  0  0  0  0  0  0  0
   -0.1017   17.7002   39.0035 H   0  0  0  0  0  0  0  0  0  0  0  0
    3.8412   18.9019   37.5604 H   0  0  0  0  0  0  0  0  0  0  0  0
    3.5130   21.1455   38.5637 H   0  0  0  0  0  0  0  0  0  0  0  0
    1.3617   21.7203   39.6091 H   0  0  0  0  0  0  0  0  0  0  0  0
  1  2  1  0
  1  6  2  0
  2  3  2  0
  3  4  1  0
  3  7  1  0
  4  5  2  0
  5  6  1  0
  7  8  1  0
  7  9  2  0
  2 10  1  0
  4 11  1  0
  5 12  1  0
  6 13  1  0
M  CHG  1   8  -1
M  END
>  <mol_id>  (51) 
2026-09-18-3war-s0-n100-r8-0051

>  <rmsd_to_ref>  (51) 
2.7500000000041815

>  <pose_kind>  (51) 
rigid

$$$$
3war.A
     RDKit          3D

 13 13  0  0  0  0  0  0  0  0999 V2000
   -0.5066   19.5833   37.2386 N   0  0  0  0  0  0  0  0  0  0  0  0
    0.4713   18.6692   37.0371 C   0  0  0  0  0  0  0  0  0  0  0  0
    1.7446   18.8564   37.5429 C   0  0  0  0  0  0  0  0  0  0  0  0
    2.0115   20.0176   38.2748 C   0  0  0  0  0  0  0  0  0  0  0  0
    0.9836   20.9436   38.4671 C   0  0  0  0  0  0  0  0  0  0  0  0
   -0.2779   20.7109   37.9397 C   0  0  0  0  0  0  0  0  0  0  0  0
    2.7849   17.8568   37.3134 C   0  0  0  0  0  0  0  0  0  0  0  0
    4.0529   18.0741   37.8344 O   0  0  0  0  0  0  0  0  0  0  0  0
    2.4997   16.8095   36.6393 O   0  0  0  0  0  0  0  0  0  0  0  0
    0.2476   17.7634   36.4614 H   0  0  0  0  0  0  0  0  0  0  0  0
    3.0028   20.1956   38.6866 H   0  0  0  0  0  0  0  0  0  0  0  0
    1.1482   21.8589   39.0295 H   0  0  0  0  0  0  0  0  0  0  0  0
   -1.1063   21.3873   38.0557 H   0  0  0  0  0  0  0  0  0  0  0  0
  1  2  1  0
  1  6  2  0
  2  3  2  0
  3  4  1  0
  3  7  1  0
  4  5  2  0
  5  6  1  0
  7  8  1  0
  7  9  2  0
  2 10  1  0
  4 11  1  0
  5 12  1  0
  6 13  1  0
M  CHG  1   8  -1
M  END
>  <mol_id>  (52) 
2026-09-18-3war-s0-n100-r8-0052

>  <rmsd_to_ref>  (52) 
2.795918367347733

>  <pose_kind>  (52) 
conformer

$$$$
3war.A
     RDKit          3D

 13 13  0  0  0  0  0  0  0  0999 V2000
    3.6274   20.8620   40.6543 N   0  0  0  0  0  0  0  0  0  0  0  0
    3.4016   19.5050   40.3203 C   0  0  0  0  0  0  0  0  0  0  0  0
    3.6465   19.1159   38.9535 C   0  0  0  0  0  0  0  0  0  0  0  0
    4.0572   20.0463   38.0156 C   0  0  0  0  0  0  0  0  0  0  0  0
    4.2901   21.3509   38.3919 C   0  0  0  0  0  0  0  0  0  0  0  0
    4.0427   21.7424   39.6886 C   0  0  0  0  0  0  0  0  0  0  0  0
    3.3333   17.6968   38.5032 C   0  0  0  0  0  0  0  0  0  0  0  0
    3.1099   16.8198   39.3885 O   0  0  0  0  0  0  0  0  0  0  0  0
    3.3173   17.5381   37.3016 O   0  0  0  0  0  0  0  0  0  0  0  0
    3.0546   18.7792   41.0705 H   0  0  0  0  0  0  0  0  0  0  0  0
    4.1981   19.7438   36.9674 H   0  0  0  0  0  0  0  0  0  0  0  0
    4.6723   22.0771   37.6593 H   0  0  0  0  0  0  0  0  0  0  0  0
    4.1833   22.7992   39.9594 H   0  0  0  0  0  0  0  0  0  0  0  0
  1  2  1  0
  1  6  2  0
  2  3  2  0
  3  4  1  0
  3  7  1  0
  4  5  2  0
  5  6  1  0
  7  8  1  0
  7  9  2  0
  2 10  1  0
  4 11  1  0
  5 12  1  0
  6 13  1  0
M  CHG  1   8  -1
M  END
>  <mol_id>  (53) 
2026-09-18-3war-s0-n100-r8-0053

>  <rmsd_to_ref>  (53) 
2.841836734696101

>  <pose_kind>  (53) 
rigid

$$$$
3war.A
     RDKit          3D

 13 13  0  0  0  0  0  0  0  0999 V2000
    1.2202   19.7317   38.1617 N   0  0  0  0  0  0  0  0  0  0  0  0
    2.3393   19.0576   38.4751 C   0  0  0  0  0  0  0  0  0  0  0  0
    3.5742   19.4552   37.9599 C   0  0  0  0  0  0  0  0  0  0  0  0
    3.5865   20.5552   37.1279 C   0  0  0  0  0  0  0  0  0  0  0  0
    2.4381   21.2488   36.8048 C   0  0  0  0  0  0  0  0  0  0  0  0
    1.2405   20.7960   37.3552 C   0  0  0  0  0  0  0  0  0  0  0  0
    4.7654   18.7036   38.3192 C   0  0  0  0  0  0  0  0  0  0  0  0
    5.9768   19.1575   37.7656 O   0  0  0  0  0  0  0  0  0  0  0  0
    4.7738   17.7080   39.0688 O   0  0  0  0  0  0  0  0  0  0  0  0
    2.2472   18.2006   39.1378 H   0  0  0  0  0  0  0  0  0  0  0  0
    4.5313   20.8775   36.7200 H   0  0  0  0  0  0  0  0  0  0  0  0
    2.4559   22.1099   36.1521 H   0  0  0  0  0  0  0  0  0  0  0  0
    0.3068   21.2864   37.1480 H   0  0  0  0  0  0  0  0  0  0  0  0
  1  2  1  0
  1  6  2  0
  2  3  2  0
  3  4  1  0
  3  7  1  0
  4  5  2  0
  5  6  1  0
  7  8  1  0
  7  9  2  0
  2 10  1  0
  4 11  1  0
  5 12  1  0
  6 13  1  0
M  CHG  1   8  -1
M  END
>  <mol_id>  (54) 
2026-09-18-3war-s0-n100-r8-0054

>  <rmsd_to_ref>  (54) 
2.887755102041468

>  <pose_kind>  (54) 
conformer

$$$$
3war.A
     RDKit          3D

 13 13  0  0  0  0  0  0  0  0999 V2000
    1.5587   19.5285   39.0401 N   0  0  0  0  0  0  0  0  0  0  0  0
    2.8382   19.2587   39.5825 C   0  0  0  0  0  0  0  0  0  0  0  0
    3.7198   20.3833   39.7756 C   0  0  0  0  0  0  0  0  0  0  0  0
    3.3273   21.6602   39.4156 C   0  0  0  0  0  0  0  0  0  0  0  0
    2.0623   21.8797   38.9161 C   0  0  0  0  0  0  0  0  0  0  0  0
    1.2157   20.8140   38.7079 C   0  0  0  0  0  0  0  0  0  0  0  0
    5.1423   20.1543   40.2641 C   0  0  0  0  0  0  0  0  0  0  0  0
    5.4415   19.0179   40.7350 O   0  0  0  0  0  0  0  0  0  0  0  0
    5.8797   21.1088   40.1432 O   0  0  0  0  0  0  0  0  0  0  0  0
    3.1464   18.2359   39.8450 H   0  0  0  0  0  0  0  0  0  0  0  0
    4.0266   22.5018   39.5284 H   0  0  0  0  0  0  0  0  0  0  0  0
    1.7299   22.9023   38.6844 H   0  0  0  0  0  0  0  0  0  0  0  0
    0.2289   21.0004   38.2590 H   0  0  0  0  0  0  0  0  0  0  0  0
  1  2  1  0
  1  6  2  0
  2  3  2  0
  3  4  1  0
  3  7  1  0
  4  5  2  0
  5  6  1  0
  7  8  1  0
  7  9  2  0
  2 10  1  0
  4 11  1  0
  5 12  1  0
  6 13  1  0
M  CHG  1   8  -1
M  END
>  <mol_id>  (55) 
2026-09-18-3war-s0-n100-r8-0055

>  <rmsd_to_ref>  (55) 
2.933673469391461

>  <pose_kind>  (55) 
rigid

$$$$
3war.A
     RDKit          3D

 13 13  0  0  0  0  0  0  0  0999 V2000
   -0.1680   19.3223   42.0193 N   0  0  0  0  0  0  0  0  0  0  0  0
    0.1708   19.2575   40.7006 C   0  0  0  0  0  0  0  0  0  0  0  0
    1.1614   18.3804   40.3325 C   0  0  0  0  0  0  0  0  0  0  0  0
    1.8277   17.5655   41.2246 C   0  0  0  0  0  0  0  0  0  0  0  0
    1.4467   17.6689   42.5528 C   0  0  0  0  0  0  0  0  0  0  0  0
    0.4537   18.5477   42.9246 C   0  0  0  0  0  0  0  0  0  0  0  0
    1.5334   18.3019   38.9217 C   0  0  0  0  0  0  0  0  0  0  0  0
    2.5243   17.4408   38.4706 O   0  0  0  0  0  0  0  0  0  0  0  0
    0.9640   19.0227   38.0348 O   0  0  0  0  0  0  0  0  0  0  0  0
   -0.3372   19.8899   39.9642 H   0  0  0  0  0  0  0  0  0  0  0  0
    2.5855   16.9104   40.8622 H   0  0  0  0  0  0  0  0  0  0  0  0
    1.9532   17.0408   43.2749 H   0  0  0  0  0  0  0  0  0  0  0  0
    0.1368   18.6488   43.9522 H   0  0  0  0  0  0  0  0  0  0  0  0
  1  2  1  0
  1  6  2  0
  2  3  2  0
  3  4  1  0
  3  7  1  0
  4  5  2  0
  5  6  1  0
  7  8  1  0
  7  9  2  0
  2 10  1  0
  4 11  1  0
  5 12  1  0
  6 13  1  0
M  CHG  1   8  -1
M  END
>  <mol_id>  (56) 
2026-09-18-3war-s0-n100-r8-0056

>  <rmsd_to_ref>  (56) 
2.979591836735696

>  <pose_kind>  (56) 
conformer

$$$$
3war.A
     RDKit          3D

 13 13  0  0  0  0  0  0  0  0999 V2000
    2.1864   19.6171   38.6609 N   0  0  0  0  0  0  0  0  0  0  0  0
    2.7457   20.7747   38.0681 C   0  0  0  0  0  0  0  0  0  0  0  0
    4.0543   21.1770   38.5208 C   0  0  0  0  0  0  0  0  0  0  0  0
    4.7094   20.4677   39.5118 C   0  0  0  0  0  0  0  0  0  0  0  0
    4.1382   19.3314   40.0414 C   0  0  0  0  0  0  0  0  0  0  0  0
    2.8812   18.9450   39.6335 C   0  0  0  0  0  0  0  0  0  0  0  0
    4.6737   22.4639   37.9965 C   0  0  0  0  0  0  0  0  0  0  0  0
    4.1467   23.0181   36.9877 O   0  0  0  0  0  0  0  0  0  0  0  0
    5.6373   22.8535   38.6201 O   0  0  0  0  0  0  0  0  0  0  0  0
    2.2056   21.3423   37.2960 H   0  0  0  0  0  0  0  0  0  0  0  0
    5.6881   20.8117   39.8775 H   0  0  0  0  0  0  0  0  0  0  0  0
    4.6842   18.7351   40.7872 H   0  0  0  0  0  0  0  0  0  0  0  0
    2.4177   18.0657   40.1046 H   0  0  0  0  0  0  0  0  0  0  0  0
  1  2  1  0
  1  6  2  0
  2  3  2  0
  3  4  1  0
  3  7  1  0
  4  5  2  0
  5  6  1  0
  7  8  1  0
  7  9  2  0
  2 10  1  0
  4 11  1  0
  5 12  1  0
  6 13  1  0
M  CHG  1   8  -1
M  END
>  <mol_id>  (57) 
2026-09-18-3war-s0-n100-r8-0057

>  <rmsd_to_ref>  (57) 
3.025510204084344

>  <pose_kind>  (57) 
rigid

$$$$
3war.A
     RDKit          3D

 13 13  0  0  0  0  0  0  0  0999 V2000
    3.0950   18.0785   38.3937 N   0  0  0  0  0  0  0  0  0  0  0  0
    3.5880   19.3334   38.3382 C   0  0  0  0  0  0  0  0  0  0  0  0
    3.9179   20.0514   39.4693 C   0  0  0  0  0  0  0  0  0  0  0  0
    3.7378   19.4661   40.7056 C   0  0  0  0  0  0  0  0  0  0  0  0
    3.2310   18.1761   40.7590 C   0  0  0  0  0  0  0  0  0  0  0  0
    2.9073   17.4771   39.5964 C   0  0  0  0  0  0  0  0  0  0  0  0
    4.4444   21.4022   39.3122 C   0  0  0  0  0  0  0  0  0  0  0  0
    4.7876   22.1540   40.4414 O   0  0  0  0  0  0  0  0  0  0  0  0
    4.6003   21.9162   38.1729 O   0  0  0  0  0  0  0  0  0  0  0  0
    3.7365   19.8111   37.3694 H   0  0  0  0  0  0  0  0  0  0  0  0
    3.9999   20.0404   41.5664 H   0  0  0  0  0  0  0  0  0  0  0  0
    3.0846   17.7047   41.7206 H   0  0  0  0  0  0  0  0  0  0  0  0
    2.5121   16.4692   39.6584 H   0  0  0  0  0  0  0  0  0  0  0  0
  1  2  1  0
  1  6  2  0
  2  3  2  0
  3  4  1  0
  3  7  1  0
  4  5  2  0
  5  6  1  0
  7  8  1  0
  7  9  2  0
  2 10  1  0
  4 11  1  0
  5 12  1  0
  6 13  1  0
M  CHG  1   8  -1
M  END
>  <mol_id>  (58) 
2026-09-18-3war-s0-n100-r8-0058

>  <rmsd_to_ref>  (58) 
3.0714285714320915

>  <pose_kind>  (58) 
conformer

$$$$
3war.A
     RDKit          3D

 13 13  0  0  0  0  0  0  0  0999 V2000
   -1.3146   20.0017   40.4775 N   0  0  0  0  0  0  0  0  0  0  0  0
   -0.0432   20.6235   40.4470 C   0  0  0  0  0  0  0  0  0  0  0  0
    0.7067   20.5245   39.2193 C   0  0  0  0  0  0  0  0  0  0  0  0
    0.2033   19.8251   38.1370 C   0  0  0  0  0  0  0  0  0  0  0  0
   -1.0507   19.2584   38.2027 C   0  0  0  0  0  0  0  0  0  0  0  0
   -1.7712   19.3278   39.3740 C   0  0  0  0  0  0  0  0  0  0  0  0
    2.1187   21.0865   39.1479 C   0  0  0  0  0  0  0  0  0  0  0  0
    2.5093   21.8528   40.0768 O   0  0  0  0  0  0  0  0  0  0  0  0
    2.7588   20.7280   38.1829 O   0  0  0  0  0  0  0  0  0  0  0  0
    0.3552   21.1588   41.3215 H   0  0  0  0  0  0  0  0  0  0  0  0
    0.8053   19.7212   37.2223 H   0  0  0  0  0  0  0  0  0  0  0  0
   -1.4748   18.7524   37.3228 H   0  0  0  0  0  0  0  0  0  0  0  0
   -2.7479   18.8246   39.4264 H   0  0  0  0  0  0  0  0  0  0  0  0
  1  2  1  0
  1  6  2  0
  2  3  2  0
  3  4  1  0
  3  7  1  0
  4  5  2  0
  5  6  1  0
  7  8  1  0
  7  9  2  0
  2 10  1  0
  4 11  1  0
  5 12  1  0
  6 13  1  0
M  CHG  1   8  -1
M  END
>  <mol_id>  (59) 
2026-09-18-3war-s0-n100-r8-0059

>  <rmsd_to_ref>  (59) 
3.117346938778309

>  <pose_kind>  (59) 
rigid

$$$$
3war.A
     RDKit          3D

 13 13  0  0  0  0  0  0  0  0999 V2000
    3.4031   17.6360   38.1851 N   0  0  0  0  0  0  0  0  0  0  0  0
    3.5459   18.9596   37.9284 C   0  0  0  0  0  0  0  0  0  0  0  0
    2.8167   19.5836   36.9358 C   0  0  0  0  0  0  0  0  0  0  0  0
    1.9309   18.8192   36.2050 C   0  0  0  0  0  0  0  0  0  0  0  0
    1.8059   17.4726   36.4882 C   0  0  0  0  0  0  0  0  0  0  0  0
    2.5450   16.8737   37.4838 C   0  0  0  0  0  0  0  0  0  0  0  0
    3.0008   20.9939   36.6974 C   0  0  0  0  0  0  0  0  0  0  0  0
    2.3076   21.6842   35.7236 O   0  0  0  0  0  0  0  0  0  0  0  0
    3.8261   21.6776   37.3872 O   0  0  0  0  0  0  0  0  0  0  0  0
    4.2491   19.5750   38.5059 H   0  0  0  0  0  0  0  0  0  0  0  0
    1.3612   19.2950   35.4331 H   0  0  0  0  0  0  0  0  0  0  0  0
    1.0991   16.9072   35.8913 H   0  0  0  0  0  0  0  0  0  0  0  0
    2.4225   15.8340   37.6741 H   0  0  0  0  0  0  0  0  0  0  0  0
  1  2  1  0
  1  6  2  0
  2  3  2  0
  3  4  1  0
  3  7  1  0
  4  5  2  0
  5  6  1  0
  7  8  1  0
  7  9  2  0
  2 10  1  0
  4 11  1  0
  5 12  1  0
  6 13  1  0
M  CHG  1   8  -1
M  END
>  <mol_id>  (60) 
2026-09-18-3war-s0-n100-r8-0060

>  <rmsd_to_ref>  (60) 
3.163265306124351

>  <pose_kind>  (60) 
conformer

$$$$
3war.A
     RDKit          3D

 13 13  0  0  0  0  0  0  0  0999 V2000
    2.0275   22.7043   40.9796 N   0  0  0  0  0  0  0  0  0  0  0  0
    1.8603   21.4175   40.4136 C   0  0  0  0  0  0  0  0  0  0  0  0
    3.0245   20.5683   40.3585 C   0  0  0  0  0  0  0  0  0  0  0  0
    4.2501   21.0170   40.8175 C   0  0  0  0  0  0  0  0  0  0  0  0
    4.3602   22.2674   41.3853 C   0  0  0  0  0  0  0  0  0  0  0  0
    3.2624   23.0973   41.4280 C   0  0  0  0  0  0  0  0  0  0  0  0
    2.9390   19.2107   39.6770 C   0  0  0  0  0  0  0  0  0  0  0  0
    1.7939   18.7461   39.4024 O   0  0  0  0  0  0  0  0  0  0  0  0
    4.0095   18.6913   39.4459 O   0  0  0  0  0  0  0  0  0  0  0  0
    0.8851   21.0802   40.0326 H   0  0  0  0  0  0  0  0  0  0  0  0
    5.1383   20.3741   40.7291 H   0  0  0  0  0  0  0  0  0  0  0  0
    5.3215   22.6015   41.8028 H   0  0  0  0  0  0  0  0  0  0  0  0
    3.3801   24.1118   41.8364 H   0  0  0  0  0  0  0  0  0  0  0  0
  1  2  1  0
  1  6  2  0
  2  3  2  0
  3  4  1  0
  3  7  1  0
  4  5  2  0
  5  6  1  0
  7  8  1  0
  7  9  2  0
  2 10  1  0
  4 11  1  0
  5 12  1  0
  6 13  1  0
M  CHG  1   8  -1
M  END
>  <mol_id>  (61) 
2026-09-18-3war-s0-n100-r8-0061

>  <rmsd_to_ref>  (61) 
3.209183673471961

>  <pose_kind>  (61) 
rigid

$$$$
3war.A
     RDKit          3D

 13 13  0  0  0  0  0  0  0  0999 V2000
    6.0774   20.9314   37.9109 N   0  0  0  0  0  0  0  0  0  0  0  0
    5.1419   20.0750   37.4493 C   0  0  0  0  0  0  0  0  0  0  0  0
    3.9086   20.0225   38.0656 C   0  0  0  0  0  0  0  0  0  0  0  0
    3.5893   20.8281   39.1570 C   0  0  0  0  0  0  0  0  0  0  0  0
    4.5706   21.6965   39.6071 C   0  0  0  0  0  0  0  0  0  0  0  0
    5.8177   21.7435   38.9772 C   0  0  0  0  0  0  0  0  0  0  0  0
    2.9064   19.0747   37.5364 C   0  0  0  0  0  0  0  0  0  0  0  0
    1.6499   19.0107   38.1522 O   0  0  0  0  0  0  0  0  0  0  0  0
    3.1836   18.3290   36.5362 O   0  0  0  0  0  0  0  0  0  0  0  0
    5.4047   19.4548   36.5997 H   0  0  0  0  0  0  0  0  0  0  0  0
    2.6379   20.7905   39.6356 H   0  0  0  0  0  0  0  0  0  0  0  0
    4.3700   22.3512   40.4618 H   0  0  0  0  0  0  0  0  0  0  0  0
    6.5817   22.4274   39.3365 H   0  0  0  0  0  0  0  0  0  0  0  0
  1  2  1  0
  1  6  2  0
  2  3  2  0
  3  4  1  0
  3  7  1  0
  4  5  2  0
  5  6  1  0
  7  8  1  0
  7  9  2  0
  2 10  1  0
  4 11  1  0
  5 12  1  0
  6 13  1  0
M  CHG  1   8  -1
M  END
>  <mol_id>  (62) 
2026-09-18-3war-s0-n100-r8-0062

>  <rmsd_to_ref>  (62) 
3.2551020408181226

>  <pose_kind>  (62) 
conformer

$$$$
3war.A
     RDKit          3D

 13 13  0  0  0  0  0  0  0  0999 V2000
    3.6317   17.7266   39.8925 N   0  0  0  0  0  0  0  0  0  0  0  0
    2.3895   18.3192   39.5612 C   0  0  0  0  0  0  0  0  0  0  0  0
    1.9732   19.4541   40.3474 C   0  0  0  0  0  0  0  0  0  0  0  0
    2.7523   19.9139   41.3942 C   0  0  0  0  0  0  0  0  0  0  0  0
    3.9671   19.3227   41.6636 C   0  0  0  0  0  0  0  0  0  0  0  0
    4.3699   18.2264   40.9344 C   0  0  0  0  0  0  0  0  0  0  0  0
    0.6070   20.0795   40.1088 C   0  0  0  0  0  0  0  0  0  0  0  0
   -0.0266   19.7597   39.0605 O   0  0  0  0  0  0  0  0  0  0  0  0
    0.2395   20.8412   40.9771 O   0  0  0  0  0  0  0  0  0  0  0  0
    1.7690   17.9310   38.7400 H   0  0  0  0  0  0  0  0  0  0  0  0
    2.4011   20.7531   42.0125 H   0  0  0  0  0  0  0  0  0  0  0  0
    4.6128   19.7249   42.4581 H   0  0  0  0  0  0  0  0  0  0  0  0
    5.3178   17.7339   41.1970 H   0  0  0  0  0  0  0  0  0  0  0  0
  1  2  1  0
  1  6  2  0
  2  3  2  0
  3  4  1  0
  3  7  1  0
  4  5  2  0
  5  6  1  0
  7  8  1  0
  7  9  2  0
  2 10  1  0
  4 11  1  0
  5 12  1  0
  6 13  1  0
M  CHG  1   8  -1
M  END
>  <mol_id>  (63) 
2026-09-18-3war-s0-n100-r8-0063

>  <rmsd_to_ref>  (63) 
3.3010204081669006

>  <pose_kind>  (63) 
rigid

$$$$
3war.A
     RDKit          3D

 13 13  0  0  0  0  0  0  0  0999 V2000
   -0.5715   18.6601   38.8723 N   0  0  0  0  0  0  0  0  0  0  0  0
    0.0735   19.7327   38.3746 C   0  0  0  0  0  0  0  0  0  0  0  0
    0.6280   19.6679   37.1044 C   0  0  0  0  0  0  0  0  0  0  0  0
    0.4993   18.5031   36.3922 C   0  0  0  0  0  0  0  0  0  0  0  0
   -0.1619   17.4261   36.9215 C   0  0  0  0  0  0  0  0  0  0  0  0
   -0.7077   17.5052   38.1850 C   0  0  0  0  0  0  0  0  0  0  0  0
    1.3198   20.8500   36.5976 C   0  0  0  0  0  0  0  0  0  0  0  0
    1.8715   20.7527   35.3056 O   0  0  0  0  0  0  0  0  0  0  0  0
    1.4367   21.9164   37.2518 O   0  0  0  0  0  0  0  0  0  0  0  0
    0.1741   20.6610   38.9467 H   0  0  0  0  0  0  0  0  0  0  0  0
    0.9419   18.4794   35.4020 H   0  0  0  0  0  0  0  0  0  0  0  0
   -0.2423   16.5175   36.3221 H   0  0  0  0  0  0  0  0  0  0  0  0
   -1.2288   16.6938   38.6339 H   0  0  0  0  0  0  0  0  0  0  0  0
  1  2  1  0
  1  6  2  0
  2  3  2  0
  3  4  1  0
  3  7  1  0
  4  5  2  0
  5  6  1  0
  7  8  1  0
  7  9  2  0
  2 10  1  0
  4 11  1  0
  5 12  1  0
  6 13  1  0
M  CHG  1   8  -1
M  END
>  <mol_id>  (64) 
2026-09-18-3war-s0-n100-r8-0064

>  <rmsd_to_ref>  (64) 
3.346938775510289

>  <pose_kind>  (64) 
conformer

$$$$
3war.A
     RDKit          3D

 13 13  0  0  0  0  0  0  0  0999 V2000
    2.5794   23.6986   38.3610 N   0  0  0  0  0  0  0  0  0  0  0  0
    1.9705   22.8884   37.3726 C   0  0  0  0  0  0  0  0  0  0  0  0
    1.2673   21.7146   37.8278 C   0  0  0  0  0  0  0  0  0  0  0  0
    1.2228   21.3935   39.1728 C   0  0  0  0  0  0  0  0  0  0  0  0
    1.8071   22.2259   40.1021 C   0  0  0  0  0  0  0  0  0  0  0  0
    2.4984   23.3401   39.6821 C   0  0  0  0  0  0  0  0  0  0  0  0
    0.6719   20.7488   36.8142 C   0  0  0  0  0  0  0  0  0  0  0  0
    0.5801   21.1229   35.6082 O   0  0  0  0  0  0  0  0  0  0  0  0
    0.3407   19.6758   37.2703 O   0  0  0  0  0  0  0  0  0  0  0  0
    2.0310   23.1431   36.3042 H   0  0  0  0  0  0  0  0  0  0  0  0
    0.7198   20.4718   39.5008 H   0  0  0  0  0  0  0  0  0  0  0  0
    1.7217   22.0012   41.1755 H   0  0  0  0  0  0  0  0  0  0  0  0
    3.0038   23.9650   40.4331 H   0  0  0  0  0  0  0  0  0  0  0  0
  1  2  1  0
  1  6  2  0
  2  3  2  0
  3  4  1  0
  3  7  1  0
  4  5  2  0
  5  6  1  0
  7  8  1  0
  7  9  2  0
  2 10  1  0
  4 11  1  0
  5 12  1  0
  6 13  1  0
M  CHG  1   8  -1
M  END
>  <mol_id>  (65) 
2026-09-18-3war-s0-n100-r8-0065

>  <rmsd_to_ref>  (65) 
3.3928571428587317

>  <pose_kind>  (65) 
rigid

$$$$
3war.A
     RDKit          3D

 13 13  0  0  0  0  0  0  0  0999 V2000
    1.0677   18.3322   37.6838 N   0  0  0  0  0  0  0  0  0  0  0  0
    1.4193   19.5597   38.1423 C   0  0  0  0  0  0  0  0  0  0  0  0
    0.7193   20.1882   39.1524 C   0  0  0  0  0  0  0  0  0  0  0  0
   -0.3746   19.5856   39.7390 C   0  0  0  0  0  0  0  0  0  0  0  0
   -0.7331   18.3258   39.2663 C   0  0  0  0  0  0  0  0  0  0  0  0
   -0.0054   17.7319   38.2534 C   0  0  0  0  0  0  0  0  0  0  0  0
    1.1132   21.5075   39.6311 C   0  0  0  0  0  0  0  0  0  0  0  0
    2.1984   22.1921   39.1034 O   0  0  0  0  0  0  0  0  0  0  0  0
    0.4128   22.0164   40.5666 O   0  0  0  0  0  0  0  0  0  0  0  0
    2.2901   20.0300   37.6694 H   0  0  0  0  0  0  0  0  0  0  0  0
   -0.9462   20.0459   40.5307 H   0  0  0  0  0  0  0  0  0  0  0  0
   -1.5819   17.8138   39.6936 H   0  0  0  0  0  0  0  0  0  0  0  0
   -0.3032   16.7496   37.9010 H   0  0  0  0  0  0  0  0  0  0  0  0
  1  2  1  0
  1  6  2  0
  2  3  2  0
  3  4  1  0
  3  7  1  0
  4  5  2  0
  5  6  1  0
  7  8  1  0
  7  9  2  0
  2 10  1  0
  4 11  1  0
  5 12  1  0
  6 13  1  0
M  CHG  1   8  -1
M  END
>  <mol_id>  (66) 
2026-09-18-3war-s0-n100-r8-0066

>  <rmsd_to_ref>  (66) 
3.4387755102057294

>  <pose_kind>  (66) 
conformer

$$$$
3war.A
     RDKit          3D

 13 13  0  0  0  0  0  0  0  0999 V2000
    4.9239   18.3792   39.1732 N   0  0  0  0  0  0  0  0  0  0  0  0
    3.7332   19.1329   39.0378 C   0  0  0  0  0  0  0  0  0  0  0  0
    3.8256   20.5532   39.2689 C   0  0  0  0  0  0  0  0  0  0  0  0
    5.0271   21.1343   39.6335 C   0  0  0  0  0  0  0  0  0  0  0  0
    6.1665   20.3656   39.7273 C   0  0  0  0  0  0  0  0  0  0  0  0
    6.0910   19.0053   39.5283 C   0  0  0  0  0  0  0  0  0  0  0  0
    2.5679   21.4087   39.2345 C   0  0  0  0  0  0  0  0  0  0  0  0
    1.5108   20.9057   38.7525 O   0  0  0  0  0  0  0  0  0  0  0  0
    2.6994   22.5221   39.6952 O   0  0  0  0  0  0  0  0  0  0  0  0
    2.7794   18.6559   38.7681 H   0  0  0  0  0  0  0  0  0  0  0  0
    5.0727   22.2120   39.8489 H   0  0  0  0  0  0  0  0  0  0  0  0
    7.1328   20.8368   39.9602 H   0  0  0  0  0  0  0  0  0  0  0  0
    6.9995   18.3990   39.6590 H   0  0  0  0  0  0  0  0  0  0  0  0
  1  2  1  0
  1  6  2  0
  2  3  2  0
  3  4  1  0
  3  7  1  0
  4  5  2  0
  5  6  1  0
  7  8  1  0
  7  9  2  0
  2 10  1  0
  4 11  1  0
  5 12  1  0
  6 13  1  0
M  CHG  1   8  -1
M  END
>  <mol_id>  (67) 
2026-09-18-3war-s0-n100-r8-0067

>  <rmsd_to_ref>  (67) 
3.484693877552253

>  <pose_kind>  (67) 
rigid

$$$$
3war.A
     RDKit          3D

 13 13  0  0  0  0  0  0  0  0999 V2000
    1.2190   21.7577   38.7790 N   0  0  0  0  0  0  0  0  0  0  0  0
    2.4386   22.1482   39.1499 C   0  0  0  0  0  0  0  0  0  0  0  0
    3.5068   21.7650   38.3645 C   0  0  0  0  0  0  0  0  0  0  0  0
    3.3034   21.0025   37.2350 C   0  0  0  0  0  0  0  0  0  0  0  0
    2.0121   20.6300   36.9053 C   0  0  0  0  0  0  0  0  0  0  0  0
    0.9405   21.0118   37.6890 C   0  0  0  0  0  0  0  0  0  0  0  0
    4.8669   22.1707   38.7323 C   0  0  0  0  0  0  0  0  0  0  0  0
    5.0713   22.9388   39.8701 O   0  0  0  0  0  0  0  0  0  0  0  0
    5.8254   21.8055   37.9949 O   0  0  0  0  0  0  0  0  0  0  0  0
    2.5469   22.7482   40.0481 H   0  0  0  0  0  0  0  0  0  0  0  0
    4.1689   20.7140   36.6325 H   0  0  0  0  0  0  0  0  0  0  0  0
    1.8605   20.0305   36.0157 H   0  0  0  0  0  0  0  0  0  0  0  0
   -0.0886   20.7223   37.4373 H   0  0  0  0  0  0  0  0  0  0  0  0
  1  2  1  0
  1  6  2  0
  2  3  2  0
  3  4  1  0
  3  7  1  0
  4  5  2  0
  5  6  1  0
  7  8  1  0
  7  9  2  0
  2 10  1  0
  4 11  1  0
  5 12  1  0
  6 13  1  0
M  CHG  1   8  -1
M  END
>  <mol_id>  (68) 
2026-09-18-3war-s0-n100-r8-0068

>  <rmsd_to_ref>  (68) 
3.5306122448981037

>  <pose_kind>  (68) 
conformer

$$$$
3war.A
     RDKit          3D

 13 13  0  0  0  0  0  0  0  0999 V2000
    4.8592   16.9398   40.6934 N   0  0  0  0  0  0  0  0  0  0  0  0
    3.7539   17.7323   40.3004 C   0  0  0  0  0  0  0  0  0  0  0  0
    3.9396   18.6004   39.1641 C   0  0  0  0  0  0  0  0  0  0  0  0
    5.1595   18.6648   38.5145 C   0  0  0  0  0  0  0  0  0  0  0  0
    6.1997   17.8553   38.9152 C   0  0  0  0  0  0  0  0  0  0  0  0
    6.0443   17.0350   40.0101 C   0  0  0  0  0  0  0  0  0  0  0  0
    2.8257   19.5490   38.7467 C   0  0  0  0  0  0  0  0  0  0  0  0
    1.6723   19.3767   39.2392 O   0  0  0  0  0  0  0  0  0  0  0  0
    3.1615   20.4125   37.9651 O   0  0  0  0  0  0  0  0  0  0  0  0
    2.7955   17.6878   40.8383 H   0  0  0  0  0  0  0  0  0  0  0  0
    5.2990   19.3636   37.6766 H   0  0  0  0  0  0  0  0  0  0  0  0
    7.1508   17.8642   38.3625 H   0  0  0  0  0  0  0  0  0  0  0  0
    6.9014   16.4345   40.3488 H   0  0  0  0  0  0  0  0  0  0  0  0
  1  2  1  0
  1  6  2  0
  2  3  2  0
  3  4  1  0
  3  7  1  0
  4  5  2  0
  5  6  1  0
  7  8  1  0
  7  9  2  0
  2 10  1  0
  4 11  1  0
  5 12  1  0
  6 13  1  0
M  CHG  1   8  -1
M  END
>  <mol_id>  (69) 
2026-09-18-3war-s0-n100-r8-0069

>  <rmsd_to_ref>  (69) 
3.576530612245103

>  <pose_kind>  (69) 
rigid

$$$$
3war.A
     RDKit          3D

 13 13  0  0  0  0  0  0  0  0999 V2000
    3.3376   18.2074   41.3158 N   0  0  0  0  0  0  0  0  0  0  0  0
    2.6719   19.3705   41.1245 C   0  0  0  0  0  0  0  0  0  0  0  0
    3.3425   20.5006   40.7101 C   0  0  0  0  0  0  0  0  0  0  0  0
    4.7144   20.4565   40.4837 C   0  0  0  0  0  0  0  0  0  0  0  0
    5.3608   19.2541   40.6887 C   0  0  0  0  0  0  0  0  0  0  0  0
    4.6758   18.1302   41.1040 C   0  0  0  0  0  0  0  0  0  0  0  0
    2.6445   21.7605   40.4989 C   0  0  0  0  0  0  0  0  0  0  0  0
    1.2585   21.8037   40.7280 O   0  0  0  0  0  0  0  0  0  0  0  0
    3.2869   22.7679   40.1218 O   0  0  0  0  0  0  0  0  0  0  0  0
    1.5986   19.4162   41.2987 H   0  0  0  0  0  0  0  0  0  0  0  0
    5.2783   21.3080   40.1613 H   0  0  0  0  0  0  0  0  0  0  0  0
    6.4215   19.1442   40.5336 H   0  0  0  0  0  0  0  0  0  0  0  0
    5.2020   17.1943   41.2595 H   0  0  0  0  0  0  0  0  0  0  0  0
  1  2  1  0
  1  6  2  0
  2  3  2  0
  3  4  1  0
  3  7  1  0
  4  5  2  0
  5  6  1  0
  7  8  1  0
  7  9  2  0
  2 10  1  0
  4 11  1  0
  5 12  1  0
  6 13  1  0
M  CHG  1   8  -1
M  END
>  <mol_id>  (70) 
2026-09-18-3war-s0-n100-r8-0070

>  <rmsd_to_ref>  (70) 
3.622448979592829

>  <pose_kind>  (70) 
conformer

$$$$
3war.A
     RDKit          3D

 13 13  0  0  0  0  0  0  0  0999 V2000
    5.3792   19.9880   40.8924 N   0  0  0  0  0  0  0  0  0  0  0  0
    4.8894   21.2610   40.5135 C   0  0  0  0  0  0  0  0  0  0  0  0
    4.2776   21.3682   39.2121 C   0  0  0  0  0  0  0  0  0  0  0  0
    4.2055   20.2717   38.3715 C   0  0  0  0  0  0  0  0  0  0  0  0
    4.6714   19.0456   38.7929 C   0  0  0  0  0  0  0  0  0  0  0  0
    5.2753   18.9310   40.0250 C   0  0  0  0  0  0  0  0  0  0  0  0
    3.8165   22.7256   38.7024 C   0  0  0  0  0  0  0  0  0  0  0  0
    3.7422   23.6842   39.5259 O   0  0  0  0  0  0  0  0  0  0  0  0
    3.5655   22.7634   37.5172 O   0  0  0  0  0  0  0  0  0  0  0  0
    4.9718   22.1302   41.1825 H   0  0  0  0  0  0  0  0  0  0  0  0
    3.7753   20.3791   37.3648 H   0  0  0  0  0  0  0  0  0  0  0  0
    4.5613   18.1616   38.1476 H   0  0  0  0  0  0  0  0  0  0  0  0
    5.6891   17.9568   40.3241 H   0  0  0  0  0  0  0  0  0  0  0  0
  1  2  1  0
  1  6  2  0
  2  3  2  0
  3  4  1  0
  3  7  1  0
  4  5  2  0
  5  6  1  0
  7  8  1  0
  7  9  2  0
  2 10  1  0
  4 11  1  0
  5 12  1  0
  6 13  1  0
M  CHG  1   8  -1
M  END
>  <mol_id>  (71) 
2026-09-18-3war-s0-n100-r8-0071

>  <rmsd_to_ref>  (71) 
3.6683673469403217

>  <pose_kind>  (71) 
rigid

$$$$
3war.A
     RDKit          3D

 13 13  0  0  0  0  0  0  0  0999 V2000
    1.0363   18.1894   35.2559 N   0  0  0  0  0  0  0  0  0  0  0  0
    1.8654   17.6504   36.1696 C   0  0  0  0  0  0  0  0  0  0  0  0
    2.1780   18.4192   37.2729 C   0  0  0  0  0  0  0  0  0  0  0  0
    1.6814   19.6928   37.4677 C   0  0  0  0  0  0  0  0  0  0  0  0
    0.8289   20.1861   36.4807 C   0  0  0  0  0  0  0  0  0  0  0  0
    0.5021   19.4257   35.3613 C   0  0  0  0  0  0  0  0  0  0  0  0
    3.0713   17.8881   38.2960 C   0  0  0  0  0  0  0  0  0  0  0  0
    3.6374   16.6222   38.2191 O   0  0  0  0  0  0  0  0  0  0  0  0
    3.3331   18.6315   39.2976 O   0  0  0  0  0  0  0  0  0  0  0  0
    2.2618   16.6465   36.0242 H   0  0  0  0  0  0  0  0  0  0  0  0
    1.8986   20.3138   38.3020 H   0  0  0  0  0  0  0  0  0  0  0  0
    0.3990   21.1802   36.5646 H   0  0  0  0  0  0  0  0  0  0  0  0
   -0.1602   19.8030   34.5899 H   0  0  0  0  0  0  0  0  0  0  0  0
  1  2  1  0
  1  6  2  0
  2  3  2  0
  3  4  1  0
  3  7  1  0
  4  5  2  0
  5  6  1  0
  7  8  1  0
  7  9  2  0
  2 10  1  0
  4 11  1  0
  5 12  1  0
  6 13  1  0
M  CHG  1   8  -1
M  END
>  <mol_id>  (72) 
2026-09-18-3war-s0-n100-r8-0072

>  <rmsd_to_ref>  (72) 
3.714285714287613

>  <pose_kind>  (72) 
conformer

$$$$
3war.A
     RDKit          3D

 13 13  0  0  0  0  0  0  0  0999 V2000
    1.7782   20.1008   42.1503 N   0  0  0  0  0  0  0  0  0  0  0  0
    1.0722   19.5474   41.0552 C   0  0  0  0  0  0  0  0  0  0  0  0
    1.0532   18.1097   40.9454 C   0  0  0  0  0  0  0  0  0  0  0  0
    1.7240   17.3210   41.8630 C   0  0  0  0  0  0  0  0  0  0  0  0
    2.3759   17.9022   42.9285 C   0  0  0  0  0  0  0  0  0  0  0  0
    2.4193   19.2741   43.0368 C   0  0  0  0  0  0  0  0  0  0  0  0
    0.3951   17.4515   39.7419 C   0  0  0  0  0  0  0  0  0  0  0  0
   -0.3432   18.1604   38.9970 O   0  0  0  0  0  0  0  0  0  0  0  0
    0.6564   16.2763   39.6010 O   0  0  0  0  0  0  0  0  0  0  0  0
    0.5605   20.1861   40.3202 H   0  0  0  0  0  0  0  0  0  0  0  0
    1.7369   16.2278   41.7417 H   0  0  0  0  0  0  0  0  0  0  0  0
    2.8599   17.2727   43.6897 H   0  0  0  0  0  0  0  0  0  0  0  0
    2.9887   19.7231   43.8640 H   0  0  0  0  0  0  0  0  0  0  0  0
  1  2  1  0
  1  6  2  0
  2  3  2  0
  3  4  1  0
  3  7  1  0
  4  5  2  0
  5  6  1  0
  7  8  1  0
  7  9  2  0
  2 10  1  0
  4 11  1  0
  5 12  1  0
  6 13  1  0
M  CHG  1   8  -1
M  END
>  <mol_id>  (73) 
2026-09-18-3war-s0-n100-r8-0073

>  <rmsd_to_ref>  (73) 
3.7602040816336486

>  <pose_kind>  (73) 
rigid

$$$$
3war.A
     RDKit          3D

 13 13  0  0  0  0  0  0  0  0999 V2000
    3.9427   18.5157   36.4773 N   0  0  0  0  0  0  0  0  0  0  0  0
    2.8810   17.8285   36.9416 C   0  0  0  0  0  0  0  0  0  0  0  0
    1.7048   18.5288   37.1270 C   0  0  0  0  0  0  0  0  0  0  0  0
    1.5820   19.8745   36.8600 C   0  0  0  0  0  0  0  0  0  0  0  0
    2.7119   20.5457   36.3794 C   0  0  0  0  0  0  0  0  0  0  0  0
    3.8772   19.8250   36.2018 C   0  0  0  0  0  0  0  0  0  0  0  0
    0.5359   17.8136   37.6289 C   0  0  0  0  0  0  0  0  0  0  0  0
    0.5711   16.4589   37.9234 O   0  0  0  0  0  0  0  0  0  0  0  0
   -0.5159   18.4886   37.7837 O   0  0  0  0  0  0  0  0  0  0  0  0
    2.9002   16.7744   37.1731 H   0  0  0  0  0  0  0  0  0  0  0  0
    0.6824   20.4319   36.9969 H   0  0  0  0  0  0  0  0  0  0  0  0
    2.6945   21.6001   36.1472 H   0  0  0  0  0  0  0  0  0  0  0  0
    4.7374   20.3359   35.8359 H   0  0  0  0  0  0  0  0  0  0  0  0
  1  2  1  0
  1  6  2  0
  2  3  2  0
  3  4  1  0
  3  7  1  0
  4  5  2  0
  5  6  1  0
  7  8  1  0
  7  9  2  0
  2 10  1  0
  4 11  1  0
  5 12  1  0
  6 13  1  0
M  CHG  1   8  -1
M  END
>  <mol_id>  (74) 
2026-09-18-3war-s0-n100-r8-0074

>  <rmsd_to_ref>  (74) 
3.806122448981103

>  <pose_kind>  (74) 
conformer

$$$$
3war.A
     RDKit          3D

 13 13  0  0  0  0  0  0  0  0999 V2000
    2.8117   18.8598   35.8409 N   0  0  0  0  0  0  0  0  0  0  0  0
    1.4126   19.0275   35.9764 C   0  0  0  0  0  0  0  0  0  0  0  0
    0.9449   19.7141   37.1550 C   0  0  0  0  0  0  0  0  0  0  0  0
    1.8359   20.1589   38.1153 C   0  0  0  0  0  0  0  0  0  0  0  0
    3.1913   19.9975   37.9286 C   0  0  0  0  0  0  0  0  0  0  0  0
    3.6527   19.3271   36.8180 C   0  0  0  0  0  0  0  0  0  0  0  0
   -0.5491   19.8447   37.4116 C   0  0  0  0  0  0  0  0  0  0  0  0
   -1.3478   19.5788   36.4661 O   0  0  0  0  0  0  0  0  0  0  0  0
   -0.8419   20.1926   38.5352 O   0  0  0  0  0  0  0  0  0  0  0  0
    0.7129   18.6505   35.2159 H   0  0  0  0  0  0  0  0  0  0  0  0
    1.4615   20.6423   39.0297 H   0  0  0  0  0  0  0  0  0  0  0  0
    3.9021   20.4025   38.6639 H   0  0  0  0  0  0  0  0  0  0  0  0
    4.7347   19.1605   36.7106 H   0  0  0  0  0  0  0  0  0  0  0  0
  1  2  1  0
  1  6  2  0
  2  3  2  0
  3  4  1  0
  3  7  1  0
  4  5  2  0
  5  6  1  0
  7  8  1  0
  7  9  2  0
  2 10  1  0
  4 11  1  0
  5 12  1  0
  6 13  1  0
M  CHG  1   8  -1
M  END
>  <mol_id>  (75) 
2026-09-18-3war-s0-n100-r8-0075

>  <rmsd_to_ref>  (75) 
3.8520408163272677

>  <pose_kind>  (75) 
rigid

$$$$
3war.A
     RDKit          3D

 13 13  0  0  0  0  0  0  0  0999 V2000
    4.1030   17.1198   36.9913 N   0  0  0  0  0  0  0  0  0  0  0  0
    3.6495   18.2911   37.4689 C   0  0  0  0  0  0  0  0  0  0  0  0
    3.5763   18.4699   38.8357 C   0  0  0  0  0  0  0  0  0  0  0  0
    3.9528   17.4870   39.7296 C   0  0  0  0  0  0  0  0  0  0  0  0
    4.4179   16.2860   39.1838 C   0  0  0  0  0  0  0  0  0  0  0  0
    4.4860   16.1206   37.8128 C   0  0  0  0  0  0  0  0  0  0  0  0
    3.0888   19.7285   39.3919 C   0  0  0  0  0  0  0  0  0  0  0  0
    2.6818   20.7902   38.5933 O   0  0  0  0  0  0  0  0  0  0  0  0
    3.0423   19.8385   40.6513 O   0  0  0  0  0  0  0  0  0  0  0  0
    3.3425   19.0923   36.8029 H   0  0  0  0  0  0  0  0  0  0  0  0
    3.9024   17.6087   40.8064 H   0  0  0  0  0  0  0  0  0  0  0  0
    4.7082   15.5281   39.8810 H   0  0  0  0  0  0  0  0  0  0  0  0
    4.8549   15.1675   37.4581 H   0  0  0  0  0  0  0  0  0  0  0  0
  1  2  1  0
  1  6  2  0
  2  3  2  0
  3  4  1  0
  3  7  1  0
  4  5  2  0
  5  6  1  0
  7  8  1  0
  7  9  2  0
  2 10  1  0
  4 11  1  0
  5 12  1  0
  6 13  1  0
M  CHG  1   8  -1
M  END
>  <mol_id>  (76) 
2026-09-18-3war-s0-n100-r8-0076

>  <rmsd_to_ref>  (76) 
3.897959183675711

>  <pose_kind>  (76) 
conformer

$$$$
3war.A
     RDKit          3D

 13 13  0  0  0  0  0  0  0  0999 V2000
    5.0294   20.0754   39.0073 N   0  0  0  0  0  0  0  0  0  0  0  0
    4.3936   21.2552   39.4631 C   0  0  0  0  0  0  0  0  0  0  0  0
    3.2821   21.0944   40.3676 C   0  0  0  0  0  0  0  0  0  0  0  0
    2.8508   19.8342   40.7417 C   0  0  0  0  0  0  0  0  0  0  0  0
    3.5169   18.7143   40.2943 C   0  0  0  0  0  0  0  0  0  0  0  0
    4.5679   18.8503   39.4153 C   0  0  0  0  0  0  0  0  0  0  0  0
    2.4930   22.3136   40.8209 C   0  0  0  0  0  0  0  0  0  0  0  0
    2.9814   23.4613   40.6043 O   0  0  0  0  0  0  0  0  0  0  0  0
    1.4340   22.0625   41.3545 O   0  0  0  0  0  0  0  0  0  0  0  0
    4.7326   22.2511   39.1415 H   0  0  0  0  0  0  0  0  0  0  0  0
    1.9744   19.7262   41.3977 H   0  0  0  0  0  0  0  0  0  0  0  0
    3.2103   17.7154   40.6379 H   0  0  0  0  0  0  0  0  0  0  0  0
    5.0548   17.9438   39.0265 H   0  0  0  0  0  0  0  0  0  0  0  0
  1  2  1  0
  1  6  2  0
  2  3  2  0
  3  4  1  0
  3  7  1  0
  4  5  2  0
  5  6  1  0
  7  8  1  0
  7  9  2  0
  2 10  1  0
  4 11  1  0
  5 12  1  0
  6 13  1  0
M  CHG  1   8  -1
M  END
>  <mol_id>  (77) 
2026-09-18-3war-s0-n100-r8-0077

>  <rmsd_to_ref>  (77) 
3.9438775510230375

>  <pose_kind>  (77) 
rigid

$$$$
3war.A
     RDKit          3D

 13 13  0  0  0  0  0  0  0  0999 V2000
    2.5449   16.9829   41.7885 N   0  0  0  0  0  0  0  0  0  0  0  0
    1.4328   17.7609   41.8752 C   0  0  0  0  0  0  0  0  0  0  0  0
    1.1668   18.6648   40.8690 C   0  0  0  0  0  0  0  0  0  0  0  0
    1.9733   18.8301   39.7624 C   0  0  0  0  0  0  0  0  0  0  0  0
    3.1034   18.0212   39.7005 C   0  0  0  0  0  0  0  0  0  0  0  0
    3.3632   17.1193   40.7104 C   0  0  0  0  0  0  0  0  0  0  0  0
   -0.0426   19.5034   40.9739 C   0  0  0  0  0  0  0  0  0  0  0  0
   -0.8936   19.3839   42.0629 O   0  0  0  0  0  0  0  0  0  0  0  0
   -0.3013   20.3354   40.0627 O   0  0  0  0  0  0  0  0  0  0  0  0
    0.7869   17.6479   42.7336 H   0  0  0  0  0  0  0  0  0  0  0  0
    1.7328   19.5423   39.0029 H   0  0  0  0  0  0  0  0  0  0  0  0
    3.7928   18.0988   38.8458 H   0  0  0  0  0  0  0  0  0  0  0  0
    4.2472   16.4742   40.6797 H   0  0  0  0  0  0  0  0  0  0  0  0
  1  2  1  0
  1  6  2  0
  2  3  2  0
  3  4  1  0
  3  7  1  0
  4  5  2  0
  5  6  1  0
  7  8  1  0
  7  9  2  0
  2 10  1  0
  4 11  1  0
  5 12  1  0
  6 13  1  0
M  CHG  1   8  -1
M  END
>  <mol_id>  (78) 
2026-09-18-3war-s0-n100-r8-0078

>  <rmsd_to_ref>  (78) 
3.9897959183678404

>  <pose_kind>  (78) 
conformer

$$$$
3war.A
     RDKit          3D

 13 13  0  0  0  0  0  0  0  0999 V2000
    4.2168   16.4115   41.2731 N   0  0  0  0  0  0  0  0  0  0  0  0
    3.0719   17.1892   41.5705 C   0  0  0  0  0  0  0  0  0  0  0  0
    2.8366   18.3515   40.7500 C   0  0  0  0  0  0  0  0  0  0  0  0
    3.7161   18.6933   39.7382 C   0  0  0  0  0  0  0  0  0  0  0  0
    4.8033   17.8918   39.4671 C   0  0  0  0  0  0  0  0  0  0  0  0
    5.0522   16.7893   40.2535 C   0  0  0  0  0  0  0  0  0  0  0  0
    1.6795   19.2847   41.0741 C   0  0  0  0  0  0  0  0  0  0  0  0
    0.7977   18.8887   41.8915 O   0  0  0  0  0  0  0  0  0  0  0  0
    1.7185   20.3560   40.5084 O   0  0  0  0  0  0  0  0  0  0  0  0
    2.3916   16.9188   42.3915 H   0  0  0  0  0  0  0  0  0  0  0  0
    3.5469   19.6067   39.1491 H   0  0  0  0  0  0  0  0  0  0  0  0
    5.4699   18.1316   38.6256 H   0  0  0  0  0  0  0  0  0  0  0  0
    5.9536   16.1902   40.0568 H   0  0  0  0  0  0  0  0  0  0  0  0
  1  2  1  0
  1  6  2  0
  2  3  2  0
  3  4  1  0
  3  7  1  0
  4  5  2  0
  5  6  1  0
  7  8  1  0
  7  9  2  0
  2 10  1  0
  4 11  1  0
  5 12  1  0
  6 13  1  0
M  CHG  1   8  -1
M  END
>  <mol_id>  (79) 
2026-09-18-3war-s0-n100-r8-0079

>  <rmsd_to_ref>  (79) 
4.0357142857146675

>  <pose_kind>  (79) 
rigid

$$$$
3war.A
     RDKit          3D

 13 13  0  0  0  0  0  0  0  0999 V2000
    3.5268   20.2734   37.2991 N   0  0  0  0  0  0  0  0  0  0  0  0
    2.2501   20.1068   37.6952 C   0  0  0  0  0  0  0  0  0  0  0  0
    1.1981   20.2113   36.7880 C   0  0  0  0  0  0  0  0  0  0  0  0
    1.4576   20.4893   35.4619 C   0  0  0  0  0  0  0  0  0  0  0  0
    2.7815   20.6610   35.0571 C   0  0  0  0  0  0  0  0  0  0  0  0
    3.7910   20.5481   35.9918 C   0  0  0  0  0  0  0  0  0  0  0  0
   -0.1875   20.0331   37.2040 C   0  0  0  0  0  0  0  0  0  0  0  0
   -0.5189   19.7516   38.5225 O   0  0  0  0  0  0  0  0  0  0  0  0
   -1.0656   20.1481   36.3056 O   0  0  0  0  0  0  0  0  0  0  0  0
    1.9809   19.8872   38.7196 H   0  0  0  0  0  0  0  0  0  0  0  0
    0.6714   20.5790   34.7251 H   0  0  0  0  0  0  0  0  0  0  0  0
    2.9496   20.8755   34.0224 H   0  0  0  0  0  0  0  0  0  0  0  0
    4.8165   20.6839   35.6635 H   0  0  0  0  0  0  0  0  0  0  0  0
  1  2  1  0
  1  6  2  0
  2  3  2  0
  3  4  1  0
  3  7  1  0
  4  5  2  0
  5  6  1  0
  7  8  1  0
  7  9  2  0
  2 10  1  0
  4 11  1  0
  5 12  1  0
  6 13  1  0
M  CHG  1   8  -1
M  END
>  <mol_id>  (80) 
2026-09-18-3war-s0-n100-r8-0080

>  <rmsd_to_ref>  (80) 
4.081632653061938

>  <pose_kind>  (80) 
conformer

$$$$
3war.A
     RDKit          3D

 13 13  0  0  0  0  0  0  0  0999 V2000
    5.6532   18.4639   36.7758 N   0  0  0  0  0  0  0  0  0  0  0  0
    4.4905   18.1448   37.5176 C   0  0  0  0  0  0  0  0  0  0  0  0
    3.2510   18.7406   37.0837 C   0  0  0  0  0  0  0  0  0  0  0  0
    3.2213   19.6060   36.0047 C   0  0  0  0  0  0  0  0  0  0  0  0
    4.3734   19.8668   35.2957 C   0  0  0  0  0  0  0  0  0  0  0  0
    5.5680   19.3209   35.7087 C   0  0  0  0  0  0  0  0  0  0  0  0
    1.9810   18.5175   37.8912 C   0  0  0  0  0  0  0  0  0  0  0  0
    1.9809   17.6110   38.7748 O   0  0  0  0  0  0  0  0  0  0  0  0
    1.0643   19.2588   37.6093 O   0  0  0  0  0  0  0  0  0  0  0  0
    4.5307   17.4719   38.3868 H   0  0  0  0  0  0  0  0  0  0  0  0
    2.2761   20.0867   35.7124 H   0  0  0  0  0  0  0  0  0  0  0  0
    4.3389   20.5087   34.4031 H   0  0  0  0  0  0  0  0  0  0  0  0
    6.4869   19.5815   35.1631 H   0  0  0  0  0  0  0  0  0  0  0  0
  1  2  1  0
  1  6  2  0
  2  3  2  0
  3  4  1  0
  3  7  1  0
  4  5  2  0
  5  6  1  0
  7  8  1  0
  7  9  2  0
  2 10  1  0
  4 11  1  0
  5 12  1  0
  6 13  1  0
M  CHG  1   8  -1
M  END
>  <mol_id>  (81) 
2026-09-18-3war-s0-n100-r8-0081

>  <rmsd_to_ref>  (81) 
4.127551020408998

>  <pose_kind>  (81) 
rigid

$$$$
3war.A
     RDKit          3D

 13 13  0  0  0  0  0  0  0  0999 V2000
    2.9542   18.7330   38.5532 N   0  0  0  0  0  0  0  0  0  0  0  0
    3.7765   19.3845   39.3925 C   0  0  0  0  0  0  0  0  0  0  0  0
    4.2619   18.7555   40.5402 C   0  0  0  0  0  0  0  0  0  0  0  0
    3.8616   17.4548   40.7643 C   0  0  0  0  0  0  0  0  0  0  0  0
    3.0171   16.7839   39.9035 C   0  0  0  0  0  0  0  0  0  0  0  0
    2.5712   17.4734   38.7775 C   0  0  0  0  0  0  0  0  0  0  0  0
    5.1498   19.4893   41.4269 C   0  0  0  0  0  0  0  0  0  0  0  0
    5.6023   18.7968   42.5652 O   0  0  0  0  0  0  0  0  0  0  0  0
    5.5220   20.6640   41.2410 O   0  0  0  0  0  0  0  0  0  0  0  0
    4.0461   20.4086   39.1463 H   0  0  0  0  0  0  0  0  0  0  0  0
    4.2263   16.9521   41.6459 H   0  0  0  0  0  0  0  0  0  0  0  0
    2.7079   15.7646   40.0861 H   0  0  0  0  0  0  0  0  0  0  0  0
    1.9118   17.0148   38.0633 H   0  0  0  0  0  0  0  0  0  0  0  0
  1  2  1  0
  1  6  2  0
  2  3  2  0
  3  4  1  0
  3  7  1  0
  4  5  2  0
  5  6  1  0
  7  8  1  0
  7  9  2  0
  2 10  1  0
  4 11  1  0
  5 12  1  0
  6 13  1  0
M  CHG  1   8  -1
M  END
>  <mol_id>  (82) 
2026-09-18-3war-s0-n100-r8-0082

>  <rmsd_to_ref>  (82) 
4.173469387757493

>  <pose_kind>  (82) 
conformer

$$$$
3war.A
     RDKit          3D

 13 13  0  0  0  0  0  0  0  0999 V2000
    6.5071   18.0185   40.2122 N   0  0  0  0  0  0  0  0  0  0  0  0
    5.6670   19.1173   40.5137 C   0  0  0  0  0  0  0  0  0  0  0  0
    4.8862   19.6630   39.4312 C   0  0  0  0  0  0  0  0  0  0  0  0
    4.9861   19.1417   38.1536 C   0  0  0  0  0  0  0  0  0  0  0  0
    5.7969   18.0543   37.9120 C   0  0  0  0  0  0  0  0  0  0  0  0
    6.5631   17.5339   38.9307 C   0  0  0  0  0  0  0  0  0  0  0  0
    4.0355   20.9031   39.6621 C   0  0  0  0  0  0  0  0  0  0  0  0
    3.8278   21.2771   40.8536 O   0  0  0  0  0  0  0  0  0  0  0  0
    3.6331   21.4372   38.6512 O   0  0  0  0  0  0  0  0  0  0  0  0
    5.6123   19.5364   41.5292 H   0  0  0  0  0  0  0  0  0  0  0  0
    4.4172   19.5962   37.3291 H   0  0  0  0  0  0  0  0  0  0  0  0
    5.8319   17.6037   36.9091 H   0  0  0  0  0  0  0  0  0  0  0  0
    7.2447   16.6995   38.7085 H   0  0  0  0  0  0  0  0  0  0  0  0
  1  2  1  0
  1  6  2  0
  2  3  2  0
  3  4  1  0
  3  7  1  0
  4  5  2  0
  5  6  1  0
  7  8  1  0
  7  9  2  0
  2 10  1  0
  4 11  1  0
  5 12  1  0
  6 13  1  0
M  CHG  1   8  -1
M  END
>  <mol_id>  (83) 
2026-09-18-3war-s0-n100-r8-0083

>  <rmsd_to_ref>  (83) 
4.21938775510245

>  <pose_kind>  (83) 
rigid

$$$$
3war.A
     RDKit          3D

 13 13  0  0  0  0  0  0  0  0999 V2000
    5.5269   21.1449   37.6610 N   0  0  0  0  0  0  0  0  0  0  0  0
    6.0617   20.1876   38.4280 C   0  0  0  0  0  0  0  0  0  0  0  0
    5.2713   19.5840   39.3833 C   0  0  0  0  0  0  0  0  0  0  0  0
    3.9513   19.9719   39.5338 C   0  0  0  0  0  0  0  0  0  0  0  0
    3.4545   20.9765   38.7019 C   0  0  0  0  0  0  0  0  0  0  0  0
    4.2567   21.5736   37.7485 C   0  0  0  0  0  0  0  0  0  0  0  0
    5.8183   18.5382   40.2368 C   0  0  0  0  0  0  0  0  0  0  0  0
    7.1425   18.1480   40.0867 O   0  0  0  0  0  0  0  0  0  0  0  0
    5.0885   17.9944   41.1048 O   0  0  0  0  0  0  0  0  0  0  0  0
    7.0994   19.8595   38.3337 H   0  0  0  0  0  0  0  0  0  0  0  0
    3.2816   19.5427   40.2581 H   0  0  0  0  0  0  0  0  0  0  0  0
    2.4127   21.2880   38.8153 H   0  0  0  0  0  0  0  0  0  0  0  0
    3.8950   22.3597   37.0862 H   0  0  0  0  0  0  0  0  0  0  0  0
  1  2  1  0
  1  6  2  0
  2  3  2  0
  3  4  1  0
  3  7  1  0
  4  5  2  0
  5  6  1  0
  7  8  1  0
  7  9  2  0
  2 10  1  0
  4 11  1  0
  5 12  1  0
  6 13  1  0
M  CHG  1   8  -1
M  END
>  <mol_id>  (84) 
2026-09-18-3war-s0-n100-r8-0084

>  <rmsd_to_ref>  (84) 
4.2653061224506565

>  <pose_kind>  (84) 
conformer

$$$$
3war.A
     RDKit          3D

 13 13  0  0  0  0  0  0  0  0999 V2000
    3.3299   18.3498   39.1771 N   0  0  0  0  0  0  0  0  0  0  0  0
    2.0766   18.8526   39.6019 C   0  0  0  0  0  0  0  0  0  0  0  0
    1.2072   17.9409   40.3035 C   0  0  0  0  0  0  0  0  0  0  0  0
    1.5850   16.6276   40.5196 C   0  0  0  0  0  0  0  0  0  0  0  0
    2.8258   16.1891   40.1119 C   0  0  0  0  0  0  0  0  0  0  0  0
    3.6596   17.0419   39.4240 C   0  0  0  0  0  0  0  0  0  0  0  0
   -0.1914   18.3861   40.7039 C   0  0  0  0  0  0  0  0  0  0  0  0
   -0.4705   19.6195   40.6447 O   0  0  0  0  0  0  0  0  0  0  0  0
   -0.9317   17.4881   41.0428 O   0  0  0  0  0  0  0  0  0  0  0  0
    1.7790   19.8932   39.4053 H   0  0  0  0  0  0  0  0  0  0  0  0
    0.8934   15.9323   41.0178 H   0  0  0  0  0  0  0  0  0  0  0  0
    3.1490   15.1616   40.3351 H   0  0  0  0  0  0  0  0  0  0  0  0
    4.6247   16.6603   39.0594 H   0  0  0  0  0  0  0  0  0  0  0  0
  1  2  1  0
  1  6  2  0
  2  3  2  0
  3  4  1  0
  3  7  1  0
  4  5  2  0
  5  6  1  0
  7  8  1  0
  7  9  2  0
  2 10  1  0
  4 11  1  0
  5 12  1  0
  6 13  1  0
M  CHG  1   8  -1
M  END
>  <mol_id>  (85) 
2026-09-18-3war-s0-n100-r8-0085

>  <rmsd_to_ref>  (85) 
4.311224489796418

>  <pose_kind>  (85) 
rigid

$$$$
3war.A
     RDKit          3D

 13 13  0  0  0  0  0  0  0  0999 V2000
    1.1354   20.6295   36.3644 N   0  0  0  0  0  0  0  0  0  0  0  0
   -0.0333   20.5088   36.9997 C   0  0  0  0  0  0  0  0  0  0  0  0
   -0.0842   20.8076   38.3548 C   0  0  0  0  0  0  0  0  0  0  0  0
    1.0865   21.2213   38.9962 C   0  0  0  0  0  0  0  0  0  0  0  0
    2.2737   21.3345   38.3098 C   0  0  0  0  0  0  0  0  0  0  0  0
    2.2872   21.0251   36.9459 C   0  0  0  0  0  0  0  0  0  0  0  0
   -1.3492   20.6807   39.0588 C   0  0  0  0  0  0  0  0  0  0  0  0
   -1.3634   20.9888   40.4182 O   0  0  0  0  0  0  0  0  0  0  0  0
   -2.4208   20.3138   38.5229 O   0  0  0  0  0  0  0  0  0  0  0  0
   -0.9488   20.1920   36.5271 H   0  0  0  0  0  0  0  0  0  0  0  0
    0.9935   21.4427   40.0551 H   0  0  0  0  0  0  0  0  0  0  0  0
    3.1652   21.6565   38.8286 H   0  0  0  0  0  0  0  0  0  0  0  0
    3.2074   21.1031   36.3708 H   0  0  0  0  0  0  0  0  0  0  0  0
  1  2  1  0
  1  6  2  0
  2  3  2  0
  3  4  1  0
  3  7  1  0
  4  5  2  0
  5  6  1  0
  7  8  1  0
  7  9  2  0
  2 10  1  0
  4 11  1  0
  5 12  1  0
  6 13  1  0
M  CHG  1   8  -1
M  END
>  <mol_id>  (86) 
2026-09-18-3war-s0-n100-r8-0086

>  <rmsd_to_ref>  (86) 
4.357142857143268

>  <pose_kind>  (86) 
conformer

$$$$
3war.A
     RDKit          3D

 13 13  0  0  0  0  0  0  0  0999 V2000
    2.9858   18.9437   35.5580 N   0  0  0  0  0  0  0  0  0  0  0  0
    1.9457   19.5907   36.2677 C   0  0  0  0  0  0  0  0  0  0  0  0
    1.0996   18.7631   37.0915 C   0  0  0  0  0  0  0  0  0  0  0  0
    1.2920   17.3944   37.1529 C   0  0  0  0  0  0  0  0  0  0  0  0
    2.3340   16.8112   36.4659 C   0  0  0  0  0  0  0  0  0  0  0  0
    3.1389   17.5849   35.6601 C   0  0  0  0  0  0  0  0  0  0  0  0
   -0.0953   19.3773   37.8056 C   0  0  0  0  0  0  0  0  0  0  0  0
   -0.1735   20.6391   37.8719 O   0  0  0  0  0  0  0  0  0  0  0  0
   -0.8884   18.5749   38.2486 O   0  0  0  0  0  0  0  0  0  0  0  0
    1.7897   20.6771   36.1940 H   0  0  0  0  0  0  0  0  0  0  0  0
    0.6116   16.7707   37.7513 H   0  0  0  0  0  0  0  0  0  0  0  0
    2.5223   15.7316   36.5608 H   0  0  0  0  0  0  0  0  0  0  0  0
    3.9331   17.0955   35.0773 H   0  0  0  0  0  0  0  0  0  0  0  0
  1  2  1  0
  1  6  2  0
  2  3  2  0
  3  4  1  0
  3  7  1  0
  4  5  2  0
  5  6  1  0
  7  8  1  0
  7  9  2  0
  2 10  1  0
  4 11  1  0
  5 12  1  0
  6 13  1  0
M  CHG  1   8  -1
M  END
>  <mol_id>  (87) 
2026-09-18-3war-s0-n100-r8-0087

>  <rmsd_to_ref>  (87) 
4.403061224492244

>  <pose_kind>  (87) 
rigid

$$$$
3war.A
     RDKit          3D

 13 13  0  0  0  0  0  0  0  0999 V2000
    3.6995   19.6700   37.7976 N   0  0  0  0  0  0  0  0  0  0  0  0
    3.5875   19.0608   38.9915 C   0  0  0  0  0  0  0  0  0  0  0  0
    3.8677   17.7145   39.1041 C   0  0  0  0  0  0  0  0  0  0  0  0
    4.2591   17.0155   37.9852 C   0  0  0  0  0  0  0  0  0  0  0  0
    4.3642   17.6704   36.7748 C   0  0  0  0  0  0  0  0  0  0  0  0
    4.0776   19.0361   36.6720 C   0  0  0  0  0  0  0  0  0  0  0  0
    3.7445   17.0588   40.4020 C   0  0  0  0  0  0  0  0  0  0  0  0
    4.0355   15.6883   40.4887 O   0  0  0  0  0  0  0  0  0  0  0  0
    3.3859   17.6796   41.4482 O   0  0  0  0  0  0  0  0  0  0  0  0
    3.2759   19.6509   39.8461 H   0  0  0  0  0  0  0  0  0  0  0  0
    4.4752   15.9770   38.0721 H   0  0  0  0  0  0  0  0  0  0  0  0
    4.6673   17.1358   35.9015 H   0  0  0  0  0  0  0  0  0  0  0  0
    4.1614   19.5460   35.7203 H   0  0  0  0  0  0  0  0  0  0  0  0
  1  2  1  0
  1  6  2  0
  2  3  2  0
  3  4  1  0
  3  7  1  0
  4  5  2  0
  5  6  1  0
  7  8  1  0
  7  9  2  0
  2 10  1  0
  4 11  1  0
  5 12  1  0
  6 13  1  0
M  CHG  1   8  -1
M  END
>  <mol_id>  (88) 
2026-09-18-3war-s0-n100-r8-0088

>  <rmsd_to_ref>  (88) 
4.448979591837761

>  <pose_kind>  (88) 
conformer

$$$$
3war.A
     RDKit          3D

 13 13  0  0  0  0  0  0  0  0999 V2000
    3.0624   22.8082   35.5518 N   0  0  0  0  0  0  0  0  0  0  0  0
    2.1013   22.1070   36.3192 C   0  0  0  0  0  0  0  0  0  0  0  0
    2.3993   20.7355   36.6501 C   0  0  0  0  0  0  0  0  0  0  0  0
    3.5652   20.1375   36.2058 C   0  0  0  0  0  0  0  0  0  0  0  0
    4.4846   20.8667   35.4840 C   0  0  0  0  0  0  0  0  0  0  0  0
    4.2062   22.1714   35.1437 C   0  0  0  0  0  0  0  0  0  0  0  0
    1.3693   19.8946   37.3895 C   0  0  0  0  0  0  0  0  0  0  0  0
    0.3838   20.4827   37.9239 O   0  0  0  0  0  0  0  0  0  0  0  0
    1.5922   18.7032   37.3882 O   0  0  0  0  0  0  0  0  0  0  0  0
    1.1682   22.5873   36.6485 H   0  0  0  0  0  0  0  0  0  0  0  0
    3.7584   19.0779   36.4293 H   0  0  0  0  0  0  0  0  0  0  0  0
    5.4374   20.4082   35.1806 H   0  0  0  0  0  0  0  0  0  0  0  0
    4.9271   22.7228   34.5221 H   0  0  0  0  0  0  0  0  0  0  0  0
  1  2  1  0
  1  6  2  0
  2  3  2  0
  3  4  1  0
  3  7  1  0
  4  5  2  0
  5  6  1  0
  7  8  1  0
  7  9  2  0
  2 10  1  0
  4 11  1  0
  5 12  1  0
  6 13  1  0
M  CHG  1   8  -1
M  END
>  <mol_id>  (89) 
2026-09-18-3war-s0-n100-r8-0089

>  <rmsd_to_ref>  (89) 
4.4948979591855425

>  <pose_kind>  (89) 
rigid

$$$$
3war.A
     RDKit          3D

 13 13  0  0  0  0  0  0  0  0999 V2000
    0.2362   18.6147   36.0995 N   0  0  0  0  0  0  0  0  0  0  0  0
    0.5900   18.5910   37.4015 C   0  0  0  0  0  0  0  0  0  0  0  0
    1.4256   17.5857   37.8530 C   0  0  0  0  0  0  0  0  0  0  0  0
    1.9076   16.6055   37.0075 C   0  0  0  0  0  0  0  0  0  0  0  0
    1.5163   16.6738   35.6835 C   0  0  0  0  0  0  0  0  0  0  0  0
    0.6744   17.6813   35.2141 C   0  0  0  0  0  0  0  0  0  0  0  0
    1.8230   17.5416   39.2670 C   0  0  0  0  0  0  0  0  0  0  0  0
    1.3450   18.5261   40.1401 O   0  0  0  0  0  0  0  0  0  0  0  0
    2.5846   16.6133   39.6455 O   0  0  0  0  0  0  0  0  0  0  0  0
    0.2060   19.3648   38.0556 H   0  0  0  0  0  0  0  0  0  0  0  0
    2.5468   15.8481   37.3850 H   0  0  0  0  0  0  0  0  0  0  0  0
    1.8826   15.9107   34.9909 H   0  0  0  0  0  0  0  0  0  0  0  0
    0.3745   17.7233   34.1707 H   0  0  0  0  0  0  0  0  0  0  0  0
  1  2  1  0
  1  6  2  0
  2  3  2  0
  3  4  1  0
  3  7  1  0
  4  5  2  0
  5  6  1  0
  7  8  1  0
  7  9  2  0
  2 10  1  0
  4 11  1  0
  5 12  1  0
  6 13  1  0
M  CHG  1   8  -1
M  END
>  <mol_id>  (90) 
2026-09-18-3war-s0-n100-r8-0090

>  <rmsd_to_ref>  (90) 
4.540816326531047

>  <pose_kind>  (90) 
conformer

$$$$
3war.A
     RDKit          3D

 13 13  0  0  0  0  0  0  0  0999 V2000
    2.7243   20.9769   37.2059 N   0  0  0  0  0  0  0  0  0  0  0  0
    2.1696   21.6368   38.3288 C   0  0  0  0  0  0  0  0  0  0  0  0
    2.9593   22.6814   38.9325 C   0  0  0  0  0  0  0  0  0  0  0  0
    4.2141   22.9940   38.4407 C   0  0  0  0  0  0  0  0  0  0  0  0
    4.7026   22.3435   37.3289 C   0  0  0  0  0  0  0  0  0  0  0  0
    3.9691   21.3308   36.7527 C   0  0  0  0  0  0  0  0  0  0  0  0
    2.4668   23.3662   40.1988 C   0  0  0  0  0  0  0  0  0  0  0  0
    1.2635   23.1890   40.5499 O   0  0  0  0  0  0  0  0  0  0  0  0
    3.3025   24.0294   40.7742 O   0  0  0  0  0  0  0  0  0  0  0  0
    1.1796   21.3646   38.7235 H   0  0  0  0  0  0  0  0  0  0  0  0
    4.8228   23.7633   38.9384 H   0  0  0  0  0  0  0  0  0  0  0  0
    5.6750   22.6321   36.9032 H   0  0  0  0  0  0  0  0  0  0  0  0
    4.3970   20.7861   35.8981 H   0  0  0  0  0  0  0  0  0  0  0  0
  1  2  1  0
  1  6  2  0
  2  3  2  0
  3  4  1  0
  3  7  1  0
  4  5  2  0
  5  6  1  0
  7  8  1  0
  7  9  2  0
  2 10  1  0
  4 11  1  0
  5 12  1  0
  6 13  1  0
M  CHG  1   8  -1
M  END
>  <mol_id>  (91) 
2026-09-18-3war-s0-n100-r8-0091

>  <rmsd_to_ref>  (91) 
4.586734693877668

>  <pose_kind>  (91) 
rigid

$$$$
3war.A
     RDKit          3D

 13 13  0  0  0  0  0  0  0  0999 V2000
    3.6903   18.2757   38.0215 N   0  0  0  0  0  0  0  0  0  0  0  0
    3.8075   18.8667   39.2165 C   0  0  0  0  0  0  0  0  0  0  0  0
    5.0553   18.9450   39.7985 C   0  0  0  0  0  0  0  0  0  0  0  0
    6.1563   18.4175   39.1464 C   0  0  0  0  0  0  0  0  0  0  0  0
    5.9661   17.8141   37.9022 C   0  0  0  0  0  0  0  0  0  0  0  0
    4.7108   17.7420   37.3297 C   0  0  0  0  0  0  0  0  0  0  0  0
    5.2221   19.5809   41.0981 C   0  0  0  0  0  0  0  0  0  0  0  0
    4.1182   20.1107   41.7533 O   0  0  0  0  0  0  0  0  0  0  0  0
    6.3646   19.6468   41.6197 O   0  0  0  0  0  0  0  0  0  0  0  0
    2.9584   19.2923   39.7561 H   0  0  0  0  0  0  0  0  0  0  0  0
    7.1555   18.4450   39.5438 H   0  0  0  0  0  0  0  0  0  0  0  0
    6.8314   17.3953   37.3815 H   0  0  0  0  0  0  0  0  0  0  0  0
    4.5339   17.2769   36.3603 H   0  0  0  0  0  0  0  0  0  0  0  0
  1  2  1  0
  1  6  2  0
  2  3  2  0
  3  4  1  0
  3  7  1  0
  4  5  2  0
  5  6  1  0
  7  8  1  0
  7  9  2  0
  2 10  1  0
  4 11  1  0
  5 12  1  0
  6 13  1  0
M  CHG  1   8  -1
M  END
>  <mol_id>  (92) 
2026-09-18-3war-s0-n100-r8-0092

>  <rmsd_to_ref>  (92) 
4.632653061226119

>  <pose_kind>  (92) 
conformer

$$$$
3war.A
     RDKit          3D

 13 13  0  0  0  0  0  0  0  0999 V2000
    4.3581   22.2289   40.5842 N   0  0  0  0  0  0  0  0  0  0  0  0
    3.2283   22.5864   41.3586 C   0  0  0  0  0  0  0  0  0  0  0  0
    1.9423   22.1284   40.8938 C   0  0  0  0  0  0  0  0  0  0  0  0
    1.8319   21.3961   39.7252 C   0  0  0  0  0  0  0  0  0  0  0  0
    2.9618   21.0485   39.0177 C   0  0  0  0  0  0  0  0  0  0  0  0
    4.1949   21.4941   39.4380 C   0  0  0  0  0  0  0  0  0  0  0  0
    0.6778   22.5560   41.6238 C   0  0  0  0  0  0  0  0  0  0  0  0
    0.7934   23.0882   42.7667 O   0  0  0  0  0  0  0  0  0  0  0  0
   -0.3516   22.3488   41.0185 O   0  0  0  0  0  0  0  0  0  0  0  0
    3.3270   23.1871   42.2747 H   0  0  0  0  0  0  0  0  0  0  0  0
    0.8401   21.0910   39.3602 H   0  0  0  0  0  0  0  0  0  0  0  0
    2.8791   20.4173   38.1206 H   0  0  0  0  0  0  0  0  0  0  0  0
    5.0808   21.2520   38.8326 H   0  0  0  0  0  0  0  0  0  0  0  0
  1  2  1  0
  1  6  2  0
  2  3  2  0
  3  4  1  0
  3  7  1  0
  4  5  2  0
  5  6  1  0
  7  8  1  0
  7  9  2  0
  2 10  1  0
  4 11  1  0
  5 12  1  0
  6 13  1  0
M  CHG  1   8  -1
M  END
>  <mol_id>  (93) 
2026-09-18-3war-s0-n100-r8-0093

>  <rmsd_to_ref>  (93) 
4.678571428572029

>  <pose_kind>  (93) 
rigid

$$$$
3war.A
     RDKit          3D

 13 13  0  0  0  0  0  0  0  0999 V2000
    4.0770   22.4695   36.6784 N   0  0  0  0  0  0  0  0  0  0  0  0
    3.6302   22.2085   37.9295 C   0  0  0  0  0  0  0  0  0  0  0  0
    4.4084   21.4964   38.8160 C   0  0  0  0  0  0  0  0  0  0  0  0
    5.6645   21.0377   38.4324 C   0  0  0  0  0  0  0  0  0  0  0  0
    6.0878   21.3221   37.1497 C   0  0  0  0  0  0  0  0  0  0  0  0
    5.2974   22.0365   36.2724 C   0  0  0  0  0  0  0  0  0  0  0  0
    3.9457   21.2057   40.1653 C   0  0  0  0  0  0  0  0  0  0  0  0
    2.6765   21.6697   40.5515 O   0  0  0  0  0  0  0  0  0  0  0  0
    4.6804   20.5554   40.9444 O   0  0  0  0  0  0  0  0  0  0  0  0
    2.6491   22.5626   38.2399 H   0  0  0  0  0  0  0  0  0  0  0  0
    6.3048   20.4808   39.0858 H   0  0  0  0  0  0  0  0  0  0  0  0
    7.0482   20.9995   36.7824 H   0  0  0  0  0  0  0  0  0  0  0  0
    5.6481   22.2499   35.2682 H   0  0  0  0  0  0  0  0  0  0  0  0
  1  2  1  0
  1  6  2  0
  2  3  2  0
  3  4  1  0
  3  7  1  0
  4  5  2  0
  5  6  1  0
  7  8  1  0
  7  9  2  0
  2 10  1  0
  4 11  1  0
  5 12  1  0
  6 13  1  0
M  CHG  1   8  -1
M  END
>  <mol_id>  (94) 
2026-09-18-3war-s0-n100-r8-0094

>  <rmsd_to_ref>  (94) 
4.724489795918897

>  <pose_kind>  (94) 
conformer

$$$$
3war.A
     RDKit          3D

 13 13  0  0  0  0  0  0  0  0999 V2000
    1.1826   19.8783   37.9903 N   0  0  0  0  0  0  0  0  0  0  0  0
    0.6477   19.8586   39.3008 C   0  0  0  0  0  0  0  0  0  0  0  0
   -0.7053   19.3828   39.4505 C   0  0  0  0  0  0  0  0  0  0  0  0
   -1.4442   18.9924   38.3479 C   0  0  0  0  0  0  0  0  0  0  0  0
   -0.8735   19.0030   37.0941 C   0  0  0  0  0  0  0  0  0  0  0  0
    0.4107   19.4724   36.9321 C   0  0  0  0  0  0  0  0  0  0  0  0
   -1.3753   19.4247   40.8158 C   0  0  0  0  0  0  0  0  0  0  0  0
   -0.6531   19.6322   41.8346 O   0  0  0  0  0  0  0  0  0  0  0  0
   -2.5760   19.2598   40.7965 O   0  0  0  0  0  0  0  0  0  0  0  0
    1.2382   20.1917   40.1670 H   0  0  0  0  0  0  0  0  0  0  0  0
   -2.4894   18.6730   38.4726 H   0  0  0  0  0  0  0  0  0  0  0  0
   -1.4415   18.6378   36.2258 H   0  0  0  0  0  0  0  0  0  0  0  0
    0.8326   19.5237   35.9175 H   0  0  0  0  0  0  0  0  0  0  0  0
  1  2  1  0
  1  6  2  0
  2  3  2  0
  3  4  1  0
  3  7  1  0
  4  5  2  0
  5  6  1  0
  7  8  1  0
  7  9  2  0
  2 10  1  0
  4 11  1  0
  5 12  1  0
  6 13  1  0
M  CHG  1   8  -1
M  END
>  <mol_id>  (95) 
2026-09-18-3war-s0-n100-r8-0095

>  <rmsd_to_ref>  (95) 
4.770408163266974

>  <pose_kind>  (95) 
rigid

$$$$
3war.A
     RDKit          3D

 13 13  0  0  0  0  0  0  0  0999 V2000
    1.1061   19.8190   33.9777 N   0  0  0  0  0  0  0  0  0  0  0  0
    0.4220   19.6223   35.1171 C   0  0  0  0  0  0  0  0  0  0  0  0
    1.0958   19.4244   36.3235 C   0  0  0  0  0  0  0  0  0  0  0  0
    2.4744   19.4410   36.2866 C   0  0  0  0  0  0  0  0  0  0  0  0
    3.1789   19.6429   35.1173 C   0  0  0  0  0  0  0  0  0  0  0  0
    2.4413   19.8336   33.9505 C   0  0  0  0  0  0  0  0  0  0  0  0
    0.3248   19.2144   37.5378 C   0  0  0  0  0  0  0  0  0  0  0  0
    1.0658   19.0214   38.7184 O   0  0  0  0  0  0  0  0  0  0  0  0
   -0.9201   19.1962   37.5906 O   0  0  0  0  0  0  0  0  0  0  0  0
   -0.6639   19.6231   35.0640 H   0  0  0  0  0  0  0  0  0  0  0  0
    3.0126   19.2899   37.2088 H   0  0  0  0  0  0  0  0  0  0  0  0
    4.2594   19.6545   35.0966 H   0  0  0  0  0  0  0  0  0  0  0  0
    2.9221   19.9966   33.0030 H   0  0  0  0  0  0  0  0  0  0  0  0
  1  2  1  0
  1  6  2  0
  2  3  2  0
  3  4  1  0
  3  7  1  0
  4  5  2  0
  5  6  1  0
  7  8  1  0
  7  9  2  0
  2 10  1  0
  4 11  1  0
  5 12  1  0
  6 13  1  0
M  CHG  1   8  -1
M  END
>  <mol_id>  (96) 
2026-09-18-3war-s0-n100-r8-0096

>  <rmsd_to_ref>  (96) 
4.816326530612704

>  <pose_kind>  (96) 
conformer

$$$$
3war.A
     RDKit          3D

 13 13  0  0  0  0  0  0  0  0999 V2000
    3.1571   18.5545   35.2949 N   0  0  0  0  0  0  0  0  0  0  0  0
    2.9725   18.6357   36.6961 C   0  0  0  0  0  0  0  0  0  0  0  0
    2.8384   17.3922   37.4137 C   0  0  0  0  0  0  0  0  0  0  0  0
    2.8634   16.1821   36.7435 C   0  0  0  0  0  0  0  0  0  0  0  0
    3.0722   16.1499   35.3821 C   0  0  0  0  0  0  0  0  0  0  0  0
    3.1830   17.3291   34.6800 C   0  0  0  0  0  0  0  0  0  0  0  0
    2.5421   17.4079   38.9059 C   0  0  0  0  0  0  0  0  0  0  0  0
    2.6746   18.4988   39.5344 O   0  0  0  0  0  0  0  0  0  0  0  0
    2.1870   16.3431   39.3635 O   0  0  0  0  0  0  0  0  0  0  0  0
    2.9331   19.6050   37.2148 H   0  0  0  0  0  0  0  0  0  0  0  0
    2.7162   15.2439   37.2986 H   0  0  0  0  0  0  0  0  0  0  0  0
    3.1501   15.1859   34.8581 H   0  0  0  0  0  0  0  0  0  0  0  0
    3.2964   17.2867   33.5867 H   0  0  0  0  0  0  0  0  0  0  0  0
  1  2  1  0
  1  6  2  0
  2  3  2  0
  3  4  1  0
  3  7  1  0
  4  5  2  0
  5  6  1  0
  7  8  1  0
  7  9  2  0
  2 10  1  0
  4 11  1  0
  5 12  1  0
  6 13  1  0
M  CHG  1   8  -1
M  END
>  <mol_id>  (97) 
2026-09-18-3war-s0-n100-r8-0097

>  <rmsd_to_ref>  (97) 
4.862244897959646

>  <pose_kind>  (97) 
rigid

$$$$
