@<TRIPOS>MOLECULE
6tgu.A
32 34 1 0 0 
SMALL
USER_CHARGES


@<TRIPOS>ATOM
  1 C02      3.2704    20.0816    36.9100 C.2   1 N92   0.9790 
  2 C04      2.7239    19.8375    38.3194 C.ar  1 N92  -0.1790 
  3 C05      1.9745    20.8172    38.9669 C.ar  1 N92  -0.1500 
  4 H05      1.9110    21.8023    38.5287 H     1 N92   0.1500 
  5 C06      1.3019    20.5646    40.1670 C.ar  1 N92  -0.1500 
  6 H06      0.6226    21.3015    40.5694 H     1 N92   0.1500 
  7 C07      1.5079    19.3565    40.8488 C.ar  1 N92   0.1000 
  8 C09      0.4444    17.8615    42.6087 C.2   1 N92   0.4621 
  9 C11      0.4288    15.6073    42.9153 C.2   1 N92   0.1732 
 10 C12      0.8553    14.2304    42.6635 C.ar  1 N92   0.0540 
 11 C13      0.2328    13.1351    43.2790 C.ar  1 N92  -0.1500 
 12 H13     -0.5696    13.3057    43.9814 H     1 N92   0.1500 
 13 C14      0.6322    11.8319    42.9995 C.ar  1 N92  -0.1500 
 14 H14      0.1713    10.9947    43.5026 H     1 N92   0.1500 
 15 C15      1.6306    11.6302    42.0652 C.ar  1 N92   0.1770 
 16 C17      2.2690    12.6840    41.4288 C.ar  1 N92  -0.1500 
 17 H17      3.0611    12.5031    40.7173 H     1 N92   0.1500 
 18 C18      1.8629    13.9810    41.7304 C.ar  1 N92  -0.1500 
 19 H18      2.3380    14.8126    41.2314 H     1 N92   0.1500 
 20 C19     -0.5843    15.9508    43.7709 C.2   1 N92  -0.1100 
 21 H19     -1.0961    15.2582    44.4227 H     1 N92   0.1500 
 22 C21      2.2504    18.3557    40.2060 C.ar  1 N92  -0.1500 
 23 H21      2.3633    17.3857    40.6672 H     1 N92   0.1500 
 24 C22      2.8437    18.6148    38.9691 C.ar  1 N92  -0.1710 
 25 N08      0.7803    19.0569    42.0413 N.pl3 1 N92  -0.5840 
 26 H08      0.4599    19.8676    42.5515 H     1 N92   0.4000 
 27 N10      0.9791    16.6716    42.1626 N.2   1 N92  -0.5653 
 28 O01      2.8674    21.1275    36.3211 O.co2 1 N92  -0.9000 
 29 O03      4.0035    19.1925    36.4244 O.co2 1 N92  -0.9000 
 30 O23      3.4800    17.5959    38.3007 O.3   1 N92  -0.8290 
 31 S20     -0.9334    17.6347    43.6687 S.3   1 N92  -0.0800 
 32 CL1      2.1103    10.0114    41.6767 Cl    1 N92  -0.1770 
@<TRIPOS>BOND
  1   1   2  1   
  2   1  28  ar  
  3   1  29  ar  
  4   2   3  ar  
  5   2  24  ar  
  6   3   4  1   
  7   3   5  ar  
  8   5   6  1   
  9   5   7  ar  
 10   7  22  ar  
 11   7  25  1   
 12   8  25  1   
 13   8  27  2   
 14   8  31  1   
 15   9  10  1   
 16   9  20  2   
 17   9  27  1   
 18  10  11  ar  
 19  10  18  ar  
 20  11  12  1   
 21  11  13  ar  
 22  13  14  1   
 23  13  15  ar  
 24  15  16  ar  
 25  15  32  1   
 26  16  17  1   
 27  16  18  ar  
 28  18  19  1   
 29  20  21  1   
 30  20  31  1   
 31  22  23  1   
 32  22  24  ar  
 33  24  30  1   
 34  25  26  1   
@<TRIPOS>SUBSTRUCTURE
  1 N92  27 GROUP 4 A **** 0

# MOE 2014.09 (io_trps.svl 2012.10)
