3war.A
     RDKit          3D

  9  9  0  0  0  0  0  0  0  0999 V2000
    2.0001   18.6245   40.6926 N   0  0  0  0  0  0  0  0  0  0  0  0
    2.5782   18.5757   39.4013 C   0  0  0  0  0  0  0  0  0  0  0  0
    2.4967   19.7718   38.6000 C   0  0  0  0  0  0  0  0  0  0  0  0
    1.8538   20.9004   39.0765 C   0  0  0  0  0  0  0  0  0  0  0  0
    1.3289   20.9112   40.3502 C   0  0  0  0  0  0  0  0  0  0  0  0
    1.3818   19.7712   41.1205 C   0  0  0  0  0  0  0  0  0  0  0  0
    3.0116   19.7599   37.1684 C   0  0  0  0  0  0  0  0  0  0  0  0
    3.7306   18.7870   36.7954 O   0  0  0  0  0  0  0  0  0  0  0  0
    2.6655   20.7081   36.4973 O   0  0  0  0  0  0  0  0  0  0  0  0
  1  2  2  0
  1  6  1  0
  2  3  1  0
  3  4  2  0
  3  7  1  0
  4  5  1  0
  5  6  2  0
  7  8  1  0
  7  9  2  0
M  CHG  1   8  -1
M  END
>  <_TriposChargeType>  (1) 
USER_CHARGES

$$$$
