
     RDKit          3D

 16 16  0  0  0  0  0  0  0  0999 V2000
    0.2590   20.9010   42.8650 S   0  0  0  0  0  0  0  0  0  0  0  0
    0.7520   17.9490   43.9390 C   0  0  0  0  0  0  0  0  0  0  0  0
    1.4460   19.7690   42.5120 C   0  0  0  0  0  0  0  0  0  0  0  0
   -0.0850   19.7340   44.1090 C   0  0  0  0  0  0  0  0  0  0  0  0
   -1.0080   18.5850   46.2880 C   0  0  0  0  0  0  0  0  0  0  0  0
    3.0360   19.6780   42.0400 S   0  0  0  0  0  0  0  0  0  0  0  0
    1.0710   18.4600   43.6950 C   0  0  0  0  0  0  0  0  0  0  0  0
   -0.4310   19.6970   45.3890 O   0  0  0  0  0  0  0  0  0  0  0  0
    0.7782   17.9910   45.0379 H   0  0  0  0  0  0  0  0  0  0  0  0
   -0.2929   17.9712   43.5960 H   0  0  0  0  0  0  0  0  0  0  0  0
    1.2308   17.0200   43.5960 H   0  0  0  0  0  0  0  0  0  0  0  0
   -1.1753   19.8767   44.0793 H   0  0  0  0  0  0  0  0  0  0  0  0
   -0.8667   18.8573   47.3444 H   0  0  0  0  0  0  0  0  0  0  0  0
   -2.0817   18.4659   46.0805 H   0  0  0  0  0  0  0  0  0  0  0  0
   -0.4872   17.6386   46.0805 H   0  0  0  0  0  0  0  0  0  0  0  0
    1.9696   17.8271   43.7396 H   0  0  0  0  0  0  0  0  0  0  0  0
  1  4  1  0
  3  1  1  0
  3  7  1  0
  4  8  1  0
  6  3  2  0
  7  2  1  0
  7  4  1  0
  8  5  1  0
  2  9  1  0
  2 10  1  0
  2 11  1  0
  4 12  1  0
  5 13  1  0
  5 14  1  0
  5 15  1  0
  7 16  1  0
M  END
>  <mol_id>  (1) 
2026-09-18-6fnk-s0-n100-refligand-0001

>  <rmsd_to_ref>  (1) 


$$$$

     RDKit          3D

 12 13  0  0  0  0  0  0  0  0999 V2000
   -0.1000   20.1360   44.1300 N   0  0  0  0  0  0  0  0  0  0  0  0
    1.5310   17.2220   42.9120 N   0  0  0  0  0  0  0  0  0  0  0  0
    2.2880   17.6030   41.9530 C   0  0  0  0  0  0  0  0  0  0  0  0
    0.0680   18.0380   44.8900 N   0  0  0  0  0  0  0  0  0  0  0  0
    2.3230   18.8210   41.5150 N   0  0  0  0  0  0  0  0  0  0  0  0
   -0.4800   19.2410   45.0800 C   0  0  0  0  0  0  0  0  0  0  0  0
    0.8260   19.4570   43.2820 C   0  0  0  0  0  0  0  0  0  0  0  0
    1.8290   20.9860   41.7860 O   0  0  0  0  0  0  0  0  0  0  0  0
    1.6680   19.7800   42.1650 C   0  0  0  0  0  0  0  0  0  0  0  0
    0.8270   18.1510   43.6740 C   0  0  0  0  0  0  0  0  0  0  0  0
    2.9421   16.8579   41.4766 H   0  0  0  0  0  0  0  0  0  0  0  0
   -1.1609   19.4802   45.9102 H   0  0  0  0  0  0  0  0  0  0  0  0
  1  6  1  0
  2 10  2  0
  3  2  1  0
  4  6  2  0
  5  3  2  0
  5  9  1  0
  7 10  1  0
  7  1  2  0
  8  9  2  0
  9  7  1  0
 10  4  1  0
  3 11  1  0
  6 12  1  0
M  END
>  <mol_id>  (2) 
2026-09-18-6fnk-s0-n100-refligand-0002

>  <rmsd_to_ref>  (2) 


$$$$

     RDKit          3D

 31 32  0  0  0  0  0  0  0  0999 V2000
   -0.9130   19.9240   45.0820 O   0  0  0  0  0  0  0  0  0  0  0  0
    1.1920   16.9790   41.9860 C   0  0  0  0  0  0  0  0  0  0  0  0
    0.3410   16.6480   44.3680 C   0  0  0  0  0  0  0  0  0  0  0  0
    0.9810   15.4200   41.2970 S   0  0  0  0  0  0  0  0  0  0  0  0
    2.4820   20.1130   40.5410 N   0  0  0  0  0  0  0  0  0  0  0  0
    0.6930   18.9740   46.3660 O   0  0  0  0  0  0  0  0  0  0  0  0
   -0.1860   18.7950   45.2120 C   0  0  0  0  0  0  0  0  0  0  0  0
    1.8420   19.1820   41.4850 C   0  0  0  0  0  0  0  0  0  0  0  0
   -0.5080   14.4080   45.3150 C   0  0  0  0  0  0  0  0  0  0  0  0
    1.4020   19.5600   42.6990 C   0  0  0  0  0  0  0  0  0  0  0  0
    1.7550   17.9240   41.1780 C   0  0  0  0  0  0  0  0  0  0  0  0
    0.6360   15.2260   44.7700 C   0  0  0  0  0  0  0  0  0  0  0  0
    2.4150   19.7300   39.3530 O   0  0  0  0  0  0  0  0  0  0  0  0
    0.8590   17.3490   43.3200 N   0  0  0  0  0  0  0  0  0  0  0  0
    0.8600   18.6190   43.6230 C   0  0  0  0  0  0  0  0  0  0  0  0
   -0.5790   17.4520   45.1300 C   0  0  0  0  0  0  0  0  0  0  0  0
    1.7260   14.8080   44.6380 O   0  0  0  0  0  0  0  0  0  0  0  0
    3.0630   21.1360   40.9080 N   0  0  0  0  0  0  0  0  0  0  0  0
   -1.1395   20.2758   45.9792 H   0  0  0  0  0  0  0  0  0  0  0  0
   -0.4885   16.2974   43.7364 H   0  0  0  0  0  0  0  0  0  0  0  0
    0.1693   18.8674   47.1994 H   0  0  0  0  0  0  0  0  0  0  0  0
   -0.4813   14.4271   46.4145 H   0  0  0  0  0  0  0  0  0  0  0  0
   -1.4609   14.8307   44.9640 H   0  0  0  0  0  0  0  0  0  0  0  0
   -0.4161   13.3696   44.9640 H   0  0  0  0  0  0  0  0  0  0  0  0
    1.4618   20.6203   42.9855 H   0  0  0  0  0  0  0  0  0  0  0  0
    2.1595   17.5997   40.2078 H   0  0  0  0  0  0  0  0  0  0  0  0
    2.2445   18.7551   39.3297 H   0  0  0  0  0  0  0  0  0  0  0  0
   -1.5682   17.4037   44.6513 H   0  0  0  0  0  0  0  0  0  0  0  0
   -0.6016   17.0500   46.1536 H   0  0  0  0  0  0  0  0  0  0  0  0
    3.0820   21.1695   41.9373 H   0  0  0  0  0  0  0  0  0  0  0  0
    4.0276   21.1314   40.5467 H   0  0  0  0  0  0  0  0  0  0  0  0
  1  7  1  0
  2 14  1  0
  3 12  1  0
  3 16  1  0
  4  2  2  0
  5 18  1  0
  5  8  1  0
  7  6  1  0
  8 10  1  0
 10 15  2  0
 11  8  2  0
 11  2  1  0
 12  9  1  0
 13  5  1  0
 14 15  1  0
 14  3  1  0
 15  7  1  0
 16  7  1  0
 17 12  2  0
  1 19  1  0
  3 20  1  0
  6 21  1  0
  9 22  1  0
  9 23  1  0
  9 24  1  0
 10 25  1  0
 11 26  1  0
 13 27  1  0
 16 28  1  0
 16 29  1  0
 18 30  1  0
 18 31  1  0
M  END
>  <mol_id>  (3) 
2026-09-18-6fnk-s0-n100-refligand-0003

>  <rmsd_to_ref>  (3) 


$$$$

     RDKit          3D

 25 27  0  0  0  0  0  0  0  0999 V2000
   -0.4640   18.2630   44.9000 C   0  0  0  0  0  0  0  0  0  0  0  0
    0.4700   19.8210   43.2230 C   0  0  0  0  0  0  0  0  0  0  0  0
    2.4820   19.1840   41.8490 C   0  0  0  0  0  0  0  0  0  0  0  0
   -0.6760   16.8970   44.9560 N   0  0  0  0  0  0  0  0  0  0  0  0
    0.1660   16.1220   44.0970 N   0  0  0  0  0  0  0  0  0  0  0  0
    1.9940   16.6390   42.4840 C   0  0  0  0  0  0  0  0  0  0  0  0
   -0.3470   20.7110   43.4670 O   0  0  0  0  0  0  0  0  0  0  0  0
    0.4400   18.6190   43.7690 C   0  0  0  0  0  0  0  0  0  0  0  0
    2.1330   17.9240   41.1150 C   0  0  0  0  0  0  0  0  0  0  0  0
    2.8910   16.7980   41.3320 C   0  0  0  0  0  0  0  0  0  0  0  0
   -0.8630   19.1340   45.5620 O   0  0  0  0  0  0  0  0  0  0  0  0
    0.8360   17.2250   43.3310 C   0  0  0  0  0  0  0  0  0  0  0  0
    1.4420   20.0650   42.2220 N   0  0  0  0  0  0  0  0  0  0  0  0
    1.2650   21.1730   41.4760 C   0  0  0  0  0  0  0  0  0  0  0  0
    3.1718   19.7516   41.2071 H   0  0  0  0  0  0  0  0  0  0  0  0
    2.8870   18.8294   42.8083 H   0  0  0  0  0  0  0  0  0  0  0  0
   -1.3855   16.4706   45.5690 H   0  0  0  0  0  0  0  0  0  0  0  0
    2.7239   17.1566   43.1238 H   0  0  0  0  0  0  0  0  0  0  0  0
    1.3017   19.2862   43.6198 H   0  0  0  0  0  0  0  0  0  0  0  0
    1.6686   18.3563   40.2164 H   0  0  0  0  0  0  0  0  0  0  0  0
    3.9493   16.9757   41.5735 H   0  0  0  0  0  0  0  0  0  0  0  0
    3.0697   16.0188   40.5764 H   0  0  0  0  0  0  0  0  0  0  0  0
    1.1263   22.0415   42.1366 H   0  0  0  0  0  0  0  0  0  0  0  0
    2.1490   21.3327   40.8412 H   0  0  0  0  0  0  0  0  0  0  0  0
    0.3752   21.0493   40.8412 H   0  0  0  0  0  0  0  0  0  0  0  0
  1  4  1  0
  1 11  2  0
  2  7  2  0
  3 13  1  0
  5  4  1  0
  6 10  1  0
  6 12  1  0
  8  2  1  0
  8  1  1  0
  9 10  1  0
  9  3  1  0
  9  6  1  0
 12  8  1  0
 12  5  2  0
 13  2  1  0
 14 13  1  0
  3 15  1  0
  3 16  1  0
  4 17  1  0
  6 18  1  0
  8 19  1  0
  9 20  1  0
 10 21  1  0
 10 22  1  0
 14 23  1  0
 14 24  1  0
 14 25  1  0
M  END
>  <mol_id>  (4) 
2026-09-18-6fnk-s0-n100-refligand-0004

>  <rmsd_to_ref>  (4) 


$$$$

     RDKit          3D

 26 28  0  0  0  0  0  0  0  0999 V2000
    3.1200   17.0290   39.9830 O   0  0  0  0  0  0  0  0  0  0  0  0
   -0.8340   18.3600   45.7490 N   0  0  0  0  0  0  0  0  0  0  0  0
    2.5310   19.7600   41.0120 O   0  0  0  0  0  0  0  0  0  0  0  0
    3.5180   14.9230   39.8870 O   0  0  0  0  0  1  0  0  0  0  0  0
    2.0930   19.0830   39.8430 C   0  0  0  0  0  0  0  0  0  0  0  0
   -0.2520   17.6370   44.7890 C   0  0  0  0  0  0  0  0  0  0  0  0
   -0.7980   19.6760   45.3950 N   0  0  0  0  0  0  0  0  0  0  0  0
    1.8690   17.6460   40.2940 C   0  0  0  0  0  0  0  0  0  0  0  0
   -0.2080   19.7250   44.1610 C   0  0  0  0  0  0  0  0  0  0  0  0
    1.5920   17.2590   41.8490 C   0  0  0  0  0  0  0  0  0  0  0  0
    3.1460   15.8870   38.0480 O   0  0  0  0  0  0  0  0  0  0  0  0
    0.7640   20.8910   42.3150 C   0  0  0  0  0  0  0  0  0  0  0  0
    3.2160   15.9490   39.1990 C   0  0  0  0  0  0  0  0  0  0  0  0
    1.4160   19.7470   41.9760 C   0  0  0  0  0  0  0  0  0  0  0  0
    0.2600   18.4480   43.6940 C   0  0  0  0  0  0  0  0  0  0  0  0
    1.0860   18.5640   42.4670 C   0  0  0  0  0  0  0  0  0  0  0  0
    0.0070   20.8640   43.4500 C   0  0  0  0  0  0  0  0  0  0  0  0
    2.8612   19.1283   39.0570 H   0  0  0  0  0  0  0  0  0  0  0  0
    1.1848   19.5329   39.4154 H   0  0  0  0  0  0  0  0  0  0  0  0
   -0.1681   16.5407   44.8222 H   0  0  0  0  0  0  0  0  0  0  0  0
    0.9302   17.3441   39.8066 H   0  0  0  0  0  0  0  0  0  0  0  0
    0.8312   16.4683   41.9262 H   0  0  0  0  0  0  0  0  0  0  0  0
    2.4869   16.8682   42.3554 H   0  0  0  0  0  0  0  0  0  0  0  0
    0.8434   21.7998   41.7003 H   0  0  0  0  0  0  0  0  0  0  0  0
    0.4766   21.5741   44.1466 H   0  0  0  0  0  0  0  0  0  0  0  0
   -0.9976   21.0741   43.0543 H   0  0  0  0  0  0  0  0  0  0  0  0
  3 14  1  0
  5  8  1  0
  5  3  1  0
  6  2  2  0
  7  2  1  0
  8  1  1  0
  8 10  1  0
  9  7  2  0
 10 16  1  0
 11 13  2  0
 12 17  1  0
 13  4  1  0
 13  1  1  0
 14 12  2  0
 14 16  1  0
 15  9  1  0
 15  6  1  0
 16 15  2  0
 17  9  1  0
  5 18  1  0
  5 19  1  0
  6 20  1  0
  8 21  1  0
 10 22  1  0
 10 23  1  0
 12 24  1  0
 17 25  1  0
 17 26  1  0
M  CHG  1   4  -1
M  END
>  <mol_id>  (5) 
2026-09-18-6fnk-s0-n100-refligand-0005

>  <rmsd_to_ref>  (5) 


$$$$

     RDKit          3D

 48 52  0  0  0  0  0  0  0  0999 V2000
    3.2790   21.7510   40.0810 C   0  0  0  0  0  0  0  0  0  0  0  0
    1.1940   20.0090   41.8240 C   0  0  0  0  0  0  0  0  0  0  0  0
    0.0210   21.3100   43.3900 C   0  0  0  0  0  0  0  0  0  0  0  0
    6.0450   23.0950   38.4680 O   0  0  0  0  0  0  0  0  0  0  0  0
   -1.0730   17.4660   45.1990 C   0  0  0  0  0  0  0  0  0  0  0  0
    0.8440   15.1750   43.7570 C   0  0  0  0  0  0  0  0  0  0  0  0
    0.3360   19.1350   43.9750 C   0  0  0  0  0  0  0  0  0  0  0  0
    5.6460   21.7440   38.8350 C   0  0  0  0  0  0  0  0  0  0  0  0
    2.7350   20.1820   38.3820 O   0  0  0  0  0  0  0  0  0  0  0  0
    1.8670   19.7470   40.5800 N   0  0  0  0  0  0  0  0  0  0  0  0
    5.5620   21.5380   40.3060 C   0  0  0  0  0  0  0  0  0  0  0  0
    0.7240   21.2390   42.2910 C   0  0  0  0  0  0  0  0  0  0  0  0
    3.1190   13.5330   41.0080 C   0  0  0  0  0  0  0  0  0  0  0  0
    0.9970   18.9330   42.7040 C   0  0  0  0  0  0  0  0  0  0  0  0
    1.9850   15.6180   41.7930 C   0  0  0  0  0  0  0  0  0  0  0  0
    4.3550   20.9440   40.6070 O   0  0  0  0  0  0  0  0  0  0  0  0
    6.7290   21.2640   39.6600 C   0  0  0  0  0  0  0  0  0  0  0  0
    1.3150   16.2800   42.7940 C   0  0  0  0  0  0  0  0  0  0  0  0
    2.3640   20.6950   39.6830 C   0  0  0  0  0  0  0  0  0  0  0  0
    1.3200   13.5410   43.1590 S   0  0  0  0  0  0  0  0  0  0  0  0
    2.5290   16.3290   40.7600 N   0  0  0  0  0  0  0  0  0  0  0  0
    2.2580   14.2410   41.9260 N   0  0  0  0  0  0  0  0  0  0  0  0
    1.4350   17.6540   42.2950 C   0  0  0  0  0  0  0  0  0  0  0  0
    2.1810   18.5680   40.2370 N   0  0  0  0  0  0  0  0  0  0  0  0
    0.2920   18.0920   45.1220 C   0  0  0  0  0  0  0  0  0  0  0  0
    2.0280   17.5850   41.0440 C   0  0  0  0  0  0  0  0  0  0  0  0
   -0.2180   20.3440   44.2250 N   0  0  0  0  0  0  0  0  0  0  0  0
    2.8421   22.4050   40.8500 H   0  0  0  0  0  0  0  0  0  0  0  0
    3.5645   22.4508   39.2817 H   0  0  0  0  0  0  0  0  0  0  0  0
   -0.4141   22.2905   43.6337 H   0  0  0  0  0  0  0  0  0  0  0  0
    6.2021   23.6269   39.2880 H   0  0  0  0  0  0  0  0  0  0  0  0
   -1.3576   17.3355   46.2535 H   0  0  0  0  0  0  0  0  0  0  0  0
   -1.8044   18.1187   44.6999 H   0  0  0  0  0  0  0  0  0  0  0  0
   -1.0556   16.4859   44.6999 H   0  0  0  0  0  0  0  0  0  0  0  0
    1.2988   15.3421   44.7446 H   0  0  0  0  0  0  0  0  0  0  0  0
   -0.2533   15.2154   43.8231 H   0  0  0  0  0  0  0  0  0  0  0  0
    5.0161   21.4465   37.9837 H   0  0  0  0  0  0  0  0  0  0  0  0
    5.5309   21.9433   41.3281 H   0  0  0  0  0  0  0  0  0  0  0  0
    0.9481   22.1569   41.7278 H   0  0  0  0  0  0  0  0  0  0  0  0
    3.8468   12.9345   41.5755 H   0  0  0  0  0  0  0  0  0  0  0  0
    2.5126   12.8689   40.3746 H   0  0  0  0  0  0  0  0  0  0  0  0
    3.6535   14.2563   40.3746 H   0  0  0  0  0  0  0  0  0  0  0  0
    7.0581   20.2189   39.5624 H   0  0  0  0  0  0  0  0  0  0  0  0
    7.7677   21.5946   39.8076 H   0  0  0  0  0  0  0  0  0  0  0  0
    2.4179   17.8450   42.7504 H   0  0  0  0  0  0  0  0  0  0  0  0
    2.5645   18.3979   39.2963 H   0  0  0  0  0  0  0  0  0  0  0  0
    1.0410   17.3093   44.9310 H   0  0  0  0  0  0  0  0  0  0  0  0
    0.5115   18.5954   46.0751 H   0  0  0  0  0  0  0  0  0  0  0  0
  1 16  1  0
  2 12  2  0
  2 14  1  0
  3 27  2  0
  7 27  1  0
  7 25  1  0
  8  4  1  0
  8 17  1  0
  8 11  1  0
  9 19  2  0
 10  2  1  0
 11 16  1  0
 12  3  1  0
 13 22  1  0
 14  7  2  0
 15 22  1  0
 15 18  2  0
 17 11  1  0
 18  6  1  0
 19  1  1  0
 19 10  1  0
 20  6  1  0
 21 26  2  0
 21 15  1  0
 22 20  1  0
 23 26  1  0
 23 14  1  0
 23 18  1  0
 24 10  1  0
 24 26  1  0
 25  5  1  0
  1 28  1  0
  1 29  1  0
  3 30  1  0
  4 31  1  0
  5 32  1  0
  5 33  1  0
  5 34  1  0
  6 35  1  0
  6 36  1  0
  8 37  1  0
 11 38  1  0
 12 39  1  0
 13 40  1  0
 13 41  1  0
 13 42  1  0
 17 43  1  0
 17 44  1  0
 23 45  1  0
 24 46  1  0
 25 47  1  0
 25 48  1  0
M  END
>  <mol_id>  (6) 
2026-09-18-6fnk-s0-n100-refligand-0006

>  <rmsd_to_ref>  (6) 


$$$$

     RDKit          3D

 38 42  0  0  0  0  0  0  0  0999 V2000
    0.6260   19.8110   42.6670 C   0  0  0  0  0  0  0  0  0  0  0  0
   -0.3390   16.1760   45.3670 C   0  0  0  0  0  0  0  0  0  0  0  0
    3.6640   20.4620   41.4690 C   0  0  0  0  0  0  0  0  0  0  0  0
    0.7680   17.4560   43.7540 C   0  0  0  0  0  0  0  0  0  0  0  0
    2.0580   15.8660   42.6080 N   0  0  0  0  0  0  0  0  0  0  0  0
   -0.4820   20.8530   44.3930 O   0  0  0  0  0  0  0  0  0  0  0  0
    0.6110   18.8870   43.4370 C   0  0  0  0  0  0  0  0  0  0  0  0
    2.5880   19.7490   40.9690 C   0  0  0  0  0  0  0  0  0  0  0  0
    0.5530   16.2430   44.4480 C   0  0  0  0  0  0  0  0  0  0  0  0
    0.0090   18.4940   44.6630 C   0  0  0  0  0  0  0  0  0  0  0  0
    3.4460   20.8750   40.1510 C   0  0  0  0  0  0  0  0  0  0  0  0
    1.2560   20.0090   41.2320 C   0  0  0  0  0  0  0  0  0  0  0  0
   -0.6620   17.5170   45.6280 C   0  0  0  0  0  0  0  0  0  0  0  0
   -0.4130   19.8890   45.1830 C   0  0  0  0  0  0  0  0  0  0  0  0
    1.4060   13.9380   44.2510 N   0  0  0  0  0  0  0  0  0  0  0  0
    1.3620   15.1820   43.6750 C   0  0  0  0  0  0  0  0  0  0  0  0
    1.7480   17.1290   42.7950 N   0  0  0  0  0  0  0  0  0  0  0  0
   -0.2180   21.8950   42.4550 O   0  0  0  0  0  0  0  0  0  0  0  0
    0.0070   20.9220   43.1540 C   0  0  0  0  0  0  0  0  0  0  0  0
    1.5710   20.1360   43.1267 H   0  0  0  0  0  0  0  0  0  0  0  0
    0.0636   15.6888   46.2673 H   0  0  0  0  0  0  0  0  0  0  0  0
   -1.2138   15.5819   45.0642 H   0  0  0  0  0  0  0  0  0  0  0  0
    3.4709   21.1871   42.2733 H   0  0  0  0  0  0  0  0  0  0  0  0
    4.5859   20.0966   41.9451 H   0  0  0  0  0  0  0  0  0  0  0  0
    1.0784   19.6223   42.7655 H   0  0  0  0  0  0  0  0  0  0  0  0
    2.3282   18.6808   40.9297 H   0  0  0  0  0  0  0  0  0  0  0  0
    0.6220   15.8121   45.4578 H   0  0  0  0  0  0  0  0  0  0  0  0
    4.1366   20.5863   39.3449 H   0  0  0  0  0  0  0  0  0  0  0  0
    3.2506   21.8156   39.6152 H   0  0  0  0  0  0  0  0  0  0  0  0
    0.6779   19.3661   40.5519 H   0  0  0  0  0  0  0  0  0  0  0  0
    1.2083   21.1012   41.1105 H   0  0  0  0  0  0  0  0  0  0  0  0
   -1.7523   17.6369   45.5457 H   0  0  0  0  0  0  0  0  0  0  0  0
   -0.2970   17.7516   46.6388 H   0  0  0  0  0  0  0  0  0  0  0  0
    0.3091   20.1690   45.9641 H   0  0  0  0  0  0  0  0  0  0  0  0
   -1.4579   19.7391   45.4925 H   0  0  0  0  0  0  0  0  0  0  0  0
    0.7706   13.7076   45.0282 H   0  0  0  0  0  0  0  0  0  0  0  0
    2.0745   13.2343   43.9064 H   0  0  0  0  0  0  0  0  0  0  0  0
    2.2136   17.8684   42.2496 H   0  0  0  0  0  0  0  0  0  0  0  0
  1 12  1  0
  1 19  1  0
  1  7  1  0
  2 13  1  0
  4 17  1  0
  4  9  1  0
  4 10  1  0
  5 17  1  0
  5 16  2  0
  6 14  1  0
  7  4  1  0
  7 10  1  0
  8 12  1  0
  8  3  1  0
  9  2  1  0
 10 14  1  0
 10 13  1  0
 11  8  1  0
 11  3  1  0
 16 15  1  0
 16  9  1  0
 18 19  2  0
 19  6  1  0
  1 20  1  0
  2 21  1  0
  2 22  1  0
  3 23  1  0
  3 24  1  0
  7 25  1  0
  8 26  1  0
  9 27  1  0
 11 28  1  0
 11 29  1  0
 12 30  1  0
 12 31  1  0
 13 32  1  0
 13 33  1  0
 14 34  1  0
 14 35  1  0
 15 36  1  0
 15 37  1  0
 17 38  1  0
M  END
>  <mol_id>  (7) 
2026-09-18-6fnk-s0-n100-refligand-0007

>  <rmsd_to_ref>  (7) 


$$$$

     RDKit          3D

 39 42  0  0  0  0  0  0  0  0999 V2000
    2.2310   20.6490   39.5250 C   0  0  0  0  0  0  0  0  0  0  0  0
   -0.3480   20.0710   44.4580 C   0  0  0  0  0  0  0  0  0  0  0  0
    2.7760   19.4650   39.3260 C   0  0  0  0  0  0  0  0  0  0  0  0
    2.1660   17.7420   42.4890 N   0  0  0  0  0  4  0  0  0  0  0  0
    2.6340   18.4750   40.1770 C   0  0  0  0  0  0  0  0  0  0  0  0
    2.5710   18.7890   41.5760 C   0  0  0  0  0  0  0  0  0  0  0  0
   -0.3600   15.6540   45.3850 C   0  0  0  0  0  0  0  0  0  0  0  0
    1.6470   19.9370   41.6910 C   0  0  0  0  0  0  0  0  0  0  0  0
   -0.8060   19.6890   45.7190 N   0  0  0  0  0  0  0  0  0  0  0  0
   -0.1290   20.7110   42.8300 N   0  0  0  0  0  0  0  0  0  0  0  0
    0.5310   18.9650   43.7330 C   0  0  0  0  0  0  0  0  0  0  0  0
    0.1100   17.7970   44.6020 C   0  0  0  0  0  0  0  0  0  0  0  0
    0.2760   16.4970   44.4410 C   0  0  0  0  0  0  0  0  0  0  0  0
    1.5970   20.9380   40.7400 C   0  0  0  0  0  0  0  0  0  0  0  0
   -0.4600   18.3220   45.7330 C   0  0  0  0  0  0  0  0  0  0  0  0
   -0.7110   20.6690   43.6200 N   0  0  0  0  0  0  0  0  0  0  0  0
    3.9690   19.3390   41.9720 C   0  0  0  0  0  0  0  0  0  0  0  0
   -1.0900   17.6800   46.6900 C   0  0  0  0  0  0  0  0  0  0  0  0
   -1.0110   16.2110   46.5150 C   0  0  0  0  0  0  0  0  0  0  0  0
    0.7030   19.8660   42.6510 C   0  0  0  0  0  0  0  0  0  0  0  0
    2.2744   21.4123   38.7342 H   0  0  0  0  0  0  0  0  0  0  0  0
    3.3705   19.3007   38.4152 H   0  0  0  0  0  0  0  0  0  0  0  0
    2.2910   18.0650   43.4590 H   0  0  0  0  0  0  0  0  0  0  0  0
    1.1750   17.5112   42.3289 H   0  0  0  0  0  0  0  0  0  0  0  0
    2.7437   16.9044   42.3289 H   0  0  0  0  0  0  0  0  0  0  0  0
    1.7015   17.9525   39.9174 H   0  0  0  0  0  0  0  0  0  0  0  0
    3.5581   17.8880   40.0700 H   0  0  0  0  0  0  0  0  0  0  0  0
   -0.3489   14.5635   45.2411 H   0  0  0  0  0  0  0  0  0  0  0  0
    2.4018   20.6481   42.0579 H   0  0  0  0  0  0  0  0  0  0  0  0
    1.3588   18.3110   43.4215 H   0  0  0  0  0  0  0  0  0  0  0  0
    0.8778   16.0893   43.6154 H   0  0  0  0  0  0  0  0  0  0  0  0
    2.0729   21.8337   41.1657 H   0  0  0  0  0  0  0  0  0  0  0  0
    0.5320   21.0727   40.4998 H   0  0  0  0  0  0  0  0  0  0  0  0
   -1.6145   21.1622   43.6558 H   0  0  0  0  0  0  0  0  0  0  0  0
    4.0529   19.3720   43.0683 H   0  0  0  0  0  0  0  0  0  0  0  0
    4.7508   18.6814   41.5640 H   0  0  0  0  0  0  0  0  0  0  0  0
    4.0931   20.3530   41.5640 H   0  0  0  0  0  0  0  0  0  0  0  0
   -1.6136   18.1739   47.5218 H   0  0  0  0  0  0  0  0  0  0  0  0
   -1.4610   15.5470   47.2677 H   0  0  0  0  0  0  0  0  0  0  0  0
  1 14  1  0
  2  9  2  0
  3  1  2  0
  3  5  1  0
  5  6  1  0
  6  8  1  0
  6 17  1  0
  6  4  1  0
  7 19  2  0
  8 20  1  0
  9 15  1  0
 10 16  1  0
 11 20  1  0
 11  2  1  0
 11 12  1  0
 12 15  1  0
 13 12  2  0
 13  7  1  0
 14  8  1  0
 15 18  2  0
 16  2  1  0
 19 18  1  0
 20 10  2  0
  1 21  1  0
  3 22  1  0
  4 23  1  0
  4 24  1  0
  4 25  1  0
  5 26  1  0
  5 27  1  0
  7 28  1  0
  8 29  1  0
 11 30  1  0
 13 31  1  0
 14 32  1  0
 14 33  1  0
 16 34  1  0
 17 35  1  0
 17 36  1  0
 17 37  1  0
 18 38  1  0
 19 39  1  0
M  CHG  1   4   1
M  END
>  <mol_id>  (8) 
2026-09-18-6fnk-s0-n100-refligand-0008

>  <rmsd_to_ref>  (8) 


$$$$

     RDKit          3D

 33 33  0  0  0  0  0  0  0  0999 V2000
    0.2270   15.6020   45.0130 C   0  0  0  0  0  0  0  0  0  0  0  0
   -0.6730   19.6200   45.0570 O   0  0  0  0  0  0  0  0  0  0  0  0
    1.4130   19.6890   40.7340 O   0  0  0  0  0  0  0  0  0  0  0  0
   -0.5930   16.1790   45.9750 C   0  0  0  0  0  0  0  0  0  0  0  0
    1.0320   18.3490   43.0530 C   0  0  0  0  0  0  0  0  0  0  0  0
    1.7940   17.8110   42.2190 C   0  0  0  0  0  0  0  0  0  0  0  0
    2.2210   19.8040   41.6500 C   0  0  0  0  0  0  0  0  0  0  0  0
    1.7410   15.6040   43.1240 C   0  0  0  0  0  0  0  0  0  0  0  0
    3.2730   20.7880   40.9130 C   0  0  0  0  0  0  0  0  0  0  0  0
    2.6000   18.0710   41.5390 O   0  0  0  0  0  0  0  0  0  0  0  0
    3.2230   20.9860   39.5440 O   0  0  0  0  0  0  0  0  0  0  0  0
    0.4700   17.6330   44.0540 C   0  0  0  0  0  0  0  0  0  0  0  0
    2.1680   16.6410   42.3710 C   0  0  0  0  0  0  0  0  0  0  0  0
   -0.8700   17.5110   46.0020 C   0  0  0  0  0  0  0  0  0  0  0  0
    0.7160   16.3490   44.0200 C   0  0  0  0  0  0  0  0  0  0  0  0
   -0.3710   18.2860   45.1110 C   0  0  0  0  0  0  0  0  0  0  0  0
    3.0070   16.1050   41.0170 C   0  0  0  0  0  0  0  0  0  0  0  0
    0.4730   14.5313   45.0694 H   0  0  0  0  0  0  0  0  0  0  0  0
   -1.2297   20.0306   45.7652 H   0  0  0  0  0  0  0  0  0  0  0  0
    0.5057   19.5599   41.1085 H   0  0  0  0  0  0  0  0  0  0  0  0
   -1.0365   15.5324   46.7465 H   0  0  0  0  0  0  0  0  0  0  0  0
    0.2020   18.7873   42.4794 H   0  0  0  0  0  0  0  0  0  0  0  0
    1.7093   19.0261   43.5941 H   0  0  0  0  0  0  0  0  0  0  0  0
    1.7742   20.2671   42.5421 H   0  0  0  0  0  0  0  0  0  0  0  0
    2.6374   18.8647   42.0427 H   0  0  0  0  0  0  0  0  0  0  0  0
    2.0336   14.5438   43.1071 H   0  0  0  0  0  0  0  0  0  0  0  0
    3.1535   21.7781   41.3771 H   0  0  0  0  0  0  0  0  0  0  0  0
    4.2307   20.2639   41.0475 H   0  0  0  0  0  0  0  0  0  0  0  0
    2.9851   21.9283   39.3553 H   0  0  0  0  0  0  0  0  0  0  0  0
   -1.5212   17.9222   46.7873 H   0  0  0  0  0  0  0  0  0  0  0  0
    3.8942   15.5382   41.3360 H   0  0  0  0  0  0  0  0  0  0  0  0
    2.3545   15.4561   40.4144 H   0  0  0  0  0  0  0  0  0  0  0  0
    3.3215   16.9698   40.4144 H   0  0  0  0  0  0  0  0  0  0  0  0
  1  4  2  0
  2 16  1  0
  3  7  1  0
  4 14  1  0
  5 12  1  0
  6 13  1  0
  6  5  1  0
  8 15  1  0
  9  7  1  0
 10  6  2  0
 11  9  1  0
 12 16  1  0
 13  8  2  0
 15 12  2  0
 15  1  1  0
 16 14  2  0
 17 13  1  0
  1 18  1  0
  2 19  1  0
  3 20  1  0
  4 21  1  0
  5 22  1  0
  5 23  1  0
  7 24  1  0
  7 25  1  0
  8 26  1  0
  9 27  1  0
  9 28  1  0
 11 29  1  0
 14 30  1  0
 17 31  1  0
 17 32  1  0
 17 33  1  0
M  END
>  <mol_id>  (9) 
2026-09-18-6fnk-s0-n100-refligand-0009

>  <rmsd_to_ref>  (9) 


$$$$

     RDKit          3D

 19 20  0  0  0  0  0  0  0  0999 V2000
   -0.6290   19.5450   45.4680 C   0  0  0  0  0  0  0  0  0  0  0  0
    1.4250   17.5330   43.1260 C   0  0  0  0  0  0  0  0  0  0  0  0
    1.8030   21.1730   41.0520 N   0  0  0  0  0  0  0  0  0  0  0  0
    0.7980   18.7590   43.6970 C   0  0  0  0  0  0  0  0  0  0  0  0
    0.8730   19.9170   43.0500 C   0  0  0  0  0  0  0  0  0  0  0  0
    0.1120   20.8030   43.6570 C   0  0  0  0  0  0  0  0  0  0  0  0
    2.5720   18.9080   41.4990 C   0  0  0  0  0  0  0  0  0  0  0  0
    1.7030   20.0380   41.8740 C   0  0  0  0  0  0  0  0  0  0  0  0
   -0.6470   20.6750   44.7980 N   0  0  0  0  0  0  0  0  0  0  0  0
    2.3260   17.7060   42.0690 C   0  0  0  0  0  0  0  0  0  0  0  0
    0.0800   18.5260   44.9270 C   0  0  0  0  0  0  0  0  0  0  0  0
   -1.1641   19.4321   46.4224 H   0  0  0  0  0  0  0  0  0  0  0  0
    1.1892   16.5332   43.5193 H   0  0  0  0  0  0  0  0  0  0  0  0
    1.2275   22.0041   41.2494 H   0  0  0  0  0  0  0  0  0  0  0  0
    2.4518   21.1740   40.2520 H   0  0  0  0  0  0  0  0  0  0  0  0
    0.0775   21.7941   43.1811 H   0  0  0  0  0  0  0  0  0  0  0  0
    3.3936   19.0378   40.7792 H   0  0  0  0  0  0  0  0  0  0  0  0
    2.8587   16.8239   41.6840 H   0  0  0  0  0  0  0  0  0  0  0  0
    0.1081   17.5406   45.4152 H   0  0  0  0  0  0  0  0  0  0  0  0
  2  4  1  0
  3  8  1  0
  4 11  2  0
  5  6  2  0
  5  4  1  0
  6  9  1  0
  7  8  2  0
  7 10  1  0
  8  5  1  0
  9  1  2  0
 10  2  2  0
 11  1  1  0
  1 12  1  0
  2 13  1  0
  3 14  1  0
  3 15  1  0
  6 16  1  0
  7 17  1  0
 10 18  1  0
 11 19  1  0
M  END
>  <mol_id>  (10) 
2026-09-18-6fnk-s0-n100-refligand-0010

>  <rmsd_to_ref>  (10) 


$$$$

     RDKit          3D

 34 34  0  0  0  0  0  0  0  0999 V2000
    0.4880   19.4750   43.3200 C   0  0  0  0  0  0  0  0  0  0  0  0
    0.0640   20.4270   43.9750 O   0  0  0  0  0  0  0  0  0  0  0  0
    2.6520   15.6690   40.2910 Cl  0  0  0  0  0  0  0  0  0  0  0  0
   -0.5020   16.2290   44.5670 N   0  0  0  0  0  0  0  0  0  0  0  0
   -0.8650   15.2410   45.4260 C   0  0  0  0  0  0  0  0  0  0  0  0
    2.9870   20.9090   42.1490 N   0  0  0  0  0  4  0  0  0  0  0  0
   -0.9720   17.9620   46.0950 C   0  0  0  0  0  0  0  0  0  0  0  0
    2.2900   19.5830   40.0740 C   0  0  0  0  0  0  0  0  0  0  0  0
   -0.2410   18.4430   43.8290 N   0  0  0  0  0  0  0  0  0  0  0  0
   -1.3800   15.6650   46.6830 C   0  0  0  0  0  0  0  0  0  0  0  0
    2.0870   20.0380   41.3480 C   0  0  0  0  0  0  0  0  0  0  0  0
   -1.3840   17.0020   46.9760 C   0  0  0  0  0  0  0  0  0  0  0  0
    1.5660   17.7360   41.8410 C   0  0  0  0  0  0  0  0  0  0  0  0
    2.1660   20.6610   40.0230 N   0  0  0  0  0  0  0  0  0  0  0  0
   -0.5380   17.5310   44.8300 C   0  0  0  0  0  0  0  0  0  0  0  0
    1.4040   19.1130   42.1430 C   0  0  0  0  0  0  0  0  0  0  0  0
    2.1590   17.4030   40.6330 C   0  0  0  0  0  0  0  0  0  0  0  0
    2.3890   18.2770   39.6410 C   0  0  0  0  0  0  0  0  0  0  0  0
   -0.7667   14.1768   45.1654 H   0  0  0  0  0  0  0  0  0  0  0  0
    2.9870   20.9090   43.1790 H   0  0  0  0  0  0  0  0  0  0  0  0
    2.9870   21.8801   41.8057 H   0  0  0  0  0  0  0  0  0  0  0  0
    3.8280   20.4235   41.8057 H   0  0  0  0  0  0  0  0  0  0  0  0
    2.1460   20.4235   41.8057 H   0  0  0  0  0  0  0  0  0  0  0  0
   -0.9798   19.0283   46.3651 H   0  0  0  0  0  0  0  0  0  0  0  0
   -0.9239   18.2307   43.0877 H   0  0  0  0  0  0  0  0  0  0  0  0
   -1.7677   14.9319   47.4057 H   0  0  0  0  0  0  0  0  0  0  0  0
    3.0641   20.2458   41.8085 H   0  0  0  0  0  0  0  0  0  0  0  0
    1.4692   20.9459   41.2848 H   0  0  0  0  0  0  0  0  0  0  0  0
   -1.7359   17.3191   47.9688 H   0  0  0  0  0  0  0  0  0  0  0  0
    1.2318   16.9578   42.5429 H   0  0  0  0  0  0  0  0  0  0  0  0
    2.2137   21.1424   39.1137 H   0  0  0  0  0  0  0  0  0  0  0  0
    0.5432   19.1615   41.4599 H   0  0  0  0  0  0  0  0  0  0  0  0
    1.6517   18.1103   38.8418 H   0  0  0  0  0  0  0  0  0  0  0  0
    3.4136   18.1156   39.2746 H   0  0  0  0  0  0  0  0  0  0  0  0
  1  9  1  0
  1  2  2  0
  3 17  1  0
  4 15  2  0
  4  5  1  0
  5 10  2  0
  7 12  2  0
  8 11  1  0
  9 15  1  0
 10 12  1  0
 11 16  1  0
 13 16  1  0
 14  8  2  3
 15  7  1  0
 16  1  1  0
 17 13  2  0
 18  8  1  0
 18 17  1  0
  5 19  1  0
  6 20  1  0
  6 21  1  0
  6 22  1  0
  6 23  1  0
  7 24  1  0
  9 25  1  0
 10 26  1  0
 11 27  1  0
 11 28  1  0
 12 29  1  0
 13 30  1  0
 14 31  1  0
 16 32  1  0
 18 33  1  0
 18 34  1  0
M  CHG  1   6   1
M  END
>  <mol_id>  (11) 
2026-09-18-6fnk-s0-n100-refligand-0011

>  <rmsd_to_ref>  (11) 


$$$$

     RDKit          3D

 17 18  0  0  0  0  0  0  0  0999 V2000
    2.0290   18.3310   42.3620 C   0  0  0  0  0  0  0  0  0  0  0  0
    0.0940   19.2180   43.5250 C   0  0  0  0  0  0  0  0  0  0  0  0
    0.5840   16.8000   43.5140 C   0  0  0  0  0  0  0  0  0  0  0  0
    2.8590   17.3080   42.0540 O   0  0  0  0  0  0  0  0  0  0  0  0
   -1.1460   17.8010   44.8730 C   0  0  0  0  0  0  0  0  0  0  0  0
   -0.4250   16.6330   44.4150 C   0  0  0  0  0  0  0  0  0  0  0  0
   -0.8840   19.0560   44.4210 N   0  0  0  0  0  0  0  0  0  0  0  0
    1.3630   20.6090   42.1910 C   0  0  0  0  0  0  0  0  0  0  0  0
    0.8890   18.0840   43.1540 C   0  0  0  0  0  0  0  0  0  0  0  0
    0.3800   20.4190   43.0600 N   0  0  0  0  0  0  0  0  0  0  0  0
    2.2290   19.6010   41.8760 C   0  0  0  0  0  0  0  0  0  0  0  0
    1.1286   15.9409   43.0952 H   0  0  0  0  0  0  0  0  0  0  0  0
    3.6618   17.4720   41.4985 H   0  0  0  0  0  0  0  0  0  0  0  0
   -1.9419   17.6674   45.6205 H   0  0  0  0  0  0  0  0  0  0  0  0
   -0.6858   15.6310   44.7863 H   0  0  0  0  0  0  0  0  0  0  0  0
    1.4830   21.5940   41.7162 H   0  0  0  0  0  0  0  0  0  0  0  0
    3.0936   19.8072   41.2280 H   0  0  0  0  0  0  0  0  0  0  0  0
  1  9  2  0
  2  7  1  0
  3  6  2  0
  4  1  1  0
  6  5  1  0
  7  5  2  0
  8 10  1  0
  9  3  1  0
  9  2  1  0
 10  2  2  0
 11  8  2  0
 11  1  1  0
  3 12  1  0
  4 13  1  0
  5 14  1  0
  6 15  1  0
  8 16  1  0
 11 17  1  0
M  END
>  <mol_id>  (12) 
2026-09-18-6fnk-s0-n100-refligand-0013

>  <rmsd_to_ref>  (12) 


$$$$

     RDKit          3D

 32 33  0  0  0  0  0  0  0  0999 V2000
    2.5960   17.9130   40.6170 N   0  0  0  0  0  0  0  0  0  0  0  0
    1.1850   16.1250   40.0890 N   0  0  0  0  0  0  0  0  0  0  0  0
   -0.0240   21.5350   42.8040 C   0  0  0  0  0  0  0  0  0  0  0  0
    0.2320   16.6330   44.1650 C   0  0  0  0  0  0  0  0  0  0  0  0
    2.5310   19.9560   41.6200 O   0  0  0  0  0  0  0  0  0  0  0  0
   -0.9560   17.4430   46.1330 C   0  0  0  0  0  0  0  0  0  0  0  0
    1.9400   18.7510   41.4560 C   0  0  0  0  0  0  0  0  0  0  0  0
   -0.2660   17.6720   44.9190 C   0  0  0  0  0  0  0  0  0  0  0  0
    0.8640   20.5560   43.1830 O   0  0  0  0  0  0  0  0  0  0  0  0
    2.2540   16.6980   39.9570 C   0  0  0  0  0  0  0  0  0  0  0  0
    1.1630   18.2200   42.6290 C   0  0  0  0  0  0  0  0  0  0  0  0
    0.5670   19.2160   43.3500 C   0  0  0  0  0  0  0  0  0  0  0  0
    3.3350   16.1660   39.3090 N   0  0  0  0  0  0  0  0  0  0  0  0
   -0.8020   19.9110   44.9610 O   0  0  0  0  0  0  0  0  0  0  0  0
    0.9870   16.9520   43.0170 C   0  0  0  0  0  0  0  0  0  0  0  0
    1.4170   19.8860   41.0090 C   0  0  0  0  0  0  0  0  0  0  0  0
   -0.1430   18.9860   44.4550 C   0  0  0  0  0  0  0  0  0  0  0  0
    1.0045   15.2479   39.5801 H   0  0  0  0  0  0  0  0  0  0  0  0
    0.4630   16.5184   40.7093 H   0  0  0  0  0  0  0  0  0  0  0  0
   -0.4529   22.0078   43.6999 H   0  0  0  0  0  0  0  0  0  0  0  0
    0.5005   22.2936   42.2045 H   0  0  0  0  0  0  0  0  0  0  0  0
   -0.8300   21.0868   42.2045 H   0  0  0  0  0  0  0  0  0  0  0  0
    0.0468   15.5866   44.4491 H   0  0  0  0  0  0  0  0  0  0  0  0
   -0.2903   17.6639   46.9804 H   0  0  0  0  0  0  0  0  0  0  0  0
   -1.8399   18.0960   46.1812 H   0  0  0  0  0  0  0  0  0  0  0  0
   -1.2741   16.3911   46.1812 H   0  0  0  0  0  0  0  0  0  0  0  0
   -1.2165   17.6161   44.3682 H   0  0  0  0  0  0  0  0  0  0  0  0
    4.2084   16.7068   39.2348 H   0  0  0  0  0  0  0  0  0  0  0  0
    3.2755   15.2246   38.8953 H   0  0  0  0  0  0  0  0  0  0  0  0
    1.4406   16.1410   42.4284 H   0  0  0  0  0  0  0  0  0  0  0  0
    1.3791   20.0766   39.9263 H   0  0  0  0  0  0  0  0  0  0  0  0
    0.4432   20.3803   41.1409 H   0  0  0  0  0  0  0  0  0  0  0  0
  3  9  1  0
  4  8  1  0
  7  1  1  0
  7  5  1  0
  7 11  1  0
  8  6  1  0
  9 12  1  0
 10  2  1  0
 10  1  2  3
 11 15  1  0
 11 12  2  0
 12 17  1  0
 13 10  1  0
 15  4  2  0
 16  7  1  0
 16  5  1  0
 17  8  1  0
 17 14  2  0
  2 18  1  0
  2 19  1  0
  3 20  1  0
  3 21  1  0
  3 22  1  0
  4 23  1  0
  6 24  1  0
  6 25  1  0
  6 26  1  0
  8 27  1  0
 13 28  1  0
 13 29  1  0
 15 30  1  0
 16 31  1  0
 16 32  1  0
M  END
>  <mol_id>  (13) 
2026-09-18-6fnk-s0-n100-refligand-0014

>  <rmsd_to_ref>  (13) 


$$$$

     RDKit          3D

 45 48  0  0  0  0  0  0  0  0999 V2000
   -0.4250   20.2260   44.3510 O   0  0  0  0  0  0  0  0  0  0  0  0
    2.0160   17.1530   41.3810 C   0  0  0  0  0  0  0  0  0  0  0  0
    0.3240   20.0100   43.2730 C   0  0  0  0  0  0  0  0  0  0  0  0
   -0.7190   16.8970   45.6270 C   0  0  0  0  0  0  0  0  0  0  0  0
    3.9710   20.9470   38.9130 C   0  0  0  0  0  0  0  0  0  0  0  0
    2.5020   18.8830   39.2430 C   0  0  0  0  0  0  0  0  0  0  0  0
    1.5620   18.4850   41.7180 C   0  0  0  0  0  0  0  0  0  0  0  0
    0.8850   16.4060   43.4390 C   0  0  0  0  0  0  0  0  0  0  0  0
    2.2140   19.5270   40.8150 N   0  0  0  0  0  0  0  0  0  0  0  0
    0.8860   18.7160   42.8630 C   0  0  0  0  0  0  0  0  0  0  0  0
    0.4180   15.3260   44.1610 N   0  0  0  0  0  0  0  0  0  0  0  0
    0.4780   17.6620   43.7750 C   0  0  0  0  0  0  0  0  0  0  0  0
    2.1830   14.6860   41.9860 C   0  0  0  0  0  0  0  0  0  0  0  0
    1.6740   16.1410   42.2630 C   0  0  0  0  0  0  0  0  0  0  0  0
    0.6230   21.2410   42.6390 C   0  0  0  0  0  0  0  0  0  0  0  0
    2.9690   19.9460   38.3470 C   0  0  0  0  0  0  0  0  0  0  0  0
    2.2250   20.7990   40.9030 C   0  0  0  0  0  0  0  0  0  0  0  0
   -0.3430   15.5730   45.2680 C   0  0  0  0  0  0  0  0  0  0  0  0
    1.2230   21.4320   41.5470 C   0  0  0  0  0  0  0  0  0  0  0  0
   -0.8560   14.4430   46.1590 C   0  0  0  0  0  0  0  0  0  0  0  0
   -0.3810   17.9560   44.8700 N   0  0  0  0  0  0  0  0  0  0  0  0
    3.2140   21.5280   40.1090 C   0  0  0  0  0  0  0  0  0  0  0  0
   -1.0350   13.1730   45.4240 C   0  0  0  0  0  0  0  0  0  0  0  0
   -1.5530   17.1270   46.7340 O   0  0  0  0  0  0  0  0  0  0  0  0
   -0.7602   21.1368   44.5465 H   0  0  0  0  0  0  0  0  0  0  0  0
    2.6022   16.9543   40.4717 H   0  0  0  0  0  0  0  0  0  0  0  0
    4.2123   21.7281   38.1770 H   0  0  0  0  0  0  0  0  0  0  0  0
    4.9383   20.4972   39.1812 H   0  0  0  0  0  0  0  0  0  0  0  0
    3.2679   18.0960   39.3058 H   0  0  0  0  0  0  0  0  0  0  0  0
    1.5667   18.4603   38.8474 H   0  0  0  0  0  0  0  0  0  0  0  0
    2.3627   14.1722   42.9419 H   0  0  0  0  0  0  0  0  0  0  0  0
    1.4241   14.1354   41.4108 H   0  0  0  0  0  0  0  0  0  0  0  0
    3.1197   14.7285   41.4108 H   0  0  0  0  0  0  0  0  0  0  0  0
    0.2888   22.1461   43.1673 H   0  0  0  0  0  0  0  0  0  0  0  0
    2.0856   20.5127   38.0179 H   0  0  0  0  0  0  0  0  0  0  0  0
    3.5133   19.4227   37.5471 H   0  0  0  0  0  0  0  0  0  0  0  0
    0.8465   22.3079   40.9983 H   0  0  0  0  0  0  0  0  0  0  0  0
   -0.1331   14.2802   46.9720 H   0  0  0  0  0  0  0  0  0  0  0  0
   -1.8409   14.7452   46.5446 H   0  0  0  0  0  0  0  0  0  0  0  0
   -0.7189   18.9086   45.0683 H   0  0  0  0  0  0  0  0  0  0  0  0
    3.9889   21.8450   40.8224 H   0  0  0  0  0  0  0  0  0  0  0  0
    2.5663   22.2583   39.6018 H   0  0  0  0  0  0  0  0  0  0  0  0
   -1.1514   12.3474   46.1415 H   0  0  0  0  0  0  0  0  0  0  0  0
   -1.9328   13.2386   44.7918 H   0  0  0  0  0  0  0  0  0  0  0  0
   -0.1541   12.9879   44.7918 H   0  0  0  0  0  0  0  0  0  0  0  0
  2  7  2  0
  2 14  1  0
  3  1  1  0
  4 24  2  0
  5 22  1  0
  6  9  1  0
  7 10  1  0
  8 12  1  0
  8 11  1  0
  9 17  1  0
  9  7  1  0
 10  3  1  0
 10 12  2  0
 11 18  2  0
 12 21  1  0
 13 14  1  0
 14  8  2  0
 15  3  2  0
 16  5  1  0
 16  6  1  0
 17 19  2  0
 18  4  1  0
 18 20  1  0
 19 15  1  0
 21  4  1  0
 22 17  1  0
 23 20  1  0
  1 25  1  0
  2 26  1  0
  5 27  1  0
  5 28  1  0
  6 29  1  0
  6 30  1  0
 13 31  1  0
 13 32  1  0
 13 33  1  0
 15 34  1  0
 16 35  1  0
 16 36  1  0
 19 37  1  0
 20 38  1  0
 20 39  1  0
 21 40  1  0
 22 41  1  0
 22 42  1  0
 23 43  1  0
 23 44  1  0
 23 45  1  0
M  END
>  <mol_id>  (14) 
2026-09-18-6fnk-s0-n100-refligand-0015

>  <rmsd_to_ref>  (14) 


$$$$

     RDKit          3D

 49 53  0  0  0  0  0  0  0  0999 V2000
   -0.1640   19.0250   45.3890 N   0  0  0  0  0  0  0  0  0  0  0  0
    4.3440   21.4630   40.3760 C   0  0  0  0  0  0  0  0  0  0  0  0
   -1.5050   16.8450   47.0600 S   0  0  0  0  0  0  0  0  0  0  0  0
   -0.5480   15.4870   45.2060 C   0  0  0  0  0  0  0  0  0  0  0  0
    2.7160   19.7290   40.0500 C   0  0  0  0  0  0  0  0  0  0  0  0
    1.9270   17.2680   39.7730 C   0  0  0  0  0  0  0  0  0  0  0  0
    1.4220   18.5670   42.0160 C   0  0  0  0  0  0  0  0  0  0  0  0
    1.2110   17.3800   42.6500 N   0  0  0  0  0  0  0  0  0  0  0  0
    1.8300   18.5730   40.6210 C   0  0  0  0  0  0  0  0  0  0  0  0
    3.4800   21.0090   38.1590 C   0  0  0  0  0  0  0  0  0  0  0  0
    0.6720   21.1490   42.3930 Cl  0  0  0  0  0  0  0  0  0  0  0  0
    0.5620   19.6520   43.1870 C   0  0  0  0  0  0  0  0  0  0  0  0
   -0.4260   21.1100   44.7870 O   0  0  0  0  0  0  0  0  0  0  0  0
   -1.0010   14.5350   46.0940 C   0  0  0  0  0  0  0  0  0  0  0  0
    0.6330   17.2740   43.7740 C   0  0  0  0  0  0  0  0  0  0  0  0
   -1.5550   15.1490   47.2910 C   0  0  0  0  0  0  0  0  0  0  0  0
    1.7350   15.6920   38.2330 N   0  0  0  0  0  4  0  0  0  0  0  0
   -0.0950   19.9670   44.5300 C   0  0  0  0  0  0  0  0  0  0  0  0
    2.4470   16.0800   40.2500 N   0  0  0  0  0  4  0  0  0  0  0  0
    3.5610   20.4470   40.8930 C   0  0  0  0  0  0  0  0  0  0  0  0
    1.7940   17.0130   38.4150 C   0  0  0  0  0  0  0  0  0  0  0  0
    1.9200   15.1310   39.3040 C   0  0  0  0  0  0  0  0  0  0  0  0
    2.6720   19.9750   38.7500 N   0  0  0  0  0  0  0  0  0  0  0  0
   -0.6390   16.7670   45.6230 C   0  0  0  0  0  0  0  0  0  0  0  0
    0.4340   15.6020   44.0410 C   0  0  0  0  0  0  0  0  0  0  0  0
    4.2900   21.7100   38.9950 C   0  0  0  0  0  0  0  0  0  0  0  0
    0.0580   17.6960   44.8230 C   0  0  0  0  0  0  0  0  0  0  0  0
   -0.3580   19.1866   46.3876 H   0  0  0  0  0  0  0  0  0  0  0  0
    4.9932   22.0629   41.0308 H   0  0  0  0  0  0  0  0  0  0  0  0
    1.1611   17.9928   40.0862 H   0  0  0  0  0  0  0  0  0  0  0  0
    2.2454   19.2025   41.6581 H   0  0  0  0  0  0  0  0  0  0  0  0
    0.7848   18.8797   40.4678 H   0  0  0  0  0  0  0  0  0  0  0  0
    3.4435   21.2220   37.0804 H   0  0  0  0  0  0  0  0  0  0  0  0
    1.5142   19.8538   43.6994 H   0  0  0  0  0  0  0  0  0  0  0  0
   -0.9502   13.4501   45.9199 H   0  0  0  0  0  0  0  0  0  0  0  0
   -1.9350   14.6221   48.1787 H   0  0  0  0  0  0  0  0  0  0  0  0
    0.8076   15.4357   37.8653 H   0  0  0  0  0  0  0  0  0  0  0  0
    2.4591   15.4021   37.5602 H   0  0  0  0  0  0  0  0  0  0  0  0
    3.4769   16.0893   40.2386 H   0  0  0  0  0  0  0  0  0  0  0  0
    2.1982   15.8774   41.2288 H   0  0  0  0  0  0  0  0  0  0  0  0
    3.6053   20.2069   41.9656 H   0  0  0  0  0  0  0  0  0  0  0  0
    2.6598   17.4231   37.8745 H   0  0  0  0  0  0  0  0  0  0  0  0
    0.8778   17.4861   38.0320 H   0  0  0  0  0  0  0  0  0  0  0  0
    0.9670   14.7288   39.6782 H   0  0  0  0  0  0  0  0  0  0  0  0
    2.6350   14.3058   39.1706 H   0  0  0  0  0  0  0  0  0  0  0  0
    0.0240   15.1158   43.1435 H   0  0  0  0  0  0  0  0  0  0  0  0
    1.3912   15.1084   44.2647 H   0  0  0  0  0  0  0  0  0  0  0  0
    4.9277   22.5011   38.5737 H   0  0  0  0  0  0  0  0  0  0  0  0
    1.0071   17.6199   45.3738 H   0  0  0  0  0  0  0  0  0  0  0  0
  2 20  2  0
  3 16  1  0
  4 24  2  0
  4 14  1  0
  5 20  1  0
  6 19  1  0
  6  9  1  0
  7  9  1  0
  7  8  1  0
  7 12  1  0
  8 15  2  0
  9  5  1  0
 10 23  1  0
 10 26  2  0
 12 11  1  0
 12 18  1  0
 14 16  2  0
 15 25  1  0
 17 21  1  0
 17 22  1  0
 18 13  2  0
 18  1  1  0
 21  6  1  0
 22 19  1  0
 23  5  2  0
 24  3  1  0
 25  4  1  0
 26  2  1  0
 27 15  1  0
 27  1  1  0
 27 24  1  0
  1 28  1  0
  2 29  1  0
  6 30  1  0
  7 31  1  0
  9 32  1  0
 10 33  1  0
 12 34  1  0
 14 35  1  0
 16 36  1  0
 17 37  1  0
 17 38  1  0
 19 39  1  0
 19 40  1  0
 20 41  1  0
 21 42  1  0
 21 43  1  0
 22 44  1  0
 22 45  1  0
 25 46  1  0
 25 47  1  0
 26 48  1  0
 27 49  1  0
M  CHG  2  17   1  19   1
M  END
>  <mol_id>  (15) 
2026-09-18-6fnk-s0-n100-refligand-0016

>  <rmsd_to_ref>  (15) 


$$$$

     RDKit          3D

 11 10  0  0  0  0  0  0  0  0999 V2000
    0.7680   18.4890   42.8510 C   0  0  0  0  0  0  0  0  0  0  0  0
    3.4820   20.7320   40.8820 Cl  0  0  0  0  0  0  0  0  0  0  0  0
    2.0610   19.0230   42.4760 C   0  0  0  0  0  0  0  0  0  0  0  0
   -0.2840   19.7240   43.4780 S   0  0  0  0  0  0  0  0  0  0  0  0
    2.8930   19.6160   41.9070 C   0  0  0  0  0  0  0  0  0  0  0  0
   -0.1510   19.3050   45.3110 C   0  0  0  0  0  0  0  0  0  0  0  0
    0.9113   17.7181   43.6224 H   0  0  0  0  0  0  0  0  0  0  0  0
    0.2990   18.0652   41.9507 H   0  0  0  0  0  0  0  0  0  0  0  0
   -0.4302   20.1847   45.9094 H   0  0  0  0  0  0  0  0  0  0  0  0
   -0.8286   18.4711   45.5466 H   0  0  0  0  0  0  0  0  0  0  0  0
    0.8835   19.0146   45.5466 H   0  0  0  0  0  0  0  0  0  0  0  0
  1  4  1  0
  2  5  1  0
  3  1  1  0
  4  6  1  0
  5  3  3  0
  1  7  1  0
  1  8  1  0
  6  9  1  0
  6 10  1  0
  6 11  1  0
M  END
>  <mol_id>  (16) 
2026-09-18-6fnk-s0-n100-refligand-0017

>  <rmsd_to_ref>  (16) 


$$$$

     RDKit          3D

 22 24  0  0  0  0  0  0  0  0999 V2000
   -0.4500   19.8700   45.0640 S   0  0  0  0  0  0  0  0  0  0  0  0
    0.7780   17.9520   43.3810 C   0  0  0  0  0  0  0  0  0  0  0  0
    1.7320   19.7340   41.6070 C   0  0  0  0  0  0  0  0  0  0  0  0
   -1.5980   18.0500   46.5810 O   0  0  0  0  0  0  0  0  0  0  0  0
    0.3700   16.9890   44.2410 C   0  0  0  0  0  0  0  0  0  0  0  0
    1.7320   18.3670   41.2270 C   0  0  0  0  0  0  0  0  0  0  0  0
    0.8210   15.6780   43.6200 C   0  0  0  0  0  0  0  0  0  0  0  0
    1.5040   16.1130   42.2390 C   0  0  0  0  0  0  0  0  0  0  0  0
    1.3910   17.4900   42.2800 C   0  0  0  0  0  0  0  0  0  0  0  0
   -0.1980   17.1580   45.3110 N   0  0  0  0  0  0  0  0  0  0  0  0
   -0.6740   18.3750   45.7790 C   0  0  0  0  0  0  0  0  0  0  0  0
    2.3710   20.8380   40.4360 Cl  0  0  0  0  0  0  0  0  0  0  0  0
    2.0630   17.7680   39.8440 C   0  0  0  0  0  0  0  0  0  0  0  0
    0.5510   19.3050   43.6960 C   0  0  0  0  0  0  0  0  0  0  0  0
    1.9640   15.2310   41.5300 O   0  0  0  0  0  0  0  0  0  0  0  0
    1.1750   20.1160   42.7810 C   0  0  0  0  0  0  0  0  0  0  0  0
    1.5464   15.1673   44.2703 H   0  0  0  0  0  0  0  0  0  0  0  0
   -0.0101   14.9720   43.4754 H   0  0  0  0  0  0  0  0  0  0  0  0
    2.5912   16.8121   39.9753 H   0  0  0  0  0  0  0  0  0  0  0  0
    1.1308   17.5981   39.2854 H   0  0  0  0  0  0  0  0  0  0  0  0
    2.7030   18.4668   39.2854 H   0  0  0  0  0  0  0  0  0  0  0  0
    1.2282   21.1869   43.0267 H   0  0  0  0  0  0  0  0  0  0  0  0
  1 11  1  0
  2 14  2  0
  2  5  1  0
  3 16  2  0
  5 10  2  0
  6  3  1  0
  6  9  2  0
  7  5  1  0
  8  9  1  0
  8  7  1  0
  9  2  1  0
 10 11  1  0
 11  4  2  0
 12  3  1  0
 13  6  1  0
 14  1  1  0
 15  8  2  0
 16 14  1  0
  7 17  1  0
  7 18  1  0
 13 19  1  0
 13 20  1  0
 13 21  1  0
 16 22  1  0
M  END
>  <mol_id>  (17) 
2026-09-18-6fnk-s0-n100-refligand-0018

>  <rmsd_to_ref>  (17) 


$$$$

     RDKit          3D

 36 39  0  0  0  0  0  0  0  0999 V2000
    1.3100   18.6560   42.2560 C   0  0  0  0  0  0  0  0  0  0  0  0
    0.6070   18.6880   43.4730 C   0  0  0  0  0  0  0  0  0  0  0  0
   -0.2130   17.0060   45.0390 C   0  0  0  0  0  0  0  0  0  0  0  0
    4.7930   21.7480   38.5770 C   0  0  0  0  0  0  0  0  0  0  0  0
    4.1200   20.9660   40.9400 C   0  0  0  0  0  0  0  0  0  0  0  0
    1.3540   17.2300   40.2980 O   0  0  0  0  0  0  0  0  0  0  0  0
   -1.2900   17.6610   47.1580 N   0  0  0  0  0  0  0  0  0  0  0  0
    0.8550   16.4970   42.8410 N   0  0  0  0  0  0  0  0  0  0  0  0
    2.1760   19.9900   40.3670 N   0  0  0  0  0  0  0  0  0  0  0  0
    5.4770   22.1650   39.7240 C   0  0  0  0  0  0  0  0  0  0  0  0
    2.2660   19.6320   41.5580 C   0  0  0  0  0  0  0  0  0  0  0  0
    3.2840   20.6760   39.9470 C   0  0  0  0  0  0  0  0  0  0  0  0
    1.3130   17.4100   41.6380 C   0  0  0  0  0  0  0  0  0  0  0  0
    3.6510   20.1490   42.4030 S   0  0  0  0  0  0  0  0  0  0  0  0
   -0.7340   19.2440   45.4280 N   0  0  0  0  0  0  0  0  0  0  0  0
   -0.0920   19.4670   44.2800 C   0  0  0  0  0  0  0  0  0  0  0  0
    5.2370   21.7160   40.9910 C   0  0  0  0  0  0  0  0  0  0  0  0
    1.4380   14.6380   41.9410 C   0  0  0  0  0  0  0  0  0  0  0  0
    3.6570   21.0640   38.6800 C   0  0  0  0  0  0  0  0  0  0  0  0
   -0.6980   17.9330   45.9060 C   0  0  0  0  0  0  0  0  0  0  0  0
    0.6930   15.0330   43.2560 C   0  0  0  0  0  0  0  0  0  0  0  0
    0.3380   17.3980   43.8970 C   0  0  0  0  0  0  0  0  0  0  0  0
    0.8000   19.6210   42.3929 H   0  0  0  0  0  0  0  0  0  0  0  0
   -0.2768   15.9352   45.2826 H   0  0  0  0  0  0  0  0  0  0  0  0
    5.1977   21.9876   37.5826 H   0  0  0  0  0  0  0  0  0  0  0  0
   -1.6290   18.4354   47.7465 H   0  0  0  0  0  0  0  0  0  0  0  0
   -1.3831   16.6881   47.4832 H   0  0  0  0  0  0  0  0  0  0  0  0
    6.2717   22.9145   39.5948 H   0  0  0  0  0  0  0  0  0  0  0  0
   -0.1577   20.5096   43.9356 H   0  0  0  0  0  0  0  0  0  0  0  0
    5.8422   21.9272   41.8849 H   0  0  0  0  0  0  0  0  0  0  0  0
    2.3842   14.1363   42.1922 H   0  0  0  0  0  0  0  0  0  0  0  0
    0.8065   13.9562   41.3524 H   0  0  0  0  0  0  0  0  0  0  0  0
    1.6479   15.5433   41.3524 H   0  0  0  0  0  0  0  0  0  0  0  0
    3.0467   20.8208   37.7978 H   0  0  0  0  0  0  0  0  0  0  0  0
    1.2214   14.7587   44.1810 H   0  0  0  0  0  0  0  0  0  0  0  0
   -0.2916   14.6121   43.5080 H   0  0  0  0  0  0  0  0  0  0  0  0
  1 11  1  0
  1  2  1  0
  2 22  2  0
  2 16  1  0
  3 20  2  0
  4 19  2  0
  4 10  1  0
  5 17  1  0
  5 14  1  0
  6 13  2  0
  8 21  1  0
  8 22  1  0
  9 11  2  0
 10 17  2  0
 11 14  1  0
 12  9  1  0
 12  5  2  0
 13  1  1  0
 13  8  1  0
 15 20  1  0
 16 15  2  0
 18 21  1  0
 19 12  1  0
 20  7  1  0
 22  3  1  0
  1 23  1  0
  3 24  1  0
  4 25  1  0
  7 26  1  0
  7 27  1  0
 10 28  1  0
 16 29  1  0
 17 30  1  0
 18 31  1  0
 18 32  1  0
 18 33  1  0
 19 34  1  0
 21 35  1  0
 21 36  1  0
M  END
>  <mol_id>  (18) 
2026-09-18-6fnk-s0-n100-refligand-0019

>  <rmsd_to_ref>  (18) 


$$$$

     RDKit          3D

 47 49  0  0  0  0  0  0  0  0999 V2000
    2.4790   18.1860   41.4270 C   0  0  0  0  0  0  0  0  0  0  0  0
    0.3900   15.4440   44.5990 C   0  0  0  0  0  0  0  0  0  0  0  0
   -0.2090   19.2990   45.5070 C   0  0  0  0  0  0  0  0  0  0  0  0
    0.8950   18.3590   43.4650 C   0  0  0  0  0  0  0  0  0  0  0  0
   -1.5260   17.5590   46.8620 C   0  0  0  0  0  0  0  0  0  0  0  0
   -0.3140   20.5600   44.2780 S   0  0  0  0  0  0  0  0  0  0  0  0
    0.6970   18.5170   45.0830 C   0  0  0  0  0  0  0  0  0  0  0  0
   -0.9510   19.0020   46.7120 C   0  0  0  0  0  0  0  0  0  0  0  0
    3.4270   20.7980   40.6850 O   0  0  0  0  0  0  0  0  0  0  0  0
    1.3170   16.9870   42.9250 C   0  0  0  0  0  0  0  0  0  0  0  0
    0.7900   19.7080   43.0750 C   0  0  0  0  0  0  0  0  0  0  0  0
    1.4340   20.4570   41.8810 C   0  0  0  0  0  0  0  0  0  0  0  0
    2.1820   13.3650   43.1200 C   0  0  0  0  0  0  0  0  0  0  0  0
    2.5210   20.1330   41.0550 C   0  0  0  0  0  0  0  0  0  0  0  0
    2.1910   14.7810   42.8210 C   0  0  0  0  0  0  0  0  0  0  0  0
    2.1420   19.1210   40.1330 C   0  0  0  0  0  0  0  0  0  0  0  0
    3.0860   18.2170   39.2190 C   0  0  0  0  0  0  0  0  0  0  0  0
    2.4110   16.9090   41.6860 C   0  0  0  0  0  0  0  0  0  0  0  0
    1.3870   15.8290   43.5110 C   0  0  0  0  0  0  0  0  0  0  0  0
    3.2180   15.4910   41.6560 S   0  0  0  0  0  0  0  0  0  0  0  0
   -0.4660   15.1420   45.2350 C   0  0  0  0  0  0  0  0  0  0  0  0
    1.8519   18.6275   42.2156 H   0  0  0  0  0  0  0  0  0  0  0  0
    3.5672   18.1917   41.2664 H   0  0  0  0  0  0  0  0  0  0  0  0
   -0.9033   18.6745   44.9256 H   0  0  0  0  0  0  0  0  0  0  0  0
    0.6763   17.9204   42.4802 H   0  0  0  0  0  0  0  0  0  0  0  0
   -1.6242   17.3126   47.9295 H   0  0  0  0  0  0  0  0  0  0  0  0
   -2.5139   17.5061   46.3811 H   0  0  0  0  0  0  0  0  0  0  0  0
   -0.8452   16.8412   46.3811 H   0  0  0  0  0  0  0  0  0  0  0  0
    0.4762   17.5163   45.4828 H   0  0  0  0  0  0  0  0  0  0  0  0
    1.6347   18.9783   45.4264 H   0  0  0  0  0  0  0  0  0  0  0  0
   -0.2803   19.1806   47.5654 H   0  0  0  0  0  0  0  0  0  0  0  0
   -1.8353   19.6547   46.6668 H   0  0  0  0  0  0  0  0  0  0  0  0
    0.2305   17.0945   42.7911 H   0  0  0  0  0  0  0  0  0  0  0  0
   -0.0813   19.4598   42.4511 H   0  0  0  0  0  0  0  0  0  0  0  0
    0.6004   20.5872   41.1752 H   0  0  0  0  0  0  0  0  0  0  0  0
    1.9489   21.2266   42.4748 H   0  0  0  0  0  0  0  0  0  0  0  0
    2.1811   13.2205   44.2105 H   0  0  0  0  0  0  0  0  0  0  0  0
    1.2809   12.9048   42.6884 H   0  0  0  0  0  0  0  0  0  0  0  0
    3.0772   12.8934   42.6884 H   0  0  0  0  0  0  0  0  0  0  0  0
    1.3766   14.6332   42.0965 H   0  0  0  0  0  0  0  0  0  0  0  0
    1.3281   19.4476   39.4690 H   0  0  0  0  0  0  0  0  0  0  0  0
    3.7323   17.5981   39.8588 H   0  0  0  0  0  0  0  0  0  0  0  0
    2.4672   17.5660   38.5839 H   0  0  0  0  0  0  0  0  0  0  0  0
    3.7096   18.8634   38.5839 H   0  0  0  0  0  0  0  0  0  0  0  0
    2.6334   16.6042   40.6527 H   0  0  0  0  0  0  0  0  0  0  0  0
    2.0730   16.0931   44.3293 H   0  0  0  0  0  0  0  0  0  0  0  0
   -1.3156   14.8423   45.8662 H   0  0  0  0  0  0  0  0  0  0  0  0
  1 18  1  0
  2 21  3  0
  3  8  1  0
  4  7  1  0
  6  3  1  0
  7  3  1  0
  8  5  1  0
  9 14  2  0
 10  4  1  0
 10 19  1  0
 11  4  1  0
 11  6  1  0
 12 11  1  0
 14 12  1  0
 15 13  1  0
 15 19  1  0
 16 14  1  0
 16  1  1  0
 17 16  1  0
 18 10  1  0
 19  2  1  0
 20 18  1  0
 20 15  1  0
  1 22  1  0
  1 23  1  0
  3 24  1  0
  4 25  1  0
  5 26  1  0
  5 27  1  0
  5 28  1  0
  7 29  1  0
  7 30  1  0
  8 31  1  0
  8 32  1  0
 10 33  1  0
 11 34  1  0
 12 35  1  0
 12 36  1  0
 13 37  1  0
 13 38  1  0
 13 39  1  0
 15 40  1  0
 16 41  1  0
 17 42  1  0
 17 43  1  0
 17 44  1  0
 18 45  1  0
 19 46  1  0
 21 47  1  0
M  END
>  <mol_id>  (19) 
2026-09-18-6fnk-s0-n100-refligand-0020

>  <rmsd_to_ref>  (19) 


$$$$

     RDKit          3D

 31 31  0  0  0  0  0  0  0  0999 V2000
    0.4080   18.4930   45.3800 N   0  0  0  0  0  0  0  0  0  0  0  0
    0.0590   20.8470   42.8600 C   0  0  0  0  0  0  0  0  0  0  0  0
    2.1120   15.4750   42.6540 N   0  0  0  0  0  0  0  0  0  0  0  0
    1.9410   18.4360   40.7960 C   0  0  0  0  0  0  0  0  0  0  0  0
    0.5480   18.6430   44.0960 C   0  0  0  0  0  0  0  0  0  0  0  0
    2.2390   19.7560   40.5400 C   0  0  0  0  0  0  0  0  0  0  0  0
   -0.2490   19.5240   45.7980 N   0  0  0  0  0  0  0  0  0  0  0  0
    1.3770   17.7500   43.1810 C   0  0  0  0  0  0  0  0  0  0  0  0
    1.0150   18.2730   41.9270 N   0  0  0  0  0  4  0  0  0  0  0  0
    0.6880   15.7580   44.3940 O   0  0  0  0  0  0  0  0  0  0  0  0
    3.1030   20.4660   41.2830 C   0  0  0  0  0  0  0  0  0  0  0  0
    1.3360   16.2790   43.5300 C   0  0  0  0  0  0  0  0  0  0  0  0
   -0.5250   20.4410   44.8760 N   0  0  0  0  0  0  0  0  0  0  0  0
    2.2540   13.9960   43.0050 C   0  0  0  0  0  0  0  0  0  0  0  0
   -0.0180   19.8960   43.6250 C   0  0  0  0  0  0  0  0  0  0  0  0
    0.1344   21.7788   43.4398 H   0  0  0  0  0  0  0  0  0  0  0  0
    0.9511   20.7363   42.2261 H   0  0  0  0  0  0  0  0  0  0  0  0
   -0.8393   20.8813   42.2261 H   0  0  0  0  0  0  0  0  0  0  0  0
    2.5605   15.8730   41.8165 H   0  0  0  0  0  0  0  0  0  0  0  0
    2.8750   17.9024   41.0260 H   0  0  0  0  0  0  0  0  0  0  0  0
    1.4488   18.0266   39.9015 H   0  0  0  0  0  0  0  0  0  0  0  0
    1.7474   20.2505   39.6892 H   0  0  0  0  0  0  0  0  0  0  0  0
   -0.5397   19.6285   46.7806 H   0  0  0  0  0  0  0  0  0  0  0  0
    2.4739   17.7694   43.2612 H   0  0  0  0  0  0  0  0  0  0  0  0
    0.6403   19.2135   42.1164 H   0  0  0  0  0  0  0  0  0  0  0  0
    0.4098   17.5189   41.5722 H   0  0  0  0  0  0  0  0  0  0  0  0
    3.3058   21.5184   41.0354 H   0  0  0  0  0  0  0  0  0  0  0  0
    3.6081   19.9953   42.1394 H   0  0  0  0  0  0  0  0  0  0  0  0
    2.2653   13.8781   44.0986 H   0  0  0  0  0  0  0  0  0  0  0  0
    1.4055   13.4363   42.5846 H   0  0  0  0  0  0  0  0  0  0  0  0
    3.1935   13.6080   42.5846 H   0  0  0  0  0  0  0  0  0  0  0  0
  1  7  1  0
  2 15  1  0
  3 14  1  0
  3 12  1  0
  4  9  1  0
  5  1  2  0
  6  4  1  0
  6 11  2  3
  8  9  1  0
  8 12  1  0
  8  5  1  0
 12 10  2  0
 13  7  1  0
 15  5  1  0
 15 13  2  0
  2 16  1  0
  2 17  1  0
  2 18  1  0
  3 19  1  0
  4 20  1  0
  4 21  1  0
  6 22  1  0
  7 23  1  0
  8 24  1  0
  9 25  1  0
  9 26  1  0
 11 27  1  0
 11 28  1  0
 14 29  1  0
 14 30  1  0
 14 31  1  0
M  CHG  1   9   1
M  END
>  <mol_id>  (20) 
2026-09-18-6fnk-s0-n100-refligand-0021

>  <rmsd_to_ref>  (20) 


$$$$

     RDKit          3D

 22 22  0  0  0  0  0  0  0  0999 V2000
    1.5890   17.9490   42.0470 C   0  0  0  0  0  0  0  0  0  0  0  0
    1.7580   15.8590   43.2440 O   0  0  0  0  0  0  0  0  0  0  0  0
    0.4460   17.5870   44.1860 C   0  0  0  0  0  0  0  0  0  0  0  0
    0.5240   19.7780   43.0880 C   0  0  0  0  0  0  0  0  0  0  0  0
    2.2810   17.3340   40.8630 C   0  0  0  0  0  0  0  0  0  0  0  0
    0.0540   18.9270   44.1550 C   0  0  0  0  0  0  0  0  0  0  0  0
    1.2950   17.1150   43.1320 C   0  0  0  0  0  0  0  0  0  0  0  0
    1.2510   19.2400   42.0560 N   0  0  0  0  0  0  0  0  0  0  0  0
   -0.6620   19.3980   45.0250 O   0  0  0  0  0  0  0  0  0  0  0  0
    0.0260   16.7720   45.2520 C   0  0  0  0  0  0  0  0  0  0  0  0
    0.0960   21.1200   43.2330 C   0  0  0  0  0  0  0  0  0  0  0  0
    1.5188   15.3118   44.0336 H   0  0  0  0  0  0  0  0  0  0  0  0
    1.4308   20.0045   43.6681 H   0  0  0  0  0  0  0  0  0  0  0  0
    3.0605   16.6412   41.2130 H   0  0  0  0  0  0  0  0  0  0  0  0
    1.5478   16.7840   40.2547 H   0  0  0  0  0  0  0  0  0  0  0  0
    2.7411   18.1267   40.2547 H   0  0  0  0  0  0  0  0  0  0  0  0
    0.2767   17.2584   46.2063 H   0  0  0  0  0  0  0  0  0  0  0  0
   -1.0620   16.6214   45.1919 H   0  0  0  0  0  0  0  0  0  0  0  0
    0.5347   15.7986   45.1919 H   0  0  0  0  0  0  0  0  0  0  0  0
    0.0174   21.3663   44.3022 H   0  0  0  0  0  0  0  0  0  0  0  0
    0.8247   21.7910   42.7547 H   0  0  0  0  0  0  0  0  0  0  0  0
   -0.8866   21.2452   42.7547 H   0  0  0  0  0  0  0  0  0  0  0  0
  1  8  2  0
  1  7  1  0
  3 10  1  0
  4 11  1  0
  4  6  1  0
  5  1  1  0
  6  3  1  0
  6  9  2  0
  7  2  1  0
  7  3  2  0
  8  4  1  0
  2 12  1  0
  4 13  1  0
  5 14  1  0
  5 15  1  0
  5 16  1  0
 10 17  1  0
 10 18  1  0
 10 19  1  0
 11 20  1  0
 11 21  1  0
 11 22  1  0
M  END
>  <mol_id>  (21) 
2026-09-18-6fnk-s0-n100-refligand-0022

>  <rmsd_to_ref>  (21) 


$$$$

     RDKit          3D

 20 20  0  0  0  0  0  0  0  0999 V2000
    1.3030   19.3090   42.4500 N   0  0  0  0  0  0  0  0  0  0  0  0
    2.3370   17.3980   41.3380 C   0  0  0  0  0  0  0  0  0  0  0  0
    3.7550   15.3900   39.4630 S   0  0  0  0  0  0  0  0  0  0  0  0
    2.9490   13.8380   41.2390 O   0  0  0  0  0  0  0  0  0  0  0  0
    1.7070   17.9890   42.2650 C   0  0  0  0  0  0  0  0  0  0  0  0
    1.6310   15.8920   42.7360 N   0  0  0  0  0  0  0  0  0  0  0  0
    2.3410   16.0700   41.6610 C   0  0  0  0  0  0  0  0  0  0  0  0
   -0.1500   19.4880   44.2850 C   0  0  0  0  0  0  0  0  0  0  0  0
    2.8700   15.0280   40.9180 C   0  0  0  0  0  0  0  0  0  0  0  0
    0.1650   21.3840   42.8110 N   0  0  0  0  0  0  0  0  0  0  0  0
    0.5100   20.1420   43.1090 C   0  0  0  0  0  0  0  0  0  0  0  0
   -0.6060   20.5110   45.2270 O   0  0  0  0  0  0  0  0  0  0  0  0
    1.3500   17.1880   43.0080 O   0  0  0  0  0  0  0  0  0  0  0  0
    1.8558   19.8818   41.7964 H   0  0  0  0  0  0  0  0  0  0  0  0
    2.7906   17.8617   40.4496 H   0  0  0  0  0  0  0  0  0  0  0  0
    4.9862   15.8936   39.7907 H   0  0  0  0  0  0  0  0  0  0  0  0
    0.5702   18.8245   44.7861 H   0  0  0  0  0  0  0  0  0  0  0  0
   -1.0135   18.9014   43.9383 H   0  0  0  0  0  0  0  0  0  0  0  0
   -0.4686   21.9059   43.4331 H   0  0  0  0  0  0  0  0  0  0  0  0
   -0.4642   20.1929   46.1537 H   0  0  0  0  0  0  0  0  0  0  0  0
  1 11  1  0
  2  7  1  0
  2  5  2  0
  3  9  1  0
  5  1  1  0
  5 13  1  0
  6 13  1  0
  7  6  2  0
  8 12  1  0
  9  4  2  0
  9  7  1  0
 10 11  2  3
 11  8  1  0
  1 14  1  0
  2 15  1  0
  3 16  1  0
  8 17  1  0
  8 18  1  0
 10 19  1  0
 12 20  1  0
M  END
>  <mol_id>  (22) 
2026-09-18-6fnk-s0-n100-refligand-0023

>  <rmsd_to_ref>  (22) 


$$$$

     RDKit          3D

 20 21  0  0  0  0  0  0  0  0999 V2000
    1.4250   18.7530   42.8680 C   0  0  0  0  0  0  0  0  0  0  0  0
    1.9150   17.6250   42.3830 N   0  0  0  0  0  0  0  0  0  0  0  0
   -1.0070   19.0840   45.6080 N   0  0  0  0  0  0  0  0  0  0  0  0
    0.4330   17.5690   44.8330 C   0  0  0  0  0  0  0  0  0  0  0  0
    1.7500   20.9050   41.8290 N   0  0  0  0  0  0  0  0  0  0  0  0
    2.6430   18.9820   41.0040 N   0  0  0  0  0  0  0  0  0  0  0  0
   -0.5010   17.7900   45.7830 C   0  0  0  0  0  0  0  0  0  0  0  0
    1.9340   19.5610   41.9640 C   0  0  0  0  0  0  0  0  0  0  0  0
   -0.6080   20.7060   44.0240 O   0  0  0  0  0  0  0  0  0  0  0  0
   -0.3990   19.6110   44.4940 C   0  0  0  0  0  0  0  0  0  0  0  0
    0.5490   18.6500   44.0430 C   0  0  0  0  0  0  0  0  0  0  0  0
    2.4920   17.7510   41.2710 C   0  0  0  0  0  0  0  0  0  0  0  0
    1.8320   16.7222   42.8719 H   0  0  0  0  0  0  0  0  0  0  0  0
   -1.7046   19.5531   46.2031 H   0  0  0  0  0  0  0  0  0  0  0  0
    1.0132   16.6411   44.7222 H   0  0  0  0  0  0  0  0  0  0  0  0
    1.2096   21.4244   42.5355 H   0  0  0  0  0  0  0  0  0  0  0  0
    2.1513   21.4011   41.0205 H   0  0  0  0  0  0  0  0  0  0  0  0
   -0.8110   17.0763   46.5605 H   0  0  0  0  0  0  0  0  0  0  0  0
    1.3244   19.1241   44.6626 H   0  0  0  0  0  0  0  0  0  0  0  0
    2.8162   16.9194   40.6281 H   0  0  0  0  0  0  0  0  0  0  0  0
  2  1  1  0
  3  7  1  0
  4  7  2  0
  5  8  1  0
  6 12  2  0
  6  8  1  0
  8  1  2  0
  9 10  2  0
 10  3  1  0
 11  1  1  0
 11 10  1  0
 11  4  1  0
 12  2  1  0
  2 13  1  0
  3 14  1  0
  4 15  1  0
  5 16  1  0
  5 17  1  0
  7 18  1  0
 11 19  1  0
 12 20  1  0
M  END
>  <mol_id>  (23) 
2026-09-18-6fnk-s0-n100-refligand-0024

>  <rmsd_to_ref>  (23) 


$$$$

     RDKit          3D

 30 32  0  0  0  0  0  0  0  0999 V2000
    0.6720   18.0480   44.3780 C   0  0  0  0  0  0  0  0  0  0  0  0
    2.5570   16.5590   39.4680 C   0  0  0  0  0  0  0  0  0  0  0  0
    2.2710   17.0240   40.9020 C   0  0  0  0  0  0  0  0  0  0  0  0
    1.8030   20.7070   40.6320 C   0  0  0  0  0  0  0  0  0  0  0  0
   -0.1410   18.1510   45.4920 C   0  0  0  0  0  0  0  0  0  0  0  0
   -0.7430   19.3130   45.6940 C   0  0  0  0  0  0  0  0  0  0  0  0
    1.2560   19.1970   42.1120 C   0  0  0  0  0  0  0  0  0  0  0  0
    1.9590   18.5170   41.0240 C   0  0  0  0  0  0  0  0  0  0  0  0
    2.3100   19.5020   40.2050 N   0  0  0  0  0  0  0  0  0  0  0  0
    0.1250   20.2390   43.7870 C   0  0  0  0  0  0  0  0  0  0  0  0
    0.7200   19.0200   43.4380 C   0  0  0  0  0  0  0  0  0  0  0  0
   -0.6370   20.3780   44.8820 N   0  0  0  0  0  0  0  0  0  0  0  0
    1.0690   20.5210   41.8440 C   0  0  0  0  0  0  0  0  0  0  0  0
    2.7970   15.1230   39.5640 N   0  0  0  0  0  4  0  0  0  0  0  0
    1.4350   16.7520   44.3160 C   0  0  0  0  0  0  0  0  0  0  0  0
    0.3840   21.1650   42.8000 N   0  0  0  0  0  0  0  0  0  0  0  0
    1.3920   16.7590   38.6220 O   0  0  0  0  0  0  0  0  0  0  0  0
    3.4022   17.1169   39.0386 H   0  0  0  0  0  0  0  0  0  0  0  0
    1.4078   16.4584   41.2829 H   0  0  0  0  0  0  0  0  0  0  0  0
    3.1874   16.8429   41.4829 H   0  0  0  0  0  0  0  0  0  0  0  0
    1.9416   21.6695   40.1178 H   0  0  0  0  0  0  0  0  0  0  0  0
   -0.2815   17.3045   46.1803 H   0  0  0  0  0  0  0  0  0  0  0  0
   -1.3741   19.4133   46.5894 H   0  0  0  0  0  0  0  0  0  0  0  0
    2.8429   14.8481   40.5556 H   0  0  0  0  0  0  0  0  0  0  0  0
    2.0293   14.6150   39.1021 H   0  0  0  0  0  0  0  0  0  0  0  0
    3.6882   14.8922   39.1021 H   0  0  0  0  0  0  0  0  0  0  0  0
    1.6425   16.3995   45.3371 H   0  0  0  0  0  0  0  0  0  0  0  0
    0.8361   15.9990   43.7828 H   0  0  0  0  0  0  0  0  0  0  0  0
    2.3840   16.9104   43.7828 H   0  0  0  0  0  0  0  0  0  0  0  0
    0.5921   16.8963   39.1890 H   0  0  0  0  0  0  0  0  0  0  0  0
  1  5  2  0
  2 17  1  0
  2 14  1  0
  2  3  1  0
  3  8  1  0
  4 13  1  0
  5  6  1  0
  7 11  1  0
  8  7  2  0
  9  4  2  0
  9  8  1  0
 10 12  1  0
 11 10  2  0
 11  1  1  0
 12  6  2  0
 13  7  1  0
 13 16  2  0
 15  1  1  0
 16 10  1  0
  2 18  1  0
  3 19  1  0
  3 20  1  0
  4 21  1  0
  5 22  1  0
  6 23  1  0
 14 24  1  0
 14 25  1  0
 14 26  1  0
 15 27  1  0
 15 28  1  0
 15 29  1  0
 17 30  1  0
M  CHG  1  14   1
M  END
>  <mol_id>  (24) 
2026-09-18-6fnk-s0-n100-refligand-0025

>  <rmsd_to_ref>  (24) 


$$$$

     RDKit          3D

 23 25  0  0  0  0  0  0  0  0999 V2000
    1.8310   15.7100   42.7450 C   0  0  0  0  0  0  0  0  0  0  0  0
   -0.6670   17.2790   46.0940 C   0  0  0  0  0  0  0  0  0  0  0  0
    1.4150   16.9730   43.0340 C   0  0  0  0  0  0  0  0  0  0  0  0
    0.7640   19.6930   43.0110 N   0  0  0  0  0  0  0  0  0  0  0  0
    0.5990   17.4840   44.1000 C   0  0  0  0  0  0  0  0  0  0  0  0
    1.9600   19.6200   39.6990 O   0  0  0  0  0  0  0  0  0  0  0  0
   -0.4270   19.4380   44.9930 C   0  0  0  0  0  0  0  0  0  0  0  0
    1.8410   20.0700   40.8430 C   0  0  0  0  0  0  0  0  0  0  0  0
    0.3570   18.8900   43.9870 C   0  0  0  0  0  0  0  0  0  0  0  0
    2.6270   15.8440   41.6110 C   0  0  0  0  0  0  0  0  0  0  0  0
    2.6860   17.0690   41.1340 O   0  0  0  0  0  0  0  0  0  0  0  0
   -0.9310   18.6170   46.0520 C   0  0  0  0  0  0  0  0  0  0  0  0
    1.5130   19.2240   42.0020 C   0  0  0  0  0  0  0  0  0  0  0  0
    1.9050   17.8620   42.0020 C   0  0  0  0  0  0  0  0  0  0  0  0
   -0.5580   20.5980   45.0060 O   0  0  0  0  0  0  0  0  0  0  0  0
    1.7890   21.3000   41.0280 O   0  0  0  0  0  1  0  0  0  0  0  0
    0.0940   16.7090   45.0660 C   0  0  0  0  0  0  0  0  0  0  0  0
    1.5906   14.7847   43.2890 H   0  0  0  0  0  0  0  0  0  0  0  0
   -1.0451   16.6593   46.9204 H   0  0  0  0  0  0  0  0  0  0  0  0
    3.1609   14.9984   41.1529 H   0  0  0  0  0  0  0  0  0  0  0  0
   -0.5409   19.0416   46.9888 H   0  0  0  0  0  0  0  0  0  0  0  0
   -2.0171   18.6425   45.8799 H   0  0  0  0  0  0  0  0  0  0  0  0
    0.2764   15.6243   45.0529 H   0  0  0  0  0  0  0  0  0  0  0  0
  1  3  1  0
  3  5  2  0
  4  9  2  0
  5 17  1  0
  6  8  2  0
  7 15  2  0
  7 12  1  0
  8 16  1  0
  8 13  1  0
  9  5  1  0
  9  7  1  0
 10  1  2  0
 11 10  1  0
 11 14  1  0
 12  2  1  0
 13 14  2  0
 13  4  1  0
 14  3  1  0
 17  2  2  0
  1 18  1  0
  2 19  1  0
 10 20  1  0
 12 21  1  0
 12 22  1  0
 17 23  1  0
M  CHG  1  16  -1
M  END
>  <mol_id>  (25) 
2026-09-18-6fnk-s0-n100-refligand-0026

>  <rmsd_to_ref>  (25) 


$$$$

     RDKit          3D

 38 38  0  0  0  0  0  0  0  0999 V2000
    1.6870   19.2120   42.3150 C   0  0  0  0  0  0  0  0  0  0  0  0
    2.8810   21.1250   39.4280 C   0  0  0  0  0  0  0  0  0  0  0  0
    0.2570   15.5330   43.2570 C   0  0  0  0  0  0  0  0  0  0  0  0
    1.0030   14.7280   44.3310 C   0  0  0  0  0  0  0  0  0  0  0  0
   -0.4280   17.5860   44.5920 O   0  0  0  0  0  0  0  0  0  0  0  0
    3.8300   20.8090   40.3000 C   0  0  0  0  0  0  0  0  0  0  0  0
    0.8670   19.3520   43.5060 C   0  0  0  0  0  0  0  0  0  0  0  0
    0.5060   17.8470   43.6580 C   0  0  0  0  0  0  0  0  0  0  0  0
    0.9390   16.8480   42.9920 C   0  0  0  0  0  0  0  0  0  0  0  0
    2.1910   20.1370   41.5060 C   0  0  0  0  0  0  0  0  0  0  0  0
    2.2420   14.2160   43.8570 C   0  0  0  0  0  0  0  0  0  0  0  0
   -0.2700   20.4210   43.4840 N   0  0  0  0  0  4  0  0  0  0  0  0
    1.9340   16.8610   42.0900 O   0  0  0  0  0  0  0  0  0  0  0  0
    1.5300   21.1260   40.2680 S   0  0  0  0  0  0  0  0  0  0  0  0
    0.0340   13.5810   44.6180 C   0  0  0  0  0  0  0  0  0  0  0  0
    3.4990   20.2290   41.4130 O   0  0  0  0  0  0  0  0  0  0  0  0
    2.5679   18.6518   42.6616 H   0  0  0  0  0  0  0  0  0  0  0  0
    0.8975   18.8485   41.6408 H   0  0  0  0  0  0  0  0  0  0  0  0
    2.8337   20.3786   38.6214 H   0  0  0  0  0  0  0  0  0  0  0  0
    3.0689   22.0970   38.9485 H   0  0  0  0  0  0  0  0  0  0  0  0
    0.2292   14.9489   42.3253 H   0  0  0  0  0  0  0  0  0  0  0  0
   -0.7622   15.7353   43.6180 H   0  0  0  0  0  0  0  0  0  0  0  0
    1.2612   15.3374   45.2096 H   0  0  0  0  0  0  0  0  0  0  0  0
   -0.7179   16.6536   44.7551 H   0  0  0  0  0  0  0  0  0  0  0  0
    4.5306   20.1367   39.7831 H   0  0  0  0  0  0  0  0  0  0  0  0
    4.2262   21.7838   40.6205 H   0  0  0  0  0  0  0  0  0  0  0  0
    1.3417   19.8064   44.3881 H   0  0  0  0  0  0  0  0  0  0  0  0
    1.3413   20.3227   42.1794 H   0  0  0  0  0  0  0  0  0  0  0  0
    2.8810   13.9519   44.7125 H   0  0  0  0  0  0  0  0  0  0  0  0
    2.0587   13.3199   43.2459 H   0  0  0  0  0  0  0  0  0  0  0  0
    2.7448   14.9801   43.2459 H   0  0  0  0  0  0  0  0  0  0  0  0
   -0.5301   20.6655   44.4502 H   0  0  0  0  0  0  0  0  0  0  0  0
    0.0609   21.2642   42.9937 H   0  0  0  0  0  0  0  0  0  0  0  0
   -1.0912   20.0388   42.9937 H   0  0  0  0  0  0  0  0  0  0  0  0
    2.4076   17.7065   41.8876 H   0  0  0  0  0  0  0  0  0  0  0  0
   -0.0728   13.4546   45.7055 H   0  0  0  0  0  0  0  0  0  0  0  0
   -0.9473   13.8111   44.1775 H   0  0  0  0  0  0  0  0  0  0  0  0
    0.4248   12.6519   44.1775 H   0  0  0  0  0  0  0  0  0  0  0  0
  1  7  1  0
  2 14  1  0
  2  6  1  0
  3  4  1  0
  4 15  1  0
  6 16  1  0
  7 12  1  0
  7  8  1  0
  8  5  1  0
  9  3  1  0
  9  8  2  3
 10  1  1  0
 11  4  1  0
 13  9  1  0
 14 10  1  0
 16 10  1  0
  1 17  1  0
  1 18  1  0
  2 19  1  0
  2 20  1  0
  3 21  1  0
  3 22  1  0
  4 23  1  0
  5 24  1  0
  6 25  1  0
  6 26  1  0
  7 27  1  0
 10 28  1  0
 11 29  1  0
 11 30  1  0
 11 31  1  0
 12 32  1  0
 12 33  1  0
 12 34  1  0
 13 35  1  0
 15 36  1  0
 15 37  1  0
 15 38  1  0
M  CHG  1  12   1
M  END
>  <mol_id>  (26) 
2026-09-18-6fnk-s0-n100-refligand-0027

>  <rmsd_to_ref>  (26) 


$$$$

     RDKit          3D

 66 68  0  0  0  0  0  0  0  0999 V2000
   -1.9170   16.1080   47.7070 N   0  0  0  0  0  0  0  0  0  0  0  0
   -1.7830   17.0670   46.9960 N   0  0  0  0  0  0  0  0  0  0  0  0
    3.6000   21.3530   36.7870 O   0  0  0  0  0  0  0  0  0  0  0  0
   -1.1040   16.2890   45.3210 O   0  0  0  0  0  0  0  0  0  0  0  0
    2.3710   19.4120   40.2400 C   0  0  0  0  0  0  0  0  0  0  0  0
    2.0840   17.2530   41.4600 C   0  0  0  0  0  0  0  0  0  0  0  0
    5.0720   21.9410   38.6990 C   0  0  0  0  0  0  0  0  0  0  0  0
    0.7010   19.8460   43.5560 C   0  0  0  0  0  0  0  0  0  0  0  0
    0.6820   17.4770   44.2690 O   0  0  0  0  0  0  0  0  0  0  0  0
   -2.6400   15.3220   49.9920 C   0  0  0  0  0  0  0  0  0  0  0  0
   -1.1500   17.0210   45.9080 C   0  0  0  0  0  0  0  0  0  0  0  0
   -2.6900   15.2430   48.3710 C   0  0  0  0  0  0  0  0  0  0  0  0
    2.1560   18.0340   40.2250 C   0  0  0  0  0  0  0  0  0  0  0  0
   -2.5020   14.8110   47.4450 C   0  0  0  0  0  0  0  0  0  0  0  0
    1.8400   15.8310   39.2110 C   0  0  0  0  0  0  0  0  0  0  0  0
    1.1050   18.4850   43.5150 C   0  0  0  0  0  0  0  0  0  0  0  0
    2.2480   15.1230   40.4450 C   0  0  0  0  0  0  0  0  0  0  0  0
    2.0720   18.1770   42.6470 O   0  0  0  0  0  0  0  0  0  0  0  0
    2.0830   17.2070   39.0860 C   0  0  0  0  0  0  0  0  0  0  0  0
   -2.0340   16.7170   50.0380 C   0  0  0  0  0  0  0  0  0  0  0  0
    2.0650   19.8610   38.9850 O   0  0  0  0  0  0  0  0  0  0  0  0
    3.9880   21.4080   38.0760 C   0  0  0  0  0  0  0  0  0  0  0  0
    5.0890   21.8590   40.0440 C   0  0  0  0  0  0  0  0  0  0  0  0
    2.7410   20.6250   38.7370 C   0  0  0  0  0  0  0  0  0  0  0  0
   -0.4500   19.3000   45.6050 C   0  0  0  0  0  0  0  0  0  0  0  0
    3.1750   20.4200   40.8920 C   0  0  0  0  0  0  0  0  0  0  0  0
   -0.4750   20.0870   44.2010 C   0  0  0  0  0  0  0  0  0  0  0  0
   -0.5440   21.4590   44.7230 O   0  0  0  0  0  0  0  0  0  0  0  0
    6.4280   22.3100   38.0370 C   0  0  0  0  0  0  0  0  0  0  0  0
    2.1590   15.8220   41.6080 C   0  0  0  0  0  0  0  0  0  0  0  0
    4.2200   21.1140   40.7990 C   0  0  0  0  0  0  0  0  0  0  0  0
   -0.3650   17.8230   45.0950 C   0  0  0  0  0  0  0  0  0  0  0  0
   -0.9550   15.7965   47.9030 H   0  0  0  0  0  0  0  0  0  0  0  0
   -2.2020   17.9616   47.2874 H   0  0  0  0  0  0  0  0  0  0  0  0
    2.6208   21.2142   36.7428 H   0  0  0  0  0  0  0  0  0  0  0  0
    1.9866   19.3302   41.2674 H   0  0  0  0  0  0  0  0  0  0  0  0
    4.6983   22.8563   38.2167 H   0  0  0  0  0  0  0  0  0  0  0  0
    0.5989   20.2012   42.5199 H   0  0  0  0  0  0  0  0  0  0  0  0
    1.4758   20.3752   44.1301 H   0  0  0  0  0  0  0  0  0  0  0  0
   -1.9889   14.5564   50.4390 H   0  0  0  0  0  0  0  0  0  0  0  0
   -3.5781   15.1537   50.5412 H   0  0  0  0  0  0  0  0  0  0  0  0
   -2.9261   13.8257   47.2015 H   0  0  0  0  0  0  0  0  0  0  0  0
   -1.8789   15.3389   46.7081 H   0  0  0  0  0  0  0  0  0  0  0  0
    1.3483   15.2806   38.3953 H   0  0  0  0  0  0  0  0  0  0  0  0
    1.8622   18.6865   44.2870 H   0  0  0  0  0  0  0  0  0  0  0  0
    2.6055   14.0830   40.4225 H   0  0  0  0  0  0  0  0  0  0  0  0
    2.2183   17.6460   38.0865 H   0  0  0  0  0  0  0  0  0  0  0  0
   -1.9005   17.0244   51.0857 H   0  0  0  0  0  0  0  0  0  0  0  0
   -1.0580   16.7097   49.5308 H   0  0  0  0  0  0  0  0  0  0  0  0
   -2.7055   17.4254   49.5308 H   0  0  0  0  0  0  0  0  0  0  0  0
    4.5257   20.4561   37.9548 H   0  0  0  0  0  0  0  0  0  0  0  0
    5.8598   22.4344   40.5776 H   0  0  0  0  0  0  0  0  0  0  0  0
    3.0034   20.8719   39.7763 H   0  0  0  0  0  0  0  0  0  0  0  0
    2.2683   20.6484   37.7440 H   0  0  0  0  0  0  0  0  0  0  0  0
    0.4276   19.5732   46.2093 H   0  0  0  0  0  0  0  0  0  0  0  0
   -1.3032   19.5107   46.2666 H   0  0  0  0  0  0  0  0  0  0  0  0
    2.4250   21.2149   41.0173 H   0  0  0  0  0  0  0  0  0  0  0  0
    3.7236   19.6437   41.4456 H   0  0  0  0  0  0  0  0  0  0  0  0
   -1.2676   19.8317   43.4822 H   0  0  0  0  0  0  0  0  0  0  0  0
   -0.5428   21.4360   45.7127 H   0  0  0  0  0  0  0  0  0  0  0  0
    7.1745   22.5131   38.8190 H   0  0  0  0  0  0  0  0  0  0  0  0
    6.7707   21.4724   37.4116 H   0  0  0  0  0  0  0  0  0  0  0  0
    6.2990   23.2057   37.4116 H   0  0  0  0  0  0  0  0  0  0  0  0
    2.1453   15.3299   42.5917 H   0  0  0  0  0  0  0  0  0  0  0  0
    4.6401   21.1319   41.8155 H   0  0  0  0  0  0  0  0  0  0  0  0
   -0.7890   17.4758   44.1412 H   0  0  0  0  0  0  0  0  0  0  0  0
  1 12  1  0
  2  1  1  0
  4 11  2  0
  5 13  1  0
  5 26  1  0
  6 30  2  0
  6 18  1  0
  7 29  1  0
  7 23  1  0
  8 27  1  0
  9 32  1  0
 10 20  1  0
 11  2  1  0
 12 10  1  0
 13  6  1  0
 14 12  2  3
 15 17  2  0
 16 18  1  0
 16  8  1  0
 16  9  1  0
 17 30  1  0
 19 15  1  0
 19 13  2  0
 21  5  1  0
 22  3  1  0
 22  7  1  0
 22 24  1  0
 23 31  2  0
 24 21  1  0
 27 28  1  0
 27 25  1  0
 31 26  1  0
 32 25  1  0
 32 11  1  0
  1 33  1  0
  2 34  1  0
  3 35  1  0
  5 36  1  0
  7 37  1  0
  8 38  1  0
  8 39  1  0
 10 40  1  0
 10 41  1  0
 14 42  1  0
 14 43  1  0
 15 44  1  0
 16 45  1  0
 17 46  1  0
 19 47  1  0
 20 48  1  0
 20 49  1  0
 20 50  1  0
 22 51  1  0
 23 52  1  0
 24 53  1  0
 24 54  1  0
 25 55  1  0
 25 56  1  0
 26 57  1  0
 26 58  1  0
 27 59  1  0
 28 60  1  0
 29 61  1  0
 29 62  1  0
 29 63  1  0
 30 64  1  0
 31 65  1  0
 32 66  1  0
M  END
>  <mol_id>  (27) 
2026-09-18-6fnk-s0-n100-refligand-0028

>  <rmsd_to_ref>  (27) 


$$$$

     RDKit          3D

 50 53  0  0  0  0  0  0  0  0999 V2000
   -0.6750   19.3010   45.9690 C   0  0  0  0  0  0  0  0  0  0  0  0
    0.5580   19.3530   43.5700 C   0  0  0  0  0  0  0  0  0  0  0  0
    2.1830   20.1350   40.2410 C   0  0  0  0  0  0  0  0  0  0  0  0
    1.5470   18.4180   41.5940 N   0  0  0  0  0  0  0  0  0  0  0  0
    0.5520   15.8040   44.3720 C   0  0  0  0  0  0  0  0  0  0  0  0
    4.7340   15.8430   36.8030 N   0  0  0  0  0  4  0  0  0  0  0  0
    0.1140   20.4710   44.1720 C   0  0  0  0  0  0  0  0  0  0  0  0
    4.7080   21.3060   38.7740 O   0  0  0  0  0  0  0  0  0  0  0  0
    2.8230   17.9180   39.6240 O   0  0  0  0  0  0  0  0  0  0  0  0
   -0.4490   15.8030   45.3280 C   0  0  0  0  0  0  0  0  0  0  0  0
    0.4290   18.0990   44.3000 C   0  0  0  0  0  0  0  0  0  0  0  0
    3.8690   15.5930   39.2000 O   0  0  0  0  0  0  0  0  0  0  0  0
    2.5940   20.3930   38.8560 C   0  0  0  0  0  0  0  0  0  0  0  0
    0.9950   16.9720   43.8710 N   0  0  0  0  0  0  0  0  0  0  0  0
   -0.3240   18.0580   45.4030 C   0  0  0  0  0  0  0  0  0  0  0  0
    1.0130   14.5860   43.8430 C   0  0  0  0  0  0  0  0  0  0  0  0
    2.1850   18.7430   40.4810 C   0  0  0  0  0  0  0  0  0  0  0  0
    2.7780   15.8820   38.3730 C   0  0  0  0  0  0  0  0  0  0  0  0
    0.2360   13.4060   44.1460 C   0  0  0  0  0  0  0  0  0  0  0  0
    3.2940   15.6700   36.8620 C   0  0  0  0  0  0  0  0  0  0  0  0
   -0.4800   20.4620   45.3430 N   0  0  0  0  0  0  0  0  0  0  0  0
   -0.7980   13.4540   44.9620 C   0  0  0  0  0  0  0  0  0  0  0  0
    2.2720   17.2490   38.4730 C   0  0  0  0  0  0  0  0  0  0  0  0
   -0.7540   16.9750   45.9770 N   0  0  0  0  0  0  0  0  0  0  0  0
    1.6300   20.6220   41.5970 C   0  0  0  0  0  0  0  0  0  0  0  0
   -1.2040   14.6300   45.6210 C   0  0  0  0  0  0  0  0  0  0  0  0
    1.2020   19.4200   42.3040 C   0  0  0  0  0  0  0  0  0  0  0  0
    3.4330   21.1500   38.3450 C   0  0  0  0  0  0  0  0  0  0  0  0
   -1.1295   19.3133   46.9706 H   0  0  0  0  0  0  0  0  0  0  0  0
    1.1328   20.0779   39.9187 H   0  0  0  0  0  0  0  0  0  0  0  0
    5.1138   15.8886   37.7593 H   0  0  0  0  0  0  0  0  0  0  0  0
    5.1553   15.0466   36.3039 H   0  0  0  0  0  0  0  0  0  0  0  0
    4.9547   16.7166   36.3039 H   0  0  0  0  0  0  0  0  0  0  0  0
    0.2547   21.4349   43.6610 H   0  0  0  0  0  0  0  0  0  0  0  0
    4.7252   21.3081   39.7638 H   0  0  0  0  0  0  0  0  0  0  0  0
    3.5930   15.6661   40.1479 H   0  0  0  0  0  0  0  0  0  0  0  0
    2.8978   19.3996   38.4943 H   0  0  0  0  0  0  0  0  0  0  0  0
    1.7178   21.0033   38.5917 H   0  0  0  0  0  0  0  0  0  0  0  0
    1.9229   14.5336   43.2271 H   0  0  0  0  0  0  0  0  0  0  0  0
    1.9500   15.2257   38.6790 H   0  0  0  0  0  0  0  0  0  0  0  0
    0.5136   12.4464   43.6855 H   0  0  0  0  0  0  0  0  0  0  0  0
    2.8107   16.4078   36.2046 H   0  0  0  0  0  0  0  0  0  0  0  0
    3.0375   14.6528   36.5310 H   0  0  0  0  0  0  0  0  0  0  0  0
   -1.3710   12.5313   45.1364 H   0  0  0  0  0  0  0  0  0  0  0  0
    2.5520   17.8040   37.5655 H   0  0  0  0  0  0  0  0  0  0  0  0
    1.1777   17.2120   38.5783 H   0  0  0  0  0  0  0  0  0  0  0  0
    1.5709   21.6601   41.9559 H   0  0  0  0  0  0  0  0  0  0  0  0
   -2.0531   14.6429   46.3202 H   0  0  0  0  0  0  0  0  0  0  0  0
    2.9854   22.1539   38.3881 H   0  0  0  0  0  0  0  0  0  0  0  0
    3.6094   20.6315   37.3910 H   0  0  0  0  0  0  0  0  0  0  0  0
  2  7  1  0
  2 11  2  0
  3 13  1  0
  3 17  1  0
  3 25  1  0
  4 27  1  0
  5 10  1  0
  6 20  1  0
  7 21  2  0
  9 17  1  0
 10 26  1  0
 10 24  2  0
 11 15  1  0
 14 11  1  0
 14  5  2  0
 15  1  2  0
 15 24  1  0
 16 19  2  0
 16  5  1  0
 17  4  2  0
 18 23  1  0
 18 12  1  0
 19 22  1  0
 20 18  1  0
 21  1  1  0
 22 26  2  0
 23  9  1  0
 25 27  2  0
 27  2  1  0
 28  8  1  0
 28 13  1  0
  1 29  1  0
  3 30  1  0
  6 31  1  0
  6 32  1  0
  6 33  1  0
  7 34  1  0
  8 35  1  0
 12 36  1  0
 13 37  1  0
 13 38  1  0
 16 39  1  0
 18 40  1  0
 19 41  1  0
 20 42  1  0
 20 43  1  0
 22 44  1  0
 23 45  1  0
 23 46  1  0
 25 47  1  0
 26 48  1  0
 28 49  1  0
 28 50  1  0
M  CHG  1   6   1
M  END
>  <mol_id>  (28) 
2026-09-18-6fnk-s0-n100-refligand-0029

>  <rmsd_to_ref>  (28) 


$$$$

     RDKit          3D

 68 72  0  0  0  0  0  0  0  0999 V2000
    6.2270   22.1510   39.2570 C   0  0  0  0  0  0  0  0  0  0  0  0
    2.1540   17.8210   40.0450 C   0  0  0  0  0  0  0  0  0  0  0  0
    3.1860   20.6560   41.0570 C   0  0  0  0  0  0  0  0  0  0  0  0
   -0.3510   20.3030   45.3960 C   0  0  0  0  0  0  0  0  0  0  0  0
    2.0480   15.3620   41.9050 C   0  0  0  0  0  0  0  0  0  0  0  0
    5.3460   21.5890   38.3830 C   0  0  0  0  0  0  0  0  0  0  0  0
    5.9400   22.1490   40.5830 C   0  0  0  0  0  0  0  0  0  0  0  0
    2.3420   14.2230   42.9190 C   0  0  0  0  0  0  0  0  0  0  0  0
    3.6640   14.0310   40.5380 C   0  0  0  0  0  0  0  0  0  0  0  0
    4.8360   21.7290   41.0350 C   0  0  0  0  0  0  0  0  0  0  0  0
    4.1170   21.2110   38.8560 C   0  0  0  0  0  0  0  0  0  0  0  0
    0.5380   17.7310   44.5430 C   0  0  0  0  0  0  0  0  0  0  0  0
    2.7730   13.0020   40.8450 O   0  0  0  0  0  0  0  0  0  0  0  0
    1.7260   18.1460   42.1600 C   0  0  0  0  0  0  0  0  0  0  0  0
    1.8040   20.7000   41.0630 O   0  0  0  0  0  0  0  0  0  0  0  0
    1.2050   20.2100   39.9500 C   0  0  0  0  0  0  0  0  0  0  0  0
   -0.7150   15.9720   45.7300 C   0  0  0  0  0  0  0  0  0  0  0  0
    0.4180   20.1630   44.2300 N   0  0  0  0  0  0  0  0  0  0  0  0
   -0.3660   17.2810   45.6130 C   0  0  0  0  0  0  0  0  0  0  0  0
    1.6540   16.6350   42.5670 C   0  0  0  0  0  0  0  0  0  0  0  0
    3.9220   21.2830   40.1620 C   0  0  0  0  0  0  0  0  0  0  0  0
    1.3290   16.6650   44.0170 C   0  0  0  0  0  0  0  0  0  0  0  0
   -0.9450   18.1690   46.3810 C   0  0  0  0  0  0  0  0  0  0  0  0
    2.5370   19.1340   38.1810 O   0  0  0  0  0  0  0  0  0  0  0  0
    2.2590   12.9070   42.1640 C   0  0  0  0  0  0  0  0  0  0  0  0
    1.8060   17.8960   41.2760 N   0  0  0  0  0  4  0  0  0  0  0  0
    1.9080   19.1200   39.2910 C   0  0  0  0  0  0  0  0  0  0  0  0
    0.8180   19.1110   43.9890 C   0  0  0  0  0  0  0  0  0  0  0  0
   -2.0170   16.5010   47.5650 C   0  0  0  0  0  0  0  0  0  0  0  0
    3.2600   15.4220   40.9490 C   0  0  0  0  0  0  0  0  0  0  0  0
   -0.6860   19.5640   46.2680 N   0  0  0  0  0  0  0  0  0  0  0  0
   -1.7130   17.7620   47.4020 C   0  0  0  0  0  0  0  0  0  0  0  0
    1.5760   19.2180   42.9740 O   0  0  0  0  0  0  0  0  0  0  0  0
   -1.5090   15.5390   46.6640 C   0  0  0  0  0  0  0  0  0  0  0  0
    7.1614   22.6018   38.8914 H   0  0  0  0  0  0  0  0  0  0  0  0
    3.2265   17.5816   39.9953 H   0  0  0  0  0  0  0  0  0  0  0  0
    1.5433   17.0382   39.5715 H   0  0  0  0  0  0  0  0  0  0  0  0
    3.5053   21.0429   42.0360 H   0  0  0  0  0  0  0  0  0  0  0  0
    3.3704   19.6040   40.7938 H   0  0  0  0  0  0  0  0  0  0  0  0
   -1.3099   20.6831   45.0139 H   0  0  0  0  0  0  0  0  0  0  0  0
    0.4416   20.7937   45.9800 H   0  0  0  0  0  0  0  0  0  0  0  0
    1.1522   15.1586   41.2999 H   0  0  0  0  0  0  0  0  0  0  0  0
    5.6141   21.4427   37.3263 H   0  0  0  0  0  0  0  0  0  0  0  0
    6.6940   22.5259   41.2898 H   0  0  0  0  0  0  0  0  0  0  0  0
    3.3486   14.3492   43.3442 H   0  0  0  0  0  0  0  0  0  0  0  0
    1.6157   14.2424   43.7449 H   0  0  0  0  0  0  0  0  0  0  0  0
    4.6200   13.8022   41.0318 H   0  0  0  0  0  0  0  0  0  0  0  0
    3.7081   14.0562   39.4392 H   0  0  0  0  0  0  0  0  0  0  0  0
    4.6314   21.7297   42.1158 H   0  0  0  0  0  0  0  0  0  0  0  0
    3.3249   20.8619   38.1772 H   0  0  0  0  0  0  0  0  0  0  0  0
   -0.2417   17.5211   43.7960 H   0  0  0  0  0  0  0  0  0  0  0  0
    0.6314   18.1697   42.0542 H   0  0  0  0  0  0  0  0  0  0  0  0
    0.2063   19.8469   40.2341 H   0  0  0  0  0  0  0  0  0  0  0  0
    1.1852   21.0387   39.2269 H   0  0  0  0  0  0  0  0  0  0  0  0
   -0.3093   15.2506   45.0054 H   0  0  0  0  0  0  0  0  0  0  0  0
    1.3313   16.1822   41.6179 H   0  0  0  0  0  0  0  0  0  0  0  0
    2.2865   16.6813   44.5582 H   0  0  0  0  0  0  0  0  0  0  0  0
    0.6901   15.7802   44.1545 H   0  0  0  0  0  0  0  0  0  0  0  0
    1.2048   12.5976   42.1100 H   0  0  0  0  0  0  0  0  0  0  0  0
    2.8700   12.1715   42.7078 H   0  0  0  0  0  0  0  0  0  0  0  0
    0.7997   17.9810   41.0735 H   0  0  0  0  0  0  0  0  0  0  0  0
    2.7456   17.5460   41.5115 H   0  0  0  0  0  0  0  0  0  0  0  0
   -2.6643   16.1911   48.3986 H   0  0  0  0  0  0  0  0  0  0  0  0
    4.1030   15.9096   41.4604 H   0  0  0  0  0  0  0  0  0  0  0  0
    2.9834   15.9963   40.0525 H   0  0  0  0  0  0  0  0  0  0  0  0
   -0.8220   20.0567   47.1622 H   0  0  0  0  0  0  0  0  0  0  0  0
   -2.0953   18.5048   48.1176 H   0  0  0  0  0  0  0  0  0  0  0  0
   -1.7726   14.4744   46.7486 H   0  0  0  0  0  0  0  0  0  0  0  0
  1  7  2  0
  2 26  1  0
  3 15  1  0
  4 31  1  0
  5  8  1  0
  6 11  2  0
  6  1  1  0
  7 10  1  0
  9 13  1  0
  9 30  1  0
 11 21  1  0
 12 22  1  0
 12 19  1  0
 13 25  1  0
 14 26  1  0
 14 20  1  0
 14 33  1  0
 16 15  1  0
 17 34  2  0
 18  4  1  0
 19 17  1  0
 19 23  2  0
 20  5  1  0
 20 22  1  0
 21 10  2  0
 21  3  1  0
 23 32  1  0
 24 27  2  0
 25  8  1  0
 27 16  1  0
 27  2  1  0
 28 18  2  0
 28 12  1  0
 30  5  1  0
 31 23  1  0
 32 29  2  0
 33 28  1  0
 34 29  1  0
  1 35  1  0
  2 36  1  0
  2 37  1  0
  3 38  1  0
  3 39  1  0
  4 40  1  0
  4 41  1  0
  5 42  1  0
  6 43  1  0
  7 44  1  0
  8 45  1  0
  8 46  1  0
  9 47  1  0
  9 48  1  0
 10 49  1  0
 11 50  1  0
 12 51  1  0
 14 52  1  0
 16 53  1  0
 16 54  1  0
 17 55  1  0
 20 56  1  0
 22 57  1  0
 22 58  1  0
 25 59  1  0
 25 60  1  0
 26 61  1  0
 26 62  1  0
 29 63  1  0
 30 64  1  0
 30 65  1  0
 31 66  1  0
 32 67  1  0
 34 68  1  0
M  CHG  1  26   1
M  END
>  <mol_id>  (29) 
2026-09-18-6fnk-s0-n100-refligand-0030

>  <rmsd_to_ref>  (29) 


$$$$

     RDKit          3D

 21 22  0  0  0  0  0  0  0  0999 V2000
   -0.7280   17.4060   45.7480 C   0  0  0  0  0  0  0  0  0  0  0  0
    0.2140   18.6140   44.0770 C   0  0  0  0  0  0  0  0  0  0  0  0
    0.6480   19.6530   43.1510 C   0  0  0  0  0  0  0  0  0  0  0  0
    1.5500   16.9120   42.9410 C   0  0  0  0  0  0  0  0  0  0  0  0
   -0.5180   18.7720   45.1250 C   0  0  0  0  0  0  0  0  0  0  0  0
    1.8830   15.4930   42.8280 C   0  0  0  0  0  0  0  0  0  0  0  0
   -0.9370   19.7780   45.7070 O   0  0  0  0  0  0  0  0  0  0  0  0
    0.5970   17.2600   43.9710 C   0  0  0  0  0  0  0  0  0  0  0  0
    0.1710   16.4120   44.9110 N   0  0  0  0  0  0  0  0  0  0  0  0
    2.1580   17.9610   42.1010 C   0  0  0  0  0  0  0  0  0  0  0  0
    1.8310   19.3400   42.3010 C   0  0  0  0  0  0  0  0  0  0  0  0
    2.8000   20.5630   41.7480 Cl  0  0  0  0  0  0  0  0  0  0  0  0
    0.0690   20.8640   43.1240 C   0  0  0  0  0  0  0  0  0  0  0  0
   -1.3722   17.1583   46.6045 H   0  0  0  0  0  0  0  0  0  0  0  0
    1.9848   15.0591   43.8336 H   0  0  0  0  0  0  0  0  0  0  0  0
    1.0830   14.9709   42.2827 H   0  0  0  0  0  0  0  0  0  0  0  0
    2.8318   15.3813   42.2827 H   0  0  0  0  0  0  0  0  0  0  0  0
    2.8709   17.6802   41.3118 H   0  0  0  0  0  0  0  0  0  0  0  0
   -0.0981   21.2135   44.1535 H   0  0  0  0  0  0  0  0  0  0  0  0
    0.7257   21.5727   42.5982 H   0  0  0  0  0  0  0  0  0  0  0  0
   -0.8949   20.7979   42.5982 H   0  0  0  0  0  0  0  0  0  0  0  0
  2  5  1  0
  3  2  2  0
  4  8  2  0
  5  7  2  0
  5  1  1  0
  6  4  1  0
  8  2  1  0
  8  9  1  0
  9  1  2  0
 10 11  2  0
 10  4  1  0
 11  3  1  0
 12 11  1  0
 13  3  1  0
  1 14  1  0
  6 15  1  0
  6 16  1  0
  6 17  1  0
 10 18  1  0
 13 19  1  0
 13 20  1  0
 13 21  1  0
M  END
>  <mol_id>  (30) 
2026-09-18-6fnk-s0-n100-refligand-0031

>  <rmsd_to_ref>  (30) 


$$$$

     RDKit          3D

 25 27  0  0  0  0  0  0  0  0999 V2000
    2.9890   16.2540   42.2770 C   0  0  0  0  0  0  0  0  0  0  0  0
    1.7070   18.5960   41.8230 C   0  0  0  0  0  0  0  0  0  0  0  0
    1.6650   20.8940   40.8680 C   0  0  0  0  0  0  0  0  0  0  0  0
    2.3980   18.1510   40.8090 O   0  0  0  0  0  0  0  0  0  0  0  0
   -0.5320   21.6410   43.7020 N   0  0  0  0  0  0  0  0  0  0  0  0
    2.6840   16.6830   40.8280 C   0  0  0  0  0  0  0  0  0  0  0  0
    3.0100   16.1630   39.8330 O   0  0  0  0  0  0  0  0  0  0  0  0
   -0.2610   20.4420   43.9070 C   0  0  0  0  0  0  0  0  0  0  0  0
    0.5820   18.6380   43.6510 C   0  0  0  0  0  0  0  0  0  0  0  0
    1.6670   16.4700   43.0770 C   0  0  0  0  0  0  0  0  0  0  0  0
   -0.1390   18.3360   44.6740 N   0  0  0  0  0  0  0  0  0  0  0  0
   -0.7520   19.6310   44.9140 N   0  0  0  0  0  0  0  0  0  0  0  0
    1.3000   19.9160   41.9720 C   0  0  0  0  0  0  0  0  0  0  0  0
    0.5280   19.7990   43.1760 C   0  0  0  0  0  0  0  0  0  0  0  0
    1.3840   17.9090   42.9040 N   0  0  0  0  0  0  0  0  0  0  0  0
    3.7954   16.8730   42.6971 H   0  0  0  0  0  0  0  0  0  0  0  0
    3.3226   15.2069   42.3253 H   0  0  0  0  0  0  0  0  0  0  0  0
    2.0166   21.8360   41.3141 H   0  0  0  0  0  0  0  0  0  0  0  0
    2.4628   20.4630   40.2453 H   0  0  0  0  0  0  0  0  0  0  0  0
    0.7799   21.0911   40.2453 H   0  0  0  0  0  0  0  0  0  0  0  0
   -0.0976   22.1394   42.9122 H   0  0  0  0  0  0  0  0  0  0  0  0
   -1.1904   22.1335   44.3223 H   0  0  0  0  0  0  0  0  0  0  0  0
    0.8529   15.8575   42.6621 H   0  0  0  0  0  0  0  0  0  0  0  0
    1.7555   16.1771   44.1336 H   0  0  0  0  0  0  0  0  0  0  0  0
   -1.4066   19.8880   45.6666 H   0  0  0  0  0  0  0  0  0  0  0  0
  1 10  1  0
  2 13  2  0
  2 15  1  0
  3 13  1  0
  4  6  1  0
  4  2  1  0
  5  8  1  0
  6  1  1  0
  7  6  2  0
  8 12  1  0
  9 11  2  0
 11 12  1  0
 13 14  1  0
 14  9  1  0
 14  8  2  0
 15 10  1  0
 15  9  1  0
  1 16  1  0
  1 17  1  0
  3 18  1  0
  3 19  1  0
  3 20  1  0
  5 21  1  0
  5 22  1  0
 10 23  1  0
 10 24  1  0
 12 25  1  0
M  END
>  <mol_id>  (31) 
2026-09-18-6fnk-s0-n100-refligand-0032

>  <rmsd_to_ref>  (31) 


$$$$

     RDKit          3D

 29 30  0  0  0  0  0  0  0  0999 V2000
    1.8760   20.3830   42.0780 C   0  0  0  0  0  0  0  0  0  0  0  0
    0.3030   17.5260   43.4910 C   0  0  0  0  0  0  0  0  0  0  0  0
    2.0490   19.0580   42.7440 C   0  0  0  0  0  0  0  0  0  0  0  0
    0.8290   18.4440   42.8330 N   0  0  0  0  0  4  0  0  0  0  0  0
   -0.5700   19.6560   46.1620 O   0  0  0  0  0  1  0  0  0  0  0  0
   -0.7760   14.3250   45.2330 Cl  0  0  0  0  0  0  0  0  0  0  0  0
   -0.4440   20.5020   44.1750 O   0  0  0  0  0  0  0  0  0  0  0  0
    2.3620   20.2490   40.6680 C   0  0  0  0  0  0  0  0  0  0  0  0
   -0.6000   15.8210   44.6500 C   0  0  0  0  0  0  0  0  0  0  0  0
   -0.3050   18.0430   44.6000 C   0  0  0  0  0  0  0  0  0  0  0  0
    2.5410   18.1280   41.6950 C   0  0  0  0  0  0  0  0  0  0  0  0
   -0.7790   17.0010   45.3130 C   0  0  0  0  0  0  0  0  0  0  0  0
   -0.4760   19.4960   44.9640 C   0  0  0  0  0  0  0  0  0  0  0  0
   -0.0020   16.1250   43.3890 C   0  0  0  0  0  0  0  0  0  0  0  0
    2.1350   18.7350   40.3930 C   0  0  0  0  0  0  0  0  0  0  0  0
    0.8139   20.6692   42.0829 H   0  0  0  0  0  0  0  0  0  0  0  0
    2.4450   21.1596   42.6101 H   0  0  0  0  0  0  0  0  0  0  0  0
    2.6238   19.2171   43.6683 H   0  0  0  0  0  0  0  0  0  0  0  0
    0.2044   19.2375   43.0357 H   0  0  0  0  0  0  0  0  0  0  0  0
    0.9995   17.8447   42.0129 H   0  0  0  0  0  0  0  0  0  0  0  0
    1.7724   20.8733   39.9805 H   0  0  0  0  0  0  0  0  0  0  0  0
    3.4023   20.5759   40.5234 H   0  0  0  0  0  0  0  0  0  0  0  0
    0.6551   18.0216   45.1364 H   0  0  0  0  0  0  0  0  0  0  0  0
    3.6356   18.0335   41.7492 H   0  0  0  0  0  0  0  0  0  0  0  0
    2.1229   17.1182   41.8197 H   0  0  0  0  0  0  0  0  0  0  0  0
   -1.2500   17.0905   46.3030 H   0  0  0  0  0  0  0  0  0  0  0  0
    0.1815   15.4481   42.5415 H   0  0  0  0  0  0  0  0  0  0  0  0
    1.0805   18.5227   40.1629 H   0  0  0  0  0  0  0  0  0  0  0  0
    2.6927   18.3495   39.5268 H   0  0  0  0  0  0  0  0  0  0  0  0
  1  3  1  0
  2 10  1  0
  3  4  1  0
  4  2  1  0
  7 13  2  0
  8  1  1  0
  9  6  1  0
  9 12  2  0
 10 13  1  0
 10 12  1  0
 11  3  1  0
 13  5  1  0
 14  2  2  0
 14  9  1  0
 15  8  1  0
 15 11  1  0
  1 16  1  0
  1 17  1  0
  3 18  1  0
  4 19  1  0
  4 20  1  0
  8 21  1  0
  8 22  1  0
 10 23  1  0
 11 24  1  0
 11 25  1  0
 12 26  1  0
 14 27  1  0
 15 28  1  0
 15 29  1  0
M  CHG  2   4   1   5  -1
M  END
>  <mol_id>  (32) 
2026-09-18-6fnk-s0-n100-refligand-0033

>  <rmsd_to_ref>  (32) 


$$$$

     RDKit          3D

 27 28  0  0  0  0  0  0  0  0999 V2000
    2.2040   19.0320   42.1190 O   0  0  0  0  0  0  0  0  0  0  0  0
    2.2270   15.6110   41.9730 C   0  0  0  0  0  0  0  0  0  0  0  0
    1.5940   16.6900   42.4230 C   0  0  0  0  0  0  0  0  0  0  0  0
   -0.7650   20.0020   44.5990 N   0  0  0  0  0  0  0  0  0  0  0  0
    0.6510   18.3460   43.6230 C   0  0  0  0  0  0  0  0  0  0  0  0
   -0.7350   17.8040   45.4230 N   0  0  0  0  0  0  0  0  0  0  0  0
   -0.3270   18.6890   44.5770 C   0  0  0  0  0  0  0  0  0  0  0  0
    0.7170   20.5980   42.8390 C   0  0  0  0  0  0  0  0  0  0  0  0
    1.1720   19.3000   42.7950 C   0  0  0  0  0  0  0  0  0  0  0  0
    1.4500   14.5360   43.8930 C   0  0  0  0  0  0  0  0  0  0  0  0
   -0.2770   20.9680   43.7100 C   0  0  0  0  0  0  0  0  0  0  0  0
    3.3390   19.9290   42.2040 C   0  0  0  0  0  0  0  0  0  0  0  0
    0.9430   15.6850   44.2600 C   0  0  0  0  0  0  0  0  0  0  0  0
    2.2110   14.4170   42.6820 C   0  0  0  0  0  0  0  0  0  0  0  0
    1.0830   16.9310   43.5060 C   0  0  0  0  0  0  0  0  0  0  0  0
    2.7742   15.6650   41.0203 H   0  0  0  0  0  0  0  0  0  0  0  0
    1.5170   17.5088   41.6925 H   0  0  0  0  0  0  0  0  0  0  0  0
   -1.4500   18.0509   46.1221 H   0  0  0  0  0  0  0  0  0  0  0  0
   -0.3457   16.8507   45.3991 H   0  0  0  0  0  0  0  0  0  0  0  0
    1.1562   21.3496   42.1666 H   0  0  0  0  0  0  0  0  0  0  0  0
    1.2906   13.6478   44.5221 H   0  0  0  0  0  0  0  0  0  0  0  0
   -0.6783   21.9922   43.7099 H   0  0  0  0  0  0  0  0  0  0  0  0
    3.5784   20.1182   43.2608 H   0  0  0  0  0  0  0  0  0  0  0  0
    4.2069   19.4702   41.7079 H   0  0  0  0  0  0  0  0  0  0  0  0
    3.0931   20.8795   41.7079 H   0  0  0  0  0  0  0  0  0  0  0  0
    0.3724   15.7163   45.1999 H   0  0  0  0  0  0  0  0  0  0  0  0
    2.7176   13.4964   42.3566 H   0  0  0  0  0  0  0  0  0  0  0  0
  1 12  1  0
  1  9  1  0
  2  3  2  0
  2 14  1  0
  3 15  1  0
  5  7  1  0
  7  4  2  0
  7  6  1  0
  8 11  2  0
  9  8  1  0
  9  5  2  0
 10 13  1  0
 11  4  1  0
 14 10  2  0
 15  5  1  0
 15 13  2  0
  2 16  1  0
  3 17  1  0
  6 18  1  0
  6 19  1  0
  8 20  1  0
 10 21  1  0
 11 22  1  0
 12 23  1  0
 12 24  1  0
 12 25  1  0
 13 26  1  0
 14 27  1  0
M  END
>  <mol_id>  (33) 
2026-09-18-6fnk-s0-n100-refligand-0034

>  <rmsd_to_ref>  (33) 


$$$$

     RDKit          3D

 54 56  0  0  0  0  0  0  0  0999 V2000
    1.6470   18.6670   42.7550 C   0  0  0  0  0  0  0  0  0  0  0  0
    0.0960   10.7440   43.2960 O   0  0  0  0  0  0  0  0  0  0  0  0
    2.2050   16.2400   40.0620 O   0  0  0  0  0  0  0  0  0  0  0  0
    2.0660   17.2690   42.2070 C   0  0  0  0  0  0  0  0  0  0  0  0
    1.2430   12.0490   41.5090 C   0  0  0  0  0  0  0  0  0  0  0  0
    0.4270   17.1690   44.2730 N   0  0  0  0  0  0  0  0  0  0  0  0
   -0.1860   19.8220   44.3060 C   0  0  0  0  0  0  0  0  0  0  0  0
    1.6070   13.0540   40.8020 O   0  0  0  0  0  0  0  0  0  0  0  0
    2.4200   19.8730   39.9340 C   0  0  0  0  0  0  0  0  0  0  0  0
   -0.0690   13.1300   43.5850 C   0  0  0  0  0  0  0  0  0  0  0  0
    2.3540   18.4740   39.9490 C   0  0  0  0  0  0  0  0  0  0  0  0
   -1.5510   17.3960   45.1050 O   0  0  0  0  0  0  0  0  0  0  0  0
    1.5930   20.0750   42.0380 C   0  0  0  0  0  0  0  0  0  0  0  0
    2.6320   20.5570   38.9200 O   0  0  0  0  0  0  0  0  0  0  0  0
    1.7670   10.7280   41.2750 N   0  0  0  0  0  0  0  0  0  0  0  0
    1.7660   16.6340   38.7620 C   0  0  0  0  0  0  0  0  0  0  0  0
   -0.7400   15.1200   44.9480 C   0  0  0  0  0  0  0  0  0  0  0  0
    0.1420   12.0830   42.5250 C   0  0  0  0  0  0  0  0  0  0  0  0
    2.9320   20.7620   37.9220 C   0  0  0  0  0  0  0  0  0  0  0  0
    0.6020   21.0880   42.4500 C   0  0  0  0  0  0  0  0  0  0  0  0
   -0.8230   19.9480   45.5080 O   0  0  0  0  0  0  0  0  0  0  0  0
   -0.2400   21.0300   43.5140 C   0  0  0  0  0  0  0  0  0  0  0  0
    0.2580   14.5320   43.9750 C   0  0  0  0  0  0  0  0  0  0  0  0
   -0.6850   16.6600   44.8220 C   0  0  0  0  0  0  0  0  0  0  0  0
    2.1110   17.9550   38.6250 O   0  0  0  0  0  0  0  0  0  0  0  0
    0.6400   18.4970   43.9620 C   0  0  0  0  0  0  0  0  0  0  0  0
    2.1750   17.3730   40.6790 C   0  0  0  0  0  0  0  0  0  0  0  0
    2.3630   20.5780   41.0950 C   0  0  0  0  0  0  0  0  0  0  0  0
    0.1022   10.9234   44.2696 H   0  0  0  0  0  0  0  0  0  0  0  0
    3.0378   16.9772   42.6318 H   0  0  0  0  0  0  0  0  0  0  0  0
    1.3212   16.5094   42.4867 H   0  0  0  0  0  0  0  0  0  0  0  0
    1.1909   16.5103   44.0646 H   0  0  0  0  0  0  0  0  0  0  0  0
    1.3382   19.9220   39.7409 H   0  0  0  0  0  0  0  0  0  0  0  0
    0.2942   12.5891   44.4713 H   0  0  0  0  0  0  0  0  0  0  0  0
   -0.9969   13.4630   43.0970 H   0  0  0  0  0  0  0  0  0  0  0  0
    2.9217   18.8889   40.7949 H   0  0  0  0  0  0  0  0  0  0  0  0
    2.5279   10.5888   40.5949 H   0  0  0  0  0  0  0  0  0  0  0  0
    1.3808    9.9225   41.7877 H   0  0  0  0  0  0  0  0  0  0  0  0
    2.2646   16.0279   37.9913 H   0  0  0  0  0  0  0  0  0  0  0  0
    0.6820   16.4887   38.6441 H   0  0  0  0  0  0  0  0  0  0  0  0
   -1.7516   14.7622   44.7060 H   0  0  0  0  0  0  0  0  0  0  0  0
   -0.4959   14.8131   45.9757 H   0  0  0  0  0  0  0  0  0  0  0  0
   -0.6394   12.3502   41.7983 H   0  0  0  0  0  0  0  0  0  0  0  0
    3.8402   21.3826   37.9323 H   0  0  0  0  0  0  0  0  0  0  0  0
    3.1400   19.8163   37.4001 H   0  0  0  0  0  0  0  0  0  0  0  0
    2.1265   21.2994   37.4001 H   0  0  0  0  0  0  0  0  0  0  0  0
    0.5382   21.9912   41.8253 H   0  0  0  0  0  0  0  0  0  0  0  0
   -0.8510   19.1832   46.1360 H   0  0  0  0  0  0  0  0  0  0  0  0
   -0.9243   21.8556   43.7592 H   0  0  0  0  0  0  0  0  0  0  0  0
    1.2533   14.5431   44.4433 H   0  0  0  0  0  0  0  0  0  0  0  0
    0.2288   15.1442   43.0616 H   0  0  0  0  0  0  0  0  0  0  0  0
    3.2599   17.3092   40.8489 H   0  0  0  0  0  0  0  0  0  0  0  0
    3.3847   20.6486   41.4966 H   0  0  0  0  0  0  0  0  0  0  0  0
    1.9152   21.5477   40.8319 H   0  0  0  0  0  0  0  0  0  0  0  0
  1 26  2  0
  3 27  1  0
  4  1  1  0
  5 18  1  0
  6 24  1  0
  7 21  1  0
  8  5  2  0
  9 14  1  0
  9 11  1  0
  9 28  1  0
 10 23  1  0
 11 25  1  0
 11 27  1  0
 13 20  2  0
 13  1  1  0
 15  5  1  0
 16  3  1  0
 18  2  1  0
 18 10  1  0
 19 14  1  0
 20 22  1  0
 22  7  2  0
 23 17  1  0
 24 17  1  0
 24 12  2  0
 25 16  1  0
 26  6  1  0
 26  7  1  0
 27  4  1  0
 28 13  1  0
  2 29  1  0
  4 30  1  0
  4 31  1  0
  6 32  1  0
  9 33  1  0
 10 34  1  0
 10 35  1  0
 11 36  1  0
 15 37  1  0
 15 38  1  0
 16 39  1  0
 16 40  1  0
 17 41  1  0
 17 42  1  0
 18 43  1  0
 19 44  1  0
 19 45  1  0
 19 46  1  0
 20 47  1  0
 21 48  1  0
 22 49  1  0
 23 50  1  0
 23 51  1  0
 27 52  1  0
 28 53  1  0
 28 54  1  0
M  END
>  <mol_id>  (34) 
2026-09-18-6fnk-s0-n100-refligand-0035

>  <rmsd_to_ref>  (34) 


$$$$

     RDKit          3D

 46 47  0  0  0  0  0  0  0  0999 V2000
    3.9450   15.7370   40.2350 O   0  0  0  0  0  0  0  0  0  0  0  0
    1.7940   12.9840   41.1110 C   0  0  0  0  0  0  0  0  0  0  0  0
   -0.9850   19.0620   46.0930 N   0  0  0  0  0  0  0  0  0  0  0  0
    1.9860   15.1790   41.4320 C   0  0  0  0  0  0  0  0  0  0  0  0
    2.5360   19.3060   41.6040 C   0  0  0  0  0  0  0  0  0  0  0  0
   -0.1240   19.6730   45.3410 C   0  0  0  0  0  0  0  0  0  0  0  0
    3.8900   21.0700   40.4520 C   0  0  0  0  0  0  0  0  0  0  0  0
   -0.9660   16.5530   46.0850 C   0  0  0  0  0  0  0  0  0  0  0  0
    0.4590   15.2370   44.2480 C   0  0  0  0  0  0  0  0  0  0  0  0
   -1.0330   15.1510   46.1400 C   0  0  0  0  0  0  0  0  0  0  0  0
    2.4020   18.2960   42.8090 C   0  0  0  0  0  0  0  0  0  0  0  0
    3.0520   14.8370   40.6450 C   0  0  0  0  0  0  0  0  0  0  0  0
   -0.1510   20.7550   45.0090 O   0  0  0  0  0  1  0  0  0  0  0  0
   -0.3070   14.5300   45.1380 C   0  0  0  0  0  0  0  0  0  0  0  0
    1.5620   17.1480   42.8680 C   0  0  0  0  0  0  0  0  0  0  0  0
    0.7160   19.1150   44.7850 O   0  0  0  0  0  0  0  0  0  0  0  0
    0.6070   16.5240   44.0120 C   0  0  0  0  0  0  0  0  0  0  0  0
    1.8640   20.0970   39.3040 C   0  0  0  0  0  0  0  0  0  0  0  0
    1.7410   19.2280   40.4850 C   0  0  0  0  0  0  0  0  0  0  0  0
   -0.0960   17.1830   45.1570 C   0  0  0  0  0  0  0  0  0  0  0  0
    1.1860   14.0250   41.7990 N   0  0  0  0  0  0  0  0  0  0  0  0
    2.9920   13.4960   40.2610 N   0  0  0  0  0  0  0  0  0  0  0  0
    2.7250   21.3170   39.4480 C   0  0  0  0  0  0  0  0  0  0  0  0
    1.5190   16.3420   41.7230 N   0  0  0  0  0  0  0  0  0  0  0  0
    3.5330   20.3330   41.7330 C   0  0  0  0  0  0  0  0  0  0  0  0
    1.4708   11.9337   41.1604 H   0  0  0  0  0  0  0  0  0  0  0  0
   -0.8504   18.0681   46.3272 H   0  0  0  0  0  0  0  0  0  0  0  0
   -1.8038   19.5704   46.4563 H   0  0  0  0  0  0  0  0  0  0  0  0
    4.3027   22.0500   40.7335 H   0  0  0  0  0  0  0  0  0  0  0  0
    4.5968   20.4130   39.9239 H   0  0  0  0  0  0  0  0  0  0  0  0
   -1.5864   17.1614   46.7596 H   0  0  0  0  0  0  0  0  0  0  0  0
    1.0761   14.5990   43.5982 H   0  0  0  0  0  0  0  0  0  0  0  0
   -1.6048   14.6018   46.9025 H   0  0  0  0  0  0  0  0  0  0  0  0
    3.4198   17.9129   42.9740 H   0  0  0  0  0  0  0  0  0  0  0  0
    1.8748   18.9416   43.5268 H   0  0  0  0  0  0  0  0  0  0  0  0
   -0.3462   13.4340   45.0534 H   0  0  0  0  0  0  0  0  0  0  0  0
    2.4049   16.5507   43.2458 H   0  0  0  0  0  0  0  0  0  0  0  0
    0.8528   20.4337   39.0320 H   0  0  0  0  0  0  0  0  0  0  0  0
    2.3648   19.4797   38.5436 H   0  0  0  0  0  0  0  0  0  0  0  0
    0.9547   18.4589   40.4716 H   0  0  0  0  0  0  0  0  0  0  0  0
    0.0784   18.2606   45.2927 H   0  0  0  0  0  0  0  0  0  0  0  0
    3.1469   21.5762   38.4658 H   0  0  0  0  0  0  0  0  0  0  0  0
    2.1028   22.1386   39.8323 H   0  0  0  0  0  0  0  0  0  0  0  0
    1.0009   16.7745   40.9449 H   0  0  0  0  0  0  0  0  0  0  0  0
    3.1634   21.0738   42.4573 H   0  0  0  0  0  0  0  0  0  0  0  0
    4.4529   19.8197   42.0499 H   0  0  0  0  0  0  0  0  0  0  0  0
  1 12  2  0
  2 21  1  0
  4 24  1  0
  4 21  2  0
  5 25  1  0
  5 11  1  0
  6  3  1  0
  7 25  1  0
  8 10  2  0
  9 14  2  0
 12  4  1  0
 13  6  1  0
 14 10  1  0
 15 11  1  0
 15 17  1  0
 16  6  2  0
 17  9  1  0
 17 20  2  0
 18 23  1  0
 18 19  1  0
 19  5  2  0
 20  8  1  0
 22 12  1  0
 22  2  2  0
 23  7  1  0
 24 15  1  0
  2 26  1  0
  3 27  1  0
  3 28  1  0
  7 29  1  0
  7 30  1  0
  8 31  1  0
  9 32  1  0
 10 33  1  0
 11 34  1  0
 11 35  1  0
 14 36  1  0
 15 37  1  0
 18 38  1  0
 18 39  1  0
 19 40  1  0
 20 41  1  0
 23 42  1  0
 23 43  1  0
 24 44  1  0
 25 45  1  0
 25 46  1  0
M  CHG  1  13  -1
M  END
>  <mol_id>  (35) 
2026-09-18-6fnk-s0-n100-refligand-0036

>  <rmsd_to_ref>  (35) 


$$$$

     RDKit          3D

 21 21  0  0  0  0  0  0  0  0999 V2000
    1.6180   17.3060   44.3310 C   0  0  0  0  0  0  0  0  0  0  0  0
    1.3770   16.2670   43.3150 N   0  0  0  0  0  4  0  0  0  0  0  0
    1.9290   18.3970   40.9410 O   0  0  0  0  0  0  0  0  0  0  0  0
    1.8920   20.6100   41.2300 N   0  0  0  0  0  0  0  0  0  0  0  0
    0.3830   20.5960   43.2340 C   0  0  0  0  0  0  0  0  0  0  0  0
   -0.0210   18.7110   45.2140 C   0  0  0  0  0  0  0  0  0  0  0  0
   -0.4410   20.9040   44.3160 N   0  0  0  0  0  0  0  0  0  0  0  0
   -0.6600   19.9050   45.2820 C   0  0  0  0  0  0  0  0  0  0  0  0
    0.9710   19.3220   43.0610 C   0  0  0  0  0  0  0  0  0  0  0  0
    0.7240   18.4180   44.1340 C   0  0  0  0  0  0  0  0  0  0  0  0
    1.6870   19.3910   41.6870 C   0  0  0  0  0  0  0  0  0  0  0  0
    1.4517   16.8801   45.3315 H   0  0  0  0  0  0  0  0  0  0  0  0
    2.6550   17.6613   44.2390 H   0  0  0  0  0  0  0  0  0  0  0  0
    1.1695   15.3724   43.7813 H   0  0  0  0  0  0  0  0  0  0  0  0
    0.5773   16.5411   42.7266 H   0  0  0  0  0  0  0  0  0  0  0  0
    2.2157   16.1610   42.7266 H   0  0  0  0  0  0  0  0  0  0  0  0
    1.6978   21.4244   41.8300 H   0  0  0  0  0  0  0  0  0  0  0  0
    2.2464   20.7483   40.2728 H   0  0  0  0  0  0  0  0  0  0  0  0
    0.5836   21.3759   42.4847 H   0  0  0  0  0  0  0  0  0  0  0  0
   -0.1116   17.9869   46.0371 H   0  0  0  0  0  0  0  0  0  0  0  0
   -1.3620   20.0959   46.1071 H   0  0  0  0  0  0  0  0  0  0  0  0
  2  1  1  0
  3 11  2  0
  4 11  1  0
  5  7  2  0
  6  8  2  0
  7  8  1  0
  9  5  1  0
  9 10  2  0
 10  1  1  0
 10  6  1  0
 11  9  1  0
  1 12  1  0
  1 13  1  0
  2 14  1  0
  2 15  1  0
  2 16  1  0
  4 17  1  0
  4 18  1  0
  5 19  1  0
  6 20  1  0
  8 21  1  0
M  CHG  1   2   1
M  END
>  <mol_id>  (36) 
2026-09-18-6fnk-s0-n100-refligand-0037

>  <rmsd_to_ref>  (36) 


$$$$

     RDKit          3D

 19 20  0  0  0  0  0  0  0  0999 V2000
    1.8620   19.1540   41.3600 C   0  0  0  0  0  0  0  0  0  0  0  0
    1.9570   17.7040   41.1910 N   0  0  0  0  0  0  0  0  0  0  0  0
    2.8630   15.2710   41.4940 Cl  0  0  0  0  0  0  0  0  0  0  0  0
    0.9500   18.2580   43.1090 C   0  0  0  0  0  0  0  0  0  0  0  0
    0.5620   16.2390   44.1160 C   0  0  0  0  0  0  0  0  0  0  0  0
    1.4510   16.0830   42.7850 N   0  0  0  0  0  0  0  0  0  0  0  0
    1.1440   19.5170   42.5260 C   0  0  0  0  0  0  0  0  0  0  0  0
    0.8130   20.7290   42.8820 N   0  0  0  0  0  0  0  0  0  0  0  0
    1.4810   17.2000   42.3200 N   0  0  0  0  0  0  0  0  0  0  0  0
   -0.4690   18.2050   45.3260 C   0  0  0  0  0  0  0  0  0  0  0  0
   -0.7650   19.4670   45.1870 O   0  0  0  0  0  0  0  0  0  0  0  0
    0.3510   17.6140   44.1940 C   0  0  0  0  0  0  0  0  0  0  0  0
    2.2992   19.8812   40.6599 H   0  0  0  0  0  0  0  0  0  0  0  0
    0.2072   15.4524   44.7981 H   0  0  0  0  0  0  0  0  0  0  0  0
    0.2877   20.8842   43.7543 H   0  0  0  0  0  0  0  0  0  0  0  0
    1.0772   21.5298   42.2905 H   0  0  0  0  0  0  0  0  0  0  0  0
    0.1020   18.0884   46.2589 H   0  0  0  0  0  0  0  0  0  0  0  0
   -1.4255   17.6619   45.3311 H   0  0  0  0  0  0  0  0  0  0  0  0
   -0.8627   19.8833   46.0799 H   0  0  0  0  0  0  0  0  0  0  0  0
  1  7  1  0
  2  1  2  0
  2  9  1  0
  3  6  1  0
  4 12  1  0
  5 12  2  0
  6  5  1  0
  7  8  1  0
  7  4  2  0
  9  6  1  0
  9  4  1  0
 11 10  1  0
 12 10  1  0
  1 13  1  0
  5 14  1  0
  8 15  1  0
  8 16  1  0
 10 17  1  0
 10 18  1  0
 11 19  1  0
M  END
>  <mol_id>  (37) 
2026-09-18-6fnk-s0-n100-refligand-0038

>  <rmsd_to_ref>  (37) 


$$$$

     RDKit          3D

 44 47  0  0  0  0  0  0  0  0999 V2000
    2.0500   12.9110   42.8380 C   0  0  0  0  0  0  0  0  0  0  0  0
    3.4410   19.7900   39.7450 N   0  0  0  0  0  4  0  0  0  0  0  0
    1.7700   13.8070   41.6370 C   0  0  0  0  0  0  0  0  0  0  0  0
   -0.0510   21.5880   43.0960 N   0  0  0  0  0  0  0  0  0  0  0  0
    2.3540   15.1860   41.8560 C   0  0  0  0  0  0  0  0  0  0  0  0
    1.4210   17.2300   42.7790 C   0  0  0  0  0  0  0  0  0  0  0  0
    1.7060   13.5780   44.1020 C   0  0  0  0  0  0  0  0  0  0  0  0
    2.0890   18.0100   41.9120 N   0  0  0  0  0  0  0  0  0  0  0  0
   -0.6190   20.1120   44.8120 N   0  0  0  0  0  0  0  0  0  0  0  0
   -0.1440   17.7840   44.6400 C   0  0  0  0  0  0  0  0  0  0  0  0
    1.7600   20.3780   41.0270 C   0  0  0  0  0  0  0  0  0  0  0  0
    0.7340   19.3020   43.0260 C   0  0  0  0  0  0  0  0  0  0  0  0
    0.6450   18.0100   43.5100 N   0  0  0  0  0  0  0  0  0  0  0  0
    0.0380   20.3290   43.6360 C   0  0  0  0  0  0  0  0  0  0  0  0
    2.4830   20.2400   39.9710 C   0  0  0  0  0  0  0  0  0  0  0  0
    1.5840   19.2690   41.9370 C   0  0  0  0  0  0  0  0  0  0  0  0
   -1.1410   18.6380   46.5370 N   0  0  0  0  0  0  0  0  0  0  0  0
   -0.5940   18.8450   45.2920 C   0  0  0  0  0  0  0  0  0  0  0  0
    1.7400   15.1220   44.1900 C   0  0  0  0  0  0  0  0  0  0  0  0
    2.9790   20.8370   39.0430 C   0  0  0  0  0  0  0  0  0  0  0  0
    1.5630   15.7430   42.9130 C   0  0  0  0  0  0  0  0  0  0  0  0
    3.1193   12.6534   42.8497 H   0  0  0  0  0  0  0  0  0  0  0  0
    1.4295   12.0074   42.7455 H   0  0  0  0  0  0  0  0  0  0  0  0
    4.2346   19.9085   40.3908 H   0  0  0  0  0  0  0  0  0  0  0  0
    3.7730   18.8416   39.5186 H   0  0  0  0  0  0  0  0  0  0  0  0
    0.6825   13.8929   41.4953 H   0  0  0  0  0  0  0  0  0  0  0  0
    2.2350   13.3616   40.7451 H   0  0  0  0  0  0  0  0  0  0  0  0
   -0.5810   22.3225   43.5865 H   0  0  0  0  0  0  0  0  0  0  0  0
    0.4122   21.7981   42.2003 H   0  0  0  0  0  0  0  0  0  0  0  0
    3.4106   15.1186   42.1543 H   0  0  0  0  0  0  0  0  0  0  0  0
    2.3301   15.8016   40.9447 H   0  0  0  0  0  0  0  0  0  0  0  0
    0.6825   13.2667   44.3582 H   0  0  0  0  0  0  0  0  0  0  0  0
    2.5116   13.2657   44.7829 H   0  0  0  0  0  0  0  0  0  0  0  0
   -0.3824   16.7639   44.9755 H   0  0  0  0  0  0  0  0  0  0  0  0
    0.7558   20.6712   40.6872 H   0  0  0  0  0  0  0  0  0  0  0  0
    2.3267   21.1063   41.6257 H   0  0  0  0  0  0  0  0  0  0  0  0
    1.4382   19.9766   40.1925 H   0  0  0  0  0  0  0  0  0  0  0  0
   -1.1466   17.6929   46.9464 H   0  0  0  0  0  0  0  0  0  0  0  0
   -1.5450   19.4281   47.0599 H   0  0  0  0  0  0  0  0  0  0  0  0
    0.9343   15.4559   44.8604 H   0  0  0  0  0  0  0  0  0  0  0  0
    2.7287   15.4155   44.5726 H   0  0  0  0  0  0  0  0  0  0  0  0
    3.4018   21.8450   39.1666 H   0  0  0  0  0  0  0  0  0  0  0  0
    2.7425   21.1020   38.0019 H   0  0  0  0  0  0  0  0  0  0  0  0
    0.5128   15.4379   42.7948 H   0  0  0  0  0  0  0  0  0  0  0  0
  1  7  1  0
  2 15  1  0
  3  5  1  0
  3  1  1  0
  4 14  1  0
  5 21  1  0
  6 21  1  0
  6 13  1  0
  7 19  1  0
  8 16  1  0
  8  6  2  0
  9 18  1  0
 10 18  2  0
 11 16  1  0
 12 13  1  0
 12 14  1  0
 13 10  1  0
 14  9  2  0
 15 11  1  0
 16 12  2  0
 18 17  1  0
 20  2  1  0
 20 15  1  0
 21 19  1  0
  1 22  1  0
  1 23  1  0
  2 24  1  0
  2 25  1  0
  3 26  1  0
  3 27  1  0
  4 28  1  0
  4 29  1  0
  5 30  1  0
  5 31  1  0
  7 32  1  0
  7 33  1  0
 10 34  1  0
 11 35  1  0
 11 36  1  0
 15 37  1  0
 17 38  1  0
 17 39  1  0
 19 40  1  0
 19 41  1  0
 20 42  1  0
 20 43  1  0
 21 44  1  0
M  CHG  1   2   1
M  END
>  <mol_id>  (38) 
2026-09-18-6fnk-s0-n100-refligand-0039

>  <rmsd_to_ref>  (38) 


$$$$

     RDKit          3D

 53 55  0  0  0  0  0  0  0  0999 V2000
    0.3600   13.9640   43.8490 C   0  0  0  0  0  0  0  0  0  0  0  0
    1.3040   14.7270   43.2360 C   0  0  0  0  0  0  0  0  0  0  0  0
    2.6700   20.4270   39.8680 C   0  0  0  0  0  0  0  0  0  0  0  0
    2.5510   15.7400   41.0700 C   0  0  0  0  0  0  0  0  0  0  0  0
    2.9210   14.3600   41.3590 C   0  0  0  0  0  0  0  0  0  0  0  0
    0.2300   14.2590   44.1150 C   0  0  0  0  0  0  0  0  0  0  0  0
    0.2520   15.5070   41.5390 C   0  0  0  0  0  0  0  0  0  0  0  0
    0.3180   17.6880   43.7860 C   0  0  0  0  0  0  0  0  0  0  0  0
    1.2660   21.6180   41.5550 N   0  0  0  0  0  0  0  0  0  0  0  0
    2.1950   19.4710   39.0470 O   0  0  0  0  0  0  0  0  0  0  0  0
    2.6290   17.2010   41.0020 C   0  0  0  0  0  0  0  0  0  0  0  0
   -0.1650   19.6930   44.6450 C   0  0  0  0  0  0  0  0  0  0  0  0
    1.5070   17.2620   43.0720 C   0  0  0  0  0  0  0  0  0  0  0  0
    0.5390   21.1770   42.5590 N   0  0  0  0  0  0  0  0  0  0  0  0
    0.7680   19.8480   42.8450 C   0  0  0  0  0  0  0  0  0  0  0  0
   -0.8070   18.7120   46.0170 C   0  0  0  0  0  0  0  0  0  0  0  0
    2.4890   13.8130   42.7280 C   0  0  0  0  0  0  0  0  0  0  0  0
    1.9420   20.5420   41.1020 C   0  0  0  0  0  0  0  0  0  0  0  0
    1.5990   19.3910   41.9350 C   0  0  0  0  0  0  0  0  0  0  0  0
    1.9270   18.0120   42.0220 C   0  0  0  0  0  0  0  0  0  0  0  0
   -0.3190   17.1610   44.6750 N   0  0  0  0  0  0  0  0  0  0  0  0
    0.2680   19.0690   43.7510 C   0  0  0  0  0  0  0  0  0  0  0  0
    2.7070   12.8850   43.2030 O   0  0  0  0  0  0  0  0  0  0  0  0
    1.2810   15.9580   42.3810 C   0  0  0  0  0  0  0  0  0  0  0  0
   -1.2720   17.4580   45.5850 C   0  0  0  0  0  0  0  0  0  0  0  0
    3.4680   21.2950   39.4660 O   0  0  0  0  0  1  0  0  0  0  0  0
   -0.9580   19.8730   45.3890 O   0  0  0  0  0  0  0  0  0  0  0  0
    0.7879   13.0896   44.3611 H   0  0  0  0  0  0  0  0  0  0  0  0
   -0.4019   13.4983   43.2066 H   0  0  0  0  0  0  0  0  0  0  0  0
    1.9221   15.2266   43.9964 H   0  0  0  0  0  0  0  0  0  0  0  0
    1.9413   14.0873   42.6078 H   0  0  0  0  0  0  0  0  0  0  0  0
    0.8122   15.4843   42.6078 H   0  0  0  0  0  0  0  0  0  0  0  0
    2.9901   15.5462   40.0803 H   0  0  0  0  0  0  0  0  0  0  0  0
    2.4686   13.7224   40.5852 H   0  0  0  0  0  0  0  0  0  0  0  0
    4.0209   14.3472   41.3713 H   0  0  0  0  0  0  0  0  0  0  0  0
    0.3821   13.9138   45.1483 H   0  0  0  0  0  0  0  0  0  0  0  0
    0.8047   15.1820   43.9484 H   0  0  0  0  0  0  0  0  0  0  0  0
   -0.8390   14.4576   43.9484 H   0  0  0  0  0  0  0  0  0  0  0  0
   -0.5864   15.1395   42.1490 H   0  0  0  0  0  0  0  0  0  0  0  0
   -0.0924   16.3367   40.9042 H   0  0  0  0  0  0  0  0  0  0  0  0
    0.6286   14.6914   40.9042 H   0  0  0  0  0  0  0  0  0  0  0  0
    3.2032   17.6903   40.2014 H   0  0  0  0  0  0  0  0  0  0  0  0
   -0.1564   20.6857   44.1712 H   0  0  0  0  0  0  0  0  0  0  0  0
    0.2952   18.9758   45.3406 H   0  0  0  0  0  0  0  0  0  0  0  0
    2.2373   17.2919   43.8941 H   0  0  0  0  0  0  0  0  0  0  0  0
   -0.1310   21.7632   43.0770 H   0  0  0  0  0  0  0  0  0  0  0  0
   -1.2654   18.8609   47.0058 H   0  0  0  0  0  0  0  0  0  0  0  0
    0.2729   18.5652   45.8680 H   0  0  0  0  0  0  0  0  0  0  0  0
    1.8501   14.4906   43.3134 H   0  0  0  0  0  0  0  0  0  0  0  0
   -0.6760   19.0206   43.1884 H   0  0  0  0  0  0  0  0  0  0  0  0
    1.1558   15.4614   43.3545 H   0  0  0  0  0  0  0  0  0  0  0  0
   -2.2690   17.5274   45.1255 H   0  0  0  0  0  0  0  0  0  0  0  0
   -1.4041   16.7109   46.3815 H   0  0  0  0  0  0  0  0  0  0  0  0
  1  6  1  0
  2  1  1  0
  3 18  1  0
  4  5  1  0
  4 24  1  0
  5 17  1  0
  8 21  2  0
  9 14  1  0
 10  3  2  0
 11  4  1  0
 11 20  2  0
 12 27  1  0
 13 20  1  0
 13  8  1  0
 14 15  1  0
 15 22  1  0
 17 23  2  0
 18  9  2  0
 18 19  1  0
 19 20  1  0
 19 15  2  0
 21 25  1  0
 22  8  1  0
 22 12  1  0
 24  7  1  0
 24 13  1  0
 25 16  1  0
 26  3  1  0
 27 16  1  0
  1 28  1  0
  1 29  1  0
  2 30  1  0
  2 31  1  0
  2 32  1  0
  4 33  1  0
  5 34  1  0
  5 35  1  0
  6 36  1  0
  6 37  1  0
  6 38  1  0
  7 39  1  0
  7 40  1  0
  7 41  1  0
 11 42  1  0
 12 43  1  0
 12 44  1  0
 13 45  1  0
 14 46  1  0
 16 47  1  0
 16 48  1  0
 17 49  1  0
 22 50  1  0
 24 51  1  0
 25 52  1  0
 25 53  1  0
M  CHG  1  26  -1
M  END
>  <mol_id>  (39) 
2026-09-18-6fnk-s0-n100-refligand-0040

>  <rmsd_to_ref>  (39) 


$$$$

     RDKit          3D

 54 56  0  0  0  0  0  0  0  0999 V2000
   -0.3070   20.2750   44.2060 N   0  0  0  0  0  0  0  0  0  0  0  0
    3.1330   15.4670   40.7150 C   0  0  0  0  0  0  0  0  0  0  0  0
    0.4810   17.0170   43.7170 C   0  0  0  0  0  0  0  0  0  0  0  0
    0.8500   16.0250   40.3470 C   0  0  0  0  0  0  0  0  0  0  0  0
    0.4920   18.1550   43.2270 C   0  0  0  0  0  0  0  0  0  0  0  0
    3.5570   15.2270   39.3510 C   0  0  0  0  0  0  0  0  0  0  0  0
    2.5280   20.2120   41.0420 C   0  0  0  0  0  0  0  0  0  0  0  0
    0.9750   18.4370   41.8330 C   0  0  0  0  0  0  0  0  0  0  0  0
    1.1550   20.5910   40.7210 C   0  0  0  0  0  0  0  0  0  0  0  0
    3.1710   20.1070   39.7930 O   0  0  0  0  0  0  0  0  0  0  0  0
   -0.4480   18.9210   43.9170 C   0  0  0  0  0  0  0  0  0  0  0  0
   -1.4370   15.8900   47.7910 N   0  0  0  0  0  0  0  0  0  0  0  0
   -0.7650   18.5850   45.4790 C   0  0  0  0  0  0  0  0  0  0  0  0
    2.7840   16.7860   41.2010 O   0  0  0  0  0  0  0  0  0  0  0  0
   -1.2530   16.4910   46.7260 C   0  0  0  0  0  0  0  0  0  0  0  0
    3.7250   21.3640   39.6760 O   0  0  0  0  0  0  0  0  0  0  0  0
    1.5500   16.2750   38.9910 C   0  0  0  0  0  0  0  0  0  0  0  0
    1.2740   17.2280   40.9800 C   0  0  0  0  0  0  0  0  0  0  0  0
    0.3990   20.7740   43.3320 O   0  0  0  0  0  0  0  0  0  0  0  0
   -0.5100   16.2660   40.3000 F   0  0  0  0  0  0  0  0  0  0  0  0
   -0.9140   17.2510   45.6740 C   0  0  0  0  0  0  0  0  0  0  0  0
   -0.3890   16.6520   44.7810 N   0  0  0  0  0  4  0  0  0  0  0  0
    2.9540   16.1340   38.3060 C   0  0  0  0  0  0  0  0  0  0  0  0
    1.6560   17.7100   39.4270 C   0  0  0  0  0  0  0  0  0  0  0  0
    2.2140   18.9560   41.9270 C   0  0  0  0  0  0  0  0  0  0  0  0
   -1.2310   20.7301   44.2123 H   0  0  0  0  0  0  0  0  0  0  0  0
    3.9530   15.1122   41.3567 H   0  0  0  0  0  0  0  0  0  0  0  0
    2.1613   14.9522   40.7429 H   0  0  0  0  0  0  0  0  0  0  0  0
    1.5025   16.8308   44.0800 H   0  0  0  0  0  0  0  0  0  0  0  0
    0.0840   16.4169   42.8850 H   0  0  0  0  0  0  0  0  0  0  0  0
    1.0491   15.0188   40.7444 H   0  0  0  0  0  0  0  0  0  0  0  0
    1.4703   18.6472   43.3301 H   0  0  0  0  0  0  0  0  0  0  0  0
    4.6498   15.3464   39.3114 H   0  0  0  0  0  0  0  0  0  0  0  0
    3.2082   14.2135   39.1039 H   0  0  0  0  0  0  0  0  0  0  0  0
    3.2324   20.8461   41.6002 H   0  0  0  0  0  0  0  0  0  0  0  0
    0.1703   19.0464   41.3958 H   0  0  0  0  0  0  0  0  0  0  0  0
    0.5904   20.7468   41.6521 H   0  0  0  0  0  0  0  0  0  0  0  0
    1.1591   21.5216   40.1345 H   0  0  0  0  0  0  0  0  0  0  0  0
    0.6811   19.7901   40.1345 H   0  0  0  0  0  0  0  0  0  0  0  0
   -1.1464   18.6592   43.1085 H   0  0  0  0  0  0  0  0  0  0  0  0
    0.0675   18.9475   46.0999 H   0  0  0  0  0  0  0  0  0  0  0  0
   -1.7042   19.0846   45.7588 H   0  0  0  0  0  0  0  0  0  0  0  0
    3.8896   21.7374   40.5780 H   0  0  0  0  0  0  0  0  0  0  0  0
    1.0533   15.5943   38.2839 H   0  0  0  0  0  0  0  0  0  0  0  0
    1.1304   21.2910   43.7538 H   0  0  0  0  0  0  0  0  0  0  0  0
   -1.9149   17.5341   46.0318 H   0  0  0  0  0  0  0  0  0  0  0  0
   -1.1866   16.2230   44.2904 H   0  0  0  0  0  0  0  0  0  0  0  0
    0.3479   16.2344   45.3671 H   0  0  0  0  0  0  0  0  0  0  0  0
    2.8965   15.6596   37.3152 H   0  0  0  0  0  0  0  0  0  0  0  0
    3.4952   17.0647   38.0805 H   0  0  0  0  0  0  0  0  0  0  0  0
    2.6613   18.1437   39.3206 H   0  0  0  0  0  0  0  0  0  0  0  0
    1.0831   18.5010   38.9209 H   0  0  0  0  0  0  0  0  0  0  0  0
    2.9268   18.1663   41.6474 H   0  0  0  0  0  0  0  0  0  0  0  0
    2.2980   19.3095   42.9653 H   0  0  0  0  0  0  0  0  0  0  0  0
  2 14  1  0
  3 22  1  0
  4 20  1  0
  4 18  1  0
  5  8  1  0
  5  3  1  0
  5 11  1  0
  6  2  1  0
  7  9  1  0
  7 25  1  0
  8 25  1  0
 10  7  1  0
 11  1  1  0
 11 13  1  0
 13 21  1  0
 15 12  3  0
 16 10  1  0
 17 23  1  0
 17 24  1  0
 17  4  1  0
 18 14  1  0
 18  8  1  0
 19  1  1  0
 21 15  1  0
 22 21  1  0
 23  6  1  0
 24 18  1  0
  1 26  1  0
  2 27  1  0
  2 28  1  0
  3 29  1  0
  3 30  1  0
  4 31  1  0
  5 32  1  0
  6 33  1  0
  6 34  1  0
  7 35  1  0
  8 36  1  0
  9 37  1  0
  9 38  1  0
  9 39  1  0
 11 40  1  0
 13 41  1  0
 13 42  1  0
 16 43  1  0
 17 44  1  0
 19 45  1  0
 21 46  1  0
 22 47  1  0
 22 48  1  0
 23 49  1  0
 23 50  1  0
 24 51  1  0
 24 52  1  0
 25 53  1  0
 25 54  1  0
M  CHG  1  22   1
M  END
>  <mol_id>  (40) 
2026-09-18-6fnk-s0-n100-refligand-0041

>  <rmsd_to_ref>  (40) 


$$$$

     RDKit          3D

 46 50  0  0  0  0  0  0  0  0999 V2000
    1.6480   20.9670   41.0070 C   0  0  0  0  0  0  0  0  0  0  0  0
    2.7290   20.4340   40.3570 C   0  0  0  0  0  0  0  0  0  0  0  0
    0.3230   14.2650   44.3820 C   0  0  0  0  0  0  0  0  0  0  0  0
    2.7610   18.4300   41.7720 C   0  0  0  0  0  0  0  0  0  0  0  0
   -0.5200   14.1920   45.6470 C   0  0  0  0  0  0  0  0  0  0  0  0
    0.1300   20.6800   43.2130 C   0  0  0  0  0  0  0  0  0  0  0  0
   -0.4010   20.1810   44.3720 C   0  0  0  0  0  0  0  0  0  0  0  0
    0.5090   16.0880   44.1660 C   0  0  0  0  0  0  0  0  0  0  0  0
   -0.5260   19.0360   44.9840 C   0  0  0  0  0  0  0  0  0  0  0  0
    1.0920   20.2000   42.0870 C   0  0  0  0  0  0  0  0  0  0  0  0
   -0.1720   21.7880   43.0920 O   0  0  0  0  0  0  0  0  0  0  0  0
    3.3930   19.2830   40.9490 C   0  0  0  0  0  0  0  0  0  0  0  0
    0.0790   17.9180   44.2940 C   0  0  0  0  0  0  0  0  0  0  0  0
    1.0170   15.6710   43.8140 C   0  0  0  0  0  0  0  0  0  0  0  0
    2.4210   21.0670   38.1590 O   0  0  0  0  0  1  0  0  0  0  0  0
   -1.1860   15.5090   46.0040 C   0  0  0  0  0  0  0  0  0  0  0  0
    4.4720   21.1780   38.9410 O   0  0  0  0  0  0  0  0  0  0  0  0
   -0.6160   16.6080   45.2620 C   0  0  0  0  0  0  0  0  0  0  0  0
    1.5370   18.9220   42.4010 C   0  0  0  0  0  0  0  0  0  0  0  0
    2.4480   14.1890   43.6050 C   0  0  0  0  0  0  0  0  0  0  0  0
    3.2630   20.9750   38.9950 N   0  0  0  0  0  4  0  0  0  0  0  0
    1.9670   15.5160   42.9050 C   0  0  0  0  0  0  0  0  0  0  0  0
    0.7980   18.0620   43.2490 N   0  0  0  0  0  0  0  0  0  0  0  0
    1.2010   13.2870   43.9270 C   0  0  0  0  0  0  0  0  0  0  0  0
    1.2242   21.9392   40.7152 H   0  0  0  0  0  0  0  0  0  0  0  0
   -0.7053   14.0734   44.0414 H   0  0  0  0  0  0  0  0  0  0  0  0
    3.1438   17.4165   41.9622 H   0  0  0  0  0  0  0  0  0  0  0  0
   -1.3031   13.4334   45.5010 H   0  0  0  0  0  0  0  0  0  0  0  0
    0.1576   13.9356   46.4747 H   0  0  0  0  0  0  0  0  0  0  0  0
    0.1172   20.7842   45.1320 H   0  0  0  0  0  0  0  0  0  0  0  0
   -1.4176   20.1344   43.9543 H   0  0  0  0  0  0  0  0  0  0  0  0
    1.3020   16.2218   44.9165 H   0  0  0  0  0  0  0  0  0  0  0  0
   -0.0565   19.1230   45.9749 H   0  0  0  0  0  0  0  0  0  0  0  0
   -1.6043   18.8251   45.0360 H   0  0  0  0  0  0  0  0  0  0  0  0
    4.4526   19.1044   40.7138 H   0  0  0  0  0  0  0  0  0  0  0  0
    1.7547   16.4493   43.5691 H   0  0  0  0  0  0  0  0  0  0  0  0
   -2.2594   15.4407   45.7737 H   0  0  0  0  0  0  0  0  0  0  0  0
   -1.0268   15.6969   47.0761 H   0  0  0  0  0  0  0  0  0  0  0  0
    0.1770   16.7418   46.0125 H   0  0  0  0  0  0  0  0  0  0  0  0
    2.9731   14.4365   44.5394 H   0  0  0  0  0  0  0  0  0  0  0  0
    3.1307   13.6464   42.9345 H   0  0  0  0  0  0  0  0  0  0  0  0
    2.7195   16.3184   42.9047 H   0  0  0  0  0  0  0  0  0  0  0  0
    1.7099   15.5120   41.8355 H   0  0  0  0  0  0  0  0  0  0  0  0
    0.8764   17.1234   42.8321 H   0  0  0  0  0  0  0  0  0  0  0  0
    1.4235   12.5413   44.7044 H   0  0  0  0  0  0  0  0  0  0  0  0
    0.8321   12.6802   43.0869 H   0  0  0  0  0  0  0  0  0  0  0  0
  1 10  2  0
  2 12  2  0
  2  1  1  0
  3 24  1  0
  3  5  1  0
  4 19  2  0
  5 16  1  0
  6  7  1  0
  7  9  1  0
  8 13  1  0
  8 18  1  0
 10 19  1  0
 10  6  1  0
 11  6  2  0
 12  4  1  0
 13  9  1  0
 13 18  1  0
 14  8  1  0
 14  3  1  0
 15 21  1  0
 17 21  2  0
 18 16  1  0
 19 23  1  0
 20 24  1  0
 21  2  1  0
 22 20  1  0
 22 14  1  0
 23 13  1  0
  1 25  1  0
  3 26  1  0
  4 27  1  0
  5 28  1  0
  5 29  1  0
  7 30  1  0
  7 31  1  0
  8 32  1  0
  9 33  1  0
  9 34  1  0
 12 35  1  0
 14 36  1  0
 16 37  1  0
 16 38  1  0
 18 39  1  0
 20 40  1  0
 20 41  1  0
 22 42  1  0
 22 43  1  0
 23 44  1  0
 24 45  1  0
 24 46  1  0
M  CHG  2  15  -1  21   1
M  END
>  <mol_id>  (41) 
2026-09-18-6fnk-s0-n100-refligand-0042

>  <rmsd_to_ref>  (41) 


$$$$

     RDKit          3D

 65 69  0  0  0  0  0  0  0  0999 V2000
    3.6870   19.9020   37.9500 C   0  0  0  0  0  0  0  0  0  0  0  0
   -1.5390   15.6190   46.6720 C   0  0  0  0  0  0  0  0  0  0  0  0
   -0.3020   16.7150   45.2280 C   0  0  0  0  0  0  0  0  0  0  0  0
    0.2960   17.3620   44.2930 O   0  0  0  0  0  0  0  0  0  0  0  0
    2.9990   21.4470   39.9520 C   0  0  0  0  0  0  0  0  0  0  0  0
    2.3020   17.1680   41.8330 O   0  0  0  0  0  0  0  0  0  0  0  0
    2.3400   20.3600   39.7510 C   0  0  0  0  0  0  0  0  0  0  0  0
   -0.1680   20.5790   44.8220 N   0  0  0  0  0  4  0  0  0  0  0  0
    2.6810   15.7450   38.4530 C   0  0  0  0  0  0  0  0  0  0  0  0
    1.4100   20.4410   42.7900 C   0  0  0  0  0  0  0  0  0  0  0  0
    1.4770   19.9040   40.5530 O   0  0  0  0  0  0  0  0  0  0  0  0
    4.1640   21.1230   37.9730 C   0  0  0  0  0  0  0  0  0  0  0  0
    2.7240   19.4050   38.7800 C   0  0  0  0  0  0  0  0  0  0  0  0
    2.2240   18.0370   39.0770 C   0  0  0  0  0  0  0  0  0  0  0  0
   -1.5970   16.9160   47.0840 N   0  0  0  0  0  0  0  0  0  0  0  0
   -2.3100   14.6000   47.3010 C   0  0  0  0  0  0  0  0  0  0  0  0
    0.9730   14.7350   43.9770 C   0  0  0  0  0  0  0  0  0  0  0  0
    3.1220   14.9830   40.6830 C   0  0  0  0  0  0  0  0  0  0  0  0
   -0.5030   14.1800   44.9350 C   0  0  0  0  0  0  0  0  0  0  0  0
   -1.2530   13.0780   45.4300 C   0  0  0  0  0  0  0  0  0  0  0  0
   -2.1070   13.3030   46.5800 C   0  0  0  0  0  0  0  0  0  0  0  0
   -3.1650   14.9080   48.5160 C   0  0  0  0  0  0  0  0  0  0  0  0
    2.2370   15.8080   39.7820 C   0  0  0  0  0  0  0  0  0  0  0  0
    2.3940   17.2820   40.4760 C   0  0  0  0  0  0  0  0  0  0  0  0
   -1.0230   18.9090   45.8960 C   0  0  0  0  0  0  0  0  0  0  0  0
    1.5460   14.4550   40.4190 C   0  0  0  0  0  0  0  0  0  0  0  0
    3.1190   17.3030   38.3040 O   0  0  0  0  0  0  0  0  0  0  0  0
    0.1230   19.6190   45.6750 C   0  0  0  0  0  0  0  0  0  0  0  0
   -0.8940   17.5120   46.0830 N   0  0  0  0  0  0  0  0  0  0  0  0
    3.9460   21.8270   39.1220 C   0  0  0  0  0  0  0  0  0  0  0  0
    1.7170   19.5060   41.9030 C   0  0  0  0  0  0  0  0  0  0  0  0
   -0.7120   15.4510   45.5270 C   0  0  0  0  0  0  0  0  0  0  0  0
    1.7510   14.7740   43.5880 N   0  0  0  0  0  0  0  0  0  0  0  0
   -0.0420   20.4720   43.3900 C   0  0  0  0  0  0  0  0  0  0  0  0
    4.0996   19.2171   37.1946 H   0  0  0  0  0  0  0  0  0  0  0  0
    2.7670   22.0671   40.8304 H   0  0  0  0  0  0  0  0  0  0  0  0
    2.8626   17.8626   42.2613 H   0  0  0  0  0  0  0  0  0  0  0  0
   -1.1564   20.8115   44.9952 H   0  0  0  0  0  0  0  0  0  0  0  0
    0.5870   21.2487   45.0277 H   0  0  0  0  0  0  0  0  0  0  0  0
    3.5301   15.0571   38.3270 H   0  0  0  0  0  0  0  0  0  0  0  0
    1.9585   15.3681   37.7141 H   0  0  0  0  0  0  0  0  0  0  0  0
    1.5797   21.4138   42.3053 H   0  0  0  0  0  0  0  0  0  0  0  0
    2.0485   20.2057   43.6543 H   0  0  0  0  0  0  0  0  0  0  0  0
    4.7067   21.5538   37.1186 H   0  0  0  0  0  0  0  0  0  0  0  0
    1.1335   18.1166   38.9566 H   0  0  0  0  0  0  0  0  0  0  0  0
   -2.0448   17.3277   47.9152 H   0  0  0  0  0  0  0  0  0  0  0  0
    3.9641   14.4208   40.2531 H   0  0  0  0  0  0  0  0  0  0  0  0
    3.7169   15.2013   41.5821 H   0  0  0  0  0  0  0  0  0  0  0  0
   -1.1875   12.0875   44.9561 H   0  0  0  0  0  0  0  0  0  0  0  0
   -2.6619   12.4332   46.9615 H   0  0  0  0  0  0  0  0  0  0  0  0
   -2.5903   14.7010   49.4308 H   0  0  0  0  0  0  0  0  0  0  0  0
   -3.4579   15.9682   48.4990 H   0  0  0  0  0  0  0  0  0  0  0  0
   -4.0667   14.2782   48.4990 H   0  0  0  0  0  0  0  0  0  0  0  0
    2.8476   18.1430   40.9888 H   0  0  0  0  0  0  0  0  0  0  0  0
   -1.6822   19.0672   45.0297 H   0  0  0  0  0  0  0  0  0  0  0  0
   -1.4104   19.2880   46.8532 H   0  0  0  0  0  0  0  0  0  0  0  0
    0.7849   14.5267   41.2099 H   0  0  0  0  0  0  0  0  0  0  0  0
    1.0445   13.5484   40.0495 H   0  0  0  0  0  0  0  0  0  0  0  0
    0.8970   18.9618   45.2520 H   0  0  0  0  0  0  0  0  0  0  0  0
    0.5081   20.0386   46.6161 H   0  0  0  0  0  0  0  0  0  0  0  0
    4.5605   22.7096   39.3531 H   0  0  0  0  0  0  0  0  0  0  0  0
    1.1125   18.6119   42.1156 H   0  0  0  0  0  0  0  0  0  0  0  0
    2.7955   19.3110   41.9970 H   0  0  0  0  0  0  0  0  0  0  0  0
   -0.5628   21.3342   42.9480 H   0  0  0  0  0  0  0  0  0  0  0  0
   -0.4681   19.4882   43.1438 H   0  0  0  0  0  0  0  0  0  0  0  0
  1 12  2  0
  1 13  1  0
  2 15  1  0
  2 16  2  0
  3 32  1  0
  3 29  1  0
  4  3  2  0
  7  5  1  0
  7 11  1  0
  8 28  1  0
  9 23  1  0
 10 34  1  0
 11 31  1  0
 12 30  1  0
 13  7  2  0
 14 13  1  0
 14 24  1  0
 16 22  1  0
 17 19  1  0
 19 20  1  0
 19 32  2  0
 20 21  2  0
 21 16  1  0
 23 26  1  0
 23 24  1  0
 23 18  1  0
 24  6  1  0
 25 29  1  0
 26 18  1  0
 27  9  1  0
 27 14  1  0
 28 25  1  0
 29 15  1  0
 30  5  2  0
 31 10  1  0
 32  2  1  0
 33 17  3  0
 34  8  1  0
  1 35  1  0
  5 36  1  0
  6 37  1  0
  8 38  1  0
  8 39  1  0
  9 40  1  0
  9 41  1  0
 10 42  1  0
 10 43  1  0
 12 44  1  0
 14 45  1  0
 15 46  1  0
 18 47  1  0
 18 48  1  0
 20 49  1  0
 21 50  1  0
 22 51  1  0
 22 52  1  0
 22 53  1  0
 24 54  1  0
 25 55  1  0
 25 56  1  0
 26 57  1  0
 26 58  1  0
 28 59  1  0
 28 60  1  0
 30 61  1  0
 31 62  1  0
 31 63  1  0
 34 64  1  0
 34 65  1  0
M  CHG  1   8   1
M  END
>  <mol_id>  (42) 
2026-09-18-6fnk-s0-n100-refligand-0043

>  <rmsd_to_ref>  (42) 


$$$$

     RDKit          3D

 25 25  0  0  0  0  0  0  0  0999 V2000
    1.9760   19.3810   40.7640 C   0  0  0  0  0  0  0  0  0  0  0  0
   -0.4170   20.0610   44.1590 C   0  0  0  0  0  0  0  0  0  0  0  0
    2.9600   19.6590   41.7110 C   0  0  0  0  0  0  0  0  0  0  0  0
   -0.1950   19.0220   45.0720 O   0  0  0  0  0  0  0  0  0  0  0  0
    2.2810   18.5050   42.0090 C   0  0  0  0  0  0  0  0  0  0  0  0
    1.3260   18.5950   43.0890 C   0  0  0  0  0  0  0  0  0  0  0  0
   -0.5090   17.7040   44.4820 C   0  0  0  0  0  0  0  0  0  0  0  0
    0.4270   17.4340   43.2890 C   0  0  0  0  0  0  0  0  0  0  0  0
    2.8140   17.1080   41.5540 C   0  0  0  0  0  0  0  0  0  0  0  0
    1.0582   19.9851   40.7120 H   0  0  0  0  0  0  0  0  0  0  0  0
    1.9242   19.2409   39.6742 H   0  0  0  0  0  0  0  0  0  0  0  0
   -0.6163   20.9940   44.7066 H   0  0  0  0  0  0  0  0  0  0  0  0
    0.4738   20.1901   43.5267 H   0  0  0  0  0  0  0  0  0  0  0  0
   -1.2828   19.8148   43.5267 H   0  0  0  0  0  0  0  0  0  0  0  0
    4.0153   19.5850   41.4096 H   0  0  0  0  0  0  0  0  0  0  0  0
    3.1566   20.5605   42.3099 H   0  0  0  0  0  0  0  0  0  0  0  0
    1.8915   18.7415   44.0210 H   0  0  0  0  0  0  0  0  0  0  0  0
    0.6615   19.4277   42.8149 H   0  0  0  0  0  0  0  0  0  0  0  0
   -0.3690   16.9206   45.2414 H   0  0  0  0  0  0  0  0  0  0  0  0
   -1.5528   17.6992   44.1349 H   0  0  0  0  0  0  0  0  0  0  0  0
   -0.1736   17.2755   42.3812 H   0  0  0  0  0  0  0  0  0  0  0  0
    1.0295   16.5367   43.4935 H   0  0  0  0  0  0  0  0  0  0  0  0
    3.0467   16.4982   42.4394 H   0  0  0  0  0  0  0  0  0  0  0  0
    2.0461   16.6011   40.9512 H   0  0  0  0  0  0  0  0  0  0  0  0
    3.7244   17.2415   40.9512 H   0  0  0  0  0  0  0  0  0  0  0  0
  1  3  1  0
  1  5  1  0
  2  4  1  0
  3  5  1  0
  5  6  1  0
  6  8  1  0
  7  4  1  0
  8  7  1  0
  9  5  1  0
  1 10  1  0
  1 11  1  0
  2 12  1  0
  2 13  1  0
  2 14  1  0
  3 15  1  0
  3 16  1  0
  6 17  1  0
  6 18  1  0
  7 19  1  0
  7 20  1  0
  8 21  1  0
  8 22  1  0
  9 23  1  0
  9 24  1  0
  9 25  1  0
M  END
>  <mol_id>  (43) 
2026-09-18-6fnk-s0-n100-refligand-0044

>  <rmsd_to_ref>  (43) 


$$$$

     RDKit          3D

 57 59  0  0  0  0  0  0  0  0999 V2000
    1.6540   20.1810   42.3610 O   0  0  0  0  0  0  0  0  0  0  0  0
    6.1280   22.6040   38.5230 C   0  0  0  0  0  0  0  0  0  0  0  0
    2.2220   15.5430   41.6970 C   0  0  0  0  0  0  0  0  0  0  0  0
    1.9170   18.8340   40.0150 C   0  0  0  0  0  0  0  0  0  0  0  0
   -0.1550   19.9810   44.4660 C   0  0  0  0  0  0  0  0  0  0  0  0
    5.4420   22.2850   40.5080 C   0  0  0  0  0  0  0  0  0  0  0  0
   -0.4900   16.9380   45.2550 C   0  0  0  0  0  0  0  0  0  0  0  0
   -0.5410   19.8900   45.6550 N   0  0  0  0  0  4  0  0  0  0  0  0
   -1.0030   17.6920   46.2730 C   0  0  0  0  0  0  0  0  0  0  0  0
    4.3630   20.9400   38.8090 O   0  0  0  0  0  0  0  0  0  0  0  0
   -0.1080   21.1430   43.7020 N   0  0  0  0  0  4  0  0  0  0  0  0
    6.9130   23.7570   39.4250 S   0  0  0  0  0  0  0  0  0  0  0  0
    2.8680   16.7200   40.9370 C   0  0  0  0  0  0  0  0  0  0  0  0
   -0.7430   15.2190   45.1980 S   0  0  0  0  0  0  0  0  0  0  0  0
    0.9580   14.1620   43.4220 C   0  0  0  0  0  0  0  0  0  0  0  0
    1.9690   17.7950   40.9430 C   0  0  0  0  0  0  0  0  0  0  0  0
    6.1900   23.2540   40.7870 C   0  0  0  0  0  0  0  0  0  0  0  0
    0.7510   16.2720   43.7080 C   0  0  0  0  0  0  0  0  0  0  0  0
   -0.8750   19.0080   46.5610 C   0  0  0  0  0  0  0  0  0  0  0  0
    0.3240   15.1130   43.8820 C   0  0  0  0  0  0  0  0  0  0  0  0
   -1.7720   16.9510   47.2980 O   0  0  0  0  0  0  0  0  0  0  0  0
    0.2120   18.6870   43.9200 C   0  0  0  0  0  0  0  0  0  0  0  0
    2.7820   20.0840   40.3940 C   0  0  0  0  0  0  0  0  0  0  0  0
    3.8380   19.8090   42.4800 O   0  0  0  0  0  1  0  0  0  0  0  0
    0.7740   17.1200   40.6540 O   0  0  0  0  0  0  0  0  0  0  0  0
    0.2160   17.2980   44.2940 C   0  0  0  0  0  0  0  0  0  0  0  0
    5.3690   21.8910   39.2490 N   0  0  0  0  0  0  0  0  0  0  0  0
    2.9930   20.1160   41.7940 C   0  0  0  0  0  0  0  0  0  0  0  0
    3.9940   20.7550   39.6250 N   0  0  0  0  0  0  0  0  0  0  0  0
    1.8180   16.1990   42.9450 N   0  0  0  0  0  4  0  0  0  0  0  0
    6.8747   21.9564   38.0404 H   0  0  0  0  0  0  0  0  0  0  0  0
    5.5103   23.1132   37.7685 H   0  0  0  0  0  0  0  0  0  0  0  0
    2.9463   14.7360   41.8817 H   0  0  0  0  0  0  0  0  0  0  0  0
    1.3984   15.0535   41.1565 H   0  0  0  0  0  0  0  0  0  0  0  0
    2.2731   18.4496   39.0478 H   0  0  0  0  0  0  0  0  0  0  0  0
    0.8713   19.1739   39.9825 H   0  0  0  0  0  0  0  0  0  0  0  0
    4.8619   21.7767   41.2922 H   0  0  0  0  0  0  0  0  0  0  0  0
    0.2112   20.3963   46.1436 H   0  0  0  0  0  0  0  0  0  0  0  0
   -1.5241   20.0285   45.3806 H   0  0  0  0  0  0  0  0  0  0  0  0
   -0.0749   21.9625   44.3251 H   0  0  0  0  0  0  0  0  0  0  0  0
    0.7331   21.1294   43.1077 H   0  0  0  0  0  0  0  0  0  0  0  0
   -0.9475   21.1973   43.1077 H   0  0  0  0  0  0  0  0  0  0  0  0
    3.0824   16.4204   39.9005 H   0  0  0  0  0  0  0  0  0  0  0  0
    3.8109   17.0122   41.4223 H   0  0  0  0  0  0  0  0  0  0  0  0
    0.5924   13.1349   43.5684 H   0  0  0  0  0  0  0  0  0  0  0  0
    1.8897   14.3400   42.8649 H   0  0  0  0  0  0  0  0  0  0  0  0
    2.2311   18.3270   41.8694 H   0  0  0  0  0  0  0  0  0  0  0  0
    6.3313   23.6889   41.7874 H   0  0  0  0  0  0  0  0  0  0  0  0
    0.1182   16.3709   42.8137 H   0  0  0  0  0  0  0  0  0  0  0  0
   -1.0579   19.3471   47.5913 H   0  0  0  0  0  0  0  0  0  0  0  0
   -2.1715   17.4355   48.0633 H   0  0  0  0  0  0  0  0  0  0  0  0
    0.6121   18.8057   42.9022 H   0  0  0  0  0  0  0  0  0  0  0  0
    2.0817   20.7650   39.8882 H   0  0  0  0  0  0  0  0  0  0  0  0
    0.3254   16.8666   41.4994 H   0  0  0  0  0  0  0  0  0  0  0  0
    4.7787   20.2500   40.0611 H   0  0  0  0  0  0  0  0  0  0  0  0
    2.5299   15.8567   43.6060 H   0  0  0  0  0  0  0  0  0  0  0  0
    1.6260   17.0993   42.4829 H   0  0  0  0  0  0  0  0  0  0  0  0
  2 27  1  0
  2 12  1  0
  3 30  1  0
  4 16  1  0
  5  8  1  0
  6 17  2  0
  7  9  1  0
  8 19  1  0
  9 19  2  0
  9 21  1  0
 10 27  1  0
 10 29  1  0
 11  5  1  0
 12 17  1  0
 13 16  1  0
 13  3  1  0
 14  7  1  0
 15 20  2  3
 16 25  1  0
 18 30  1  0
 18 20  1  0
 18 26  1  0
 20 14  1  0
 22 26  1  0
 22  5  2  0
 23  4  1  0
 23 28  1  0
 26  7  2  0
 27  6  1  0
 28  1  2  0
 28 24  1  0
 29 23  1  0
  2 31  1  0
  2 32  1  0
  3 33  1  0
  3 34  1  0
  4 35  1  0
  4 36  1  0
  6 37  1  0
  8 38  1  0
  8 39  1  0
 11 40  1  0
 11 41  1  0
 11 42  1  0
 13 43  1  0
 13 44  1  0
 15 45  1  0
 15 46  1  0
 16 47  1  0
 17 48  1  0
 18 49  1  0
 19 50  1  0
 21 51  1  0
 22 52  1  0
 23 53  1  0
 25 54  1  0
 29 55  1  0
 30 56  1  0
 30 57  1  0
M  CHG  4   8   1  11   1  24  -1  30   1
M  END
>  <mol_id>  (44) 
2026-09-18-6fnk-s0-n100-refligand-0045

>  <rmsd_to_ref>  (44) 


$$$$

     RDKit          3D

 12 12  0  0  0  0  0  0  0  0999 V2000
    1.6170   18.5940   42.6430 C   0  0  0  0  0  0  0  0  0  0  0  0
    1.5500   19.4860   41.9820 N   0  0  0  0  0  0  0  0  0  0  0  0
   -0.8220   19.5880   45.2940 O   0  0  0  0  0  0  0  0  0  0  0  0
    0.8530   20.6480   42.2180 C   0  0  0  0  0  0  0  0  0  0  0  0
    0.7640   18.4690   44.0290 C   0  0  0  0  0  0  0  0  0  0  0  0
    0.0100   20.6690   43.3540 C   0  0  0  0  0  0  0  0  0  0  0  0
   -0.0260   19.5730   44.2100 C   0  0  0  0  0  0  0  0  0  0  0  0
    2.2815   17.7669   42.3525 H   0  0  0  0  0  0  0  0  0  0  0  0
   -1.4103   20.3656   45.4654 H   0  0  0  0  0  0  0  0  0  0  0  0
    0.9466   21.5203   41.5544 H   0  0  0  0  0  0  0  0  0  0  0  0
    0.8164   17.6161   44.7217 H   0  0  0  0  0  0  0  0  0  0  0  0
   -0.6156   21.5500   43.5599 H   0  0  0  0  0  0  0  0  0  0  0  0
  1  5  2  0
  2  4  2  0
  2  1  1  0
  4  6  1  0
  5  7  1  0
  6  7  2  0
  7  3  1  0
  1  8  1  0
  3  9  1  0
  4 10  1  0
  5 11  1  0
  6 12  1  0
M  END
>  <mol_id>  (45) 
2026-09-18-6fnk-s0-n100-refligand-0046

>  <rmsd_to_ref>  (45) 


$$$$

     RDKit          3D

 21 21  0  0  0  0  0  0  0  0999 V2000
    0.6360   17.9770   44.8970 C   0  0  0  0  0  0  0  0  0  0  0  0
    1.7300   19.2240   41.2280 N   0  0  0  0  0  0  0  0  0  0  0  0
    1.3260   17.3410   42.7910 C   0  0  0  0  0  0  0  0  0  0  0  0
    1.1690   18.7670   42.3750 C   0  0  0  0  0  0  0  0  0  0  0  0
    2.9780   16.2150   41.1470 C   0  0  0  0  0  0  0  0  0  0  0  0
    1.0490   16.9420   44.0690 C   0  0  0  0  0  0  0  0  0  0  0  0
    1.6830   16.4580   41.8060 O   0  0  0  0  0  0  0  0  0  0  0  0
   -0.0480   20.9900   43.1240 C   0  0  0  0  0  0  0  0  0  0  0  0
    0.2470   19.1510   44.6240 C   0  0  0  0  0  0  0  0  0  0  0  0
    0.4810   19.6030   43.3610 C   0  0  0  0  0  0  0  0  0  0  0  0
    0.6488   17.7372   45.9705 H   0  0  0  0  0  0  0  0  0  0  0  0
    1.6128   20.2101   40.9547 H   0  0  0  0  0  0  0  0  0  0  0  0
    2.2733   18.5850   40.6302 H   0  0  0  0  0  0  0  0  0  0  0  0
    3.7563   16.0690   41.9105 H   0  0  0  0  0  0  0  0  0  0  0  0
    2.9067   15.3146   40.5192 H   0  0  0  0  0  0  0  0  0  0  0  0
    3.2380   17.0800   40.5192 H   0  0  0  0  0  0  0  0  0  0  0  0
    1.1443   15.9002   44.4088 H   0  0  0  0  0  0  0  0  0  0  0  0
   -0.2353   21.4811   44.0903 H   0  0  0  0  0  0  0  0  0  0  0  0
    0.6913   21.5720   42.5541 H   0  0  0  0  0  0  0  0  0  0  0  0
   -0.9871   20.9319   42.5541 H   0  0  0  0  0  0  0  0  0  0  0  0
   -0.2576   19.7778   45.3740 H   0  0  0  0  0  0  0  0  0  0  0  0
  2  4  1  0
  3  6  1  0
  4  3  2  0
  4 10  1  0
  5  7  1  0
  6  1  2  0
  7  3  1  0
  8 10  1  0
  9  1  1  0
 10  9  2  0
  1 11  1  0
  2 12  1  0
  2 13  1  0
  5 14  1  0
  5 15  1  0
  5 16  1  0
  6 17  1  0
  8 18  1  0
  8 19  1  0
  8 20  1  0
  9 21  1  0
M  END
>  <mol_id>  (46) 
2026-09-18-6fnk-s0-n100-refligand-0047

>  <rmsd_to_ref>  (46) 


$$$$

     RDKit          3D

 22 23  0  0  0  0  0  0  0  0999 V2000
    0.1750   20.5000   43.1740 C   0  0  0  0  0  0  0  0  0  0  0  0
    1.4440   19.3950   42.9520 C   0  0  0  0  0  0  0  0  0  0  0  0
    1.2720   20.4260   42.3380 N   0  0  0  0  0  0  0  0  0  0  0  0
   -0.0140   16.9320   45.0410 C   0  0  0  0  0  0  0  0  0  0  0  0
    1.0390   17.2950   44.1320 C   0  0  0  0  0  0  0  0  0  0  0  0
   -0.9630   17.7900   45.3750 C   0  0  0  0  0  0  0  0  0  0  0  0
    1.0000   18.5200   43.5890 C   0  0  0  0  0  0  0  0  0  0  0  0
   -0.0420   19.4200   43.9610 C   0  0  0  0  0  0  0  0  0  0  0  0
   -1.0550   19.0180   44.7350 C   0  0  0  0  0  0  0  0  0  0  0  0
   -0.3500   21.7150   43.1060 N   0  0  0  0  0  0  0  0  0  0  0  0
    2.6090   18.6380   42.0430 C   0  0  0  0  0  0  0  0  0  0  0  0
   -0.2060   15.5740   45.7900 O   0  0  0  0  0  0  0  0  0  0  0  0
    1.1369   19.9971   43.8199 H   0  0  0  0  0  0  0  0  0  0  0  0
    1.7154   20.9676   41.5824 H   0  0  0  0  0  0  0  0  0  0  0  0
    1.8492   16.5914   43.8903 H   0  0  0  0  0  0  0  0  0  0  0  0
   -1.6834   17.5291   46.1643 H   0  0  0  0  0  0  0  0  0  0  0  0
   -1.9464   19.6498   44.8625 H   0  0  0  0  0  0  0  0  0  0  0  0
   -0.0103   22.3840   42.4004 H   0  0  0  0  0  0  0  0  0  0  0  0
    3.3424   18.1614   42.7101 H   0  0  0  0  0  0  0  0  0  0  0  0
    2.1389   17.8724   41.4083 H   0  0  0  0  0  0  0  0  0  0  0  0
    3.1176   19.3786   41.4083 H   0  0  0  0  0  0  0  0  0  0  0  0
    0.4313   14.8314   45.6398 H   0  0  0  0  0  0  0  0  0  0  0  0
  1  8  1  0
  2 11  1  0
  2  7  1  0
  3  2  1  0
  3  1  1  0
  4  6  1  0
  4 12  1  0
  5  4  2  0
  7  8  2  0
  7  5  1  0
  8  9  1  0
  9  6  2  0
 10  1  2  3
  2 13  1  0
  3 14  1  0
  5 15  1  0
  6 16  1  0
  9 17  1  0
 10 18  1  0
 11 19  1  0
 11 20  1  0
 11 21  1  0
 12 22  1  0
M  END
>  <mol_id>  (47) 
2026-09-18-6fnk-s0-n100-refligand-0048

>  <rmsd_to_ref>  (47) 


$$$$

     RDKit          3D

 39 41  0  0  0  0  0  0  0  0999 V2000
    2.0280   15.9670   42.2170 O   0  0  0  0  0  0  0  0  0  0  0  0
    0.9060   20.9580   42.4090 C   0  0  0  0  0  0  0  0  0  0  0  0
    1.9160   14.1900   43.7880 C   0  0  0  0  0  0  0  0  0  0  0  0
    1.0050   19.6380   42.7940 C   0  0  0  0  0  0  0  0  0  0  0  0
    1.8250   18.7320   42.1400 C   0  0  0  0  0  0  0  0  0  0  0  0
   -0.6260   18.8480   46.0720 O   0  0  0  0  0  1  0  0  0  0  0  0
    0.5920   14.1070   44.4890 C   0  0  0  0  0  0  0  0  0  0  0  0
    0.3210   18.8920   43.9420 C   0  0  0  0  0  0  0  0  0  0  0  0
    2.7620   19.1650   41.2340 C   0  0  0  0  0  0  0  0  0  0  0  0
    0.6970   17.4050   43.5550 C   0  0  0  0  0  0  0  0  0  0  0  0
    3.0520   13.9340   41.4990 C   0  0  0  0  0  0  0  0  0  0  0  0
    1.7710   21.4550   41.4620 C   0  0  0  0  0  0  0  0  0  0  0  0
    1.4130   17.3010   42.2890 C   0  0  0  0  0  0  0  0  0  0  0  0
    2.7710   20.5480   40.8560 C   0  0  0  0  0  0  0  0  0  0  0  0
   -0.3680   15.2860   44.2190 C   0  0  0  0  0  0  0  0  0  0  0  0
   -0.7840   18.8050   44.8450 C   0  0  0  0  0  0  0  0  0  0  0  0
    0.2090   16.4950   44.6120 N   0  0  0  0  0  4  0  0  0  0  0  0
   -1.9080   18.6230   44.1760 O   0  0  0  0  0  0  0  0  0  0  0  0
    1.9050   14.5450   42.2840 C   0  0  0  0  0  0  0  0  0  0  0  0
   -1.7660   14.9830   44.7890 C   0  0  0  0  0  0  0  0  0  0  0  0
    0.1405   21.6093   42.8560 H   0  0  0  0  0  0  0  0  0  0  0  0
    2.5143   14.9559   44.3031 H   0  0  0  0  0  0  0  0  0  0  0  0
    2.3215   13.1684   43.8323 H   0  0  0  0  0  0  0  0  0  0  0  0
    0.0934   13.1810   44.1666 H   0  0  0  0  0  0  0  0  0  0  0  0
    0.8138   14.1335   45.5661 H   0  0  0  0  0  0  0  0  0  0  0  0
    0.4739   19.7814   44.5710 H   0  0  0  0  0  0  0  0  0  0  0  0
    3.4927   18.4630   40.8059 H   0  0  0  0  0  0  0  0  0  0  0  0
    3.8023   13.5343   42.1971 H   0  0  0  0  0  0  0  0  0  0  0  0
    2.6701   13.1198   40.8656 H   0  0  0  0  0  0  0  0  0  0  0  0
    3.5146   14.7052   40.8656 H   0  0  0  0  0  0  0  0  0  0  0  0
    1.7201   22.5114   41.1595 H   0  0  0  0  0  0  0  0  0  0  0  0
    3.5060   20.9270   40.1306 H   0  0  0  0  0  0  0  0  0  0  0  0
   -0.5341   15.4092   43.1386 H   0  0  0  0  0  0  0  0  0  0  0  0
    1.0116   16.2694   45.2169 H   0  0  0  0  0  0  0  0  0  0  0  0
   -0.5586   17.0124   45.0636 H   0  0  0  0  0  0  0  0  0  0  0  0
    0.9805   14.1495   41.8381 H   0  0  0  0  0  0  0  0  0  0  0  0
   -1.7237   14.9922   45.8881 H   0  0  0  0  0  0  0  0  0  0  0  0
   -2.4767   15.7480   44.4430 H   0  0  0  0  0  0  0  0  0  0  0  0
   -2.0962   13.9924   44.4430 H   0  0  0  0  0  0  0  0  0  0  0  0
  1 19  1  0
  1 13  1  0
  2  4  2  0
  3  7  1  0
  4  8  1  0
  5 13  1  0
  5  4  1  0
  8 16  1  0
  9  5  2  0
 10  8  1  0
 10 17  1  0
 12  2  1  0
 13 10  2  0
 14  9  1  0
 14 12  2  0
 15  7  1  0
 15 17  1  0
 15 20  1  0
 16  6  1  0
 18 16  2  0
 19 11  1  0
 19  3  1  0
  2 21  1  0
  3 22  1  0
  3 23  1  0
  7 24  1  0
  7 25  1  0
  8 26  1  0
  9 27  1  0
 11 28  1  0
 11 29  1  0
 11 30  1  0
 12 31  1  0
 14 32  1  0
 15 33  1  0
 17 34  1  0
 17 35  1  0
 19 36  1  0
 20 37  1  0
 20 38  1  0
 20 39  1  0
M  CHG  2   6  -1  17   1
M  END
>  <mol_id>  (48) 
2026-09-18-6fnk-s0-n100-refligand-0049

>  <rmsd_to_ref>  (48) 


$$$$

     RDKit          3D

 21 22  0  0  0  0  0  0  0  0999 V2000
    1.0770   17.7700   43.3640 C   0  0  0  0  0  0  0  0  0  0  0  0
    0.1800   18.7200   43.9890 C   0  0  0  0  0  0  0  0  0  0  0  0
    0.8720   20.3970   42.4260 C   0  0  0  0  0  0  0  0  0  0  0  0
   -1.0430   19.5370   45.9480 O   0  0  0  0  0  0  0  0  0  0  0  0
    1.9470   19.5320   42.0850 C   0  0  0  0  0  0  0  0  0  0  0  0
    1.9070   18.1070   42.3260 C   0  0  0  0  0  0  0  0  0  0  0  0
    1.0260   16.3880   43.6660 C   0  0  0  0  0  0  0  0  0  0  0  0
    0.7910   21.5030   41.7480 O   0  0  0  0  0  0  0  0  0  0  0  0
    1.9730   16.1720   42.5160 C   0  0  0  0  0  0  0  0  0  0  0  0
    0.0550   20.0400   43.4960 C   0  0  0  0  0  0  0  0  0  0  0  0
   -0.1980   18.5220   45.4630 C   0  0  0  0  0  0  0  0  0  0  0  0
   -1.0353   19.5278   46.9379 H   0  0  0  0  0  0  0  0  0  0  0  0
    2.8451   19.9639   41.6192 H   0  0  0  0  0  0  0  0  0  0  0  0
    1.4320   16.1182   44.6521 H   0  0  0  0  0  0  0  0  0  0  0  0
    0.0718   15.8459   43.7406 H   0  0  0  0  0  0  0  0  0  0  0  0
    1.4170   21.6720   40.9999 H   0  0  0  0  0  0  0  0  0  0  0  0
    1.5604   15.6035   41.6695 H   0  0  0  0  0  0  0  0  0  0  0  0
    2.9134   15.6091   42.6096 H   0  0  0  0  0  0  0  0  0  0  0  0
   -0.6562   20.7532   43.9383 H   0  0  0  0  0  0  0  0  0  0  0  0
   -0.7129   17.5556   45.5675 H   0  0  0  0  0  0  0  0  0  0  0  0
    0.7309   18.5537   46.0513 H   0  0  0  0  0  0  0  0  0  0  0  0
  1  7  1  0
  1  2  2  0
  2 11  1  0
  3 10  2  0
  5  6  2  0
  5  3  1  0
  6  9  1  0
  6  1  1  0
  8  3  1  0
  9  7  1  0
 10  2  1  0
 11  4  1  0
  4 12  1  0
  5 13  1  0
  7 14  1  0
  7 15  1  0
  8 16  1  0
  9 17  1  0
  9 18  1  0
 10 19  1  0
 11 20  1  0
 11 21  1  0
M  END
>  <mol_id>  (49) 
2026-09-18-6fnk-s0-n100-refligand-0050

>  <rmsd_to_ref>  (49) 


$$$$

     RDKit          3D

 19 20  0  0  0  0  0  0  0  0999 V2000
   -0.2780   17.8120   43.8780 N   0  0  0  0  0  0  0  0  0  0  0  0
    1.4350   16.3700   43.1050 C   0  0  0  0  0  0  0  0  0  0  0  0
    0.3630   18.9130   43.2720 C   0  0  0  0  0  0  0  0  0  0  0  0
    1.9760   17.3880   42.4730 O   0  0  0  0  0  0  0  0  0  0  0  0
    0.0300   16.5740   43.1820 C   0  0  0  0  0  0  0  0  0  0  0  0
    0.4180   21.1790   42.7830 C   0  0  0  0  0  0  0  0  0  0  0  0
   -0.1940   20.1620   43.5510 C   0  0  0  0  0  0  0  0  0  0  0  0
    1.4830   20.8140   41.8630 C   0  0  0  0  0  0  0  0  0  0  0  0
    1.3580   18.6380   42.4620 C   0  0  0  0  0  0  0  0  0  0  0  0
    1.8590   19.5820   41.6830 C   0  0  0  0  0  0  0  0  0  0  0  0
   -0.8859   17.8772   44.7069 H   0  0  0  0  0  0  0  0  0  0  0  0
    1.8546   16.2990   44.1193 H   0  0  0  0  0  0  0  0  0  0  0  0
    1.6485   15.4369   42.5631 H   0  0  0  0  0  0  0  0  0  0  0  0
   -0.3832   16.6212   42.1636 H   0  0  0  0  0  0  0  0  0  0  0  0
   -0.4160   15.7374   43.7398 H   0  0  0  0  0  0  0  0  0  0  0  0
    0.0947   22.2260   42.8796 H   0  0  0  0  0  0  0  0  0  0  0  0
   -1.0044   20.3330   44.2749 H   0  0  0  0  0  0  0  0  0  0  0  0
    1.9899   21.6099   41.2978 H   0  0  0  0  0  0  0  0  0  0  0  0
    2.5830   19.3290   40.8945 H   0  0  0  0  0  0  0  0  0  0  0  0
  2  5  1  0
  3  7  1  0
  3  1  1  0
  4  2  1  0
  5  1  1  0
  6  7  2  0
  8  6  1  0
  9  4  1  0
  9  3  2  0
 10  8  2  0
 10  9  1  0
  1 11  1  0
  2 12  1  0
  2 13  1  0
  5 14  1  0
  5 15  1  0
  6 16  1  0
  7 17  1  0
  8 18  1  0
 10 19  1  0
M  END
>  <mol_id>  (50) 
2026-09-18-6fnk-s0-n100-refligand-0051

>  <rmsd_to_ref>  (50) 


$$$$

     RDKit          3D

 17 17  0  0  0  0  0  0  0  0999 V2000
   -0.6780   20.5170   44.6720 O   0  0  0  0  0  0  0  0  0  0  0  0
    1.1310   18.8320   44.9990 O   0  0  0  0  0  0  0  0  0  0  0  0
    0.4760   17.6860   43.2330 C   0  0  0  0  0  0  0  0  0  0  0  0
    0.3760   20.1630   42.5870 C   0  0  0  0  0  0  0  0  0  0  0  0
    0.7820   19.0300   44.3210 N   0  0  0  0  0  0  0  0  0  0  0  0
   -0.0390   20.0610   43.7680 C   0  0  0  0  0  0  0  0  0  0  0  0
    1.3450   16.5360   43.3550 N   0  0  0  0  0  4  0  0  0  0  0  0
    0.8590   18.9840   41.9490 C   0  0  0  0  0  0  0  0  0  0  0  0
    0.5785   19.1454   45.7584 H   0  0  0  0  0  0  0  0  0  0  0  0
   -0.4337   17.0678   43.2185 H   0  0  0  0  0  0  0  0  0  0  0  0
   -0.4559   20.5479   41.9789 H   0  0  0  0  0  0  0  0  0  0  0  0
    1.2554   20.8200   42.6579 H   0  0  0  0  0  0  0  0  0  0  0  0
    1.5019   16.3284   44.3516 H   0  0  0  0  0  0  0  0  0  0  0  0
    0.9050   15.7234   42.9001 H   0  0  0  0  0  0  0  0  0  0  0  0
    2.2469   16.7374   42.9001 H   0  0  0  0  0  0  0  0  0  0  0  0
    0.3246   18.7885   41.0076 H   0  0  0  0  0  0  0  0  0  0  0  0
    1.9194   19.0315   41.6605 H   0  0  0  0  0  0  0  0  0  0  0  0
  3  7  1  0
  3  5  1  0
  4  6  1  0
  5  2  1  0
  6  5  1  0
  6  1  2  0
  8  4  1  0
  8  3  1  0
  2  9  1  0
  3 10  1  0
  4 11  1  0
  4 12  1  0
  7 13  1  0
  7 14  1  0
  7 15  1  0
  8 16  1  0
  8 17  1  0
M  CHG  1   7   1
M  END
>  <mol_id>  (51) 
2026-09-18-6fnk-s0-n100-refligand-0052

>  <rmsd_to_ref>  (51) 


$$$$

     RDKit          3D

 36 39  0  0  0  0  0  0  0  0999 V2000
    2.0410   16.2930   42.3700 C   0  0  0  0  0  0  0  0  0  0  0  0
   -0.4980   18.8300   44.9540 C   0  0  0  0  0  0  0  0  0  0  0  0
    2.7410   19.3360   38.3220 C   0  0  0  0  0  0  0  0  0  0  0  0
    0.5920   14.3880   42.9940 S   0  0  0  0  0  0  0  0  0  0  0  0
    0.8690   16.0170   43.1600 C   0  0  0  0  0  0  0  0  0  0  0  0
    1.0310   19.1180   43.1040 C   0  0  0  0  0  0  0  0  0  0  0  0
    2.7650   21.1750   36.8880 F   0  0  0  0  0  0  0  0  0  0  0  0
    2.0220   14.0860   42.0350 C   0  0  0  0  0  0  0  0  0  0  0  0
    2.7560   21.0210   40.5210 C   0  0  0  0  0  0  0  0  0  0  0  0
    2.6100   19.6410   40.6400 C   0  0  0  0  0  0  0  0  0  0  0  0
   -0.9020   18.0370   45.9420 N   0  0  0  0  0  0  0  0  0  0  0  0
    0.1720   18.2070   43.9510 C   0  0  0  0  0  0  0  0  0  0  0  0
   -0.7280   20.1510   44.9370 N   0  0  0  0  0  0  0  0  0  0  0  0
    0.6390   20.2370   43.0290 N   0  0  0  0  0  0  0  0  0  0  0  0
    3.1380   19.4510   42.8350 O   0  0  0  0  0  0  0  0  0  0  0  0
    0.0700   16.8130   43.8780 N   0  0  0  0  0  0  0  0  0  0  0  0
    2.9240   21.4980   39.2380 C   0  0  0  0  0  0  0  0  0  0  0  0
    2.5120   17.4110   41.9070 N   0  0  0  0  0  0  0  0  0  0  0  0
    2.8420   20.6900   38.1310 C   0  0  0  0  0  0  0  0  0  0  0  0
    2.2530   18.8710   42.0460 C   0  0  0  0  0  0  0  0  0  0  0  0
    2.7150   18.8160   39.6340 C   0  0  0  0  0  0  0  0  0  0  0  0
    2.7690   15.0790   42.0430 N   0  0  0  0  0  0  0  0  0  0  0  0
   -0.1660   20.6850   43.9520 C   0  0  0  0  0  0  0  0  0  0  0  0
    2.6806   18.6586   37.4574 H   0  0  0  0  0  0  0  0  0  0  0  0
    1.6154   18.3890   43.6846 H   0  0  0  0  0  0  0  0  0  0  0  0
    1.7235   13.8659   40.9994 H   0  0  0  0  0  0  0  0  0  0  0  0
    2.5636   13.2299   42.4637 H   0  0  0  0  0  0  0  0  0  0  0  0
    2.7384   21.6883   41.3953 H   0  0  0  0  0  0  0  0  0  0  0  0
   -1.4175   18.4321   46.7414 H   0  0  0  0  0  0  0  0  0  0  0  0
   -0.6482   18.3051   43.2246 H   0  0  0  0  0  0  0  0  0  0  0  0
   -1.2891   20.6571   45.6369 H   0  0  0  0  0  0  0  0  0  0  0  0
    2.8926   19.2902   43.7805 H   0  0  0  0  0  0  0  0  0  0  0  0
    3.1320   22.5688   39.0958 H   0  0  0  0  0  0  0  0  0  0  0  0
    2.7822   17.7316   39.8061 H   0  0  0  0  0  0  0  0  0  0  0  0
    3.7788   15.0456   41.8427 H   0  0  0  0  0  0  0  0  0  0  0  0
   -0.4007   21.7542   43.8436 H   0  0  0  0  0  0  0  0  0  0  0  0
  1  5  1  0
  2 11  2  3
  3 21  2  0
  4  5  1  0
  5 16  2  0
  6 14  1  0
  6 12  1  0
  7 19  1  0
  8 22  1  0
  8  4  1  0
  9 10  2  0
 10 20  1  0
 12 16  1  0
 12  2  1  0
 13  2  1  0
 14 23  2  0
 17  9  1  0
 18 20  1  0
 18  1  2  0
 19  3  1  0
 19 17  2  0
 20 15  1  0
 20  6  1  0
 21 10  1  0
 22  1  1  0
 23 13  1  0
  3 24  1  0
  6 25  1  0
  8 26  1  0
  8 27  1  0
  9 28  1  0
 11 29  1  0
 12 30  1  0
 13 31  1  0
 15 32  1  0
 17 33  1  0
 21 34  1  0
 22 35  1  0
 23 36  1  0
M  END
>  <mol_id>  (52) 
2026-09-18-6fnk-s0-n100-refligand-0053

>  <rmsd_to_ref>  (52) 


$$$$

     RDKit          3D

 21 21  0  0  0  0  0  0  0  0999 V2000
    1.4530   15.9160   44.0120 C   0  0  0  0  0  0  0  0  0  0  0  0
   -0.4270   20.2880   43.5770 C   0  0  0  0  0  0  0  0  0  0  0  0
    2.3180   20.6930   41.2440 O   0  0  0  0  0  0  0  0  0  0  0  0
    0.8040   18.2520   43.5160 C   0  0  0  0  0  0  0  0  0  0  0  0
    0.8840   14.8740   42.2440 O   0  0  0  0  0  0  0  0  0  0  0  0
    1.6130   14.9300   43.0650 C   0  0  0  0  0  0  0  0  0  0  0  0
    2.3670   13.8410   43.3450 O   0  0  0  0  0  1  0  0  0  0  0  0
    0.9670   17.0380   44.1160 C   0  0  0  0  0  0  0  0  0  0  0  0
    0.4650   20.8820   42.6910 C   0  0  0  0  0  0  0  0  0  0  0  0
    1.5370   20.1300   42.1750 C   0  0  0  0  0  0  0  0  0  0  0  0
    1.6620   18.7480   42.6090 C   0  0  0  0  0  0  0  0  0  0  0  0
   -0.2350   18.9690   43.9350 C   0  0  0  0  0  0  0  0  0  0  0  0
    2.4935   16.0973   44.3193 H   0  0  0  0  0  0  0  0  0  0  0  0
    0.5646   15.4322   44.4440 H   0  0  0  0  0  0  0  0  0  0  0  0
   -1.2725   20.8604   43.9862 H   0  0  0  0  0  0  0  0  0  0  0  0
    2.1826   21.6406   40.9914 H   0  0  0  0  0  0  0  0  0  0  0  0
   -0.0857   16.7718   44.2919 H   0  0  0  0  0  0  0  0  0  0  0  0
    1.8836   17.3966   44.6072 H   0  0  0  0  0  0  0  0  0  0  0  0
    0.3336   21.9333   42.3952 H   0  0  0  0  0  0  0  0  0  0  0  0
    2.4572   18.1101   42.1957 H   0  0  0  0  0  0  0  0  0  0  0  0
   -0.9730   18.4901   44.5953 H   0  0  0  0  0  0  0  0  0  0  0  0
  1  8  1  0
  2 12  2  0
  3 10  1  0
  4 12  1  0
  4  8  1  0
  5  6  2  0
  6  7  1  0
  6  1  1  0
  9  2  1  0
 10 11  1  0
 10  9  2  0
 11  4  2  0
  1 13  1  0
  1 14  1  0
  2 15  1  0
  3 16  1  0
  8 17  1  0
  8 18  1  0
  9 19  1  0
 11 20  1  0
 12 21  1  0
M  CHG  1   7  -1
M  END
>  <mol_id>  (53) 
2026-09-18-6fnk-s0-n100-refligand-0054

>  <rmsd_to_ref>  (53) 


$$$$

     RDKit          3D

 17 18  0  0  0  0  0  0  0  0999 V2000
    0.4840   17.2480   44.3040 N   0  0  0  0  0  0  0  0  0  0  0  0
    0.8920   20.7690   42.4000 N   0  0  0  0  0  0  0  0  0  0  0  0
   -0.8580   18.2170   45.9410 N   0  0  0  0  0  0  0  0  0  0  0  0
   -0.0080   19.6030   44.2520 N   0  0  0  0  0  0  0  0  0  0  0  0
    1.4200   18.6820   42.5560 C   0  0  0  0  0  0  0  0  0  0  0  0
   -0.1190   18.3820   44.8160 C   0  0  0  0  0  0  0  0  0  0  0  0
    2.1050   19.1680   41.4920 C   0  0  0  0  0  0  0  0  0  0  0  0
    1.6310   20.5200   41.4090 C   0  0  0  0  0  0  0  0  0  0  0  0
    0.7240   19.6820   43.0950 C   0  0  0  0  0  0  0  0  0  0  0  0
    2.0000   16.1590   42.3590 S   0  0  0  0  0  0  0  0  0  0  0  0
    1.2330   17.4490   43.2760 C   0  0  0  0  0  0  0  0  0  0  0  0
   -1.3315   19.0253   46.3693 H   0  0  0  0  0  0  0  0  0  0  0  0
   -0.9458   17.2834   46.3672 H   0  0  0  0  0  0  0  0  0  0  0  0
   -0.4509   20.4339   44.6696 H   0  0  0  0  0  0  0  0  0  0  0  0
    2.2702   18.9201   43.2121 H   0  0  0  0  0  0  0  0  0  0  0  0
    2.8392   18.6553   40.8532 H   0  0  0  0  0  0  0  0  0  0  0  0
    1.8748   21.2298   40.6048 H   0  0  0  0  0  0  0  0  0  0  0  0
  1  6  2  0
  2  9  2  0
  4  6  1  0
  5  7  1  0
  5  9  1  0
  5 11  1  0
  6  3  1  0
  8  7  2  0
  8  2  1  0
  9  4  1  0
 10 11  2  0
 11  1  1  0
  3 12  1  0
  3 13  1  0
  4 14  1  0
  5 15  1  0
  7 16  1  0
  8 17  1  0
M  END
>  <mol_id>  (54) 
2026-09-18-6fnk-s0-n100-refligand-0055

>  <rmsd_to_ref>  (54) 


$$$$

     RDKit          3D

 17 18  0  0  0  0  0  0  0  0999 V2000
    0.1630   20.3100   43.9640 C   0  0  0  0  0  0  0  0  0  0  0  0
    1.3190   20.0560   43.4360 C   0  0  0  0  0  0  0  0  0  0  0  0
    0.9860   18.6800   42.2920 C   0  0  0  0  0  0  0  0  0  0  0  0
    0.6450   19.0940   44.3740 C   0  0  0  0  0  0  0  0  0  0  0  0
    0.9300   17.7780   44.1370 C   0  0  0  0  0  0  0  0  0  0  0  0
    2.0910   17.0040   42.0660 C   0  0  0  0  0  0  0  0  0  0  0  0
    1.3310   18.1490   42.7400 C   0  0  0  0  0  0  0  0  0  0  0  0
   -0.4010   21.1960   43.8810 O   0  0  0  0  0  0  0  0  0  0  0  0
    2.7780   16.8570   41.6060 O   0  0  0  0  0  0  0  0  0  0  0  0
    2.1650   20.7225   43.2122 H   0  0  0  0  0  0  0  0  0  0  0  0
   -0.0875   18.4901   42.1450 H   0  0  0  0  0  0  0  0  0  0  0  0
    1.3243   18.7784   41.2499 H   0  0  0  0  0  0  0  0  0  0  0  0
    0.3807   18.6052   45.3234 H   0  0  0  0  0  0  0  0  0  0  0  0
    1.7477   17.3730   44.7514 H   0  0  0  0  0  0  0  0  0  0  0  0
    0.1820   16.9932   44.3230 H   0  0  0  0  0  0  0  0  0  0  0  0
    1.5597   16.0573   42.2435 H   0  0  0  0  0  0  0  0  0  0  0  0
    1.9421   19.0301   42.9854 H   0  0  0  0  0  0  0  0  0  0  0  0
  1  4  1  0
  2  3  1  0
  2  1  1  0
  2  4  1  0
  3  7  1  0
  4  5  1  0
  7  6  1  0
  7  5  1  0
  8  1  2  0
  9  6  2  0
  2 10  1  0
  3 11  1  0
  3 12  1  0
  4 13  1  0
  5 14  1  0
  5 15  1  0
  6 16  1  0
  7 17  1  0
M  END
>  <mol_id>  (55) 
2026-09-18-6fnk-s0-n100-refligand-0056

>  <rmsd_to_ref>  (55) 


$$$$

     RDKit          3D

 43 45  0  0  0  0  0  0  0  0999 V2000
    2.2130   18.3200   40.2620 N   0  0  0  0  0  0  0  0  0  0  0  0
    2.6240   14.0000   39.5920 O   0  0  0  0  0  1  0  0  0  0  0  0
    3.4220   14.8730   40.1010 C   0  0  0  0  0  0  0  0  0  0  0  0
    4.5780   15.1030   39.5620 O   0  0  0  0  0  0  0  0  0  0  0  0
    2.2220   17.0540   39.6940 C   0  0  0  0  0  0  0  0  0  0  0  0
    0.0470   18.5880   44.0350 C   0  0  0  0  0  0  0  0  0  0  0  0
   -0.9980   17.6230   46.3920 C   0  0  0  0  0  0  0  0  0  0  0  0
    2.4870   19.4980   39.5000 C   0  0  0  0  0  0  0  0  0  0  0  0
   -0.5020   19.4470   45.0300 C   0  0  0  0  0  0  0  0  0  0  0  0
   -1.5900   17.0170   47.6240 C   0  0  0  0  0  0  0  0  0  0  0  0
    0.4650   19.2870   42.9170 N   0  0  0  0  0  4  0  0  0  0  0  0
    0.0870   17.2220   44.2580 C   0  0  0  0  0  0  0  0  0  0  0  0
   -1.0270   18.9040   46.1530 N   0  0  0  0  0  0  0  0  0  0  0  0
   -0.4940   16.6980   45.5000 C   0  0  0  0  0  0  0  0  0  0  0  0
    1.8890   20.7600   41.7130 C   0  0  0  0  0  0  0  0  0  0  0  0
    3.3320   20.7600   41.4550 C   0  0  0  0  0  0  0  0  0  0  0  0
    3.4990   20.4740   40.0400 C   0  0  0  0  0  0  0  0  0  0  0  0
    2.3550   16.6490   42.1400 S   0  0  0  0  0  0  0  0  0  0  0  0
    2.7350   16.1770   40.5440 C   0  0  0  0  0  0  0  0  0  0  0  0
    1.4820   19.4190   42.1310 C   0  0  0  0  0  0  0  0  0  0  0  0
    1.9500   18.2710   41.5520 C   0  0  0  0  0  0  0  0  0  0  0  0
   -0.4580   20.6680   44.8070 O   0  0  0  0  0  0  0  0  0  0  0  0
    1.1917   16.7596   39.4452 H   0  0  0  0  0  0  0  0  0  0  0  0
    2.8366   17.0731   38.7819 H   0  0  0  0  0  0  0  0  0  0  0  0
   -0.9568   18.4870   43.5966 H   0  0  0  0  0  0  0  0  0  0  0  0
    2.8431   19.1719   38.5116 H   0  0  0  0  0  0  0  0  0  0  0  0
    1.5387   20.0553   39.5082 H   0  0  0  0  0  0  0  0  0  0  0  0
   -1.1380   17.4797   48.5137 H   0  0  0  0  0  0  0  0  0  0  0  0
   -2.6762   17.1904   47.6323 H   0  0  0  0  0  0  0  0  0  0  0  0
   -1.3913   15.9351   47.6323 H   0  0  0  0  0  0  0  0  0  0  0  0
   -0.2737   19.0401   42.2431 H   0  0  0  0  0  0  0  0  0  0  0  0
    0.7565   20.0937   43.4871 H   0  0  0  0  0  0  0  0  0  0  0  0
    0.5438   16.5449   43.5212 H   0  0  0  0  0  0  0  0  0  0  0  0
   -0.5262   15.6187   45.7100 H   0  0  0  0  0  0  0  0  0  0  0  0
    1.3500   21.0403   40.7960 H   0  0  0  0  0  0  0  0  0  0  0  0
    1.6523   21.4851   42.5056 H   0  0  0  0  0  0  0  0  0  0  0  0
    3.7612   21.7435   41.6970 H   0  0  0  0  0  0  0  0  0  0  0  0
    3.8466   20.0114   42.0752 H   0  0  0  0  0  0  0  0  0  0  0  0
    4.5040   20.0541   39.8860 H   0  0  0  0  0  0  0  0  0  0  0  0
    3.3548   21.4212   39.4996 H   0  0  0  0  0  0  0  0  0  0  0  0
    1.7686   15.6533   40.5869 H   0  0  0  0  0  0  0  0  0  0  0  0
    2.4165   19.5546   42.6952 H   0  0  0  0  0  0  0  0  0  0  0  0
    2.9822   18.5797   41.7742 H   0  0  0  0  0  0  0  0  0  0  0  0
  1  8  1  0
  1 21  1  0
  2  3  1  0
  4  3  2  0
  5  1  1  0
  5 19  1  0
  6 11  1  0
  6 12  1  0
  6  9  1  0
  7 10  1  0
  8 17  1  0
  9 13  1  0
 12 14  2  0
 13  7  2  0
 14  7  1  0
 15 20  1  0
 16 15  1  0
 17 16  1  0
 19  3  1  0
 19 18  1  0
 20 11  1  0
 21 20  1  0
 21 18  1  0
 22  9  2  0
  5 23  1  0
  5 24  1  0
  6 25  1  0
  8 26  1  0
  8 27  1  0
 10 28  1  0
 10 29  1  0
 10 30  1  0
 11 31  1  0
 11 32  1  0
 12 33  1  0
 14 34  1  0
 15 35  1  0
 15 36  1  0
 16 37  1  0
 16 38  1  0
 17 39  1  0
 17 40  1  0
 19 41  1  0
 20 42  1  0
 21 43  1  0
M  CHG  2   2  -1  11   1
M  END
>  <mol_id>  (56) 
2026-09-18-6fnk-s0-n100-refligand-0057

>  <rmsd_to_ref>  (56) 


$$$$

     RDKit          3D

 45 47  0  0  0  0  0  0  0  0999 V2000
    1.0960   16.2200   42.5450 C   0  0  0  0  0  0  0  0  0  0  0  0
    1.4100   19.4930   41.3150 N   0  0  0  0  0  4  0  0  0  0  0  0
    4.5410   20.9810   42.4750 O   0  0  0  0  0  0  0  0  0  0  0  0
    6.0860   22.3940   38.3010 F   0  0  0  0  0  0  0  0  0  0  0  0
    0.8800   15.8400   41.2200 C   0  0  0  0  0  0  0  0  0  0  0  0
    0.2280   20.1170   43.3180 C   0  0  0  0  0  0  0  0  0  0  0  0
    2.7880   19.2700   41.2750 C   0  0  0  0  0  0  0  0  0  0  0  0
    2.0080   13.7940   40.7380 C   0  0  0  0  0  0  0  0  0  0  0  0
    0.7510   17.6530   42.9220 N   0  0  0  0  0  0  0  0  0  0  0  0
    1.0730   20.6240   42.1740 C   0  0  0  0  0  0  0  0  0  0  0  0
    1.5830   15.8120   44.7490 O   0  0  0  0  0  0  0  0  0  0  0  0
   -0.8480   19.8760   45.1800 N   0  0  0  0  0  0  0  0  0  0  0  0
    0.1570   18.8080   43.6070 C   0  0  0  0  0  0  0  0  0  0  0  0
   -0.3940   20.7520   44.2100 N   0  0  0  0  0  0  0  0  0  0  0  0
    2.4400   13.6420   42.0180 C   0  0  0  0  0  0  0  0  0  0  0  0
    3.1120   20.5660   39.1430 C   0  0  0  0  0  0  0  0  0  0  0  0
    4.3660   21.0440   41.1510 C   0  0  0  0  0  0  0  0  0  0  0  0
    1.6430   15.4270   43.5360 C   0  0  0  0  0  0  0  0  0  0  0  0
    3.3550   20.3330   40.4780 C   0  0  0  0  0  0  0  0  0  0  0  0
    1.1730   14.8100   40.4200 C   0  0  0  0  0  0  0  0  0  0  0  0
    4.0330   21.3100   38.3970 C   0  0  0  0  0  0  0  0  0  0  0  0
   -0.4560   18.6740   44.7810 C   0  0  0  0  0  0  0  0  0  0  0  0
    2.2150   14.1390   43.2300 C   0  0  0  0  0  0  0  0  0  0  0  0
    5.1270   21.8270   39.0690 C   0  0  0  0  0  0  0  0  0  0  0  0
    5.3210   21.7080   40.3540 C   0  0  0  0  0  0  0  0  0  0  0  0
    2.1045   16.5415   42.2457 H   0  0  0  0  0  0  0  0  0  0  0  0
    0.9451   18.6482   41.6771 H   0  0  0  0  0  0  0  0  0  0  0  0
    1.0907   19.7080   40.3596 H   0  0  0  0  0  0  0  0  0  0  0  0
    5.2670   21.5000   42.9036 H   0  0  0  0  0  0  0  0  0  0  0  0
    0.3047   16.6063   40.6798 H   0  0  0  0  0  0  0  0  0  0  0  0
    3.2060   19.2939   42.2922 H   0  0  0  0  0  0  0  0  0  0  0  0
    3.0181   18.2846   40.8436 H   0  0  0  0  0  0  0  0  0  0  0  0
    2.3378   13.0900   39.9598 H   0  0  0  0  0  0  0  0  0  0  0  0
    1.3200   18.1501   42.2220 H   0  0  0  0  0  0  0  0  0  0  0  0
    1.9939   21.0804   42.5659 H   0  0  0  0  0  0  0  0  0  0  0  0
    0.5189   21.3822   41.6013 H   0  0  0  0  0  0  0  0  0  0  0  0
   -0.5426   21.7712   44.2165 H   0  0  0  0  0  0  0  0  0  0  0  0
    3.2181   12.8660   42.0654 H   0  0  0  0  0  0  0  0  0  0  0  0
    2.2023   20.1710   38.6672 H   0  0  0  0  0  0  0  0  0  0  0  0
    0.6992   14.7866   39.4276 H   0  0  0  0  0  0  0  0  0  0  0  0
    3.8930   21.4774   37.3189 H   0  0  0  0  0  0  0  0  0  0  0  0
   -0.6104   17.7306   45.3251 H   0  0  0  0  0  0  0  0  0  0  0  0
    1.5542   13.4089   43.7203 H   0  0  0  0  0  0  0  0  0  0  0  0
    3.2523   14.3200   43.5482 H   0  0  0  0  0  0  0  0  0  0  0  0
    6.2285   22.1252   40.8148 H   0  0  0  0  0  0  0  0  0  0  0  0
  1  9  1  0
  1 18  1  0
  2 10  1  0
  4 24  1  0
  5  1  1  0
  6 13  2  0
  6 14  1  0
  7  2  1  0
  8 15  2  0
  9 13  1  0
 10  6  1  0
 13 22  1  0
 14 12  1  0
 15 23  1  0
 16 19  2  0
 17  3  1  0
 18 11  2  0
 19 17  1  0
 19  7  1  0
 20  8  1  0
 20  5  2  0
 21 24  2  0
 21 16  1  0
 22 12  2  0
 23 18  1  0
 24 25  1  0
 25 17  2  0
  1 26  1  0
  2 27  1  0
  2 28  1  0
  3 29  1  0
  5 30  1  0
  7 31  1  0
  7 32  1  0
  8 33  1  0
  9 34  1  0
 10 35  1  0
 10 36  1  0
 14 37  1  0
 15 38  1  0
 16 39  1  0
 20 40  1  0
 21 41  1  0
 22 42  1  0
 23 43  1  0
 23 44  1  0
 25 45  1  0
M  CHG  1   2   1
M  END
>  <mol_id>  (57) 
2026-09-18-6fnk-s0-n100-refligand-0058

>  <rmsd_to_ref>  (57) 


$$$$

     RDKit          3D

 35 37  0  0  0  0  0  0  0  0999 V2000
    0.0880   18.2940   44.9780 N   0  0  0  0  0  0  0  0  0  0  0  0
    3.3090   20.9050   40.0110 C   0  0  0  0  0  0  0  0  0  0  0  0
   -0.8760   20.2990   44.7930 N   0  0  0  0  0  0  0  0  0  0  0  0
    3.3860   21.2570   41.3550 C   0  0  0  0  0  0  0  0  0  0  0  0
    2.8290   20.4480   42.3310 C   0  0  0  0  0  0  0  0  0  0  0  0
    2.3430   16.5830   41.5430 N   0  0  0  0  0  0  0  0  0  0  0  0
    2.8000   19.6680   39.6710 C   0  0  0  0  0  0  0  0  0  0  0  0
   -0.2100   20.0890   43.6680 N   0  0  0  0  0  0  0  0  0  0  0  0
    0.4720   18.9230   43.8350 C   0  0  0  0  0  0  0  0  0  0  0  0
    2.0100   17.4880   40.4540 C   0  0  0  0  0  0  0  0  0  0  0  0
    2.2870   18.8340   40.6210 C   0  0  0  0  0  0  0  0  0  0  0  0
    1.4380   18.4430   42.7690 C   0  0  0  0  0  0  0  0  0  0  0  0
    1.6930   16.9910   42.7710 N   0  0  0  0  0  0  0  0  0  0  0  0
    1.1470   14.5440   43.1870 C   0  0  0  0  0  0  0  0  0  0  0  0
    2.1730   13.4330   43.1800 C   0  0  0  0  0  0  0  0  0  0  0  0
    1.6310   15.9080   43.7650 C   0  0  0  0  0  0  0  0  0  0  0  0
   -0.7090   19.2270   45.5000 C   0  0  0  0  0  0  0  0  0  0  0  0
    2.1080   19.3220   41.9480 C   0  0  0  0  0  0  0  0  0  0  0  0
    3.6488   21.6023   39.2311 H   0  0  0  0  0  0  0  0  0  0  0  0
    3.8949   22.1880   41.6453 H   0  0  0  0  0  0  0  0  0  0  0  0
    2.9552   20.6928   43.3960 H   0  0  0  0  0  0  0  0  0  0  0  0
    3.3633   16.5864   41.6843 H   0  0  0  0  0  0  0  0  0  0  0  0
    2.8081   19.3497   38.6181 H   0  0  0  0  0  0  0  0  0  0  0  0
   -0.2084   20.6897   42.8313 H   0  0  0  0  0  0  0  0  0  0  0  0
    0.9291   17.3965   40.2713 H   0  0  0  0  0  0  0  0  0  0  0  0
    2.6620   17.1736   39.6257 H   0  0  0  0  0  0  0  0  0  0  0  0
    0.5979   18.2945   42.0746 H   0  0  0  0  0  0  0  0  0  0  0  0
    0.2891   14.2078   43.7878 H   0  0  0  0  0  0  0  0  0  0  0  0
    0.9051   14.7350   42.1311 H   0  0  0  0  0  0  0  0  0  0  0  0
    2.4250   13.1601   44.2154 H   0  0  0  0  0  0  0  0  0  0  0  0
    1.7603   12.5561   42.6598 H   0  0  0  0  0  0  0  0  0  0  0  0
    3.0800   13.7747   42.6598 H   0  0  0  0  0  0  0  0  0  0  0  0
    2.6372   15.7675   44.1866 H   0  0  0  0  0  0  0  0  0  0  0  0
    0.8933   16.2126   44.5219 H   0  0  0  0  0  0  0  0  0  0  0  0
   -1.1973   19.0935   46.4766 H   0  0  0  0  0  0  0  0  0  0  0  0
  1 17  1  0
  2  4  2  0
  3 17  2  0
  4  5  1  0
  6 13  1  0
  7  2  1  0
  7 11  2  0
  8  9  1  0
  8  3  1  0
  9  1  2  0
 10 11  1  0
 10  6  1  0
 11 18  1  0
 12 13  1  0
 12  9  1  0
 13 16  1  0
 14 16  1  0
 15 14  1  0
 18  5  2  0
 18 12  1  0
  2 19  1  0
  4 20  1  0
  5 21  1  0
  6 22  1  0
  7 23  1  0
  8 24  1  0
 10 25  1  0
 10 26  1  0
 12 27  1  0
 14 28  1  0
 14 29  1  0
 15 30  1  0
 15 31  1  0
 15 32  1  0
 16 33  1  0
 16 34  1  0
 17 35  1  0
M  END
>  <mol_id>  (58) 
2026-09-18-6fnk-s0-n100-refligand-0059

>  <rmsd_to_ref>  (58) 


$$$$

     RDKit          3D

 53 56  0  0  0  0  0  0  0  0999 V2000
   -1.5440   12.8510   44.2400 C   0  0  0  0  0  0  0  0  0  0  0  0
   -0.7900   15.5120   44.0270 C   0  0  0  0  0  0  0  0  0  0  0  0
   -0.4440   14.5450   42.9310 C   0  0  0  0  0  0  0  0  0  0  0  0
    3.4740   20.9140   41.5090 C   0  0  0  0  0  0  0  0  0  0  0  0
    6.0810   22.4100   37.8450 C   0  0  0  0  0  0  0  0  0  0  0  0
   -0.8230   14.9890   45.4330 C   0  0  0  0  0  0  0  0  0  0  0  0
    1.9670   17.6760   41.2650 O   0  0  0  0  0  0  0  0  0  0  0  0
    3.9640   21.5090   38.3480 C   0  0  0  0  0  0  0  0  0  0  0  0
   -1.5990   13.7590   45.5630 C   0  0  0  0  0  0  0  0  0  0  0  0
    5.2110   21.7420   40.1190 C   0  0  0  0  0  0  0  0  0  0  0  0
    1.3060   17.9450   42.3210 C   0  0  0  0  0  0  0  0  0  0  0  0
   -1.5700   13.2880   43.2700 C   0  0  0  0  0  0  0  0  0  0  0  0
    6.5960   21.2330   38.4940 C   0  0  0  0  0  0  0  0  0  0  0  0
    0.9830   19.4260   42.2280 C   0  0  0  0  0  0  0  0  0  0  0  0
    0.1190   16.7330   43.8860 N   0  0  0  0  0  0  0  0  0  0  0  0
    4.6470   21.3680   41.2760 C   0  0  0  0  0  0  0  0  0  0  0  0
    5.3210   21.7800   38.8660 C   0  0  0  0  0  0  0  0  0  0  0  0
    2.8080   21.0280   39.2500 C   0  0  0  0  0  0  0  0  0  0  0  0
    1.1240   16.6720   43.3050 C   0  0  0  0  0  0  0  0  0  0  0  0
    2.4680   20.8940   40.5340 C   0  0  0  0  0  0  0  0  0  0  0  0
    0.1560   19.8650   43.5050 C   0  0  0  0  0  0  0  0  0  0  0  0
   -0.3610   19.8380   45.7650 O   0  0  0  0  0  0  0  0  0  0  0  0
   -0.3590   21.2670   43.4260 O   0  0  0  0  0  0  0  0  0  0  0  0
   -0.3050   19.1050   44.7910 C   0  0  0  0  0  0  0  0  0  0  0  0
    1.0530   20.6780   41.1970 C   0  0  0  0  0  0  0  0  0  0  0  0
   -0.4760   17.8330   44.6060 N   0  0  0  0  0  0  0  0  0  0  0  0
    1.9910   15.7710   43.2030 O   0  0  0  0  0  0  0  0  0  0  0  0
   -0.6095   12.2735   44.2968 H   0  0  0  0  0  0  0  0  0  0  0  0
   -2.4987   12.3063   44.2832 H   0  0  0  0  0  0  0  0  0  0  0  0
   -1.8491   15.7674   43.8752 H   0  0  0  0  0  0  0  0  0  0  0  0
    0.5954   14.1937   43.0104 H   0  0  0  0  0  0  0  0  0  0  0  0
   -0.5055   14.9585   41.9135 H   0  0  0  0  0  0  0  0  0  0  0  0
    3.2466   20.5247   42.5124 H   0  0  0  0  0  0  0  0  0  0  0  0
    6.5472   23.3886   38.0320 H   0  0  0  0  0  0  0  0  0  0  0  0
    5.8890   22.6995   36.8013 H   0  0  0  0  0  0  0  0  0  0  0  0
    0.2088   14.7891   45.7576 H   0  0  0  0  0  0  0  0  0  0  0  0
   -1.3078   15.7531   46.0584 H   0  0  0  0  0  0  0  0  0  0  0  0
    3.7698   21.6562   37.2753 H   0  0  0  0  0  0  0  0  0  0  0  0
   -2.6474   14.0237   45.7652 H   0  0  0  0  0  0  0  0  0  0  0  0
   -1.1617   13.1749   46.3862 H   0  0  0  0  0  0  0  0  0  0  0  0
    5.1652   22.8281   40.2872 H   0  0  0  0  0  0  0  0  0  0  0  0
    5.7089   20.7615   40.0920 H   0  0  0  0  0  0  0  0  0  0  0  0
   -2.5787   13.7012   43.1223 H   0  0  0  0  0  0  0  0  0  0  0  0
   -1.2900   12.4713   42.5884 H   0  0  0  0  0  0  0  0  0  0  0  0
    6.6498   20.2799   37.9475 H   0  0  0  0  0  0  0  0  0  0  0  0
    7.5229   20.9758   39.0275 H   0  0  0  0  0  0  0  0  0  0  0  0
    5.2922   21.4667   42.1615 H   0  0  0  0  0  0  0  0  0  0  0  0
    1.9800   20.6741   38.6182 H   0  0  0  0  0  0  0  0  0  0  0  0
    2.3390   21.9835   40.6135 H   0  0  0  0  0  0  0  0  0  0  0  0
   -0.8896   21.6423   44.1728 H   0  0  0  0  0  0  0  0  0  0  0  0
    0.7870   21.5927   41.7471 H   0  0  0  0  0  0  0  0  0  0  0  0
    0.3528   20.4524   40.3792 H   0  0  0  0  0  0  0  0  0  0  0  0
   -1.2928   17.5048   45.1408 H   0  0  0  0  0  0  0  0  0  0  0  0
  1  9  1  0
  2  6  1  0
  3 12  1  0
  3  2  1  0
  5 13  1  0
  5 17  1  0
  6  9  1  0
  7 11  2  0
  8 17  1  0
  8 18  2  0
 10 16  1  0
 11 19  1  0
 12  1  1  0
 13 17  1  0
 14 11  1  0
 14 21  2  0
 15  2  1  0
 15 26  1  0
 16  4  2  0
 17 10  1  0
 18 20  1  0
 19 15  1  0
 20 25  1  0
 20  4  1  0
 21 24  1  0
 23 21  1  0
 24 22  2  0
 25 14  1  0
 26 24  1  0
 27 19  2  0
  1 28  1  0
  1 29  1  0
  2 30  1  0
  3 31  1  0
  3 32  1  0
  4 33  1  0
  5 34  1  0
  5 35  1  0
  6 36  1  0
  6 37  1  0
  8 38  1  0
  9 39  1  0
  9 40  1  0
 10 41  1  0
 10 42  1  0
 12 43  1  0
 12 44  1  0
 13 45  1  0
 13 46  1  0
 16 47  1  0
 18 48  1  0
 20 49  1  0
 23 50  1  0
 25 51  1  0
 25 52  1  0
 26 53  1  0
M  END
>  <mol_id>  (59) 
2026-09-18-6fnk-s0-n100-refligand-0060

>  <rmsd_to_ref>  (59) 


$$$$

     RDKit          3D

 32 33  0  0  0  0  0  0  0  0999 V2000
   -0.5230   17.7110   45.2580 C   0  0  0  0  0  0  0  0  0  0  0  0
    1.9780   16.8950   42.8470 O   0  0  0  0  0  0  0  0  0  0  0  0
   -1.1910   16.9410   46.0970 N   0  0  0  0  0  0  0  0  0  0  0  0
    0.3590   16.1170   44.3040 C   0  0  0  0  0  0  0  0  0  0  0  0
    0.3670   21.2700   42.6790 C   0  0  0  0  0  0  0  0  0  0  0  0
    1.2630   20.8760   41.7710 C   0  0  0  0  0  0  0  0  0  0  0  0
    0.8270   18.4200   43.5690 C   0  0  0  0  0  0  0  0  0  0  0  0
    0.4450   17.3350   44.2110 C   0  0  0  0  0  0  0  0  0  0  0  0
   -0.0710   19.3720   44.1270 C   0  0  0  0  0  0  0  0  0  0  0  0
    1.8670   15.6400   42.5940 C   0  0  0  0  0  0  0  0  0  0  0  0
    1.9840   18.7810   42.7950 C   0  0  0  0  0  0  0  0  0  0  0  0
    2.1860   19.8120   41.9640 C   0  0  0  0  0  0  0  0  0  0  0  0
    1.4290   21.5060   40.6910 O   0  0  0  0  0  0  0  0  0  0  0  0
    0.9680   15.2230   43.4360 C   0  0  0  0  0  0  0  0  0  0  0  0
   -0.6380   18.9550   45.2500 N   0  0  0  0  0  0  0  0  0  0  0  0
   -0.1280   20.6500   43.7990 C   0  0  0  0  0  0  0  0  0  0  0  0
    1.9903   17.0342   43.8271 H   0  0  0  0  0  0  0  0  0  0  0  0
   -1.8386   17.3621   46.7783 H   0  0  0  0  0  0  0  0  0  0  0  0
   -0.2401   15.7052   45.1295 H   0  0  0  0  0  0  0  0  0  0  0  0
   -0.5314   21.4853   42.0820 H   0  0  0  0  0  0  0  0  0  0  0  0
    1.0208   21.9817   43.2044 H   0  0  0  0  0  0  0  0  0  0  0  0
    1.1706   18.1356   42.5635 H   0  0  0  0  0  0  0  0  0  0  0  0
   -0.7435   19.4395   43.2591 H   0  0  0  0  0  0  0  0  0  0  0  0
    1.5354   15.4788   41.5576 H   0  0  0  0  0  0  0  0  0  0  0  0
    2.8217   15.1034   42.6970 H   0  0  0  0  0  0  0  0  0  0  0  0
    2.8416   18.1006   42.9028 H   0  0  0  0  0  0  0  0  0  0  0  0
    3.1266   19.8370   41.3942 H   0  0  0  0  0  0  0  0  0  0  0  0
    0.1656   14.7628   42.8407 H   0  0  0  0  0  0  0  0  0  0  0  0
    1.5396   14.5680   44.1100 H   0  0  0  0  0  0  0  0  0  0  0  0
   -1.0840   19.5393   45.9715 H   0  0  0  0  0  0  0  0  0  0  0  0
    0.3550   21.1715   44.6385 H   0  0  0  0  0  0  0  0  0  0  0  0
   -1.1983   20.7032   43.5507 H   0  0  0  0  0  0  0  0  0  0  0  0
  1  3  2  3
  5 16  1  0
  6 12  1  0
  6  5  1  0
  7 11  1  0
  7  9  1  0
  7  8  1  0
  8  4  2  3
  8  1  1  0
  9 16  1  0
  9 15  1  0
 10  2  1  0
 10 14  1  0
 12 11  2  0
 13  6  2  0
 14  4  1  0
 15  1  1  0
  2 17  1  0
  3 18  1  0
  4 19  1  0
  5 20  1  0
  5 21  1  0
  7 22  1  0
  9 23  1  0
 10 24  1  0
 10 25  1  0
 11 26  1  0
 12 27  1  0
 14 28  1  0
 14 29  1  0
 15 30  1  0
 16 31  1  0
 16 32  1  0
M  END
>  <mol_id>  (60) 
2026-09-18-6fnk-s0-n100-refligand-0061

>  <rmsd_to_ref>  (60) 


$$$$

     RDKit          3D

 47 49  0  0  0  0  0  0  0  0999 V2000
    2.2220   17.4420   39.5150 C   0  0  0  0  0  0  0  0  0  0  0  0
    0.0550   17.9590   44.2580 C   0  0  0  0  0  0  0  0  0  0  0  0
    1.7170   15.9050   41.4670 C   0  0  0  0  0  0  0  0  0  0  0  0
    2.3720   16.3020   40.2300 C   0  0  0  0  0  0  0  0  0  0  0  0
   -1.7510   13.9480   46.6080 C   0  0  0  0  0  0  0  0  0  0  0  0
    0.3180   19.2980   43.6490 C   0  0  0  0  0  0  0  0  0  0  0  0
    1.3220   18.3460   41.7210 C   0  0  0  0  0  0  0  0  0  0  0  0
   -1.2070   18.6850   46.2020 O   0  0  0  0  0  0  0  0  0  0  0  0
    1.0940   17.0920   42.2670 C   0  0  0  0  0  0  0  0  0  0  0  0
    2.9440   20.9740   41.0710 F   0  0  0  0  0  0  0  0  0  0  0  0
   -0.6070   17.7310   45.5420 C   0  0  0  0  0  0  0  0  0  0  0  0
    1.8620   18.5380   40.3010 C   0  0  0  0  0  0  0  0  0  0  0  0
    3.4120   21.1080   38.7450 C   0  0  0  0  0  0  0  0  0  0  0  0
   -0.0510   20.2770   44.2790 O   0  0  0  0  0  0  0  0  0  0  0  0
   -1.5810   16.3680   47.2580 C   0  0  0  0  0  0  0  0  0  0  0  0
    0.9830   19.4020   42.4240 N   0  0  0  0  0  0  0  0  0  0  0  0
    1.6040   14.5570   39.7250 C   0  0  0  0  0  0  0  0  0  0  0  0
    2.3450   20.9660   39.8170 C   0  0  0  0  0  0  0  0  0  0  0  0
    1.2130   14.5530   41.2480 C   0  0  0  0  0  0  0  0  0  0  0  0
   -2.4060   15.0390   47.3830 C   0  0  0  0  0  0  0  0  0  0  0  0
    0.3640   16.8710   43.4280 C   0  0  0  0  0  0  0  0  0  0  0  0
    3.2080   20.7340   37.5670 O   0  0  0  0  0  0  0  0  0  0  0  0
    4.4730   21.7170   39.1030 O   0  0  0  0  0  1  0  0  0  0  0  0
    0.1510   15.6830   43.8480 O   0  0  0  0  0  0  0  0  0  0  0  0
    1.8060   19.6780   39.5210 O   0  0  0  0  0  0  0  0  0  0  0  0
   -0.7910   16.4590   46.1250 N   0  0  0  0  0  0  0  0  0  0  0  0
    3.0120   15.1530   39.8020 O   0  0  0  0  0  0  0  0  0  0  0  0
    1.4390   17.2808   38.7594 H   0  0  0  0  0  0  0  0  0  0  0  0
    3.1952   17.6724   39.0570 H   0  0  0  0  0  0  0  0  0  0  0  0
   -0.9191   17.9186   43.7486 H   0  0  0  0  0  0  0  0  0  0  0  0
    2.2754   15.7023   42.3928 H   0  0  0  0  0  0  0  0  0  0  0  0
    2.7583   17.3307   40.1801 H   0  0  0  0  0  0  0  0  0  0  0  0
   -1.3121   13.2170   47.3030 H   0  0  0  0  0  0  0  0  0  0  0  0
   -2.4987   13.4485   45.9744 H   0  0  0  0  0  0  0  0  0  0  0  0
   -0.9586   14.3731   45.9744 H   0  0  0  0  0  0  0  0  0  0  0  0
    2.0188   17.1803   42.8561 H   0  0  0  0  0  0  0  0  0  0  0  0
    2.4426   18.9067   41.1594 H   0  0  0  0  0  0  0  0  0  0  0  0
   -2.2887   17.2101   47.2497 H   0  0  0  0  0  0  0  0  0  0  0  0
   -0.8930   16.3860   48.1161 H   0  0  0  0  0  0  0  0  0  0  0  0
    0.9265   15.1900   39.1331 H   0  0  0  0  0  0  0  0  0  0  0  0
    1.5476   13.5743   39.2340 H   0  0  0  0  0  0  0  0  0  0  0  0
    1.5912   21.7671   39.8277 H   0  0  0  0  0  0  0  0  0  0  0  0
    1.7459   13.7889   41.8330 H   0  0  0  0  0  0  0  0  0  0  0  0
    0.1726   14.3270   41.5246 H   0  0  0  0  0  0  0  0  0  0  0  0
   -3.4205   15.2036   46.9911 H   0  0  0  0  0  0  0  0  0  0  0  0
   -2.4537   14.7461   48.4422 H   0  0  0  0  0  0  0  0  0  0  0  0
   -0.3497   15.6217   45.7187 H   0  0  0  0  0  0  0  0  0  0  0  0
  1 12  1  0
  2 11  1  0
  3 19  1  0
  3  9  1  0
  4  1  1  0
  4  3  1  0
  5 20  1  0
  6  2  1  0
  6 14  2  0
  7 16  2  0
  9  7  1  0
  9 21  1  0
 11 26  1  0
 11  8  2  0
 12 25  1  0
 12  7  1  0
 13 23  1  0
 13 18  1  0
 15 20  1  0
 16  6  1  0
 17 27  1  0
 17 19  1  0
 18 10  1  0
 21 24  2  0
 21  2  1  0
 22 13  2  0
 25 18  1  0
 26 15  1  0
 27  4  1  0
  1 28  1  0
  1 29  1  0
  2 30  1  0
  3 31  1  0
  4 32  1  0
  5 33  1  0
  5 34  1  0
  5 35  1  0
  9 36  1  0
 12 37  1  0
 15 38  1  0
 15 39  1  0
 17 40  1  0
 17 41  1  0
 18 42  1  0
 19 43  1  0
 19 44  1  0
 20 45  1  0
 20 46  1  0
 26 47  1  0
M  CHG  1  23  -1
M  END
>  <mol_id>  (61) 
2026-09-18-6fnk-s0-n100-refligand-0062

>  <rmsd_to_ref>  (61) 


$$$$

     RDKit          3D

 51 55  0  0  0  0  0  0  0  0999 V2000
    3.6400   13.4580   39.3770 N   0  0  0  0  0  4  0  0  0  0  0  0
   -2.1380   16.8580   47.1800 C   0  0  0  0  0  0  0  0  0  0  0  0
    3.1590   14.5600   40.0580 C   0  0  0  0  0  0  0  0  0  0  0  0
    1.2610   15.9800   41.0710 O   0  0  0  0  0  0  0  0  0  0  0  0
    3.0940   20.9720   38.2260 C   0  0  0  0  0  0  0  0  0  0  0  0
    0.5150   19.2510   43.8620 N   0  0  0  0  0  0  0  0  0  0  0  0
   -1.2880   19.1910   46.7680 N   0  0  0  0  0  0  0  0  0  0  0  0
    3.0700   21.6560   40.5240 N   0  0  0  0  0  4  0  0  0  0  0  0
    1.8390   16.8020   40.4820 C   0  0  0  0  0  0  0  0  0  0  0  0
    2.7250   15.4530   39.2430 N   0  0  0  0  0  0  0  0  0  0  0  0
   -1.4630   17.9090   46.4620 C   0  0  0  0  0  0  0  0  0  0  0  0
   -0.5870   16.7540   44.3960 N   0  0  0  0  0  0  0  0  0  0  0  0
    1.5890   18.7270   41.9440 C   0  0  0  0  0  0  0  0  0  0  0  0
    3.1860   13.6120   38.1630 C   0  0  0  0  0  0  0  0  0  0  0  0
   -0.7920   17.7920   45.2250 C   0  0  0  0  0  0  0  0  0  0  0  0
    0.7780   18.2320   43.0390 C   0  0  0  0  0  0  0  0  0  0  0  0
    1.8030   18.2340   40.7620 N   0  0  0  0  0  0  0  0  0  0  0  0
   -0.5480   19.8860   45.9020 N   0  0  0  0  0  0  0  0  0  0  0  0
    2.5170   20.3290   40.6190 C   0  0  0  0  0  0  0  0  0  0  0  0
    2.1940   19.9570   41.9040 C   0  0  0  0  0  0  0  0  0  0  0  0
    2.7960   14.7530   38.0610 C   0  0  0  0  0  0  0  0  0  0  0  0
    2.7410   16.6350   39.2840 C   0  0  0  0  0  0  0  0  0  0  0  0
    0.2540   16.9560   43.2490 C   0  0  0  0  0  0  0  0  0  0  0  0
    2.8660   21.0140   39.5950 C   0  0  0  0  0  0  0  0  0  0  0  0
    1.9630   19.1740   39.8920 O   0  0  0  0  0  0  0  0  0  0  0  0
    2.3250   17.5020   38.1210 O   0  0  0  0  0  0  0  0  0  0  0  0
   -0.1390   19.0140   44.9200 C   0  0  0  0  0  0  0  0  0  0  0  0
    4.6699   13.4448   39.3835 H   0  0  0  0  0  0  0  0  0  0  0  0
    3.3405   12.5687   39.8016 H   0  0  0  0  0  0  0  0  0  0  0  0
   -2.0305   17.0254   48.2619 H   0  0  0  0  0  0  0  0  0  0  0  0
   -3.2051   16.8584   46.9132 H   0  0  0  0  0  0  0  0  0  0  0  0
   -1.6937   15.8877   46.9132 H   0  0  0  0  0  0  0  0  0  0  0  0
    2.3366   14.2446   40.7169 H   0  0  0  0  0  0  0  0  0  0  0  0
    3.9808   14.9935   40.6468 H   0  0  0  0  0  0  0  0  0  0  0  0
    4.1598   20.7757   38.0376 H   0  0  0  0  0  0  0  0  0  0  0  0
    2.4887   20.1702   37.7779 H   0  0  0  0  0  0  0  0  0  0  0  0
    2.8141   21.9368   37.7779 H   0  0  0  0  0  0  0  0  0  0  0  0
    2.4848   22.4791   40.7262 H   0  0  0  0  0  0  0  0  0  0  0  0
    3.8847   22.1473   40.9187 H   0  0  0  0  0  0  0  0  0  0  0  0
    2.4541   18.1700   42.3330 H   0  0  0  0  0  0  0  0  0  0  0  0
    3.9891   13.4235   37.4353 H   0  0  0  0  0  0  0  0  0  0  0  0
    2.3678   12.9044   37.9635 H   0  0  0  0  0  0  0  0  0  0  0  0
   -0.3244   20.8899   45.9584 H   0  0  0  0  0  0  0  0  0  0  0  0
    3.1143   19.9203   42.5055 H   0  0  0  0  0  0  0  0  0  0  0  0
    1.4868   20.6977   42.3055 H   0  0  0  0  0  0  0  0  0  0  0  0
    3.4819   15.2888   37.3883 H   0  0  0  0  0  0  0  0  0  0  0  0
    1.7664   14.6919   37.6787 H   0  0  0  0  0  0  0  0  0  0  0  0
    3.7778   17.0022   39.2973 H   0  0  0  0  0  0  0  0  0  0  0  0
    0.4779   16.1302   42.5576 H   0  0  0  0  0  0  0  0  0  0  0  0
    3.8038   20.4657   39.7680 H   0  0  0  0  0  0  0  0  0  0  0  0
    1.9229   18.3401   38.4615 H   0  0  0  0  0  0  0  0  0  0  0  0
  1  3  1  0
  6 27  2  0
  8 19  1  0
  9 17  1  0
  9  4  2  0
 10 22  1  0
 10  3  1  0
 11  7  2  0
 11  2  1  0
 12 15  2  0
 13 16  1  0
 14  1  1  0
 15 11  1  0
 16 23  2  0
 16  6  1  0
 17 13  1  0
 18  7  1  0
 19 20  1  0
 20 13  1  0
 21 14  1  0
 21 10  1  0
 22 26  1  0
 22  9  1  0
 23 12  1  0
 24  5  1  0
 24  8  1  0
 24 19  1  0
 25 19  1  0
 25 17  1  0
 27 15  1  0
 27 18  1  0
  1 28  1  0
  1 29  1  0
  2 30  1  0
  2 31  1  0
  2 32  1  0
  3 33  1  0
  3 34  1  0
  5 35  1  0
  5 36  1  0
  5 37  1  0
  8 38  1  0
  8 39  1  0
 13 40  1  0
 14 41  1  0
 14 42  1  0
 18 43  1  0
 20 44  1  0
 20 45  1  0
 21 46  1  0
 21 47  1  0
 22 48  1  0
 23 49  1  0
 24 50  1  0
 26 51  1  0
M  CHG  2   1   1   8   1
M  END
>  <mol_id>  (62) 
2026-09-18-6fnk-s0-n100-refligand-0063

>  <rmsd_to_ref>  (62) 


$$$$

     RDKit          3D

 65 69  0  0  0  0  0  0  0  0999 V2000
    1.3100   14.2430   38.8570 C   0  0  0  0  0  0  0  0  0  0  0  0
    4.6370   21.7400   41.4960 C   0  0  0  0  0  0  0  0  0  0  0  0
   -0.4530   19.6990   44.9640 C   0  0  0  0  0  0  0  0  0  0  0  0
    0.9090   14.4850   37.4540 C   0  0  0  0  0  0  0  0  0  0  0  0
    1.6650   19.2590   41.9260 C   0  0  0  0  0  0  0  0  0  0  0  0
    2.5680   20.0850   39.8400 N   0  0  0  0  0  0  0  0  0  0  0  0
    1.3670   16.8420   42.0970 N   0  0  0  0  0  0  0  0  0  0  0  0
    4.0960   20.3410   41.7870 C   0  0  0  0  0  0  0  0  0  0  0  0
    1.9390   16.6310   38.0180 C   0  0  0  0  0  0  0  0  0  0  0  0
    1.6040   17.9610   41.4640 C   0  0  0  0  0  0  0  0  0  0  0  0
    0.9320   16.7030   43.3390 C   0  0  0  0  0  0  0  0  0  0  0  0
    0.2420   19.2230   43.8670 C   0  0  0  0  0  0  0  0  0  0  0  0
   -0.3340   17.5290   45.2660 C   0  0  0  0  0  0  0  0  0  0  0  0
    2.7920   19.7940   38.7670 C   0  0  0  0  0  0  0  0  0  0  0  0
   -1.8600   14.6630   46.8240 O   0  0  0  0  0  0  0  0  0  0  0  0
    1.4710   16.7730   39.4080 N   0  0  0  0  0  0  0  0  0  0  0  0
    2.7580   19.9390   41.1910 C   0  0  0  0  0  0  0  0  0  0  0  0
    1.9180   20.5640   39.1690 O   0  0  0  0  0  0  0  0  0  0  0  0
   -0.4270   16.1880   45.7750 C   0  0  0  0  0  0  0  0  0  0  0  0
   -2.3010   16.8260   47.2660 N   0  0  0  0  0  0  0  0  0  0  0  0
    1.0630   15.5240   44.0230 C   0  0  0  0  0  0  0  0  0  0  0  0
    0.3020   15.1890   45.1550 C   0  0  0  0  0  0  0  0  0  0  0  0
   -1.4980   15.8860   46.7000 C   0  0  0  0  0  0  0  0  0  0  0  0
    3.3820   19.3850   37.9100 O   0  0  0  0  0  0  0  0  0  0  0  0
    2.1590   17.6950   40.2500 N   0  0  0  0  0  0  0  0  0  0  0  0
   -0.7360   18.7090   45.8590 N   0  0  0  0  0  0  0  0  0  0  0  0
    0.8470   15.9540   37.2070 C   0  0  0  0  0  0  0  0  0  0  0  0
    0.6290   15.4960   39.7020 C   0  0  0  0  0  0  0  0  0  0  0  0
    5.2960   21.9420   40.1460 C   0  0  0  0  0  0  0  0  0  0  0  0
    5.6470   21.9760   42.5990 C   0  0  0  0  0  0  0  0  0  0  0  0
    2.1540   14.5540   43.4880 C   0  0  0  0  0  0  0  0  0  0  0  0
    0.9540   19.8410   42.8750 N   0  0  0  0  0  4  0  0  0  0  0  0
    0.2950   17.7720   44.1040 C   0  0  0  0  0  0  0  0  0  0  0  0
    2.4054   14.2561   38.9566 H   0  0  0  0  0  0  0  0  0  0  0  0
    0.9789   13.2604   39.2243 H   0  0  0  0  0  0  0  0  0  0  0  0
    3.7942   22.4461   41.4641 H   0  0  0  0  0  0  0  0  0  0  0  0
   -0.7432   20.7514   45.0989 H   0  0  0  0  0  0  0  0  0  0  0  0
    1.6464   14.0291   36.7770 H   0  0  0  0  0  0  0  0  0  0  0  0
   -0.0791   14.0379   37.2702 H   0  0  0  0  0  0  0  0  0  0  0  0
    2.3874   18.9125   42.6797 H   0  0  0  0  0  0  0  0  0  0  0  0
    4.8432   19.6219   41.4202 H   0  0  0  0  0  0  0  0  0  0  0  0
    3.9154   20.3443   42.8721 H   0  0  0  0  0  0  0  0  0  0  0  0
    2.1531   17.6238   37.5956 H   0  0  0  0  0  0  0  0  0  0  0  0
    2.8578   16.0269   37.9901 H   0  0  0  0  0  0  0  0  0  0  0  0
    3.2453   18.9682   41.0176 H   0  0  0  0  0  0  0  0  0  0  0  0
   -3.0462   16.5419   47.9177 H   0  0  0  0  0  0  0  0  0  0  0  0
   -2.1640   17.8222   47.0430 H   0  0  0  0  0  0  0  0  0  0  0  0
    0.2861   14.1583   45.5389 H   0  0  0  0  0  0  0  0  0  0  0  0
    3.0385   18.1408   39.9524 H   0  0  0  0  0  0  0  0  0  0  0  0
    1.0014   16.1562   36.1368 H   0  0  0  0  0  0  0  0  0  0  0  0
   -0.1375   16.3430   37.5059 H   0  0  0  0  0  0  0  0  0  0  0  0
   -0.4102   15.6482   39.3751 H   0  0  0  0  0  0  0  0  0  0  0  0
    0.6218   15.2770   40.7800 H   0  0  0  0  0  0  0  0  0  0  0  0
    6.3385   22.2616   40.2910 H   0  0  0  0  0  0  0  0  0  0  0  0
    5.2771   20.9968   39.5836 H   0  0  0  0  0  0  0  0  0  0  0  0
    4.7506   22.7142   39.5836 H   0  0  0  0  0  0  0  0  0  0  0  0
    5.1559   21.8612   43.5766 H   0  0  0  0  0  0  0  0  0  0  0  0
    6.4638   21.2445   42.5109 H   0  0  0  0  0  0  0  0  0  0  0  0
    6.0551   22.9937   42.5109 H   0  0  0  0  0  0  0  0  0  0  0  0
    2.6780   14.0881   44.3356 H   0  0  0  0  0  0  0  0  0  0  0  0
    1.6812   13.7726   42.8750 H   0  0  0  0  0  0  0  0  0  0  0  0
    2.8747   15.1150   42.8750 H   0  0  0  0  0  0  0  0  0  0  0  0
    1.6200   20.4528   43.3681 H   0  0  0  0  0  0  0  0  0  0  0  0
    0.1719   20.1920   42.3040 H   0  0  0  0  0  0  0  0  0  0  0  0
   -0.6266   17.6425   43.5175 H   0  0  0  0  0  0  0  0  0  0  0  0
  1 28  1  0
  2  8  1  0
  2 30  1  0
  3 26  1  0
  4  1  1  0
  5 17  1  0
  5 32  1  0
  6 17  1  0
  7 11  1  0
  9 16  1  0
 10  5  1  0
 10  7  2  0
 11 21  2  0
 12 33  1  0
 12  3  2  0
 13 19  1  0
 13 26  2  0
 14 18  1  0
 14  6  1  0
 16 28  1  0
 16 25  1  0
 17  8  1  0
 18  6  1  0
 19 23  1  0
 21 22  1  0
 22 19  2  0
 23 15  2  0
 23 20  1  0
 24 14  2  0
 25 10  1  0
 27  4  1  0
 27  9  1  0
 29  2  1  0
 31 21  1  0
 32 12  1  0
 33 11  1  0
 33 13  1  0
  1 34  1  0
  1 35  1  0
  2 36  1  0
  3 37  1  0
  4 38  1  0
  4 39  1  0
  5 40  1  0
  8 41  1  0
  8 42  1  0
  9 43  1  0
  9 44  1  0
 17 45  1  0
 20 46  1  0
 20 47  1  0
 22 48  1  0
 25 49  1  0
 27 50  1  0
 27 51  1  0
 28 52  1  0
 28 53  1  0
 29 54  1  0
 29 55  1  0
 29 56  1  0
 30 57  1  0
 30 58  1  0
 30 59  1  0
 31 60  1  0
 31 61  1  0
 31 62  1  0
 32 63  1  0
 32 64  1  0
 33 65  1  0
M  CHG  1  32   1
M  END
>  <mol_id>  (63) 
2026-09-18-6fnk-s0-n100-refligand-0064

>  <rmsd_to_ref>  (63) 


$$$$

     RDKit          3D

 38 40  0  0  0  0  0  0  0  0999 V2000
    0.3170   18.7370   43.9700 C   0  0  0  0  0  0  0  0  0  0  0  0
    0.9620   19.2160   42.9500 C   0  0  0  0  0  0  0  0  0  0  0  0
   -0.3950   15.0460   45.1000 S   0  0  0  0  0  0  0  0  0  0  0  0
   -1.6050   17.0140   47.3460 C   0  0  0  0  0  0  0  0  0  0  0  0
    2.4600   20.4220   39.8010 C   0  0  0  0  0  0  0  0  0  0  0  0
   -0.4290   16.7880   45.2110 C   0  0  0  0  0  0  0  0  0  0  0  0
    0.9660   21.1270   41.4700 O   0  0  0  0  0  0  0  0  0  0  0  0
    1.8380   16.2950   42.4680 C   0  0  0  0  0  0  0  0  0  0  0  0
    1.7670   19.8090   41.7720 C   0  0  0  0  0  0  0  0  0  0  0  0
   -0.8660   18.8730   45.9770 C   0  0  0  0  0  0  0  0  0  0  0  0
   -0.0390   15.0790   43.6760 C   0  0  0  0  0  0  0  0  0  0  0  0
   -0.3210   19.4660   44.8690 C   0  0  0  0  0  0  0  0  0  0  0  0
   -0.9820   17.5590   46.1530 C   0  0  0  0  0  0  0  0  0  0  0  0
    0.7790   16.3880   43.5220 C   0  0  0  0  0  0  0  0  0  0  0  0
    2.2810   19.2540   40.5070 C   0  0  0  0  0  0  0  0  0  0  0  0
    0.2940   17.3340   44.1910 C   0  0  0  0  0  0  0  0  0  0  0  0
    1.6940   21.4520   40.3030 N   0  0  0  0  0  0  0  0  0  0  0  0
    3.2780   20.6070   38.5890 C   0  0  0  0  0  0  0  0  0  0  0  0
   -0.4410   20.7300   44.8440 O   0  0  0  0  0  0  0  0  0  0  0  0
   -0.5924   18.6553   43.3566 H   0  0  0  0  0  0  0  0  0  0  0  0
    1.0379   18.2103   42.5109 H   0  0  0  0  0  0  0  0  0  0  0  0
    0.3551   20.1322   42.9965 H   0  0  0  0  0  0  0  0  0  0  0  0
   -1.1210   17.4374   48.2385 H   0  0  0  0  0  0  0  0  0  0  0  0
   -2.6743   17.2719   47.3517 H   0  0  0  0  0  0  0  0  0  0  0  0
   -1.4916   15.9199   47.3517 H   0  0  0  0  0  0  0  0  0  0  0  0
    2.8248   16.2083   42.9463 H   0  0  0  0  0  0  0  0  0  0  0  0
    1.6551   15.4095   41.8416 H   0  0  0  0  0  0  0  0  0  0  0  0
    1.8123   17.1989   41.8416 H   0  0  0  0  0  0  0  0  0  0  0  0
    2.7747   19.6933   42.1976 H   0  0  0  0  0  0  0  0  0  0  0  0
   -1.2342   19.5300   46.7788 H   0  0  0  0  0  0  0  0  0  0  0  0
    0.5697   14.2037   43.4051 H   0  0  0  0  0  0  0  0  0  0  0  0
   -0.9209   15.0520   43.0191 H   0  0  0  0  0  0  0  0  0  0  0  0
    1.6295   17.0188   43.8199 H   0  0  0  0  0  0  0  0  0  0  0  0
    1.5493   18.5903   40.0231 H   0  0  0  0  0  0  0  0  0  0  0  0
    3.1773   18.6235   40.6029 H   0  0  0  0  0  0  0  0  0  0  0  0
    4.3133   20.8411   38.8776 H   0  0  0  0  0  0  0  0  0  0  0  0
    3.2637   19.6829   37.9924 H   0  0  0  0  0  0  0  0  0  0  0  0
    2.8675   21.4350   37.9924 H   0  0  0  0  0  0  0  0  0  0  0  0
  1  2  1  0
  1 16  1  0
  1 12  1  0
  3  6  1  0
  5 17  2  0
  5 15  1  0
  6 13  1  0
  7  9  1  0
  9  2  1  0
 10 13  2  0
 11  3  1  0
 12 10  1  0
 13  4  1  0
 14  8  1  0
 14 11  1  0
 14 16  1  0
 15  9  1  0
 16  6  2  0
 17  7  1  0
 18  5  1  0
 19 12  2  0
  1 20  1  0
  2 21  1  0
  2 22  1  0
  4 23  1  0
  4 24  1  0
  4 25  1  0
  8 26  1  0
  8 27  1  0
  8 28  1  0
  9 29  1  0
 10 30  1  0
 11 31  1  0
 11 32  1  0
 14 33  1  0
 15 34  1  0
 15 35  1  0
 18 36  1  0
 18 37  1  0
 18 38  1  0
M  END
>  <mol_id>  (64) 
2026-09-18-6fnk-s0-n100-refligand-0065

>  <rmsd_to_ref>  (64) 


$$$$

     RDKit          3D

 20 22  0  0  0  0  0  0  0  0999 V2000
    2.2640   19.2350   39.7760 C   0  0  0  0  0  0  0  0  0  0  0  0
    2.3250   16.6620   38.9070 Cl  0  0  0  0  0  0  0  0  0  0  0  0
   -0.6230   20.1470   44.8100 N   0  0  0  0  0  0  0  0  0  0  0  0
    0.1830   20.0150   43.7850 C   0  0  0  0  0  0  0  0  0  0  0  0
    1.9590   20.3190   40.6600 C   0  0  0  0  0  0  0  0  0  0  0  0
    1.9290   17.9040   39.9880 C   0  0  0  0  0  0  0  0  0  0  0  0
    1.3800   17.5460   41.3030 C   0  0  0  0  0  0  0  0  0  0  0  0
    0.1400   17.6950   44.8040 S   0  0  0  0  0  0  0  0  0  0  0  0
    1.0770   18.6410   42.1780 C   0  0  0  0  0  0  0  0  0  0  0  0
    0.6010   18.6690   43.4880 C   0  0  0  0  0  0  0  0  0  0  0  0
    0.7010   20.8700   42.7710 N   0  0  0  0  0  0  0  0  0  0  0  0
   -0.7150   19.0170   45.4250 C   0  0  0  0  0  0  0  0  0  0  0  0
    1.2320   20.0220   41.8220 C   0  0  0  0  0  0  0  0  0  0  0  0
    2.8092   19.4765   38.8517 H   0  0  0  0  0  0  0  0  0  0  0  0
    2.2827   21.3462   40.4363 H   0  0  0  0  0  0  0  0  0  0  0  0
    1.2114   16.5000   41.5988 H   0  0  0  0  0  0  0  0  0  0  0  0
    1.1931   17.7483   43.3797 H   0  0  0  0  0  0  0  0  0  0  0  0
    0.6830   21.8996   42.7507 H   0  0  0  0  0  0  0  0  0  0  0  0
   -0.3642   19.1771   46.4552 H   0  0  0  0  0  0  0  0  0  0  0  0
   -1.7720   18.7330   45.3154 H   0  0  0  0  0  0  0  0  0  0  0  0
  1  6  2  0
  1  5  1  0
  2  6  1  0
  3 12  1  0
  4  3  2  0
  5 13  2  0
  6  7  1  0
  7  9  2  0
  8 12  1  0
 10  9  1  0
 10  4  1  0
 10  8  1  0
 11  4  1  0
 13  9  1  0
 13 11  1  0
  1 14  1  0
  5 15  1  0
  7 16  1  0
 10 17  1  0
 11 18  1  0
 12 19  1  0
 12 20  1  0
M  END
>  <mol_id>  (65) 
2026-09-18-6fnk-s0-n100-refligand-0066

>  <rmsd_to_ref>  (65) 


$$$$

     RDKit          3D

 44 46  0  0  0  0  0  0  0  0999 V2000
    1.5450   20.2670   41.8710 C   0  0  0  0  0  0  0  0  0  0  0  0
   -0.9110   17.7300   45.3390 C   0  0  0  0  0  0  0  0  0  0  0  0
    3.0170   21.1350   38.4700 C   0  0  0  0  0  0  0  0  0  0  0  0
   -0.1090   19.4260   43.9650 C   0  0  0  0  0  0  0  0  0  0  0  0
    2.2530   20.8340   39.5520 C   0  0  0  0  0  0  0  0  0  0  0  0
    2.5220   20.7840   40.9030 C   0  0  0  0  0  0  0  0  0  0  0  0
   -0.5870   15.3040   46.2980 N   0  0  0  0  0  0  0  0  0  0  0  0
    0.7790   21.1290   42.6270 C   0  0  0  0  0  0  0  0  0  0  0  0
   -0.0060   15.4640   45.0900 C   0  0  0  0  0  0  0  0  0  0  0  0
    2.2790   15.3740   41.8180 C   0  0  0  0  0  0  0  0  0  0  0  0
   -1.0640   13.9820   46.6420 C   0  0  0  0  0  0  0  0  0  0  0  0
   -0.0410   16.8490   44.6580 C   0  0  0  0  0  0  0  0  0  0  0  0
    0.3710   14.5310   44.4360 O   0  0  0  0  0  0  0  0  0  0  0  0
    1.5010   18.9400   42.0420 N   0  0  0  0  0  0  0  0  0  0  0  0
    4.3930   21.2160   38.2870 C   0  0  0  0  0  0  0  0  0  0  0  0
   -0.8470   19.0230   45.0450 N   0  0  0  0  0  0  0  0  0  0  0  0
    6.5400   21.2640   38.9530 F   0  0  0  0  0  0  0  0  0  0  0  0
    2.1150   13.8420   41.7140 C   0  0  0  0  0  0  0  0  0  0  0  0
    1.6350   16.1130   42.5510 C   0  0  0  0  0  0  0  0  0  0  0  0
    0.7290   18.4650   43.1660 C   0  0  0  0  0  0  0  0  0  0  0  0
    0.7540   17.0880   43.4230 C   0  0  0  0  0  0  0  0  0  0  0  0
    5.2890   21.2450   39.3090 C   0  0  0  0  0  0  0  0  0  0  0  0
    5.0480   21.3180   40.7040 C   0  0  0  0  0  0  0  0  0  0  0  0
    6.0010   21.8090   41.4260 F   0  0  0  0  0  0  0  0  0  0  0  0
    3.8380   20.9790   41.3250 C   0  0  0  0  0  0  0  0  0  0  0  0
   -0.0360   20.7420   43.6100 N   0  0  0  0  0  0  0  0  0  0  0  0
   -1.9392   17.3985   45.1322 H   0  0  0  0  0  0  0  0  0  0  0  0
   -0.5916   17.6721   46.3900 H   0  0  0  0  0  0  0  0  0  0  0  0
    2.4348   21.3576   37.5636 H   0  0  0  0  0  0  0  0  0  0  0  0
    1.4221   21.5517   39.4844 H   0  0  0  0  0  0  0  0  0  0  0  0
    2.2500   19.7455   39.3934 H   0  0  0  0  0  0  0  0  0  0  0  0
   -0.6871   16.0942   46.9510 H   0  0  0  0  0  0  0  0  0  0  0  0
    0.8440   22.2045   42.4055 H   0  0  0  0  0  0  0  0  0  0  0  0
    3.0411   15.8419   41.1775 H   0  0  0  0  0  0  0  0  0  0  0  0
   -1.1012   13.8789   47.7365 H   0  0  0  0  0  0  0  0  0  0  0  0
   -2.0716   13.8359   46.2255 H   0  0  0  0  0  0  0  0  0  0  0  0
   -0.3819   13.2262   46.2255 H   0  0  0  0  0  0  0  0  0  0  0  0
   -0.8437   16.6066   43.9460 H   0  0  0  0  0  0  0  0  0  0  0  0
    4.7782   21.2590   37.2575 H   0  0  0  0  0  0  0  0  0  0  0  0
    2.0686   13.4088   42.7240 H   0  0  0  0  0  0  0  0  0  0  0  0
    1.1867   13.6086   41.1719 H   0  0  0  0  0  0  0  0  0  0  0  0
    2.9728   13.4174   41.1719 H   0  0  0  0  0  0  0  0  0  0  0  0
   -0.1423   18.3266   42.5090 H   0  0  0  0  0  0  0  0  0  0  0  0
    3.9538   20.8305   42.4088 H   0  0  0  0  0  0  0  0  0  0  0  0
  1 14  2  0
  1  8  1  0
  3  5  1  0
  4 16  2  0
  5  6  1  0
  6 25  2  0
  6  1  1  0
  7 11  1  0
  8 26  2  0
  9  7  1  0
 10 19  2  0
 12  9  1  0
 12  2  1  0
 13  9  2  0
 15  3  2  0
 15 22  1  0
 16  2  1  0
 17 22  1  0
 18 10  1  0
 19 21  2  0
 20 14  1  0
 20 21  1  0
 20  4  1  0
 21 12  1  0
 22 23  2  0
 23 25  1  0
 23 24  1  0
 26  4  1  0
  2 27  1  0
  2 28  1  0
  3 29  1  0
  5 30  1  0
  5 31  1  0
  7 32  1  0
  8 33  1  0
 10 34  1  0
 11 35  1  0
 11 36  1  0
 11 37  1  0
 12 38  1  0
 15 39  1  0
 18 40  1  0
 18 41  1  0
 18 42  1  0
 20 43  1  0
 25 44  1  0
M  END
>  <mol_id>  (66) 
2026-09-18-6fnk-s0-n100-refligand-0067

>  <rmsd_to_ref>  (66) 


$$$$

     RDKit          3D

 36 35  0  0  0  0  0  0  0  0999 V2000
    0.1380   16.9800   45.1890 O   0  0  0  0  0  0  0  0  0  0  0  0
    0.4070   15.8950   44.3660 C   0  0  0  0  0  0  0  0  0  0  0  0
    3.5520   21.0330   39.8070 N   0  0  0  0  0  0  0  0  0  0  0  0
    2.0400   14.5870   43.0070 C   0  0  0  0  0  0  0  0  0  0  0  0
    1.7780   19.0960   41.3880 N   0  0  0  0  0  4  0  0  0  0  0  0
    1.3600   16.9630   42.2550 C   0  0  0  0  0  0  0  0  0  0  0  0
    1.1180   18.5200   42.4250 C   0  0  0  0  0  0  0  0  0  0  0  0
   -0.1380   14.8390   44.7000 O   0  0  0  0  0  0  0  0  0  0  0  0
    3.0930   20.3000   38.7590 O   0  0  0  0  0  0  0  0  0  0  0  0
    0.4590   19.4090   43.2390 C   0  0  0  0  0  0  0  0  0  0  0  0
   -0.2950   20.3720   43.7170 N   0  0  0  0  0  4  0  0  0  0  0  0
    3.5430   20.7150   41.9930 O   0  0  0  0  0  0  0  0  0  0  0  0
    1.2010   15.9150   43.2710 C   0  0  0  0  0  0  0  0  0  0  0  0
    2.9080   20.7490   40.8730 C   0  0  0  0  0  0  0  0  0  0  0  0
   -1.0160   17.0490   46.0720 C   0  0  0  0  0  0  0  0  0  0  0  0
    1.7110   20.3850   40.7680 C   0  0  0  0  0  0  0  0  0  0  0  0
    1.8730   16.6900   41.2170 O   0  0  0  0  0  0  0  0  0  0  0  0
    4.3146   21.7230   39.7497 H   0  0  0  0  0  0  0  0  0  0  0  0
    2.3249   14.1360   43.9690 H   0  0  0  0  0  0  0  0  0  0  0  0
    1.4279   13.8742   42.4349 H   0  0  0  0  0  0  0  0  0  0  0  0
    2.9465   14.8337   42.4349 H   0  0  0  0  0  0  0  0  0  0  0  0
    2.7660   19.0227   41.6697 H   0  0  0  0  0  0  0  0  0  0  0  0
    1.2572   18.6015   40.6496 H   0  0  0  0  0  0  0  0  0  0  0  0
    0.2110   18.4465   41.8069 H   0  0  0  0  0  0  0  0  0  0  0  0
    2.5995   19.5118   39.0986 H   0  0  0  0  0  0  0  0  0  0  0  0
   -0.0002   18.6270   43.8616 H   0  0  0  0  0  0  0  0  0  0  0  0
    1.1023   20.1940   42.8149 H   0  0  0  0  0  0  0  0  0  0  0  0
   -0.2742   20.3455   44.7464 H   0  0  0  0  0  0  0  0  0  0  0  0
    0.0611   21.2814   43.3897 H   0  0  0  0  0  0  0  0  0  0  0  0
   -1.2633   20.2445   43.3897 H   0  0  0  0  0  0  0  0  0  0  0  0
    0.3569   15.4943   42.7049 H   0  0  0  0  0  0  0  0  0  0  0  0
   -0.6785   17.0288   47.1187 H   0  0  0  0  0  0  0  0  0  0  0  0
   -1.5675   17.9817   45.8825 H   0  0  0  0  0  0  0  0  0  0  0  0
   -1.6747   16.1886   45.8825 H   0  0  0  0  0  0  0  0  0  0  0  0
    1.0316   21.0610   41.3078 H   0  0  0  0  0  0  0  0  0  0  0  0
    1.3205   20.3806   39.7397 H   0  0  0  0  0  0  0  0  0  0  0  0
  1 15  1  0
  2  8  2  0
  2  1  1  0
  3 14  1  0
  5  7  1  0
  6  7  1  0
  6 13  1  0
  7 10  1  0
  9  3  1  0
 10 11  1  0
 13  4  1  0
 13  2  1  0
 14 12  2  0
 16 14  1  0
 16  5  1  0
 17  6  2  0
  3 18  1  0
  4 19  1  0
  4 20  1  0
  4 21  1  0
  5 22  1  0
  5 23  1  0
  7 24  1  0
  9 25  1  0
 10 26  1  0
 10 27  1  0
 11 28  1  0
 11 29  1  0
 11 30  1  0
 13 31  1  0
 15 32  1  0
 15 33  1  0
 15 34  1  0
 16 35  1  0
 16 36  1  0
M  CHG  2   5   1  11   1
M  END
>  <mol_id>  (67) 
2026-09-18-6fnk-s0-n100-refligand-0068

>  <rmsd_to_ref>  (67) 


$$$$

     RDKit          3D

 58 61  0  0  0  0  0  0  0  0999 V2000
    4.9480   21.7570   40.2650 C   0  0  0  0  0  0  0  0  0  0  0  0
   -2.0890   16.1490   47.3750 C   0  0  0  0  0  0  0  0  0  0  0  0
    2.3480   15.6580   41.4250 C   0  0  0  0  0  0  0  0  0  0  0  0
    0.8110   17.9200   44.5070 N   0  0  0  0  0  0  0  0  0  0  0  0
    4.4360   21.4320   38.1570 N   0  0  0  0  0  0  0  0  0  0  0  0
    2.4350   17.8320   40.3980 C   0  0  0  0  0  0  0  0  0  0  0  0
   -1.3420   17.3230   46.7160 C   0  0  0  0  0  0  0  0  0  0  0  0
    2.8380   20.0610   37.5850 O   0  0  0  0  0  0  0  0  0  0  0  0
   -0.1230   18.3270   45.4330 C   0  0  0  0  0  0  0  0  0  0  0  0
    2.1580   18.3180   41.8560 C   0  0  0  0  0  0  0  0  0  0  0  0
   -3.4970   14.4030   48.8690 N   0  0  0  0  0  4  0  0  0  0  0  0
   -0.4640   15.7580   45.2190 C   0  0  0  0  0  0  0  0  0  0  0  0
    3.3280   20.2170   39.7310 N   0  0  0  0  0  0  0  0  0  0  0  0
   -0.1670   19.8080   45.6890 C   0  0  0  0  0  0  0  0  0  0  0  0
    3.6590   20.2280   41.8690 O   0  0  0  0  0  0  0  0  0  0  0  0
    3.9760   20.8340   40.6110 C   0  0  0  0  0  0  0  0  0  0  0  0
   -0.9570   14.6680   46.0180 C   0  0  0  0  0  0  0  0  0  0  0  0
    1.7890   17.4390   42.6130 C   0  0  0  0  0  0  0  0  0  0  0  0
    2.0700   16.0770   42.7020 C   0  0  0  0  0  0  0  0  0  0  0  0
    2.4130   16.5260   40.3570 C   0  0  0  0  0  0  0  0  0  0  0  0
   -1.8010   15.0450   47.0440 C   0  0  0  0  0  0  0  0  0  0  0  0
    3.5390   20.5430   38.4910 C   0  0  0  0  0  0  0  0  0  0  0  0
    2.8320   14.2570   41.2710 N   0  0  0  0  0  4  0  0  0  0  0  0
   -2.5330   14.9830   47.9630 C   0  0  0  0  0  0  0  0  0  0  0  0
   -0.6450   20.5590   44.5850 O   0  0  0  0  0  0  0  0  0  0  0  0
    2.4650   19.4050   41.5990 C   0  0  0  0  0  0  0  0  0  0  0  0
   -0.6870   17.1360   45.7080 C   0  0  0  0  0  0  0  0  0  0  0  0
    5.1380   22.0000   38.9770 C   0  0  0  0  0  0  0  0  0  0  0  0
    1.4700   18.3460   43.8700 C   0  0  0  0  0  0  0  0  0  0  0  0
    4.6797   22.7108   40.7428 H   0  0  0  0  0  0  0  0  0  0  0  0
    5.8921   21.3055   40.6040 H   0  0  0  0  0  0  0  0  0  0  0  0
    1.2968   15.6880   41.1025 H   0  0  0  0  0  0  0  0  0  0  0  0
    1.6613   18.2319   39.7261 H   0  0  0  0  0  0  0  0  0  0  0  0
    3.4243   18.1898   40.0767 H   0  0  0  0  0  0  0  0  0  0  0  0
   -1.4005   18.3295   47.1560 H   0  0  0  0  0  0  0  0  0  0  0  0
    3.1984   18.0889   42.1300 H   0  0  0  0  0  0  0  0  0  0  0  0
   -3.2042   14.5792   49.8407 H   0  0  0  0  0  0  0  0  0  0  0  0
   -4.4206   14.8288   48.7062 H   0  0  0  0  0  0  0  0  0  0  0  0
   -3.5535   13.3875   48.7062 H   0  0  0  0  0  0  0  0  0  0  0  0
    0.0635   15.5720   44.2718 H   0  0  0  0  0  0  0  0  0  0  0  0
   -0.8280   19.9933   46.5485 H   0  0  0  0  0  0  0  0  0  0  0  0
    0.8661   20.1343   45.8793 H   0  0  0  0  0  0  0  0  0  0  0  0
   -0.6839   13.6196   45.8272 H   0  0  0  0  0  0  0  0  0  0  0  0
    1.1203   16.7381   42.0919 H   0  0  0  0  0  0  0  0  0  0  0  0
    1.2005   15.5337   43.1006 H   0  0  0  0  0  0  0  0  0  0  0  0
    2.9157   15.8861   43.3790 H   0  0  0  0  0  0  0  0  0  0  0  0
    1.5377   16.2781   39.7387 H   0  0  0  0  0  0  0  0  0  0  0  0
    3.4534   16.3446   40.0492 H   0  0  0  0  0  0  0  0  0  0  0  0
    2.9763   13.8394   42.2014 H   0  0  0  0  0  0  0  0  0  0  0  0
    2.1322   13.7070   40.7526 H   0  0  0  0  0  0  0  0  0  0  0  0
    3.7220   14.2563   40.7526 H   0  0  0  0  0  0  0  0  0  0  0  0
   -2.9077   14.3106   48.7487 H   0  0  0  0  0  0  0  0  0  0  0  0
   -1.1464   21.3467   44.9140 H   0  0  0  0  0  0  0  0  0  0  0  0
    2.3909   19.4297   40.5018 H   0  0  0  0  0  0  0  0  0  0  0  0
    1.8408   19.8733   42.3743 H   0  0  0  0  0  0  0  0  0  0  0  0
    5.9179   22.7041   38.6513 H   0  0  0  0  0  0  0  0  0  0  0  0
    2.4081   18.5368   44.4118 H   0  0  0  0  0  0  0  0  0  0  0  0
    1.0145   19.2756   43.4981 H   0  0  0  0  0  0  0  0  0  0  0  0
  1 16  1  0
  2 24  1  0
  3 23  1  0
  3 19  1  0
  4  9  2  3
  5 22  1  0
  5 28  2  0
  6 10  1  0
  7  2  2  0
  8 22  2  0
  9 14  1  0
  9 27  1  0
 10 26  1  0
 10 18  1  0
 12 27  2  0
 12 17  1  0
 13 16  2  0
 16 15  1  0
 17 21  2  0
 18 19  1  0
 18 29  1  0
 20  6  1  0
 20  3  1  0
 21  2  1  0
 21 24  1  0
 22 13  1  0
 24 11  1  0
 25 14  1  0
 26 15  1  0
 27  7  1  0
 28  1  1  0
 29  4  1  0
  1 30  1  0
  1 31  1  0
  3 32  1  0
  6 33  1  0
  6 34  1  0
  7 35  1  0
 10 36  1  0
 11 37  1  0
 11 38  1  0
 11 39  1  0
 12 40  1  0
 14 41  1  0
 14 42  1  0
 17 43  1  0
 18 44  1  0
 19 45  1  0
 19 46  1  0
 20 47  1  0
 20 48  1  0
 23 49  1  0
 23 50  1  0
 23 51  1  0
 24 52  1  0
 25 53  1  0
 26 54  1  0
 26 55  1  0
 28 56  1  0
 29 57  1  0
 29 58  1  0
M  CHG  2  11   1  23   1
M  END
>  <mol_id>  (68) 
2026-09-18-6fnk-s0-n100-refligand-0070

>  <rmsd_to_ref>  (68) 


$$$$

     RDKit          3D

 20 21  0  0  0  0  0  0  0  0999 V2000
    0.9860   16.0650   43.8050 N   0  0  0  0  0  0  0  0  0  0  0  0
   -0.6160   20.6820   44.3750 O   0  0  0  0  0  0  0  0  0  0  0  0
    2.9760   15.1450   40.9990 C   0  0  0  0  0  0  0  0  0  0  0  0
    1.5120   18.7950   42.4040 C   0  0  0  0  0  0  0  0  0  0  0  0
    2.2440   15.0700   42.0590 C   0  0  0  0  0  0  0  0  0  0  0  0
    2.0070   17.4990   42.0790 C   0  0  0  0  0  0  0  0  0  0  0  0
    1.6790   16.2400   42.6870 C   0  0  0  0  0  0  0  0  0  0  0  0
    2.8510   17.4710   41.0510 N   0  0  0  0  0  0  0  0  0  0  0  0
   -0.7810   19.6240   44.9820 N   0  0  0  0  0  0  0  0  0  0  0  0
    0.1560   20.5570   43.2650 N   0  0  0  0  0  0  0  0  0  0  0  0
   -0.0200   18.7030   44.3490 N   0  0  0  0  0  0  0  0  0  0  0  0
    1.9900   19.8240   41.7560 O   0  0  0  0  0  0  0  0  0  0  0  0
    3.2790   16.3240   40.4350 N   0  0  0  0  0  0  0  0  0  0  0  0
    0.5440   19.1130   43.4100 C   0  0  0  0  0  0  0  0  0  0  0  0
    0.5669   16.8752   44.2833 H   0  0  0  0  0  0  0  0  0  0  0  0
    0.8672   15.1189   44.1945 H   0  0  0  0  0  0  0  0  0  0  0  0
    3.3611   14.2193   40.5466 H   0  0  0  0  0  0  0  0  0  0  0  0
    2.3165   18.8899   43.1481 H   0  0  0  0  0  0  0  0  0  0  0  0
    2.0441   14.0816   42.4984 H   0  0  0  0  0  0  0  0  0  0  0  0
    2.3057   20.5037   42.4029 H   0  0  0  0  0  0  0  0  0  0  0  0
  2  9  1  0
  3  5  2  0
  4 12  1  0
  4 14  1  0
  5  7  1  0
  6  4  1  0
  6  7  2  0
  7  1  1  0
  8  6  1  0
 10 14  2  0
 10  2  1  0
 11  9  2  0
 13  3  1  0
 13  8  2  0
 14 11  1  0
  1 15  1  0
  1 16  1  0
  3 17  1  0
  4 18  1  0
  5 19  1  0
 12 20  1  0
M  END
>  <mol_id>  (69) 
2026-09-18-6fnk-s0-n100-refligand-0071

>  <rmsd_to_ref>  (69) 


$$$$

     RDKit          3D

 55 57  0  0  0  0  0  0  0  0999 V2000
   -0.9350   18.5350   45.8250 C   0  0  0  0  0  0  0  0  0  0  0  0
   -1.4470   17.4090   44.8790 C   0  0  0  0  0  0  0  0  0  0  0  0
    0.8820   20.1000   42.8410 C   0  0  0  0  0  0  0  0  0  0  0  0
    1.7930   16.5110   39.3460 C   0  0  0  0  0  0  0  0  0  0  0  0
    3.2490   17.7250   41.2410 C   0  0  0  0  0  0  0  0  0  0  0  0
    0.2440   21.1110   43.5120 C   0  0  0  0  0  0  0  0  0  0  0  0
    0.5840   14.6090   43.8940 C   0  0  0  0  0  0  0  0  0  0  0  0
    0.1180   15.6660   44.6680 C   0  0  0  0  0  0  0  0  0  0  0  0
    2.7230   16.6780   37.9920 O   0  0  0  0  0  0  0  0  0  0  0  0
   -0.4810   20.7290   44.7400 O   0  0  0  0  0  0  0  0  0  0  0  0
    0.5040   19.0010   43.7660 C   0  0  0  0  0  0  0  0  0  0  0  0
    0.0450   17.7140   43.1790 C   0  0  0  0  0  0  0  0  0  0  0  0
   -0.0550   19.4690   45.0420 C   0  0  0  0  0  0  0  0  0  0  0  0
    3.1520   14.1050   41.1200 C   0  0  0  0  0  0  0  0  0  0  0  0
    1.9810   20.4840   40.5000 C   0  0  0  0  0  0  0  0  0  0  0  0
    3.4470   15.4780   40.4230 C   0  0  0  0  0  0  0  0  0  0  0  0
    2.8150   14.2570   42.6320 C   0  0  0  0  0  0  0  0  0  0  0  0
    1.4400   14.7400   42.6250 C   0  0  0  0  0  0  0  0  0  0  0  0
   -0.4050   16.7820   44.2120 N   0  0  0  0  0  0  0  0  0  0  0  0
    2.3560   16.4960   40.7910 C   0  0  0  0  0  0  0  0  0  0  0  0
    2.9080   18.9030   42.1550 C   0  0  0  0  0  0  0  0  0  0  0  0
    1.7480   19.8330   41.8340 C   0  0  0  0  0  0  0  0  0  0  0  0
   -1.7915   19.0911   46.2339 H   0  0  0  0  0  0  0  0  0  0  0  0
   -0.3630   18.0927   46.6540 H   0  0  0  0  0  0  0  0  0  0  0  0
   -1.9883   16.6608   45.4767 H   0  0  0  0  0  0  0  0  0  0  0  0
   -2.1064   17.8679   44.1276 H   0  0  0  0  0  0  0  0  0  0  0  0
    1.0719   17.3411   39.3161 H   0  0  0  0  0  0  0  0  0  0  0  0
    1.4593   15.4680   39.2419 H   0  0  0  0  0  0  0  0  0  0  0  0
    3.5523   18.1976   40.2951 H   0  0  0  0  0  0  0  0  0  0  0  0
    3.9025   17.1824   41.9399 H   0  0  0  0  0  0  0  0  0  0  0  0
    0.2708   22.1510   43.1546 H   0  0  0  0  0  0  0  0  0  0  0  0
    1.1755   13.9852   44.5803 H   0  0  0  0  0  0  0  0  0  0  0  0
   -0.3621   14.2624   43.4526 H   0  0  0  0  0  0  0  0  0  0  0  0
   -0.6543   15.2295   45.3184 H   0  0  0  0  0  0  0  0  0  0  0  0
    1.0723   16.0499   45.0577 H   0  0  0  0  0  0  0  0  0  0  0  0
    3.6623   16.8467   38.2555 H   0  0  0  0  0  0  0  0  0  0  0  0
    1.4632   18.5751   44.0953 H   0  0  0  0  0  0  0  0  0  0  0  0
   -0.7890   17.9131   42.4899 H   0  0  0  0  0  0  0  0  0  0  0  0
    0.8925   17.2562   42.6478 H   0  0  0  0  0  0  0  0  0  0  0  0
    0.6850   19.4918   45.8556 H   0  0  0  0  0  0  0  0  0  0  0  0
    4.0392   13.4624   41.0204 H   0  0  0  0  0  0  0  0  0  0  0  0
    2.2725   13.6652   40.6270 H   0  0  0  0  0  0  0  0  0  0  0  0
    2.3481   21.5098   40.6517 H   0  0  0  0  0  0  0  0  0  0  0  0
    2.7283   19.9068   39.9358 H   0  0  0  0  0  0  0  0  0  0  0  0
    1.0371   20.5121   39.9358 H   0  0  0  0  0  0  0  0  0  0  0  0
    3.4619   15.3376   39.3321 H   0  0  0  0  0  0  0  0  0  0  0  0
    4.4232   15.8544   40.7626 H   0  0  0  0  0  0  0  0  0  0  0  0
    2.8898   13.2900   43.1510 H   0  0  0  0  0  0  0  0  0  0  0  0
    3.5046   14.9323   43.1598 H   0  0  0  0  0  0  0  0  0  0  0  0
    1.4785   15.8104   42.3745 H   0  0  0  0  0  0  0  0  0  0  0  0
    0.9376   14.0765   41.9058 H   0  0  0  0  0  0  0  0  0  0  0  0
    1.5718   16.3901   41.5551 H   0  0  0  0  0  0  0  0  0  0  0  0
    2.7029   18.4786   43.1489 H   0  0  0  0  0  0  0  0  0  0  0  0
    3.7833   19.5594   42.0406 H   0  0  0  0  0  0  0  0  0  0  0  0
    0.6804   19.7604   41.5789 H   0  0  0  0  0  0  0  0  0  0  0  0
  2  1  1  0
  3  6  2  0
  3 11  1  0
  5 21  1  0
  6 10  1  0
  7  8  1  0
  9  4  1  0
 10 13  1  0
 11 12  1  0
 11 13  1  0
 13  1  1  0
 14 17  1  0
 16 20  1  0
 16 14  1  0
 18 17  1  0
 18  7  1  0
 19 12  1  0
 19  8  1  0
 19  2  1  0
 20  4  1  0
 20  5  1  0
 22 15  1  0
 22 21  1  0
 22  3  1  0
  1 23  1  0
  1 24  1  0
  2 25  1  0
  2 26  1  0
  4 27  1  0
  4 28  1  0
  5 29  1  0
  5 30  1  0
  6 31  1  0
  7 32  1  0
  7 33  1  0
  8 34  1  0
  8 35  1  0
  9 36  1  0
 11 37  1  0
 12 38  1  0
 12 39  1  0
 13 40  1  0
 14 41  1  0
 14 42  1  0
 15 43  1  0
 15 44  1  0
 15 45  1  0
 16 46  1  0
 16 47  1  0
 17 48  1  0
 17 49  1  0
 18 50  1  0
 18 51  1  0
 20 52  1  0
 21 53  1  0
 21 54  1  0
 22 55  1  0
M  END
>  <mol_id>  (70) 
2026-09-18-6fnk-s0-n100-refligand-0072

>  <rmsd_to_ref>  (70) 


$$$$

     RDKit          3D

 19 21  0  0  0  0  0  0  0  0999 V2000
    0.4750   18.2070   44.4650 C   0  0  0  0  0  0  0  0  0  0  0  0
    0.7440   17.0020   44.8510 C   0  0  0  0  0  0  0  0  0  0  0  0
    2.0960   17.0160   41.6200 N   0  0  0  0  0  0  0  0  0  0  0  0
   -0.2970   20.5500   44.1380 C   0  0  0  0  0  0  0  0  0  0  0  0
    1.3300   16.3250   43.8290 N   0  0  0  0  0  0  0  0  0  0  0  0
    0.3910   20.5410   42.8540 C   0  0  0  0  0  0  0  0  0  0  0  0
    1.0430   18.3810   43.2390 C   0  0  0  0  0  0  0  0  0  0  0  0
   -0.5950   19.3960   46.1030 N   0  0  0  0  0  0  0  0  0  0  0  0
    1.5740   17.1680   42.8250 C   0  0  0  0  0  0  0  0  0  0  0  0
    1.7510   19.3360   41.2200 N   0  0  0  0  0  0  0  0  0  0  0  0
    1.0890   19.4230   42.4520 C   0  0  0  0  0  0  0  0  0  0  0  0
    2.1370   18.1020   40.8690 C   0  0  0  0  0  0  0  0  0  0  0  0
   -0.1300   19.4320   44.8960 C   0  0  0  0  0  0  0  0  0  0  0  0
    0.5319   16.5905   45.8488 H   0  0  0  0  0  0  0  0  0  0  0  0
   -0.9088   21.4011   44.4717 H   0  0  0  0  0  0  0  0  0  0  0  0
    0.3533   21.4279   42.2044 H   0  0  0  0  0  0  0  0  0  0  0  0
   -1.0493   20.2285   46.5049 H   0  0  0  0  0  0  0  0  0  0  0  0
   -0.5108   18.5349   46.6618 H   0  0  0  0  0  0  0  0  0  0  0  0
    2.5292   17.9804   39.8485 H   0  0  0  0  0  0  0  0  0  0  0  0
  1  2  1  0
  1 13  2  0
  3  9  1  0
  4 13  1  0
  5  2  2  0
  6  4  2  0
  7  1  1  0
  9  7  2  0
  9  5  1  0
 10 11  2  0
 11  6  1  0
 11  7  1  0
 12 10  1  0
 12  3  2  0
 13  8  1  0
  2 14  1  0
  4 15  1  0
  6 16  1  0
  8 17  1  0
  8 18  1  0
 12 19  1  0
M  END
>  <mol_id>  (71) 
2026-09-18-6fnk-s0-n100-refligand-0073

>  <rmsd_to_ref>  (71) 


$$$$

     RDKit          3D

 39 43  0  0  0  0  0  0  0  0999 V2000
    1.0090   14.3110   43.1260 O   0  0  0  0  0  0  0  0  0  0  0  0
    4.6440   21.9740   39.1770 C   0  0  0  0  0  0  0  0  0  0  0  0
   -0.1330   19.4990   44.2060 C   0  0  0  0  0  0  0  0  0  0  0  0
    0.4810   18.4310   43.6040 C   0  0  0  0  0  0  0  0  0  0  0  0
    0.6070   15.8790   42.8610 C   0  0  0  0  0  0  0  0  0  0  0  0
    3.6450   13.4420   40.2490 O   0  0  0  0  0  0  0  0  0  0  0  0
    2.7060   20.3000   40.3070 C   0  0  0  0  0  0  0  0  0  0  0  0
    1.5890   13.8270   39.4820 O   0  0  0  0  0  0  0  0  0  0  0  0
   -0.6650   18.0610   45.8980 C   0  0  0  0  0  0  0  0  0  0  0  0
    0.3590   17.2360   44.1800 C   0  0  0  0  0  0  0  0  0  0  0  0
    3.4210   21.6550   38.5400 C   0  0  0  0  0  0  0  0  0  0  0  0
    3.8340   20.7710   41.0880 C   0  0  0  0  0  0  0  0  0  0  0  0
   -0.1080   20.7670   43.5060 C   0  0  0  0  0  0  0  0  0  0  0  0
   -0.7220   19.2600   45.3780 N   0  0  0  0  0  0  0  0  0  0  0  0
   -0.1880   17.0720   45.3250 N   0  0  0  0  0  0  0  0  0  0  0  0
    1.5470   18.6600   42.7430 C   0  0  0  0  0  0  0  0  0  0  0  0
    1.1860   19.7690   41.7630 C   0  0  0  0  0  0  0  0  0  0  0  0
    3.3960   15.8540   40.2300 O   0  0  0  0  0  0  0  0  0  0  0  0
    4.2270   20.3730   42.5950 Cl  0  0  0  0  0  0  0  0  0  0  0  0
    2.4640   20.8560   39.0800 C   0  0  0  0  0  0  0  0  0  0  0  0
    0.6100   20.8650   42.3890 C   0  0  0  0  0  0  0  0  0  0  0  0
    2.1120   16.2560   42.3010 C   0  0  0  0  0  0  0  0  0  0  0  0
    1.8170   19.4570   40.7490 O   0  0  0  0  0  0  0  0  0  0  0  0
    2.3030   17.5610   42.1200 O   0  0  0  0  0  0  0  0  0  0  0  0
    4.8360   21.5680   40.4630 C   0  0  0  0  0  0  0  0  0  0  0  0
    2.1370   15.5480   41.0260 C   0  0  0  0  0  0  0  0  0  0  0  0
    2.7360   14.5460   40.1440 P   0  0  0  0  0  5  0  0  0  0  0  0
    1.0524   14.1416   44.1004 H   0  0  0  0  0  0  0  0  0  0  0  0
    5.4236   22.5383   38.6444 H   0  0  0  0  0  0  0  0  0  0  0  0
   -0.3770   15.8947   42.3696 H   0  0  0  0  0  0  0  0  0  0  0  0
    3.8107   13.2407   41.2040 H   0  0  0  0  0  0  0  0  0  0  0  0
   -1.0677   17.9218   46.9121 H   0  0  0  0  0  0  0  0  0  0  0  0
    3.2332   22.0814   37.5436 H   0  0  0  0  0  0  0  0  0  0  0  0
   -0.6706   21.6310   43.8893 H   0  0  0  0  0  0  0  0  0  0  0  0
    1.5219   20.6616   38.5465 H   0  0  0  0  0  0  0  0  0  0  0  0
    0.7530   21.8600   41.9423 H   0  0  0  0  0  0  0  0  0  0  0  0
    2.9056   15.9749   43.0089 H   0  0  0  0  0  0  0  0  0  0  0  0
    5.7482   21.8504   41.0091 H   0  0  0  0  0  0  0  0  0  0  0  0
    1.0598   15.5464   41.2486 H   0  0  0  0  0  0  0  0  0  0  0  0
  2 25  2  0
  3 14  1  0
  4 10  1  0
  4  3  1  0
  5  1  1  0
  5 10  1  0
  7 23  1  0
  7 12  2  0
 10 15  2  0
 11 20  2  0
 11  2  1  0
 12 19  1  0
 13  3  2  0
 14  9  2  0
 15  9  1  0
 16  4  2  0
 17 21  2  0
 17 16  1  0
 20  7  1  0
 21 13  1  0
 22 24  1  0
 22  5  1  0
 23 17  1  0
 24 16  1  0
 25 12  1  0
 26 18  1  0
 26 22  1  0
 27  8  2  0
 27 18  1  0
 27  6  1  0
 27 26  1  0
  1 28  1  0
  2 29  1  0
  5 30  1  0
  6 31  1  0
  9 32  1  0
 11 33  1  0
 13 34  1  0
 20 35  1  0
 21 36  1  0
 22 37  1  0
 25 38  1  0
 26 39  1  0
M  END
>  <mol_id>  (72) 
2026-09-18-6fnk-s0-n100-refligand-0074

>  <rmsd_to_ref>  (72) 


$$$$

     RDKit          3D

 42 44  0  0  0  0  0  0  0  0999 V2000
   -0.8570   18.0140   45.8460 C   0  0  0  0  0  0  0  0  0  0  0  0
    0.3530   16.1800   40.5080 C   0  0  0  0  0  0  0  0  0  0  0  0
   -0.8420   19.3130   45.3410 C   0  0  0  0  0  0  0  0  0  0  0  0
   -0.1730   19.6350   44.1280 C   0  0  0  0  0  0  0  0  0  0  0  0
   -0.0760   17.1310   45.0890 C   0  0  0  0  0  0  0  0  0  0  0  0
    2.1520   20.3050   39.9400 C   0  0  0  0  0  0  0  0  0  0  0  0
    0.7270   17.2610   39.4870 C   0  0  0  0  0  0  0  0  0  0  0  0
    2.5790   17.0020   41.2410 C   0  0  0  0  0  0  0  0  0  0  0  0
    1.3470   18.7960   42.5390 N   0  0  0  0  0  0  0  0  0  0  0  0
    0.2990   17.4530   44.0300 C   0  0  0  0  0  0  0  0  0  0  0  0
   -0.0470   20.8730   43.5570 N   0  0  0  0  0  0  0  0  0  0  0  0
    4.2550   21.4250   39.4190 C   0  0  0  0  0  0  0  0  0  0  0  0
   -1.4090   17.7150   46.9930 F   0  0  0  0  0  0  0  0  0  0  0  0
    1.4240   15.9420   41.5460 C   0  0  0  0  0  0  0  0  0  0  0  0
    0.5710   18.6420   43.5120 C   0  0  0  0  0  0  0  0  0  0  0  0
    2.5610   20.1380   41.1960 C   0  0  0  0  0  0  0  0  0  0  0  0
    2.0430   17.2400   38.8980 N   0  0  0  0  0  0  0  0  0  0  0  0
    4.6840   21.0830   40.6400 C   0  0  0  0  0  0  0  0  0  0  0  0
    2.9840   21.0060   39.0570 C   0  0  0  0  0  0  0  0  0  0  0  0
    3.0030   16.8990   39.9330 N   0  0  0  0  0  0  0  0  0  0  0  0
    0.7750   21.0490   42.6110 C   0  0  0  0  0  0  0  0  0  0  0  0
    1.5230   19.9540   42.1460 C   0  0  0  0  0  0  0  0  0  0  0  0
    3.8730   20.3890   41.5480 C   0  0  0  0  0  0  0  0  0  0  0  0
    0.1737   15.2380   39.9691 H   0  0  0  0  0  0  0  0  0  0  0  0
   -0.5438   16.5307   41.0398 H   0  0  0  0  0  0  0  0  0  0  0  0
   -1.3608   20.1094   45.8947 H   0  0  0  0  0  0  0  0  0  0  0  0
    0.1829   16.1397   45.4893 H   0  0  0  0  0  0  0  0  0  0  0  0
    1.1850   19.9027   39.6039 H   0  0  0  0  0  0  0  0  0  0  0  0
    0.0032   17.1894   38.6618 H   0  0  0  0  0  0  0  0  0  0  0  0
    0.7143   18.1925   40.0719 H   0  0  0  0  0  0  0  0  0  0  0  0
    2.1929   18.0170   41.4164 H   0  0  0  0  0  0  0  0  0  0  0  0
    3.4311   16.7972   41.9058 H   0  0  0  0  0  0  0  0  0  0  0  0
    0.4549   16.6146   43.3352 H   0  0  0  0  0  0  0  0  0  0  0  0
    4.8831   22.0125   38.7332 H   0  0  0  0  0  0  0  0  0  0  0  0
    1.0183   16.0994   42.5563 H   0  0  0  0  0  0  0  0  0  0  0  0
    1.8034   14.9104   41.5030 H   0  0  0  0  0  0  0  0  0  0  0  0
    2.0767   16.5362   38.1467 H   0  0  0  0  0  0  0  0  0  0  0  0
    5.7065   21.3556   40.9404 H   0  0  0  0  0  0  0  0  0  0  0  0
    2.6171   21.2310   38.0447 H   0  0  0  0  0  0  0  0  0  0  0  0
    3.2941   15.9234   39.7770 H   0  0  0  0  0  0  0  0  0  0  0  0
    0.9020   22.0440   42.1596 H   0  0  0  0  0  0  0  0  0  0  0  0
    4.2711   20.0526   42.5167 H   0  0  0  0  0  0  0  0  0  0  0  0
  1 13  1  0
  2 14  1  0
  3  1  2  0
  4  3  1  0
  5  1  1  0
  6 16  2  0
  7  2  1  0
  8 14  1  0
  9 15  2  0
 10  5  2  0
 11  4  2  0
 12 18  1  0
 15 10  1  0
 15  4  1  0
 16 23  1  0
 16 22  1  0
 17  7  1  0
 17 20  1  0
 18 23  2  0
 19 12  2  0
 19  6  1  0
 20  8  1  0
 21 11  1  0
 22  9  1  0
 22 21  2  0
  2 24  1  0
  2 25  1  0
  3 26  1  0
  5 27  1  0
  6 28  1  0
  7 29  1  0
  7 30  1  0
  8 31  1  0
  8 32  1  0
 10 33  1  0
 12 34  1  0
 14 35  1  0
 14 36  1  0
 17 37  1  0
 18 38  1  0
 19 39  1  0
 20 40  1  0
 21 41  1  0
 23 42  1  0
M  END
>  <mol_id>  (73) 
2026-09-18-6fnk-s0-n100-refligand-0075

>  <rmsd_to_ref>  (73) 


$$$$

     RDKit          3D

 17 18  0  0  0  0  0  0  0  0999 V2000
    1.4480   18.7070   42.4500 C   0  0  0  0  0  0  0  0  0  0  0  0
   -0.4190   20.1690   43.7820 N   0  0  0  0  0  0  0  0  0  0  0  0
    0.3170   20.7330   42.7530 C   0  0  0  0  0  0  0  0  0  0  0  0
   -0.2440   18.8240   44.0360 C   0  0  0  0  0  0  0  0  0  0  0  0
    2.2190   16.7090   42.7830 C   0  0  0  0  0  0  0  0  0  0  0  0
    2.3740   17.7250   41.9970 N   0  0  0  0  0  0  0  0  0  0  0  0
    0.7280   18.0230   43.2470 C   0  0  0  0  0  0  0  0  0  0  0  0
    1.1340   16.8400   43.4020 C   0  0  0  0  0  0  0  0  0  0  0  0
    1.3290   20.0540   42.0210 C   0  0  0  0  0  0  0  0  0  0  0  0
    0.1038   21.7780   42.4837 H   0  0  0  0  0  0  0  0  0  0  0  0
   -0.8301   18.3395   44.8308 H   0  0  0  0  0  0  0  0  0  0  0  0
    3.0516   16.6659   43.5006 H   0  0  0  0  0  0  0  0  0  0  0  0
    2.2050   15.7794   42.1951 H   0  0  0  0  0  0  0  0  0  0  0  0
    3.0307   17.8064   41.2077 H   0  0  0  0  0  0  0  0  0  0  0  0
    0.3899   16.1363   43.0006 H   0  0  0  0  0  0  0  0  0  0  0  0
    1.2809   16.6278   44.4713 H   0  0  0  0  0  0  0  0  0  0  0  0
    1.9384   20.5119   41.2279 H   0  0  0  0  0  0  0  0  0  0  0  0
  1  7  2  0
  2  4  2  0
  3  2  1  0
  5  8  1  0
  6  1  1  0
  6  5  1  0
  7  8  1  0
  7  4  1  0
  9  1  1  0
  9  3  2  0
  3 10  1  0
  4 11  1  0
  5 12  1  0
  5 13  1  0
  6 14  1  0
  8 15  1  0
  8 16  1  0
  9 17  1  0
M  END
>  <mol_id>  (74) 
2026-09-18-6fnk-s0-n100-refligand-0076

>  <rmsd_to_ref>  (74) 


$$$$

     RDKit          3D

 19 19  0  0  0  0  0  0  0  0999 V2000
    0.8530   17.9690   43.4080 C   0  0  0  0  0  0  0  0  0  0  0  0
    2.8070   19.8750   41.1600 O   0  0  0  0  0  0  0  0  0  0  0  0
    1.9310   19.5190   41.9790 C   0  0  0  0  0  0  0  0  0  0  0  0
    0.1630   19.0630   43.9950 C   0  0  0  0  0  0  0  0  0  0  0  0
   -1.4110   17.9150   45.3810 N   0  0  0  0  0  4  0  0  0  0  0  0
    0.1220   20.2350   43.4050 C   0  0  0  0  0  0  0  0  0  0  0  0
    1.7960   18.2430   42.5230 C   0  0  0  0  0  0  0  0  0  0  0  0
    0.9670   20.4920   42.3070 C   0  0  0  0  0  0  0  0  0  0  0  0
   -0.3920   18.9710   45.3710 C   0  0  0  0  0  0  0  0  0  0  0  0
    0.6113   16.9309   43.6801 H   0  0  0  0  0  0  0  0  0  0  0  0
   -1.6448   17.6727   46.3544 H   0  0  0  0  0  0  0  0  0  0  0  0
   -2.2569   18.2495   44.8978 H   0  0  0  0  0  0  0  0  0  0  0  0
   -1.0465   17.0816   44.8978 H   0  0  0  0  0  0  0  0  0  0  0  0
   -0.5680   21.0120   43.7657 H   0  0  0  0  0  0  0  0  0  0  0  0
    2.4882   17.4477   42.2096 H   0  0  0  0  0  0  0  0  0  0  0  0
    1.5044   21.4282   42.5185 H   0  0  0  0  0  0  0  0  0  0  0  0
    0.2927   20.5181   41.4383 H   0  0  0  0  0  0  0  0  0  0  0  0
    0.4104   18.7218   46.0810 H   0  0  0  0  0  0  0  0  0  0  0  0
   -0.8361   19.9325   45.6683 H   0  0  0  0  0  0  0  0  0  0  0  0
  1  4  1  0
  2  3  2  0
  3  8  1  0
  3  7  1  0
  4  9  1  0
  6  4  2  0
  7  1  2  0
  8  6  1  0
  9  5  1  0
  1 10  1  0
  5 11  1  0
  5 12  1  0
  5 13  1  0
  6 14  1  0
  7 15  1  0
  8 16  1  0
  8 17  1  0
  9 18  1  0
  9 19  1  0
M  CHG  1   5   1
M  END
>  <mol_id>  (75) 
2026-09-18-6fnk-s0-n100-refligand-0077

>  <rmsd_to_ref>  (75) 


$$$$

     RDKit          3D

 27 29  0  0  0  0  0  0  0  0999 V2000
   -0.9460   20.5830   44.9030 O   0  0  0  0  0  0  0  0  0  0  0  0
    0.4730   19.8230   43.4350 N   0  0  0  0  0  0  0  0  0  0  0  0
    2.8320   16.9030   41.6000 C   0  0  0  0  0  0  0  0  0  0  0  0
   -0.3910   19.6510   44.4810 C   0  0  0  0  0  0  0  0  0  0  0  0
   -0.6030   16.1050   45.3720 C   0  0  0  0  0  0  0  0  0  0  0  0
    1.6090   20.2590   41.6140 C   0  0  0  0  0  0  0  0  0  0  0  0
   -0.4540   18.2230   44.8490 C   0  0  0  0  0  0  0  0  0  0  0  0
    3.9820   16.2190   40.8990 C   0  0  0  0  0  0  0  0  0  0  0  0
    0.7980   20.8190   42.5390 N   0  0  0  0  0  0  0  0  0  0  0  0
    1.0170   18.6430   43.1610 C   0  0  0  0  0  0  0  0  0  0  0  0
    0.3450   17.6300   43.9410 C   0  0  0  0  0  0  0  0  0  0  0  0
    2.0440   16.2860   42.2020 O   0  0  0  0  0  0  0  0  0  0  0  0
    0.2170   16.2210   44.3180 C   0  0  0  0  0  0  0  0  0  0  0  0
    1.8530   18.9590   41.9890 C   0  0  0  0  0  0  0  0  0  0  0  0
    2.8390   18.1930   41.5060 N   0  0  0  0  0  0  0  0  0  0  0  0
   -0.9740   17.3480   45.7910 N   0  0  0  0  0  0  0  0  0  0  0  0
    2.1260   20.9040   40.3630 C   0  0  0  0  0  0  0  0  0  0  0  0
   -0.9255   15.1568   45.8269 H   0  0  0  0  0  0  0  0  0  0  0  0
    4.6748   15.8069   41.6475 H   0  0  0  0  0  0  0  0  0  0  0  0
    3.5952   15.4041   40.2695 H   0  0  0  0  0  0  0  0  0  0  0  0
    4.5135   16.9479   40.2695 H   0  0  0  0  0  0  0  0  0  0  0  0
    0.7187   15.3830   43.8120 H   0  0  0  0  0  0  0  0  0  0  0  0
    3.6361   18.6498   41.0403 H   0  0  0  0  0  0  0  0  0  0  0  0
   -1.5235   17.5866   46.6288 H   0  0  0  0  0  0  0  0  0  0  0  0
    2.7936   21.7369   40.6288 H   0  0  0  0  0  0  0  0  0  0  0  0
    2.6826   20.1624   39.7712 H   0  0  0  0  0  0  0  0  0  0  0  0
    1.2810   21.2859   39.7712 H   0  0  0  0  0  0  0  0  0  0  0  0
  2  4  1  0
  3 12  2  0
  4  7  1  0
  4  1  2  0
  5 16  1  0
  6 14  1  0
  6  9  2  0
  7 16  1  0
  8  3  1  0
  9  2  1  0
 10  2  1  0
 10 11  1  0
 11 13  1  0
 11  7  2  0
 13  5  2  0
 14 10  2  0
 15  3  1  0
 15 14  1  0
 17  6  1  0
  5 18  1  0
  8 19  1  0
  8 20  1  0
  8 21  1  0
 13 22  1  0
 15 23  1  0
 16 24  1  0
 17 25  1  0
 17 26  1  0
 17 27  1  0
M  END
>  <mol_id>  (76) 
2026-09-18-6fnk-s0-n100-refligand-0078

>  <rmsd_to_ref>  (76) 


$$$$

     RDKit          3D

 32 33  0  0  0  0  0  0  0  0999 V2000
   -0.6610   19.8110   44.1240 O   0  0  0  0  0  0  0  0  0  0  0  0
    1.3040   16.3980   43.2990 C   0  0  0  0  0  0  0  0  0  0  0  0
    1.7980   13.9220   42.7190 S   0  0  0  0  0  6  0  0  0  0  0  0
    2.0700   14.3910   41.3260 O   0  0  0  0  0  0  0  0  0  0  0  0
    2.3640   19.8510   40.3040 C   0  0  0  0  0  0  0  0  0  0  0  0
    3.1590   21.6440   39.3290 N   0  0  0  0  0  0  0  0  0  0  0  0
    0.0030   18.7120   46.1580 C   0  0  0  0  0  0  0  0  0  0  0  0
    1.2810   19.8060   42.3630 N   0  0  0  0  0  0  0  0  0  0  0  0
    2.7730   13.0120   43.2160 O   0  0  0  0  0  0  0  0  0  0  0  0
    1.9500   20.4960   41.4110 C   0  0  0  0  0  0  0  0  0  0  0  0
    1.6870   15.1990   43.7650 N   0  0  0  0  0  0  0  0  0  0  0  0
    2.7380   19.8730   38.1300 O   0  0  0  0  0  0  0  0  0  0  0  0
    1.9000   17.7860   41.3590 C   0  0  0  0  0  0  0  0  0  0  0  0
    1.6920   16.7120   42.0960 N   0  0  0  0  0  0  0  0  0  0  0  0
    0.2690   13.1840   42.9560 C   0  0  0  0  0  0  0  0  0  0  0  0
    1.3030   18.5840   42.4680 C   0  0  0  0  0  0  0  0  0  0  0  0
    0.5230   17.6460   43.8510 C   0  0  0  0  0  0  0  0  0  0  0  0
    2.7760   20.5170   39.2070 C   0  0  0  0  0  0  0  0  0  0  0  0
    2.3320   18.4300   40.2710 C   0  0  0  0  0  0  0  0  0  0  0  0
   -0.1430   18.7990   44.6680 C   0  0  0  0  0  0  0  0  0  0  0  0
    3.1535   22.0922   40.2563 H   0  0  0  0  0  0  0  0  0  0  0  0
    3.4942   22.1659   38.5067 H   0  0  0  0  0  0  0  0  0  0  0  0
   -0.8465   19.2182   46.6398 H   0  0  0  0  0  0  0  0  0  0  0  0
    0.0215   17.6554   46.4635 H   0  0  0  0  0  0  0  0  0  0  0  0
    0.9410   19.1985   46.4635 H   0  0  0  0  0  0  0  0  0  0  0  0
    2.1530   21.5694   41.5395 H   0  0  0  0  0  0  0  0  0  0  0  0
    1.9094   15.0752   44.7631 H   0  0  0  0  0  0  0  0  0  0  0  0
    0.0711   13.0885   44.0338 H   0  0  0  0  0  0  0  0  0  0  0  0
   -0.5130   13.8038   42.4931 H   0  0  0  0  0  0  0  0  0  0  0  0
    0.2678   12.1861   42.4931 H   0  0  0  0  0  0  0  0  0  0  0  0
   -0.0904   17.0828   44.5697 H   0  0  0  0  0  0  0  0  0  0  0  0
    2.6534   17.8771   39.3761 H   0  0  0  0  0  0  0  0  0  0  0  0
  1 20  2  0
  2 11  1  0
  2 17  1  0
  3 15  1  0
  3  9  2  0
  3 11  1  0
  4  3  2  0
  5 10  2  0
  8 16  2  0
 10  8  1  0
 12 18  2  0
 13 14  1  0
 13 16  1  0
 14  2  2  0
 16 17  1  0
 17 20  1  0
 18  6  1  0
 18  5  1  0
 19  5  1  0
 19 13  2  0
 20  7  1  0
  6 21  1  0
  6 22  1  0
  7 23  1  0
  7 24  1  0
  7 25  1  0
 10 26  1  0
 11 27  1  0
 15 28  1  0
 15 29  1  0
 15 30  1  0
 17 31  1  0
 19 32  1  0
M  END
>  <mol_id>  (77) 
2026-09-18-6fnk-s0-n100-refligand-0079

>  <rmsd_to_ref>  (77) 


$$$$

     RDKit          3D

 28 28  0  0  0  0  0  0  0  0999 V2000
   -0.5160   19.1290   45.1610 C   0  0  0  0  0  0  0  0  0  0  0  0
    2.2800   15.3140   41.9280 C   0  0  0  0  0  0  0  0  0  0  0  0
   -0.0690   19.5040   43.8060 C   0  0  0  0  0  0  0  0  0  0  0  0
    0.9700   18.7970   43.0080 C   0  0  0  0  0  0  0  0  0  0  0  0
    2.3940   17.4490   41.0020 C   0  0  0  0  0  0  0  0  0  0  0  0
    1.4960   20.8660   41.6430 N   0  0  0  0  0  0  0  0  0  0  0  0
    2.7110   19.6130   39.7660 C   0  0  0  0  0  0  0  0  0  0  0  0
    1.3530   17.4190   43.2090 C   0  0  0  0  0  0  0  0  0  0  0  0
    1.9440   16.7800   42.1010 C   0  0  0  0  0  0  0  0  0  0  0  0
    1.4990   19.5250   41.9280 C   0  0  0  0  0  0  0  0  0  0  0  0
   -0.1600   20.8520   43.4040 N   0  0  0  0  0  4  0  0  0  0  0  0
    2.1940   18.7760   40.8910 C   0  0  0  0  0  0  0  0  0  0  0  0
   -0.4160   17.8540   45.5320 O   0  0  0  0  0  0  0  0  0  0  0  0
   -0.9190   20.0070   45.8510 O   0  0  0  0  0  1  0  0  0  0  0  0
    2.3879   14.8434   42.9164 H   0  0  0  0  0  0  0  0  0  0  0  0
    1.4727   14.8160   41.3710 H   0  0  0  0  0  0  0  0  0  0  0  0
    3.2236   15.2173   41.3710 H   0  0  0  0  0  0  0  0  0  0  0  0
   -0.9498   18.8983   43.5468 H   0  0  0  0  0  0  0  0  0  0  0  0
    2.9211   16.9043   40.2049 H   0  0  0  0  0  0  0  0  0  0  0  0
    1.9463   21.2108   40.7832 H   0  0  0  0  0  0  0  0  0  0  0  0
    1.0435   21.5287   42.2887 H   0  0  0  0  0  0  0  0  0  0  0  0
    3.2481   20.4826   40.1727 H   0  0  0  0  0  0  0  0  0  0  0  0
    3.3968   19.0143   39.1486 H   0  0  0  0  0  0  0  0  0  0  0  0
    1.8686   19.9582   39.1486 H   0  0  0  0  0  0  0  0  0  0  0  0
    1.1934   16.9012   44.1663 H   0  0  0  0  0  0  0  0  0  0  0  0
   -0.2008   21.4566   44.2369 H   0  0  0  0  0  0  0  0  0  0  0  0
    0.6662   21.0988   42.8407 H   0  0  0  0  0  0  0  0  0  0  0  0
   -1.0119   20.9855   42.8407 H   0  0  0  0  0  0  0  0  0  0  0  0
  1 13  2  0
  1 14  1  0
  2  9  1  0
  3 11  1  0
  3  1  1  0
  4  8  2  0
  4  3  1  0
  5  9  2  0
  6 10  1  0
  7 12  1  0
  9  8  1  0
 10  4  1  0
 12  5  1  0
 12 10  2  0
  2 15  1  0
  2 16  1  0
  2 17  1  0
  3 18  1  0
  5 19  1  0
  6 20  1  0
  6 21  1  0
  7 22  1  0
  7 23  1  0
  7 24  1  0
  8 25  1  0
 11 26  1  0
 11 27  1  0
 11 28  1  0
M  CHG  2  11   1  14  -1
M  END
>  <mol_id>  (78) 
2026-09-18-6fnk-s0-n100-refligand-0080

>  <rmsd_to_ref>  (78) 


$$$$

     RDKit          3D

 15 15  0  0  0  0  0  0  0  0999 V2000
   -0.5460   19.4340   44.4910 C   0  0  0  0  0  0  0  0  0  0  0  0
    1.1560   17.7980   43.8030 C   0  0  0  0  0  0  0  0  0  0  0  0
    1.5670   20.7120   41.6820 C   0  0  0  0  0  0  0  0  0  0  0  0
   -0.0370   20.3140   43.4980 C   0  0  0  0  0  0  0  0  0  0  0  0
    1.0940   20.0380   42.6370 C   0  0  0  0  0  0  0  0  0  0  0  0
    1.6230   18.7160   42.8730 C   0  0  0  0  0  0  0  0  0  0  0  0
    2.3630   20.9350   40.9250 O   0  0  0  0  0  0  0  0  0  0  0  0
    2.7030   18.4020   42.0840 O   0  0  0  0  0  0  0  0  0  0  0  0
    0.0120   18.1320   44.5360 C   0  0  0  0  0  0  0  0  0  0  0  0
   -1.3346   19.7481   45.1906 H   0  0  0  0  0  0  0  0  0  0  0  0
    1.6692   16.8377   43.9590 H   0  0  0  0  0  0  0  0  0  0  0  0
    0.8012   21.4790   41.4946 H   0  0  0  0  0  0  0  0  0  0  0  0
   -0.5429   21.2828   43.3734 H   0  0  0  0  0  0  0  0  0  0  0  0
    3.1383   17.5170   42.1701 H   0  0  0  0  0  0  0  0  0  0  0  0
   -0.4662   17.3649   45.1628 H   0  0  0  0  0  0  0  0  0  0  0  0
  1  9  2  0
  2  9  1  0
  3  5  1  0
  4  1  1  0
  5  6  1  0
  5  4  2  0
  6  2  2  0
  7  3  2  0
  8  6  1  0
  1 10  1  0
  2 11  1  0
  3 12  1  0
  4 13  1  0
  8 14  1  0
  9 15  1  0
M  END
>  <mol_id>  (79) 
2026-09-18-6fnk-s0-n100-refligand-0081

>  <rmsd_to_ref>  (79) 


$$$$

     RDKit          3D

 69 71  0  0  0  0  0  0  0  0999 V2000
    0.0990   20.5180   43.6220 C   0  0  0  0  0  0  0  0  0  0  0  0
    2.5370   16.9900   38.3840 O   0  0  0  0  0  0  0  0  0  0  0  0
   -0.4530   19.7830   44.7380 C   0  0  0  0  0  0  0  0  0  0  0  0
   -1.7670   16.2370   49.5790 C   0  0  0  0  0  0  0  0  0  0  0  0
    2.0910   19.2250   39.2160 C   0  0  0  0  0  0  0  0  0  0  0  0
    3.4320   21.1170   38.6750 C   0  0  0  0  0  0  0  0  0  0  0  0
    1.9920   20.3130   41.5530 C   0  0  0  0  0  0  0  0  0  0  0  0
   -1.0850   19.7990   45.5340 O   0  0  0  0  0  0  0  0  0  0  0  0
    4.8850   21.5530   38.6040 C   0  0  0  0  0  0  0  0  0  0  0  0
   -0.6990   17.8520   46.3560 C   0  0  0  0  0  0  0  0  0  0  0  0
   -1.1860   16.6060   45.9320 C   0  0  0  0  0  0  0  0  0  0  0  0
    2.0680   19.4360   40.5860 C   0  0  0  0  0  0  0  0  0  0  0  0
    2.5040   15.2890   40.0930 C   0  0  0  0  0  0  0  0  0  0  0  0
    1.0110   19.9360   43.1700 C   0  0  0  0  0  0  0  0  0  0  0  0
   -1.6770   15.7190   46.8900 C   0  0  0  0  0  0  0  0  0  0  0  0
    3.2190   19.6890   38.3410 C   0  0  0  0  0  0  0  0  0  0  0  0
    1.5630   18.4380   42.3930 C   0  0  0  0  0  0  0  0  0  0  0  0
    3.8120   14.7330   40.4730 C   0  0  0  0  0  0  0  0  0  0  0  0
   -1.2060   16.1400   44.5900 C   0  0  0  0  0  0  0  0  0  0  0  0
    1.6910   18.1930   41.3190 C   0  0  0  0  0  0  0  0  0  0  0  0
    3.1600   21.1400   40.0110 O   0  0  0  0  0  0  0  0  0  0  0  0
   -1.5020   15.9190   48.1520 C   0  0  0  0  0  0  0  0  0  0  0  0
    1.7060   17.8430   38.8150 C   0  0  0  0  0  0  0  0  0  0  0  0
    0.8550   19.4410   42.6480 C   0  0  0  0  0  0  0  0  0  0  0  0
    2.4270   15.5790   38.6230 C   0  0  0  0  0  0  0  0  0  0  0  0
   -2.5090   15.2870   47.8110 C   0  0  0  0  0  0  0  0  0  0  0  0
   -0.2940   18.8510   45.4320 C   0  0  0  0  0  0  0  0  0  0  0  0
   -0.6738   20.6411   42.8490 H   0  0  0  0  0  0  0  0  0  0  0  0
    0.4377   21.5045   43.9716 H   0  0  0  0  0  0  0  0  0  0  0  0
   -0.2814   20.2278   43.7467 H   0  0  0  0  0  0  0  0  0  0  0  0
   -1.1948   15.5503   50.2201 H   0  0  0  0  0  0  0  0  0  0  0  0
   -1.4612   17.2730   49.7867 H   0  0  0  0  0  0  0  0  0  0  0  0
   -2.8412   16.1231   49.7867 H   0  0  0  0  0  0  0  0  0  0  0  0
    1.3209   19.9790   38.9960 H   0  0  0  0  0  0  0  0  0  0  0  0
    2.8428   21.7504   37.9955 H   0  0  0  0  0  0  0  0  0  0  0  0
    1.5767   21.2712   41.2075 H   0  0  0  0  0  0  0  0  0  0  0  0
    2.9532   20.5995   42.0047 H   0  0  0  0  0  0  0  0  0  0  0  0
    5.2822   21.6722   39.6228 H   0  0  0  0  0  0  0  0  0  0  0  0
    5.4707   20.7911   38.0689 H   0  0  0  0  0  0  0  0  0  0  0  0
    4.9545   22.5116   38.0689 H   0  0  0  0  0  0  0  0  0  0  0  0
   -0.6291   18.0604   47.4338 H   0  0  0  0  0  0  0  0  0  0  0  0
    2.7224   20.1363   40.0463 H   0  0  0  0  0  0  0  0  0  0  0  0
    1.7194   14.5636   40.3543 H   0  0  0  0  0  0  0  0  0  0  0  0
    2.3644   16.2355   40.6357 H   0  0  0  0  0  0  0  0  0  0  0  0
    1.6991   20.6761   42.7355 H   0  0  0  0  0  0  0  0  0  0  0  0
    1.4343   19.3587   44.0052 H   0  0  0  0  0  0  0  0  0  0  0  0
   -1.5322   15.2586   45.9015 H   0  0  0  0  0  0  0  0  0  0  0  0
    4.1291   19.1075   38.5497 H   0  0  0  0  0  0  0  0  0  0  0  0
    2.9843   19.5545   37.2748 H   0  0  0  0  0  0  0  0  0  0  0  0
    2.5617   18.6140   42.8192 H   0  0  0  0  0  0  0  0  0  0  0  0
    1.0309   17.5807   42.8310 H   0  0  0  0  0  0  0  0  0  0  0  0
    3.8915   14.6992   41.5696 H   0  0  0  0  0  0  0  0  0  0  0  0
    3.9099   13.7155   40.0668 H   0  0  0  0  0  0  0  0  0  0  0  0
    4.6126   15.3686   40.0668 H   0  0  0  0  0  0  0  0  0  0  0  0
   -1.2532   15.0410   44.5841 H   0  0  0  0  0  0  0  0  0  0  0  0
   -2.0875   16.5476   44.0734 H   0  0  0  0  0  0  0  0  0  0  0  0
   -0.2928   16.4706   44.0734 H   0  0  0  0  0  0  0  0  0  0  0  0
    0.7478   17.7968   40.9149 H   0  0  0  0  0  0  0  0  0  0  0  0
    2.4783   17.4342   41.1992 H   0  0  0  0  0  0  0  0  0  0  0  0
    4.0054   21.0685   40.5212 H   0  0  0  0  0  0  0  0  0  0  0  0
   -0.5095   16.3167   48.4105 H   0  0  0  0  0  0  0  0  0  0  0  0
    0.9516   17.9572   38.0226 H   0  0  0  0  0  0  0  0  0  0  0  0
    1.4258   17.4045   39.7841 H   0  0  0  0  0  0  0  0  0  0  0  0
   -0.2088   19.1718   42.7247 H   0  0  0  0  0  0  0  0  0  0  0  0
    1.4634   15.2195   38.2328 H   0  0  0  0  0  0  0  0  0  0  0  0
    3.2564   15.0657   38.1145 H   0  0  0  0  0  0  0  0  0  0  0  0
   -3.5038   15.7459   47.9098 H   0  0  0  0  0  0  0  0  0  0  0  0
   -2.9327   14.3062   48.0726 H   0  0  0  0  0  0  0  0  0  0  0  0
    0.5569   18.1632   45.3184 H   0  0  0  0  0  0  0  0  0  0  0  0
  2 25  1  0
  2 23  1  0
  3  1  1  0
  3 27  1  0
  3  8  1  0
  5 16  1  0
  6  9  1  0
  6 21  1  0
  7 24  1  0
 11 10  2  3
 12  5  1  0
 12 20  1  0
 12  7  1  0
 13 18  1  0
 14  1  1  0
 15 11  1  0
 15 26  1  0
 15 22  1  0
 16  6  1  0
 17 24  1  0
 19 11  1  0
 20 17  1  0
 22  4  1  0
 23  5  1  0
 24 14  1  0
 25 13  1  0
 26 22  1  0
 27  8  1  0
 27 10  1  0
  1 28  1  0
  1 29  1  0
  3 30  1  0
  4 31  1  0
  4 32  1  0
  4 33  1  0
  5 34  1  0
  6 35  1  0
  7 36  1  0
  7 37  1  0
  9 38  1  0
  9 39  1  0
  9 40  1  0
 10 41  1  0
 12 42  1  0
 13 43  1  0
 13 44  1  0
 14 45  1  0
 14 46  1  0
 15 47  1  0
 16 48  1  0
 16 49  1  0
 17 50  1  0
 17 51  1  0
 18 52  1  0
 18 53  1  0
 18 54  1  0
 19 55  1  0
 19 56  1  0
 19 57  1  0
 20 58  1  0
 20 59  1  0
 21 60  1  0
 22 61  1  0
 23 62  1  0
 23 63  1  0
 24 64  1  0
 25 65  1  0
 25 66  1  0
 26 67  1  0
 26 68  1  0
 27 69  1  0
M  END
>  <mol_id>  (80) 
2026-09-18-6fnk-s0-n100-refligand-0082

>  <rmsd_to_ref>  (80) 


$$$$

     RDKit          3D

 58 60  0  0  0  0  0  0  0  0999 V2000
    2.0980   14.9870   43.8790 C   0  0  0  0  0  0  0  0  0  0  0  0
    0.5920   19.4410   42.6850 O   0  0  0  0  0  0  0  0  0  0  0  0
   -1.0470   18.3930   47.2310 O   0  0  0  0  0  0  0  0  0  0  0  0
    1.2150   14.3510   44.8120 O   0  0  0  0  0  0  0  0  0  0  0  0
   -1.5000   19.5660   44.6670 F   0  0  0  0  0  0  0  0  0  0  0  0
    0.5800   20.8110   44.5500 C   0  0  0  0  0  0  0  0  0  0  0  0
    2.2430   20.3630   39.5440 C   0  0  0  0  0  0  0  0  0  0  0  0
    1.4240   18.2690   40.4470 O   0  0  0  0  0  0  0  0  0  0  0  0
    3.8240   14.1990   41.2370 O   0  0  0  0  0  0  0  0  0  0  0  0
    5.4300   22.4630   41.1000 F   0  0  0  0  0  0  0  0  0  0  0  0
    2.3310   14.6890   41.2470 S   0  0  0  0  0  4  0  0  0  0  0  0
    3.1030   20.4140   37.5010 O   0  0  0  0  0  0  0  0  0  0  0  0
    1.6130   15.2190   42.7230 C   0  0  0  0  0  0  0  0  0  0  0  0
    2.3440   20.8600   41.0800 C   0  0  0  0  0  0  0  0  0  0  0  0
    0.3890   16.0240   42.3230 O   0  0  0  0  0  0  0  0  0  0  0  0
    3.2570   20.6330   38.7850 C   0  0  0  0  0  0  0  0  0  0  0  0
    4.3790   21.2290   39.2590 C   0  0  0  0  0  0  0  0  0  0  0  0
    1.4860   14.0440   40.2620 O   0  0  0  0  0  0  0  0  0  0  0  0
    3.6180   21.1010   41.6510 C   0  0  0  0  0  0  0  0  0  0  0  0
    2.6190   16.0880   40.6640 O   0  0  0  0  0  0  0  0  0  0  0  0
   -0.0180   17.7680   46.6050 C   0  0  0  0  0  0  0  0  0  0  0  0
   -0.2350   21.4270   42.4980 O   0  0  0  0  0  0  0  0  0  0  0  0
    0.9750   17.1770   44.7370 C   0  0  0  0  0  0  0  0  0  0  0  0
    4.4670   21.6200   40.6000 C   0  0  0  0  0  0  0  0  0  0  0  0
    1.9370   17.7510   38.2570 O   0  0  0  0  0  0  0  0  0  0  0  0
    5.3720   21.6920   38.4630 O   0  0  0  0  0  0  0  0  0  0  0  0
   -0.0070   16.3250   45.8340 S   0  0  0  0  0  0  0  0  0  0  0  0
    0.1330   16.5140   41.1380 C   0  0  0  0  0  0  0  0  0  0  0  0
    0.5640   20.5100   42.9330 S   0  0  0  0  0  6  0  0  0  0  0  0
    1.4180   16.8360   40.5850 C   0  0  0  0  0  0  0  0  0  0  0  0
    1.5620   17.8180   39.2640 C   0  0  0  0  0  0  0  0  0  0  0  0
   -0.5880   20.5490   46.2080 F   0  0  0  0  0  0  0  0  0  0  0  0
    1.7640   21.0820   41.9330 N   0  0  0  0  0  0  0  0  0  0  0  0
    4.0160   20.8780   42.8470 C   0  0  0  0  0  0  0  0  0  0  0  0
   -0.3030   19.7430   45.1110 C   0  0  0  0  0  0  0  0  0  0  0  0
    0.4610   18.4840   45.3670 C   0  0  0  0  0  0  0  0  0  0  0  0
    2.4108   15.9484   44.3125 H   0  0  0  0  0  0  0  0  0  0  0  0
    2.9232   14.2775   43.7188 H   0  0  0  0  0  0  0  0  0  0  0  0
   -0.9292   18.3215   48.2114 H   0  0  0  0  0  0  0  0  0  0  0  0
    1.5047   14.5597   45.7354 H   0  0  0  0  0  0  0  0  0  0  0  0
    0.1758   21.8105   44.7682 H   0  0  0  0  0  0  0  0  0  0  0  0
    1.5930   20.7992   44.9786 H   0  0  0  0  0  0  0  0  0  0  0  0
    1.3615   19.8252   39.1650 H   0  0  0  0  0  0  0  0  0  0  0  0
    4.1432   14.0942   42.1683 H   0  0  0  0  0  0  0  0  0  0  0  0
    2.2787   19.9779   37.1686 H   0  0  0  0  0  0  0  0  0  0  0  0
    1.0355   14.2844   42.7777 H   0  0  0  0  0  0  0  0  0  0  0  0
    0.7893   13.5122   40.7224 H   0  0  0  0  0  0  0  0  0  0  0  0
    0.4905   17.7055   47.5784 H   0  0  0  0  0  0  0  0  0  0  0  0
    0.7017   17.0418   43.6801 H   0  0  0  0  0  0  0  0  0  0  0  0
    2.0514   16.9678   44.6503 H   0  0  0  0  0  0  0  0  0  0  0  0
    6.1698   22.1192   38.8645 H   0  0  0  0  0  0  0  0  0  0  0  0
   -0.3809   15.7682   40.5138 H   0  0  0  0  0  0  0  0  0  0  0  0
   -0.5280   17.3919   41.1873 H   0  0  0  0  0  0  0  0  0  0  0  0
    2.0510   22.0085   42.2795 H   0  0  0  0  0  0  0  0  0  0  0  0
    3.2847   21.2878   43.5592 H   0  0  0  0  0  0  0  0  0  0  0  0
    4.1137   19.7938   43.0048 H   0  0  0  0  0  0  0  0  0  0  0  0
    4.9917   21.3608   43.0048 H   0  0  0  0  0  0  0  0  0  0  0  0
    1.2055   19.2086   45.0055 H   0  0  0  0  0  0  0  0  0  0  0  0
  1  4  1  0
  2 29  2  0
  5 35  1  0
  6 35  1  0
  7 14  2  0
  8 30  1  0
  9 11  1  0
 11 13  1  0
 12 16  1  0
 13  1  1  0
 14 19  1  0
 14 33  1  0
 15 13  1  0
 16 17  2  0
 16  7  1  0
 17 24  1  0
 18 11  1  0
 19 34  1  0
 20 11  1  0
 21  3  1  0
 22 29  2  0
 23 36  1  0
 23 27  1  0
 24 10  1  0
 24 19  2  0
 25 31  2  0
 26 17  1  0
 27 21  1  0
 28 15  1  0
 29  6  1  0
 30 20  1  0
 30 28  1  0
 31  8  1  0
 31 30  1  0
 33 29  1  0
 35 32  1  0
 36 35  1  0
 36 21  1  0
  1 37  1  0
  1 38  1  0
  3 39  1  0
  4 40  1  0
  6 41  1  0
  6 42  1  0
  7 43  1  0
  9 44  1  0
 12 45  1  0
 13 46  1  0
 18 47  1  0
 21 48  1  0
 23 49  1  0
 23 50  1  0
 26 51  1  0
 28 52  1  0
 28 53  1  0
 33 54  1  0
 34 55  1  0
 34 56  1  0
 34 57  1  0
 36 58  1  0
M  END
>  <mol_id>  (81) 
2026-09-18-6fnk-s0-n100-refligand-0083

>  <rmsd_to_ref>  (81) 


$$$$

     RDKit          3D

 51 53  0  0  0  0  0  0  0  0999 V2000
    0.9360   17.8480   40.8400 C   0  0  0  0  0  0  0  0  0  0  0  0
    4.5350   21.3490   41.2140 C   0  0  0  0  0  0  0  0  0  0  0  0
    4.8720   19.1560   44.1810 C   0  0  0  0  0  0  0  0  0  0  0  0
    0.6270   15.6170   43.0030 C   0  0  0  0  0  0  0  0  0  0  0  0
    0.3240   13.3350   43.9950 C   0  0  0  0  0  0  0  0  0  0  0  0
   -0.2110   20.2700   44.0650 N   0  0  0  0  0  0  0  0  0  0  0  0
    1.7370   11.4220   43.4130 Cl  0  0  0  0  0  0  0  0  0  0  0  0
    3.7440   21.2120   40.0560 C   0  0  0  0  0  0  0  0  0  0  0  0
    2.9320   17.2300   39.0720 O   0  0  0  0  0  0  0  0  0  0  0  0
   -0.1900   14.7430   43.9620 C   0  0  0  0  0  0  0  0  0  0  0  0
    4.2030   20.5720   42.3570 C   0  0  0  0  0  0  0  0  0  0  0  0
    2.5730   20.4600   40.0950 C   0  0  0  0  0  0  0  0  0  0  0  0
    3.0200   19.9200   42.3980 C   0  0  0  0  0  0  0  0  0  0  0  0
   -0.5170   21.5210   43.7530 O   0  0  0  0  0  0  0  0  0  0  0  0
    5.5070   22.1910   41.2390 F   0  0  0  0  0  0  0  0  0  0  0  0
    5.0410   20.4060   43.4440 O   0  0  0  0  0  0  0  0  0  0  0  0
    0.9990   19.0980   41.4980 C   0  0  0  0  0  0  0  0  0  0  0  0
   -0.2830   17.1730   44.8400 C   0  0  0  0  0  0  0  0  0  0  0  0
    1.3600   12.9310   43.1620 C   0  0  0  0  0  0  0  0  0  0  0  0
    0.6250   17.9580   38.5390 O   0  0  0  0  0  0  0  0  0  0  0  0
   -1.0070   19.5080   44.7260 C   0  0  0  0  0  0  0  0  0  0  0  0
   -0.7640   18.2010   45.4230 C   0  0  0  0  0  0  0  0  0  0  0  0
    1.0770   16.9780   40.7190 O   0  0  0  0  0  0  0  0  0  0  0  0
    2.1220   19.9080   41.3100 C   0  0  0  0  0  0  0  0  0  0  0  0
   -1.3600   17.8580   46.8510 C   0  0  0  0  0  0  0  0  0  0  0  0
    0.2350   17.0700   43.5860 C   0  0  0  0  0  0  0  0  0  0  0  0
    1.5260   14.9700   42.0250 C   0  0  0  0  0  0  0  0  0  0  0  0
    0.4370   18.1920   42.6580 C   0  0  0  0  0  0  0  0  0  0  0  0
    1.7020   17.7340   39.4600 S   0  0  0  0  0  4  0  0  0  0  0  0
    1.8490   13.7660   42.1710 C   0  0  0  0  0  0  0  0  0  0  0  0
    4.8997   19.3607   45.2614 H   0  0  0  0  0  0  0  0  0  0  0  0
    3.9045   18.7034   43.9183 H   0  0  0  0  0  0  0  0  0  0  0  0
    5.6846   18.4627   43.9183 H   0  0  0  0  0  0  0  0  0  0  0  0
   -0.1261   12.6105   44.6896 H   0  0  0  0  0  0  0  0  0  0  0  0
    4.0522   21.7000   39.1196 H   0  0  0  0  0  0  0  0  0  0  0  0
   -1.0457   15.1037   44.5517 H   0  0  0  0  0  0  0  0  0  0  0  0
    1.9970   20.2960   39.1723 H   0  0  0  0  0  0  0  0  0  0  0  0
    2.7467   19.3777   43.3152 H   0  0  0  0  0  0  0  0  0  0  0  0
    0.1250   22.0750   43.2421 H   0  0  0  0  0  0  0  0  0  0  0  0
    0.5458   20.0884   41.3444 H   0  0  0  0  0  0  0  0  0  0  0  0
   -0.2877   16.2451   45.4307 H   0  0  0  0  0  0  0  0  0  0  0  0
   -0.2094   18.1315   39.0428 H   0  0  0  0  0  0  0  0  0  0  0  0
   -2.0416   19.8757   44.7923 H   0  0  0  0  0  0  0  0  0  0  0  0
    1.1496   16.5300   41.5988 H   0  0  0  0  0  0  0  0  0  0  0  0
   -0.6880   18.2447   47.6313 H   0  0  0  0  0  0  0  0  0  0  0  0
   -2.3508   18.3240   46.9564 H   0  0  0  0  0  0  0  0  0  0  0  0
   -1.4548   16.7672   46.9564 H   0  0  0  0  0  0  0  0  0  0  0  0
   -0.7798   16.9608   43.1758 H   0  0  0  0  0  0  0  0  0  0  0  0
    1.9120   15.5433   41.1693 H   0  0  0  0  0  0  0  0  0  0  0  0
    0.0026   18.5250   43.6122 H   0  0  0  0  0  0  0  0  0  0  0  0
    2.5736   13.3429   41.4597 H   0  0  0  0  0  0  0  0  0  0  0  0
  1 23  1  0
  1 17  1  0
  1 28  1  0
  2 15  1  0
  2 11  2  0
  4 26  1  0
  4 10  1  0
  6 21  2  3
  8 12  2  0
  8  2  1  0
  9 29  2  0
 10  5  2  0
 11 13  1  0
 11 16  1  0
 12 24  1  0
 14  6  1  0
 16  3  1  0
 17 24  1  0
 17 28  1  0
 18 22  2  3
 19  7  1  0
 19  5  1  0
 21 22  1  0
 22 25  1  0
 24 13  2  0
 26 18  1  0
 27 30  1  0
 27  4  2  0
 28 26  1  0
 29 20  1  0
 29  1  1  0
 30 19  2  0
  3 31  1  0
  3 32  1  0
  3 33  1  0
  5 34  1  0
  8 35  1  0
 10 36  1  0
 12 37  1  0
 13 38  1  0
 14 39  1  0
 17 40  1  0
 18 41  1  0
 20 42  1  0
 21 43  1  0
 23 44  1  0
 25 45  1  0
 25 46  1  0
 25 47  1  0
 26 48  1  0
 27 49  1  0
 28 50  1  0
 30 51  1  0
M  END
>  <mol_id>  (82) 
2026-09-18-6fnk-s0-n100-refligand-0084

>  <rmsd_to_ref>  (82) 


$$$$

     RDKit          3D

 18 17  0  0  0  0  0  0  0  0999 V2000
   -0.5920   20.1600   44.8340 N   0  0  0  0  0  4  0  0  0  0  0  0
    1.2610   18.9330   43.3360 C   0  0  0  0  0  0  0  0  0  0  0  0
    1.9850   16.6680   41.9090 S   0  0  0  0  0  0  0  0  0  0  0  0
    0.5670   17.5910   42.9170 C   0  0  0  0  0  0  0  0  0  0  0  0
    0.7580   15.6190   41.0830 C   0  0  0  0  0  0  0  0  0  0  0  0
    0.1720   20.1150   43.4350 C   0  0  0  0  0  0  0  0  0  0  0  0
    0.0940   20.1196   45.6013 H   0  0  0  0  0  0  0  0  0  0  0  0
   -1.1323   21.0343   44.9022 H   0  0  0  0  0  0  0  0  0  0  0  0
   -1.2312   19.3552   44.9022 H   0  0  0  0  0  0  0  0  0  0  0  0
    2.0194   19.1997   42.5852 H   0  0  0  0  0  0  0  0  0  0  0  0
    1.7363   18.7996   44.3190 H   0  0  0  0  0  0  0  0  0  0  0  0
   -0.3119   17.7798   42.2830 H   0  0  0  0  0  0  0  0  0  0  0  0
    0.1888   17.0096   43.7708 H   0  0  0  0  0  0  0  0  0  0  0  0
    0.1508   15.0999   41.8392 H   0  0  0  0  0  0  0  0  0  0  0  0
    0.1058   16.2430   40.4544 H   0  0  0  0  0  0  0  0  0  0  0  0
    1.2731   14.8777   40.4544 H   0  0  0  0  0  0  0  0  0  0  0  0
    0.6868   21.0760   43.2883 H   0  0  0  0  0  0  0  0  0  0  0  0
   -0.5842   19.9243   42.6592 H   0  0  0  0  0  0  0  0  0  0  0  0
  2  6  1  0
  3  4  1  0
  4  2  1  0
  5  3  1  0
  6  1  1  0
  1  7  1  0
  1  8  1  0
  1  9  1  0
  2 10  1  0
  2 11  1  0
  4 12  1  0
  4 13  1  0
  5 14  1  0
  5 15  1  0
  5 16  1  0
  6 17  1  0
  6 18  1  0
M  CHG  1   1   1
M  END
>  <mol_id>  (83) 
2026-09-18-6fnk-s0-n100-refligand-0085

>  <rmsd_to_ref>  (83) 


$$$$

     RDKit          3D

 44 47  0  0  0  0  0  0  0  0999 V2000
    1.3640   15.0460   41.9960 O   0  0  0  0  0  0  0  0  0  0  0  0
   -0.7600   19.5700   45.5220 N   0  0  0  0  0  0  0  0  0  0  0  0
    1.5500   17.2890   41.6540 O   0  0  0  0  0  0  0  0  0  0  0  0
   -0.3690   17.6580   45.9040 C   0  0  0  0  0  0  0  0  0  0  0  0
    1.2040   14.4380   40.6420 C   0  0  0  0  0  0  0  0  0  0  0  0
    2.5740   22.1320   39.9730 O   0  0  0  0  0  0  0  0  0  0  0  0
    2.1700   13.2160   40.5560 C   0  0  0  0  0  0  0  0  0  0  0  0
    2.4560   18.6070   40.3220 C   0  0  0  0  0  0  0  0  0  0  0  0
    1.3460   21.0130   41.6250 C   0  0  0  0  0  0  0  0  0  0  0  0
   -0.0960   16.3560   45.7860 C   0  0  0  0  0  0  0  0  0  0  0  0
    1.0960   16.3430   42.3050 C   0  0  0  0  0  0  0  0  0  0  0  0
   -0.7290   18.5900   46.7950 N   0  0  0  0  0  0  0  0  0  0  0  0
    2.4550   12.8820   39.1210 C   0  0  0  0  0  0  0  0  0  0  0  0
    2.1500   21.0730   40.4440 C   0  0  0  0  0  0  0  0  0  0  0  0
    2.6990   19.8320   39.8250 C   0  0  0  0  0  0  0  0  0  0  0  0
   -0.1320   20.8270   43.4720 O   0  0  0  0  0  0  0  0  0  0  0  0
    3.5350   20.0720   38.8290 O   0  0  0  0  0  0  0  0  0  0  0  0
    0.3500   18.1800   43.7130 C   0  0  0  0  0  0  0  0  0  0  0  0
    4.2250   14.3510   38.2020 C   0  0  0  0  0  0  0  0  0  0  0  0
    1.6870   18.5320   41.5470 C   0  0  0  0  0  0  0  0  0  0  0  0
    0.5650   16.8420   43.5220 C   0  0  0  0  0  0  0  0  0  0  0  0
    3.8000   13.0230   38.6520 O   0  0  0  0  0  0  0  0  0  0  0  0
    1.2010   19.5740   42.2080 C   0  0  0  0  0  0  0  0  0  0  0  0
   -0.3950   18.4680   44.8550 C   0  0  0  0  0  0  0  0  0  0  0  0
    0.3130   15.9460   44.5490 C   0  0  0  0  0  0  0  0  0  0  0  0
    0.3770   19.6650   43.1870 C   0  0  0  0  0  0  0  0  0  0  0  0
   -0.9616   20.5595   45.3190 H   0  0  0  0  0  0  0  0  0  0  0  0
    0.1651   14.1054   40.5007 H   0  0  0  0  0  0  0  0  0  0  0  0
    1.4403   15.1729   39.8584 H   0  0  0  0  0  0  0  0  0  0  0  0
    3.1130   13.4614   41.0663 H   0  0  0  0  0  0  0  0  0  0  0  0
    1.6965   12.3489   41.0396 H   0  0  0  0  0  0  0  0  0  0  0  0
    2.8253   17.7006   39.8200 H   0  0  0  0  0  0  0  0  0  0  0  0
    0.3426   21.3929   41.3824 H   0  0  0  0  0  0  0  0  0  0  0  0
    1.8498   21.6221   42.3900 H   0  0  0  0  0  0  0  0  0  0  0  0
   -0.1942   15.6585   46.6309 H   0  0  0  0  0  0  0  0  0  0  0  0
   -0.9025   18.6500   47.8085 H   0  0  0  0  0  0  0  0  0  0  0  0
    2.1626   11.8331   38.9651 H   0  0  0  0  0  0  0  0  0  0  0  0
    1.8847   13.6274   38.5472 H   0  0  0  0  0  0  0  0  0  0  0  0
   -0.7697   20.9171   44.2239 H   0  0  0  0  0  0  0  0  0  0  0  0
    3.6701   20.9989   38.5086 H   0  0  0  0  0  0  0  0  0  0  0  0
    4.4284   14.9867   39.0764 H   0  0  0  0  0  0  0  0  0  0  0  0
    5.1382   14.2579   37.5959 H   0  0  0  0  0  0  0  0  0  0  0  0
    3.4274   14.8054   37.5959 H   0  0  0  0  0  0  0  0  0  0  0  0
    0.4467   14.8703   44.3619 H   0  0  0  0  0  0  0  0  0  0  0  0
  1 11  1  0
  2 12  1  0
  3 11  1  0
  4 12  1  0
  5  1  1  0
  6 14  2  0
  7  5  1  0
  8 20  1  0
  9 23  1  0
 10  4  1  0
 11 21  2  0
 13  7  1  0
 14  9  1  0
 15  8  2  0
 15 14  1  0
 17 15  1  0
 18 24  1  0
 19 22  1  0
 20  3  1  0
 20 23  2  0
 21 18  1  0
 21 25  1  0
 22 13  1  0
 23 26  1  0
 24  2  1  0
 24  4  2  0
 25 10  2  0
 26 16  1  0
 26 18  2  0
  2 27  1  0
  5 28  1  0
  5 29  1  0
  7 30  1  0
  7 31  1  0
  8 32  1  0
  9 33  1  0
  9 34  1  0
 10 35  1  0
 12 36  1  0
 13 37  1  0
 13 38  1  0
 16 39  1  0
 17 40  1  0
 19 41  1  0
 19 42  1  0
 19 43  1  0
 25 44  1  0
M  END
>  <mol_id>  (84) 
2026-09-18-6fnk-s0-n100-refligand-0086

>  <rmsd_to_ref>  (84) 


$$$$

     RDKit          3D

 51 53  0  0  0  0  0  0  0  0999 V2000
   -0.4530   15.3670   45.1900 C   0  0  0  0  0  0  0  0  0  0  0  0
    0.9080   19.7350   42.7580 C   0  0  0  0  0  0  0  0  0  0  0  0
    2.3090   18.6410   39.2640 C   0  0  0  0  0  0  0  0  0  0  0  0
    0.2020   19.4520   44.0940 C   0  0  0  0  0  0  0  0  0  0  0  0
    1.4840   18.8820   41.6300 C   0  0  0  0  0  0  0  0  0  0  0  0
    0.7100   13.2630   43.8030 C   0  0  0  0  0  0  0  0  0  0  0  0
   -1.1530   18.7050   46.6780 O   0  0  0  0  0  0  0  0  0  0  0  0
    2.1890   15.3790   38.2830 C   0  0  0  0  0  0  0  0  0  0  0  0
    2.7210   15.3840   40.7810 C   0  0  0  0  0  0  0  0  0  0  0  0
    3.8870   21.2930   40.4780 C   0  0  0  0  0  0  0  0  0  0  0  0
   -0.6810   17.6940   45.7530 C   0  0  0  0  0  0  0  0  0  0  0  0
    0.4330   16.9820   43.6460 C   0  0  0  0  0  0  0  0  0  0  0  0
    0.2120   15.6170   44.0410 C   0  0  0  0  0  0  0  0  0  0  0  0
    3.7450   13.8280   39.0950 O   0  0  0  0  0  0  0  0  0  0  0  0
    2.6090   14.5350   39.4960 C   0  0  0  0  0  0  0  0  0  0  0  0
   -0.7890   21.3230   45.5440 N   0  0  0  0  0  0  0  0  0  0  0  0
    2.6010   20.9060   40.4600 C   0  0  0  0  0  0  0  0  0  0  0  0
    0.6860   14.6110   43.2710 O   0  0  0  0  0  0  0  0  0  0  0  0
    1.6070   17.4580   41.5860 N   0  0  0  0  0  4  0  0  0  0  0  0
   -0.0050   17.9710   44.4790 C   0  0  0  0  0  0  0  0  0  0  0  0
    1.9760   16.6240   40.5280 C   0  0  0  0  0  0  0  0  0  0  0  0
   -0.8720   16.3780   46.1030 C   0  0  0  0  0  0  0  0  0  0  0  0
    0.9030   21.0270   42.5890 O   0  0  0  0  0  0  0  0  0  0  0  0
   -0.4020   20.3930   45.0220 C   0  0  0  0  0  0  0  0  0  0  0  0
    2.4290   19.1200   38.2240 O   0  0  0  0  0  0  0  0  0  0  0  0
    2.9210   16.5640   38.3450 O   0  0  0  0  0  0  0  0  0  0  0  0
    0.7790   15.6080   38.2490 O   0  0  0  0  0  0  0  0  0  0  0  0
    2.3750   17.2980   39.3930 N   0  0  0  0  0  0  0  0  0  0  0  0
    2.1180   19.4810   40.4650 C   0  0  0  0  0  0  0  0  0  0  0  0
   -0.6851   14.3202   45.4357 H   0  0  0  0  0  0  0  0  0  0  0  0
   -0.7708   19.4545   43.5805 H   0  0  0  0  0  0  0  0  0  0  0  0
    0.7093   13.3026   44.9023 H   0  0  0  0  0  0  0  0  0  0  0  0
   -0.1785   12.7157   43.4552 H   0  0  0  0  0  0  0  0  0  0  0  0
    1.6175   12.7477   43.4552 H   0  0  0  0  0  0  0  0  0  0  0  0
   -1.0355   19.6646   46.4647 H   0  0  0  0  0  0  0  0  0  0  0  0
    2.4069   14.8460   37.3458 H   0  0  0  0  0  0  0  0  0  0  0  0
    2.2818   14.8439   41.6327 H   0  0  0  0  0  0  0  0  0  0  0  0
    3.7720   15.5948   41.0280 H   0  0  0  0  0  0  0  0  0  0  0  0
    4.1393   22.3637   40.4724 H   0  0  0  0  0  0  0  0  0  0  0  0
    4.6879   20.5393   40.4984 H   0  0  0  0  0  0  0  0  0  0  0  0
    0.9403   17.2223   42.7000 H   0  0  0  0  0  0  0  0  0  0  0  0
    4.2409   13.5194   39.8944 H   0  0  0  0  0  0  0  0  0  0  0  0
    1.8494   13.7994   39.7993 H   0  0  0  0  0  0  0  0  0  0  0  0
    1.8369   21.6970   40.4399 H   0  0  0  0  0  0  0  0  0  0  0  0
    2.2880   17.2408   42.3276 H   0  0  0  0  0  0  0  0  0  0  0  0
    0.6019   17.2331   41.5940 H   0  0  0  0  0  0  0  0  0  0  0  0
    0.9905   16.1771   40.3306 H   0  0  0  0  0  0  0  0  0  0  0  0
   -1.3367   16.1121   47.0639 H   0  0  0  0  0  0  0  0  0  0  0  0
    1.3140   21.4219   41.7795 H   0  0  0  0  0  0  0  0  0  0  0  0
    0.4314   15.6644   39.1743 H   0  0  0  0  0  0  0  0  0  0  0  0
    3.0941   19.1515   40.8507 H   0  0  0  0  0  0  0  0  0  0  0  0
  1 22  2  0
  2  4  1  0
  3 28  1  0
  3 29  1  0
  4 20  1  0
  4 24  1  0
  5  2  2  3
  8 27  1  0
  8 26  1  0
  8 15  1  0
 11 22  1  0
 11  7  1  0
 12 13  2  0
 12 20  1  0
 13  1  1  0
 15 14  1  0
 15  9  1  0
 17 10  2  3
 18  6  1  0
 18 13  1  0
 19  5  1  0
 20 11  2  0
 21  9  1  0
 21 19  1  0
 23  2  1  0
 24 16  3  0
 25  3  2  0
 26 28  1  0
 28 21  1  0
 29 17  1  0
 29  5  1  0
  1 30  1  0
  4 31  1  0
  6 32  1  0
  6 33  1  0
  6 34  1  0
  7 35  1  0
  8 36  1  0
  9 37  1  0
  9 38  1  0
 10 39  1  0
 10 40  1  0
 12 41  1  0
 14 42  1  0
 15 43  1  0
 17 44  1  0
 19 45  1  0
 19 46  1  0
 21 47  1  0
 22 48  1  0
 23 49  1  0
 27 50  1  0
 29 51  1  0
M  CHG  1  19   1
M  END
>  <mol_id>  (85) 
2026-09-18-6fnk-s0-n100-refligand-0087

>  <rmsd_to_ref>  (85) 


$$$$

     RDKit          3D

 30 32  0  0  0  0  0  0  0  0999 V2000
    0.4720   16.5880   44.4130 C   0  0  0  0  0  0  0  0  0  0  0  0
    2.3920   14.2310   42.6030 C   0  0  0  0  0  0  0  0  0  0  0  0
    1.4670   17.0610   42.4180 C   0  0  0  0  0  0  0  0  0  0  0  0
    1.4680   14.7400   43.4800 C   0  0  0  0  0  0  0  0  0  0  0  0
   -0.0740   20.0220   44.1810 C   0  0  0  0  0  0  0  0  0  0  0  0
    0.3630   20.7350   43.0360 C   0  0  0  0  0  0  0  0  0  0  0  0
    1.1580   18.4570   42.7590 C   0  0  0  0  0  0  0  0  0  0  0  0
    1.1740   19.7940   42.2120 C   0  0  0  0  0  0  0  0  0  0  0  0
    0.7810   16.0510   43.1060 C   0  0  0  0  0  0  0  0  0  0  0  0
    0.1710   17.9010   44.6570 C   0  0  0  0  0  0  0  0  0  0  0  0
    2.0060   19.2180   40.1750 O   0  0  0  0  0  0  0  0  0  0  0  0
    3.0320   20.6580   41.3360 O   0  0  0  0  0  1  0  0  0  0  0  0
   -0.5190   18.6000   45.7270 C   0  0  0  0  0  0  0  0  0  0  0  0
   -0.6250   19.9410   45.3000 N   0  0  0  0  0  0  0  0  0  0  0  0
    0.4380   18.6830   43.9490 C   0  0  0  0  0  0  0  0  0  0  0  0
    1.9910   19.8470   41.0220 C   0  0  0  0  0  0  0  0  0  0  0  0
    2.5830   12.8510   43.1440 N   0  0  0  0  0  4  0  0  0  0  0  0
    0.9490   14.0570   44.3460 O   0  0  0  0  0  0  0  0  0  0  0  0
    1.3470   16.3628   45.0405 H   0  0  0  0  0  0  0  0  0  0  0  0
   -0.5025   16.1149   44.6043 H   0  0  0  0  0  0  0  0  0  0  0  0
    3.3294   14.8061   42.6275 H   0  0  0  0  0  0  0  0  0  0  0  0
    2.0766   14.2614   41.5496 H   0  0  0  0  0  0  0  0  0  0  0  0
    1.2540   16.9305   41.3467 H   0  0  0  0  0  0  0  0  0  0  0  0
    2.5186   16.9310   42.7134 H   0  0  0  0  0  0  0  0  0  0  0  0
    0.1443   21.7868   42.7997 H   0  0  0  0  0  0  0  0  0  0  0  0
   -0.0120   15.7962   42.3875 H   0  0  0  0  0  0  0  0  0  0  0  0
   -0.8831   18.1731   46.6731 H   0  0  0  0  0  0  0  0  0  0  0  0
    2.5787   12.8822   44.1735 H   0  0  0  0  0  0  0  0  0  0  0  0
    1.8179   12.2446   42.8157 H   0  0  0  0  0  0  0  0  0  0  0  0
    3.4840   12.4752   42.8157 H   0  0  0  0  0  0  0  0  0  0  0  0
  1 10  1  0
  2 17  1  0
  2  4  1  0
  3  7  1  0
  3  9  1  0
  4 18  2  0
  5 14  2  0
  6  5  1  0
  7 15  2  0
  8  7  1  0
  8  6  2  0
  9  4  1  0
  9  1  1  0
 10 13  2  0
 11 16  2  0
 14 13  1  0
 15  5  1  0
 15 10  1  0
 16 12  1  0
 16  8  1  0
  1 19  1  0
  1 20  1  0
  2 21  1  0
  2 22  1  0
  3 23  1  0
  3 24  1  0
  6 25  1  0
  9 26  1  0
 13 27  1  0
 17 28  1  0
 17 29  1  0
 17 30  1  0
M  CHG  2  12  -1  17   1
M  END
>  <mol_id>  (86) 
2026-09-18-6fnk-s0-n100-refligand-0088

>  <rmsd_to_ref>  (86) 


$$$$

     RDKit          3D

 46 49  0  0  0  0  0  0  0  0999 V2000
    1.8060   18.2710   42.1390 C   0  0  0  0  0  0  0  0  0  0  0  0
    1.6420   10.9260   42.0480 N   0  0  0  0  0  4  0  0  0  0  0  0
    1.6110   20.8050   40.8390 C   0  0  0  0  0  0  0  0  0  0  0  0
    3.1470   16.4160   39.8340 O   0  0  0  0  0  0  0  0  0  0  0  0
   -0.1980   20.6510   43.9730 C   0  0  0  0  0  0  0  0  0  0  0  0
    1.0030   18.7870   43.1710 C   0  0  0  0  0  0  0  0  0  0  0  0
   -0.6980   19.8870   45.0600 N   0  0  0  0  0  0  0  0  0  0  0  0
    0.5930   18.0580   44.2770 C   0  0  0  0  0  0  0  0  0  0  0  0
   -0.4720   22.0040   43.2680 O   0  0  0  0  0  0  0  0  0  0  0  0
    1.5780   12.2030   41.3990 C   0  0  0  0  0  0  0  0  0  0  0  0
    2.0240   16.8520   42.1260 N   0  0  0  0  0  0  0  0  0  0  0  0
    2.5140   17.1470   40.5470 C   0  0  0  0  0  0  0  0  0  0  0  0
    1.0880   13.2120   43.6480 C   0  0  0  0  0  0  0  0  0  0  0  0
    1.1630   14.3630   44.4360 C   0  0  0  0  0  0  0  0  0  0  0  0
    0.5890   20.1250   43.0150 C   0  0  0  0  0  0  0  0  0  0  0  0
    0.8910   20.8120   41.8540 C   0  0  0  0  0  0  0  0  0  0  0  0
   -0.3400   18.6150   45.1480 C   0  0  0  0  0  0  0  0  0  0  0  0
    2.5470   19.8380   40.2220 C   0  0  0  0  0  0  0  0  0  0  0  0
   -1.1120   17.5740   46.1330 C   0  0  0  0  0  0  0  0  0  0  0  0
    1.9110   15.6450   42.6470 C   0  0  0  0  0  0  0  0  0  0  0  0
    3.2560   20.3600   39.2460 O   0  0  0  0  0  0  0  0  0  0  0  0
    2.2080   14.5090   41.8790 C   0  0  0  0  0  0  0  0  0  0  0  0
    1.5730   15.5700   43.9380 C   0  0  0  0  0  0  0  0  0  0  0  0
    2.2890   18.4950   40.6910 C   0  0  0  0  0  0  0  0  0  0  0  0
    4.3950   21.2440   39.5570 C   0  0  0  0  0  0  0  0  0  0  0  0
    1.5930   13.3460   42.3370 C   0  0  0  0  0  0  0  0  0  0  0  0
    1.6353   11.0592   43.0693 H   0  0  0  0  0  0  0  0  0  0  0  0
    0.8284   10.3586   41.7704 H   0  0  0  0  0  0  0  0  0  0  0  0
    2.5083   10.4428   41.7704 H   0  0  0  0  0  0  0  0  0  0  0  0
    1.5336   21.7393   40.2635 H   0  0  0  0  0  0  0  0  0  0  0  0
    0.9993   17.0530   44.4639 H   0  0  0  0  0  0  0  0  0  0  0  0
    2.4430   12.2945   40.7257 H   0  0  0  0  0  0  0  0  0  0  0  0
    0.6207   12.2422   40.8586 H   0  0  0  0  0  0  0  0  0  0  0  0
    0.6653   12.2681   44.0228 H   0  0  0  0  0  0  0  0  0  0  0  0
    0.8818   14.2967   45.4974 H   0  0  0  0  0  0  0  0  0  0  0  0
    0.2508   21.7055   41.8110 H   0  0  0  0  0  0  0  0  0  0  0  0
   -0.9121   17.8436   47.1806 H   0  0  0  0  0  0  0  0  0  0  0  0
   -2.1942   17.6225   45.9420 H   0  0  0  0  0  0  0  0  0  0  0  0
   -0.7514   16.5525   45.9420 H   0  0  0  0  0  0  0  0  0  0  0  0
    0.8644   15.5982   42.3115 H   0  0  0  0  0  0  0  0  0  0  0  0
    1.8779   14.6925   40.8459 H   0  0  0  0  0  0  0  0  0  0  0  0
    3.2937   14.3477   41.9508 H   0  0  0  0  0  0  0  0  0  0  0  0
    1.6232   16.4580   44.5853 H   0  0  0  0  0  0  0  0  0  0  0  0
    4.5054   21.3297   40.6481 H   0  0  0  0  0  0  0  0  0  0  0  0
    5.3152   20.8213   39.1274 H   0  0  0  0  0  0  0  0  0  0  0  0
    4.2139   22.2403   39.1274 H   0  0  0  0  0  0  0  0  0  0  0  0
  1  6  1  0
  3 16  1  0
  4 12  2  0
  5  7  1  0
  6  8  2  0
  7 17  2  0
  8 17  1  0
  9  5  2  0
 10  2  1  0
 10 26  1  0
 11  1  1  0
 11 20  1  0
 12 24  1  0
 12 11  1  0
 13 14  1  0
 15  6  1  0
 15  5  1  0
 16 15  2  0
 17 19  1  0
 18 24  1  0
 18  3  2  0
 20 22  1  0
 20 23  1  0
 21 25  1  0
 21 18  1  0
 22 26  1  0
 23 14  2  0
 24  1  2  0
 26 13  2  0
  2 27  1  0
  2 28  1  0
  2 29  1  0
  3 30  1  0
  8 31  1  0
 10 32  1  0
 10 33  1  0
 13 34  1  0
 14 35  1  0
 16 36  1  0
 19 37  1  0
 19 38  1  0
 19 39  1  0
 20 40  1  0
 22 41  1  0
 22 42  1  0
 23 43  1  0
 25 44  1  0
 25 45  1  0
 25 46  1  0
M  CHG  1   2   1
M  END
>  <mol_id>  (87) 
2026-09-18-6fnk-s0-n100-refligand-0089

>  <rmsd_to_ref>  (87) 


$$$$

     RDKit          3D

 16 16  0  0  0  0  0  0  0  0999 V2000
    1.9780   19.2660   42.2620 C   0  0  0  0  0  0  0  0  0  0  0  0
    0.4860   17.7770   43.3320 C   0  0  0  0  0  0  0  0  0  0  0  0
    2.6940   18.2570   41.7540 C   0  0  0  0  0  0  0  0  0  0  0  0
    0.8140   19.0320   43.0660 C   0  0  0  0  0  0  0  0  0  0  0  0
    1.1300   16.7090   42.5670 C   0  0  0  0  0  0  0  0  0  0  0  0
    0.0890   21.4030   42.8890 N   0  0  0  0  0  0  0  0  0  0  0  0
    0.0400   20.2640   43.5480 C   0  0  0  0  0  0  0  0  0  0  0  0
    2.2400   16.9280   41.9230 C   0  0  0  0  0  0  0  0  0  0  0  0
   -0.5720   20.1170   44.5490 O   0  0  0  0  0  0  0  0  0  0  0  0
    2.2898   20.3010   42.0580 H   0  0  0  0  0  0  0  0  0  0  0  0
   -0.2544   17.5426   44.1110 H   0  0  0  0  0  0  0  0  0  0  0  0
    3.6281   18.4589   41.2093 H   0  0  0  0  0  0  0  0  0  0  0  0
    0.6711   15.7098   42.5356 H   0  0  0  0  0  0  0  0  0  0  0  0
   -0.4390   22.2187   43.2306 H   0  0  0  0  0  0  0  0  0  0  0  0
    0.6553   21.4782   42.0320 H   0  0  0  0  0  0  0  0  0  0  0  0
    2.8195   16.0873   41.5140 H   0  0  0  0  0  0  0  0  0  0  0  0
  1  4  2  0
  3  8  2  0
  3  1  1  0
  4  2  1  0
  4  7  1  0
  5  2  2  0
  6  7  1  0
  7  9  2  0
  8  5  1  0
  1 10  1  0
  2 11  1  0
  3 12  1  0
  5 13  1  0
  6 14  1  0
  6 15  1  0
  8 16  1  0
M  END
>  <mol_id>  (88) 
2026-09-18-6fnk-s0-n100-refligand-0090

>  <rmsd_to_ref>  (88) 


$$$$

     RDKit          3D

 26 28  0  0  0  0  0  0  0  0999 V2000
    2.7660   15.9310   38.5510 C   0  0  0  0  0  0  0  0  0  0  0  0
    2.7080   16.2730   40.9500 C   0  0  0  0  0  0  0  0  0  0  0  0
    2.1350   17.5110   40.7090 C   0  0  0  0  0  0  0  0  0  0  0  0
   -0.1730   19.0340   44.8870 C   0  0  0  0  0  0  0  0  0  0  0  0
    0.4680   20.5140   43.1210 N   0  0  0  0  0  0  0  0  0  0  0  0
   -0.7270   19.9230   45.4700 O   0  0  0  0  0  0  0  0  0  0  0  0
    1.1270   18.1360   43.0480 C   0  0  0  0  0  0  0  0  0  0  0  0
    0.4110   16.7440   44.8210 C   0  0  0  0  0  0  0  0  0  0  0  0
    1.7630   18.4050   41.7560 C   0  0  0  0  0  0  0  0  0  0  0  0
    1.1680   20.7000   42.0330 C   0  0  0  0  0  0  0  0  0  0  0  0
    1.7580   17.7650   39.3630 C   0  0  0  0  0  0  0  0  0  0  0  0
   -0.1790   17.7490   45.4330 N   0  0  0  0  0  0  0  0  0  0  0  0
    1.9150   19.7780   41.4560 C   0  0  0  0  0  0  0  0  0  0  0  0
    2.0880   17.0590   38.3610 N   0  0  0  0  0  0  0  0  0  0  0  0
    1.1100   16.8550   43.6200 C   0  0  0  0  0  0  0  0  0  0  0  0
    2.9390   15.4170   39.8120 C   0  0  0  0  0  0  0  0  0  0  0  0
    0.5130   19.2270   43.6220 C   0  0  0  0  0  0  0  0  0  0  0  0
    3.1939   15.4028   37.6862 H   0  0  0  0  0  0  0  0  0  0  0  0
    2.9761   15.9554   41.9684 H   0  0  0  0  0  0  0  0  0  0  0  0
    0.3483   15.7502   45.2885 H   0  0  0  0  0  0  0  0  0  0  0  0
    1.1318   21.6951   41.5655 H   0  0  0  0  0  0  0  0  0  0  0  0
    1.1279   18.6465   39.1734 H   0  0  0  0  0  0  0  0  0  0  0  0
    2.6753   20.0856   40.7230 H   0  0  0  0  0  0  0  0  0  0  0  0
    0.6508   16.1663   42.8956 H   0  0  0  0  0  0  0  0  0  0  0  0
    2.1573   16.6156   43.8565 H   0  0  0  0  0  0  0  0  0  0  0  0
    3.2483   14.3708   39.9523 H   0  0  0  0  0  0  0  0  0  0  0  0
  1 16  2  0
  3  2  2  0
  3  9  1  0
  4 12  1  0
  4  6  2  0
  5 17  2  0
  7 15  1  0
  7 17  1  0
  8 12  2  0
  9  7  2  0
 10  5  1  0
 11  3  1  0
 13  9  1  0
 13 10  2  0
 14  1  1  0
 14 11  2  0
 15  8  1  0
 16  2  1  0
 17  4  1  0
  1 18  1  0
  2 19  1  0
  8 20  1  0
 10 21  1  0
 11 22  1  0
 13 23  1  0
 15 24  1  0
 15 25  1  0
 16 26  1  0
M  END
>  <mol_id>  (89) 
2026-09-18-6fnk-s0-n100-refligand-0091

>  <rmsd_to_ref>  (89) 


$$$$

     RDKit          3D

 46 50  0  0  0  0  0  0  0  0999 V2000
    0.4950   16.4950   43.2390 C   0  0  0  0  0  0  0  0  0  0  0  0
   -0.5960   16.7470   45.8010 C   0  0  0  0  0  0  0  0  0  0  0  0
    2.6470   20.6040   38.6820 N   0  0  0  0  0  0  0  0  0  0  0  0
    1.0920   18.3710   41.9840 C   0  0  0  0  0  0  0  0  0  0  0  0
    0.7530   20.4430   42.9080 C   0  0  0  0  0  0  0  0  0  0  0  0
   -0.2300   18.0940   46.4540 C   0  0  0  0  0  0  0  0  0  0  0  0
    0.8520   15.4930   42.6160 C   0  0  0  0  0  0  0  0  0  0  0  0
    3.4470   21.0120   37.7310 C   0  0  0  0  0  0  0  0  0  0  0  0
    5.0250   21.6390   39.3590 C   0  0  0  0  0  0  0  0  0  0  0  0
    1.8450   18.7750   41.0860 C   0  0  0  0  0  0  0  0  0  0  0  0
   -0.7830   19.3020   45.3660 S   0  0  0  0  0  0  0  0  0  0  0  0
    2.0400   20.1440   41.0210 C   0  0  0  0  0  0  0  0  0  0  0  0
    4.1200   21.2490   40.3560 C   0  0  0  0  0  0  0  0  0  0  0  0
    0.1950   18.5640   44.0990 C   0  0  0  0  0  0  0  0  0  0  0  0
    2.8920   20.7010   40.0270 C   0  0  0  0  0  0  0  0  0  0  0  0
    1.2690   14.1030   43.3740 C   0  0  0  0  0  0  0  0  0  0  0  0
    0.1240   16.3160   44.6400 C   0  0  0  0  0  0  0  0  0  0  0  0
    0.0250   21.1940   43.7250 O   0  0  0  0  0  0  0  0  0  0  0  0
    2.2990   11.1810   43.6200 O   0  0  0  0  0  1  0  0  0  0  0  0
    0.5210   17.2800   44.0000 C   0  0  0  0  0  0  0  0  0  0  0  0
   -0.0080   11.1590   43.5180 O   0  0  0  0  0  0  0  0  0  0  0  0
    1.2980   11.8030   43.2750 C   0  0  0  0  0  0  0  0  0  0  0  0
    4.6630   21.5250   38.0760 N   0  0  0  0  0  0  0  0  0  0  0  0
    0.3760   14.3050   44.8740 S   0  0  0  0  0  0  0  0  0  0  0  0
    1.3200   12.9960   42.4140 C   0  0  0  0  0  0  0  0  0  0  0  0
    0.6650   19.1330   42.9740 C   0  0  0  0  0  0  0  0  0  0  0  0
    1.4510   21.0500   41.9270 C   0  0  0  0  0  0  0  0  0  0  0  0
    0.4393   16.6993   42.1596 H   0  0  0  0  0  0  0  0  0  0  0  0
   -0.4627   15.9706   46.5688 H   0  0  0  0  0  0  0  0  0  0  0  0
   -1.6199   16.9046   45.4310 H   0  0  0  0  0  0  0  0  0  0  0  0
    0.7621   17.3221   41.9545 H   0  0  0  0  0  0  0  0  0  0  0  0
   -0.7305   18.1968   47.4281 H   0  0  0  0  0  0  0  0  0  0  0  0
    0.8515   18.1763   46.6371 H   0  0  0  0  0  0  0  0  0  0  0  0
    0.0219   15.2384   41.9406 H   0  0  0  0  0  0  0  0  0  0  0  0
    1.8107   15.8180   42.1857 H   0  0  0  0  0  0  0  0  0  0  0  0
    3.1456   20.9429   36.6754 H   0  0  0  0  0  0  0  0  0  0  0  0
    6.0167   22.0324   39.6271 H   0  0  0  0  0  0  0  0  0  0  0  0
    2.3308   18.0847   40.3807 H   0  0  0  0  0  0  0  0  0  0  0  0
    4.3893   21.3802   41.4144 H   0  0  0  0  0  0  0  0  0  0  0  0
    1.1101   18.8618   44.6319 H   0  0  0  0  0  0  0  0  0  0  0  0
    2.2674   13.8165   43.7363 H   0  0  0  0  0  0  0  0  0  0  0  0
    0.0884   22.1809   43.6785 H   0  0  0  0  0  0  0  0  0  0  0  0
    1.3292   18.0141   44.1336 H   0  0  0  0  0  0  0  0  0  0  0  0
    0.4481   13.0148   41.7436 H   0  0  0  0  0  0  0  0  0  0  0  0
    2.2001   13.0364   41.7553 H   0  0  0  0  0  0  0  0  0  0  0  0
    1.5509   22.1421   41.8420 H   0  0  0  0  0  0  0  0  0  0  0  0
  1  7  1  0
  1 20  1  0
  1 17  1  0
  2  6  1  0
  3 15  2  0
  4 26  2  0
  5 26  1  0
  5 18  1  0
  7 16  1  0
  8 23  2  0
  8  3  1  0
  9 13  2  0
 10  4  1  0
 11  6  1  0
 12 10  2  0
 12 27  1  0
 14 26  1  0
 14 11  1  0
 15 13  1  0
 15 12  1  0
 16 25  1  0
 16 24  1  0
 17 24  1  0
 17  2  1  0
 20 14  1  0
 20 17  1  0
 22 21  2  0
 22 19  1  0
 23  9  1  0
 25 22  1  0
 27  5  2  0
  1 28  1  0
  2 29  1  0
  2 30  1  0
  4 31  1  0
  6 32  1  0
  6 33  1  0
  7 34  1  0
  7 35  1  0
  8 36  1  0
  9 37  1  0
 10 38  1  0
 13 39  1  0
 14 40  1  0
 16 41  1  0
 18 42  1  0
 20 43  1  0
 25 44  1  0
 25 45  1  0
 27 46  1  0
M  CHG  1  19  -1
M  END
>  <mol_id>  (90) 
2026-09-18-6fnk-s0-n100-refligand-0092

>  <rmsd_to_ref>  (90) 


$$$$

     RDKit          3D

 19 21  0  0  0  0  0  0  0  0999 V2000
    1.8150   18.6180   42.0170 C   0  0  0  0  0  0  0  0  0  0  0  0
    0.4090   17.8190   44.9970 N   0  0  0  0  0  0  0  0  0  0  0  0
    0.2370   18.9380   44.2580 C   0  0  0  0  0  0  0  0  0  0  0  0
   -0.2940   16.6250   44.7350 C   0  0  0  0  0  0  0  0  0  0  0  0
    1.1180   16.7050   44.5320 C   0  0  0  0  0  0  0  0  0  0  0  0
    1.3420   20.8840   41.7150 N   0  0  0  0  0  0  0  0  0  0  0  0
    0.7150   19.2590   43.1370 C   0  0  0  0  0  0  0  0  0  0  0  0
    2.0380   19.6840   41.2810 C   0  0  0  0  0  0  0  0  0  0  0  0
   -0.2340   20.9920   43.7530 N   0  0  0  0  0  0  0  0  0  0  0  0
   -0.5780   20.0380   44.6000 N   0  0  0  0  0  0  0  0  0  0  0  0
    0.6120   20.4950   42.7640 C   0  0  0  0  0  0  0  0  0  0  0  0
    2.2248   17.6008   41.9310 H   0  0  0  0  0  0  0  0  0  0  0  0
   -0.6999   16.0291   45.5658 H   0  0  0  0  0  0  0  0  0  0  0  0
   -1.1595   16.3455   44.1164 H   0  0  0  0  0  0  0  0  0  0  0  0
    1.8023   16.1677   45.2051 H   0  0  0  0  0  0  0  0  0  0  0  0
    1.7960   16.5098   43.6881 H   0  0  0  0  0  0  0  0  0  0  0  0
    2.7009   19.6691   40.4033 H   0  0  0  0  0  0  0  0  0  0  0  0
   -0.5487   21.9707   43.8155 H   0  0  0  0  0  0  0  0  0  0  0  0
   -1.2860   20.0866   45.3465 H   0  0  0  0  0  0  0  0  0  0  0  0
  1  7  1  0
  3 10  1  0
  3  2  1  0
  4  2  1  0
  5  4  1  0
  5  2  1  0
  6 11  2  0
  7  3  2  0
  8  6  1  0
  8  1  2  0
  9 10  1  0
 11  7  1  0
 11  9  1  0
  1 12  1  0
  4 13  1  0
  4 14  1  0
  5 15  1  0
  5 16  1  0
  8 17  1  0
  9 18  1  0
 10 19  1  0
M  END
>  <mol_id>  (91) 
2026-09-18-6fnk-s0-n100-refligand-0093

>  <rmsd_to_ref>  (91) 


$$$$

     RDKit          3D

 14 14  0  0  0  0  0  0  0  0999 V2000
    2.2940   18.6410   41.9600 N   0  0  0  0  0  0  0  0  0  0  0  0
   -0.9650   18.7820   44.8680 N   0  0  0  0  0  0  0  0  0  0  0  0
    0.2790   17.0110   44.6220 N   0  0  0  0  0  0  0  0  0  0  0  0
    1.8880   19.8380   41.7550 C   0  0  0  0  0  0  0  0  0  0  0  0
   -0.8320   20.1800   44.8350 O   0  0  0  0  0  0  0  0  0  0  0  0
    1.7830   18.0550   42.8360 N   0  0  0  0  0  0  0  0  0  0  0  0
    0.9910   20.1670   42.6060 N   0  0  0  0  0  0  0  0  0  0  0  0
    0.7410   19.0510   43.3600 C   0  0  0  0  0  0  0  0  0  0  0  0
   -0.0440   18.2280   44.2890 C   0  0  0  0  0  0  0  0  0  0  0  0
    3.0332   18.2147   41.3832 H   0  0  0  0  0  0  0  0  0  0  0  0
   -1.7435   18.2856   45.3244 H   0  0  0  0  0  0  0  0  0  0  0  0
   -0.3123   16.4828   45.2795 H   0  0  0  0  0  0  0  0  0  0  0  0
    2.2602   20.4949   40.9551 H   0  0  0  0  0  0  0  0  0  0  0  0
   -0.7987   20.5303   45.7604 H   0  0  0  0  0  0  0  0  0  0  0  0
  1  6  1  0
  4  1  1  0
  4  7  2  0
  5  2  1  0
  6  8  2  0
  7  8  1  0
  8  9  1  0
  9  3  2  3
  9  2  1  0
  1 10  1  0
  2 11  1  0
  3 12  1  0
  4 13  1  0
  5 14  1  0
M  END
>  <mol_id>  (92) 
2026-09-18-6fnk-s0-n100-refligand-0094

>  <rmsd_to_ref>  (92) 


$$$$

     RDKit          3D

 32 35  0  0  0  0  0  0  0  0999 V2000
    2.0320   20.4240   39.6160 C   0  0  0  0  0  0  0  0  0  0  0  0
   -0.2560   19.1710   44.7320 C   0  0  0  0  0  0  0  0  0  0  0  0
    0.2040   17.9500   44.1850 C   0  0  0  0  0  0  0  0  0  0  0  0
    1.6630   18.5200   42.1790 N   0  0  0  0  0  0  0  0  0  0  0  0
    5.1660   21.6860   41.3450 C   0  0  0  0  0  0  0  0  0  0  0  0
    4.0300   21.1430   40.5710 C   0  0  0  0  0  0  0  0  0  0  0  0
    4.3130   21.3420   38.8580 S   0  0  0  0  0  0  0  0  0  0  0  0
   -0.1030   16.6840   44.8610 C   0  0  0  0  0  0  0  0  0  0  0  0
   -0.7960   16.6760   46.0950 C   0  0  0  0  0  0  0  0  0  0  0  0
    2.7700   20.8400   38.4160 C   0  0  0  0  0  0  0  0  0  0  0  0
    0.8170   20.7360   42.8620 C   0  0  0  0  0  0  0  0  0  0  0  0
    5.4810   22.2530   42.4720 C   0  0  0  0  0  0  0  0  0  0  0  0
    0.9890   17.5860   43.0170 C   0  0  0  0  0  0  0  0  0  0  0  0
   -1.1410   17.9330   46.5710 C   0  0  0  0  0  0  0  0  0  0  0  0
    0.3970   15.5270   44.1010 C   0  0  0  0  0  0  0  0  0  0  0  0
    2.6270   20.4300   40.8800 C   0  0  0  0  0  0  0  0  0  0  0  0
   -0.8800   19.1430   45.8880 N   0  0  0  0  0  0  0  0  0  0  0  0
   -0.0080   20.5100   43.9880 C   0  0  0  0  0  0  0  0  0  0  0  0
    1.0870   16.1170   42.9280 C   0  0  0  0  0  0  0  0  0  0  0  0
    1.5920   19.8630   42.0310 C   0  0  0  0  0  0  0  0  0  0  0  0
    0.9855   20.0999   39.5170 H   0  0  0  0  0  0  0  0  0  0  0  0
    6.0821   21.5665   40.7480 H   0  0  0  0  0  0  0  0  0  0  0  0
   -1.0413   15.7485   46.6332 H   0  0  0  0  0  0  0  0  0  0  0  0
    2.3753   20.8255   37.3893 H   0  0  0  0  0  0  0  0  0  0  0  0
    0.8755   21.7934   42.5645 H   0  0  0  0  0  0  0  0  0  0  0  0
    6.5273   22.5221   42.6787 H   0  0  0  0  0  0  0  0  0  0  0  0
    4.7011   22.4635   43.2186 H   0  0  0  0  0  0  0  0  0  0  0  0
   -1.6511   17.9918   47.5438 H   0  0  0  0  0  0  0  0  0  0  0  0
    0.2840   14.4611   44.3481 H   0  0  0  0  0  0  0  0  0  0  0  0
   -1.1887   20.0305   46.3098 H   0  0  0  0  0  0  0  0  0  0  0  0
   -0.5376   21.3890   44.3841 H   0  0  0  0  0  0  0  0  0  0  0  0
    1.5875   15.5538   42.1266 H   0  0  0  0  0  0  0  0  0  0  0  0
  1 16  1  0
  2 17  1  0
  3  2  1  0
  3  8  2  0
  4 13  2  0
  5 12  2  3
  6 16  2  0
  6  5  1  0
  7  6  1  0
  8  9  1  0
  9 14  2  0
 10  7  1  0
 10  1  2  0
 11 18  1  0
 13  3  1  0
 15  8  1  0
 16 20  1  0
 17 14  1  0
 18  2  2  0
 19 13  1  0
 19 15  2  0
 20  4  1  0
 20 11  2  0
  1 21  1  0
  5 22  1  0
  9 23  1  0
 10 24  1  0
 11 25  1  0
 12 26  1  0
 12 27  1  0
 14 28  1  0
 15 29  1  0
 17 30  1  0
 18 31  1  0
 19 32  1  0
M  END
>  <mol_id>  (93) 
2026-09-18-6fnk-s0-n100-refligand-0095

>  <rmsd_to_ref>  (93) 


$$$$

     RDKit          3D

 26 26  0  0  0  0  0  0  0  0999 V2000
    0.7800   16.6100   45.0310 S   0  0  0  0  0  0  0  0  0  0  0  0
   -0.6040   18.5980   45.9830 C   0  0  0  0  0  0  0  0  0  0  0  0
    2.8930   16.2850   38.4020 O   0  0  0  0  0  0  0  0  0  0  0  0
    2.1610   16.2870   40.6230 C   0  0  0  0  0  0  0  0  0  0  0  0
    2.1360   18.6640   41.4410 C   0  0  0  0  0  0  0  0  0  0  0  0
   -0.2260   19.4720   44.7910 C   0  0  0  0  0  0  0  0  0  0  0  0
    2.8490   17.6380   41.0080 C   0  0  0  0  0  0  0  0  0  0  0  0
    0.5320   19.1500   43.7160 C   0  0  0  0  0  0  0  0  0  0  0  0
   -0.7320   17.1670   45.6920 C   0  0  0  0  0  0  0  0  0  0  0  0
   -0.7740   20.5430   44.8930 O   0  0  0  0  0  0  0  0  0  0  0  0
    3.1510   15.7470   39.6790 C   0  0  0  0  0  0  0  0  0  0  0  0
    0.8520   20.3010   42.7020 C   0  0  0  0  0  0  0  0  0  0  0  0
    0.2840   21.4380   42.6630 N   0  0  0  0  0  0  0  0  0  0  0  0
    1.7520   19.9600   41.6290 C   0  0  0  0  0  0  0  0  0  0  0  0
    4.3740   15.4860   39.7820 O   0  0  0  0  0  1  0  0  0  0  0  0
    1.0280   17.7410   43.5920 C   0  0  0  0  0  0  0  0  0  0  0  0
    0.1709   18.7205   46.7541 H   0  0  0  0  0  0  0  0  0  0  0  0
   -1.6007   18.9345   46.3043 H   0  0  0  0  0  0  0  0  0  0  0  0
    2.0330   15.6319   41.4973 H   0  0  0  0  0  0  0  0  0  0  0  0
    1.1442   16.3880   40.2158 H   0  0  0  0  0  0  0  0  0  0  0  0
    3.9409   17.7359   40.9173 H   0  0  0  0  0  0  0  0  0  0  0  0
   -1.5394   17.0059   44.9625 H   0  0  0  0  0  0  0  0  0  0  0  0
   -0.9730   16.6121   46.6107 H   0  0  0  0  0  0  0  0  0  0  0  0
    0.5664   22.1307   41.9550 H   0  0  0  0  0  0  0  0  0  0  0  0
    2.1304   20.7467   40.9597 H   0  0  0  0  0  0  0  0  0  0  0  0
    1.5235   17.3920   42.6740 H   0  0  0  0  0  0  0  0  0  0  0  0
  1  9  1  0
  3 11  2  0
  4  7  1  0
  5 14  2  0
  6 10  2  0
  6  2  1  0
  7  5  2  0
  8  6  1  0
  9  2  1  0
 11 15  1  0
 11  4  1  0
 12  8  1  0
 13 12  2  3
 14 12  1  0
 16  8  2  0
 16  1  1  0
  2 17  1  0
  2 18  1  0
  4 19  1  0
  4 20  1  0
  7 21  1  0
  9 22  1  0
  9 23  1  0
 13 24  1  0
 14 25  1  0
 16 26  1  0
M  CHG  1  15  -1
M  END
>  <mol_id>  (94) 
2026-09-18-6fnk-s0-n100-refligand-0098

>  <rmsd_to_ref>  (94) 


$$$$

     RDKit          3D

 32 32  0  0  0  0  0  0  0  0999 V2000
    3.0320   14.9200   41.1850 C   0  0  0  0  0  0  0  0  0  0  0  0
   -0.5850   19.9750   45.1360 N   0  0  0  0  0  0  0  0  0  0  0  0
    1.8260   20.7380   41.1020 N   0  0  0  0  0  0  0  0  0  0  0  0
    1.6110   17.0710   42.3160 C   0  0  0  0  0  0  0  0  0  0  0  0
    0.6740   18.8060   43.4560 C   0  0  0  0  0  0  0  0  0  0  0  0
    1.4400   18.3100   42.2880 N   0  0  0  0  0  0  0  0  0  0  0  0
   -0.0220   19.9460   43.9600 C   0  0  0  0  0  0  0  0  0  0  0  0
    2.0920   16.1670   41.1090 C   0  0  0  0  0  0  0  0  0  0  0  0
    2.9840   20.8190   41.1640 O   0  0  0  0  0  0  0  0  0  0  0  0
    1.5070   15.4050   43.9160 O   0  0  0  0  0  0  0  0  0  0  0  0
    1.2380   16.6290   43.5160 C   0  0  0  0  0  0  0  0  0  0  0  0
    0.5980   17.6860   44.2120 C   0  0  0  0  0  0  0  0  0  0  0  0
    3.0800   14.1340   39.8820 C   0  0  0  0  0  0  0  0  0  0  0  0
   -0.6230   18.8330   45.8730 C   0  0  0  0  0  0  0  0  0  0  0  0
    0.9980   21.1350   41.8610 O   0  0  0  0  0  0  0  0  0  0  0  0
    2.4530   12.7600   39.7350 C   0  0  0  0  0  0  0  0  0  0  0  0
   -0.0400   17.6770   45.4630 C   0  0  0  0  0  0  0  0  0  0  0  0
    4.0493   15.2615   41.4266 H   0  0  0  0  0  0  0  0  0  0  0  0
    2.6302   14.2505   41.9598 H   0  0  0  0  0  0  0  0  0  0  0  0
   -0.0865   20.8427   43.3262 H   0  0  0  0  0  0  0  0  0  0  0  0
    2.5953   16.8599   40.4187 H   0  0  0  0  0  0  0  0  0  0  0  0
    1.1434   15.6601   40.8783 H   0  0  0  0  0  0  0  0  0  0  0  0
    1.5136   15.3752   44.9055 H   0  0  0  0  0  0  0  0  0  0  0  0
    0.2848   16.2808   43.0915 H   0  0  0  0  0  0  0  0  0  0  0  0
    2.6016   14.7708   39.1233 H   0  0  0  0  0  0  0  0  0  0  0  0
    4.1521   13.9028   39.7976 H   0  0  0  0  0  0  0  0  0  0  0  0
   -1.1470   18.8460   46.8401 H   0  0  0  0  0  0  0  0  0  0  0  0
    0.0382   20.9877   41.6680 H   0  0  0  0  0  0  0  0  0  0  0  0
    2.2598   12.3366   40.7317 H   0  0  0  0  0  0  0  0  0  0  0  0
    1.5053   12.8466   39.1834 H   0  0  0  0  0  0  0  0  0  0  0  0
    3.1394   12.1008   39.1834 H   0  0  0  0  0  0  0  0  0  0  0  0
   -0.0664   16.7705   46.0855 H   0  0  0  0  0  0  0  0  0  0  0  0
  2 14  2  0
  3  9  2  0
  3 15  1  0
  4 11  1  0
  5  7  2  0
  5 12  1  0
  6  4  2  0
  6  5  1  0
  7  2  1  0
  8  1  1  0
  8  4  1  0
 11 10  1  0
 11 12  1  0
 12 17  2  0
 13  1  1  0
 16 13  1  0
 17 14  1  0
  1 18  1  0
  1 19  1  0
  7 20  1  0
  8 21  1  0
  8 22  1  0
 10 23  1  0
 11 24  1  0
 13 25  1  0
 13 26  1  0
 14 27  1  0
 15 28  1  0
 16 29  1  0
 16 30  1  0
 16 31  1  0
 17 32  1  0
M  END
>  <mol_id>  (95) 
2026-09-18-6fnk-s0-n100-refligand-0099

>  <rmsd_to_ref>  (95) 


$$$$

     RDKit          3D

 27 27  0  0  0  0  0  0  0  0999 V2000
    1.0980   18.6800   45.3250 F   0  0  0  0  0  0  0  0  0  0  0  0
    2.3900   20.8590   41.9550 F   0  0  0  0  0  0  0  0  0  0  0  0
    0.9520   19.7710   42.7330 C   0  0  0  0  0  0  0  0  0  0  0  0
    1.4750   17.4640   41.3130 C   0  0  0  0  0  0  0  0  0  0  0  0
   -0.6950   17.2350   45.2930 C   0  0  0  0  0  0  0  0  0  0  0  0
    1.3440   16.4290   43.3120 O   0  0  0  0  0  0  0  0  0  0  0  0
    0.2060   18.4120   43.2350 C   0  0  0  0  0  0  0  0  0  0  0  0
   -1.1420   17.1610   46.2530 O   0  0  0  0  0  0  0  0  0  0  0  0
   -0.0210   18.4820   44.6610 C   0  0  0  0  0  0  0  0  0  0  0  0
    1.1990   17.5510   42.6320 C   0  0  0  0  0  0  0  0  0  0  0  0
    1.8790   18.2140   40.3420 C   0  0  0  0  0  0  0  0  0  0  0  0
   -0.8070   19.4870   45.0590 F   0  0  0  0  0  0  0  0  0  0  0  0
    2.2140   19.3880   40.7530 N   0  0  0  0  0  4  0  0  0  0  0  0
    1.8720   19.9410   41.8800 C   0  0  0  0  0  0  0  0  0  0  0  0
    0.1305   20.4040   42.3663 H   0  0  0  0  0  0  0  0  0  0  0  0
    1.5662   19.9307   43.6315 H   0  0  0  0  0  0  0  0  0  0  0  0
    2.2273   16.6616   41.2985 H   0  0  0  0  0  0  0  0  0  0  0  0
    0.4179   17.5766   41.0303 H   0  0  0  0  0  0  0  0  0  0  0  0
   -0.7114   16.3244   44.6761 H   0  0  0  0  0  0  0  0  0  0  0  0
    1.3186   16.6254   44.2820 H   0  0  0  0  0  0  0  0  0  0  0  0
   -0.8178   18.1145   42.9641 H   0  0  0  0  0  0  0  0  0  0  0  0
    2.0310   18.2636   42.7316 H   0  0  0  0  0  0  0  0  0  0  0  0
    1.0672   18.3123   39.6062 H   0  0  0  0  0  0  0  0  0  0  0  0
    2.7652   17.7431   39.8916 H   0  0  0  0  0  0  0  0  0  0  0  0
    3.2440   19.3859   40.7578 H   0  0  0  0  0  0  0  0  0  0  0  0
    1.6542   19.9610   40.1056 H   0  0  0  0  0  0  0  0  0  0  0  0
    1.7850   18.9203   42.2807 H   0  0  0  0  0  0  0  0  0  0  0  0
  3  7  1  0
  4 10  1  0
  5  8  2  0
  7  9  1  0
  9 12  1  0
  9  5  1  0
  9  1  1  0
 10  7  1  0
 10  6  1  0
 11 13  1  0
 11  4  1  0
 13 14  1  0
 14  2  1  0
 14  3  1  0
  3 15  1  0
  3 16  1  0
  4 17  1  0
  4 18  1  0
  5 19  1  0
  6 20  1  0
  7 21  1  0
 10 22  1  0
 11 23  1  0
 11 24  1  0
 13 25  1  0
 13 26  1  0
 14 27  1  0
M  CHG  1  13   1
M  END
>  <mol_id>  (96) 
2026-09-18-6fnk-s0-n100-refligand-0100

>  <rmsd_to_ref>  (96) 


$$$$
