6tgu.A
     RDKit          3D

 32 34  0  0  0  0  0  0  0  0999 V2000
    3.2704   20.0816   36.9100 C   0  0  0  0  0  0  0  0  0  0  0  0
    2.7239   19.8375   38.3194 C   0  0  0  0  0  0  0  0  0  0  0  0
    1.9745   20.8172   38.9669 C   0  0  0  0  0  0  0  0  0  0  0  0
    1.3019   20.5646   40.1670 C   0  0  0  0  0  0  0  0  0  0  0  0
    1.5079   19.3565   40.8488 C   0  0  0  0  0  0  0  0  0  0  0  0
    0.4444   17.8615   42.6087 C   0  0  0  0  0  0  0  0  0  0  0  0
    0.4288   15.6073   42.9153 C   0  0  0  0  0  0  0  0  0  0  0  0
    0.8553   14.2304   42.6635 C   0  0  0  0  0  0  0  0  0  0  0  0
    0.2328   13.1351   43.2790 C   0  0  0  0  0  0  0  0  0  0  0  0
    0.6322   11.8319   42.9995 C   0  0  0  0  0  0  0  0  0  0  0  0
    1.6306   11.6302   42.0652 C   0  0  0  0  0  0  0  0  0  0  0  0
    2.2690   12.6840   41.4288 C   0  0  0  0  0  0  0  0  0  0  0  0
    1.8629   13.9810   41.7304 C   0  0  0  0  0  0  0  0  0  0  0  0
   -0.5843   15.9508   43.7709 C   0  0  0  0  0  0  0  0  0  0  0  0
    2.2504   18.3557   40.2060 C   0  0  0  0  0  0  0  0  0  0  0  0
    2.8437   18.6148   38.9691 C   0  0  0  0  0  0  0  0  0  0  0  0
    0.7803   19.0569   42.0413 N   0  0  0  0  0  0  0  0  0  0  0  0
    0.9791   16.6716   42.1626 N   0  0  0  0  0  0  0  0  0  0  0  0
    2.8674   21.1275   36.3211 O   0  0  0  0  0  0  0  0  0  0  0  0
    4.0035   19.1925   36.4244 O   0  0  0  0  0  0  0  0  0  0  0  0
    3.4800   17.5959   38.3007 O   0  0  0  0  0  0  0  0  0  0  0  0
   -0.9334   17.6347   43.6687 S   0  0  0  0  0  0  0  0  0  0  0  0
    2.1103   10.0114   41.6767 Cl  0  0  0  0  0  0  0  0  0  0  0  0
    1.9097   21.8205   38.5206 H   0  0  0  0  0  0  0  0  0  0  0  0
    0.6099   21.3151   40.5769 H   0  0  0  0  0  0  0  0  0  0  0  0
   -0.5845   13.3089   43.9944 H   0  0  0  0  0  0  0  0  0  0  0  0
    0.1628   10.9792   43.5119 H   0  0  0  0  0  0  0  0  0  0  0  0
    3.0758   12.4998   40.7041 H   0  0  0  0  0  0  0  0  0  0  0  0
    2.3468   14.8280   41.2221 H   0  0  0  0  0  0  0  0  0  0  0  0
   -1.1055   15.2454   44.4348 H   0  0  0  0  0  0  0  0  0  0  0  0
    2.3653   17.3677   40.6757 H   0  0  0  0  0  0  0  0  0  0  0  0
    0.4535   19.8836   42.5615 H   0  0  0  0  0  0  0  0  0  0  0  0
  1  2  1  0
  1 19  1  0
  1 20  2  0
  2  3  1  0
  2 16  2  0
  3  4  2  0
  4  5  1  0
  5 15  2  0
  5 17  1  0
  6 17  1  0
  6 18  2  0
  6 22  1  0
  7  8  1  0
  7 14  2  0
  7 18  1  0
  8  9  1  0
  8 13  2  0
  9 10  2  0
 10 11  1  0
 11 12  2  0
 11 23  1  0
 12 13  1  0
 14 22  1  0
 15 16  1  0
 16 21  1  0
  3 24  1  0
  4 25  1  0
  9 26  1  0
 10 27  1  0
 12 28  1  0
 13 29  1  0
 14 30  1  0
 15 31  1  0
 17 32  1  0
M  CHG  2  19  -1  21  -1
M  END
>  <mol_id>  (1) 
2026-08-23-6tgu-s0-n100-r5-0001

>  <rmsd_to_ref>  (1) 
0.0

$$$$
6tgu.A
     RDKit          3D

 32 34  0  0  0  0  0  0  0  0999 V2000
    3.8653   19.8049   37.0611 C   0  0  0  0  0  0  0  0  0  0  0  0
    3.0042   19.6970   38.2355 C   0  0  0  0  0  0  0  0  0  0  0  0
    2.3751   20.7880   38.7762 C   0  0  0  0  0  0  0  0  0  0  0  0
    1.5713   20.6471   39.8833 C   0  0  0  0  0  0  0  0  0  0  0  0
    1.3586   19.4084   40.5021 C   0  0  0  0  0  0  0  0  0  0  0  0
    0.3074   18.0788   42.2606 C   0  0  0  0  0  0  0  0  0  0  0  0
    0.2563   15.9026   42.9185 C   0  0  0  0  0  0  0  0  0  0  0  0
    0.6627   14.5155   42.7539 C   0  0  0  0  0  0  0  0  0  0  0  0
    1.5077   14.1563   41.7273 C   0  0  0  0  0  0  0  0  0  0  0  0
    1.9352   12.8656   41.5086 C   0  0  0  0  0  0  0  0  0  0  0  0
    1.5069   11.8809   42.3452 C   0  0  0  0  0  0  0  0  0  0  0  0
    0.6595   12.2279   43.3782 C   0  0  0  0  0  0  0  0  0  0  0  0
    0.2334   13.5213   43.5945 C   0  0  0  0  0  0  0  0  0  0  0  0
   -0.6428   16.2730   44.0138 C   0  0  0  0  0  0  0  0  0  0  0  0
    2.0111   18.3392   39.9243 C   0  0  0  0  0  0  0  0  0  0  0  0
    2.8241   18.4614   38.8101 C   0  0  0  0  0  0  0  0  0  0  0  0
    0.5322   19.3041   41.6294 N   0  0  0  0  0  0  0  0  0  0  0  0
    0.5783   16.9291   42.2119 N   0  0  0  0  0  0  0  0  0  0  0  0
    4.0595   21.0422   36.4673 O   0  0  0  0  0  0  0  0  0  0  0  0
    4.4091   18.7574   36.6220 O   0  0  0  0  0  0  0  0  0  0  0  0
    3.4568   17.3342   38.2745 O   0  0  0  0  0  0  0  0  0  0  0  0
   -0.8290   18.0957   43.7675 S   0  0  0  0  0  0  0  0  0  0  0  0
    2.0340   10.2235   42.0935 Cl  0  0  0  0  0  0  0  0  0  0  0  0
    2.5428   21.7450   38.2936 H   0  0  0  0  0  0  0  0  0  0  0  0
    1.1014   21.5548   40.2620 H   0  0  0  0  0  0  0  0  0  0  0  0
    1.8385   14.9589   41.0698 H   0  0  0  0  0  0  0  0  0  0  0  0
    2.5965   12.6866   40.6776 H   0  0  0  0  0  0  0  0  0  0  0  0
    0.2917   11.4617   44.0751 H   0  0  0  0  0  0  0  0  0  0  0  0
   -0.4245   13.7605   44.4046 H   0  0  0  0  0  0  0  0  0  0  0  0
   -1.0830   15.6850   44.7587 H   0  0  0  0  0  0  0  0  0  0  0  0
    1.9077   17.3513   40.3298 H   0  0  0  0  0  0  0  0  0  0  0  0
    0.0882   20.2080   41.9748 H   0  0  0  0  0  0  0  0  0  0  0  0
  1  2  1  0
  1 19  1  0
  1 20  2  0
  2  3  1  0
  2 16  2  0
  3  4  2  0
  4  5  1  0
  5 15  2  0
  5 17  1  0
  6 17  1  0
  6 18  2  0
  6 22  1  0
  7  8  1  0
  7 14  2  0
  7 18  1  0
  8  9  1  0
  8 13  2  0
  9 10  2  0
 10 11  1  0
 11 12  2  0
 11 23  1  0
 12 13  1  0
 14 22  1  0
 15 16  1  0
 16 21  1  0
  3 24  1  0
  4 25  1  0
  9 26  1  0
 10 27  1  0
 12 28  1  0
 13 29  1  0
 14 30  1  0
 15 31  1  0
 17 32  1  0
M  CHG  2  19  -1  21  -1
M  END
>  <mol_id>  (2) 
2026-08-23-6tgu-s0-n100-r5-0002

>  <rmsd_to_ref>  (2) 
0.5000000000011378

$$$$
6tgu.A
     RDKit          3D

 32 34  0  0  0  0  0  0  0  0999 V2000
    3.5713   19.9440   36.6986 C   0  0  0  0  0  0  0  0  0  0  0  0
    2.8514   19.7539   38.0366 C   0  0  0  0  0  0  0  0  0  0  0  0
    1.8882   20.6681   38.4576 C   0  0  0  0  0  0  0  0  0  0  0  0
    1.0782   20.4316   39.5731 C   0  0  0  0  0  0  0  0  0  0  0  0
    1.3347   19.3358   40.4099 C   0  0  0  0  0  0  0  0  0  0  0  0
    0.2200   17.8702   42.1629 C   0  0  0  0  0  0  0  0  0  0  0  0
    0.4558   15.6767   42.7187 C   0  0  0  0  0  0  0  0  0  0  0  0
    1.0944   14.3605   42.6871 C   0  0  0  0  0  0  0  0  0  0  0  0
    0.5349   13.2473   43.3303 C   0  0  0  0  0  0  0  0  0  0  0  0
    1.1415   11.9971   43.2593 C   0  0  0  0  0  0  0  0  0  0  0  0
    2.2897   11.8591   42.5023 C   0  0  0  0  0  0  0  0  0  0  0  0
    2.8734   12.9319   41.8455 C   0  0  0  0  0  0  0  0  0  0  0  0
    2.2577   14.1771   41.9380 C   0  0  0  0  0  0  0  0  0  0  0  0
   -0.7135   15.9449   43.3800 C   0  0  0  0  0  0  0  0  0  0  0  0
    2.2932   18.4002   39.9949 C   0  0  0  0  0  0  0  0  0  0  0  0
    3.0304   18.6280   38.8315 C   0  0  0  0  0  0  0  0  0  0  0  0
    0.4782   19.0441   41.5156 N   0  0  0  0  0  0  0  0  0  0  0  0
    0.9698   16.7360   41.9339 N   0  0  0  0  0  0  0  0  0  0  0  0
    3.1291   20.8596   35.9442 O   0  0  0  0  0  0  0  0  0  0  0  0
    4.4816   19.1317   36.4243 O   0  0  0  0  0  0  0  0  0  0  0  0
    3.8912   17.6566   38.3786 O   0  0  0  0  0  0  0  0  0  0  0  0
   -1.2624   17.5419   43.0393 S   0  0  0  0  0  0  0  0  0  0  0  0
    3.0335   10.2999   42.3712 Cl  0  0  0  0  0  0  0  0  0  0  0  0
    1.7608   21.6050   37.8954 H   0  0  0  0  0  0  0  0  0  0  0  0
    0.2382   21.1064   39.7945 H   0  0  0  0  0  0  0  0  0  0  0  0
   -0.3986   13.3642   43.9003 H   0  0  0  0  0  0  0  0  0  0  0  0
    0.7157   11.1358   43.7948 H   0  0  0  0  0  0  0  0  0  0  0  0
    3.7994   12.8023   41.2660 H   0  0  0  0  0  0  0  0  0  0  0  0
    2.6978   15.0353   41.4091 H   0  0  0  0  0  0  0  0  0  0  0  0
   -1.2328   15.2350   44.0407 H   0  0  0  0  0  0  0  0  0  0  0  0
    2.4640   17.4880   40.5854 H   0  0  0  0  0  0  0  0  0  0  0  0
   -0.0313   19.8582   41.8878 H   0  0  0  0  0  0  0  0  0  0  0  0
  1  2  1  0
  1 19  1  0
  1 20  2  0
  2  3  1  0
  2 16  2  0
  3  4  2  0
  4  5  1  0
  5 15  2  0
  5 17  1  0
  6 17  1  0
  6 18  2  0
  6 22  1  0
  7  8  1  0
  7 14  2  0
  7 18  1  0
  8  9  1  0
  8 13  2  0
  9 10  2  0
 10 11  1  0
 11 12  2  0
 11 23  1  0
 12 13  1  0
 14 22  1  0
 15 16  1  0
 16 21  1  0
  3 24  1  0
  4 25  1  0
  9 26  1  0
 10 27  1  0
 12 28  1  0
 13 29  1  0
 14 30  1  0
 15 31  1  0
 17 32  1  0
M  CHG  2  19  -1  21  -1
M  END
>  <mol_id>  (3) 
2026-08-23-6tgu-s0-n100-r5-0003

>  <rmsd_to_ref>  (3) 
0.5459183673492328

$$$$
6tgu.A
     RDKit          3D

 32 34  0  0  0  0  0  0  0  0999 V2000
    2.7685   19.7541   36.6159 C   0  0  0  0  0  0  0  0  0  0  0  0
    2.1885   19.6179   37.9492 C   0  0  0  0  0  0  0  0  0  0  0  0
    1.6643   20.6889   38.6249 C   0  0  0  0  0  0  0  0  0  0  0  0
    1.1264   20.5215   39.8795 C   0  0  0  0  0  0  0  0  0  0  0  0
    1.0873   19.2751   40.5180 C   0  0  0  0  0  0  0  0  0  0  0  0
    0.4822   17.9102   42.4508 C   0  0  0  0  0  0  0  0  0  0  0  0
    0.6341   15.7312   43.0830 C   0  0  0  0  0  0  0  0  0  0  0  0
    1.0314   14.3566   42.8202 C   0  0  0  0  0  0  0  0  0  0  0  0
    1.6405   14.0249   41.6302 C   0  0  0  0  0  0  0  0  0  0  0  0
    2.0438   12.7474   41.3108 C   0  0  0  0  0  0  0  0  0  0  0  0
    1.8353   11.7481   42.2113 C   0  0  0  0  0  0  0  0  0  0  0  0
    1.2257   12.0676   43.4079 C   0  0  0  0  0  0  0  0  0  0  0  0
    0.8230   13.3477   43.7246 C   0  0  0  0  0  0  0  0  0  0  0  0
   -0.0128   16.0722   44.3520 C   0  0  0  0  0  0  0  0  0  0  0  0
    1.6257   18.2267   39.8011 C   0  0  0  0  0  0  0  0  0  0  0  0
    2.1715   18.3756   38.5373 C   0  0  0  0  0  0  0  0  0  0  0  0
    0.5308   19.1437   41.7976 N   0  0  0  0  0  0  0  0  0  0  0  0
    0.7663   16.7688   42.3330 N   0  0  0  0  0  0  0  0  0  0  0  0
    2.7951   20.9985   36.0060 O   0  0  0  0  0  0  0  0  0  0  0  0
    3.2306   18.7238   36.0585 O   0  0  0  0  0  0  0  0  0  0  0  0
    2.7013   17.2685   37.8654 O   0  0  0  0  0  0  0  0  0  0  0  0
   -0.2969   17.8899   44.1699 S   0  0  0  0  0  0  0  0  0  0  0  0
    2.3383   10.1071   41.8344 Cl  0  0  0  0  0  0  0  0  0  0  0  0
    1.6968   21.6519   38.1265 H   0  0  0  0  0  0  0  0  0  0  0  0
    0.7269   21.4143   40.3606 H   0  0  0  0  0  0  0  0  0  0  0  0
    1.7978   14.8388   40.9240 H   0  0  0  0  0  0  0  0  0  0  0  0
    2.5117   12.5900   40.3536 H   0  0  0  0  0  0  0  0  0  0  0  0
    1.0399   11.2888   44.1610 H   0  0  0  0  0  0  0  0  0  0  0  0
    0.3524   13.5654   44.6613 H   0  0  0  0  0  0  0  0  0  0  0  0
   -0.2635   15.4694   45.1694 H   0  0  0  0  0  0  0  0  0  0  0  0
    1.6398   17.2348   40.2099 H   0  0  0  0  0  0  0  0  0  0  0  0
    0.1493   20.0335   42.2405 H   0  0  0  0  0  0  0  0  0  0  0  0
  1  2  1  0
  1 19  1  0
  1 20  2  0
  2  3  1  0
  2 16  2  0
  3  4  2  0
  4  5  1  0
  5 15  2  0
  5 17  1  0
  6 17  1  0
  6 18  2  0
  6 22  1  0
  7  8  1  0
  7 14  2  0
  7 18  1  0
  8  9  1  0
  8 13  2  0
  9 10  2  0
 10 11  1  0
 11 12  2  0
 11 23  1  0
 12 13  1  0
 14 22  1  0
 15 16  1  0
 16 21  1  0
  3 24  1  0
  4 25  1  0
  9 26  1  0
 10 27  1  0
 12 28  1  0
 13 29  1  0
 14 30  1  0
 15 31  1  0
 17 32  1  0
M  CHG  2  19  -1  21  -1
M  END
>  <mol_id>  (4) 
2026-08-23-6tgu-s0-n100-r5-0004

>  <rmsd_to_ref>  (4) 
0.5918367346952718

$$$$
6tgu.A
     RDKit          3D

 32 34  0  0  0  0  0  0  0  0999 V2000
    3.9593   19.5104   36.6669 C   0  0  0  0  0  0  0  0  0  0  0  0
    3.2995   19.4546   38.0475 C   0  0  0  0  0  0  0  0  0  0  0  0
    2.6167   20.5599   38.5503 C   0  0  0  0  0  0  0  0  0  0  0  0
    1.8444   20.4885   39.7143 C   0  0  0  0  0  0  0  0  0  0  0  0
    1.8773   19.3351   40.5115 C   0  0  0  0  0  0  0  0  0  0  0  0
    0.5499   18.1240   42.3099 C   0  0  0  0  0  0  0  0  0  0  0  0
    0.2772   15.9210   42.8083 C   0  0  0  0  0  0  0  0  0  0  0  0
    0.5720   14.4912   42.7089 C   0  0  0  0  0  0  0  0  0  0  0  0
   -0.2011   13.5253   43.3687 C   0  0  0  0  0  0  0  0  0  0  0  0
    0.0763   12.1686   43.2335 C   0  0  0  0  0  0  0  0  0  0  0  0
    1.1067   11.7825   42.3970 C   0  0  0  0  0  0  0  0  0  0  0  0
    1.8926   12.7038   41.7212 C   0  0  0  0  0  0  0  0  0  0  0  0
    1.6064   14.0571   41.8785 C   0  0  0  0  0  0  0  0  0  0  0  0
   -0.7477   16.4416   43.5532 C   0  0  0  0  0  0  0  0  0  0  0  0
    2.5507   18.2100   40.0147 C   0  0  0  0  0  0  0  0  0  0  0  0
    3.2473   18.2922   38.8076 C   0  0  0  0  0  0  0  0  0  0  0  0
    1.0460   19.2219   41.6679 N   0  0  0  0  0  0  0  0  0  0  0  0
    0.9844   16.8505   42.0094 N   0  0  0  0  0  0  0  0  0  0  0  0
    3.7079   20.5313   35.9614 O   0  0  0  0  0  0  0  0  0  0  0  0
    4.6249   18.5116   36.3159 O   0  0  0  0  0  0  0  0  0  0  0  0
    3.8151   17.1573   38.2790 O   0  0  0  0  0  0  0  0  0  0  0  0
   -0.9103   18.1348   43.2801 S   0  0  0  0  0  0  0  0  0  0  0  0
    1.4377   10.0950   42.1867 Cl  0  0  0  0  0  0  0  0  0  0  0  0
    2.6871   21.5184   38.0153 H   0  0  0  0  0  0  0  0  0  0  0  0
    1.2101   21.3388   40.0051 H   0  0  0  0  0  0  0  0  0  0  0  0
   -1.0405   13.8453   44.0036 H   0  0  0  0  0  0  0  0  0  0  0  0
   -0.5126   11.4182   43.7812 H   0  0  0  0  0  0  0  0  0  0  0  0
    2.7210   12.3736   41.0772 H   0  0  0  0  0  0  0  0  0  0  0  0
    2.2089   14.8008   41.3363 H   0  0  0  0  0  0  0  0  0  0  0  0
   -1.3824   15.8565   44.2349 H   0  0  0  0  0  0  0  0  0  0  0  0
    2.5301   17.2638   40.5753 H   0  0  0  0  0  0  0  0  0  0  0  0
    0.7748   20.1220   42.0889 H   0  0  0  0  0  0  0  0  0  0  0  0
  1  2  1  0
  1 19  1  0
  1 20  2  0
  2  3  1  0
  2 16  2  0
  3  4  2  0
  4  5  1  0
  5 15  2  0
  5 17  1  0
  6 17  1  0
  6 18  2  0
  6 22  1  0
  7  8  1  0
  7 14  2  0
  7 18  1  0
  8  9  1  0
  8 13  2  0
  9 10  2  0
 10 11  1  0
 11 12  2  0
 11 23  1  0
 12 13  1  0
 14 22  1  0
 15 16  1  0
 16 21  1  0
  3 24  1  0
  4 25  1  0
  9 26  1  0
 10 27  1  0
 12 28  1  0
 13 29  1  0
 14 30  1  0
 15 31  1  0
 17 32  1  0
M  CHG  2  19  -1  21  -1
M  END
>  <mol_id>  (5) 
2026-08-23-6tgu-s0-n100-r5-0005

>  <rmsd_to_ref>  (5) 
0.6377551020485733

$$$$
6tgu.A
     RDKit          3D

 32 34  0  0  0  0  0  0  0  0999 V2000
    3.5067   19.6155   36.9722 C   0  0  0  0  0  0  0  0  0  0  0  0
    2.8785   19.4740   38.2829 C   0  0  0  0  0  0  0  0  0  0  0  0
    2.5702   20.5597   39.0604 C   0  0  0  0  0  0  0  0  0  0  0  0
    1.9786   20.3868   40.2899 C   0  0  0  0  0  0  0  0  0  0  0  0
    1.6674   19.1198   40.8002 C   0  0  0  0  0  0  0  0  0  0  0  0
    0.7463   17.7294   42.5844 C   0  0  0  0  0  0  0  0  0  0  0  0
    0.4295   15.5155   42.9958 C   0  0  0  0  0  0  0  0  0  0  0  0
    0.5408   14.1205   42.5983 C   0  0  0  0  0  0  0  0  0  0  0  0
    1.0974   13.7866   41.3834 C   0  0  0  0  0  0  0  0  0  0  0  0
    1.2361   12.4904   40.9394 C   0  0  0  0  0  0  0  0  0  0  0  0
    0.8038   11.4737   41.7346 C   0  0  0  0  0  0  0  0  0  0  0  0
    0.2440   11.7951   42.9547 C   0  0  0  0  0  0  0  0  0  0  0  0
    0.1065   13.0940   43.3964 C   0  0  0  0  0  0  0  0  0  0  0  0
   -0.1641   15.8587   44.2901 C   0  0  0  0  0  0  0  0  0  0  0  0
    1.9952   18.0571   39.9841 C   0  0  0  0  0  0  0  0  0  0  0  0
    2.5909   18.2113   38.7436 C   0  0  0  0  0  0  0  0  0  0  0  0
    1.0644   18.9833   42.0581 N   0  0  0  0  0  0  0  0  0  0  0  0
    0.7915   16.5708   42.3540 N   0  0  0  0  0  0  0  0  0  0  0  0
    3.8045   20.8804   36.4901 O   0  0  0  0  0  0  0  0  0  0  0  0
    3.7597   18.5708   36.3163 O   0  0  0  0  0  0  0  0  0  0  0  0
    2.8971   17.0888   37.9664 O   0  0  0  0  0  0  0  0  0  0  0  0
   -0.0622   17.7045   44.2897 S   0  0  0  0  0  0  0  0  0  0  0  0
    0.9663    9.8085   41.1972 Cl  0  0  0  0  0  0  0  0  0  0  0  0
    2.8130   21.5387   38.6610 H   0  0  0  0  0  0  0  0  0  0  0  0
    1.7603   21.2921   40.8563 H   0  0  0  0  0  0  0  0  0  0  0  0
    1.4367   14.6147   40.7629 H   0  0  0  0  0  0  0  0  0  0  0  0
    1.6848   12.3329   39.9731 H   0  0  0  0  0  0  0  0  0  0  0  0
   -0.1170   11.0026   43.6253 H   0  0  0  0  0  0  0  0  0  0  0  0
   -0.3319   13.3128   44.3483 H   0  0  0  0  0  0  0  0  0  0  0  0
   -0.5538   15.2447   45.0420 H   0  0  0  0  0  0  0  0  0  0  0  0
    1.7943   17.0490   40.2916 H   0  0  0  0  0  0  0  0  0  0  0  0
    0.8641   19.8856   42.5863 H   0  0  0  0  0  0  0  0  0  0  0  0
  1  2  1  0
  1 19  1  0
  1 20  2  0
  2  3  1  0
  2 16  2  0
  3  4  2  0
  4  5  1  0
  5 15  2  0
  5 17  1  0
  6 17  1  0
  6 18  2  0
  6 22  1  0
  7  8  1  0
  7 14  2  0
  7 18  1  0
  8  9  1  0
  8 13  2  0
  9 10  2  0
 10 11  1  0
 11 12  2  0
 11 23  1  0
 12 13  1  0
 14 22  1  0
 15 16  1  0
 16 21  1  0
  3 24  1  0
  4 25  1  0
  9 26  1  0
 10 27  1  0
 12 28  1  0
 13 29  1  0
 14 30  1  0
 15 31  1  0
 17 32  1  0
M  CHG  2  19  -1  21  -1
M  END
>  <mol_id>  (6) 
2026-08-23-6tgu-s0-n100-r5-0006

>  <rmsd_to_ref>  (6) 
0.6836734693920203

$$$$
6tgu.A
     RDKit          3D

 32 34  0  0  0  0  0  0  0  0999 V2000
    3.2292   19.1749   36.3226 C   0  0  0  0  0  0  0  0  0  0  0  0
    2.6861   19.1879   37.7542 C   0  0  0  0  0  0  0  0  0  0  0  0
    1.9438   20.2711   38.2192 C   0  0  0  0  0  0  0  0  0  0  0  0
    1.2739   20.2393   39.4467 C   0  0  0  0  0  0  0  0  0  0  0  0
    1.4762   19.1703   40.3317 C   0  0  0  0  0  0  0  0  0  0  0  0
    0.4111   18.0174   42.3317 C   0  0  0  0  0  0  0  0  0  0  0  0
    0.3853   15.8536   43.0337 C   0  0  0  0  0  0  0  0  0  0  0  0
    0.8041   14.4516   43.0294 C   0  0  0  0  0  0  0  0  0  0  0  0
    0.1783   13.4864   43.8311 C   0  0  0  0  0  0  0  0  0  0  0  0
    0.5703   12.1521   43.7865 C   0  0  0  0  0  0  0  0  0  0  0  0
    1.5645   11.7822   42.9005 C   0  0  0  0  0  0  0  0  0  0  0  0
    2.2061   12.7028   42.0855 C   0  0  0  0  0  0  0  0  0  0  0  0
    1.8074   14.0349   42.1530 C   0  0  0  0  0  0  0  0  0  0  0  0
   -0.6232   16.3491   43.8171 C   0  0  0  0  0  0  0  0  0  0  0  0
    2.2115   18.0673   39.8751 C   0  0  0  0  0  0  0  0  0  0  0  0
    2.8020   18.0994   38.6104 C   0  0  0  0  0  0  0  0  0  0  0  0
    0.7510   19.0912   41.5602 N   0  0  0  0  0  0  0  0  0  0  0  0
    0.9384   16.7643   42.1027 N   0  0  0  0  0  0  0  0  0  0  0  0
    2.8294   20.1018   35.5583 O   0  0  0  0  0  0  0  0  0  0  0  0
    3.9562   18.2097   36.0008 O   0  0  0  0  0  0  0  0  0  0  0  0
    3.4310   16.9745   38.1321 O   0  0  0  0  0  0  0  0  0  0  0  0
   -0.9643   17.9900   43.4184 S   0  0  0  0  0  0  0  0  0  0  0  0
    2.0349   10.1176   42.8045 Cl  0  0  0  0  0  0  0  0  0  0  0  0
    1.8825   21.1796   37.6020 H   0  0  0  0  0  0  0  0  0  0  0  0
    0.5870   21.0544   39.7185 H   0  0  0  0  0  0  0  0  0  0  0  0
   -0.6358   13.7889   44.5062 H   0  0  0  0  0  0  0  0  0  0  0  0
    0.0983   11.4065   44.4432 H   0  0  0  0  0  0  0  0  0  0  0  0
    3.0095   12.3884   41.4032 H   0  0  0  0  0  0  0  0  0  0  0  0
    2.2938   14.7756   41.5012 H   0  0  0  0  0  0  0  0  0  0  0  0
   -1.1457   15.7757   44.5970 H   0  0  0  0  0  0  0  0  0  0  0  0
    2.3231   17.1777   40.5125 H   0  0  0  0  0  0  0  0  0  0  0  0
    0.4301   19.9990   41.9261 H   0  0  0  0  0  0  0  0  0  0  0  0
  1  2  1  0
  1 19  1  0
  1 20  2  0
  2  3  1  0
  2 16  2  0
  3  4  2  0
  4  5  1  0
  5 15  2  0
  5 17  1  0
  6 17  1  0
  6 18  2  0
  6 22  1  0
  7  8  1  0
  7 14  2  0
  7 18  1  0
  8  9  1  0
  8 13  2  0
  9 10  2  0
 10 11  1  0
 11 12  2  0
 11 23  1  0
 12 13  1  0
 14 22  1  0
 15 16  1  0
 16 21  1  0
  3 24  1  0
  4 25  1  0
  9 26  1  0
 10 27  1  0
 12 28  1  0
 13 29  1  0
 14 30  1  0
 15 31  1  0
 17 32  1  0
M  CHG  2  19  -1  21  -1
M  END
>  <mol_id>  (7) 
2026-08-23-6tgu-s0-n100-r5-0007

>  <rmsd_to_ref>  (7) 
0.729591836740996

$$$$
6tgu.A
     RDKit          3D

 32 34  0  0  0  0  0  0  0  0999 V2000
    3.8246   19.6115   37.0703 C   0  0  0  0  0  0  0  0  0  0  0  0
    2.8767   19.5631   38.1801 C   0  0  0  0  0  0  0  0  0  0  0  0
    2.1543   20.6622   38.5653 C   0  0  0  0  0  0  0  0  0  0  0  0
    1.2706   20.5781   39.6157 C   0  0  0  0  0  0  0  0  0  0  0  0
    1.0674   19.3907   40.3308 C   0  0  0  0  0  0  0  0  0  0  0  0
   -0.0591   18.1699   42.1213 C   0  0  0  0  0  0  0  0  0  0  0  0
   -0.0599   16.0628   42.9763 C   0  0  0  0  0  0  0  0  0  0  0  0
    0.4242   14.6909   42.9754 C   0  0  0  0  0  0  0  0  0  0  0  0
    1.3664   14.2873   42.0553 C   0  0  0  0  0  0  0  0  0  0  0  0
    1.8713   13.0076   41.9932 C   0  0  0  0  0  0  0  0  0  0  0  0
    1.4236   12.0806   42.8838 C   0  0  0  0  0  0  0  0  0  0  0  0
    0.4793   12.4726   43.8112 C   0  0  0  0  0  0  0  0  0  0  0  0
   -0.0243   13.7548   43.8708 C   0  0  0  0  0  0  0  0  0  0  0  0
   -1.0619   16.4807   43.9594 C   0  0  0  0  0  0  0  0  0  0  0  0
    1.8151   18.3112   39.9086 C   0  0  0  0  0  0  0  0  0  0  0  0
    2.7095   18.3765   38.8535 C   0  0  0  0  0  0  0  0  0  0  0  0
    0.1577   19.3436   41.3961 N   0  0  0  0  0  0  0  0  0  0  0  0
    0.2694   17.0372   42.2025 N   0  0  0  0  0  0  0  0  0  0  0  0
    4.0073   20.7987   36.3788 O   0  0  0  0  0  0  0  0  0  0  0  0
    4.4517   18.5600   36.7755 O   0  0  0  0  0  0  0  0  0  0  0  0
    3.4368   17.2420   38.4771 O   0  0  0  0  0  0  0  0  0  0  0  0
   -1.3142   18.2606   43.5281 S   0  0  0  0  0  0  0  0  0  0  0  0
    2.0479   10.4388   42.8312 Cl  0  0  0  0  0  0  0  0  0  0  0  0
    2.3150   21.5794   38.0086 H   0  0  0  0  0  0  0  0  0  0  0  0
    0.7286   21.4891   39.8697 H   0  0  0  0  0  0  0  0  0  0  0  0
    1.7110   15.0441   41.3521 H   0  0  0  0  0  0  0  0  0  0  0  0
    2.6059   12.7908   41.2361 H   0  0  0  0  0  0  0  0  0  0  0  0
    0.0928   11.7535   44.5472 H   0  0  0  0  0  0  0  0  0  0  0  0
   -0.7566   14.0297   44.6017 H   0  0  0  0  0  0  0  0  0  0  0  0
   -1.5328   15.9392   44.7206 H   0  0  0  0  0  0  0  0  0  0  0  0
    1.7262   17.3598   40.3966 H   0  0  0  0  0  0  0  0  0  0  0  0
   -0.3556   20.2492   41.6194 H   0  0  0  0  0  0  0  0  0  0  0  0
  1  2  1  0
  1 19  1  0
  1 20  2  0
  2  3  1  0
  2 16  2  0
  3  4  2  0
  4  5  1  0
  5 15  2  0
  5 17  1  0
  6 17  1  0
  6 18  2  0
  6 22  1  0
  7  8  1  0
  7 14  2  0
  7 18  1  0
  8  9  1  0
  8 13  2  0
  9 10  2  0
 10 11  1  0
 11 12  2  0
 11 23  1  0
 12 13  1  0
 14 22  1  0
 15 16  1  0
 16 21  1  0
  3 24  1  0
  4 25  1  0
  9 26  1  0
 10 27  1  0
 12 28  1  0
 13 29  1  0
 14 30  1  0
 15 31  1  0
 17 32  1  0
M  CHG  2  19  -1  21  -1
M  END
>  <mol_id>  (8) 
2026-08-23-6tgu-s0-n100-r5-0008

>  <rmsd_to_ref>  (8) 
0.7755102040853946

$$$$
6tgu.A
     RDKit          3D

 32 34  0  0  0  0  0  0  0  0999 V2000
    3.4477   19.2054   36.1887 C   0  0  0  0  0  0  0  0  0  0  0  0
    2.9254   19.2565   37.6272 C   0  0  0  0  0  0  0  0  0  0  0  0
    2.2897   20.3988   38.1086 C   0  0  0  0  0  0  0  0  0  0  0  0
    1.6346   20.4183   39.3443 C   0  0  0  0  0  0  0  0  0  0  0  0
    1.7500   19.3287   40.2196 C   0  0  0  0  0  0  0  0  0  0  0  0
    0.6092   18.2616   42.2254 C   0  0  0  0  0  0  0  0  0  0  0  0
    0.3962   16.1037   42.9136 C   0  0  0  0  0  0  0  0  0  0  0  0
    0.6864   14.6696   42.8949 C   0  0  0  0  0  0  0  0  0  0  0  0
   -0.0145   13.7588   43.6982 C   0  0  0  0  0  0  0  0  0  0  0  0
    0.2546   12.3949   43.6399 C   0  0  0  0  0  0  0  0  0  0  0  0
    1.2006   11.9435   42.7390 C   0  0  0  0  0  0  0  0  0  0  0  0
    1.9129   12.8085   41.9220 C   0  0  0  0  0  0  0  0  0  0  0  0
    1.6372   14.1707   42.0031 C   0  0  0  0  0  0  0  0  0  0  0  0
   -0.5538   16.6823   43.7130 C   0  0  0  0  0  0  0  0  0  0  0  0
    2.3770   18.1672   39.7465 C   0  0  0  0  0  0  0  0  0  0  0  0
    2.9527   18.1555   38.4747 C   0  0  0  0  0  0  0  0  0  0  0  0
    1.0355   19.3061   41.4567 N   0  0  0  0  0  0  0  0  0  0  0  0
    1.0182   16.9677   41.9816 N   0  0  0  0  0  0  0  0  0  0  0  0
    3.1243   20.1704   35.4356 O   0  0  0  0  0  0  0  0  0  0  0  0
    4.0806   18.1809   35.8515 O   0  0  0  0  0  0  0  0  0  0  0  0
    3.4715   16.9821   37.9811 O   0  0  0  0  0  0  0  0  0  0  0  0
   -0.7499   18.3503   43.3293 S   0  0  0  0  0  0  0  0  0  0  0  0
    1.5173   10.2439   42.6262 Cl  0  0  0  0  0  0  0  0  0  0  0  0
    2.3034   21.3137   37.4981 H   0  0  0  0  0  0  0  0  0  0  0  0
    1.0276   21.2901   39.6300 H   0  0  0  0  0  0  0  0  0  0  0  0
   -0.7897   14.1285   44.3855 H   0  0  0  0  0  0  0  0  0  0  0  0
   -0.2749   11.6900   44.2978 H   0  0  0  0  0  0  0  0  0  0  0  0
    2.6763   12.4280   41.2274 H   0  0  0  0  0  0  0  0  0  0  0  0
    2.1808   14.8693   41.3501 H   0  0  0  0  0  0  0  0  0  0  0  0
   -1.1166   16.1525   44.4957 H   0  0  0  0  0  0  0  0  0  0  0  0
    2.4153   17.2664   40.3767 H   0  0  0  0  0  0  0  0  0  0  0  0
    0.8025   20.2363   41.8326 H   0  0  0  0  0  0  0  0  0  0  0  0
  1  2  1  0
  1 19  1  0
  1 20  2  0
  2  3  1  0
  2 16  2  0
  3  4  2  0
  4  5  1  0
  5 15  2  0
  5 17  1  0
  6 17  1  0
  6 18  2  0
  6 22  1  0
  7  8  1  0
  7 14  2  0
  7 18  1  0
  8  9  1  0
  8 13  2  0
  9 10  2  0
 10 11  1  0
 11 12  2  0
 11 23  1  0
 12 13  1  0
 14 22  1  0
 15 16  1  0
 16 21  1  0
  3 24  1  0
  4 25  1  0
  9 26  1  0
 10 27  1  0
 12 28  1  0
 13 29  1  0
 14 30  1  0
 15 31  1  0
 17 32  1  0
M  CHG  2  19  -1  21  -1
M  END
>  <mol_id>  (9) 
2026-08-23-6tgu-s0-n100-r5-0009

>  <rmsd_to_ref>  (9) 
0.8214285714400261

$$$$
6tgu.A
     RDKit          3D

 32 34  0  0  0  0  0  0  0  0999 V2000
    2.5961   20.2201   36.7800 C   0  0  0  0  0  0  0  0  0  0  0  0
    1.8610   19.9057   38.0019 C   0  0  0  0  0  0  0  0  0  0  0  0
    0.9997   20.8010   38.5808 C   0  0  0  0  0  0  0  0  0  0  0  0
    0.3247   20.4690   39.7321 C   0  0  0  0  0  0  0  0  0  0  0  0
    0.4789   19.2258   40.3592 C   0  0  0  0  0  0  0  0  0  0  0  0
   -0.0866   17.6901   42.1722 C   0  0  0  0  0  0  0  0  0  0  0  0
    0.4709   15.5849   42.8266 C   0  0  0  0  0  0  0  0  0  0  0  0
    1.2164   14.3504   42.6355 C   0  0  0  0  0  0  0  0  0  0  0  0
    2.0667   14.2116   41.5608 C   0  0  0  0  0  0  0  0  0  0  0  0
    2.8042   13.0748   41.3147 C   0  0  0  0  0  0  0  0  0  0  0  0
    2.6965   12.0232   42.1722 C   0  0  0  0  0  0  0  0  0  0  0  0
    1.8475   12.1497   43.2533 C   0  0  0  0  0  0  0  0  0  0  0  0
    1.1105   13.2893   43.4970 C   0  0  0  0  0  0  0  0  0  0  0  0
   -0.4304   15.7212   43.9730 C   0  0  0  0  0  0  0  0  0  0  0  0
    1.3549   18.3572   39.7420 C   0  0  0  0  0  0  0  0  0  0  0  0
    2.0434   18.6734   38.5829 C   0  0  0  0  0  0  0  0  0  0  0  0
   -0.2264   18.9234   41.5320 N   0  0  0  0  0  0  0  0  0  0  0  0
    0.4727   16.6508   42.1051 N   0  0  0  0  0  0  0  0  0  0  0  0
    2.4258   21.4574   36.1790 O   0  0  0  0  0  0  0  0  0  0  0  0
    3.3695   19.3456   36.3077 O   0  0  0  0  0  0  0  0  0  0  0  0
    2.9178   17.7441   38.0089 O   0  0  0  0  0  0  0  0  0  0  0  0
   -1.1010   17.4285   43.7423 S   0  0  0  0  0  0  0  0  0  0  0  0
    3.6240   10.5582   41.8864 Cl  0  0  0  0  0  0  0  0  0  0  0  0
    0.8836   21.7623   38.0916 H   0  0  0  0  0  0  0  0  0  0  0  0
   -0.3443   21.2270   40.1395 H   0  0  0  0  0  0  0  0  0  0  0  0
    2.1382   15.0643   40.8873 H   0  0  0  0  0  0  0  0  0  0  0  0
    3.4413   13.0644   40.4464 H   0  0  0  0  0  0  0  0  0  0  0  0
    1.7330   11.3229   43.9684 H   0  0  0  0  0  0  0  0  0  0  0  0
    0.4597   13.3584   44.3443 H   0  0  0  0  0  0  0  0  0  0  0  0
   -0.6586   15.0481   44.7406 H   0  0  0  0  0  0  0  0  0  0  0  0
    1.5368   17.3818   40.1504 H   0  0  0  0  0  0  0  0  0  0  0  0
   -0.8714   19.6841   41.9048 H   0  0  0  0  0  0  0  0  0  0  0  0
  1  2  1  0
  1 19  1  0
  1 20  2  0
  2  3  1  0
  2 16  2  0
  3  4  2  0
  4  5  1  0
  5 15  2  0
  5 17  1  0
  6 17  1  0
  6 18  2  0
  6 22  1  0
  7  8  1  0
  7 14  2  0
  7 18  1  0
  8  9  1  0
  8 13  2  0
  9 10  2  0
 10 11  1  0
 11 12  2  0
 11 23  1  0
 12 13  1  0
 14 22  1  0
 15 16  1  0
 16 21  1  0
  3 24  1  0
  4 25  1  0
  9 26  1  0
 10 27  1  0
 12 28  1  0
 13 29  1  0
 14 30  1  0
 15 31  1  0
 17 32  1  0
M  CHG  2  19  -1  21  -1
M  END
>  <mol_id>  (10) 
2026-08-23-6tgu-s0-n100-r5-0010

>  <rmsd_to_ref>  (10) 
0.8673469387798288

$$$$
6tgu.A
     RDKit          3D

 32 34  0  0  0  0  0  0  0  0999 V2000
    2.9988   20.5801   37.0202 C   0  0  0  0  0  0  0  0  0  0  0  0
    2.3014   20.2427   38.3409 C   0  0  0  0  0  0  0  0  0  0  0  0
    1.1995   20.9807   38.7676 C   0  0  0  0  0  0  0  0  0  0  0  0
    0.4234   20.5890   39.8633 C   0  0  0  0  0  0  0  0  0  0  0  0
    0.8406   19.5262   40.6778 C   0  0  0  0  0  0  0  0  0  0  0  0
   -0.0484   17.8563   42.3761 C   0  0  0  0  0  0  0  0  0  0  0  0
    0.5268   15.7144   42.8829 C   0  0  0  0  0  0  0  0  0  0  0  0
    1.3674   14.5178   42.8304 C   0  0  0  0  0  0  0  0  0  0  0  0
    0.9844   13.3132   43.4373 C   0  0  0  0  0  0  0  0  0  0  0  0
    1.7834   12.1777   43.3464 C   0  0  0  0  0  0  0  0  0  0  0  0
    2.9485   12.2441   42.6058 C   0  0  0  0  0  0  0  0  0  0  0  0
    3.3621   13.4130   41.9847 C   0  0  0  0  0  0  0  0  0  0  0  0
    2.5546   14.5415   42.0968 C   0  0  0  0  0  0  0  0  0  0  0  0
   -0.6785   15.7756   43.5308 C   0  0  0  0  0  0  0  0  0  0  0  0
    1.9412   18.7663   40.2566 C   0  0  0  0  0  0  0  0  0  0  0  0
    2.6474   19.1391   39.1114 C   0  0  0  0  0  0  0  0  0  0  0  0
    0.0275   19.0730   41.7616 N   0  0  0  0  0  0  0  0  0  0  0  0
    0.8753   16.8623   42.1326 N   0  0  0  0  0  0  0  0  0  0  0  0
    2.4259   21.4333   36.2806 O   0  0  0  0  0  0  0  0  0  0  0  0
    4.0304   19.9304   36.7417 O   0  0  0  0  0  0  0  0  0  0  0  0
    3.6578   18.3292   38.6499 O   0  0  0  0  0  0  0  0  0  0  0  0
   -1.4706   17.2734   43.2194 S   0  0  0  0  0  0  0  0  0  0  0  0
    3.9329   10.8270   42.4497 Cl  0  0  0  0  0  0  0  0  0  0  0  0
    0.9315   21.8998   38.2260 H   0  0  0  0  0  0  0  0  0  0  0  0
   -0.5162   21.1156   40.0867 H   0  0  0  0  0  0  0  0  0  0  0  0
    0.0371   13.2651   43.9942 H   0  0  0  0  0  0  0  0  0  0  0  0
    1.4936   11.2458   43.8539 H   0  0  0  0  0  0  0  0  0  0  0  0
    4.3042   13.4476   41.4180 H   0  0  0  0  0  0  0  0  0  0  0  0
    2.8590   15.4724   41.5961 H   0  0  0  0  0  0  0  0  0  0  0  0
   -1.0864   14.9750   44.1654 H   0  0  0  0  0  0  0  0  0  0  0  0
    2.2477   17.8776   40.8277 H   0  0  0  0  0  0  0  0  0  0  0  0
   -0.6100   19.7857   42.1446 H   0  0  0  0  0  0  0  0  0  0  0  0
  1  2  1  0
  1 19  1  0
  1 20  2  0
  2  3  1  0
  2 16  2  0
  3  4  2  0
  4  5  1  0
  5 15  2  0
  5 17  1  0
  6 17  1  0
  6 18  2  0
  6 22  1  0
  7  8  1  0
  7 14  2  0
  7 18  1  0
  8  9  1  0
  8 13  2  0
  9 10  2  0
 10 11  1  0
 11 12  2  0
 11 23  1  0
 12 13  1  0
 14 22  1  0
 15 16  1  0
 16 21  1  0
  3 24  1  0
  4 25  1  0
  9 26  1  0
 10 27  1  0
 12 28  1  0
 13 29  1  0
 14 30  1  0
 15 31  1  0
 17 32  1  0
M  CHG  2  19  -1  21  -1
M  END
>  <mol_id>  (11) 
2026-08-23-6tgu-s0-n100-r5-0011

>  <rmsd_to_ref>  (11) 
0.9132653061255454

$$$$
6tgu.A
     RDKit          3D

 32 34  0  0  0  0  0  0  0  0999 V2000
    3.0884   20.7844   37.3352 C   0  0  0  0  0  0  0  0  0  0  0  0
    2.5907   20.3994   38.6529 C   0  0  0  0  0  0  0  0  0  0  0  0
    2.3256   21.3261   39.6273 C   0  0  0  0  0  0  0  0  0  0  0  0
    1.8576   20.9252   40.8568 C   0  0  0  0  0  0  0  0  0  0  0  0
    1.6325   19.5785   41.1702 C   0  0  0  0  0  0  0  0  0  0  0  0
    0.9238   17.8715   42.7668 C   0  0  0  0  0  0  0  0  0  0  0  0
    0.7114   15.6081   42.8232 C   0  0  0  0  0  0  0  0  0  0  0  0
    0.8250   14.3050   42.1867 C   0  0  0  0  0  0  0  0  0  0  0  0
    1.2742   14.2026   40.8886 C   0  0  0  0  0  0  0  0  0  0  0  0
    1.4080   13.0056   40.2209 C   0  0  0  0  0  0  0  0  0  0  0  0
    1.0819   11.8527   40.8670 C   0  0  0  0  0  0  0  0  0  0  0  0
    0.6304   11.9418   42.1684 C   0  0  0  0  0  0  0  0  0  0  0  0
    0.4976   13.1418   42.8342 C   0  0  0  0  0  0  0  0  0  0  0  0
    0.2324   15.7048   44.2039 C   0  0  0  0  0  0  0  0  0  0  0  0
    1.9127   18.6817   40.1602 C   0  0  0  0  0  0  0  0  0  0  0  0
    2.3843   19.0662   38.9164 C   0  0  0  0  0  0  0  0  0  0  0  0
    1.1547   19.2082   42.4348 N   0  0  0  0  0  0  0  0  0  0  0  0
    0.9806   16.7704   42.3402 N   0  0  0  0  0  0  0  0  0  0  0  0
    3.3029   22.1238   37.0501 O   0  0  0  0  0  0  0  0  0  0  0  0
    3.3087   19.8755   36.4920 O   0  0  0  0  0  0  0  0  0  0  0  0
    2.6484   18.1032   37.9362 O   0  0  0  0  0  0  0  0  0  0  0  0
    0.2804   17.5278   44.5076 S   0  0  0  0  0  0  0  0  0  0  0  0
    1.2413   10.3088   40.0429 Cl  0  0  0  0  0  0  0  0  0  0  0  0
    2.5014   22.3676   39.3799 H   0  0  0  0  0  0  0  0  0  0  0  0
    1.6674   21.7132   41.5855 H   0  0  0  0  0  0  0  0  0  0  0  0
    1.5296   15.1365   40.3901 H   0  0  0  0  0  0  0  0  0  0  0  0
    1.7681   13.0309   39.2062 H   0  0  0  0  0  0  0  0  0  0  0  0
    0.3571   11.0336   42.7240 H   0  0  0  0  0  0  0  0  0  0  0  0
    0.1445   13.1798   43.8442 H   0  0  0  0  0  0  0  0  0  0  0  0
   -0.0669   14.9578   44.8722 H   0  0  0  0  0  0  0  0  0  0  0  0
    1.7707   17.6287   40.3088 H   0  0  0  0  0  0  0  0  0  0  0  0
    0.9789   20.0005   43.1240 H   0  0  0  0  0  0  0  0  0  0  0  0
  1  2  1  0
  1 19  1  0
  1 20  2  0
  2  3  1  0
  2 16  2  0
  3  4  2  0
  4  5  1  0
  5 15  2  0
  5 17  1  0
  6 17  1  0
  6 18  2  0
  6 22  1  0
  7  8  1  0
  7 14  2  0
  7 18  1  0
  8  9  1  0
  8 13  2  0
  9 10  2  0
 10 11  1  0
 11 12  2  0
 11 23  1  0
 12 13  1  0
 14 22  1  0
 15 16  1  0
 16 21  1  0
  3 24  1  0
  4 25  1  0
  9 26  1  0
 10 27  1  0
 12 28  1  0
 13 29  1  0
 14 30  1  0
 15 31  1  0
 17 32  1  0
M  CHG  2  19  -1  21  -1
M  END
>  <mol_id>  (12) 
2026-08-23-6tgu-s0-n100-r5-0012

>  <rmsd_to_ref>  (12) 
0.959183673476185

$$$$
6tgu.A
     RDKit          3D

 32 34  0  0  0  0  0  0  0  0999 V2000
    2.1828   20.6058   37.3390 C   0  0  0  0  0  0  0  0  0  0  0  0
    1.7167   20.1224   38.7151 C   0  0  0  0  0  0  0  0  0  0  0  0
    0.7461   20.8291   39.4216 C   0  0  0  0  0  0  0  0  0  0  0  0
    0.1599   20.3224   40.5861 C   0  0  0  0  0  0  0  0  0  0  0  0
    0.6634   19.1545   41.1771 C   0  0  0  0  0  0  0  0  0  0  0  0
    0.0114   17.3069   42.7972 C   0  0  0  0  0  0  0  0  0  0  0  0
    0.5626   15.1037   42.9299 C   0  0  0  0  0  0  0  0  0  0  0  0
    1.3208   13.9017   42.5814 C   0  0  0  0  0  0  0  0  0  0  0  0
    0.9939   12.6404   43.0995 C   0  0  0  0  0  0  0  0  0  0  0  0
    1.7074   11.5049   42.7286 C   0  0  0  0  0  0  0  0  0  0  0  0
    2.7233   11.6339   41.8003 C   0  0  0  0  0  0  0  0  0  0  0  0
    3.0760   12.8607   41.2585 C   0  0  0  0  0  0  0  0  0  0  0  0
    2.3576   13.9868   41.6509 C   0  0  0  0  0  0  0  0  0  0  0  0
   -0.5033   15.1141   43.7903 C   0  0  0  0  0  0  0  0  0  0  0  0
    1.6326   18.4253   40.4735 C   0  0  0  0  0  0  0  0  0  0  0  0
    2.1404   18.9213   39.2714 C   0  0  0  0  0  0  0  0  0  0  0  0
    0.0357   18.5892   42.3294 N   0  0  0  0  0  0  0  0  0  0  0  0
    0.8271   16.3278   42.2714 N   0  0  0  0  0  0  0  0  0  0  0  0
    1.5294   21.5606   36.8245 O   0  0  0  0  0  0  0  0  0  0  0  0
    3.1150   19.9697   36.8005 O   0  0  0  0  0  0  0  0  0  0  0  0
    3.0114   18.1501   38.5389 O   0  0  0  0  0  0  0  0  0  0  0  0
   -1.2641   16.6596   43.8109 S   0  0  0  0  0  0  0  0  0  0  0  0
    3.5936   10.2226   41.2980 Cl  0  0  0  0  0  0  0  0  0  0  0  0
    0.4310   21.8161   39.0523 H   0  0  0  0  0  0  0  0  0  0  0  0
   -0.6978   20.8410   41.0393 H   0  0  0  0  0  0  0  0  0  0  0  0
    0.1600   12.5471   43.8108 H   0  0  0  0  0  0  0  0  0  0  0  0
    1.4676   10.5242   43.1653 H   0  0  0  0  0  0  0  0  0  0  0  0
    3.9023   12.9421   40.5370 H   0  0  0  0  0  0  0  0  0  0  0  0
    2.6128   14.9654   41.2181 H   0  0  0  0  0  0  0  0  0  0  0  0
   -0.8300   14.2506   44.3884 H   0  0  0  0  0  0  0  0  0  0  0  0
    1.9924   17.4637   40.8682 H   0  0  0  0  0  0  0  0  0  0  0  0
   -0.4875   19.2641   42.9052 H   0  0  0  0  0  0  0  0  0  0  0  0
  1  2  1  0
  1 19  1  0
  1 20  2  0
  2  3  1  0
  2 16  2  0
  3  4  2  0
  4  5  1  0
  5 15  2  0
  5 17  1  0
  6 17  1  0
  6 18  2  0
  6 22  1  0
  7  8  1  0
  7 14  2  0
  7 18  1  0
  8  9  1  0
  8 13  2  0
  9 10  2  0
 10 11  1  0
 11 12  2  0
 11 23  1  0
 12 13  1  0
 14 22  1  0
 15 16  1  0
 16 21  1  0
  3 24  1  0
  4 25  1  0
  9 26  1  0
 10 27  1  0
 12 28  1  0
 13 29  1  0
 14 30  1  0
 15 31  1  0
 17 32  1  0
M  CHG  2  19  -1  21  -1
M  END
>  <mol_id>  (13) 
2026-08-23-6tgu-s0-n100-r5-0013

>  <rmsd_to_ref>  (13) 
1.0051020408171871

$$$$
6tgu.A
     RDKit          3D

 32 34  0  0  0  0  0  0  0  0999 V2000
    3.0229   20.4053   37.4243 C   0  0  0  0  0  0  0  0  0  0  0  0
    2.0818   19.9046   38.4223 C   0  0  0  0  0  0  0  0  0  0  0  0
    1.0549   20.6753   38.9017 C   0  0  0  0  0  0  0  0  0  0  0  0
    0.1882   20.1689   39.8418 C   0  0  0  0  0  0  0  0  0  0  0  0
    0.3073   18.8677   40.3471 C   0  0  0  0  0  0  0  0  0  0  0  0
   -0.4940   17.0927   41.8210 C   0  0  0  0  0  0  0  0  0  0  0  0
    0.0796   14.9551   42.3431 C   0  0  0  0  0  0  0  0  0  0  0  0
    0.9410   13.7944   42.1788 C   0  0  0  0  0  0  0  0  0  0  0  0
    1.9995   13.8339   41.2984 C   0  0  0  0  0  0  0  0  0  0  0  0
    2.8568   12.7765   41.0896 C   0  0  0  0  0  0  0  0  0  0  0  0
    2.6588   11.6230   41.7847 C   0  0  0  0  0  0  0  0  0  0  0  0
    1.6012   11.5705   42.6703 C   0  0  0  0  0  0  0  0  0  0  0  0
    0.7447   12.6311   42.8770 C   0  0  0  0  0  0  0  0  0  0  0  0
   -1.0431   14.9016   43.2822 C   0  0  0  0  0  0  0  0  0  0  0  0
    1.3543   18.1290   39.8365 C   0  0  0  0  0  0  0  0  0  0  0  0
    2.2370   18.6214   38.8899 C   0  0  0  0  0  0  0  0  0  0  0  0
   -0.5957   18.3865   41.3050 N   0  0  0  0  0  0  0  0  0  0  0  0
    0.1455   16.1004   41.7594 N   0  0  0  0  0  0  0  0  0  0  0  0
    2.8832   21.6966   36.9403 O   0  0  0  0  0  0  0  0  0  0  0  0
    3.9408   19.6376   37.0322 O   0  0  0  0  0  0  0  0  0  0  0  0
    3.2784   17.8171   38.4142 O   0  0  0  0  0  0  0  0  0  0  0  0
   -1.7823   16.5867   43.1043 S   0  0  0  0  0  0  0  0  0  0  0  0
    3.7348   10.2552   41.5413 Cl  0  0  0  0  0  0  0  0  0  0  0  0
    0.9667   21.6821   38.5075 H   0  0  0  0  0  0  0  0  0  0  0  0
   -0.6058   20.8347   40.1801 H   0  0  0  0  0  0  0  0  0  0  0  0
    2.1402   14.7657   40.7526 H   0  0  0  0  0  0  0  0  0  0  0  0
    3.6554   12.9066   40.3789 H   0  0  0  0  0  0  0  0  0  0  0  0
    1.4082   10.6570   43.2502 H   0  0  0  0  0  0  0  0  0  0  0  0
   -0.0676   12.5611   43.5710 H   0  0  0  0  0  0  0  0  0  0  0  0
   -1.3696   14.1280   43.9061 H   0  0  0  0  0  0  0  0  0  0  0  0
    1.5242   17.1216   40.1644 H   0  0  0  0  0  0  0  0  0  0  0  0
   -1.3593   19.0605   41.6150 H   0  0  0  0  0  0  0  0  0  0  0  0
  1  2  1  0
  1 19  1  0
  1 20  2  0
  2  3  1  0
  2 16  2  0
  3  4  2  0
  4  5  1  0
  5 15  2  0
  5 17  1  0
  6 17  1  0
  6 18  2  0
  6 22  1  0
  7  8  1  0
  7 14  2  0
  7 18  1  0
  8  9  1  0
  8 13  2  0
  9 10  2  0
 10 11  1  0
 11 12  2  0
 11 23  1  0
 12 13  1  0
 14 22  1  0
 15 16  1  0
 16 21  1  0
  3 24  1  0
  4 25  1  0
  9 26  1  0
 10 27  1  0
 12 28  1  0
 13 29  1  0
 14 30  1  0
 15 31  1  0
 17 32  1  0
M  CHG  2  19  -1  21  -1
M  END
>  <mol_id>  (14) 
2026-08-23-6tgu-s0-n100-r5-0014

>  <rmsd_to_ref>  (14) 
1.051020408168691

$$$$
6tgu.A
     RDKit          3D

 32 34  0  0  0  0  0  0  0  0999 V2000
    4.0343   20.4208   37.5856 C   0  0  0  0  0  0  0  0  0  0  0  0
    3.3206   20.0303   38.8829 C   0  0  0  0  0  0  0  0  0  0  0  0
    2.7156   21.0018   39.6772 C   0  0  0  0  0  0  0  0  0  0  0  0
    1.8968   20.6693   40.7614 C   0  0  0  0  0  0  0  0  0  0  0  0
    1.8018   19.3372   41.1895 C   0  0  0  0  0  0  0  0  0  0  0  0
    0.3099   17.7866   42.5434 C   0  0  0  0  0  0  0  0  0  0  0  0
   -0.1671   15.5683   42.3773 C   0  0  0  0  0  0  0  0  0  0  0  0
    0.0090   14.2070   41.8703 C   0  0  0  0  0  0  0  0  0  0  0  0
   -0.8674   13.1673   42.2123 C   0  0  0  0  0  0  0  0  0  0  0  0
   -0.7011   11.8877   41.6919 C   0  0  0  0  0  0  0  0  0  0  0  0
    0.3236   11.6660   40.7913 C   0  0  0  0  0  0  0  0  0  0  0  0
    1.2096   12.6666   40.4212 C   0  0  0  0  0  0  0  0  0  0  0  0
    1.0334   13.9375   40.9614 C   0  0  0  0  0  0  0  0  0  0  0  0
   -1.1715   15.9441   43.2295 C   0  0  0  0  0  0  0  0  0  0  0  0
    2.3956   18.3460   40.3951 C   0  0  0  0  0  0  0  0  0  0  0  0
    3.1416   18.7082   39.2720 C   0  0  0  0  0  0  0  0  0  0  0  0
    0.9210   18.9724   42.2537 N   0  0  0  0  0  0  0  0  0  0  0  0
    0.6458   16.6194   41.8910 N   0  0  0  0  0  0  0  0  0  0  0  0
    3.8970   21.6203   37.2043 O   0  0  0  0  0  0  0  0  0  0  0  0
    4.6256   19.5087   36.9673 O   0  0  0  0  0  0  0  0  0  0  0  0
    3.6306   17.7266   38.4431 O   0  0  0  0  0  0  0  0  0  0  0  0
   -1.1796   17.6516   43.4581 S   0  0  0  0  0  0  0  0  0  0  0  0
    0.5181   10.0877   40.1037 Cl  0  0  0  0  0  0  0  0  0  0  0  0
    2.8870   22.0631   39.4446 H   0  0  0  0  0  0  0  0  0  0  0  0
    1.3263   21.4543   41.2794 H   0  0  0  0  0  0  0  0  0  0  0  0
   -1.7000   13.3666   42.9031 H   0  0  0  0  0  0  0  0  0  0  0  0
   -1.3717   11.0688   41.9914 H   0  0  0  0  0  0  0  0  0  0  0  0
    2.0307   12.4613   39.7186 H   0  0  0  0  0  0  0  0  0  0  0  0
    1.7167   14.7471   40.6655 H   0  0  0  0  0  0  0  0  0  0  0  0
   -1.8787   15.2483   43.7046 H   0  0  0  0  0  0  0  0  0  0  0  0
    2.2738   17.2845   40.6564 H   0  0  0  0  0  0  0  0  0  0  0  0
    0.7114   19.7339   42.9149 H   0  0  0  0  0  0  0  0  0  0  0  0
  1  2  1  0
  1 19  1  0
  1 20  2  0
  2  3  1  0
  2 16  2  0
  3  4  2  0
  4  5  1  0
  5 15  2  0
  5 17  1  0
  6 17  1  0
  6 18  2  0
  6 22  1  0
  7  8  1  0
  7 14  2  0
  7 18  1  0
  8  9  1  0
  8 13  2  0
  9 10  2  0
 10 11  1  0
 11 12  2  0
 11 23  1  0
 12 13  1  0
 14 22  1  0
 15 16  1  0
 16 21  1  0
  3 24  1  0
  4 25  1  0
  9 26  1  0
 10 27  1  0
 12 28  1  0
 13 29  1  0
 14 30  1  0
 15 31  1  0
 17 32  1  0
M  CHG  2  19  -1  21  -1
M  END
>  <mol_id>  (15) 
2026-08-23-6tgu-s0-n100-r5-0015

>  <rmsd_to_ref>  (15) 
1.0969387755190068

$$$$
6tgu.A
     RDKit          3D

 32 34  0  0  0  0  0  0  0  0999 V2000
    3.2673   18.8568   36.1316 C   0  0  0  0  0  0  0  0  0  0  0  0
    2.6656   19.0195   37.4521 C   0  0  0  0  0  0  0  0  0  0  0  0
    2.3477   20.2532   37.9573 C   0  0  0  0  0  0  0  0  0  0  0  0
    1.7819   20.3668   39.2056 C   0  0  0  0  0  0  0  0  0  0  0  0
    1.5071   19.2518   40.0081 C   0  0  0  0  0  0  0  0  0  0  0  0
    0.6479   18.3088   42.0907 C   0  0  0  0  0  0  0  0  0  0  0  0
    0.3863   16.2505   43.0214 C   0  0  0  0  0  0  0  0  0  0  0  0
    0.5205   14.8031   42.9629 C   0  0  0  0  0  0  0  0  0  0  0  0
    1.0626   14.2002   41.8495 C   0  0  0  0  0  0  0  0  0  0  0  0
    1.2213   12.8382   41.7218 C   0  0  0  0  0  0  0  0  0  0  0  0
    0.8251   12.0318   42.7445 C   0  0  0  0  0  0  0  0  0  0  0  0
    0.2802   12.6238   43.8661 C   0  0  0  0  0  0  0  0  0  0  0  0
    0.1227   13.9879   43.9908 C   0  0  0  0  0  0  0  0  0  0  0  0
   -0.1916   16.8807   44.2106 C   0  0  0  0  0  0  0  0  0  0  0  0
    1.8433   18.0316   39.4596 C   0  0  0  0  0  0  0  0  0  0  0  0
    2.4135   17.8973   38.2049 C   0  0  0  0  0  0  0  0  0  0  0  0
    0.9296   19.4073   41.2757 N   0  0  0  0  0  0  0  0  0  0  0  0
    0.7139   17.1295   42.1401 N   0  0  0  0  0  0  0  0  0  0  0  0
    3.5292   19.9761   35.3572 O   0  0  0  0  0  0  0  0  0  0  0  0
    3.5311   17.6907   35.7361 O   0  0  0  0  0  0  0  0  0  0  0  0
    2.7300   16.6279   37.7088 O   0  0  0  0  0  0  0  0  0  0  0  0
   -0.1296   18.6754   43.7711 S   0  0  0  0  0  0  0  0  0  0  0  0
    1.0140   10.2896   42.6130 Cl  0  0  0  0  0  0  0  0  0  0  0  0
    2.5623   21.1136   37.3322 H   0  0  0  0  0  0  0  0  0  0  0  0
    1.5541   21.3768   39.5464 H   0  0  0  0  0  0  0  0  0  0  0  0
    1.3730   14.8631   41.0432 H   0  0  0  0  0  0  0  0  0  0  0  0
    1.6561   12.4636   40.8105 H   0  0  0  0  0  0  0  0  0  0  0  0
   -0.0517   12.0070   44.7131 H   0  0  0  0  0  0  0  0  0  0  0  0
   -0.3035   14.4188   44.8734 H   0  0  0  0  0  0  0  0  0  0  0  0
   -0.5547   16.4560   45.0950 H   0  0  0  0  0  0  0  0  0  0  0  0
    1.6696   17.1219   40.0013 H   0  0  0  0  0  0  0  0  0  0  0  0
    0.7192   20.4057   41.5797 H   0  0  0  0  0  0  0  0  0  0  0  0
  1  2  1  0
  1 19  1  0
  1 20  2  0
  2  3  1  0
  2 16  2  0
  3  4  2  0
  4  5  1  0
  5 15  2  0
  5 17  1  0
  6 17  1  0
  6 18  2  0
  6 22  1  0
  7  8  1  0
  7 14  2  0
  7 18  1  0
  8  9  1  0
  8 13  2  0
  9 10  2  0
 10 11  1  0
 11 12  2  0
 11 23  1  0
 12 13  1  0
 14 22  1  0
 15 16  1  0
 16 21  1  0
  3 24  1  0
  4 25  1  0
  9 26  1  0
 10 27  1  0
 12 28  1  0
 13 29  1  0
 14 30  1  0
 15 31  1  0
 17 32  1  0
M  CHG  2  19  -1  21  -1
M  END
>  <mol_id>  (16) 
2026-08-23-6tgu-s0-n100-r5-0016

>  <rmsd_to_ref>  (16) 
1.142857142863178

$$$$
6tgu.A
     RDKit          3D

 32 34  0  0  0  0  0  0  0  0999 V2000
    1.5594   19.4173   36.3382 C   0  0  0  0  0  0  0  0  0  0  0  0
    1.6895   19.2415   37.8538 C   0  0  0  0  0  0  0  0  0  0  0  0
    1.5034   20.3245   38.7100 C   0  0  0  0  0  0  0  0  0  0  0  0
    1.4259   20.1684   40.0978 C   0  0  0  0  0  0  0  0  0  0  0  0
    1.7107   18.9265   40.6836 C   0  0  0  0  0  0  0  0  0  0  0  0
    1.3361   17.6060   42.8236 C   0  0  0  0  0  0  0  0  0  0  0  0
    1.0749   15.3852   43.2422 C   0  0  0  0  0  0  0  0  0  0  0  0
    1.0933   13.9604   42.9092 C   0  0  0  0  0  0  0  0  0  0  0  0
    0.6454   12.9813   43.8074 C   0  0  0  0  0  0  0  0  0  0  0  0
    0.6401   11.6346   43.4576 C   0  0  0  0  0  0  0  0  0  0  0  0
    1.0453   11.2784   42.1851 C   0  0  0  0  0  0  0  0  0  0  0  0
    1.4903   12.2143   41.2637 C   0  0  0  0  0  0  0  0  0  0  0  0
    1.4989   13.5556   41.6365 C   0  0  0  0  0  0  0  0  0  0  0  0
    0.6452   15.8855   44.4429 C   0  0  0  0  0  0  0  0  0  0  0  0
    1.8893   17.8238   39.8361 C   0  0  0  0  0  0  0  0  0  0  0  0
    1.8819   18.0016   38.4514 C   0  0  0  0  0  0  0  0  0  0  0  0
    1.5737   18.7344   42.0927 N   0  0  0  0  0  0  0  0  0  0  0  0
    1.3916   16.3503   42.2572 N   0  0  0  0  0  0  0  0  0  0  0  0
    1.1178   20.5332   35.9348 O   0  0  0  0  0  0  0  0  0  0  0  0
    1.8214   18.4222   35.6276 O   0  0  0  0  0  0  0  0  0  0  0  0
    1.9532   16.9011   37.6307 O   0  0  0  0  0  0  0  0  0  0  0  0
    0.5843   17.6068   44.4074 S   0  0  0  0  0  0  0  0  0  0  0  0
    1.0055    9.6096   41.7214 Cl  0  0  0  0  0  0  0  0  0  0  0  0
    1.4146   21.3337   38.2813 H   0  0  0  0  0  0  0  0  0  0  0  0
    1.1411   21.0216   40.7310 H   0  0  0  0  0  0  0  0  0  0  0  0
    0.2924   13.2827   44.8047 H   0  0  0  0  0  0  0  0  0  0  0  0
    0.3199   10.8688   44.1794 H   0  0  0  0  0  0  0  0  0  0  0  0
    1.8280   11.9048   40.2636 H   0  0  0  0  0  0  0  0  0  0  0  0
    1.8326   14.3131   40.9121 H   0  0  0  0  0  0  0  0  0  0  0  0
    0.3749   15.2701   45.3136 H   0  0  0  0  0  0  0  0  0  0  0  0
    2.0351   16.8200   40.2617 H   0  0  0  0  0  0  0  0  0  0  0  0
    1.6709   19.5935   42.6525 H   0  0  0  0  0  0  0  0  0  0  0  0
  1  2  1  0
  1 19  1  0
  1 20  2  0
  2  3  1  0
  2 16  2  0
  3  4  2  0
  4  5  1  0
  5 15  2  0
  5 17  1  0
  6 17  1  0
  6 18  2  0
  6 22  1  0
  7  8  1  0
  7 14  2  0
  7 18  1  0
  8  9  1  0
  8 13  2  0
  9 10  2  0
 10 11  1  0
 11 12  2  0
 11 23  1  0
 12 13  1  0
 14 22  1  0
 15 16  1  0
 16 21  1  0
  3 24  1  0
  4 25  1  0
  9 26  1  0
 10 27  1  0
 12 28  1  0
 13 29  1  0
 14 30  1  0
 15 31  1  0
 17 32  1  0
M  CHG  2  19  -1  21  -1
M  END
>  <mol_id>  (17) 
2026-08-23-6tgu-s0-n100-r5-0017

>  <rmsd_to_ref>  (17) 
1.1887755102068003

$$$$
6tgu.A
     RDKit          3D

 32 34  0  0  0  0  0  0  0  0999 V2000
    3.4686   20.9289   37.3245 C   0  0  0  0  0  0  0  0  0  0  0  0
    2.8640   20.3398   38.5278 C   0  0  0  0  0  0  0  0  0  0  0  0
    2.9182   21.0655   39.7181 C   0  0  0  0  0  0  0  0  0  0  0  0
    2.3519   20.5325   40.8811 C   0  0  0  0  0  0  0  0  0  0  0  0
    1.7462   19.2875   40.8240 C   0  0  0  0  0  0  0  0  0  0  0  0
    0.5429   17.4538   42.0218 C   0  0  0  0  0  0  0  0  0  0  0  0
   -0.0103   15.2740   42.1732 C   0  0  0  0  0  0  0  0  0  0  0  0
    0.4859   13.9046   42.4735 C   0  0  0  0  0  0  0  0  0  0  0  0
    1.7834   13.6488   42.8216 C   0  0  0  0  0  0  0  0  0  0  0  0
    2.1733   12.3437   43.0899 C   0  0  0  0  0  0  0  0  0  0  0  0
    1.3203   11.2861   43.0246 C   0  0  0  0  0  0  0  0  0  0  0  0
    0.0093   11.5301   42.6749 C   0  0  0  0  0  0  0  0  0  0  0  0
   -0.3763   12.8277   42.4086 C   0  0  0  0  0  0  0  0  0  0  0  0
   -1.2669   15.5336   41.8358 C   0  0  0  0  0  0  0  0  0  0  0  0
    1.6785   18.5458   39.6560 C   0  0  0  0  0  0  0  0  0  0  0  0
    2.2504   19.0997   38.5108 C   0  0  0  0  0  0  0  0  0  0  0  0
    1.1602   18.7282   42.0021 N   0  0  0  0  0  0  0  0  0  0  0  0
    0.7518   16.3440   42.2172 N   0  0  0  0  0  0  0  0  0  0  0  0
    3.3985   20.1733   36.1488 O   0  0  0  0  0  0  0  0  0  0  0  0
    4.0227   22.0636   37.3617 O   0  0  0  0  0  0  0  0  0  0  0  0
    2.2105   18.3950   37.3057 O   0  0  0  0  0  0  0  0  0  0  0  0
   -1.3297   17.3683   41.5807 S   0  0  0  0  0  0  0  0  0  0  0  0
    1.8590    9.6696   43.3704 Cl  0  0  0  0  0  0  0  0  0  0  0  0
    3.3975   22.0497   39.7621 H   0  0  0  0  0  0  0  0  0  0  0  0
    2.4031   21.1114   41.7997 H   0  0  0  0  0  0  0  0  0  0  0  0
    2.4627   14.4756   42.8757 H   0  0  0  0  0  0  0  0  0  0  0  0
    3.2024   12.1999   43.3580 H   0  0  0  0  0  0  0  0  0  0  0  0
   -0.7045   10.7215   42.6102 H   0  0  0  0  0  0  0  0  0  0  0  0
   -1.4149   12.9705   42.1385 H   0  0  0  0  0  0  0  0  0  0  0  0
   -2.2069   14.9146   41.6901 H   0  0  0  0  0  0  0  0  0  0  0  0
    1.2026   17.5766   39.6324 H   0  0  0  0  0  0  0  0  0  0  0  0
    1.1789   19.2756   42.9073 H   0  0  0  0  0  0  0  0  0  0  0  0
  1  2  1  0
  1 19  1  0
  1 20  2  0
  2  3  1  0
  2 16  2  0
  3  4  2  0
  4  5  1  0
  5 15  2  0
  5 17  1  0
  6 17  1  0
  6 18  2  0
  6 22  1  0
  7  8  1  0
  7 14  2  0
  7 18  1  0
  8  9  1  0
  8 13  2  0
  9 10  2  0
 10 11  1  0
 11 12  2  0
 11 23  1  0
 12 13  1  0
 14 22  1  0
 15 16  1  0
 16 21  1  0
  3 24  1  0
  4 25  1  0
  9 26  1  0
 10 27  1  0
 12 28  1  0
 13 29  1  0
 14 30  1  0
 15 31  1  0
 17 32  1  0
M  CHG  2  19  -1  21  -1
M  END
>  <mol_id>  (18) 
2026-08-23-6tgu-s0-n100-r5-0018

>  <rmsd_to_ref>  (18) 
1.2346938775511125

$$$$
6tgu.A
     RDKit          3D

 32 34  0  0  0  0  0  0  0  0999 V2000
    2.0581   19.9315   36.9012 C   0  0  0  0  0  0  0  0  0  0  0  0
    1.6395   19.6162   38.3400 C   0  0  0  0  0  0  0  0  0  0  0  0
    0.5990   20.3186   38.9439 C   0  0  0  0  0  0  0  0  0  0  0  0
    0.0639   19.9362   40.1784 C   0  0  0  0  0  0  0  0  0  0  0  0
    0.6827   18.9284   40.9322 C   0  0  0  0  0  0  0  0  0  0  0  0
    0.2184   17.2897   42.8195 C   0  0  0  0  0  0  0  0  0  0  0  0
    0.9926   15.1996   43.2755 C   0  0  0  0  0  0  0  0  0  0  0  0
    1.8715   14.0425   43.1026 C   0  0  0  0  0  0  0  0  0  0  0  0
    1.6742   12.8472   43.8084 C   0  0  0  0  0  0  0  0  0  0  0  0
    2.5018   11.7475   43.6038 C   0  0  0  0  0  0  0  0  0  0  0  0
    3.5023   11.8380   42.6545 C   0  0  0  0  0  0  0  0  0  0  0  0
    3.7289   12.9986   41.9301 C   0  0  0  0  0  0  0  0  0  0  0  0
    2.8973   14.0917   42.1573 C   0  0  0  0  0  0  0  0  0  0  0  0
   -0.0716   15.2308   44.1373 C   0  0  0  0  0  0  0  0  0  0  0  0
    1.7242   18.2043   40.3345 C   0  0  0  0  0  0  0  0  0  0  0  0
    2.1824   18.5625   39.0654 C   0  0  0  0  0  0  0  0  0  0  0  0
    0.1125   18.4824   42.1639 N   0  0  0  0  0  0  0  0  0  0  0  0
    1.1323   16.3308   42.4371 N   0  0  0  0  0  0  0  0  0  0  0  0
    1.3119   20.7260   36.2569 O   0  0  0  0  0  0  0  0  0  0  0  0
    3.0526   19.3200   36.4533 O   0  0  0  0  0  0  0  0  0  0  0  0
    3.1305   17.7826   38.4467 O   0  0  0  0  0  0  0  0  0  0  0  0
   -0.9873   16.6759   43.9344 S   0  0  0  0  0  0  0  0  0  0  0  0
    4.5147   10.4633   42.3597 Cl  0  0  0  0  0  0  0  0  0  0  0  0
    0.1854   21.2013   38.4341 H   0  0  0  0  0  0  0  0  0  0  0  0
   -0.8441   20.4270   40.5587 H   0  0  0  0  0  0  0  0  0  0  0  0
    0.8518   12.7776   44.5356 H   0  0  0  0  0  0  0  0  0  0  0  0
    2.3626   10.8246   44.1860 H   0  0  0  0  0  0  0  0  0  0  0  0
    4.5450   13.0540   41.1946 H   0  0  0  0  0  0  0  0  0  0  0  0
    3.0521   15.0146   41.5791 H   0  0  0  0  0  0  0  0  0  0  0  0
   -0.3099   14.4386   44.8624 H   0  0  0  0  0  0  0  0  0  0  0  0
    2.1795   17.3550   40.8650 H   0  0  0  0  0  0  0  0  0  0  0  0
   -0.4793   19.1795   42.6379 H   0  0  0  0  0  0  0  0  0  0  0  0
  1  2  1  0
  1 19  1  0
  1 20  2  0
  2  3  1  0
  2 16  2  0
  3  4  2  0
  4  5  1  0
  5 15  2  0
  5 17  1  0
  6 17  1  0
  6 18  2  0
  6 22  1  0
  7  8  1  0
  7 14  2  0
  7 18  1  0
  8  9  1  0
  8 13  2  0
  9 10  2  0
 10 11  1  0
 11 12  2  0
 11 23  1  0
 12 13  1  0
 14 22  1  0
 15 16  1  0
 16 21  1  0
  3 24  1  0
  4 25  1  0
  9 26  1  0
 10 27  1  0
 12 28  1  0
 13 29  1  0
 14 30  1  0
 15 31  1  0
 17 32  1  0
M  CHG  2  19  -1  21  -1
M  END
>  <mol_id>  (19) 
2026-08-23-6tgu-s0-n100-r5-0019

>  <rmsd_to_ref>  (19) 
1.2806122448997015

$$$$
6tgu.A
     RDKit          3D

 32 34  0  0  0  0  0  0  0  0999 V2000
    3.1038   21.2842   37.4108 C   0  0  0  0  0  0  0  0  0  0  0  0
    2.3440   20.4961   38.3713 C   0  0  0  0  0  0  0  0  0  0  0  0
    1.0126   20.7653   38.5928 C   0  0  0  0  0  0  0  0  0  0  0  0
    0.3022   20.0275   39.4896 C   0  0  0  0  0  0  0  0  0  0  0  0
    0.8552   18.9753   40.2280 C   0  0  0  0  0  0  0  0  0  0  0  0
    0.5045   17.1593   41.9097 C   0  0  0  0  0  0  0  0  0  0  0  0
    1.0598   15.0717   42.6319 C   0  0  0  0  0  0  0  0  0  0  0  0
    1.1773   13.6187   42.3907 C   0  0  0  0  0  0  0  0  0  0  0  0
    0.8087   13.0921   41.1661 C   0  0  0  0  0  0  0  0  0  0  0  0
    0.8971   11.7435   40.9020 C   0  0  0  0  0  0  0  0  0  0  0  0
    1.3601   10.8861   41.8652 C   0  0  0  0  0  0  0  0  0  0  0  0
    1.7353   11.3821   43.0951 C   0  0  0  0  0  0  0  0  0  0  0  0
    1.6373   12.7534   43.3420 C   0  0  0  0  0  0  0  0  0  0  0  0
    1.4548   15.5867   43.9029 C   0  0  0  0  0  0  0  0  0  0  0  0
    2.1876   18.7151   39.9986 C   0  0  0  0  0  0  0  0  0  0  0  0
    2.9419   19.4567   39.0833 C   0  0  0  0  0  0  0  0  0  0  0  0
    0.0632   18.2437   41.1397 N   0  0  0  0  0  0  0  0  0  0  0  0
    0.6330   15.9266   41.7927 N   0  0  0  0  0  0  0  0  0  0  0  0
    2.4827   22.3063   36.7204 O   0  0  0  0  0  0  0  0  0  0  0  0
    4.3201   21.0414   37.2052 O   0  0  0  0  0  0  0  0  0  0  0  0
    4.2814   19.1543   38.8884 O   0  0  0  0  0  0  0  0  0  0  0  0
    1.1186   17.4246   43.6827 S   0  0  0  0  0  0  0  0  0  0  0  0
    1.5039    9.1586   41.6102 Cl  0  0  0  0  0  0  0  0  0  0  0  0
    0.5692   21.5821   38.0237 H   0  0  0  0  0  0  0  0  0  0  0  0
   -0.7486   20.2851   39.6242 H   0  0  0  0  0  0  0  0  0  0  0  0
    0.4358   13.7224   40.3663 H   0  0  0  0  0  0  0  0  0  0  0  0
    0.6001   11.3612   39.9263 H   0  0  0  0  0  0  0  0  0  0  0  0
    2.1097   10.7744   43.9050 H   0  0  0  0  0  0  0  0  0  0  0  0
    1.9357   13.1281   44.3113 H   0  0  0  0  0  0  0  0  0  0  0  0
    1.8182   15.1768   44.7360 H   0  0  0  0  0  0  0  0  0  0  0  0
    2.6751   17.8986   40.5532 H   0  0  0  0  0  0  0  0  0  0  0  0
   -0.9488   18.5312   41.2596 H   0  0  0  0  0  0  0  0  0  0  0  0
  1  2  1  0
  1 19  1  0
  1 20  2  0
  2  3  1  0
  2 16  2  0
  3  4  2  0
  4  5  1  0
  5 15  2  0
  5 17  1  0
  6 17  1  0
  6 18  2  0
  6 22  1  0
  7  8  1  0
  7 14  2  0
  7 18  1  0
  8  9  1  0
  8 13  2  0
  9 10  2  0
 10 11  1  0
 11 12  2  0
 11 23  1  0
 12 13  1  0
 14 22  1  0
 15 16  1  0
 16 21  1  0
  3 24  1  0
  4 25  1  0
  9 26  1  0
 10 27  1  0
 12 28  1  0
 13 29  1  0
 14 30  1  0
 15 31  1  0
 17 32  1  0
M  CHG  2  19  -1  21  -1
M  END
>  <mol_id>  (20) 
2026-08-23-6tgu-s0-n100-r5-0020

>  <rmsd_to_ref>  (20) 
1.3265306122456875

$$$$
6tgu.A
     RDKit          3D

 32 34  0  0  0  0  0  0  0  0999 V2000
    2.3038   19.3511   36.4683 C   0  0  0  0  0  0  0  0  0  0  0  0
    1.8128   19.3438   37.9187 C   0  0  0  0  0  0  0  0  0  0  0  0
    0.8008   20.2095   38.3272 C   0  0  0  0  0  0  0  0  0  0  0  0
    0.1966   20.1041   39.5843 C   0  0  0  0  0  0  0  0  0  0  0  0
    0.7183   19.2252   40.5447 C   0  0  0  0  0  0  0  0  0  0  0  0
    0.0763   18.0105   42.6837 C   0  0  0  0  0  0  0  0  0  0  0  0
    0.6908   16.0050   43.5647 C   0  0  0  0  0  0  0  0  0  0  0  0
    1.4954   14.7863   43.6573 C   0  0  0  0  0  0  0  0  0  0  0  0
    1.1924   13.7629   44.5665 C   0  0  0  0  0  0  0  0  0  0  0  0
    1.9509   12.5974   44.6146 C   0  0  0  0  0  0  0  0  0  0  0  0
    2.9891   12.4442   43.7151 C   0  0  0  0  0  0  0  0  0  0  0  0
    3.3196   13.4283   42.7956 C   0  0  0  0  0  0  0  0  0  0  0  0
    2.5558   14.5920   42.7708 C   0  0  0  0  0  0  0  0  0  0  0  0
   -0.3996   16.2644   44.3523 C   0  0  0  0  0  0  0  0  0  0  0  0
    1.7296   18.3393   40.1465 C   0  0  0  0  0  0  0  0  0  0  0  0
    2.2568   18.4189   38.8562 C   0  0  0  0  0  0  0  0  0  0  0  0
    0.0749   19.0590   41.8094 N   0  0  0  0  0  0  0  0  0  0  0  0
    0.9368   16.9436   42.5349 N   0  0  0  0  0  0  0  0  0  0  0  0
    1.6367   20.0496   35.6496 O   0  0  0  0  0  0  0  0  0  0  0  0
    3.2704   18.6070   36.1933 O   0  0  0  0  0  0  0  0  0  0  0  0
    3.1720   17.4799   38.4435 O   0  0  0  0  0  0  0  0  0  0  0  0
   -1.2078   17.6951   43.8348 S   0  0  0  0  0  0  0  0  0  0  0  0
    3.9166   10.9811   43.7358 Cl  0  0  0  0  0  0  0  0  0  0  0  0
    0.4664   21.0006   37.6398 H   0  0  0  0  0  0  0  0  0  0  0  0
   -0.6895   20.7117   39.8201 H   0  0  0  0  0  0  0  0  0  0  0  0
    0.3413   13.8833   45.2529 H   0  0  0  0  0  0  0  0  0  0  0  0
    1.7288   11.8136   45.3537 H   0  0  0  0  0  0  0  0  0  0  0  0
    4.1637   13.2929   42.1035 H   0  0  0  0  0  0  0  0  0  0  0  0
    2.7934   15.3756   42.0363 H   0  0  0  0  0  0  0  0  0  0  0  0
   -0.7169   15.6420   45.2020 H   0  0  0  0  0  0  0  0  0  0  0  0
    2.1071   17.5825   40.8499 H   0  0  0  0  0  0  0  0  0  0  0  0
   -0.4854   19.8680   42.1134 H   0  0  0  0  0  0  0  0  0  0  0  0
  1  2  1  0
  1 19  1  0
  1 20  2  0
  2  3  1  0
  2 16  2  0
  3  4  2  0
  4  5  1  0
  5 15  2  0
  5 17  1  0
  6 17  1  0
  6 18  2  0
  6 22  1  0
  7  8  1  0
  7 14  2  0
  7 18  1  0
  8  9  1  0
  8 13  2  0
  9 10  2  0
 10 11  1  0
 11 12  2  0
 11 23  1  0
 12 13  1  0
 14 22  1  0
 15 16  1  0
 16 21  1  0
  3 24  1  0
  4 25  1  0
  9 26  1  0
 10 27  1  0
 12 28  1  0
 13 29  1  0
 14 30  1  0
 15 31  1  0
 17 32  1  0
M  CHG  2  19  -1  21  -1
M  END
>  <mol_id>  (21) 
2026-08-23-6tgu-s0-n100-r5-0021

>  <rmsd_to_ref>  (21) 
1.3724489795919415

$$$$
6tgu.A
     RDKit          3D

 32 34  0  0  0  0  0  0  0  0999 V2000
    3.6584   20.7184   37.4100 C   0  0  0  0  0  0  0  0  0  0  0  0
    2.7726   20.2606   38.4737 C   0  0  0  0  0  0  0  0  0  0  0  0
    1.6433   20.9692   38.8006 C   0  0  0  0  0  0  0  0  0  0  0  0
    0.8386   20.5097   39.8025 C   0  0  0  0  0  0  0  0  0  0  0  0
    1.1752   19.3356   40.4729 C   0  0  0  0  0  0  0  0  0  0  0  0
    0.7057   17.5795   42.1810 C   0  0  0  0  0  0  0  0  0  0  0  0
    0.9556   15.4640   42.8698 C   0  0  0  0  0  0  0  0  0  0  0  0
    0.5852   14.0449   42.6765 C   0  0  0  0  0  0  0  0  0  0  0  0
   -0.2847   13.6346   41.6913 C   0  0  0  0  0  0  0  0  0  0  0  0
   -0.6224   12.3026   41.5158 C   0  0  0  0  0  0  0  0  0  0  0  0
   -0.0843   11.3328   42.3409 C   0  0  0  0  0  0  0  0  0  0  0  0
    0.7892   11.7271   43.3333 C   0  0  0  0  0  0  0  0  0  0  0  0
    1.1100   13.0592   43.4884 C   0  0  0  0  0  0  0  0  0  0  0  0
    1.8094   15.8638   43.8461 C   0  0  0  0  0  0  0  0  0  0  0  0
    2.3299   18.6216   40.1300 C   0  0  0  0  0  0  0  0  0  0  0  0
    3.1333   19.0926   39.1199 C   0  0  0  0  0  0  0  0  0  0  0  0
    0.3662   18.8234   41.5286 N   0  0  0  0  0  0  0  0  0  0  0  0
    0.5152   16.4674   42.1479 N   0  0  0  0  0  0  0  0  0  0  0  0
    3.3691   21.8859   36.7073 O   0  0  0  0  0  0  0  0  0  0  0  0
    4.6951   20.0327   37.1392 O   0  0  0  0  0  0  0  0  0  0  0  0
    4.2718   18.3673   38.7990 O   0  0  0  0  0  0  0  0  0  0  0  0
    1.9204   17.6827   43.6543 S   0  0  0  0  0  0  0  0  0  0  0  0
   -0.5258    9.6677   42.0970 Cl  0  0  0  0  0  0  0  0  0  0  0  0
    1.3922   21.8775   38.2751 H   0  0  0  0  0  0  0  0  0  0  0  0
   -0.0628   21.0492   40.0840 H   0  0  0  0  0  0  0  0  0  0  0  0
   -0.7151   14.3711   41.0385 H   0  0  0  0  0  0  0  0  0  0  0  0
   -1.3253   12.0560   40.7054 H   0  0  0  0  0  0  0  0  0  0  0  0
    1.2339   10.9940   44.0032 H   0  0  0  0  0  0  0  0  0  0  0  0
    1.8008   13.3454   44.2776 H   0  0  0  0  0  0  0  0  0  0  0  0
    2.3588   15.3267   44.6177 H   0  0  0  0  0  0  0  0  0  0  0  0
    2.5896   17.7059   40.6553 H   0  0  0  0  0  0  0  0  0  0  0  0
   -0.4780   19.3750   41.8141 H   0  0  0  0  0  0  0  0  0  0  0  0
  1  2  1  0
  1 19  1  0
  1 20  2  0
  2  3  1  0
  2 16  2  0
  3  4  2  0
  4  5  1  0
  5 15  2  0
  5 17  1  0
  6 17  1  0
  6 18  2  0
  6 22  1  0
  7  8  1  0
  7 14  2  0
  7 18  1  0
  8  9  1  0
  8 13  2  0
  9 10  2  0
 10 11  1  0
 11 12  2  0
 11 23  1  0
 12 13  1  0
 14 22  1  0
 15 16  1  0
 16 21  1  0
  3 24  1  0
  4 25  1  0
  9 26  1  0
 10 27  1  0
 12 28  1  0
 13 29  1  0
 14 30  1  0
 15 31  1  0
 17 32  1  0
M  CHG  2  19  -1  21  -1
M  END
>  <mol_id>  (22) 
2026-08-23-6tgu-s0-n100-r5-0022

>  <rmsd_to_ref>  (22) 
1.418367346939689

$$$$
6tgu.A
     RDKit          3D

 32 34  0  0  0  0  0  0  0  0999 V2000
    2.2597   19.7171   36.3144 C   0  0  0  0  0  0  0  0  0  0  0  0
    1.8016   19.6635   37.7745 C   0  0  0  0  0  0  0  0  0  0  0  0
    0.7586   20.4731   38.2187 C   0  0  0  0  0  0  0  0  0  0  0  0
    0.1879   20.3191   39.4864 C   0  0  0  0  0  0  0  0  0  0  0  0
    0.7718   19.4514   40.4207 C   0  0  0  0  0  0  0  0  0  0  0  0
    0.2355   18.1739   42.5523 C   0  0  0  0  0  0  0  0  0  0  0  0
    0.9641   16.1867   43.3866 C   0  0  0  0  0  0  0  0  0  0  0  0
    1.8278   15.0068   43.4417 C   0  0  0  0  0  0  0  0  0  0  0  0
    1.5940   13.9559   44.3400 C   0  0  0  0  0  0  0  0  0  0  0  0
    2.4081   12.8276   44.3526 C   0  0  0  0  0  0  0  0  0  0  0  0
    3.4324   12.7386   43.4289 C   0  0  0  0  0  0  0  0  0  0  0  0
    3.6954   13.7517   42.5192 C   0  0  0  0  0  0  0  0  0  0  0  0
    2.8766   14.8776   42.5299 C   0  0  0  0  0  0  0  0  0  0  0  0
   -0.1198   16.3810   44.2012 C   0  0  0  0  0  0  0  0  0  0  0  0
    1.8152   18.6214   39.9865 C   0  0  0  0  0  0  0  0  0  0  0  0
    2.3096   18.7465   38.6869 C   0  0  0  0  0  0  0  0  0  0  0  0
    0.1649   19.2347   41.6959 N   0  0  0  0  0  0  0  0  0  0  0  0
    1.1424   17.1521   42.3675 N   0  0  0  0  0  0  0  0  0  0  0  0
    1.5423   20.3954   35.5217 O   0  0  0  0  0  0  0  0  0  0  0  0
    3.2545   19.0247   36.0066 O   0  0  0  0  0  0  0  0  0  0  0  0
    3.2593   17.8591   38.2393 O   0  0  0  0  0  0  0  0  0  0  0  0
   -1.0065   17.7792   43.7249 S   0  0  0  0  0  0  0  0  0  0  0  0
    4.4289   11.3215   43.4056 Cl  0  0  0  0  0  0  0  0  0  0  0  0
    0.3719   21.2579   37.5519 H   0  0  0  0  0  0  0  0  0  0  0  0
   -0.7208   20.8797   39.7510 H   0  0  0  0  0  0  0  0  0  0  0  0
    0.7534   14.0245   45.0462 H   0  0  0  0  0  0  0  0  0  0  0  0
    2.2399   12.0226   45.0830 H   0  0  0  0  0  0  0  0  0  0  0  0
    4.5296   13.6678   41.8071 H   0  0  0  0  0  0  0  0  0  0  0  0
    3.0603   15.6831   41.8038 H   0  0  0  0  0  0  0  0  0  0  0  0
   -0.3884   15.7309   45.0470 H   0  0  0  0  0  0  0  0  0  0  0  0
    2.2437   17.8727   40.6691 H   0  0  0  0  0  0  0  0  0  0  0  0
   -0.4265   20.0110   42.0251 H   0  0  0  0  0  0  0  0  0  0  0  0
  1  2  1  0
  1 19  1  0
  1 20  2  0
  2  3  1  0
  2 16  2  0
  3  4  2  0
  4  5  1  0
  5 15  2  0
  5 17  1  0
  6 17  1  0
  6 18  2  0
  6 22  1  0
  7  8  1  0
  7 14  2  0
  7 18  1  0
  8  9  1  0
  8 13  2  0
  9 10  2  0
 10 11  1  0
 11 12  2  0
 11 23  1  0
 12 13  1  0
 14 22  1  0
 15 16  1  0
 16 21  1  0
  3 24  1  0
  4 25  1  0
  9 26  1  0
 10 27  1  0
 12 28  1  0
 13 29  1  0
 14 30  1  0
 15 31  1  0
 17 32  1  0
M  CHG  2  19  -1  21  -1
M  END
>  <mol_id>  (23) 
2026-08-23-6tgu-s0-n100-r5-0023

>  <rmsd_to_ref>  (23) 
1.4642857142903754

$$$$
6tgu.A
     RDKit          3D

 32 34  0  0  0  0  0  0  0  0999 V2000
    2.4585   21.1377   37.0592 C   0  0  0  0  0  0  0  0  0  0  0  0
    1.8666   20.5326   38.2462 C   0  0  0  0  0  0  0  0  0  0  0  0
    0.7156   21.0417   38.7942 C   0  0  0  0  0  0  0  0  0  0  0  0
    0.1915   20.4487   39.9061 C   0  0  0  0  0  0  0  0  0  0  0  0
    0.8302   19.3428   40.4631 C   0  0  0  0  0  0  0  0  0  0  0  0
    0.9697   17.5227   42.1630 C   0  0  0  0  0  0  0  0  0  0  0  0
    1.6804   15.4740   42.7196 C   0  0  0  0  0  0  0  0  0  0  0  0
    1.5164   14.0142   42.5442 C   0  0  0  0  0  0  0  0  0  0  0  0
    0.5605   13.4711   41.7154 C   0  0  0  0  0  0  0  0  0  0  0  0
    0.4173   12.1027   41.5548 C   0  0  0  0  0  0  0  0  0  0  0  0
    1.2464   11.2307   42.2355 C   0  0  0  0  0  0  0  0  0  0  0  0
    2.2097   11.7586   43.0703 C   0  0  0  0  0  0  0  0  0  0  0  0
    2.3327   13.1246   43.2137 C   0  0  0  0  0  0  0  0  0  0  0  0
    2.6208   16.0041   43.5422 C   0  0  0  0  0  0  0  0  0  0  0  0
    2.0038   18.8328   39.8947 C   0  0  0  0  0  0  0  0  0  0  0  0
    2.5233   19.4368   38.7755 C   0  0  0  0  0  0  0  0  0  0  0  0
    0.3202   18.6969   41.6267 N   0  0  0  0  0  0  0  0  0  0  0  0
    0.9594   16.3947   42.1243 N   0  0  0  0  0  0  0  0  0  0  0  0
    1.8609   22.2452   36.4617 O   0  0  0  0  0  0  0  0  0  0  0  0
    3.5262   20.6355   36.5836 O   0  0  0  0  0  0  0  0  0  0  0  0
    3.6871   18.9127   38.2311 O   0  0  0  0  0  0  0  0  0  0  0  0
    2.3984   17.8173   43.3995 S   0  0  0  0  0  0  0  0  0  0  0  0
    1.0442    9.5169   42.0141 Cl  0  0  0  0  0  0  0  0  0  0  0  0
    0.2293   21.8988   38.3549 H   0  0  0  0  0  0  0  0  0  0  0  0
   -0.7193   20.8293   40.3627 H   0  0  0  0  0  0  0  0  0  0  0  0
   -0.0948   14.1299   41.1766 H   0  0  0  0  0  0  0  0  0  0  0  0
   -0.3714   11.7476   40.8741 H   0  0  0  0  0  0  0  0  0  0  0  0
    2.8816   11.1056   43.6235 H   0  0  0  0  0  0  0  0  0  0  0  0
    3.0995   13.5167   43.8772 H   0  0  0  0  0  0  0  0  0  0  0  0
    3.3809   15.5611   44.1838 H   0  0  0  0  0  0  0  0  0  0  0  0
    2.4996   17.9697   40.3321 H   0  0  0  0  0  0  0  0  0  0  0  0
   -0.5364   19.0988   42.0776 H   0  0  0  0  0  0  0  0  0  0  0  0
  1  2  1  0
  1 19  1  0
  1 20  2  0
  2  3  1  0
  2 16  2  0
  3  4  2  0
  4  5  1  0
  5 15  2  0
  5 17  1  0
  6 17  1  0
  6 18  2  0
  6 22  1  0
  7  8  1  0
  7 14  2  0
  7 18  1  0
  8  9  1  0
  8 13  2  0
  9 10  2  0
 10 11  1  0
 11 12  2  0
 11 23  1  0
 12 13  1  0
 14 22  1  0
 15 16  1  0
 16 21  1  0
  3 24  1  0
  4 25  1  0
  9 26  1  0
 10 27  1  0
 12 28  1  0
 13 29  1  0
 14 30  1  0
 15 31  1  0
 17 32  1  0
M  CHG  2  19  -1  21  -1
M  END
>  <mol_id>  (24) 
2026-08-23-6tgu-s0-n100-r5-0024

>  <rmsd_to_ref>  (24) 
1.5102040816327729

$$$$
6tgu.A
     RDKit          3D

 32 34  0  0  0  0  0  0  0  0999 V2000
    1.4635   19.6756   36.0267 C   0  0  0  0  0  0  0  0  0  0  0  0
    1.4245   19.5548   37.5527 C   0  0  0  0  0  0  0  0  0  0  0  0
    0.6633   20.4398   38.3129 C   0  0  0  0  0  0  0  0  0  0  0  0
    0.4504   20.2485   39.6821 C   0  0  0  0  0  0  0  0  0  0  0  0
    1.1485   19.2453   40.3697 C   0  0  0  0  0  0  0  0  0  0  0  0
    1.0572   17.8666   42.5038 C   0  0  0  0  0  0  0  0  0  0  0  0
    1.7155   15.7468   43.0023 C   0  0  0  0  0  0  0  0  0  0  0  0
    2.3947   14.4747   42.7539 C   0  0  0  0  0  0  0  0  0  0  0  0
    2.2802   13.3872   43.6316 C   0  0  0  0  0  0  0  0  0  0  0  0
    2.9074   12.1755   43.3590 C   0  0  0  0  0  0  0  0  0  0  0  0
    3.6146   12.0455   42.1786 C   0  0  0  0  0  0  0  0  0  0  0  0
    3.7486   13.0931   41.2799 C   0  0  0  0  0  0  0  0  0  0  0  0
    3.1231   14.3011   41.5760 C   0  0  0  0  0  0  0  0  0  0  0  0
    0.9355   15.9968   44.1002 C   0  0  0  0  0  0  0  0  0  0  0  0
    1.9102   18.3393   39.6180 C   0  0  0  0  0  0  0  0  0  0  0  0
    2.0377   18.5133   38.2387 C   0  0  0  0  0  0  0  0  0  0  0  0
    0.8950   18.9955   41.7534 N   0  0  0  0  0  0  0  0  0  0  0  0
    1.7323   16.7658   42.0208 N   0  0  0  0  0  0  0  0  0  0  0  0
    0.6522   20.4951   35.5039 O   0  0  0  0  0  0  0  0  0  0  0  0
    2.2323   18.9010   35.4162 O   0  0  0  0  0  0  0  0  0  0  0  0
    2.6988   17.5624   37.4981 O   0  0  0  0  0  0  0  0  0  0  0  0
    0.1470   17.5222   43.9620 S   0  0  0  0  0  0  0  0  0  0  0  0
    4.3667   10.5299   41.8062 Cl  0  0  0  0  0  0  0  0  0  0  0  0
    0.2157   21.3162   37.8213 H   0  0  0  0  0  0  0  0  0  0  0  0
   -0.2660   20.8863   40.2205 H   0  0  0  0  0  0  0  0  0  0  0  0
    1.6849   13.4937   44.5504 H   0  0  0  0  0  0  0  0  0  0  0  0
    2.8417   11.3377   44.0688 H   0  0  0  0  0  0  0  0  0  0  0  0
    4.3342   12.9727   40.3566 H   0  0  0  0  0  0  0  0  0  0  0  0
    3.2048   15.1373   40.8660 H   0  0  0  0  0  0  0  0  0  0  0  0
    0.8270   15.3144   44.9561 H   0  0  0  0  0  0  0  0  0  0  0  0
    2.4066   17.4924   40.1144 H   0  0  0  0  0  0  0  0  0  0  0  0
    0.5271   19.8050   42.2733 H   0  0  0  0  0  0  0  0  0  0  0  0
  1  2  1  0
  1 19  1  0
  1 20  2  0
  2  3  1  0
  2 16  2  0
  3  4  2  0
  4  5  1  0
  5 15  2  0
  5 17  1  0
  6 17  1  0
  6 18  2  0
  6 22  1  0
  7  8  1  0
  7 14  2  0
  7 18  1  0
  8  9  1  0
  8 13  2  0
  9 10  2  0
 10 11  1  0
 11 12  2  0
 11 23  1  0
 12 13  1  0
 14 22  1  0
 15 16  1  0
 16 21  1  0
  3 24  1  0
  4 25  1  0
  9 26  1  0
 10 27  1  0
 12 28  1  0
 13 29  1  0
 14 30  1  0
 15 31  1  0
 17 32  1  0
M  CHG  2  19  -1  21  -1
M  END
>  <mol_id>  (25) 
2026-08-23-6tgu-s0-n100-r5-0025

>  <rmsd_to_ref>  (25) 
1.5561224489842975

$$$$
6tgu.A
     RDKit          3D

 32 34  0  0  0  0  0  0  0  0999 V2000
    3.4413   20.4704   37.6571 C   0  0  0  0  0  0  0  0  0  0  0  0
    2.6257   19.9922   38.7539 C   0  0  0  0  0  0  0  0  0  0  0  0
    2.6249   18.6525   39.0713 C   0  0  0  0  0  0  0  0  0  0  0  0
    1.8346   18.2180   40.1273 C   0  0  0  0  0  0  0  0  0  0  0  0
    1.0489   19.0660   40.8747 C   0  0  0  0  0  0  0  0  0  0  0  0
    0.1980   17.2889   42.3212 C   0  0  0  0  0  0  0  0  0  0  0  0
    0.3650   15.0611   42.6466 C   0  0  0  0  0  0  0  0  0  0  0  0
    0.9816   13.7864   42.2042 C   0  0  0  0  0  0  0  0  0  0  0  0
    0.6867   12.6006   42.8403 C   0  0  0  0  0  0  0  0  0  0  0  0
    1.2466   11.4110   42.4462 C   0  0  0  0  0  0  0  0  0  0  0  0
    2.1348   11.3730   41.3839 C   0  0  0  0  0  0  0  0  0  0  0  0
    2.4442   12.5443   40.7338 C   0  0  0  0  0  0  0  0  0  0  0  0
    1.8668   13.7244   41.1512 C   0  0  0  0  0  0  0  0  0  0  0  0
   -0.5077   15.1084   43.6880 C   0  0  0  0  0  0  0  0  0  0  0  0
    1.0931   20.4146   40.5029 C   0  0  0  0  0  0  0  0  0  0  0  0
    1.8647   20.8708   39.4643 C   0  0  0  0  0  0  0  0  0  0  0  0
    0.2364   18.6435   41.9546 N   0  0  0  0  0  0  0  0  0  0  0  0
    0.6137   16.2100   42.0750 N   0  0  0  0  0  0  0  0  0  0  0  0
    4.2336   19.5942   36.9083 O   0  0  0  0  0  0  0  0  0  0  0  0
    3.4367   21.7096   37.3699 O   0  0  0  0  0  0  0  0  0  0  0  0
    1.8568   22.2255   39.1538 O   0  0  0  0  0  0  0  0  0  0  0  0
   -0.9528   16.9024   43.8006 S   0  0  0  0  0  0  0  0  0  0  0  0
    2.8644    9.8557   40.8628 Cl  0  0  0  0  0  0  0  0  0  0  0  0
    3.2256   17.9397   38.5151 H   0  0  0  0  0  0  0  0  0  0  0  0
    1.8622   17.1728   40.3409 H   0  0  0  0  0  0  0  0  0  0  0  0
   -0.0108   12.6040   43.6808 H   0  0  0  0  0  0  0  0  0  0  0  0
    0.9802   10.5043   42.9819 H   0  0  0  0  0  0  0  0  0  0  0  0
    3.1457   12.5411   39.8885 H   0  0  0  0  0  0  0  0  0  0  0  0
    2.1176   14.6502   40.6299 H   0  0  0  0  0  0  0  0  0  0  0  0
   -0.9299   14.3699   44.3718 H   0  0  0  0  0  0  0  0  0  0  0  0
    0.4947   21.1343   41.0546 H   0  0  0  0  0  0  0  0  0  0  0  0
   -0.3176   19.4077   42.4422 H   0  0  0  0  0  0  0  0  0  0  0  0
  1  2  1  0
  1 19  1  0
  1 20  2  0
  2  3  1  0
  2 16  2  0
  3  4  2  0
  4  5  1  0
  5 15  2  0
  5 17  1  0
  6 17  1  0
  6 18  2  0
  6 22  1  0
  7  8  1  0
  7 14  2  0
  7 18  1  0
  8  9  1  0
  8 13  2  0
  9 10  2  0
 10 11  1  0
 11 12  2  0
 11 23  1  0
 12 13  1  0
 14 22  1  0
 15 16  1  0
 16 21  1  0
  3 24  1  0
  4 25  1  0
  9 26  1  0
 10 27  1  0
 12 28  1  0
 13 29  1  0
 14 30  1  0
 15 31  1  0
 17 32  1  0
M  CHG  2  19  -1  21  -1
M  END
>  <mol_id>  (26) 
2026-08-23-6tgu-s0-n100-r5-0026

>  <rmsd_to_ref>  (26) 
1.6020408163285387

$$$$
6tgu.A
     RDKit          3D

 32 34  0  0  0  0  0  0  0  0999 V2000
    1.3223   18.7584   35.5197 C   0  0  0  0  0  0  0  0  0  0  0  0
    1.5650   18.8172   37.0304 C   0  0  0  0  0  0  0  0  0  0  0  0
    1.4911   20.0299   37.7119 C   0  0  0  0  0  0  0  0  0  0  0  0
    1.5177   20.0989   39.1087 C   0  0  0  0  0  0  0  0  0  0  0  0
    1.7978   18.9517   39.8651 C   0  0  0  0  0  0  0  0  0  0  0  0
    1.5411   18.0066   42.2112 C   0  0  0  0  0  0  0  0  0  0  0  0
    1.2248   15.8964   43.0001 C   0  0  0  0  0  0  0  0  0  0  0  0
    1.1593   14.4379   42.9007 C   0  0  0  0  0  0  0  0  0  0  0  0
    0.7449   13.6375   43.9747 C   0  0  0  0  0  0  0  0  0  0  0  0
    0.6577   12.2547   43.8479 C   0  0  0  0  0  0  0  0  0  0  0  0
    0.9461   11.6815   42.6237 C   0  0  0  0  0  0  0  0  0  0  0  0
    1.3540   12.4358   41.5339 C   0  0  0  0  0  0  0  0  0  0  0  0
    1.4461   13.8168   41.6841 C   0  0  0  0  0  0  0  0  0  0  0  0
    0.9121   16.6015   44.1321 C   0  0  0  0  0  0  0  0  0  0  0  0
    1.8641   17.7213   39.1958 C   0  0  0  0  0  0  0  0  0  0  0  0
    1.7541   17.6787   37.8047 C   0  0  0  0  0  0  0  0  0  0  0  0
    1.7653   18.9916   41.2929 N   0  0  0  0  0  0  0  0  0  0  0  0
    1.5009   16.6762   41.8521 N   0  0  0  0  0  0  0  0  0  0  0  0
    0.8954   19.8183   34.9744 O   0  0  0  0  0  0  0  0  0  0  0  0
    1.4869   17.6514   34.9617 O   0  0  0  0  0  0  0  0  0  0  0  0
    1.7157   16.4603   37.1691 O   0  0  0  0  0  0  0  0  0  0  0  0
    0.9179   18.2965   43.8240 S   0  0  0  0  0  0  0  0  0  0  0  0
    0.8024    9.9649   42.4392 Cl  0  0  0  0  0  0  0  0  0  0  0  0
    1.4093   20.9621   37.1337 H   0  0  0  0  0  0  0  0  0  0  0  0
    1.3185   21.0550   39.6149 H   0  0  0  0  0  0  0  0  0  0  0  0
    0.4846   14.1105   44.9331 H   0  0  0  0  0  0  0  0  0  0  0  0
    0.3651   11.6301   44.7048 H   0  0  0  0  0  0  0  0  0  0  0  0
    1.5986   11.9552   40.5751 H   0  0  0  0  0  0  0  0  0  0  0  0
    1.7515   14.4320   40.8249 H   0  0  0  0  0  0  0  0  0  0  0  0
    0.6871   16.1461   45.1078 H   0  0  0  0  0  0  0  0  0  0  0  0
    2.0026   16.7909   39.7660 H   0  0  0  0  0  0  0  0  0  0  0  0
    1.9410   19.9219   41.6984 H   0  0  0  0  0  0  0  0  0  0  0  0
  1  2  1  0
  1 19  1  0
  1 20  2  0
  2  3  1  0
  2 16  2  0
  3  4  2  0
  4  5  1  0
  5 15  2  0
  5 17  1  0
  6 17  1  0
  6 18  2  0
  6 22  1  0
  7  8  1  0
  7 14  2  0
  7 18  1  0
  8  9  1  0
  8 13  2  0
  9 10  2  0
 10 11  1  0
 11 12  2  0
 11 23  1  0
 12 13  1  0
 14 22  1  0
 15 16  1  0
 16 21  1  0
  3 24  1  0
  4 25  1  0
  9 26  1  0
 10 27  1  0
 12 28  1  0
 13 29  1  0
 14 30  1  0
 15 31  1  0
 17 32  1  0
M  CHG  2  19  -1  21  -1
M  END
>  <mol_id>  (27) 
2026-08-23-6tgu-s0-n100-r5-0027

>  <rmsd_to_ref>  (27) 
1.6479591836745682

$$$$
6tgu.A
     RDKit          3D

 32 34  0  0  0  0  0  0  0  0999 V2000
    2.3160   20.1567   36.2538 C   0  0  0  0  0  0  0  0  0  0  0  0
    1.6808   19.6950   37.4821 C   0  0  0  0  0  0  0  0  0  0  0  0
    0.3984   20.0721   37.7940 C   0  0  0  0  0  0  0  0  0  0  0  0
   -0.1628   19.6203   38.9531 C   0  0  0  0  0  0  0  0  0  0  0  0
    0.5717   18.7885   39.7957 C   0  0  0  0  0  0  0  0  0  0  0  0
    0.7856   17.3991   41.8562 C   0  0  0  0  0  0  0  0  0  0  0  0
    1.7479   15.6744   42.9103 C   0  0  0  0  0  0  0  0  0  0  0  0
    1.8550   14.2047   43.0419 C   0  0  0  0  0  0  0  0  0  0  0  0
    1.1223   13.3366   42.2639 C   0  0  0  0  0  0  0  0  0  0  0  0
    1.2324   11.9617   42.3919 C   0  0  0  0  0  0  0  0  0  0  0  0
    2.0973   11.4157   43.3219 C   0  0  0  0  0  0  0  0  0  0  0  0
    2.8389   12.2716   44.1097 C   0  0  0  0  0  0  0  0  0  0  0  0
    2.7118   13.6369   43.9635 C   0  0  0  0  0  0  0  0  0  0  0  0
    2.4684   16.5257   43.6836 C   0  0  0  0  0  0  0  0  0  0  0  0
    1.8791   18.4107   39.4663 C   0  0  0  0  0  0  0  0  0  0  0  0
    2.4348   18.8709   38.2972 C   0  0  0  0  0  0  0  0  0  0  0  0
    0.0263   18.2986   41.0179 N   0  0  0  0  0  0  0  0  0  0  0  0
    0.9691   16.3048   42.0630 N   0  0  0  0  0  0  0  0  0  0  0  0
    1.6269   20.9899   35.3756 O   0  0  0  0  0  0  0  0  0  0  0  0
    3.5064   19.7844   36.0029 O   0  0  0  0  0  0  0  0  0  0  0  0
    3.7319   18.4824   37.9933 O   0  0  0  0  0  0  0  0  0  0  0  0
    1.9673   18.1988   43.1293 S   0  0  0  0  0  0  0  0  0  0  0  0
    2.2155    9.6854   43.4604 Cl  0  0  0  0  0  0  0  0  0  0  0  0
   -0.1614   20.7170   37.1345 H   0  0  0  0  0  0  0  0  0  0  0  0
   -1.1769   19.9019   39.2271 H   0  0  0  0  0  0  0  0  0  0  0  0
    0.4438   13.7389   41.5347 H   0  0  0  0  0  0  0  0  0  0  0  0
    0.6119   11.3356   41.7328 H   0  0  0  0  0  0  0  0  0  0  0  0
    3.5307   11.8809   44.8531 H   0  0  0  0  0  0  0  0  0  0  0  0
    3.3070   14.2912   44.5958 H   0  0  0  0  0  0  0  0  0  0  0  0
    3.1995   16.3712   44.4757 H   0  0  0  0  0  0  0  0  0  0  0  0
    2.4494   17.7616   40.1261 H   0  0  0  0  0  0  0  0  0  0  0  0
   -0.9376   18.6099   41.2868 H   0  0  0  0  0  0  0  0  0  0  0  0
  1  2  1  0
  1 19  1  0
  1 20  2  0
  2  3  1  0
  2 16  2  0
  3  4  2  0
  4  5  1  0
  5 15  2  0
  5 17  1  0
  6 17  1  0
  6 18  2  0
  6 22  1  0
  7  8  1  0
  7 14  2  0
  7 18  1  0
  8  9  1  0
  8 13  2  0
  9 10  2  0
 10 11  1  0
 11 12  2  0
 11 23  1  0
 12 13  1  0
 14 22  1  0
 15 16  1  0
 16 21  1  0
  3 24  1  0
  4 25  1  0
  9 26  1  0
 10 27  1  0
 12 28  1  0
 13 29  1  0
 14 30  1  0
 15 31  1  0
 17 32  1  0
M  CHG  2  19  -1  21  -1
M  END
>  <mol_id>  (28) 
2026-08-23-6tgu-s0-n100-r5-0028

>  <rmsd_to_ref>  (28) 
1.6938775510223323

$$$$
6tgu.A
     RDKit          3D

 32 34  0  0  0  0  0  0  0  0999 V2000
    5.0854   19.7512   38.1749 C   0  0  0  0  0  0  0  0  0  0  0  0
    4.0489   19.6785   39.2996 C   0  0  0  0  0  0  0  0  0  0  0  0
    3.4362   20.8368   39.7727 C   0  0  0  0  0  0  0  0  0  0  0  0
    2.3550   20.7952   40.6591 C   0  0  0  0  0  0  0  0  0  0  0  0
    1.9654   19.5786   41.2379 C   0  0  0  0  0  0  0  0  0  0  0  0
   -0.0093   18.4697   42.3929 C   0  0  0  0  0  0  0  0  0  0  0  0
   -0.7683   16.3254   42.4359 C   0  0  0  0  0  0  0  0  0  0  0  0
   -0.6922   14.8852   42.1890 C   0  0  0  0  0  0  0  0  0  0  0  0
   -1.7704   14.0281   42.4514 C   0  0  0  0  0  0  0  0  0  0  0  0
   -1.6882   12.6663   42.1776 C   0  0  0  0  0  0  0  0  0  0  0  0
   -0.5339   12.1750   41.5975 C   0  0  0  0  0  0  0  0  0  0  0  0
    0.5538   12.9878   41.3162 C   0  0  0  0  0  0  0  0  0  0  0  0
    0.4564   14.3455   41.6079 C   0  0  0  0  0  0  0  0  0  0  0  0
   -1.8688   16.9567   42.9523 C   0  0  0  0  0  0  0  0  0  0  0  0
    2.5642   18.4024   40.7647 C   0  0  0  0  0  0  0  0  0  0  0  0
    3.5887   18.4744   39.8190 C   0  0  0  0  0  0  0  0  0  0  0  0
    0.8240   19.5090   42.0944 N   0  0  0  0  0  0  0  0  0  0  0  0
    0.2828   17.1756   42.0179 N   0  0  0  0  0  0  0  0  0  0  0  0
    5.2207   20.8727   37.6029 O   0  0  0  0  0  0  0  0  0  0  0  0
    5.6544   18.6836   37.8585 O   0  0  0  0  0  0  0  0  0  0  0  0
    4.0958   17.3133   39.2856 O   0  0  0  0  0  0  0  0  0  0  0  0
   -1.6684   18.6675   42.9237 S   0  0  0  0  0  0  0  0  0  0  0  0
   -0.4326   10.4886   41.2133 Cl  0  0  0  0  0  0  0  0  0  0  0  0
    3.8145   21.8143   39.4390 H   0  0  0  0  0  0  0  0  0  0  0  0
    1.8091   21.7186   40.9026 H   0  0  0  0  0  0  0  0  0  0  0  0
   -2.6961   14.4388   42.8806 H   0  0  0  0  0  0  0  0  0  0  0  0
   -2.5252   11.9943   42.4180 H   0  0  0  0  0  0  0  0  0  0  0  0
    1.4703   12.5703   40.8737 H   0  0  0  0  0  0  0  0  0  0  0  0
    1.3035   15.0077   41.3754 H   0  0  0  0  0  0  0  0  0  0  0  0
   -2.7617   16.4401   43.3343 H   0  0  0  0  0  0  0  0  0  0  0  0
    2.2273   17.4241   41.1382 H   0  0  0  0  0  0  0  0  0  0  0  0
    0.5900   20.3937   42.5672 H   0  0  0  0  0  0  0  0  0  0  0  0
  1  2  1  0
  1 19  1  0
  1 20  2  0
  2  3  1  0
  2 16  2  0
  3  4  2  0
  4  5  1  0
  5 15  2  0
  5 17  1  0
  6 17  1  0
  6 18  2  0
  6 22  1  0
  7  8  1  0
  7 14  2  0
  7 18  1  0
  8  9  1  0
  8 13  2  0
  9 10  2  0
 10 11  1  0
 11 12  2  0
 11 23  1  0
 12 13  1  0
 14 22  1  0
 15 16  1  0
 16 21  1  0
  3 24  1  0
  4 25  1  0
  9 26  1  0
 10 27  1  0
 12 28  1  0
 13 29  1  0
 14 30  1  0
 15 31  1  0
 17 32  1  0
M  CHG  2  19  -1  21  -1
M  END
>  <mol_id>  (29) 
2026-08-23-6tgu-s0-n100-r5-0029

>  <rmsd_to_ref>  (29) 
1.7397959183776963

$$$$
6tgu.A
     RDKit          3D

 32 34  0  0  0  0  0  0  0  0999 V2000
    3.6251   19.6114   37.4138 C   0  0  0  0  0  0  0  0  0  0  0  0
    3.0481   19.4093   38.7384 C   0  0  0  0  0  0  0  0  0  0  0  0
    2.5416   18.1785   39.0835 C   0  0  0  0  0  0  0  0  0  0  0  0
    2.0034   18.0226   40.3445 C   0  0  0  0  0  0  0  0  0  0  0  0
    1.9530   19.0524   41.2731 C   0  0  0  0  0  0  0  0  0  0  0  0
    0.8592   17.6691   43.0074 C   0  0  0  0  0  0  0  0  0  0  0  0
    0.1044   15.5669   43.3129 C   0  0  0  0  0  0  0  0  0  0  0  0
   -0.0923   14.2142   42.7679 C   0  0  0  0  0  0  0  0  0  0  0  0
   -0.6847   13.2234   43.5193 C   0  0  0  0  0  0  0  0  0  0  0  0
   -0.8673   11.9440   42.9948 C   0  0  0  0  0  0  0  0  0  0  0  0
   -0.4543   11.6491   41.7056 C   0  0  0  0  0  0  0  0  0  0  0  0
    0.1377   12.6319   40.9489 C   0  0  0  0  0  0  0  0  0  0  0  0
    0.3016   13.8709   41.4901 C   0  0  0  0  0  0  0  0  0  0  0  0
   -0.2968   15.8931   44.5961 C   0  0  0  0  0  0  0  0  0  0  0  0
    2.4794   20.2616   40.8598 C   0  0  0  0  0  0  0  0  0  0  0  0
    3.0266   20.4659   39.6135 C   0  0  0  0  0  0  0  0  0  0  0  0
    1.4095   18.9144   42.5613 N   0  0  0  0  0  0  0  0  0  0  0  0
    0.6565   16.5481   42.6573 N   0  0  0  0  0  0  0  0  0  0  0  0
    3.6730   18.5769   36.4881 O   0  0  0  0  0  0  0  0  0  0  0  0
    4.0843   20.7695   37.1335 O   0  0  0  0  0  0  0  0  0  0  0  0
    3.5368   21.7137   39.2719 O   0  0  0  0  0  0  0  0  0  0  0  0
    0.1736   17.6827   44.7779 S   0  0  0  0  0  0  0  0  0  0  0  0
   -0.6597   10.0686   41.0060 Cl  0  0  0  0  0  0  0  0  0  0  0  0
    2.5656   17.3463   38.3761 H   0  0  0  0  0  0  0  0  0  0  0  0
    1.6155   17.0467   40.5830 H   0  0  0  0  0  0  0  0  0  0  0  0
   -1.0243   13.4083   44.5347 H   0  0  0  0  0  0  0  0  0  0  0  0
   -1.3308   11.1905   43.5997 H   0  0  0  0  0  0  0  0  0  0  0  0
    0.4772   12.4464   39.9331 H   0  0  0  0  0  0  0  0  0  0  0  0
    0.7728   14.6629   40.8953 H   0  0  0  0  0  0  0  0  0  0  0  0
   -0.7724   15.3425   45.3896 H   0  0  0  0  0  0  0  0  0  0  0  0
    2.4688   21.1004   41.5381 H   0  0  0  0  0  0  0  0  0  0  0  0
    1.4280   19.7710   43.1788 H   0  0  0  0  0  0  0  0  0  0  0  0
  1  2  1  0
  1 19  1  0
  1 20  2  0
  2  3  1  0
  2 16  2  0
  3  4  2  0
  4  5  1  0
  5 15  2  0
  5 17  1  0
  6 17  1  0
  6 18  2  0
  6 22  1  0
  7  8  1  0
  7 14  2  0
  7 18  1  0
  8  9  1  0
  8 13  2  0
  9 10  2  0
 10 11  1  0
 11 12  2  0
 11 23  1  0
 12 13  1  0
 14 22  1  0
 15 16  1  0
 16 21  1  0
  3 24  1  0
  4 25  1  0
  9 26  1  0
 10 27  1  0
 12 28  1  0
 13 29  1  0
 14 30  1  0
 15 31  1  0
 17 32  1  0
M  CHG  2  19  -1  21  -1
M  END
>  <mol_id>  (30) 
2026-08-23-6tgu-s0-n100-r5-0030

>  <rmsd_to_ref>  (30) 
1.7857142857144295

$$$$
6tgu.A
     RDKit          3D

 32 34  0  0  0  0  0  0  0  0999 V2000
    5.7035   19.2120   37.4552 C   0  0  0  0  0  0  0  0  0  0  0  0
    4.5587   19.3866   38.4570 C   0  0  0  0  0  0  0  0  0  0  0  0
    3.7845   20.5447   38.4516 C   0  0  0  0  0  0  0  0  0  0  0  0
    2.6194   20.6620   39.2165 C   0  0  0  0  0  0  0  0  0  0  0  0
    2.2895   19.6718   40.1533 C   0  0  0  0  0  0  0  0  0  0  0  0
    0.3166   18.7666   41.4769 C   0  0  0  0  0  0  0  0  0  0  0  0
   -0.2257   16.6822   42.2094 C   0  0  0  0  0  0  0  0  0  0  0  0
    0.0205   15.2665   42.4859 C   0  0  0  0  0  0  0  0  0  0  0  0
   -0.9901   14.4136   42.9521 C   0  0  0  0  0  0  0  0  0  0  0  0
   -0.7427   13.0629   43.1765 C   0  0  0  0  0  0  0  0  0  0  0  0
    0.5129   12.5618   42.8888 C   0  0  0  0  0  0  0  0  0  0  0  0
    1.5394   13.3683   42.4209 C   0  0  0  0  0  0  0  0  0  0  0  0
    1.2753   14.7194   42.2136 C   0  0  0  0  0  0  0  0  0  0  0  0
   -1.4348   17.2993   42.3928 C   0  0  0  0  0  0  0  0  0  0  0  0
    3.0518   18.4950   40.1639 C   0  0  0  0  0  0  0  0  0  0  0  0
    4.1645   18.3786   39.3288 C   0  0  0  0  0  0  0  0  0  0  0  0
    1.0711   19.7449   40.8958 N   0  0  0  0  0  0  0  0  0  0  0  0
    0.7763   17.4725   41.5983 N   0  0  0  0  0  0  0  0  0  0  0  0
    5.7907   20.0823   36.5397 O   0  0  0  0  0  0  0  0  0  0  0  0
    6.4078   18.1854   37.5724 O   0  0  0  0  0  0  0  0  0  0  0  0
    4.8414   17.1835   39.2713 O   0  0  0  0  0  0  0  0  0  0  0  0
   -1.4032   18.9107   41.7845 S   0  0  0  0  0  0  0  0  0  0  0  0
    0.8239   10.8738   43.1244 Cl  0  0  0  0  0  0  0  0  0  0  0  0
    4.0992   21.3933   37.8263 H   0  0  0  0  0  0  0  0  0  0  0  0
    1.9605   21.5326   39.0831 H   0  0  0  0  0  0  0  0  0  0  0  0
   -1.9946   14.8188   43.1435 H   0  0  0  0  0  0  0  0  0  0  0  0
   -1.5307   12.4069   43.5751 H   0  0  0  0  0  0  0  0  0  0  0  0
    2.5369   12.9512   42.2188 H   0  0  0  0  0  0  0  0  0  0  0  0
    2.0733   15.3702   41.8265 H   0  0  0  0  0  0  0  0  0  0  0  0
   -2.3094   16.8286   42.8656 H   0  0  0  0  0  0  0  0  0  0  0  0
    2.7736   17.6646   40.8295 H   0  0  0  0  0  0  0  0  0  0  0  0
    0.6984   20.6979   41.0126 H   0  0  0  0  0  0  0  0  0  0  0  0
  1  2  1  0
  1 19  1  0
  1 20  2  0
  2  3  1  0
  2 16  2  0
  3  4  2  0
  4  5  1  0
  5 15  2  0
  5 17  1  0
  6 17  1  0
  6 18  2  0
  6 22  1  0
  7  8  1  0
  7 14  2  0
  7 18  1  0
  8  9  1  0
  8 13  2  0
  9 10  2  0
 10 11  1  0
 11 12  2  0
 11 23  1  0
 12 13  1  0
 14 22  1  0
 15 16  1  0
 16 21  1  0
  3 24  1  0
  4 25  1  0
  9 26  1  0
 10 27  1  0
 12 28  1  0
 13 29  1  0
 14 30  1  0
 15 31  1  0
 17 32  1  0
M  CHG  2  19  -1  21  -1
M  END
>  <mol_id>  (31) 
2026-08-23-6tgu-s0-n100-r5-0031

>  <rmsd_to_ref>  (31) 
1.8316326530703677

$$$$
6tgu.A
     RDKit          3D

 32 34  0  0  0  0  0  0  0  0999 V2000
    1.9249   19.7653   36.6008 C   0  0  0  0  0  0  0  0  0  0  0  0
    1.4298   19.5982   37.9569 C   0  0  0  0  0  0  0  0  0  0  0  0
    0.4045   20.3871   38.4420 C   0  0  0  0  0  0  0  0  0  0  0  0
   -0.0191   20.1780   39.7355 C   0  0  0  0  0  0  0  0  0  0  0  0
    0.5513   19.2047   40.5576 C   0  0  0  0  0  0  0  0  0  0  0  0
    0.7373   17.9858   42.6819 C   0  0  0  0  0  0  0  0  0  0  0  0
    1.3293   16.0704   43.7038 C   0  0  0  0  0  0  0  0  0  0  0  0
    1.0447   14.6210   43.8793 C   0  0  0  0  0  0  0  0  0  0  0  0
    1.8152   13.8502   44.7242 C   0  0  0  0  0  0  0  0  0  0  0  0
    1.5971   12.5051   44.9227 C   0  0  0  0  0  0  0  0  0  0  0  0
    0.5627   11.8874   44.2512 C   0  0  0  0  0  0  0  0  0  0  0  0
   -0.2174   12.6397   43.4037 C   0  0  0  0  0  0  0  0  0  0  0  0
    0.0191   13.9855   43.2200 C   0  0  0  0  0  0  0  0  0  0  0  0
    2.3258   16.6943   44.3380 C   0  0  0  0  0  0  0  0  0  0  0  0
    1.5853   18.4309   40.0241 C   0  0  0  0  0  0  0  0  0  0  0  0
    2.0339   18.6175   38.7254 C   0  0  0  0  0  0  0  0  0  0  0  0
    0.1070   18.9966   41.8860 N   0  0  0  0  0  0  0  0  0  0  0  0
    0.6160   16.8361   42.9079 N   0  0  0  0  0  0  0  0  0  0  0  0
    1.3900   20.7262   35.7323 O   0  0  0  0  0  0  0  0  0  0  0  0
    2.8595   19.0273   36.1938 O   0  0  0  0  0  0  0  0  0  0  0  0
    3.0537   17.8163   38.2770 O   0  0  0  0  0  0  0  0  0  0  0  0
    2.2044   18.4126   43.7543 S   0  0  0  0  0  0  0  0  0  0  0  0
    0.2257   10.1853   44.4528 Cl  0  0  0  0  0  0  0  0  0  0  0  0
   -0.0522   21.1431   37.8307 H   0  0  0  0  0  0  0  0  0  0  0  0
   -0.8308   20.8059   40.1121 H   0  0  0  0  0  0  0  0  0  0  0  0
    2.6197   14.3373   45.2448 H   0  0  0  0  0  0  0  0  0  0  0  0
    2.2396   11.9519   45.6027 H   0  0  0  0  0  0  0  0  0  0  0  0
   -1.0570   12.2150   42.8373 H   0  0  0  0  0  0  0  0  0  0  0  0
   -0.5868   14.6048   42.5520 H   0  0  0  0  0  0  0  0  0  0  0  0
    3.1048   16.3673   45.0640 H   0  0  0  0  0  0  0  0  0  0  0  0
    2.0237   17.6736   40.6755 H   0  0  0  0  0  0  0  0  0  0  0  0
   -0.6689   19.5906   42.2413 H   0  0  0  0  0  0  0  0  0  0  0  0
  1  2  1  0
  1 19  1  0
  1 20  2  0
  2  3  1  0
  2 16  2  0
  3  4  2  0
  4  5  1  0
  5 15  2  0
  5 17  1  0
  6 17  1  0
  6 18  2  0
  6 22  1  0
  7  8  1  0
  7 14  2  0
  7 18  1  0
  8  9  1  0
  8 13  2  0
  9 10  2  0
 10 11  1  0
 11 12  2  0
 11 23  1  0
 12 13  1  0
 14 22  1  0
 15 16  1  0
 16 21  1  0
  3 24  1  0
  4 25  1  0
  9 26  1  0
 10 27  1  0
 12 28  1  0
 13 29  1  0
 14 30  1  0
 15 31  1  0
 17 32  1  0
M  CHG  2  19  -1  21  -1
M  END
>  <mol_id>  (32) 
2026-08-23-6tgu-s0-n100-r5-0032

>  <rmsd_to_ref>  (32) 
1.877551020411803

$$$$
6tgu.A
     RDKit          3D

 32 34  0  0  0  0  0  0  0  0999 V2000
    4.2923   20.8324   38.8027 C   0  0  0  0  0  0  0  0  0  0  0  0
    3.8043   20.1635   40.0908 C   0  0  0  0  0  0  0  0  0  0  0  0
    3.5576   20.9227   41.2325 C   0  0  0  0  0  0  0  0  0  0  0  0
    2.9348   20.3826   42.3624 C   0  0  0  0  0  0  0  0  0  0  0  0
    2.6964   19.0029   42.4431 C   0  0  0  0  0  0  0  0  0  0  0  0
    1.2662   17.3023   43.6783 C   0  0  0  0  0  0  0  0  0  0  0  0
    0.3810   15.2966   43.0706 C   0  0  0  0  0  0  0  0  0  0  0  0
    0.2053   14.1313   42.2032 C   0  0  0  0  0  0  0  0  0  0  0  0
   -0.7513   13.1420   42.4722 C   0  0  0  0  0  0  0  0  0  0  0  0
   -0.9247   12.0592   41.6158 C   0  0  0  0  0  0  0  0  0  0  0  0
   -0.1637   11.9963   40.4637 C   0  0  0  0  0  0  0  0  0  0  0  0
    0.7893   12.9556   40.1560 C   0  0  0  0  0  0  0  0  0  0  0  0
    0.9559   14.0253   41.0312 C   0  0  0  0  0  0  0  0  0  0  0  0
   -0.3433   15.5178   44.2120 C   0  0  0  0  0  0  0  0  0  0  0  0
    2.9288   18.2263   41.2990 C   0  0  0  0  0  0  0  0  0  0  0  0
    3.4788   18.8140   40.1584 C   0  0  0  0  0  0  0  0  0  0  0  0
    2.0040   18.4450   43.5614 N   0  0  0  0  0  0  0  0  0  0  0  0
    1.2486   16.3459   42.6854 N   0  0  0  0  0  0  0  0  0  0  0  0
    4.2933   22.0985   38.7891 O   0  0  0  0  0  0  0  0  0  0  0  0
    4.5725   20.0799   37.8441 O   0  0  0  0  0  0  0  0  0  0  0  0
    3.6049   18.0682   39.0105 O   0  0  0  0  0  0  0  0  0  0  0  0
   -0.0022   17.0743   44.8668 S   0  0  0  0  0  0  0  0  0  0  0  0
   -0.3973   10.6754   39.3673 Cl  0  0  0  0  0  0  0  0  0  0  0  0
    3.8621   21.9796   41.2457 H   0  0  0  0  0  0  0  0  0  0  0  0
    2.6314   21.0413   43.1894 H   0  0  0  0  0  0  0  0  0  0  0  0
   -1.3746   13.2232   43.3749 H   0  0  0  0  0  0  0  0  0  0  0  0
   -1.6529   11.2690   41.8509 H   0  0  0  0  0  0  0  0  0  0  0  0
    1.3982   12.8733   39.2436 H   0  0  0  0  0  0  0  0  0  0  0  0
    1.6954   14.8043   40.7939 H   0  0  0  0  0  0  0  0  0  0  0  0
   -1.0487   14.7975   44.6519 H   0  0  0  0  0  0  0  0  0  0  0  0
    2.6780   17.1552   41.3002 H   0  0  0  0  0  0  0  0  0  0  0  0
    2.0734   18.9992   44.4268 H   0  0  0  0  0  0  0  0  0  0  0  0
  1  2  1  0
  1 19  1  0
  1 20  2  0
  2  3  1  0
  2 16  2  0
  3  4  2  0
  4  5  1  0
  5 15  2  0
  5 17  1  0
  6 17  1  0
  6 18  2  0
  6 22  1  0
  7  8  1  0
  7 14  2  0
  7 18  1  0
  8  9  1  0
  8 13  2  0
  9 10  2  0
 10 11  1  0
 11 12  2  0
 11 23  1  0
 12 13  1  0
 14 22  1  0
 15 16  1  0
 16 21  1  0
  3 24  1  0
  4 25  1  0
  9 26  1  0
 10 27  1  0
 12 28  1  0
 13 29  1  0
 14 30  1  0
 15 31  1  0
 17 32  1  0
M  CHG  2  19  -1  21  -1
M  END
>  <mol_id>  (33) 
2026-08-23-6tgu-s0-n100-r5-0033

>  <rmsd_to_ref>  (33) 
1.9234693877605917

$$$$
6tgu.A
     RDKit          3D

 32 34  0  0  0  0  0  0  0  0999 V2000
    3.2231   21.5443   38.1902 C   0  0  0  0  0  0  0  0  0  0  0  0
    2.4689   20.3191   38.4425 C   0  0  0  0  0  0  0  0  0  0  0  0
    1.3072   20.5001   39.2268 C   0  0  0  0  0  0  0  0  0  0  0  0
    0.4962   19.4298   39.5289 C   0  0  0  0  0  0  0  0  0  0  0  0
    0.8997   18.1949   39.0176 C   0  0  0  0  0  0  0  0  0  0  0  0
    0.3670   16.5556   40.7058 C   0  0  0  0  0  0  0  0  0  0  0  0
    0.8345   15.2476   42.4834 C   0  0  0  0  0  0  0  0  0  0  0  0
    1.0152   13.8770   43.0000 C   0  0  0  0  0  0  0  0  0  0  0  0
    1.3694   13.7363   44.3536 C   0  0  0  0  0  0  0  0  0  0  0  0
    1.5296   12.3983   44.7306 C   0  0  0  0  0  0  0  0  0  0  0  0
    1.3840   11.3308   43.9690 C   0  0  0  0  0  0  0  0  0  0  0  0
    1.0293   11.4623   42.6175 C   0  0  0  0  0  0  0  0  0  0  0  0
    0.8560   12.7636   42.1814 C   0  0  0  0  0  0  0  0  0  0  0  0
    0.9778   16.3750   43.3009 C   0  0  0  0  0  0  0  0  0  0  0  0
    2.0175   18.0166   38.2612 C   0  0  0  0  0  0  0  0  0  0  0  0
    2.8301   19.0837   37.9570 C   0  0  0  0  0  0  0  0  0  0  0  0
    0.0459   17.0936   39.3995 N   0  0  0  0  0  0  0  0  0  0  0  0
    0.5338   15.5424   41.2462 N   0  0  0  0  0  0  0  0  0  0  0  0
    4.3570   21.5317   37.3633 O   0  0  0  0  0  0  0  0  0  0  0  0
    2.9180   22.6611   38.6801 O   0  0  0  0  0  0  0  0  0  0  0  0
    3.9679   18.9955   37.2083 O   0  0  0  0  0  0  0  0  0  0  0  0
    0.6424   17.7926   42.1191 S   0  0  0  0  0  0  0  0  0  0  0  0
    1.6157    9.7153   44.5759 Cl  0  0  0  0  0  0  0  0  0  0  0  0
    1.0330   21.4778   39.5971 H   0  0  0  0  0  0  0  0  0  0  0  0
   -0.4092   19.5311   40.1312 H   0  0  0  0  0  0  0  0  0  0  0  0
    1.5032   14.5587   45.0094 H   0  0  0  0  0  0  0  0  0  0  0  0
    1.8080   12.2790   45.7877 H   0  0  0  0  0  0  0  0  0  0  0  0
    0.9017   10.6107   41.9760 H   0  0  0  0  0  0  0  0  0  0  0  0
    0.5772   12.9424   41.1510 H   0  0  0  0  0  0  0  0  0  0  0  0
    1.1974   16.5217   44.2914 H   0  0  0  0  0  0  0  0  0  0  0  0
    2.3066   17.0584   37.8773 H   0  0  0  0  0  0  0  0  0  0  0  0
   -0.7140   16.7327   38.8200 H   0  0  0  0  0  0  0  0  0  0  0  0
  1  2  1  0
  1 19  1  0
  1 20  2  0
  2  3  1  0
  2 16  2  0
  3  4  2  0
  4  5  1  0
  5 15  2  0
  5 17  1  0
  6 17  1  0
  6 18  2  0
  6 22  1  0
  7  8  1  0
  7 14  2  0
  7 18  1  0
  8  9  1  0
  8 13  2  0
  9 10  2  0
 10 11  1  0
 11 12  2  0
 11 23  1  0
 12 13  1  0
 14 22  1  0
 15 16  1  0
 16 21  1  0
  3 24  1  0
  4 25  1  0
  9 26  1  0
 10 27  1  0
 12 28  1  0
 13 29  1  0
 14 30  1  0
 15 31  1  0
 17 32  1  0
M  CHG  2  19  -1  21  -1
M  END
>  <mol_id>  (34) 
2026-08-23-6tgu-s0-n100-r5-0034

>  <rmsd_to_ref>  (34) 
1.9693877551036314

$$$$
6tgu.A
     RDKit          3D

 32 34  0  0  0  0  0  0  0  0999 V2000
    2.4628   19.9808   35.6737 C   0  0  0  0  0  0  0  0  0  0  0  0
    2.8370   19.7905   37.1462 C   0  0  0  0  0  0  0  0  0  0  0  0
    3.2529   20.8746   37.9161 C   0  0  0  0  0  0  0  0  0  0  0  0
    3.4196   20.7802   39.3016 C   0  0  0  0  0  0  0  0  0  0  0  0
    3.3402   19.5325   39.9370 C   0  0  0  0  0  0  0  0  0  0  0  0
    2.9657   18.4874   42.2240 C   0  0  0  0  0  0  0  0  0  0  0  0
    1.9939   16.5421   42.8926 C   0  0  0  0  0  0  0  0  0  0  0  0
    1.4107   15.2142   42.6983 C   0  0  0  0  0  0  0  0  0  0  0  0
    0.8329   14.4944   43.7538 C   0  0  0  0  0  0  0  0  0  0  0  0
    0.2538   13.2474   43.5402 C   0  0  0  0  0  0  0  0  0  0  0  0
    0.2174   12.7447   42.2532 C   0  0  0  0  0  0  0  0  0  0  0  0
    0.7716   13.4255   41.1796 C   0  0  0  0  0  0  0  0  0  0  0  0
    1.3566   14.6665   41.4156 C   0  0  0  0  0  0  0  0  0  0  0  0
    2.0462   17.1861   44.1005 C   0  0  0  0  0  0  0  0  0  0  0  0
    2.9122   18.4333   39.1789 C   0  0  0  0  0  0  0  0  0  0  0  0
    2.6774   18.5803   37.8105 C   0  0  0  0  0  0  0  0  0  0  0  0
    3.4444   19.4279   41.3580 N   0  0  0  0  0  0  0  0  0  0  0  0
    2.4293   17.2980   41.7786 N   0  0  0  0  0  0  0  0  0  0  0  0
    2.3924   21.1748   35.2584 O   0  0  0  0  0  0  0  0  0  0  0  0
    2.1792   18.9510   35.0233 O   0  0  0  0  0  0  0  0  0  0  0  0
    2.1588   17.5246   37.0990 O   0  0  0  0  0  0  0  0  0  0  0  0
    2.6229   18.7988   43.9148 S   0  0  0  0  0  0  0  0  0  0  0  0
   -0.5368   11.2118   41.9653 Cl  0  0  0  0  0  0  0  0  0  0  0  0
    3.4563   21.8345   37.4189 H   0  0  0  0  0  0  0  0  0  0  0  0
    3.6135   21.6865   39.8941 H   0  0  0  0  0  0  0  0  0  0  0  0
    0.8376   14.9224   44.7671 H   0  0  0  0  0  0  0  0  0  0  0  0
   -0.1668   12.6731   44.3788 H   0  0  0  0  0  0  0  0  0  0  0  0
    0.7495   12.9958   40.1672 H   0  0  0  0  0  0  0  0  0  0  0  0
    1.7857   15.2279   40.5726 H   0  0  0  0  0  0  0  0  0  0  0  0
    1.7583   16.7338   45.0610 H   0  0  0  0  0  0  0  0  0  0  0  0
    2.7616   17.4565   39.6617 H   0  0  0  0  0  0  0  0  0  0  0  0
    3.9701   20.1924   41.8053 H   0  0  0  0  0  0  0  0  0  0  0  0
  1  2  1  0
  1 19  1  0
  1 20  2  0
  2  3  1  0
  2 16  2  0
  3  4  2  0
  4  5  1  0
  5 15  2  0
  5 17  1  0
  6 17  1  0
  6 18  2  0
  6 22  1  0
  7  8  1  0
  7 14  2  0
  7 18  1  0
  8  9  1  0
  8 13  2  0
  9 10  2  0
 10 11  1  0
 11 12  2  0
 11 23  1  0
 12 13  1  0
 14 22  1  0
 15 16  1  0
 16 21  1  0
  3 24  1  0
  4 25  1  0
  9 26  1  0
 10 27  1  0
 12 28  1  0
 13 29  1  0
 14 30  1  0
 15 31  1  0
 17 32  1  0
M  CHG  2  19  -1  21  -1
M  END
>  <mol_id>  (35) 
2026-08-23-6tgu-s0-n100-r5-0035

>  <rmsd_to_ref>  (35) 
2.015306122449639

$$$$
6tgu.A
     RDKit          3D

 32 34  0  0  0  0  0  0  0  0999 V2000
    1.4007   21.2603   37.2113 C   0  0  0  0  0  0  0  0  0  0  0  0
    1.1371   20.4976   38.4373 C   0  0  0  0  0  0  0  0  0  0  0  0
   -0.1359   20.5413   39.0225 C   0  0  0  0  0  0  0  0  0  0  0  0
   -0.3692   19.8257   40.1755 C   0  0  0  0  0  0  0  0  0  0  0  0
    0.6294   19.0838   40.7388 C   0  0  0  0  0  0  0  0  0  0  0  0
    1.2755   17.3656   42.4338 C   0  0  0  0  0  0  0  0  0  0  0  0
    2.4143   15.5218   43.0410 C   0  0  0  0  0  0  0  0  0  0  0  0
    2.4450   14.0367   43.0783 C   0  0  0  0  0  0  0  0  0  0  0  0
    1.4165   13.2794   42.5611 C   0  0  0  0  0  0  0  0  0  0  0  0
    1.4107   11.8941   42.5844 C   0  0  0  0  0  0  0  0  0  0  0  0
    2.4954   11.2367   43.1575 C   0  0  0  0  0  0  0  0  0  0  0  0
    3.5072   11.9979   43.6651 C   0  0  0  0  0  0  0  0  0  0  0  0
    3.5013   13.3796   43.6359 C   0  0  0  0  0  0  0  0  0  0  0  0
    3.3893   16.2780   43.5429 C   0  0  0  0  0  0  0  0  0  0  0  0
    1.8908   19.0490   40.1465 C   0  0  0  0  0  0  0  0  0  0  0  0
    2.1646   19.7516   38.9921 C   0  0  0  0  0  0  0  0  0  0  0  0
    0.3658   18.3739   41.9382 N   0  0  0  0  0  0  0  0  0  0  0  0
    1.4028   16.2231   42.5093 N   0  0  0  0  0  0  0  0  0  0  0  0
    0.3569   22.0111   36.6509 O   0  0  0  0  0  0  0  0  0  0  0  0
    2.5496   21.2091   36.7146 O   0  0  0  0  0  0  0  0  0  0  0  0
    3.4374   19.6849   38.4409 O   0  0  0  0  0  0  0  0  0  0  0  0
    2.8900   18.0403   43.2698 S   0  0  0  0  0  0  0  0  0  0  0  0
    2.4590    9.4935   43.1731 Cl  0  0  0  0  0  0  0  0  0  0  0  0
   -0.9329   21.1435   38.5569 H   0  0  0  0  0  0  0  0  0  0  0  0
   -1.3473   19.8541   40.6328 H   0  0  0  0  0  0  0  0  0  0  0  0
    0.5534   13.7794   42.1047 H   0  0  0  0  0  0  0  0  0  0  0  0
    0.5750   11.3511   42.1631 H   0  0  0  0  0  0  0  0  0  0  0  0
    4.3488   11.4686   44.1078 H   0  0  0  0  0  0  0  0  0  0  0  0
    4.3266   13.9456   44.0501 H   0  0  0  0  0  0  0  0  0  0  0  0
    4.4026   16.0497   44.0701 H   0  0  0  0  0  0  0  0  0  0  0  0
    2.6215   18.4358   40.6645 H   0  0  0  0  0  0  0  0  0  0  0  0
   -0.4878   18.5569   42.4948 H   0  0  0  0  0  0  0  0  0  0  0  0
  1  2  1  0
  1 19  1  0
  1 20  2  0
  2  3  1  0
  2 16  2  0
  3  4  2  0
  4  5  1  0
  5 15  2  0
  5 17  1  0
  6 17  1  0
  6 18  2  0
  6 22  1  0
  7  8  1  0
  7 14  2  0
  7 18  1  0
  8  9  1  0
  8 13  2  0
  9 10  2  0
 10 11  1  0
 11 12  2  0
 11 23  1  0
 12 13  1  0
 14 22  1  0
 15 16  1  0
 16 21  1  0
  3 24  1  0
  4 25  1  0
  9 26  1  0
 10 27  1  0
 12 28  1  0
 13 29  1  0
 14 30  1  0
 15 31  1  0
 17 32  1  0
M  CHG  2  19  -1  21  -1
M  END
>  <mol_id>  (36) 
2026-08-23-6tgu-s0-n100-r5-0036

>  <rmsd_to_ref>  (36) 
2.061224489796702

$$$$
6tgu.A
     RDKit          3D

 32 34  0  0  0  0  0  0  0  0999 V2000
    4.8799   18.3212   37.3713 C   0  0  0  0  0  0  0  0  0  0  0  0
    4.2394   18.5376   38.7452 C   0  0  0  0  0  0  0  0  0  0  0  0
    4.0890   19.8229   39.2609 C   0  0  0  0  0  0  0  0  0  0  0  0
    3.3435   20.0760   40.4171 C   0  0  0  0  0  0  0  0  0  0  0  0
    2.8668   19.0107   41.1947 C   0  0  0  0  0  0  0  0  0  0  0  0
    1.1218   18.4649   42.9611 C   0  0  0  0  0  0  0  0  0  0  0  0
   -0.0764   16.5861   43.4196 C   0  0  0  0  0  0  0  0  0  0  0  0
   -0.4217   15.1693   43.2984 C   0  0  0  0  0  0  0  0  0  0  0  0
   -1.5440   14.6207   43.9352 C   0  0  0  0  0  0  0  0  0  0  0  0
   -1.8731   13.2778   43.7792 C   0  0  0  0  0  0  0  0  0  0  0  0
   -1.0953   12.4970   42.9450 C   0  0  0  0  0  0  0  0  0  0  0  0
    0.0196   13.0000   42.2916 C   0  0  0  0  0  0  0  0  0  0  0  0
    0.3390   14.3433   42.4694 C   0  0  0  0  0  0  0  0  0  0  0  0
   -0.7901   17.4872   44.1646 C   0  0  0  0  0  0  0  0  0  0  0  0
    3.0001   17.7114   40.6845 C   0  0  0  0  0  0  0  0  0  0  0  0
    3.6826   17.5011   39.4849 C   0  0  0  0  0  0  0  0  0  0  0  0
    2.0502   19.2514   42.3421 N   0  0  0  0  0  0  0  0  0  0  0  0
    0.9727   17.1318   42.6427 N   0  0  0  0  0  0  0  0  0  0  0  0
    5.1009   19.3595   36.6812 O   0  0  0  0  0  0  0  0  0  0  0  0
    5.0581   17.1377   37.0090 O   0  0  0  0  0  0  0  0  0  0  0  0
    3.7168   16.2387   38.9419 O   0  0  0  0  0  0  0  0  0  0  0  0
   -0.2070   19.0895   43.9190 S   0  0  0  0  0  0  0  0  0  0  0  0
   -1.5167   10.8332   42.7088 Cl  0  0  0  0  0  0  0  0  0  0  0  0
    4.5715   20.6649   38.7430 H   0  0  0  0  0  0  0  0  0  0  0  0
    3.1307   21.1127   40.7170 H   0  0  0  0  0  0  0  0  0  0  0  0
   -2.1744   15.2623   44.5683 H   0  0  0  0  0  0  0  0  0  0  0  0
   -2.7349   12.8462   44.3092 H   0  0  0  0  0  0  0  0  0  0  0  0
    0.6359   12.3541   41.6490 H   0  0  0  0  0  0  0  0  0  0  0  0
    1.2101   14.7630   41.9450 H   0  0  0  0  0  0  0  0  0  0  0  0
   -1.6245   17.2229   44.8310 H   0  0  0  0  0  0  0  0  0  0  0  0
    2.5675   16.8590   41.2287 H   0  0  0  0  0  0  0  0  0  0  0  0
    2.1848   20.1757   42.7760 H   0  0  0  0  0  0  0  0  0  0  0  0
  1  2  1  0
  1 19  1  0
  1 20  2  0
  2  3  1  0
  2 16  2  0
  3  4  2  0
  4  5  1  0
  5 15  2  0
  5 17  1  0
  6 17  1  0
  6 18  2  0
  6 22  1  0
  7  8  1  0
  7 14  2  0
  7 18  1  0
  8  9  1  0
  8 13  2  0
  9 10  2  0
 10 11  1  0
 11 12  2  0
 11 23  1  0
 12 13  1  0
 14 22  1  0
 15 16  1  0
 16 21  1  0
  3 24  1  0
  4 25  1  0
  9 26  1  0
 10 27  1  0
 12 28  1  0
 13 29  1  0
 14 30  1  0
 15 31  1  0
 17 32  1  0
M  CHG  2  19  -1  21  -1
M  END
>  <mol_id>  (37) 
2026-08-23-6tgu-s0-n100-r5-0037

>  <rmsd_to_ref>  (37) 
2.107142857143072

$$$$
6tgu.A
     RDKit          3D

 32 34  0  0  0  0  0  0  0  0999 V2000
    2.9536   21.9813   38.1840 C   0  0  0  0  0  0  0  0  0  0  0  0
    2.2736   20.9135   38.9093 C   0  0  0  0  0  0  0  0  0  0  0  0
    2.6993   20.5800   40.1805 C   0  0  0  0  0  0  0  0  0  0  0  0
    2.0579   19.5466   40.8425 C   0  0  0  0  0  0  0  0  0  0  0  0
    1.0203   18.8300   40.3179 C   0  0  0  0  0  0  0  0  0  0  0  0
    0.9792   16.7502   41.7160 C   0  0  0  0  0  0  0  0  0  0  0  0
    1.6097   14.7406   42.5374 C   0  0  0  0  0  0  0  0  0  0  0  0
    1.5315   13.2683   42.4523 C   0  0  0  0  0  0  0  0  0  0  0  0
    0.7627   12.6643   41.4792 C   0  0  0  0  0  0  0  0  0  0  0  0
    0.6219   11.3161   41.3118 C   0  0  0  0  0  0  0  0  0  0  0  0
    1.3072   10.5012   42.1921 C   0  0  0  0  0  0  0  0  0  0  0  0
    2.0935   11.0849   43.1872 C   0  0  0  0  0  0  0  0  0  0  0  0
    2.2098   12.4513   43.3221 C   0  0  0  0  0  0  0  0  0  0  0  0
    2.3852   15.3868   43.5161 C   0  0  0  0  0  0  0  0  0  0  0  0
    0.6029   19.1820   39.0347 C   0  0  0  0  0  0  0  0  0  0  0  0
    1.2250   20.2099   38.3425 C   0  0  0  0  0  0  0  0  0  0  0  0
    0.3717   17.7392   40.9194 N   0  0  0  0  0  0  0  0  0  0  0  0
    0.9808   15.5478   41.7312 N   0  0  0  0  0  0  0  0  0  0  0  0
    2.5403   22.2641   36.8797 O   0  0  0  0  0  0  0  0  0  0  0  0
    3.8828   22.6548   38.6628 O   0  0  0  0  0  0  0  0  0  0  0  0
    0.8145   20.5573   37.0703 O   0  0  0  0  0  0  0  0  0  0  0  0
    2.1147   17.2000   43.1536 S   0  0  0  0  0  0  0  0  0  0  0  0
    1.1645    8.7877   42.0457 Cl  0  0  0  0  0  0  0  0  0  0  0  0
    3.5085   21.0957   40.6677 H   0  0  0  0  0  0  0  0  0  0  0  0
    2.4051   19.3138   41.8234 H   0  0  0  0  0  0  0  0  0  0  0  0
    0.2268   13.3335   40.7967 H   0  0  0  0  0  0  0  0  0  0  0  0
   -0.0029   10.9549   40.5181 H   0  0  0  0  0  0  0  0  0  0  0  0
    2.6505   10.4797   43.9028 H   0  0  0  0  0  0  0  0  0  0  0  0
    2.8123   12.9423   44.0780 H   0  0  0  0  0  0  0  0  0  0  0  0
    3.0001   15.0469   44.3013 H   0  0  0  0  0  0  0  0  0  0  0  0
   -0.2285   18.6293   38.5752 H   0  0  0  0  0  0  0  0  0  0  0  0
   -0.6657   17.6554   40.7656 H   0  0  0  0  0  0  0  0  0  0  0  0
  1  2  1  0
  1 19  1  0
  1 20  2  0
  2  3  1  0
  2 16  2  0
  3  4  2  0
  4  5  1  0
  5 15  2  0
  5 17  1  0
  6 17  1  0
  6 18  2  0
  6 22  1  0
  7  8  1  0
  7 14  2  0
  7 18  1  0
  8  9  1  0
  8 13  2  0
  9 10  2  0
 10 11  1  0
 11 12  2  0
 11 23  1  0
 12 13  1  0
 14 22  1  0
 15 16  1  0
 16 21  1  0
  3 24  1  0
  4 25  1  0
  9 26  1  0
 10 27  1  0
 12 28  1  0
 13 29  1  0
 14 30  1  0
 15 31  1  0
 17 32  1  0
M  CHG  2  19  -1  21  -1
M  END
>  <mol_id>  (38) 
2026-08-23-6tgu-s0-n100-r5-0038

>  <rmsd_to_ref>  (38) 
2.1530612244930536

$$$$
6tgu.A
     RDKit          3D

 32 34  0  0  0  0  0  0  0  0999 V2000
    6.0794   19.7651   38.7091 C   0  0  0  0  0  0  0  0  0  0  0  0
    4.8380   19.5351   39.5754 C   0  0  0  0  0  0  0  0  0  0  0  0
    4.0657   20.6121   40.0047 C   0  0  0  0  0  0  0  0  0  0  0  0
    2.8283   20.4344   40.6322 C   0  0  0  0  0  0  0  0  0  0  0  0
    2.4069   19.1504   41.0070 C   0  0  0  0  0  0  0  0  0  0  0  0
    0.3114   17.8444   41.6127 C   0  0  0  0  0  0  0  0  0  0  0  0
   -0.2979   15.6739   41.3070 C   0  0  0  0  0  0  0  0  0  0  0  0
   -0.0779   14.2699   40.9587 C   0  0  0  0  0  0  0  0  0  0  0  0
   -1.1287   13.3428   40.9094 C   0  0  0  0  0  0  0  0  0  0  0  0
   -0.9024   12.0198   40.5430 C   0  0  0  0  0  0  0  0  0  0  0  0
    0.3772   11.6409   40.1831 C   0  0  0  0  0  0  0  0  0  0  0  0
    1.4442   12.5262   40.2122 C   0  0  0  0  0  0  0  0  0  0  0  0
    1.1994   13.8429   40.5925 C   0  0  0  0  0  0  0  0  0  0  0  0
   -1.5209   16.2006   41.6285 C   0  0  0  0  0  0  0  0  0  0  0  0
    3.1669   18.0548   40.5732 C   0  0  0  0  0  0  0  0  0  0  0  0
    4.3593   18.2661   39.8783 C   0  0  0  0  0  0  0  0  0  0  0  0
    1.1189   18.9450   41.5902 N   0  0  0  0  0  0  0  0  0  0  0  0
    0.7593   16.6081   41.1985 N   0  0  0  0  0  0  0  0  0  0  0  0
    6.2575   20.9423   38.2783 O   0  0  0  0  0  0  0  0  0  0  0  0
    6.7705   18.7608   38.4308 O   0  0  0  0  0  0  0  0  0  0  0  0
    5.0413   17.1873   39.3677 O   0  0  0  0  0  0  0  0  0  0  0  0
   -1.4312   17.9133   41.7912 S   0  0  0  0  0  0  0  0  0  0  0  0
    0.6665   10.0069   39.6853 Cl  0  0  0  0  0  0  0  0  0  0  0  0
    4.4405   21.6339   39.8453 H   0  0  0  0  0  0  0  0  0  0  0  0
    2.1844   21.3035   40.8321 H   0  0  0  0  0  0  0  0  0  0  0  0
   -2.1485   13.6668   41.1644 H   0  0  0  0  0  0  0  0  0  0  0  0
   -1.7254   11.2899   40.5398 H   0  0  0  0  0  0  0  0  0  0  0  0
    2.4581   12.1965   39.9417 H   0  0  0  0  0  0  0  0  0  0  0  0
    2.0312   14.5626   40.6046 H   0  0  0  0  0  0  0  0  0  0  0  0
   -2.4381   15.6088   41.7647 H   0  0  0  0  0  0  0  0  0  0  0  0
    2.8241   17.0303   40.7800 H   0  0  0  0  0  0  0  0  0  0  0  0
    0.7340   19.7673   42.0766 H   0  0  0  0  0  0  0  0  0  0  0  0
  1  2  1  0
  1 19  1  0
  1 20  2  0
  2  3  1  0
  2 16  2  0
  3  4  2  0
  4  5  1  0
  5 15  2  0
  5 17  1  0
  6 17  1  0
  6 18  2  0
  6 22  1  0
  7  8  1  0
  7 14  2  0
  7 18  1  0
  8  9  1  0
  8 13  2  0
  9 10  2  0
 10 11  1  0
 11 12  2  0
 11 23  1  0
 12 13  1  0
 14 22  1  0
 15 16  1  0
 16 21  1  0
  3 24  1  0
  4 25  1  0
  9 26  1  0
 10 27  1  0
 12 28  1  0
 13 29  1  0
 14 30  1  0
 15 31  1  0
 17 32  1  0
M  CHG  2  19  -1  21  -1
M  END
>  <mol_id>  (39) 
2026-08-23-6tgu-s0-n100-r5-0039

>  <rmsd_to_ref>  (39) 
2.1989795918457404

$$$$
6tgu.A
     RDKit          3D

 32 34  0  0  0  0  0  0  0  0999 V2000
    3.2341   20.9131   36.6516 C   0  0  0  0  0  0  0  0  0  0  0  0
    2.4508   19.8624   37.2985 C   0  0  0  0  0  0  0  0  0  0  0  0
    1.3727   19.3441   36.5949 C   0  0  0  0  0  0  0  0  0  0  0  0
    0.6011   18.3380   37.1852 C   0  0  0  0  0  0  0  0  0  0  0  0
    0.9224   17.8705   38.4658 C   0  0  0  0  0  0  0  0  0  0  0  0
    0.4648   16.3089   40.3682 C   0  0  0  0  0  0  0  0  0  0  0  0
    1.2059   15.1694   42.1592 C   0  0  0  0  0  0  0  0  0  0  0  0
    1.9913   14.0499   42.6640 C   0  0  0  0  0  0  0  0  0  0  0  0
    2.1016   13.8098   44.0220 C   0  0  0  0  0  0  0  0  0  0  0  0
    2.8319   12.7609   44.5428 C   0  0  0  0  0  0  0  0  0  0  0  0
    3.4922   11.8968   43.6911 C   0  0  0  0  0  0  0  0  0  0  0  0
    3.4066   12.1022   42.3395 C   0  0  0  0  0  0  0  0  0  0  0  0
    2.6640   13.1671   41.8368 C   0  0  0  0  0  0  0  0  0  0  0  0
    0.5338   16.0373   42.9939 C   0  0  0  0  0  0  0  0  0  0  0  0
    2.0014   18.3881   39.1708 C   0  0  0  0  0  0  0  0  0  0  0  0
    2.7703   19.3951   38.5754 C   0  0  0  0  0  0  0  0  0  0  0  0
    0.1376   16.8507   39.0685 N   0  0  0  0  0  0  0  0  0  0  0  0
    1.0493   15.4702   40.8839 N   0  0  0  0  0  0  0  0  0  0  0  0
    4.3231   21.4651   37.3186 O   0  0  0  0  0  0  0  0  0  0  0  0
    2.9625   21.3460   35.5028 O   0  0  0  0  0  0  0  0  0  0  0  0
    3.8719   19.9448   39.2581 O   0  0  0  0  0  0  0  0  0  0  0  0
   -0.2938   17.2501   41.8776 S   0  0  0  0  0  0  0  0  0  0  0  0
    4.4340   10.5506   44.2922 Cl  0  0  0  0  0  0  0  0  0  0  0  0
    1.1005   19.6855   35.6040 H   0  0  0  0  0  0  0  0  0  0  0  0
   -0.2573   17.9098   36.6501 H   0  0  0  0  0  0  0  0  0  0  0  0
    1.6058   14.4543   44.7189 H   0  0  0  0  0  0  0  0  0  0  0  0
    2.8812   12.6230   45.6220 H   0  0  0  0  0  0  0  0  0  0  0  0
    3.8986   11.4641   41.6283 H   0  0  0  0  0  0  0  0  0  0  0  0
    2.6136   13.3052   40.7635 H   0  0  0  0  0  0  0  0  0  0  0  0
    0.4353   16.0952   44.1188 H   0  0  0  0  0  0  0  0  0  0  0  0
    2.2559   18.0349   40.1568 H   0  0  0  0  0  0  0  0  0  0  0  0
   -0.7004   16.4849   38.5530 H   0  0  0  0  0  0  0  0  0  0  0  0
  1  2  1  0
  1 19  1  0
  1 20  2  0
  2  3  1  0
  2 16  2  0
  3  4  2  0
  4  5  1  0
  5 15  2  0
  5 17  1  0
  6 17  1  0
  6 18  2  0
  6 22  1  0
  7  8  1  0
  7 14  2  0
  7 18  1  0
  8  9  1  0
  8 13  2  0
  9 10  2  0
 10 11  1  0
 11 12  2  0
 11 23  1  0
 12 13  1  0
 14 22  1  0
 15 16  1  0
 16 21  1  0
  3 24  1  0
  4 25  1  0
  9 26  1  0
 10 27  1  0
 12 28  1  0
 13 29  1  0
 14 30  1  0
 15 31  1  0
 17 32  1  0
M  CHG  2  19  -1  21  -1
M  END
>  <mol_id>  (40) 
2026-08-23-6tgu-s0-n100-r5-0040

>  <rmsd_to_ref>  (40) 
2.244897959186838

$$$$
6tgu.A
     RDKit          3D

 32 34  0  0  0  0  0  0  0  0999 V2000
    0.0846   19.8775   36.2556 C   0  0  0  0  0  0  0  0  0  0  0  0
    0.6182   19.6743   37.6764 C   0  0  0  0  0  0  0  0  0  0  0  0
    0.2955   20.5753   38.6887 C   0  0  0  0  0  0  0  0  0  0  0  0
    0.6026   20.3253   40.0302 C   0  0  0  0  0  0  0  0  0  0  0  0
    1.4074   19.2300   40.3760 C   0  0  0  0  0  0  0  0  0  0  0  0
    2.0005   17.7453   42.3526 C   0  0  0  0  0  0  0  0  0  0  0  0
    2.5864   15.5531   42.5165 C   0  0  0  0  0  0  0  0  0  0  0  0
    2.9906   14.2450   42.0003 C   0  0  0  0  0  0  0  0  0  0  0  0
    3.1125   13.1229   42.8323 C   0  0  0  0  0  0  0  0  0  0  0  0
    3.4656   11.8805   42.3150 C   0  0  0  0  0  0  0  0  0  0  0  0
    3.6531   11.7590   40.9510 C   0  0  0  0  0  0  0  0  0  0  0  0
    3.5372   12.8409   40.0913 C   0  0  0  0  0  0  0  0  0  0  0  0
    3.1943   14.0781   40.6296 C   0  0  0  0  0  0  0  0  0  0  0  0
    2.3124   15.8048   43.8348 C   0  0  0  0  0  0  0  0  0  0  0  0
    1.7317   18.3076   39.3709 C   0  0  0  0  0  0  0  0  0  0  0  0
    1.3405   18.5482   38.0525 C   0  0  0  0  0  0  0  0  0  0  0  0
    1.6769   18.9244   41.7453 N   0  0  0  0  0  0  0  0  0  0  0  0
    2.3284   16.6212   41.6249 N   0  0  0  0  0  0  0  0  0  0  0  0
   -0.7796   20.7901   36.1018 O   0  0  0  0  0  0  0  0  0  0  0  0
    0.4822   19.0773   35.3809 O   0  0  0  0  0  0  0  0  0  0  0  0
    1.5722   17.5888   37.0956 O   0  0  0  0  0  0  0  0  0  0  0  0
    1.6855   17.3961   44.0414 S   0  0  0  0  0  0  0  0  0  0  0  0
    4.0530   10.2094   40.2874 Cl  0  0  0  0  0  0  0  0  0  0  0  0
   -0.2168   21.5123   38.4249 H   0  0  0  0  0  0  0  0  0  0  0  0
    0.2121   20.9891   40.8156 H   0  0  0  0  0  0  0  0  0  0  0  0
    2.9259   13.2266   43.9114 H   0  0  0  0  0  0  0  0  0  0  0  0
    3.5930   11.0123   42.9783 H   0  0  0  0  0  0  0  0  0  0  0  0
    3.7118   12.7245   39.0115 H   0  0  0  0  0  0  0  0  0  0  0  0
    3.0813   14.9434   39.9598 H   0  0  0  0  0  0  0  0  0  0  0  0
    2.4715   15.0865   44.6526 H   0  0  0  0  0  0  0  0  0  0  0  0
    2.2937   17.3957   39.6209 H   0  0  0  0  0  0  0  0  0  0  0  0
    1.6167   19.7310   42.3830 H   0  0  0  0  0  0  0  0  0  0  0  0
  1  2  1  0
  1 19  1  0
  1 20  2  0
  2  3  1  0
  2 16  2  0
  3  4  2  0
  4  5  1  0
  5 15  2  0
  5 17  1  0
  6 17  1  0
  6 18  2  0
  6 22  1  0
  7  8  1  0
  7 14  2  0
  7 18  1  0
  8  9  1  0
  8 13  2  0
  9 10  2  0
 10 11  1  0
 11 12  2  0
 11 23  1  0
 12 13  1  0
 14 22  1  0
 15 16  1  0
 16 21  1  0
  3 24  1  0
  4 25  1  0
  9 26  1  0
 10 27  1  0
 12 28  1  0
 13 29  1  0
 14 30  1  0
 15 31  1  0
 17 32  1  0
M  CHG  2  19  -1  21  -1
M  END
>  <mol_id>  (41) 
2026-08-23-6tgu-s0-n100-r5-0041

>  <rmsd_to_ref>  (41) 
2.290816326530769

$$$$
6tgu.A
     RDKit          3D

 32 34  0  0  0  0  0  0  0  0999 V2000
    3.1252   22.7745   38.7838 C   0  0  0  0  0  0  0  0  0  0  0  0
    2.8058   21.3953   39.1116 C   0  0  0  0  0  0  0  0  0  0  0  0
    1.6530   21.0068   39.7562 C   0  0  0  0  0  0  0  0  0  0  0  0
    1.4119   19.6655   40.0364 C   0  0  0  0  0  0  0  0  0  0  0  0
    2.2803   18.6596   39.7015 C   0  0  0  0  0  0  0  0  0  0  0  0
    1.2979   16.6543   40.8658 C   0  0  0  0  0  0  0  0  0  0  0  0
    0.2080   15.0999   42.0883 C   0  0  0  0  0  0  0  0  0  0  0  0
   -0.0331   13.6722   42.3826 C   0  0  0  0  0  0  0  0  0  0  0  0
   -0.9256   13.3174   43.3658 C   0  0  0  0  0  0  0  0  0  0  0  0
   -1.1530   11.9826   43.6502 C   0  0  0  0  0  0  0  0  0  0  0  0
   -0.4872   10.9704   42.9516 C   0  0  0  0  0  0  0  0  0  0  0  0
    0.4075   11.3203   41.9659 C   0  0  0  0  0  0  0  0  0  0  0  0
    0.6196   12.6665   41.6980 C   0  0  0  0  0  0  0  0  0  0  0  0
   -0.4506   16.1333   42.7971 C   0  0  0  0  0  0  0  0  0  0  0  0
    3.4500   19.0757   39.0449 C   0  0  0  0  0  0  0  0  0  0  0  0
    3.6930   20.4000   38.7653 C   0  0  0  0  0  0  0  0  0  0  0  0
    2.1373   17.2993   39.9510 N   0  0  0  0  0  0  0  0  0  0  0  0
    1.0226   15.5384   41.1857 N   0  0  0  0  0  0  0  0  0  0  0  0
    2.2702   23.8346   39.1114 O   0  0  0  0  0  0  0  0  0  0  0  0
    4.2011   23.0296   38.1872 O   0  0  0  0  0  0  0  0  0  0  0  0
    4.8575   20.7494   38.1195 O   0  0  0  0  0  0  0  0  0  0  0  0
    0.1962   17.6053   42.0644 S   0  0  0  0  0  0  0  0  0  0  0  0
   -0.8108    9.2756   43.3514 Cl  0  0  0  0  0  0  0  0  0  0  0  0
    0.9601   21.7927   40.0263 H   0  0  0  0  0  0  0  0  0  0  0  0
    0.4861   19.4503   40.5287 H   0  0  0  0  0  0  0  0  0  0  0  0
   -1.4866   14.0538   43.9572 H   0  0  0  0  0  0  0  0  0  0  0  0
   -1.8479   11.7176   44.4150 H   0  0  0  0  0  0  0  0  0  0  0  0
    0.9196   10.5537   41.4285 H   0  0  0  0  0  0  0  0  0  0  0  0
    1.3238   12.9359   40.9218 H   0  0  0  0  0  0  0  0  0  0  0  0
   -1.1914   16.0348   43.6129 H   0  0  0  0  0  0  0  0  0  0  0  0
    4.2040   18.3518   38.7369 H   0  0  0  0  0  0  0  0  0  0  0  0
    2.7418   16.6383   39.3709 H   0  0  0  0  0  0  0  0  0  0  0  0
  1  2  1  0
  1 19  1  0
  1 20  2  0
  2  3  1  0
  2 16  2  0
  3  4  2  0
  4  5  1  0
  5 15  2  0
  5 17  1  0
  6 17  1  0
  6 18  2  0
  6 22  1  0
  7  8  1  0
  7 14  2  0
  7 18  1  0
  8  9  1  0
  8 13  2  0
  9 10  2  0
 10 11  1  0
 11 12  2  0
 11 23  1  0
 12 13  1  0
 14 22  1  0
 15 16  1  0
 16 21  1  0
  3 24  1  0
  4 25  1  0
  9 26  1  0
 10 27  1  0
 12 28  1  0
 13 29  1  0
 14 30  1  0
 15 31  1  0
 17 32  1  0
M  CHG  2  19  -1  21  -1
M  END
>  <mol_id>  (42) 
2026-08-23-6tgu-s0-n100-r5-0042

>  <rmsd_to_ref>  (42) 
2.3367346938794884

$$$$
6tgu.A
     RDKit          3D

 32 34  0  0  0  0  0  0  0  0999 V2000
    4.5130   19.2851   37.1681 C   0  0  0  0  0  0  0  0  0  0  0  0
    3.3249   19.3402   38.1325 C   0  0  0  0  0  0  0  0  0  0  0  0
    2.1164   19.9072   37.7342 C   0  0  0  0  0  0  0  0  0  0  0  0
    0.9580   19.8073   38.5118 C   0  0  0  0  0  0  0  0  0  0  0  0
    1.0241   19.2783   39.8089 C   0  0  0  0  0  0  0  0  0  0  0  0
   -0.4430   18.2510   41.6132 C   0  0  0  0  0  0  0  0  0  0  0  0
   -0.0538   16.6780   43.2100 C   0  0  0  0  0  0  0  0  0  0  0  0
    0.7767   15.7886   44.0228 C   0  0  0  0  0  0  0  0  0  0  0  0
    0.2202   14.8654   44.9194 C   0  0  0  0  0  0  0  0  0  0  0  0
    1.0273   14.0057   45.6579 C   0  0  0  0  0  0  0  0  0  0  0  0
    2.3946   14.0460   45.4600 C   0  0  0  0  0  0  0  0  0  0  0  0
    2.9864   14.9391   44.5795 C   0  0  0  0  0  0  0  0  0  0  0  0
    2.1627   15.7989   43.8582 C   0  0  0  0  0  0  0  0  0  0  0  0
   -1.4224   16.7054   43.2599 C   0  0  0  0  0  0  0  0  0  0  0  0
    2.2300   18.6936   40.2211 C   0  0  0  0  0  0  0  0  0  0  0  0
    3.3480   18.7409   39.3862 C   0  0  0  0  0  0  0  0  0  0  0  0
   -0.1596   19.1104   40.5911 N   0  0  0  0  0  0  0  0  0  0  0  0
    0.5368   17.4864   42.2102 N   0  0  0  0  0  0  0  0  0  0  0  0
    4.2834   19.6207   35.9691 O   0  0  0  0  0  0  0  0  0  0  0  0
    5.5899   18.8384   37.6203 O   0  0  0  0  0  0  0  0  0  0  0  0
    4.4926   18.0749   39.7550 O   0  0  0  0  0  0  0  0  0  0  0  0
   -2.0637   17.7314   42.0335 S   0  0  0  0  0  0  0  0  0  0  0  0
    3.4091   12.9534   46.3424 Cl  0  0  0  0  0  0  0  0  0  0  0  0
    2.0717   20.4502   36.7786 H   0  0  0  0  0  0  0  0  0  0  0  0
   -0.0068   20.1444   38.1050 H   0  0  0  0  0  0  0  0  0  0  0  0
   -0.8722   14.8201   45.0409 H   0  0  0  0  0  0  0  0  0  0  0  0
    0.5860   13.3078   46.3848 H   0  0  0  0  0  0  0  0  0  0  0  0
    4.0788   14.9673   44.4541 H   0  0  0  0  0  0  0  0  0  0  0  0
    2.6141   16.5020   43.1427 H   0  0  0  0  0  0  0  0  0  0  0  0
   -2.0310   16.1468   43.9862 H   0  0  0  0  0  0  0  0  0  0  0  0
    2.2952   18.1983   41.2011 H   0  0  0  0  0  0  0  0  0  0  0  0
   -0.9306   19.7461   40.3412 H   0  0  0  0  0  0  0  0  0  0  0  0
  1  2  1  0
  1 19  1  0
  1 20  2  0
  2  3  1  0
  2 16  2  0
  3  4  2  0
  4  5  1  0
  5 15  2  0
  5 17  1  0
  6 17  1  0
  6 18  2  0
  6 22  1  0
  7  8  1  0
  7 14  2  0
  7 18  1  0
  8  9  1  0
  8 13  2  0
  9 10  2  0
 10 11  1  0
 11 12  2  0
 11 23  1  0
 12 13  1  0
 14 22  1  0
 15 16  1  0
 16 21  1  0
  3 24  1  0
  4 25  1  0
  9 26  1  0
 10 27  1  0
 12 28  1  0
 13 29  1  0
 14 30  1  0
 15 31  1  0
 17 32  1  0
M  CHG  2  19  -1  21  -1
M  END
>  <mol_id>  (43) 
2026-08-23-6tgu-s0-n100-r5-0043

>  <rmsd_to_ref>  (43) 
2.3826530612247776

$$$$
6tgu.A
     RDKit          3D

 32 34  0  0  0  0  0  0  0  0999 V2000
    1.5581   22.6839   37.9073 C   0  0  0  0  0  0  0  0  0  0  0  0
    1.8336   21.4646   38.6867 C   0  0  0  0  0  0  0  0  0  0  0  0
    2.6947   21.4555   39.7633 C   0  0  0  0  0  0  0  0  0  0  0  0
    2.9047   20.2791   40.4456 C   0  0  0  0  0  0  0  0  0  0  0  0
    2.2711   19.0811   40.0845 C   0  0  0  0  0  0  0  0  0  0  0  0
    1.7149   16.8415   41.0845 C   0  0  0  0  0  0  0  0  0  0  0  0
    0.8319   14.8919   41.7568 C   0  0  0  0  0  0  0  0  0  0  0  0
    0.9957   13.5982   42.4383 C   0  0  0  0  0  0  0  0  0  0  0  0
   -0.0839   12.7231   42.5292 C   0  0  0  0  0  0  0  0  0  0  0  0
    0.0589   11.4877   43.1749 C   0  0  0  0  0  0  0  0  0  0  0  0
    1.2721   11.1132   43.7342 C   0  0  0  0  0  0  0  0  0  0  0  0
    2.3443   11.9795   43.6457 C   0  0  0  0  0  0  0  0  0  0  0  0
    2.1692   13.1878   43.0030 C   0  0  0  0  0  0  0  0  0  0  0  0
   -0.3919   15.2700   41.1816 C   0  0  0  0  0  0  0  0  0  0  0  0
    1.4193   19.1199   39.0078 C   0  0  0  0  0  0  0  0  0  0  0  0
    1.1928   20.3096   38.2994 C   0  0  0  0  0  0  0  0  0  0  0  0
    2.5800   17.9507   40.8515 N   0  0  0  0  0  0  0  0  0  0  0  0
    1.7588   15.8052   41.6057 N   0  0  0  0  0  0  0  0  0  0  0  0
    2.1878   23.8776   38.2664 O   0  0  0  0  0  0  0  0  0  0  0  0
    0.7680   22.5921   36.9541 O   0  0  0  0  0  0  0  0  0  0  0  0
    0.3134   20.2500   37.2226 O   0  0  0  0  0  0  0  0  0  0  0  0
   -0.0596   16.8852   40.4972 S   0  0  0  0  0  0  0  0  0  0  0  0
    1.4264    9.5516   44.5425 Cl  0  0  0  0  0  0  0  0  0  0  0  0
    3.1719   22.3936   40.0235 H   0  0  0  0  0  0  0  0  0  0  0  0
    3.5954   20.2940   41.3025 H   0  0  0  0  0  0  0  0  0  0  0  0
   -1.0581   12.9553   42.1134 H   0  0  0  0  0  0  0  0  0  0  0  0
   -0.8221   10.8368   43.2200 H   0  0  0  0  0  0  0  0  0  0  0  0
    3.3089   11.7169   44.0732 H   0  0  0  0  0  0  0  0  0  0  0  0
    3.0451   13.8477   42.9544 H   0  0  0  0  0  0  0  0  0  0  0  0
   -1.3269   14.7272   41.1493 H   0  0  0  0  0  0  0  0  0  0  0  0
    0.9154   18.2309   38.6769 H   0  0  0  0  0  0  0  0  0  0  0  0
    3.5162   17.8856   41.3041 H   0  0  0  0  0  0  0  0  0  0  0  0
  1  2  1  0
  1 19  1  0
  1 20  2  0
  2  3  1  0
  2 16  2  0
  3  4  2  0
  4  5  1  0
  5 15  2  0
  5 17  1  0
  6 17  1  0
  6 18  2  0
  6 22  1  0
  7  8  1  0
  7 14  2  0
  7 18  1  0
  8  9  1  0
  8 13  2  0
  9 10  2  0
 10 11  1  0
 11 12  2  0
 11 23  1  0
 12 13  1  0
 14 22  1  0
 15 16  1  0
 16 21  1  0
  3 24  1  0
  4 25  1  0
  9 26  1  0
 10 27  1  0
 12 28  1  0
 13 29  1  0
 14 30  1  0
 15 31  1  0
 17 32  1  0
M  CHG  2  19  -1  21  -1
M  END
>  <mol_id>  (44) 
2026-08-23-6tgu-s0-n100-r5-0044

>  <rmsd_to_ref>  (44) 
2.428571428572873

$$$$
6tgu.A
     RDKit          3D

 32 34  0  0  0  0  0  0  0  0999 V2000
    1.3620   21.6069   37.5429 C   0  0  0  0  0  0  0  0  0  0  0  0
    1.7695   20.7775   38.7638 C   0  0  0  0  0  0  0  0  0  0  0  0
    2.4409   21.3715   39.8302 C   0  0  0  0  0  0  0  0  0  0  0  0
    2.6606   20.6980   41.0363 C   0  0  0  0  0  0  0  0  0  0  0  0
    2.3617   19.3322   41.1446 C   0  0  0  0  0  0  0  0  0  0  0  0
    1.9067   17.5288   42.8780 C   0  0  0  0  0  0  0  0  0  0  0  0
    0.5942   15.6707   42.8654 C   0  0  0  0  0  0  0  0  0  0  0  0
   -0.2591   14.6523   42.2523 C   0  0  0  0  0  0  0  0  0  0  0  0
   -0.9135   13.6739   43.0141 C   0  0  0  0  0  0  0  0  0  0  0  0
   -1.7473   12.7354   42.4141 C   0  0  0  0  0  0  0  0  0  0  0  0
   -1.9568   12.8105   41.0500 C   0  0  0  0  0  0  0  0  0  0  0  0
   -1.3345   13.7650   40.2596 C   0  0  0  0  0  0  0  0  0  0  0  0
   -0.4950   14.6881   40.8770 C   0  0  0  0  0  0  0  0  0  0  0  0
    0.8441   15.7521   44.2098 C   0  0  0  0  0  0  0  0  0  0  0  0
    1.6759   18.7219   40.0847 C   0  0  0  0  0  0  0  0  0  0  0  0
    1.4015   19.4470   38.9237 C   0  0  0  0  0  0  0  0  0  0  0  0
    2.5200   18.6456   42.3875 N   0  0  0  0  0  0  0  0  0  0  0  0
    1.1137   16.7290   42.0829 N   0  0  0  0  0  0  0  0  0  0  0  0
    1.5157   22.8603   37.6345 O   0  0  0  0  0  0  0  0  0  0  0  0
    0.8376   20.9914   36.5890 O   0  0  0  0  0  0  0  0  0  0  0  0
    0.6387   18.8720   37.9351 O   0  0  0  0  0  0  0  0  0  0  0  0
    1.7287   17.1815   44.5871 S   0  0  0  0  0  0  0  0  0  0  0  0
   -3.0246   11.6741   40.2949 Cl  0  0  0  0  0  0  0  0  0  0  0  0
    2.8096   22.4020   39.7204 H   0  0  0  0  0  0  0  0  0  0  0  0
    3.0688   21.2409   41.9016 H   0  0  0  0  0  0  0  0  0  0  0  0
   -0.7652   13.6478   44.1038 H   0  0  0  0  0  0  0  0  0  0  0  0
   -2.2301   11.9495   43.0134 H   0  0  0  0  0  0  0  0  0  0  0  0
   -1.5001   13.7922   39.1725 H   0  0  0  0  0  0  0  0  0  0  0  0
   -0.0067   15.4628   40.2676 H   0  0  0  0  0  0  0  0  0  0  0  0
    0.5227   15.0045   44.9499 H   0  0  0  0  0  0  0  0  0  0  0  0
    1.3546   17.6731   40.1679 H   0  0  0  0  0  0  0  0  0  0  0  0
    3.2154   19.0645   43.0215 H   0  0  0  0  0  0  0  0  0  0  0  0
  1  2  1  0
  1 19  1  0
  1 20  2  0
  2  3  1  0
  2 16  2  0
  3  4  2  0
  4  5  1  0
  5 15  2  0
  5 17  1  0
  6 17  1  0
  6 18  2  0
  6 22  1  0
  7  8  1  0
  7 14  2  0
  7 18  1  0
  8  9  1  0
  8 13  2  0
  9 10  2  0
 10 11  1  0
 11 12  2  0
 11 23  1  0
 12 13  1  0
 14 22  1  0
 15 16  1  0
 16 21  1  0
  3 24  1  0
  4 25  1  0
  9 26  1  0
 10 27  1  0
 12 28  1  0
 13 29  1  0
 14 30  1  0
 15 31  1  0
 17 32  1  0
M  CHG  2  19  -1  21  -1
M  END
>  <mol_id>  (45) 
2026-08-23-6tgu-s0-n100-r5-0045

>  <rmsd_to_ref>  (45) 
2.474489795921364

$$$$
6tgu.A
     RDKit          3D

 32 34  0  0  0  0  0  0  0  0999 V2000
    1.4337   22.4173   37.9198 C   0  0  0  0  0  0  0  0  0  0  0  0
    1.5175   21.0564   38.4402 C   0  0  0  0  0  0  0  0  0  0  0  0
    1.4554   19.9785   37.5849 C   0  0  0  0  0  0  0  0  0  0  0  0
    1.5323   18.6865   38.0420 C   0  0  0  0  0  0  0  0  0  0  0  0
    1.6786   18.3876   39.4084 C   0  0  0  0  0  0  0  0  0  0  0  0
    1.4542   16.4401   40.9981 C   0  0  0  0  0  0  0  0  0  0  0  0
    1.1527   14.9742   42.6892 C   0  0  0  0  0  0  0  0  0  0  0  0
    1.2807   13.6097   43.1755 C   0  0  0  0  0  0  0  0  0  0  0  0
    0.8836   13.2627   44.4459 C   0  0  0  0  0  0  0  0  0  0  0  0
    1.0016   11.9696   44.9122 C   0  0  0  0  0  0  0  0  0  0  0  0
    1.5319   10.9643   44.1025 C   0  0  0  0  0  0  0  0  0  0  0  0
    1.9389   11.2977   42.8143 C   0  0  0  0  0  0  0  0  0  0  0  0
    1.8036   12.5938   42.3931 C   0  0  0  0  0  0  0  0  0  0  0  0
    0.6165   16.0098   43.4839 C   0  0  0  0  0  0  0  0  0  0  0  0
    1.7390   19.4653   40.2428 C   0  0  0  0  0  0  0  0  0  0  0  0
    1.6614   20.7715   39.7849 C   0  0  0  0  0  0  0  0  0  0  0  0
    1.7659   17.0405   39.7454 N   0  0  0  0  0  0  0  0  0  0  0  0
    1.5033   15.3976   41.5010 N   0  0  0  0  0  0  0  0  0  0  0  0
    1.4951   23.4898   38.7716 O   0  0  0  0  0  0  0  0  0  0  0  0
    1.3042   22.5804   36.6643 O   0  0  0  0  0  0  0  0  0  0  0  0
    1.7242   21.8532   40.6501 O   0  0  0  0  0  0  0  0  0  0  0  0
    0.6930   17.4882   42.3826 S   0  0  0  0  0  0  0  0  0  0  0  0
    1.6954    9.3127   44.6645 Cl  0  0  0  0  0  0  0  0  0  0  0  0
    1.3424   20.1354   36.5124 H   0  0  0  0  0  0  0  0  0  0  0  0
    1.4759   17.8735   37.3050 H   0  0  0  0  0  0  0  0  0  0  0  0
    0.4607   13.9823   45.1402 H   0  0  0  0  0  0  0  0  0  0  0  0
    0.6828   11.7223   45.9142 H   0  0  0  0  0  0  0  0  0  0  0  0
    2.3594   10.5692   42.1283 H   0  0  0  0  0  0  0  0  0  0  0  0
    2.1109   12.8921   41.3911 H   0  0  0  0  0  0  0  0  0  0  0  0
    0.2228   16.0232   44.5199 H   0  0  0  0  0  0  0  0  0  0  0  0
    1.8620   19.3390   41.2991 H   0  0  0  0  0  0  0  0  0  0  0  0
    2.0992   16.3612   39.0132 H   0  0  0  0  0  0  0  0  0  0  0  0
  1  2  1  0
  1 19  1  0
  1 20  2  0
  2  3  1  0
  2 16  2  0
  3  4  2  0
  4  5  1  0
  5 15  2  0
  5 17  1  0
  6 17  1  0
  6 18  2  0
  6 22  1  0
  7  8  1  0
  7 14  2  0
  7 18  1  0
  8  9  1  0
  8 13  2  0
  9 10  2  0
 10 11  1  0
 11 12  2  0
 11 23  1  0
 12 13  1  0
 14 22  1  0
 15 16  1  0
 16 21  1  0
  3 24  1  0
  4 25  1  0
  9 26  1  0
 10 27  1  0
 12 28  1  0
 13 29  1  0
 14 30  1  0
 15 31  1  0
 17 32  1  0
M  CHG  2  19  -1  21  -1
M  END
>  <mol_id>  (46) 
2026-08-23-6tgu-s0-n100-r5-0046

>  <rmsd_to_ref>  (46) 
2.5204081632653264

$$$$
6tgu.A
     RDKit          3D

 32 34  0  0  0  0  0  0  0  0999 V2000
    6.0003   17.8892   37.1761 C   0  0  0  0  0  0  0  0  0  0  0  0
    5.2548   18.2073   38.4751 C   0  0  0  0  0  0  0  0  0  0  0  0
    5.1730   19.5177   38.9409 C   0  0  0  0  0  0  0  0  0  0  0  0
    4.3473   19.8742   40.0122 C   0  0  0  0  0  0  0  0  0  0  0  0
    3.7049   18.8817   40.7667 C   0  0  0  0  0  0  0  0  0  0  0  0
    1.7584   18.5510   42.3682 C   0  0  0  0  0  0  0  0  0  0  0  0
    0.3575   16.8009   42.7557 C   0  0  0  0  0  0  0  0  0  0  0  0
   -0.1013   15.4164   42.6376 C   0  0  0  0  0  0  0  0  0  0  0  0
   -1.3237   14.9900   43.1759 C   0  0  0  0  0  0  0  0  0  0  0  0
   -1.7565   13.6765   43.0229 C   0  0  0  0  0  0  0  0  0  0  0  0
   -0.9770   12.8028   42.2885 C   0  0  0  0  0  0  0  0  0  0  0  0
    0.2356   13.1838   41.7341 C   0  0  0  0  0  0  0  0  0  0  0  0
    0.6567   14.4994   41.9079 C   0  0  0  0  0  0  0  0  0  0  0  0
   -0.3392   17.7858   43.4045 C   0  0  0  0  0  0  0  0  0  0  0  0
    3.7681   17.5592   40.3051 C   0  0  0  0  0  0  0  0  0  0  0  0
    4.5392   17.2493   39.1834 C   0  0  0  0  0  0  0  0  0  0  0  0
    2.8085   19.2318   41.8226 N   0  0  0  0  0  0  0  0  0  0  0  0
    1.5204   17.2260   42.0708 N   0  0  0  0  0  0  0  0  0  0  0  0
    6.3785   18.8800   36.4845 O   0  0  0  0  0  0  0  0  0  0  0  0
    6.1044   16.6830   36.8631 O   0  0  0  0  0  0  0  0  0  0  0  0
    4.5105   15.9709   38.6786 O   0  0  0  0  0  0  0  0  0  0  0  0
    0.4068   19.3217   43.1761 S   0  0  0  0  0  0  0  0  0  0  0  0
   -1.5226   11.1751   42.0549 Cl  0  0  0  0  0  0  0  0  0  0  0  0
    5.7764   20.2961   38.4511 H   0  0  0  0  0  0  0  0  0  0  0  0
    4.2016   20.9351   40.2634 H   0  0  0  0  0  0  0  0  0  0  0  0
   -1.9508   15.7055   43.7282 H   0  0  0  0  0  0  0  0  0  0  0  0
   -2.7001   13.3402   43.4774 H   0  0  0  0  0  0  0  0  0  0  0  0
    0.8492   12.4650   41.1712 H   0  0  0  0  0  0  0  0  0  0  0  0
    1.6079   14.8232   41.4602 H   0  0  0  0  0  0  0  0  0  0  0  0
   -1.2534   17.6183   43.9930 H   0  0  0  0  0  0  0  0  0  0  0  0
    3.2107   16.7669   40.8262 H   0  0  0  0  0  0  0  0  0  0  0  0
    2.9843   20.1551   42.2439 H   0  0  0  0  0  0  0  0  0  0  0  0
  1  2  1  0
  1 19  1  0
  1 20  2  0
  2  3  1  0
  2 16  2  0
  3  4  2  0
  4  5  1  0
  5 15  2  0
  5 17  1  0
  6 17  1  0
  6 18  2  0
  6 22  1  0
  7  8  1  0
  7 14  2  0
  7 18  1  0
  8  9  1  0
  8 13  2  0
  9 10  2  0
 10 11  1  0
 11 12  2  0
 11 23  1  0
 12 13  1  0
 14 22  1  0
 15 16  1  0
 16 21  1  0
  3 24  1  0
  4 25  1  0
  9 26  1  0
 10 27  1  0
 12 28  1  0
 13 29  1  0
 14 30  1  0
 15 31  1  0
 17 32  1  0
M  CHG  2  19  -1  21  -1
M  END
>  <mol_id>  (47) 
2026-08-23-6tgu-s0-n100-r5-0047

>  <rmsd_to_ref>  (47) 
2.5663265306184155

$$$$
6tgu.A
     RDKit          3D

 32 34  0  0  0  0  0  0  0  0999 V2000
    4.0279   21.1983   40.4178 C   0  0  0  0  0  0  0  0  0  0  0  0
    2.9184   20.2793   40.2119 C   0  0  0  0  0  0  0  0  0  0  0  0
    2.8547   19.1092   40.9375 C   0  0  0  0  0  0  0  0  0  0  0  0
    1.7961   18.2211   40.7393 C   0  0  0  0  0  0  0  0  0  0  0  0
    0.8138   18.5289   39.8072 C   0  0  0  0  0  0  0  0  0  0  0  0
   -0.5055   16.5286   40.4422 C   0  0  0  0  0  0  0  0  0  0  0  0
   -0.7170   14.6515   41.6523 C   0  0  0  0  0  0  0  0  0  0  0  0
   -0.2539   13.2582   41.8849 C   0  0  0  0  0  0  0  0  0  0  0  0
   -0.8019   12.4852   42.8819 C   0  0  0  0  0  0  0  0  0  0  0  0
   -0.4333   11.2003   43.1719 C   0  0  0  0  0  0  0  0  0  0  0  0
    0.5740   10.6499   42.3898 C   0  0  0  0  0  0  0  0  0  0  0  0
    1.1478   11.3898   41.3830 C   0  0  0  0  0  0  0  0  0  0  0  0
    0.7440   12.6906   41.1220 C   0  0  0  0  0  0  0  0  0  0  0  0
   -1.6868   15.2122   42.4285 C   0  0  0  0  0  0  0  0  0  0  0  0
    0.9001   19.7266   39.0796 C   0  0  0  0  0  0  0  0  0  0  0  0
    1.9379   20.6053   39.2695 C   0  0  0  0  0  0  0  0  0  0  0  0
   -0.2756   17.6473   39.5870 N   0  0  0  0  0  0  0  0  0  0  0  0
   -0.2482   15.4522   40.7188 N   0  0  0  0  0  0  0  0  0  0  0  0
    4.1591   22.3849   39.7159 O   0  0  0  0  0  0  0  0  0  0  0  0
    4.9154   20.9142   41.2696 O   0  0  0  0  0  0  0  0  0  0  0  0
    2.0305   21.8028   38.5484 O   0  0  0  0  0  0  0  0  0  0  0  0
   -1.8713   16.9172   41.7440 S   0  0  0  0  0  0  0  0  0  0  0  0
    1.1319    9.0200   42.6602 Cl  0  0  0  0  0  0  0  0  0  0  0  0
    3.5864   18.8131   41.6750 H   0  0  0  0  0  0  0  0  0  0  0  0
    1.7650   17.2954   41.3259 H   0  0  0  0  0  0  0  0  0  0  0  0
   -1.5916   12.9178   43.4925 H   0  0  0  0  0  0  0  0  0  0  0  0
   -0.9090   10.6495   43.9720 H   0  0  0  0  0  0  0  0  0  0  0  0
    1.9427   11.0035   40.7427 H   0  0  0  0  0  0  0  0  0  0  0  0
    1.1989   13.2658   40.3294 H   0  0  0  0  0  0  0  0  0  0  0  0
   -2.2791   14.8606   43.2632 H   0  0  0  0  0  0  0  0  0  0  0  0
    0.1104   19.9304   38.3613 H   0  0  0  0  0  0  0  0  0  0  0  0
   -0.9297   17.7990   38.8019 H   0  0  0  0  0  0  0  0  0  0  0  0
  1  2  1  0
  1 19  1  0
  1 20  2  0
  2  3  1  0
  2 16  2  0
  3  4  2  0
  4  5  1  0
  5 15  2  0
  5 17  1  0
  6 17  1  0
  6 18  2  0
  6 22  1  0
  7  8  1  0
  7 14  2  0
  7 18  1  0
  8  9  1  0
  8 13  2  0
  9 10  2  0
 10 11  1  0
 11 12  2  0
 11 23  1  0
 12 13  1  0
 14 22  1  0
 15 16  1  0
 16 21  1  0
  3 24  1  0
  4 25  1  0
  9 26  1  0
 10 27  1  0
 12 28  1  0
 13 29  1  0
 14 30  1  0
 15 31  1  0
 17 32  1  0
M  CHG  2  19  -1  21  -1
M  END
>  <mol_id>  (48) 
2026-08-23-6tgu-s0-n100-r5-0048

>  <rmsd_to_ref>  (48) 
2.6122448979630577

$$$$
6tgu.A
     RDKit          3D

 32 34  0  0  0  0  0  0  0  0999 V2000
    1.3457   16.7691   35.5510 C   0  0  0  0  0  0  0  0  0  0  0  0
    1.5108   17.3452   36.9600 C   0  0  0  0  0  0  0  0  0  0  0  0
    1.4074   18.7170   37.1799 C   0  0  0  0  0  0  0  0  0  0  0  0
    1.3626   19.2607   38.4678 C   0  0  0  0  0  0  0  0  0  0  0  0
    1.5984   18.4460   39.5846 C   0  0  0  0  0  0  0  0  0  0  0  0
    1.2176   18.3587   42.0967 C   0  0  0  0  0  0  0  0  0  0  0  0
    0.8518   16.6424   43.5446 C   0  0  0  0  0  0  0  0  0  0  0  0
    0.7851   15.2375   43.9481 C   0  0  0  0  0  0  0  0  0  0  0  0
    0.3126   14.8481   45.2095 C   0  0  0  0  0  0  0  0  0  0  0  0
    0.2259   13.5044   45.5603 C   0  0  0  0  0  0  0  0  0  0  0  0
    0.5741   12.5504   44.6228 C   0  0  0  0  0  0  0  0  0  0  0  0
    1.0407   12.8910   43.3621 C   0  0  0  0  0  0  0  0  0  0  0  0
    1.1311   14.2410   43.0341 C   0  0  0  0  0  0  0  0  0  0  0  0
    0.4846   17.6885   44.3491 C   0  0  0  0  0  0  0  0  0  0  0  0
    1.6936   17.0618   39.3819 C   0  0  0  0  0  0  0  0  0  0  0  0
    1.6549   16.5436   38.0861 C   0  0  0  0  0  0  0  0  0  0  0  0
    1.4930   18.9723   40.9087 N   0  0  0  0  0  0  0  0  0  0  0  0
    1.1899   16.9853   42.2141 N   0  0  0  0  0  0  0  0  0  0  0  0
    0.9520   17.5722   34.6548 O   0  0  0  0  0  0  0  0  0  0  0  0
    1.5338   15.5403   35.4154 O   0  0  0  0  0  0  0  0  0  0  0  0
    1.6437   15.1808   37.9058 O   0  0  0  0  0  0  0  0  0  0  0  0
    0.5138   19.1752   43.4793 S   0  0  0  0  0  0  0  0  0  0  0  0
    0.4325   10.8727   45.0312 Cl  0  0  0  0  0  0  0  0  0  0  0  0
    1.3596   19.3934   36.3138 H   0  0  0  0  0  0  0  0  0  0  0  0
    1.1420   20.3296   38.6049 H   0  0  0  0  0  0  0  0  0  0  0  0
    0.0055   15.6172   45.9334 H   0  0  0  0  0  0  0  0  0  0  0  0
   -0.1131   13.2074   46.5638 H   0  0  0  0  0  0  0  0  0  0  0  0
    1.3321   12.1144   42.6397 H   0  0  0  0  0  0  0  0  0  0  0  0
    1.4830   14.5286   42.0324 H   0  0  0  0  0  0  0  0  0  0  0  0
    0.2078   17.5920   45.4094 H   0  0  0  0  0  0  0  0  0  0  0  0
    1.7985   16.3851   40.2427 H   0  0  0  0  0  0  0  0  0  0  0  0
    1.6517   19.9875   40.9789 H   0  0  0  0  0  0  0  0  0  0  0  0
  1  2  1  0
  1 19  1  0
  1 20  2  0
  2  3  1  0
  2 16  2  0
  3  4  2  0
  4  5  1  0
  5 15  2  0
  5 17  1  0
  6 17  1  0
  6 18  2  0
  6 22  1  0
  7  8  1  0
  7 14  2  0
  7 18  1  0
  8  9  1  0
  8 13  2  0
  9 10  2  0
 10 11  1  0
 11 12  2  0
 11 23  1  0
 12 13  1  0
 14 22  1  0
 15 16  1  0
 16 21  1  0
  3 24  1  0
  4 25  1  0
  9 26  1  0
 10 27  1  0
 12 28  1  0
 13 29  1  0
 14 30  1  0
 15 31  1  0
 17 32  1  0
M  CHG  2  19  -1  21  -1
M  END
>  <mol_id>  (49) 
2026-08-23-6tgu-s0-n100-r5-0049

>  <rmsd_to_ref>  (49) 
2.658163265309959

$$$$
6tgu.A
     RDKit          3D

 32 34  0  0  0  0  0  0  0  0999 V2000
    1.4408   23.0900   37.9951 C   0  0  0  0  0  0  0  0  0  0  0  0
    1.5268   21.7043   38.4322 C   0  0  0  0  0  0  0  0  0  0  0  0
    1.5634   20.6762   37.5175 C   0  0  0  0  0  0  0  0  0  0  0  0
    1.6429   19.3572   37.9057 C   0  0  0  0  0  0  0  0  0  0  0  0
    1.6907   18.9919   39.2641 C   0  0  0  0  0  0  0  0  0  0  0  0
    1.2458   17.0075   40.7683 C   0  0  0  0  0  0  0  0  0  0  0  0
    0.5723   15.7022   42.4627 C   0  0  0  0  0  0  0  0  0  0  0  0
    0.6398   14.3461   43.0604 C   0  0  0  0  0  0  0  0  0  0  0  0
   -0.0404   14.0813   44.2290 C   0  0  0  0  0  0  0  0  0  0  0  0
    0.0155   12.8302   44.7940 C   0  0  0  0  0  0  0  0  0  0  0  0
    0.7396   11.7971   44.2330 C   0  0  0  0  0  0  0  0  0  0  0  0
    1.4310   12.0618   43.0476 C   0  0  0  0  0  0  0  0  0  0  0  0
    1.3587   13.3178   42.5050 C   0  0  0  0  0  0  0  0  0  0  0  0
   -0.1115   16.7084   42.9854 C   0  0  0  0  0  0  0  0  0  0  0  0
    1.6528   20.0438   40.1487 C   0  0  0  0  0  0  0  0  0  0  0  0
    1.5728   21.3704   39.7621 C   0  0  0  0  0  0  0  0  0  0  0  0
    1.7897   17.6482   39.5546 N   0  0  0  0  0  0  0  0  0  0  0  0
    1.2016   16.0149   41.3453 N   0  0  0  0  0  0  0  0  0  0  0  0
    1.3959   23.3862   36.6431 O   0  0  0  0  0  0  0  0  0  0  0  0
    1.4080   24.0074   38.8597 O   0  0  0  0  0  0  0  0  0  0  0  0
    1.5378   22.3846   40.7107 O   0  0  0  0  0  0  0  0  0  0  0  0
    0.1489   18.0901   41.8801 S   0  0  0  0  0  0  0  0  0  0  0  0
    0.7970   10.2103   44.9715 Cl  0  0  0  0  0  0  0  0  0  0  0  0
    1.5289   20.8891   36.4395 H   0  0  0  0  0  0  0  0  0  0  0  0
    1.6690   18.5899   37.1293 H   0  0  0  0  0  0  0  0  0  0  0  0
   -0.6089   14.8670   44.6827 H   0  0  0  0  0  0  0  0  0  0  0  0
   -0.5367   12.6749   45.7117 H   0  0  0  0  0  0  0  0  0  0  0  0
    2.0135   11.2993   42.5613 H   0  0  0  0  0  0  0  0  0  0  0  0
    1.9082   13.5096   41.5717 H   0  0  0  0  0  0  0  0  0  0  0  0
   -0.7658   16.7892   43.9394 H   0  0  0  0  0  0  0  0  0  0  0  0
    1.7005   19.8618   41.2084 H   0  0  0  0  0  0  0  0  0  0  0  0
    2.2590   16.9929   38.9291 H   0  0  0  0  0  0  0  0  0  0  0  0
  1  2  1  0
  1 19  1  0
  1 20  2  0
  2  3  1  0
  2 16  2  0
  3  4  2  0
  4  5  1  0
  5 15  2  0
  5 17  1  0
  6 17  1  0
  6 18  2  0
  6 22  1  0
  7  8  1  0
  7 14  2  0
  7 18  1  0
  8  9  1  0
  8 13  2  0
  9 10  2  0
 10 11  1  0
 11 12  2  0
 11 23  1  0
 12 13  1  0
 14 22  1  0
 15 16  1  0
 16 21  1  0
  3 24  1  0
  4 25  1  0
  9 26  1  0
 10 27  1  0
 12 28  1  0
 13 29  1  0
 14 30  1  0
 15 31  1  0
 17 32  1  0
M  CHG  2  19  -1  21  -1
M  END
>  <mol_id>  (50) 
2026-08-23-6tgu-s0-n100-r5-0050

>  <rmsd_to_ref>  (50) 
2.7040816326532537

$$$$
6tgu.A
     RDKit          3D

 32 34  0  0  0  0  0  0  0  0999 V2000
    5.4707   18.1572   37.4777 C   0  0  0  0  0  0  0  0  0  0  0  0
    4.1824   18.2944   38.2938 C   0  0  0  0  0  0  0  0  0  0  0  0
    3.0322   18.8269   37.7156 C   0  0  0  0  0  0  0  0  0  0  0  0
    1.7928   18.7940   38.3631 C   0  0  0  0  0  0  0  0  0  0  0  0
    1.7072   18.3761   39.6991 C   0  0  0  0  0  0  0  0  0  0  0  0
    0.0361   17.5058   41.4058 C   0  0  0  0  0  0  0  0  0  0  0  0
    0.2269   16.0725   43.1622 C   0  0  0  0  0  0  0  0  0  0  0  0
    0.9515   15.2541   44.1350 C   0  0  0  0  0  0  0  0  0  0  0  0
    0.2882   14.4102   45.0371 C   0  0  0  0  0  0  0  0  0  0  0  0
    0.9982   13.6150   45.9313 C   0  0  0  0  0  0  0  0  0  0  0  0
    2.3795   13.6373   45.8863 C   0  0  0  0  0  0  0  0  0  0  0  0
    3.0757   14.4524   45.0066 C   0  0  0  0  0  0  0  0  0  0  0  0
    2.3472   15.2492   44.1276 C   0  0  0  0  0  0  0  0  0  0  0  0
   -1.1383   16.1053   43.0548 C   0  0  0  0  0  0  0  0  0  0  0  0
    2.8531   17.8271   40.2922 C   0  0  0  0  0  0  0  0  0  0  0  0
    4.0582   17.8029   39.5878 C   0  0  0  0  0  0  0  0  0  0  0  0
    0.4414   18.2758   40.3539 N   0  0  0  0  0  0  0  0  0  0  0  0
    0.9345   16.7933   42.1713 N   0  0  0  0  0  0  0  0  0  0  0  0
    5.3808   18.3908   36.2365 O   0  0  0  0  0  0  0  0  0  0  0  0
    6.4853   17.7492   38.0842 O   0  0  0  0  0  0  0  0  0  0  0  0
    5.1471   17.1693   40.1377 O   0  0  0  0  0  0  0  0  0  0  0  0
   -1.6269   17.0249   41.6825 S   0  0  0  0  0  0  0  0  0  0  0  0
    3.2769   12.6220   46.9658 Cl  0  0  0  0  0  0  0  0  0  0  0  0
    3.1009   19.2876   36.7191 H   0  0  0  0  0  0  0  0  0  0  0  0
    0.8834   19.0965   37.8233 H   0  0  0  0  0  0  0  0  0  0  0  0
   -0.8113   14.3762   45.0380 H   0  0  0  0  0  0  0  0  0  0  0  0
    0.4708   12.9813   46.6595 H   0  0  0  0  0  0  0  0  0  0  0  0
    4.1756   14.4691   45.0034 H   0  0  0  0  0  0  0  0  0  0  0  0
    2.8835   15.8891   43.4114 H   0  0  0  0  0  0  0  0  0  0  0  0
   -1.8304   15.6104   43.7520 H   0  0  0  0  0  0  0  0  0  0  0  0
    2.8025   17.4160   41.3112 H   0  0  0  0  0  0  0  0  0  0  0  0
   -0.2899   18.8888   39.9663 H   0  0  0  0  0  0  0  0  0  0  0  0
  1  2  1  0
  1 19  1  0
  1 20  2  0
  2  3  1  0
  2 16  2  0
  3  4  2  0
  4  5  1  0
  5 15  2  0
  5 17  1  0
  6 17  1  0
  6 18  2  0
  6 22  1  0
  7  8  1  0
  7 14  2  0
  7 18  1  0
  8  9  1  0
  8 13  2  0
  9 10  2  0
 10 11  1  0
 11 12  2  0
 11 23  1  0
 12 13  1  0
 14 22  1  0
 15 16  1  0
 16 21  1  0
  3 24  1  0
  4 25  1  0
  9 26  1  0
 10 27  1  0
 12 28  1  0
 13 29  1  0
 14 30  1  0
 15 31  1  0
 17 32  1  0
M  CHG  2  19  -1  21  -1
M  END
>  <mol_id>  (51) 
2026-08-23-6tgu-s0-n100-r5-0051

>  <rmsd_to_ref>  (51) 
2.750000000005175

$$$$
6tgu.A
     RDKit          3D

 32 34  0  0  0  0  0  0  0  0999 V2000
    4.3968   21.3072   39.5718 C   0  0  0  0  0  0  0  0  0  0  0  0
    3.4029   20.4360   40.1823 C   0  0  0  0  0  0  0  0  0  0  0  0
    2.3913   20.9663   40.9469 C   0  0  0  0  0  0  0  0  0  0  0  0
    1.4465   20.1534   41.5358 C   0  0  0  0  0  0  0  0  0  0  0  0
    1.4646   18.7649   41.3900 C   0  0  0  0  0  0  0  0  0  0  0  0
    0.5270   16.5673   42.0322 C   0  0  0  0  0  0  0  0  0  0  0  0
    0.2574   14.3327   41.5882 C   0  0  0  0  0  0  0  0  0  0  0  0
   -0.3247   13.2167   40.7946 C   0  0  0  0  0  0  0  0  0  0  0  0
   -1.1554   13.4522   39.7237 C   0  0  0  0  0  0  0  0  0  0  0  0
   -1.7030   12.3843   38.9996 C   0  0  0  0  0  0  0  0  0  0  0  0
   -1.4078   11.0875   39.3624 C   0  0  0  0  0  0  0  0  0  0  0  0
   -0.5684   10.8487   40.4435 C   0  0  0  0  0  0  0  0  0  0  0  0
   -0.0555   11.9109   41.1228 C   0  0  0  0  0  0  0  0  0  0  0  0
    1.0828   14.0537   42.6653 C   0  0  0  0  0  0  0  0  0  0  0  0
    2.4797   18.2327   40.6215 C   0  0  0  0  0  0  0  0  0  0  0  0
    3.4283   19.0615   40.0316 C   0  0  0  0  0  0  0  0  0  0  0  0
    0.4794   17.9543   42.0177 N   0  0  0  0  0  0  0  0  0  0  0  0
    0.0186   15.5777   41.3223 N   0  0  0  0  0  0  0  0  0  0  0  0
    4.3044   22.6852   39.7696 O   0  0  0  0  0  0  0  0  0  0  0  0
    5.3486   20.8889   38.8673 O   0  0  0  0  0  0  0  0  0  0  0  0
    4.4570   18.5207   39.2523 O   0  0  0  0  0  0  0  0  0  0  0  0
    1.5046   15.7407   43.2888 S   0  0  0  0  0  0  0  0  0  0  0  0
   -2.0395    9.6863   38.5312 Cl  0  0  0  0  0  0  0  0  0  0  0  0
    2.3121   22.0161   41.1046 H   0  0  0  0  0  0  0  0  0  0  0  0
    0.6573   20.5995   42.1363 H   0  0  0  0  0  0  0  0  0  0  0  0
   -1.4008   14.4604   39.4216 H   0  0  0  0  0  0  0  0  0  0  0  0
   -2.3505   12.5245   38.1638 H   0  0  0  0  0  0  0  0  0  0  0  0
   -0.3129    9.8451   40.7590 H   0  0  0  0  0  0  0  0  0  0  0  0
    0.6059   11.6763   41.9717 H   0  0  0  0  0  0  0  0  0  0  0  0
    1.4556   13.1340   43.1175 H   0  0  0  0  0  0  0  0  0  0  0  0
    2.5339   17.1496   40.4774 H   0  0  0  0  0  0  0  0  0  0  0  0
   -0.3314   18.4307   42.4963 H   0  0  0  0  0  0  0  0  0  0  0  0
  1  2  1  0
  1 19  1  0
  1 20  2  0
  2  3  1  0
  2 16  2  0
  3  4  2  0
  4  5  1  0
  5 15  2  0
  5 17  1  0
  6 17  1  0
  6 18  2  0
  6 22  1  0
  7  8  1  0
  7 14  2  0
  7 18  1  0
  8  9  1  0
  8 13  2  0
  9 10  2  0
 10 11  1  0
 11 12  2  0
 11 23  1  0
 12 13  1  0
 14 22  1  0
 15 16  1  0
 16 21  1  0
  3 24  1  0
  4 25  1  0
  9 26  1  0
 10 27  1  0
 12 28  1  0
 13 29  1  0
 14 30  1  0
 15 31  1  0
 17 32  1  0
M  CHG  2  19  -1  21  -1
M  END
>  <mol_id>  (52) 
2026-08-23-6tgu-s0-n100-r5-0052

>  <rmsd_to_ref>  (52) 
2.795918367347747

$$$$
6tgu.A
     RDKit          3D

 32 34  0  0  0  0  0  0  0  0999 V2000
    4.7467   18.9387   39.0224 C   0  0  0  0  0  0  0  0  0  0  0  0
    3.2627   18.7797   39.3646 C   0  0  0  0  0  0  0  0  0  0  0  0
    2.2825   19.2860   38.5140 C   0  0  0  0  0  0  0  0  0  0  0  0
    0.9253   18.9982   38.6915 C   0  0  0  0  0  0  0  0  0  0  0  0
    0.4927   18.3275   39.8446 C   0  0  0  0  0  0  0  0  0  0  0  0
   -1.4648   16.9751   40.7405 C   0  0  0  0  0  0  0  0  0  0  0  0
   -1.6051   15.2632   42.2323 C   0  0  0  0  0  0  0  0  0  0  0  0
   -1.1003   14.3573   43.2646 C   0  0  0  0  0  0  0  0  0  0  0  0
   -1.8664   13.2914   43.7574 C   0  0  0  0  0  0  0  0  0  0  0  0
   -1.3542   12.4215   44.7150 C   0  0  0  0  0  0  0  0  0  0  0  0
   -0.0525   12.5997   45.1442 C   0  0  0  0  0  0  0  0  0  0  0  0
    0.7420   13.6369   44.6793 C   0  0  0  0  0  0  0  0  0  0  0  0
    0.2075   14.5034   43.7297 C   0  0  0  0  0  0  0  0  0  0  0  0
   -2.8528   15.1694   41.6747 C   0  0  0  0  0  0  0  0  0  0  0  0
    1.4668   17.8018   40.7054 C   0  0  0  0  0  0  0  0  0  0  0  0
    2.8192   18.0410   40.4551 C   0  0  0  0  0  0  0  0  0  0  0  0
   -0.8806   17.9698   40.0103 N   0  0  0  0  0  0  0  0  0  0  0  0
   -0.7495   16.2306   41.6542 N   0  0  0  0  0  0  0  0  0  0  0  0
    5.0156   19.3928   37.8715 O   0  0  0  0  0  0  0  0  0  0  0  0
    5.5707   18.5339   39.8715 O   0  0  0  0  0  0  0  0  0  0  0  0
    3.7677   17.4348   41.2442 O   0  0  0  0  0  0  0  0  0  0  0  0
   -3.0277   16.2752   40.3653 S   0  0  0  0  0  0  0  0  0  0  0  0
    0.6126   11.5000   46.3060 Cl  0  0  0  0  0  0  0  0  0  0  0  0
    2.5853   19.9322   37.6769 H   0  0  0  0  0  0  0  0  0  0  0  0
    0.1957   19.2986   37.9250 H   0  0  0  0  0  0  0  0  0  0  0  0
   -2.8888   13.1403   43.3808 H   0  0  0  0  0  0  0  0  0  0  0  0
   -1.9729   11.6083   45.1223 H   0  0  0  0  0  0  0  0  0  0  0  0
    1.7684   13.7715   45.0512 H   0  0  0  0  0  0  0  0  0  0  0  0
    0.8297   15.3213   43.3374 H   0  0  0  0  0  0  0  0  0  0  0  0
   -3.6384   14.4799   42.0174 H   0  0  0  0  0  0  0  0  0  0  0  0
    1.1657   17.2017   41.5767 H   0  0  0  0  0  0  0  0  0  0  0  0
   -1.5425   18.5633   39.4904 H   0  0  0  0  0  0  0  0  0  0  0  0
  1  2  1  0
  1 19  1  0
  1 20  2  0
  2  3  1  0
  2 16  2  0
  3  4  2  0
  4  5  1  0
  5 15  2  0
  5 17  1  0
  6 17  1  0
  6 18  2  0
  6 22  1  0
  7  8  1  0
  7 14  2  0
  7 18  1  0
  8  9  1  0
  8 13  2  0
  9 10  2  0
 10 11  1  0
 11 12  2  0
 11 23  1  0
 12 13  1  0
 14 22  1  0
 15 16  1  0
 16 21  1  0
  3 24  1  0
  4 25  1  0
  9 26  1  0
 10 27  1  0
 12 28  1  0
 13 29  1  0
 14 30  1  0
 15 31  1  0
 17 32  1  0
M  CHG  2  19  -1  21  -1
M  END
>  <mol_id>  (53) 
2026-08-23-6tgu-s0-n100-r5-0053

>  <rmsd_to_ref>  (53) 
2.8418367346975684

$$$$
6tgu.A
     RDKit          3D

 32 34  0  0  0  0  0  0  0  0999 V2000
    0.1946   21.5881   37.3460 C   0  0  0  0  0  0  0  0  0  0  0  0
    0.3205   20.6734   38.4897 C   0  0  0  0  0  0  0  0  0  0  0  0
    0.1960   21.2010   39.7753 C   0  0  0  0  0  0  0  0  0  0  0  0
    0.3108   20.3568   40.8849 C   0  0  0  0  0  0  0  0  0  0  0  0
    0.5472   19.0068   40.6806 C   0  0  0  0  0  0  0  0  0  0  0  0
    0.9259   16.7431   41.6695 C   0  0  0  0  0  0  0  0  0  0  0  0
    1.7919   14.6698   41.4904 C   0  0  0  0  0  0  0  0  0  0  0  0
    3.0420   13.8646   41.4679 C   0  0  0  0  0  0  0  0  0  0  0  0
    4.2835   14.4244   41.5910 C   0  0  0  0  0  0  0  0  0  0  0  0
    5.4060   13.6080   41.5629 C   0  0  0  0  0  0  0  0  0  0  0  0
    5.3377   12.2572   41.4171 C   0  0  0  0  0  0  0  0  0  0  0  0
    4.0920   11.6800   41.2921 C   0  0  0  0  0  0  0  0  0  0  0  0
    2.9777   12.4930   41.3201 C   0  0  0  0  0  0  0  0  0  0  0  0
    0.5825   14.1371   41.3731 C   0  0  0  0  0  0  0  0  0  0  0  0
    0.6752   18.4568   39.4156 C   0  0  0  0  0  0  0  0  0  0  0  0
    0.5565   19.3198   38.3264 C   0  0  0  0  0  0  0  0  0  0  0  0
    0.6650   18.1287   41.8028 N   0  0  0  0  0  0  0  0  0  0  0  0
    1.7771   15.9767   41.6296 N   0  0  0  0  0  0  0  0  0  0  0  0
    0.3271   21.0262   36.0713 O   0  0  0  0  0  0  0  0  0  0  0  0
   -0.0225   22.8207   37.5175 O   0  0  0  0  0  0  0  0  0  0  0  0
    0.6768   18.8186   37.0284 O   0  0  0  0  0  0  0  0  0  0  0  0
   -0.5885   15.5706   41.4683 S   0  0  0  0  0  0  0  0  0  0  0  0
    6.7745   11.2788   41.3881 Cl  0  0  0  0  0  0  0  0  0  0  0  0
    0.0092   22.2685   39.9356 H   0  0  0  0  0  0  0  0  0  0  0  0
    0.2111   20.7845   41.8793 H   0  0  0  0  0  0  0  0  0  0  0  0
    4.3475   15.4878   41.7063 H   0  0  0  0  0  0  0  0  0  0  0  0
    6.3547   14.0994   41.6635 H   0  0  0  0  0  0  0  0  0  0  0  0
    3.9882   10.6109   41.1743 H   0  0  0  0  0  0  0  0  0  0  0  0
    2.0217   11.9952   41.2187 H   0  0  0  0  0  0  0  0  0  0  0  0
    0.1735   13.0867   41.2406 H   0  0  0  0  0  0  0  0  0  0  0  0
    0.8603   17.4018   39.2775 H   0  0  0  0  0  0  0  0  0  0  0  0
    0.5553   18.5127   42.7825 H   0  0  0  0  0  0  0  0  0  0  0  0
  1  2  1  0
  1 19  1  0
  1 20  2  0
  2  3  1  0
  2 16  2  0
  3  4  2  0
  4  5  1  0
  5 15  2  0
  5 17  1  0
  6 17  1  0
  6 18  2  0
  6 22  1  0
  7  8  1  0
  7 14  2  0
  7 18  1  0
  8  9  1  0
  8 13  2  0
  9 10  2  0
 10 11  1  0
 11 12  2  0
 11 23  1  0
 12 13  1  0
 14 22  1  0
 15 16  1  0
 16 21  1  0
  3 24  1  0
  4 25  1  0
  9 26  1  0
 10 27  1  0
 12 28  1  0
 13 29  1  0
 14 30  1  0
 15 31  1  0
 17 32  1  0
M  CHG  2  19  -1  21  -1
M  END
>  <mol_id>  (54) 
2026-08-23-6tgu-s0-n100-r5-0054

>  <rmsd_to_ref>  (54) 
2.8877551020430725

$$$$
6tgu.A
     RDKit          3D

 32 34  0  0  0  0  0  0  0  0999 V2000
    5.6790   18.0495   38.3467 C   0  0  0  0  0  0  0  0  0  0  0  0
    4.4769   18.3677   39.2402 C   0  0  0  0  0  0  0  0  0  0  0  0
    4.1134   19.6885   39.4929 C   0  0  0  0  0  0  0  0  0  0  0  0
    2.9192   20.0182   40.1423 C   0  0  0  0  0  0  0  0  0  0  0  0
    2.1298   19.0121   40.7180 C   0  0  0  0  0  0  0  0  0  0  0  0
   -0.2381   18.5629   41.5271 C   0  0  0  0  0  0  0  0  0  0  0  0
   -1.5247   16.6873   41.5729 C   0  0  0  0  0  0  0  0  0  0  0  0
   -1.7840   15.2522   41.4531 C   0  0  0  0  0  0  0  0  0  0  0  0
   -3.0772   14.7195   41.5538 C   0  0  0  0  0  0  0  0  0  0  0  0
   -3.3055   13.3553   41.4032 C   0  0  0  0  0  0  0  0  0  0  0  0
   -2.2352   12.5325   41.1069 C   0  0  0  0  0  0  0  0  0  0  0  0
   -0.9412   13.0178   40.9929 C   0  0  0  0  0  0  0  0  0  0  0  0
   -0.7315   14.3842   41.1582 C   0  0  0  0  0  0  0  0  0  0  0  0
   -2.4962   17.6240   41.8076 C   0  0  0  0  0  0  0  0  0  0  0  0
    2.4756   17.6772   40.4638 C   0  0  0  0  0  0  0  0  0  0  0  0
    3.6343   17.3833   39.7426 C   0  0  0  0  0  0  0  0  0  0  0  0
    0.8766   19.3257   41.3281 N   0  0  0  0  0  0  0  0  0  0  0  0
   -0.2316   17.2006   41.3152 N   0  0  0  0  0  0  0  0  0  0  0  0
    6.2011   19.0263   37.7332 O   0  0  0  0  0  0  0  0  0  0  0  0
    5.9969   16.8456   38.2316 O   0  0  0  0  0  0  0  0  0  0  0  0
    3.9075   16.0777   39.4100 O   0  0  0  0  0  0  0  0  0  0  0  0
   -1.8551   19.2190   41.6945 S   0  0  0  0  0  0  0  0  0  0  0  0
   -2.5104   10.8376   40.8762 Cl  0  0  0  0  0  0  0  0  0  0  0  0
    4.7863   20.4973   39.1718 H   0  0  0  0  0  0  0  0  0  0  0  0
    2.5986   21.0688   40.2015 H   0  0  0  0  0  0  0  0  0  0  0  0
   -3.9248   15.3911   41.7551 H   0  0  0  0  0  0  0  0  0  0  0  0
   -4.3176   12.9399   41.5177 H   0  0  0  0  0  0  0  0  0  0  0  0
   -0.1017   12.3405   40.7772 H   0  0  0  0  0  0  0  0  0  0  0  0
    0.2861   14.7886   41.0541 H   0  0  0  0  0  0  0  0  0  0  0  0
   -3.5459   17.3891   42.0377 H   0  0  0  0  0  0  0  0  0  0  0  0
    1.8346   16.8626   40.8321 H   0  0  0  0  0  0  0  0  0  0  0  0
    0.8012   20.2917   41.6773 H   0  0  0  0  0  0  0  0  0  0  0  0
  1  2  1  0
  1 19  1  0
  1 20  2  0
  2  3  1  0
  2 16  2  0
  3  4  2  0
  4  5  1  0
  5 15  2  0
  5 17  1  0
  6 17  1  0
  6 18  2  0
  6 22  1  0
  7  8  1  0
  7 14  2  0
  7 18  1  0
  8  9  1  0
  8 13  2  0
  9 10  2  0
 10 11  1  0
 11 12  2  0
 11 23  1  0
 12 13  1  0
 14 22  1  0
 15 16  1  0
 16 21  1  0
  3 24  1  0
  4 25  1  0
  9 26  1  0
 10 27  1  0
 12 28  1  0
 13 29  1  0
 14 30  1  0
 15 31  1  0
 17 32  1  0
M  CHG  2  19  -1  21  -1
M  END
>  <mol_id>  (55) 
2026-08-23-6tgu-s0-n100-r5-0055

>  <rmsd_to_ref>  (55) 
2.9336734693889652

$$$$
6tgu.A
     RDKit          3D

 32 34  0  0  0  0  0  0  0  0999 V2000
    3.7397   23.0163   40.7362 C   0  0  0  0  0  0  0  0  0  0  0  0
    3.3436   21.6325   40.5199 C   0  0  0  0  0  0  0  0  0  0  0  0
    2.7259   21.2492   39.3509 C   0  0  0  0  0  0  0  0  0  0  0  0
    2.3401   19.9469   39.1229 C   0  0  0  0  0  0  0  0  0  0  0  0
    2.5586   18.9371   40.0786 C   0  0  0  0  0  0  0  0  0  0  0  0
    1.7062   16.6452   40.7260 C   0  0  0  0  0  0  0  0  0  0  0  0
    0.9824   14.8700   41.8894 C   0  0  0  0  0  0  0  0  0  0  0  0
    0.6214   13.4326   41.8244 C   0  0  0  0  0  0  0  0  0  0  0  0
    0.1979   12.7836   42.9637 C   0  0  0  0  0  0  0  0  0  0  0  0
   -0.1376   11.4522   42.9174 C   0  0  0  0  0  0  0  0  0  0  0  0
   -0.0692   10.7123   41.7538 C   0  0  0  0  0  0  0  0  0  0  0  0
    0.3599   11.3670   40.5959 C   0  0  0  0  0  0  0  0  0  0  0  0
    0.6884   12.6951   40.6693 C   0  0  0  0  0  0  0  0  0  0  0  0
    0.9290   15.5975   42.9945 C   0  0  0  0  0  0  0  0  0  0  0  0
    3.1778   19.3556   41.2327 C   0  0  0  0  0  0  0  0  0  0  0  0
    3.5667   20.6635   41.4651 C   0  0  0  0  0  0  0  0  0  0  0  0
    2.1559   17.6599   39.7526 N   0  0  0  0  0  0  0  0  0  0  0  0
    1.3936   15.5447   40.8319 N   0  0  0  0  0  0  0  0  0  0  0  0
    3.4964   23.9654   39.7576 O   0  0  0  0  0  0  0  0  0  0  0  0
    4.3024   23.3334   41.8193 O   0  0  0  0  0  0  0  0  0  0  0  0
    4.1882   21.0175   42.6560 O   0  0  0  0  0  0  0  0  0  0  0  0
    1.4652   17.2353   42.5164 S   0  0  0  0  0  0  0  0  0  0  0  0
   -0.5012    9.0155   41.7188 Cl  0  0  0  0  0  0  0  0  0  0  0  0
    2.5234   21.9866   38.5609 H   0  0  0  0  0  0  0  0  0  0  0  0
    1.8553   19.7094   38.1738 H   0  0  0  0  0  0  0  0  0  0  0  0
    0.1370   13.3369   43.8783 H   0  0  0  0  0  0  0  0  0  0  0  0
   -0.4639   10.9902   43.8401 H   0  0  0  0  0  0  0  0  0  0  0  0
    0.4349   10.8461   39.6578 H   0  0  0  0  0  0  0  0  0  0  0  0
    1.0239   13.1957   39.7491 H   0  0  0  0  0  0  0  0  0  0  0  0
    0.6203   15.3361   44.0813 H   0  0  0  0  0  0  0  0  0  0  0  0
    3.4003   18.6498   42.0141 H   0  0  0  0  0  0  0  0  0  0  0  0
    2.1427   17.3267   38.7884 H   0  0  0  0  0  0  0  0  0  0  0  0
  1  2  1  0
  1 19  1  0
  1 20  2  0
  2  3  1  0
  2 16  2  0
  3  4  2  0
  4  5  1  0
  5 15  2  0
  5 17  1  0
  6 17  1  0
  6 18  2  0
  6 22  1  0
  7  8  1  0
  7 14  2  0
  7 18  1  0
  8  9  1  0
  8 13  2  0
  9 10  2  0
 10 11  1  0
 11 12  2  0
 11 23  1  0
 12 13  1  0
 14 22  1  0
 15 16  1  0
 16 21  1  0
  3 24  1  0
  4 25  1  0
  9 26  1  0
 10 27  1  0
 12 28  1  0
 13 29  1  0
 14 30  1  0
 15 31  1  0
 17 32  1  0
M  CHG  2  19  -1  21  -1
M  END
>  <mol_id>  (56) 
2026-08-23-6tgu-s0-n100-r5-0056

>  <rmsd_to_ref>  (56) 
2.9795918367352554

$$$$
6tgu.A
     RDKit          3D

 32 34  0  0  0  0  0  0  0  0999 V2000
   -0.5768   21.4689   38.7616 C   0  0  0  0  0  0  0  0  0  0  0  0
   -0.1548   20.5390   39.9026 C   0  0  0  0  0  0  0  0  0  0  0  0
   -0.5252   20.8181   41.2162 C   0  0  0  0  0  0  0  0  0  0  0  0
   -0.3245   19.9023   42.2542 C   0  0  0  0  0  0  0  0  0  0  0  0
    0.4214   18.7360   42.0298 C   0  0  0  0  0  0  0  0  0  0  0  0
    0.8256   16.4191   42.9952 C   0  0  0  0  0  0  0  0  0  0  0  0
    1.3355   14.4168   42.0431 C   0  0  0  0  0  0  0  0  0  0  0  0
    1.7392   13.5307   40.9509 C   0  0  0  0  0  0  0  0  0  0  0  0
    1.7679   12.1365   41.0967 C   0  0  0  0  0  0  0  0  0  0  0  0
    2.1226   11.3106   40.0347 C   0  0  0  0  0  0  0  0  0  0  0  0
    2.4061   11.8882   38.8114 C   0  0  0  0  0  0  0  0  0  0  0  0
    2.3843   13.2617   38.6215 C   0  0  0  0  0  0  0  0  0  0  0  0
    2.0381   14.0718   39.6994 C   0  0  0  0  0  0  0  0  0  0  0  0
    0.9728   13.9796   43.2896 C   0  0  0  0  0  0  0  0  0  0  0  0
    0.7923   18.4348   40.7115 C   0  0  0  0  0  0  0  0  0  0  0  0
    0.5058   19.3359   39.6844 C   0  0  0  0  0  0  0  0  0  0  0  0
    0.5810   17.7606   43.0614 N   0  0  0  0  0  0  0  0  0  0  0  0
    1.1740   15.8034   41.8119 N   0  0  0  0  0  0  0  0  0  0  0  0
   -1.4011   22.3843   39.0544 O   0  0  0  0  0  0  0  0  0  0  0  0
   -0.1389   21.2018   37.6212 O   0  0  0  0  0  0  0  0  0  0  0  0
    0.7797   18.9842   38.3840 O   0  0  0  0  0  0  0  0  0  0  0  0
    0.3778   15.2800   44.2502 S   0  0  0  0  0  0  0  0  0  0  0  0
    2.8095   10.8700   37.4690 Cl  0  0  0  0  0  0  0  0  0  0  0  0
   -0.9899   21.7886   41.4442 H   0  0  0  0  0  0  0  0  0  0  0  0
   -0.7525   20.0972   43.2486 H   0  0  0  0  0  0  0  0  0  0  0  0
    1.5057   11.6884   42.0665 H   0  0  0  0  0  0  0  0  0  0  0  0
    2.1763   10.2198   40.1659 H   0  0  0  0  0  0  0  0  0  0  0  0
    2.6343   13.6999   37.6440 H   0  0  0  0  0  0  0  0  0  0  0  0
    1.9991   15.1625   39.5618 H   0  0  0  0  0  0  0  0  0  0  0  0
    1.0510   12.9370   43.6316 H   0  0  0  0  0  0  0  0  0  0  0  0
    1.3083   17.4896   40.4869 H   0  0  0  0  0  0  0  0  0  0  0  0
    0.4971   18.1329   44.0181 H   0  0  0  0  0  0  0  0  0  0  0  0
  1  2  1  0
  1 19  1  0
  1 20  2  0
  2  3  1  0
  2 16  2  0
  3  4  2  0
  4  5  1  0
  5 15  2  0
  5 17  1  0
  6 17  1  0
  6 18  2  0
  6 22  1  0
  7  8  1  0
  7 14  2  0
  7 18  1  0
  8  9  1  0
  8 13  2  0
  9 10  2  0
 10 11  1  0
 11 12  2  0
 11 23  1  0
 12 13  1  0
 14 22  1  0
 15 16  1  0
 16 21  1  0
  3 24  1  0
  4 25  1  0
  9 26  1  0
 10 27  1  0
 12 28  1  0
 13 29  1  0
 14 30  1  0
 15 31  1  0
 17 32  1  0
M  CHG  2  19  -1  21  -1
M  END
>  <mol_id>  (57) 
2026-08-23-6tgu-s0-n100-r5-0057

>  <rmsd_to_ref>  (57) 
3.025510204081726

$$$$
6tgu.A
     RDKit          3D

 32 34  0  0  0  0  0  0  0  0999 V2000
    5.3557   21.4536   37.9016 C   0  0  0  0  0  0  0  0  0  0  0  0
    4.7068   20.2379   38.3731 C   0  0  0  0  0  0  0  0  0  0  0  0
    3.3245   20.1997   38.4819 C   0  0  0  0  0  0  0  0  0  0  0  0
    2.6832   19.0482   38.9312 C   0  0  0  0  0  0  0  0  0  0  0  0
    3.3822   17.9208   39.2797 C   0  0  0  0  0  0  0  0  0  0  0  0
    1.6110   16.5808   40.4733 C   0  0  0  0  0  0  0  0  0  0  0  0
   -0.1837   15.7970   41.5753 C   0  0  0  0  0  0  0  0  0  0  0  0
   -0.9128   14.5995   42.0583 C   0  0  0  0  0  0  0  0  0  0  0  0
   -2.0957   14.7629   42.7588 C   0  0  0  0  0  0  0  0  0  0  0  0
   -2.8328   13.7067   43.2431 C   0  0  0  0  0  0  0  0  0  0  0  0
   -2.3694   12.4239   43.0185 C   0  0  0  0  0  0  0  0  0  0  0  0
   -1.1963   12.2234   42.3256 C   0  0  0  0  0  0  0  0  0  0  0  0
   -0.4792   13.3249   41.8516 C   0  0  0  0  0  0  0  0  0  0  0  0
   -0.6029   17.0486   41.7791 C   0  0  0  0  0  0  0  0  0  0  0  0
    4.7658   17.9939   39.1580 C   0  0  0  0  0  0  0  0  0  0  0  0
    5.4148   19.1184   38.7177 C   0  0  0  0  0  0  0  0  0  0  0  0
    2.8407   16.7225   39.7615 N   0  0  0  0  0  0  0  0  0  0  0  0
    0.9466   15.7375   40.9016 N   0  0  0  0  0  0  0  0  0  0  0  0
    4.6183   22.5652   37.5608 O   0  0  0  0  0  0  0  0  0  0  0  0
    6.6214   21.4739   37.8086 O   0  0  0  0  0  0  0  0  0  0  0  0
    6.8021   19.1854   38.5980 O   0  0  0  0  0  0  0  0  0  0  0  0
    0.6404   18.1015   40.9974 S   0  0  0  0  0  0  0  0  0  0  0  0
   -3.3189   11.0913   43.6414 Cl  0  0  0  0  0  0  0  0  0  0  0  0
    2.7316   21.0685   38.2173 H   0  0  0  0  0  0  0  0  0  0  0  0
    1.6253   19.0802   38.9792 H   0  0  0  0  0  0  0  0  0  0  0  0
   -2.4728   15.7655   42.9422 H   0  0  0  0  0  0  0  0  0  0  0  0
   -3.7492   13.9130   43.7837 H   0  0  0  0  0  0  0  0  0  0  0  0
   -0.8473   11.2039   42.1597 H   0  0  0  0  0  0  0  0  0  0  0  0
    0.4396   13.1535   41.3091 H   0  0  0  0  0  0  0  0  0  0  0  0
   -1.5271   17.4847   42.3154 H   0  0  0  0  0  0  0  0  0  0  0  0
    5.3819   17.1398   39.4178 H   0  0  0  0  0  0  0  0  0  0  0  0
    3.3599   15.8308   39.6005 H   0  0  0  0  0  0  0  0  0  0  0  0
  1  2  1  0
  1 19  1  0
  1 20  2  0
  2  3  1  0
  2 16  2  0
  3  4  2  0
  4  5  1  0
  5 15  2  0
  5 17  1  0
  6 17  1  0
  6 18  2  0
  6 22  1  0
  7  8  1  0
  7 14  2  0
  7 18  1  0
  8  9  1  0
  8 13  2  0
  9 10  2  0
 10 11  1  0
 11 12  2  0
 11 23  1  0
 12 13  1  0
 14 22  1  0
 15 16  1  0
 16 21  1  0
  3 24  1  0
  4 25  1  0
  9 26  1  0
 10 27  1  0
 12 28  1  0
 13 29  1  0
 14 30  1  0
 15 31  1  0
 17 32  1  0
M  CHG  2  19  -1  21  -1
M  END
>  <mol_id>  (58) 
2026-08-23-6tgu-s0-n100-r5-0058

>  <rmsd_to_ref>  (58) 
3.071428571431263

$$$$
6tgu.A
     RDKit          3D

 32 34  0  0  0  0  0  0  0  0999 V2000
    4.7345   16.5731   36.3081 C   0  0  0  0  0  0  0  0  0  0  0  0
    3.8042   17.3447   37.2482 C   0  0  0  0  0  0  0  0  0  0  0  0
    3.3163   18.5989   36.8880 C   0  0  0  0  0  0  0  0  0  0  0  0
    2.3215   19.2482   37.6264 C   0  0  0  0  0  0  0  0  0  0  0  0
    1.9074   18.7268   38.8607 C   0  0  0  0  0  0  0  0  0  0  0  0
   -0.0209   18.8278   40.5144 C   0  0  0  0  0  0  0  0  0  0  0  0
   -0.9132   17.2974   41.9417 C   0  0  0  0  0  0  0  0  0  0  0  0
   -0.9560   16.0299   42.6717 C   0  0  0  0  0  0  0  0  0  0  0  0
   -2.0597   15.6591   43.4529 C   0  0  0  0  0  0  0  0  0  0  0  0
   -2.0939   14.4340   44.1118 C   0  0  0  0  0  0  0  0  0  0  0  0
   -1.0335   13.5628   43.9475 C   0  0  0  0  0  0  0  0  0  0  0  0
    0.0750   13.8867   43.1797 C   0  0  0  0  0  0  0  0  0  0  0  0
    0.0954   15.1218   42.5376 C   0  0  0  0  0  0  0  0  0  0  0  0
   -1.9167   18.2294   41.9660 C   0  0  0  0  0  0  0  0  0  0  0  0
    2.3804   17.4603   39.2328 C   0  0  0  0  0  0  0  0  0  0  0  0
    3.3152   16.8029   38.4309 C   0  0  0  0  0  0  0  0  0  0  0  0
    0.8483   19.3423   39.5959 N   0  0  0  0  0  0  0  0  0  0  0  0
    0.1487   17.5672   41.0463 N   0  0  0  0  0  0  0  0  0  0  0  0
    4.8902   17.0541   35.1473 O   0  0  0  0  0  0  0  0  0  0  0  0
    5.1996   15.4925   36.7320 O   0  0  0  0  0  0  0  0  0  0  0  0
    3.6925   15.5201   38.7499 O   0  0  0  0  0  0  0  0  0  0  0  0
   -1.6068   19.4988   40.8434 S   0  0  0  0  0  0  0  0  0  0  0  0
   -1.0804   12.0172   44.7288 Cl  0  0  0  0  0  0  0  0  0  0  0  0
    3.7260   19.0938   35.9952 H   0  0  0  0  0  0  0  0  0  0  0  0
    1.8630   20.1696   37.2382 H   0  0  0  0  0  0  0  0  0  0  0  0
   -2.9124   16.3477   43.5464 H   0  0  0  0  0  0  0  0  0  0  0  0
   -2.9477   14.1643   44.7507 H   0  0  0  0  0  0  0  0  0  0  0  0
    0.9168   13.1856   43.0806 H   0  0  0  0  0  0  0  0  0  0  0  0
    0.9593   15.3879   41.9108 H   0  0  0  0  0  0  0  0  0  0  0  0
   -2.8026   18.1746   42.6159 H   0  0  0  0  0  0  0  0  0  0  0  0
    2.0154   16.9854   40.1554 H   0  0  0  0  0  0  0  0  0  0  0  0
    0.7184   20.3450   39.3996 H   0  0  0  0  0  0  0  0  0  0  0  0
  1  2  1  0
  1 19  1  0
  1 20  2  0
  2  3  1  0
  2 16  2  0
  3  4  2  0
  4  5  1  0
  5 15  2  0
  5 17  1  0
  6 17  1  0
  6 18  2  0
  6 22  1  0
  7  8  1  0
  7 14  2  0
  7 18  1  0
  8  9  1  0
  8 13  2  0
  9 10  2  0
 10 11  1  0
 11 12  2  0
 11 23  1  0
 12 13  1  0
 14 22  1  0
 15 16  1  0
 16 21  1  0
  3 24  1  0
  4 25  1  0
  9 26  1  0
 10 27  1  0
 12 28  1  0
 13 29  1  0
 14 30  1  0
 15 31  1  0
 17 32  1  0
M  CHG  2  19  -1  21  -1
M  END
>  <mol_id>  (59) 
2026-08-23-6tgu-s0-n100-r5-0059

>  <rmsd_to_ref>  (59) 
3.1173469387849706

$$$$
6tgu.A
     RDKit          3D

 32 34  0  0  0  0  0  0  0  0999 V2000
   -0.5359   22.6575   40.0372 C   0  0  0  0  0  0  0  0  0  0  0  0
    0.0736   21.3453   40.0671 C   0  0  0  0  0  0  0  0  0  0  0  0
   -0.0121   20.6008   41.2197 C   0  0  0  0  0  0  0  0  0  0  0  0
    0.5585   19.3317   41.2966 C   0  0  0  0  0  0  0  0  0  0  0  0
    1.2296   18.7513   40.2484 C   0  0  0  0  0  0  0  0  0  0  0  0
    1.4813   16.3565   41.0055 C   0  0  0  0  0  0  0  0  0  0  0  0
    1.4043   14.3224   41.9463 C   0  0  0  0  0  0  0  0  0  0  0  0
    1.9314   12.9688   42.0770 C   0  0  0  0  0  0  0  0  0  0  0  0
    1.3637   12.0610   42.9455 C   0  0  0  0  0  0  0  0  0  0  0  0
    1.8613   10.7717   43.0730 C   0  0  0  0  0  0  0  0  0  0  0  0
    2.9388   10.3431   42.3414 C   0  0  0  0  0  0  0  0  0  0  0  0
    3.5295   11.2477   41.4548 C   0  0  0  0  0  0  0  0  0  0  0  0
    3.0168   12.5266   41.3448 C   0  0  0  0  0  0  0  0  0  0  0  0
    0.2695   14.7543   42.7175 C   0  0  0  0  0  0  0  0  0  0  0  0
    1.3028   19.5325   39.0850 C   0  0  0  0  0  0  0  0  0  0  0  0
    0.7439   20.7816   39.0035 C   0  0  0  0  0  0  0  0  0  0  0  0
    1.8096   17.4944   40.2102 N   0  0  0  0  0  0  0  0  0  0  0  0
    1.8394   15.2741   41.1697 N   0  0  0  0  0  0  0  0  0  0  0  0
   -0.4935   23.4768   38.9112 O   0  0  0  0  0  0  0  0  0  0  0  0
   -1.1478   23.1413   41.0410 O   0  0  0  0  0  0  0  0  0  0  0  0
    0.8286   21.5415   37.8371 O   0  0  0  0  0  0  0  0  0  0  0  0
    0.0232   16.4326   42.2023 S   0  0  0  0  0  0  0  0  0  0  0  0
    3.5828    8.7148   42.4893 Cl  0  0  0  0  0  0  0  0  0  0  0  0
   -0.5435   21.0372   42.0759 H   0  0  0  0  0  0  0  0  0  0  0  0
    0.4537   18.8301   42.2395 H   0  0  0  0  0  0  0  0  0  0  0  0
    0.5180   12.3108   43.5572 H   0  0  0  0  0  0  0  0  0  0  0  0
    1.3958   10.0883   43.7587 H   0  0  0  0  0  0  0  0  0  0  0  0
    4.3732   10.9646   40.8597 H   0  0  0  0  0  0  0  0  0  0  0  0
    3.4757   13.2396   40.6521 H   0  0  0  0  0  0  0  0  0  0  0  0
   -0.2734   14.1816   43.4220 H   0  0  0  0  0  0  0  0  0  0  0  0
    1.8121   19.1677   38.1967 H   0  0  0  0  0  0  0  0  0  0  0  0
    2.5913   17.3237   39.5229 H   0  0  0  0  0  0  0  0  0  0  0  0
  1  2  1  0
  1 19  1  0
  1 20  2  0
  2  3  1  0
  2 16  2  0
  3  4  2  0
  4  5  1  0
  5 15  2  0
  5 17  1  0
  6 17  1  0
  6 18  2  0
  6 22  1  0
  7  8  1  0
  7 14  2  0
  7 18  1  0
  8  9  1  0
  8 13  2  0
  9 10  2  0
 10 11  1  0
 11 12  2  0
 11 23  1  0
 12 13  1  0
 14 22  1  0
 15 16  1  0
 16 21  1  0
  3 24  1  0
  4 25  1  0
  9 26  1  0
 10 27  1  0
 12 28  1  0
 13 29  1  0
 14 30  1  0
 15 31  1  0
 17 32  1  0
M  CHG  2  19  -1  21  -1
M  END
>  <mol_id>  (60) 
2026-08-23-6tgu-s0-n100-r5-0060

>  <rmsd_to_ref>  (60) 
3.163265306126923

$$$$
6tgu.A
     RDKit          3D

 32 34  0  0  0  0  0  0  0  0999 V2000
    4.3169   17.3619   36.9127 C   0  0  0  0  0  0  0  0  0  0  0  0
    3.8090   17.7344   38.3084 C   0  0  0  0  0  0  0  0  0  0  0  0
    4.1206   18.9717   38.8675 C   0  0  0  0  0  0  0  0  0  0  0  0
    3.5242   19.4232   40.0494 C   0  0  0  0  0  0  0  0  0  0  0  0
    2.7175   18.5603   40.8053 C   0  0  0  0  0  0  0  0  0  0  0  0
    0.9144   18.5860   42.5973 C   0  0  0  0  0  0  0  0  0  0  0  0
   -0.8553   17.2225   43.0272 C   0  0  0  0  0  0  0  0  0  0  0  0
   -1.6722   16.0187   42.8707 C   0  0  0  0  0  0  0  0  0  0  0  0
   -2.9069   15.8689   43.5183 C   0  0  0  0  0  0  0  0  0  0  0  0
   -3.6835   14.7301   43.3289 C   0  0  0  0  0  0  0  0  0  0  0  0
   -3.2358   13.7605   42.4514 C   0  0  0  0  0  0  0  0  0  0  0  0
   -2.0241   13.8707   41.7860 C   0  0  0  0  0  0  0  0  0  0  0  0
   -1.2562   15.0124   41.9975 C   0  0  0  0  0  0  0  0  0  0  0  0
   -1.2023   18.2861   43.8177 C   0  0  0  0  0  0  0  0  0  0  0  0
    2.3851   17.3156   40.2517 C   0  0  0  0  0  0  0  0  0  0  0  0
    2.9367   16.9276   39.0293 C   0  0  0  0  0  0  0  0  0  0  0  0
    2.0500   19.0252   41.9798 N   0  0  0  0  0  0  0  0  0  0  0  0
    0.3080   17.4001   42.2414 N   0  0  0  0  0  0  0  0  0  0  0  0
    4.8756   18.2847   36.2499 O   0  0  0  0  0  0  0  0  0  0  0  0
    4.0687   16.2046   36.5093 O   0  0  0  0  0  0  0  0  0  0  0  0
    2.5237   15.7530   38.4466 O   0  0  0  0  0  0  0  0  0  0  0  0
   -0.1026   19.5954   43.6074 S   0  0  0  0  0  0  0  0  0  0  0  0
   -4.2114   12.3558   42.1743 Cl  0  0  0  0  0  0  0  0  0  0  0  0
    4.8586   19.6134   38.3640 H   0  0  0  0  0  0  0  0  0  0  0  0
    3.6882   20.4573   40.3867 H   0  0  0  0  0  0  0  0  0  0  0  0
   -3.2673   16.6647   44.1867 H   0  0  0  0  0  0  0  0  0  0  0  0
   -4.6347   14.6039   43.8668 H   0  0  0  0  0  0  0  0  0  0  0  0
   -1.6786   13.0761   41.1084 H   0  0  0  0  0  0  0  0  0  0  0  0
   -0.3004   15.1240   41.4646 H   0  0  0  0  0  0  0  0  0  0  0  0
   -2.0679   18.3020   44.4963 H   0  0  0  0  0  0  0  0  0  0  0  0
    1.6906   16.6458   40.7799 H   0  0  0  0  0  0  0  0  0  0  0  0
    2.5026   19.8285   42.4388 H   0  0  0  0  0  0  0  0  0  0  0  0
  1  2  1  0
  1 19  1  0
  1 20  2  0
  2  3  1  0
  2 16  2  0
  3  4  2  0
  4  5  1  0
  5 15  2  0
  5 17  1  0
  6 17  1  0
  6 18  2  0
  6 22  1  0
  7  8  1  0
  7 14  2  0
  7 18  1  0
  8  9  1  0
  8 13  2  0
  9 10  2  0
 10 11  1  0
 11 12  2  0
 11 23  1  0
 12 13  1  0
 14 22  1  0
 15 16  1  0
 16 21  1  0
  3 24  1  0
  4 25  1  0
  9 26  1  0
 10 27  1  0
 12 28  1  0
 13 29  1  0
 14 30  1  0
 15 31  1  0
 17 32  1  0
M  CHG  2  19  -1  21  -1
M  END
>  <mol_id>  (61) 
2026-08-23-6tgu-s0-n100-r5-0061

>  <rmsd_to_ref>  (61) 
3.2091836734778463

$$$$
6tgu.A
     RDKit          3D

 32 34  0  0  0  0  0  0  0  0999 V2000
    1.1932   22.6983   39.6665 C   0  0  0  0  0  0  0  0  0  0  0  0
    1.3773   21.4624   40.4562 C   0  0  0  0  0  0  0  0  0  0  0  0
    0.7275   20.3125   40.0803 C   0  0  0  0  0  0  0  0  0  0  0  0
    0.9085   19.1603   40.8207 C   0  0  0  0  0  0  0  0  0  0  0  0
    1.7328   19.1559   41.9297 C   0  0  0  0  0  0  0  0  0  0  0  0
    1.1870   16.7865   42.2052 C   0  0  0  0  0  0  0  0  0  0  0  0
    0.3333   14.9334   41.2685 C   0  0  0  0  0  0  0  0  0  0  0  0
    0.4857   13.8462   40.3033 C   0  0  0  0  0  0  0  0  0  0  0  0
   -0.4999   12.8876   40.1625 C   0  0  0  0  0  0  0  0  0  0  0  0
   -0.3901   11.8536   39.2594 C   0  0  0  0  0  0  0  0  0  0  0  0
    0.7291   11.7558   38.4636 C   0  0  0  0  0  0  0  0  0  0  0  0
    1.7387   12.6922   38.5710 C   0  0  0  0  0  0  0  0  0  0  0  0
    1.5905   13.7130   39.4883 C   0  0  0  0  0  0  0  0  0  0  0  0
   -0.8200   15.0382   42.0684 C   0  0  0  0  0  0  0  0  0  0  0  0
    2.3924   20.3164   42.3150 C   0  0  0  0  0  0  0  0  0  0  0  0
    2.2113   21.4620   41.5771 C   0  0  0  0  0  0  0  0  0  0  0  0
    1.9169   17.9515   42.6846 N   0  0  0  0  0  0  0  0  0  0  0  0
    1.1908   15.9127   41.5112 N   0  0  0  0  0  0  0  0  0  0  0  0
    1.8618   23.8569   40.0508 O   0  0  0  0  0  0  0  0  0  0  0  0
    0.4246   22.6896   38.6425 O   0  0  0  0  0  0  0  0  0  0  0  0
    2.8661   22.6404   41.9486 O   0  0  0  0  0  0  0  0  0  0  0  0
   -0.4934   16.5674   43.0753 S   0  0  0  0  0  0  0  0  0  0  0  0
    0.9111   10.4474   37.2906 Cl  0  0  0  0  0  0  0  0  0  0  0  0
    0.0724   20.2971   39.2062 H   0  0  0  0  0  0  0  0  0  0  0  0
    0.3724   18.2601   40.4922 H   0  0  0  0  0  0  0  0  0  0  0  0
   -1.4148   12.9085   40.7658 H   0  0  0  0  0  0  0  0  0  0  0  0
   -1.1987   11.1182   39.1858 H   0  0  0  0  0  0  0  0  0  0  0  0
    2.6322   12.6354   37.9517 H   0  0  0  0  0  0  0  0  0  0  0  0
    2.3840   14.4625   39.5847 H   0  0  0  0  0  0  0  0  0  0  0  0
   -1.6782   14.4650   42.1504 H   0  0  0  0  0  0  0  0  0  0  0  0
    3.0357   20.2911   43.1908 H   0  0  0  0  0  0  0  0  0  0  0  0
    2.5252   17.9119   43.5140 H   0  0  0  0  0  0  0  0  0  0  0  0
  1  2  1  0
  1 19  1  0
  1 20  2  0
  2  3  1  0
  2 16  2  0
  3  4  2  0
  4  5  1  0
  5 15  2  0
  5 17  1  0
  6 17  1  0
  6 18  2  0
  6 22  1  0
  7  8  1  0
  7 14  2  0
  7 18  1  0
  8  9  1  0
  8 13  2  0
  9 10  2  0
 10 11  1  0
 11 12  2  0
 11 23  1  0
 12 13  1  0
 14 22  1  0
 15 16  1  0
 16 21  1  0
  3 24  1  0
  4 25  1  0
  9 26  1  0
 10 27  1  0
 12 28  1  0
 13 29  1  0
 14 30  1  0
 15 31  1  0
 17 32  1  0
M  CHG  2  19  -1  21  -1
M  END
>  <mol_id>  (62) 
2026-08-23-6tgu-s0-n100-r5-0062

>  <rmsd_to_ref>  (62) 
3.255102040822203

$$$$
6tgu.A
     RDKit          3D

 32 34  0  0  0  0  0  0  0  0999 V2000
    1.5658   21.6630   39.5353 C   0  0  0  0  0  0  0  0  0  0  0  0
    1.6316   20.4795   40.5046 C   0  0  0  0  0  0  0  0  0  0  0  0
    0.9492   20.5206   41.7184 C   0  0  0  0  0  0  0  0  0  0  0  0
    0.8288   19.3953   42.5404 C   0  0  0  0  0  0  0  0  0  0  0  0
    1.5476   18.2278   42.2455 C   0  0  0  0  0  0  0  0  0  0  0  0
    1.5716   15.7326   42.7323 C   0  0  0  0  0  0  0  0  0  0  0  0
    2.2084   13.9258   41.5053 C   0  0  0  0  0  0  0  0  0  0  0  0
    2.8352   13.2451   40.3717 C   0  0  0  0  0  0  0  0  0  0  0  0
    2.7549   11.8555   40.2023 C   0  0  0  0  0  0  0  0  0  0  0  0
    3.3296   11.2324   39.0990 C   0  0  0  0  0  0  0  0  0  0  0  0
    3.9480   12.0154   38.1425 C   0  0  0  0  0  0  0  0  0  0  0  0
    4.0452   13.3931   38.2674 C   0  0  0  0  0  0  0  0  0  0  0  0
    3.4738   13.9967   39.3841 C   0  0  0  0  0  0  0  0  0  0  0  0
    1.5146   13.2830   42.4962 C   0  0  0  0  0  0  0  0  0  0  0  0
    2.2305   18.1659   41.0224 C   0  0  0  0  0  0  0  0  0  0  0  0
    2.2646   19.2838   40.1867 C   0  0  0  0  0  0  0  0  0  0  0  0
    1.3860   17.0501   43.0381 N   0  0  0  0  0  0  0  0  0  0  0  0
    2.1821   15.3395   41.5604 N   0  0  0  0  0  0  0  0  0  0  0  0
    0.7411   22.5807   39.8194 O   0  0  0  0  0  0  0  0  0  0  0  0
    2.2693   21.5908   38.5039 O   0  0  0  0  0  0  0  0  0  0  0  0
    2.8469   19.1794   38.9458 O   0  0  0  0  0  0  0  0  0  0  0  0
    0.7582   14.4141   43.5527 S   0  0  0  0  0  0  0  0  0  0  0  0
    4.6325   11.2575   36.7430 Cl  0  0  0  0  0  0  0  0  0  0  0  0
    0.4909   21.4673   42.0404 H   0  0  0  0  0  0  0  0  0  0  0  0
    0.1690   19.4262   43.4200 H   0  0  0  0  0  0  0  0  0  0  0  0
    2.2290   11.2483   40.9537 H   0  0  0  0  0  0  0  0  0  0  0  0
    3.2926   10.1384   38.9902 H   0  0  0  0  0  0  0  0  0  0  0  0
    4.5608   13.9936   37.5035 H   0  0  0  0  0  0  0  0  0  0  0  0
    3.5267   15.0903   39.4905 H   0  0  0  0  0  0  0  0  0  0  0  0
    1.4493   12.1901   42.6031 H   0  0  0  0  0  0  0  0  0  0  0  0
    2.7386   17.2378   40.7217 H   0  0  0  0  0  0  0  0  0  0  0  0
    1.0769   17.2249   44.0050 H   0  0  0  0  0  0  0  0  0  0  0  0
  1  2  1  0
  1 19  1  0
  1 20  2  0
  2  3  1  0
  2 16  2  0
  3  4  2  0
  4  5  1  0
  5 15  2  0
  5 17  1  0
  6 17  1  0
  6 18  2  0
  6 22  1  0
  7  8  1  0
  7 14  2  0
  7 18  1  0
  8  9  1  0
  8 13  2  0
  9 10  2  0
 10 11  1  0
 11 12  2  0
 11 23  1  0
 12 13  1  0
 14 22  1  0
 15 16  1  0
 16 21  1  0
  3 24  1  0
  4 25  1  0
  9 26  1  0
 10 27  1  0
 12 28  1  0
 13 29  1  0
 14 30  1  0
 15 31  1  0
 17 32  1  0
M  CHG  2  19  -1  21  -1
M  END
>  <mol_id>  (63) 
2026-08-23-6tgu-s0-n100-r5-0063

>  <rmsd_to_ref>  (63) 
3.30102040817135

$$$$
6tgu.A
     RDKit          3D

 32 34  0  0  0  0  0  0  0  0999 V2000
    0.0783   21.4395   36.4456 C   0  0  0  0  0  0  0  0  0  0  0  0
    0.0903   20.4892   37.5456 C   0  0  0  0  0  0  0  0  0  0  0  0
   -1.0318   20.1923   38.2893 C   0  0  0  0  0  0  0  0  0  0  0  0
   -0.9902   19.2909   39.3205 C   0  0  0  0  0  0  0  0  0  0  0  0
    0.1887   18.6213   39.6784 C   0  0  0  0  0  0  0  0  0  0  0  0
    1.1746   17.2856   41.5683 C   0  0  0  0  0  0  0  0  0  0  0  0
    2.4256   16.2637   43.1381 C   0  0  0  0  0  0  0  0  0  0  0  0
    2.4649   15.2384   44.2142 C   0  0  0  0  0  0  0  0  0  0  0  0
    1.3735   14.4799   44.5527 C   0  0  0  0  0  0  0  0  0  0  0  0
    1.4222   13.5298   45.5545 C   0  0  0  0  0  0  0  0  0  0  0  0
    2.6089   13.3457   46.2290 C   0  0  0  0  0  0  0  0  0  0  0  0
    3.7389   14.0872   45.9240 C   0  0  0  0  0  0  0  0  0  0  0  0
    3.6292   15.0177   44.9174 C   0  0  0  0  0  0  0  0  0  0  0  0
    3.5205   16.9999   42.8221 C   0  0  0  0  0  0  0  0  0  0  0  0
    1.2932   18.9294   38.9268 C   0  0  0  0  0  0  0  0  0  0  0  0
    1.2589   19.8476   37.8740 C   0  0  0  0  0  0  0  0  0  0  0  0
    0.1241   17.7068   40.7353 N   0  0  0  0  0  0  0  0  0  0  0  0
    1.3510   16.5139   42.4402 N   0  0  0  0  0  0  0  0  0  0  0  0
   -1.0581   22.1252   36.0632 O   0  0  0  0  0  0  0  0  0  0  0  0
    1.1737   21.6223   35.8345 O   0  0  0  0  0  0  0  0  0  0  0  0
    2.4405   20.1046   37.1546 O   0  0  0  0  0  0  0  0  0  0  0  0
    2.8806   18.0784   41.4433 S   0  0  0  0  0  0  0  0  0  0  0  0
    2.7028   12.1496   47.5068 Cl  0  0  0  0  0  0  0  0  0  0  0  0
   -1.9515   20.7015   38.0247 H   0  0  0  0  0  0  0  0  0  0  0  0
   -1.9140   19.0882   39.8845 H   0  0  0  0  0  0  0  0  0  0  0  0
    0.4340   14.6352   44.0092 H   0  0  0  0  0  0  0  0  0  0  0  0
    0.5658   12.9315   45.8221 H   0  0  0  0  0  0  0  0  0  0  0  0
    4.6803   13.9553   46.4436 H   0  0  0  0  0  0  0  0  0  0  0  0
    4.5358   15.5953   44.6908 H   0  0  0  0  0  0  0  0  0  0  0  0
    4.5218   17.0676   43.1610 H   0  0  0  0  0  0  0  0  0  0  0  0
    2.2293   18.4655   39.1126 H   0  0  0  0  0  0  0  0  0  0  0  0
   -0.8222   17.2654   40.9488 H   0  0  0  0  0  0  0  0  0  0  0  0
  1  2  1  0
  1 19  1  0
  1 20  2  0
  2  3  1  0
  2 16  2  0
  3  4  2  0
  4  5  1  0
  5 15  2  0
  5 17  1  0
  6 17  1  0
  6 18  2  0
  6 22  1  0
  7  8  1  0
  7 14  2  0
  7 18  1  0
  8  9  1  0
  8 13  2  0
  9 10  2  0
 10 11  1  0
 11 12  2  0
 11 23  1  0
 12 13  1  0
 14 22  1  0
 15 16  1  0
 16 21  1  0
  3 24  1  0
  4 25  1  0
  9 26  1  0
 10 27  1  0
 12 28  1  0
 13 29  1  0
 14 30  1  0
 15 31  1  0
 17 32  1  0
M  CHG  2  19  -1  21  -1
M  END
>  <mol_id>  (64) 
2026-08-23-6tgu-s0-n100-r5-0064

>  <rmsd_to_ref>  (64) 
3.3469387755132836

$$$$
6tgu.A
     RDKit          3D

 32 34  0  0  0  0  0  0  0  0999 V2000
    4.5092   21.6789   37.3463 C   0  0  0  0  0  0  0  0  0  0  0  0
    4.4463   20.6916   38.5150 C   0  0  0  0  0  0  0  0  0  0  0  0
    5.2373   20.8827   39.6457 C   0  0  0  0  0  0  0  0  0  0  0  0
    5.0722   20.1172   40.8047 C   0  0  0  0  0  0  0  0  0  0  0  0
    4.2140   19.0080   40.7996 C   0  0  0  0  0  0  0  0  0  0  0  0
    2.9255   17.4852   42.3757 C   0  0  0  0  0  0  0  0  0  0  0  0
    0.9506   16.3733   42.1779 C   0  0  0  0  0  0  0  0  0  0  0  0
   -0.2141   15.8535   41.4606 C   0  0  0  0  0  0  0  0  0  0  0  0
   -1.2697   15.2116   42.1236 C   0  0  0  0  0  0  0  0  0  0  0  0
   -2.3836   14.7548   41.4261 C   0  0  0  0  0  0  0  0  0  0  0  0
   -2.4540   14.9846   40.0650 C   0  0  0  0  0  0  0  0  0  0  0  0
   -1.4357   15.6203   39.3707 C   0  0  0  0  0  0  0  0  0  0  0  0
   -0.3242   16.0598   40.0846 C   0  0  0  0  0  0  0  0  0  0  0  0
    1.1253   16.2683   43.5325 C   0  0  0  0  0  0  0  0  0  0  0  0
    3.4027   18.8080   39.6736 C   0  0  0  0  0  0  0  0  0  0  0  0
    3.5375   19.6411   38.5615 C   0  0  0  0  0  0  0  0  0  0  0  0
    3.9857   18.2551   41.9922 N   0  0  0  0  0  0  0  0  0  0  0  0
    1.9198   17.1462   41.4957 N   0  0  0  0  0  0  0  0  0  0  0  0
    5.1756   22.7385   37.5371 O   0  0  0  0  0  0  0  0  0  0  0  0
    3.8346   21.3995   36.3312 O   0  0  0  0  0  0  0  0  0  0  0  0
    2.6672   19.5022   37.5065 O   0  0  0  0  0  0  0  0  0  0  0  0
    2.5082   17.1578   44.0466 S   0  0  0  0  0  0  0  0  0  0  0  0
   -3.8534   14.4579   39.1900 Cl  0  0  0  0  0  0  0  0  0  0  0  0
    6.0157   21.6597   39.6265 H   0  0  0  0  0  0  0  0  0  0  0  0
    5.6166   20.3858   41.7220 H   0  0  0  0  0  0  0  0  0  0  0  0
   -1.2163   15.0667   43.2127 H   0  0  0  0  0  0  0  0  0  0  0  0
   -3.1921   14.2214   41.9475 H   0  0  0  0  0  0  0  0  0  0  0  0
   -1.5044   15.7734   38.2836 H   0  0  0  0  0  0  0  0  0  0  0  0
    0.4850   16.5813   39.5524 H   0  0  0  0  0  0  0  0  0  0  0  0
    0.4699   15.6928   44.2027 H   0  0  0  0  0  0  0  0  0  0  0  0
    2.6610   17.9958   39.6666 H   0  0  0  0  0  0  0  0  0  0  0  0
    4.7513   18.3010   42.6797 H   0  0  0  0  0  0  0  0  0  0  0  0
  1  2  1  0
  1 19  1  0
  1 20  2  0
  2  3  1  0
  2 16  2  0
  3  4  2  0
  4  5  1  0
  5 15  2  0
  5 17  1  0
  6 17  1  0
  6 18  2  0
  6 22  1  0
  7  8  1  0
  7 14  2  0
  7 18  1  0
  8  9  1  0
  8 13  2  0
  9 10  2  0
 10 11  1  0
 11 12  2  0
 11 23  1  0
 12 13  1  0
 14 22  1  0
 15 16  1  0
 16 21  1  0
  3 24  1  0
  4 25  1  0
  9 26  1  0
 10 27  1  0
 12 28  1  0
 13 29  1  0
 14 30  1  0
 15 31  1  0
 17 32  1  0
M  CHG  2  19  -1  21  -1
M  END
>  <mol_id>  (65) 
2026-08-23-6tgu-s0-n100-r5-0065

>  <rmsd_to_ref>  (65) 
3.392857142859289

$$$$
6tgu.A
     RDKit          3D

 32 34  0  0  0  0  0  0  0  0999 V2000
    4.1485   16.1872   35.4915 C   0  0  0  0  0  0  0  0  0  0  0  0
    3.8813   16.9548   36.7010 C   0  0  0  0  0  0  0  0  0  0  0  0
    3.1806   16.3808   37.7386 C   0  0  0  0  0  0  0  0  0  0  0  0
    2.9456   17.1394   38.8713 C   0  0  0  0  0  0  0  0  0  0  0  0
    3.3781   18.4404   39.0123 C   0  0  0  0  0  0  0  0  0  0  0  0
    2.4429   18.7088   41.2510 C   0  0  0  0  0  0  0  0  0  0  0  0
    1.2656   17.4724   42.7702 C   0  0  0  0  0  0  0  0  0  0  0  0
    0.6066   16.2047   43.1456 C   0  0  0  0  0  0  0  0  0  0  0  0
   -0.0150   16.0457   44.3552 C   0  0  0  0  0  0  0  0  0  0  0  0
   -0.6130   14.8331   44.6445 C   0  0  0  0  0  0  0  0  0  0  0  0
   -0.6191   13.7661   43.7774 C   0  0  0  0  0  0  0  0  0  0  0  0
    0.0081   13.9287   42.5585 C   0  0  0  0  0  0  0  0  0  0  0  0
    0.6005   15.1366   42.2775 C   0  0  0  0  0  0  0  0  0  0  0  0
    1.2426   18.5699   43.7253 C   0  0  0  0  0  0  0  0  0  0  0  0
    4.0841   18.9569   37.9161 C   0  0  0  0  0  0  0  0  0  0  0  0
    4.3357   18.2473   36.7879 C   0  0  0  0  0  0  0  0  0  0  0  0
    3.1469   19.2316   40.1638 N   0  0  0  0  0  0  0  0  0  0  0  0
    1.8623   17.7212   41.6884 N   0  0  0  0  0  0  0  0  0  0  0  0
    3.7053   14.8725   35.3622 O   0  0  0  0  0  0  0  0  0  0  0  0
    4.7980   16.7485   34.5539 O   0  0  0  0  0  0  0  0  0  0  0  0
    5.0351   18.8100   35.7440 O   0  0  0  0  0  0  0  0  0  0  0  0
    2.1994   19.8664   42.7314 S   0  0  0  0  0  0  0  0  0  0  0  0
   -1.4053   12.2803   44.2472 Cl  0  0  0  0  0  0  0  0  0  0  0  0
    2.8421   15.3612   37.6270 H   0  0  0  0  0  0  0  0  0  0  0  0
    2.3954   16.6585   39.6610 H   0  0  0  0  0  0  0  0  0  0  0  0
   -0.0447   16.8486   45.0817 H   0  0  0  0  0  0  0  0  0  0  0  0
   -1.0927   14.7558   45.6157 H   0  0  0  0  0  0  0  0  0  0  0  0
    0.0082   13.1060   41.8796 H   0  0  0  0  0  0  0  0  0  0  0  0
    1.0981   15.2589   41.3050 H   0  0  0  0  0  0  0  0  0  0  0  0
    0.8787   18.6902   44.6097 H   0  0  0  0  0  0  0  0  0  0  0  0
    4.4438   19.9832   37.9872 H   0  0  0  0  0  0  0  0  0  0  0  0
    3.5264   20.2045   40.1479 H   0  0  0  0  0  0  0  0  0  0  0  0
  1  2  1  0
  1 19  1  0
  1 20  2  0
  2  3  1  0
  2 16  2  0
  3  4  2  0
  4  5  1  0
  5 15  2  0
  5 17  1  0
  6 17  1  0
  6 18  2  0
  6 22  1  0
  7  8  1  0
  7 14  2  0
  7 18  1  0
  8  9  1  0
  8 13  2  0
  9 10  2  0
 10 11  1  0
 11 12  2  0
 11 23  1  0
 12 13  1  0
 14 22  1  0
 15 16  1  0
 16 21  1  0
  3 24  1  0
  4 25  1  0
  9 26  1  0
 10 27  1  0
 12 28  1  0
 13 29  1  0
 14 30  1  0
 15 31  1  0
 17 32  1  0
M  CHG  2  19  -1  21  -1
M  END
>  <mol_id>  (66) 
2026-08-23-6tgu-s0-n100-r5-0066

>  <rmsd_to_ref>  (66) 
3.438775510209246

$$$$
6tgu.A
     RDKit          3D

 32 34  0  0  0  0  0  0  0  0999 V2000
    1.8986   21.6430   39.9369 C   0  0  0  0  0  0  0  0  0  0  0  0
    2.0491   20.3971   40.8142 C   0  0  0  0  0  0  0  0  0  0  0  0
    1.6261   20.4113   42.1414 C   0  0  0  0  0  0  0  0  0  0  0  0
    1.5708   19.2474   42.9151 C   0  0  0  0  0  0  0  0  0  0  0  0
    2.1107   18.0496   42.4246 C   0  0  0  0  0  0  0  0  0  0  0  0
    2.0087   15.5336   42.7747 C   0  0  0  0  0  0  0  0  0  0  0  0
    2.2278   13.7671   41.3579 C   0  0  0  0  0  0  0  0  0  0  0  0
    2.5556   13.1155   40.0894 C   0  0  0  0  0  0  0  0  0  0  0  0
    2.3204   11.7504   39.8723 C   0  0  0  0  0  0  0  0  0  0  0  0
    2.6084   11.1582   38.6467 C   0  0  0  0  0  0  0  0  0  0  0  0
    3.0929   11.9519   37.6241 C   0  0  0  0  0  0  0  0  0  0  0  0
    3.3347   13.3069   37.7936 C   0  0  0  0  0  0  0  0  0  0  0  0
    3.0508   13.8786   39.0308 C   0  0  0  0  0  0  0  0  0  0  0  0
    1.6890   13.1163   42.4362 C   0  0  0  0  0  0  0  0  0  0  0  0
    2.5305   18.0153   41.0872 C   0  0  0  0  0  0  0  0  0  0  0  0
    2.4982   19.1794   40.3172 C   0  0  0  0  0  0  0  0  0  0  0  0
    2.0049   16.8386   43.1753 N   0  0  0  0  0  0  0  0  0  0  0  0
    2.3386   15.1719   41.4858 N   0  0  0  0  0  0  0  0  0  0  0  0
    1.2309   22.6011   40.4261 O   0  0  0  0  0  0  0  0  0  0  0  0
    2.3753   21.5843   38.7823 O   0  0  0  0  0  0  0  0  0  0  0  0
    2.8124   19.1117   38.9806 O   0  0  0  0  0  0  0  0  0  0  0  0
    1.2595   14.2310   43.6776 S   0  0  0  0  0  0  0  0  0  0  0  0
    3.4176   11.2366   36.0800 Cl  0  0  0  0  0  0  0  0  0  0  0  0
    1.3262   21.3676   42.5950 H   0  0  0  0  0  0  0  0  0  0  0  0
    1.1030   19.2716   43.9104 H   0  0  0  0  0  0  0  0  0  0  0  0
    1.9014   11.1378   40.6842 H   0  0  0  0  0  0  0  0  0  0  0  0
    2.4537   10.0798   38.4945 H   0  0  0  0  0  0  0  0  0  0  0  0
    3.7406   13.9145   36.9713 H   0  0  0  0  0  0  0  0  0  0  0  0
    3.2206   14.9555   39.1773 H   0  0  0  0  0  0  0  0  0  0  0  0
    1.5493   12.0272   42.5009 H   0  0  0  0  0  0  0  0  0  0  0  0
    2.8849   17.0724   40.6452 H   0  0  0  0  0  0  0  0  0  0  0  0
    1.9095   16.9732   44.1921 H   0  0  0  0  0  0  0  0  0  0  0  0
  1  2  1  0
  1 19  1  0
  1 20  2  0
  2  3  1  0
  2 16  2  0
  3  4  2  0
  4  5  1  0
  5 15  2  0
  5 17  1  0
  6 17  1  0
  6 18  2  0
  6 22  1  0
  7  8  1  0
  7 14  2  0
  7 18  1  0
  8  9  1  0
  8 13  2  0
  9 10  2  0
 10 11  1  0
 11 12  2  0
 11 23  1  0
 12 13  1  0
 14 22  1  0
 15 16  1  0
 16 21  1  0
  3 24  1  0
  4 25  1  0
  9 26  1  0
 10 27  1  0
 12 28  1  0
 13 29  1  0
 14 30  1  0
 15 31  1  0
 17 32  1  0
M  CHG  2  19  -1  21  -1
M  END
>  <mol_id>  (67) 
2026-08-23-6tgu-s0-n100-r5-0067

>  <rmsd_to_ref>  (67) 
3.4846938775561087

$$$$
6tgu.A
     RDKit          3D

 32 34  0  0  0  0  0  0  0  0999 V2000
   -0.6194   22.1817   39.7829 C   0  0  0  0  0  0  0  0  0  0  0  0
    0.1987   20.9798   39.9661 C   0  0  0  0  0  0  0  0  0  0  0  0
   -0.2809   19.9344   40.6916 C   0  0  0  0  0  0  0  0  0  0  0  0
    0.4956   18.7980   40.8641 C   0  0  0  0  0  0  0  0  0  0  0  0
    1.7490   18.6585   40.3353 C   0  0  0  0  0  0  0  0  0  0  0  0
    2.2115   16.2079   40.6765 C   0  0  0  0  0  0  0  0  0  0  0  0
    2.1526   13.9803   41.0386 C   0  0  0  0  0  0  0  0  0  0  0  0
    2.8647   12.7247   41.2596 C   0  0  0  0  0  0  0  0  0  0  0  0
    4.2443   12.6652   41.3006 C   0  0  0  0  0  0  0  0  0  0  0  0
    4.9115   11.4772   41.5093 C   0  0  0  0  0  0  0  0  0  0  0  0
    4.2370   10.2913   41.6873 C   0  0  0  0  0  0  0  0  0  0  0  0
    2.8523   10.3395   41.6481 C   0  0  0  0  0  0  0  0  0  0  0  0
    2.1889   11.5397   41.4376 C   0  0  0  0  0  0  0  0  0  0  0  0
    0.7180   14.0625   40.9955 C   0  0  0  0  0  0  0  0  0  0  0  0
    2.2191   19.7532   39.5911 C   0  0  0  0  0  0  0  0  0  0  0  0
    1.4547   20.8862   39.4144 C   0  0  0  0  0  0  0  0  0  0  0  0
    2.5892   17.5400   40.4452 N   0  0  0  0  0  0  0  0  0  0  0  0
    2.7049   15.1398   40.8609 N   0  0  0  0  0  0  0  0  0  0  0  0
   -1.8714   22.2689   40.3340 O   0  0  0  0  0  0  0  0  0  0  0  0
   -0.1909   23.1653   39.1135 O   0  0  0  0  0  0  0  0  0  0  0  0
    1.9309   21.9710   38.6718 O   0  0  0  0  0  0  0  0  0  0  0  0
    0.3847   15.7058   40.7207 S   0  0  0  0  0  0  0  0  0  0  0  0
    5.0125    8.7580   41.9549 Cl  0  0  0  0  0  0  0  0  0  0  0  0
   -1.2838   20.0004   41.1353 H   0  0  0  0  0  0  0  0  0  0  0  0
    0.0566   18.0169   41.4602 H   0  0  0  0  0  0  0  0  0  0  0  0
    4.8154   13.5768   41.1651 H   0  0  0  0  0  0  0  0  0  0  0  0
    5.9984   11.4292   41.5411 H   0  0  0  0  0  0  0  0  0  0  0  0
    2.2866    9.4217   41.7846 H   0  0  0  0  0  0  0  0  0  0  0  0
    1.1088   11.4769   41.4231 H   0  0  0  0  0  0  0  0  0  0  0  0
    0.0371   13.1489   41.1304 H   0  0  0  0  0  0  0  0  0  0  0  0
    3.2146   19.7141   39.1384 H   0  0  0  0  0  0  0  0  0  0  0  0
    3.6221   17.7083   40.3450 H   0  0  0  0  0  0  0  0  0  0  0  0
  1  2  1  0
  1 19  1  0
  1 20  2  0
  2  3  1  0
  2 16  2  0
  3  4  2  0
  4  5  1  0
  5 15  2  0
  5 17  1  0
  6 17  1  0
  6 18  2  0
  6 22  1  0
  7  8  1  0
  7 14  2  0
  7 18  1  0
  8  9  1  0
  8 13  2  0
  9 10  2  0
 10 11  1  0
 11 12  2  0
 11 23  1  0
 12 13  1  0
 14 22  1  0
 15 16  1  0
 16 21  1  0
  3 24  1  0
  4 25  1  0
  9 26  1  0
 10 27  1  0
 12 28  1  0
 13 29  1  0
 14 30  1  0
 15 31  1  0
 17 32  1  0
M  CHG  2  19  -1  21  -1
M  END
>  <mol_id>  (68) 
2026-08-23-6tgu-s0-n100-r5-0068

>  <rmsd_to_ref>  (68) 
3.530612244901481

$$$$
6tgu.A
     RDKit          3D

 32 34  0  0  0  0  0  0  0  0999 V2000
    1.2146   23.1442   40.6132 C   0  0  0  0  0  0  0  0  0  0  0  0
    1.7568   21.8916   41.3072 C   0  0  0  0  0  0  0  0  0  0  0  0
    2.3508   21.9805   42.5641 C   0  0  0  0  0  0  0  0  0  0  0  0
    2.6844   20.8447   43.3091 C   0  0  0  0  0  0  0  0  0  0  0  0
    2.5887   19.5704   42.7313 C   0  0  0  0  0  0  0  0  0  0  0  0
    2.4271   17.1117   43.3570 C   0  0  0  0  0  0  0  0  0  0  0  0
    1.3985   15.3336   42.3791 C   0  0  0  0  0  0  0  0  0  0  0  0
    0.6929   14.6341   41.3049 C   0  0  0  0  0  0  0  0  0  0  0  0
    0.1993   13.3315   41.4648 C   0  0  0  0  0  0  0  0  0  0  0  0
   -0.4984   12.6974   40.4415 C   0  0  0  0  0  0  0  0  0  0  0  0
   -0.7372   13.3932   39.2714 C   0  0  0  0  0  0  0  0  0  0  0  0
   -0.2723   14.6846   39.0733 C   0  0  0  0  0  0  0  0  0  0  0  0
    0.4335   15.2978   40.1047 C   0  0  0  0  0  0  0  0  0  0  0  0
    1.6542   14.7881   43.6094 C   0  0  0  0  0  0  0  0  0  0  0  0
    1.9829   19.4624   41.4713 C   0  0  0  0  0  0  0  0  0  0  0  0
    1.5884   20.6137   40.7874 C   0  0  0  0  0  0  0  0  0  0  0  0
    2.8641   18.3972   43.4987 N   0  0  0  0  0  0  0  0  0  0  0  0
    1.7467   16.6971   42.2318 N   0  0  0  0  0  0  0  0  0  0  0  0
    1.1859   24.2050   41.3038 O   0  0  0  0  0  0  0  0  0  0  0  0
    0.7707   23.0021   39.4528 O   0  0  0  0  0  0  0  0  0  0  0  0
    0.9024   20.4914   39.6024 O   0  0  0  0  0  0  0  0  0  0  0  0
    2.3274   15.9614   44.6762 S   0  0  0  0  0  0  0  0  0  0  0  0
   -1.6399   12.6313   38.0040 Cl  0  0  0  0  0  0  0  0  0  0  0  0
    2.5642   22.9747   42.9837 H   0  0  0  0  0  0  0  0  0  0  0  0
    3.0224   20.9511   44.3505 H   0  0  0  0  0  0  0  0  0  0  0  0
    0.3663   12.8024   42.4146 H   0  0  0  0  0  0  0  0  0  0  0  0
   -0.8527   11.6629   40.5613 H   0  0  0  0  0  0  0  0  0  0  0  0
   -0.4566   15.2111   38.1252 H   0  0  0  0  0  0  0  0  0  0  0  0
    0.7947   16.3282   39.9709 H   0  0  0  0  0  0  0  0  0  0  0  0
    1.4561   13.7405   43.8800 H   0  0  0  0  0  0  0  0  0  0  0  0
    1.8187   18.4717   41.0224 H   0  0  0  0  0  0  0  0  0  0  0  0
    3.5007   18.5468   44.2945 H   0  0  0  0  0  0  0  0  0  0  0  0
  1  2  1  0
  1 19  1  0
  1 20  2  0
  2  3  1  0
  2 16  2  0
  3  4  2  0
  4  5  1  0
  5 15  2  0
  5 17  1  0
  6 17  1  0
  6 18  2  0
  6 22  1  0
  7  8  1  0
  7 14  2  0
  7 18  1  0
  8  9  1  0
  8 13  2  0
  9 10  2  0
 10 11  1  0
 11 12  2  0
 11 23  1  0
 12 13  1  0
 14 22  1  0
 15 16  1  0
 16 21  1  0
  3 24  1  0
  4 25  1  0
  9 26  1  0
 10 27  1  0
 12 28  1  0
 13 29  1  0
 14 30  1  0
 15 31  1  0
 17 32  1  0
M  CHG  2  19  -1  21  -1
M  END
>  <mol_id>  (69) 
2026-08-23-6tgu-s0-n100-r5-0069

>  <rmsd_to_ref>  (69) 
3.5765306122494946

$$$$
6tgu.A
     RDKit          3D

 32 34  0  0  0  0  0  0  0  0999 V2000
    3.5172   18.3896   35.5896 C   0  0  0  0  0  0  0  0  0  0  0  0
    3.3500   18.0433   37.0117 C   0  0  0  0  0  0  0  0  0  0  0  0
    4.0391   18.6908   38.0150 C   0  0  0  0  0  0  0  0  0  0  0  0
    3.8329   18.3144   39.3224 C   0  0  0  0  0  0  0  0  0  0  0  0
    2.9420   17.2902   39.6749 C   0  0  0  0  0  0  0  0  0  0  0  0
    1.6738   16.4748   41.6879 C   0  0  0  0  0  0  0  0  0  0  0  0
    0.2135   15.6725   43.1899 C   0  0  0  0  0  0  0  0  0  0  0  0
   -0.0690   15.2182   44.5605 C   0  0  0  0  0  0  0  0  0  0  0  0
   -1.3508   14.7894   44.8965 C   0  0  0  0  0  0  0  0  0  0  0  0
   -1.6328   14.3536   46.1980 C   0  0  0  0  0  0  0  0  0  0  0  0
   -0.6464   14.3408   47.1736 C   0  0  0  0  0  0  0  0  0  0  0  0
    0.6256   14.7659   46.8431 C   0  0  0  0  0  0  0  0  0  0  0  0
    0.8691   15.1884   45.5523 C   0  0  0  0  0  0  0  0  0  0  0  0
   -0.7802   15.6778   42.1979 C   0  0  0  0  0  0  0  0  0  0  0  0
    2.2700   16.6625   38.6546 C   0  0  0  0  0  0  0  0  0  0  0  0
    2.4672   17.0319   37.3156 C   0  0  0  0  0  0  0  0  0  0  0  0
    2.8327   16.9941   41.0394 N   0  0  0  0  0  0  0  0  0  0  0  0
    1.3673   16.1037   42.7442 N   0  0  0  0  0  0  0  0  0  0  0  0
    4.4035   19.4098   35.2375 O   0  0  0  0  0  0  0  0  0  0  0  0
    2.8532   17.7491   34.7589 O   0  0  0  0  0  0  0  0  0  0  0  0
    1.7418   16.3380   36.3519 O   0  0  0  0  0  0  0  0  0  0  0  0
    0.0643   16.2996   40.7529 S   0  0  0  0  0  0  0  0  0  0  0  0
   -1.0269   13.7874   48.8059 Cl  0  0  0  0  0  0  0  0  0  0  0  0
    4.7214   19.4792   37.7179 H   0  0  0  0  0  0  0  0  0  0  0  0
    4.3925   18.8447   40.1080 H   0  0  0  0  0  0  0  0  0  0  0  0
   -2.1658   14.7746   44.1814 H   0  0  0  0  0  0  0  0  0  0  0  0
   -2.6578   14.0278   46.4103 H   0  0  0  0  0  0  0  0  0  0  0  0
    1.4217   14.7686   47.5837 H   0  0  0  0  0  0  0  0  0  0  0  0
    1.8921   15.5187   45.3302 H   0  0  0  0  0  0  0  0  0  0  0  0
   -1.8176   15.3804   42.2701 H   0  0  0  0  0  0  0  0  0  0  0  0
    1.5843   15.8624   38.8625 H   0  0  0  0  0  0  0  0  0  0  0  0
    3.6530   17.1568   41.6607 H   0  0  0  0  0  0  0  0  0  0  0  0
  1  2  1  0
  1 19  1  0
  1 20  2  0
  2  3  1  0
  2 16  2  0
  3  4  2  0
  4  5  1  0
  5 15  2  0
  5 17  1  0
  6 17  1  0
  6 18  2  0
  6 22  1  0
  7  8  1  0
  7 14  2  0
  7 18  1  0
  8  9  1  0
  8 13  2  0
  9 10  2  0
 10 11  1  0
 11 12  2  0
 11 23  1  0
 12 13  1  0
 14 22  1  0
 15 16  1  0
 16 21  1  0
  3 24  1  0
  4 25  1  0
  9 26  1  0
 10 27  1  0
 12 28  1  0
 13 29  1  0
 14 30  1  0
 15 31  1  0
 17 32  1  0
M  CHG  2  19  -1  21  -1
M  END
>  <mol_id>  (70) 
2026-08-23-6tgu-s0-n100-r5-0070

>  <rmsd_to_ref>  (70) 
3.622448979597846

$$$$
6tgu.A
     RDKit          3D

 32 34  0  0  0  0  0  0  0  0999 V2000
    4.5381   19.0444   35.5591 C   0  0  0  0  0  0  0  0  0  0  0  0
    4.3935   18.7664   37.0579 C   0  0  0  0  0  0  0  0  0  0  0  0
    5.2416   19.3811   37.9763 C   0  0  0  0  0  0  0  0  0  0  0  0
    5.0232   19.3033   39.3557 C   0  0  0  0  0  0  0  0  0  0  0  0
    4.0333   18.4501   39.8647 C   0  0  0  0  0  0  0  0  0  0  0  0
    2.6209   18.0619   41.9427 C   0  0  0  0  0  0  0  0  0  0  0  0
    0.5167   17.2539   42.2509 C   0  0  0  0  0  0  0  0  0  0  0  0
   -0.7285   16.6031   41.8421 C   0  0  0  0  0  0  0  0  0  0  0  0
   -1.8320   16.5036   42.7013 C   0  0  0  0  0  0  0  0  0  0  0  0
   -3.0183   15.9104   42.2807 C   0  0  0  0  0  0  0  0  0  0  0  0
   -3.1074   15.4567   40.9781 C   0  0  0  0  0  0  0  0  0  0  0  0
   -2.0427   15.5403   40.0935 C   0  0  0  0  0  0  0  0  0  0  0  0
   -0.8605   16.1268   40.5368 C   0  0  0  0  0  0  0  0  0  0  0  0
    0.7246   17.7993   43.4902 C   0  0  0  0  0  0  0  0  0  0  0  0
    3.1641   17.8325   38.9542 C   0  0  0  0  0  0  0  0  0  0  0  0
    3.3627   17.9954   37.5819 C   0  0  0  0  0  0  0  0  0  0  0  0
    3.7548   18.4073   41.2654 N   0  0  0  0  0  0  0  0  0  0  0  0
    1.5503   17.4683   41.3086 N   0  0  0  0  0  0  0  0  0  0  0  0
    5.3381   19.9691   35.2306 O   0  0  0  0  0  0  0  0  0  0  0  0
    3.7983   18.3947   34.7881 O   0  0  0  0  0  0  0  0  0  0  0  0
    2.4451   17.4727   36.7018 O   0  0  0  0  0  0  0  0  0  0  0  0
    2.2252   18.6435   43.5484 S   0  0  0  0  0  0  0  0  0  0  0  0
   -4.5918   14.7529   40.4278 Cl  0  0  0  0  0  0  0  0  0  0  0  0
    6.1100   19.9453   37.6053 H   0  0  0  0  0  0  0  0  0  0  0  0
    5.6290   19.9125   40.0426 H   0  0  0  0  0  0  0  0  0  0  0  0
   -1.7588   16.9008   43.7245 H   0  0  0  0  0  0  0  0  0  0  0  0
   -3.8682   15.8048   42.9709 H   0  0  0  0  0  0  0  0  0  0  0  0
   -2.1301   15.1531   39.0676 H   0  0  0  0  0  0  0  0  0  0  0  0
   -0.0117   16.2168   39.8430 H   0  0  0  0  0  0  0  0  0  0  0  0
    0.0264   17.7101   44.3355 H   0  0  0  0  0  0  0  0  0  0  0  0
    2.3268   17.2204   39.3206 H   0  0  0  0  0  0  0  0  0  0  0  0
    4.5440   18.6843   41.8666 H   0  0  0  0  0  0  0  0  0  0  0  0
  1  2  1  0
  1 19  1  0
  1 20  2  0
  2  3  1  0
  2 16  2  0
  3  4  2  0
  4  5  1  0
  5 15  2  0
  5 17  1  0
  6 17  1  0
  6 18  2  0
  6 22  1  0
  7  8  1  0
  7 14  2  0
  7 18  1  0
  8  9  1  0
  8 13  2  0
  9 10  2  0
 10 11  1  0
 11 12  2  0
 11 23  1  0
 12 13  1  0
 14 22  1  0
 15 16  1  0
 16 21  1  0
  3 24  1  0
  4 25  1  0
  9 26  1  0
 10 27  1  0
 12 28  1  0
 13 29  1  0
 14 30  1  0
 15 31  1  0
 17 32  1  0
M  CHG  2  19  -1  21  -1
M  END
>  <mol_id>  (71) 
2026-08-23-6tgu-s0-n100-r5-0071

>  <rmsd_to_ref>  (71) 
3.668367346940097

$$$$
6tgu.A
     RDKit          3D

 32 34  0  0  0  0  0  0  0  0999 V2000
    6.2948   20.2116   38.7938 C   0  0  0  0  0  0  0  0  0  0  0  0
    5.2851   19.5308   39.5791 C   0  0  0  0  0  0  0  0  0  0  0  0
    5.5584   18.8864   40.7669 C   0  0  0  0  0  0  0  0  0  0  0  0
    4.5425   18.2493   41.4760 C   0  0  0  0  0  0  0  0  0  0  0  0
    3.2400   18.2193   41.0550 C   0  0  0  0  0  0  0  0  0  0  0  0
    2.2191   16.4705   42.5573 C   0  0  0  0  0  0  0  0  0  0  0  0
    1.7086   14.7950   43.9705 C   0  0  0  0  0  0  0  0  0  0  0  0
    0.7063   14.0973   44.7694 C   0  0  0  0  0  0  0  0  0  0  0  0
   -0.6094   14.4992   44.8117 C   0  0  0  0  0  0  0  0  0  0  0  0
   -1.5813   13.8680   45.5557 C   0  0  0  0  0  0  0  0  0  0  0  0
   -1.2199   12.7680   46.3036 C   0  0  0  0  0  0  0  0  0  0  0  0
    0.0875   12.3325   46.2886 C   0  0  0  0  0  0  0  0  0  0  0  0
    1.0468   12.9964   45.5235 C   0  0  0  0  0  0  0  0  0  0  0  0
    3.0492   14.3856   43.9280 C   0  0  0  0  0  0  0  0  0  0  0  0
    2.9809   18.8805   39.8447 C   0  0  0  0  0  0  0  0  0  0  0  0
    3.9791   19.5138   39.1361 C   0  0  0  0  0  0  0  0  0  0  0  0
    2.1652   17.5955   41.6814 N   0  0  0  0  0  0  0  0  0  0  0  0
    1.4995   15.8517   43.2201 N   0  0  0  0  0  0  0  0  0  0  0  0
    7.5998   20.2126   39.2613 O   0  0  0  0  0  0  0  0  0  0  0  0
    5.9409   20.7674   37.7282 O   0  0  0  0  0  0  0  0  0  0  0  0
    3.6555   20.1510   37.9430 O   0  0  0  0  0  0  0  0  0  0  0  0
    3.8754   15.5738   42.8030 S   0  0  0  0  0  0  0  0  0  0  0  0
   -2.4737   11.9819   47.2430 Cl  0  0  0  0  0  0  0  0  0  0  0  0
    6.5661   18.8963   41.1153 H   0  0  0  0  0  0  0  0  0  0  0  0
    4.8395   17.7847   42.3966 H   0  0  0  0  0  0  0  0  0  0  0  0
   -0.9212   15.3682   44.2269 H   0  0  0  0  0  0  0  0  0  0  0  0
   -2.5984   14.2496   45.5346 H   0  0  0  0  0  0  0  0  0  0  0  0
    0.3727   11.4625   46.8796 H   0  0  0  0  0  0  0  0  0  0  0  0
    2.0784   12.6131   45.5435 H   0  0  0  0  0  0  0  0  0  0  0  0
    3.5799   13.5324   44.4371 H   0  0  0  0  0  0  0  0  0  0  0  0
    1.9852   18.9052   39.4439 H   0  0  0  0  0  0  0  0  0  0  0  0
    1.1998   17.9696   41.5130 H   0  0  0  0  0  0  0  0  0  0  0  0
  1  2  1  0
  1 19  1  0
  1 20  2  0
  2  3  1  0
  2 16  2  0
  3  4  2  0
  4  5  1  0
  5 15  2  0
  5 17  1  0
  6 17  1  0
  6 18  2  0
  6 22  1  0
  7  8  1  0
  7 14  2  0
  7 18  1  0
  8  9  1  0
  8 13  2  0
  9 10  2  0
 10 11  1  0
 11 12  2  0
 11 23  1  0
 12 13  1  0
 14 22  1  0
 15 16  1  0
 16 21  1  0
  3 24  1  0
  4 25  1  0
  9 26  1  0
 10 27  1  0
 12 28  1  0
 13 29  1  0
 14 30  1  0
 15 31  1  0
 17 32  1  0
M  CHG  2  19  -1  21  -1
M  END
>  <mol_id>  (72) 
2026-08-23-6tgu-s0-n100-r5-0072

>  <rmsd_to_ref>  (72) 
3.7142857142867713

$$$$
6tgu.A
     RDKit          3D

 32 34  0  0  0  0  0  0  0  0999 V2000
   -0.4720   21.2251   37.3606 C   0  0  0  0  0  0  0  0  0  0  0  0
   -0.3010   20.4098   38.6453 C   0  0  0  0  0  0  0  0  0  0  0  0
   -1.3767   20.2175   39.5094 C   0  0  0  0  0  0  0  0  0  0  0  0
   -1.3129   19.3283   40.5872 C   0  0  0  0  0  0  0  0  0  0  0  0
   -0.0932   18.7296   40.9348 C   0  0  0  0  0  0  0  0  0  0  0  0
    0.8545   16.7517   42.2205 C   0  0  0  0  0  0  0  0  0  0  0  0
    2.7076   15.4647   41.9284 C   0  0  0  0  0  0  0  0  0  0  0  0
    3.9976   15.1101   41.3357 C   0  0  0  0  0  0  0  0  0  0  0  0
    4.6440   13.9014   41.6307 C   0  0  0  0  0  0  0  0  0  0  0  0
    5.8542   13.5691   41.0298 C   0  0  0  0  0  0  0  0  0  0  0  0
    6.3917   14.4361   40.0972 C   0  0  0  0  0  0  0  0  0  0  0  0
    5.7832   15.6389   39.7716 C   0  0  0  0  0  0  0  0  0  0  0  0
    4.5787   15.9586   40.3920 C   0  0  0  0  0  0  0  0  0  0  0  0
    2.0326   14.6755   42.8217 C   0  0  0  0  0  0  0  0  0  0  0  0
    0.9963   18.9040   40.0696 C   0  0  0  0  0  0  0  0  0  0  0  0
    0.8749   19.7375   38.9563 C   0  0  0  0  0  0  0  0  0  0  0  0
   -0.0246   17.7708   41.9918 N   0  0  0  0  0  0  0  0  0  0  0  0
    2.0171   16.6198   41.4914 N   0  0  0  0  0  0  0  0  0  0  0  0
   -1.6550   21.5582   37.0561 O   0  0  0  0  0  0  0  0  0  0  0  0
    0.5549   21.4264   36.6760 O   0  0  0  0  0  0  0  0  0  0  0  0
    1.9135   19.8188   38.0593 O   0  0  0  0  0  0  0  0  0  0  0  0
    0.4695   15.3189   43.1545 S   0  0  0  0  0  0  0  0  0  0  0  0
    7.8773   14.0166   39.3106 Cl  0  0  0  0  0  0  0  0  0  0  0  0
   -2.3050   20.7824   39.3388 H   0  0  0  0  0  0  0  0  0  0  0  0
   -2.2212   19.0981   41.1634 H   0  0  0  0  0  0  0  0  0  0  0  0
    4.1871   13.2045   42.3487 H   0  0  0  0  0  0  0  0  0  0  0  0
    6.3728   12.6350   41.2918 H   0  0  0  0  0  0  0  0  0  0  0  0
    6.2406   16.3229   39.0416 H   0  0  0  0  0  0  0  0  0  0  0  0
    4.0736   16.9008   40.1327 H   0  0  0  0  0  0  0  0  0  0  0  0
    2.4350   13.7538   43.2673 H   0  0  0  0  0  0  0  0  0  0  0  0
    1.9456   18.3847   40.2679 H   0  0  0  0  0  0  0  0  0  0  0  0
   -0.7643   17.8645   42.7024 H   0  0  0  0  0  0  0  0  0  0  0  0
  1  2  1  0
  1 19  1  0
  1 20  2  0
  2  3  1  0
  2 16  2  0
  3  4  2  0
  4  5  1  0
  5 15  2  0
  5 17  1  0
  6 17  1  0
  6 18  2  0
  6 22  1  0
  7  8  1  0
  7 14  2  0
  7 18  1  0
  8  9  1  0
  8 13  2  0
  9 10  2  0
 10 11  1  0
 11 12  2  0
 11 23  1  0
 12 13  1  0
 14 22  1  0
 15 16  1  0
 16 21  1  0
  3 24  1  0
  4 25  1  0
  9 26  1  0
 10 27  1  0
 12 28  1  0
 13 29  1  0
 14 30  1  0
 15 31  1  0
 17 32  1  0
M  CHG  2  19  -1  21  -1
M  END
>  <mol_id>  (73) 
2026-08-23-6tgu-s0-n100-r5-0073

>  <rmsd_to_ref>  (73) 
3.7602040816369073

$$$$
6tgu.A
     RDKit          3D

 32 34  0  0  0  0  0  0  0  0999 V2000
    1.6932   21.5960   40.6502 C   0  0  0  0  0  0  0  0  0  0  0  0
    2.1783   20.3158   41.1313 C   0  0  0  0  0  0  0  0  0  0  0  0
    1.9926   19.1598   40.4245 C   0  0  0  0  0  0  0  0  0  0  0  0
    2.4542   17.9539   40.9278 C   0  0  0  0  0  0  0  0  0  0  0  0
    3.1015   17.8624   42.1265 C   0  0  0  0  0  0  0  0  0  0  0  0
    3.0215   15.3688   42.4745 C   0  0  0  0  0  0  0  0  0  0  0  0
    2.2263   13.4272   41.6649 C   0  0  0  0  0  0  0  0  0  0  0  0
    1.8952   12.5902   40.4872 C   0  0  0  0  0  0  0  0  0  0  0  0
    1.3654   11.3253   40.6731 C   0  0  0  0  0  0  0  0  0  0  0  0
    1.0330   10.5644   39.5650 C   0  0  0  0  0  0  0  0  0  0  0  0
    1.2302   11.0742   38.3097 C   0  0  0  0  0  0  0  0  0  0  0  0
    1.7591   12.3359   38.0788 C   0  0  0  0  0  0  0  0  0  0  0  0
    2.0906   13.0887   39.1850 C   0  0  0  0  0  0  0  0  0  0  0  0
    1.9784   13.0095   42.9426 C   0  0  0  0  0  0  0  0  0  0  0  0
    3.2760   19.0651   42.8260 C   0  0  0  0  0  0  0  0  0  0  0  0
    2.8312   20.2615   42.3504 C   0  0  0  0  0  0  0  0  0  0  0  0
    3.5751   16.7014   42.7398 N   0  0  0  0  0  0  0  0  0  0  0  0
    2.7538   14.6404   41.5591 N   0  0  0  0  0  0  0  0  0  0  0  0
    1.0500   21.7004   39.4200 O   0  0  0  0  0  0  0  0  0  0  0  0
    1.8381   22.6283   41.3165 O   0  0  0  0  0  0  0  0  0  0  0  0
    3.0399   21.4065   43.0928 O   0  0  0  0  0  0  0  0  0  0  0  0
    2.5400   14.4377   44.0112 S   0  0  0  0  0  0  0  0  0  0  0  0
    0.7953   10.1045   36.9211 Cl  0  0  0  0  0  0  0  0  0  0  0  0
    1.4726   19.2101   39.4567 H   0  0  0  0  0  0  0  0  0  0  0  0
    2.3059   17.0602   40.3467 H   0  0  0  0  0  0  0  0  0  0  0  0
    1.2116   10.9170   41.6729 H   0  0  0  0  0  0  0  0  0  0  0  0
    0.6265    9.5888   39.6998 H   0  0  0  0  0  0  0  0  0  0  0  0
    1.9201   12.7406   37.0976 H   0  0  0  0  0  0  0  0  0  0  0  0
    2.5060   14.0692   39.0715 H   0  0  0  0  0  0  0  0  0  0  0  0
    1.5703   12.1028   43.3916 H   0  0  0  0  0  0  0  0  0  0  0  0
    3.7925   19.0296   43.7990 H   0  0  0  0  0  0  0  0  0  0  0  0
    4.3618   16.7311   43.4175 H   0  0  0  0  0  0  0  0  0  0  0  0
  1  2  1  0
  1 19  1  0
  1 20  2  0
  2  3  1  0
  2 16  2  0
  3  4  2  0
  4  5  1  0
  5 15  2  0
  5 17  1  0
  6 17  1  0
  6 18  2  0
  6 22  1  0
  7  8  1  0
  7 14  2  0
  7 18  1  0
  8  9  1  0
  8 13  2  0
  9 10  2  0
 10 11  1  0
 11 12  2  0
 11 23  1  0
 12 13  1  0
 14 22  1  0
 15 16  1  0
 16 21  1  0
  3 24  1  0
  4 25  1  0
  9 26  1  0
 10 27  1  0
 12 28  1  0
 13 29  1  0
 14 30  1  0
 15 31  1  0
 17 32  1  0
M  CHG  2  19  -1  21  -1
M  END
>  <mol_id>  (74) 
2026-08-23-6tgu-s0-n100-r5-0074

>  <rmsd_to_ref>  (74) 
3.806122448981637

$$$$
6tgu.A
     RDKit          3D

 32 34  0  0  0  0  0  0  0  0999 V2000
    2.0735   15.3706   36.5628 C   0  0  0  0  0  0  0  0  0  0  0  0
    2.0419   16.4287   37.6691 C   0  0  0  0  0  0  0  0  0  0  0  0
    1.8034   17.7664   37.3619 C   0  0  0  0  0  0  0  0  0  0  0  0
    1.5792   18.7269   38.3536 C   0  0  0  0  0  0  0  0  0  0  0  0
    1.7631   18.3999   39.7049 C   0  0  0  0  0  0  0  0  0  0  0  0
    1.1295   19.1764   42.0414 C   0  0  0  0  0  0  0  0  0  0  0  0
    0.7568   18.0638   43.9905 C   0  0  0  0  0  0  0  0  0  0  0  0
    0.7642   16.8995   44.8766 C   0  0  0  0  0  0  0  0  0  0  0  0
    0.1958   16.9369   46.1579 C   0  0  0  0  0  0  0  0  0  0  0  0
    0.1838   15.8081   46.9713 C   0  0  0  0  0  0  0  0  0  0  0  0
    0.7058   14.6281   46.4759 C   0  0  0  0  0  0  0  0  0  0  0  0
    1.2723   14.5451   45.2128 C   0  0  0  0  0  0  0  0  0  0  0  0
    1.2850   15.6883   44.4185 C   0  0  0  0  0  0  0  0  0  0  0  0
    0.2223   19.2792   44.3274 C   0  0  0  0  0  0  0  0  0  0  0  0
    1.9927   17.0559   40.0321 C   0  0  0  0  0  0  0  0  0  0  0  0
    2.1328   16.1066   39.0180 C   0  0  0  0  0  0  0  0  0  0  0  0
    1.4764   19.3503   40.7325 N   0  0  0  0  0  0  0  0  0  0  0  0
    1.2030   17.9431   42.6531 N   0  0  0  0  0  0  0  0  0  0  0  0
    1.7110   15.7478   35.4098 O   0  0  0  0  0  0  0  0  0  0  0  0
    2.3753   14.2052   36.9013 O   0  0  0  0  0  0  0  0  0  0  0  0
    2.2529   14.7783   39.3509 O   0  0  0  0  0  0  0  0  0  0  0  0
    0.2198   20.3478   42.9761 S   0  0  0  0  0  0  0  0  0  0  0  0
    0.6610   13.2042   47.4618 Cl  0  0  0  0  0  0  0  0  0  0  0  0
    1.7909   18.0768   36.3067 H   0  0  0  0  0  0  0  0  0  0  0  0
    1.2581   19.7409   38.0730 H   0  0  0  0  0  0  0  0  0  0  0  0
   -0.2478   17.8738   46.5259 H   0  0  0  0  0  0  0  0  0  0  0  0
   -0.2327   15.8539   47.9884 H   0  0  0  0  0  0  0  0  0  0  0  0
    1.7008   13.6000   44.8479 H   0  0  0  0  0  0  0  0  0  0  0  0
    1.7150   15.6359   43.4074 H   0  0  0  0  0  0  0  0  0  0  0  0
   -0.1551   19.5384   45.3276 H   0  0  0  0  0  0  0  0  0  0  0  0
    2.0623   16.7499   41.0863 H   0  0  0  0  0  0  0  0  0  0  0  0
    1.5427   20.3342   40.4351 H   0  0  0  0  0  0  0  0  0  0  0  0
  1  2  1  0
  1 19  1  0
  1 20  2  0
  2  3  1  0
  2 16  2  0
  3  4  2  0
  4  5  1  0
  5 15  2  0
  5 17  1  0
  6 17  1  0
  6 18  2  0
  6 22  1  0
  7  8  1  0
  7 14  2  0
  7 18  1  0
  8  9  1  0
  8 13  2  0
  9 10  2  0
 10 11  1  0
 11 12  2  0
 11 23  1  0
 12 13  1  0
 14 22  1  0
 15 16  1  0
 16 21  1  0
  3 24  1  0
  4 25  1  0
  9 26  1  0
 10 27  1  0
 12 28  1  0
 13 29  1  0
 14 30  1  0
 15 31  1  0
 17 32  1  0
M  CHG  2  19  -1  21  -1
M  END
>  <mol_id>  (75) 
2026-08-23-6tgu-s0-n100-r5-0075

>  <rmsd_to_ref>  (75) 
3.8520408163360207

$$$$
6tgu.A
     RDKit          3D

 32 34  0  0  0  0  0  0  0  0999 V2000
    0.5165   20.6776   35.4153 C   0  0  0  0  0  0  0  0  0  0  0  0
    0.9298   19.9854   36.6210 C   0  0  0  0  0  0  0  0  0  0  0  0
    1.8717   19.0011   36.6484 C   0  0  0  0  0  0  0  0  0  0  0  0
    2.2442   18.3660   37.7963 C   0  0  0  0  0  0  0  0  0  0  0  0
    1.6626   18.7041   39.0251 C   0  0  0  0  0  0  0  0  0  0  0  0
    1.3973   17.8877   41.3730 C   0  0  0  0  0  0  0  0  0  0  0  0
    1.0602   17.2252   43.5347 C   0  0  0  0  0  0  0  0  0  0  0  0
    1.5042   16.5764   44.7723 C   0  0  0  0  0  0  0  0  0  0  0  0
    0.6835   16.5257   45.8530 C   0  0  0  0  0  0  0  0  0  0  0  0
    1.1313   15.9091   47.0055 C   0  0  0  0  0  0  0  0  0  0  0  0
    2.3794   15.3403   47.1103 C   0  0  0  0  0  0  0  0  0  0  0  0
    3.1988   15.4002   46.0071 C   0  0  0  0  0  0  0  0  0  0  0  0
    2.7526   16.0092   44.8715 C   0  0  0  0  0  0  0  0  0  0  0  0
   -0.2297   17.8278   43.4205 C   0  0  0  0  0  0  0  0  0  0  0  0
    0.7153   19.6983   38.9771 C   0  0  0  0  0  0  0  0  0  0  0  0
    0.3376   20.3423   37.8123 C   0  0  0  0  0  0  0  0  0  0  0  0
    2.0995   18.0210   40.1533 N   0  0  0  0  0  0  0  0  0  0  0  0
    1.7642   17.3256   42.4495 N   0  0  0  0  0  0  0  0  0  0  0  0
    1.1092   20.3233   34.2191 O   0  0  0  0  0  0  0  0  0  0  0  0
   -0.3632   21.5753   35.4905 O   0  0  0  0  0  0  0  0  0  0  0  0
   -0.6282   21.3381   37.8397 O   0  0  0  0  0  0  0  0  0  0  0  0
   -0.2407   18.4629   41.7354 S   0  0  0  0  0  0  0  0  0  0  0  0
    2.9436   14.5656   48.5564 Cl  0  0  0  0  0  0  0  0  0  0  0  0
    2.3321   18.7281   35.6972 H   0  0  0  0  0  0  0  0  0  0  0  0
    3.0019   17.5970   37.7179 H   0  0  0  0  0  0  0  0  0  0  0  0
   -0.3065   16.9549   45.8317 H   0  0  0  0  0  0  0  0  0  0  0  0
    0.4545   15.8841   47.8502 H   0  0  0  0  0  0  0  0  0  0  0  0
    4.2002   14.9698   46.0256 H   0  0  0  0  0  0  0  0  0  0  0  0
    3.3903   16.0612   43.9968 H   0  0  0  0  0  0  0  0  0  0  0  0
   -1.0468   17.8969   44.1822 H   0  0  0  0  0  0  0  0  0  0  0  0
    0.2255   20.0247   39.8783 H   0  0  0  0  0  0  0  0  0  0  0  0
    3.0497   17.5475   40.1193 H   0  0  0  0  0  0  0  0  0  0  0  0
  1  2  1  0
  1 19  1  0
  1 20  2  0
  2  3  1  0
  2 16  2  0
  3  4  2  0
  4  5  1  0
  5 15  2  0
  5 17  1  0
  6 17  1  0
  6 18  2  0
  6 22  1  0
  7  8  1  0
  7 14  2  0
  7 18  1  0
  8  9  1  0
  8 13  2  0
  9 10  2  0
 10 11  1  0
 11 12  2  0
 11 23  1  0
 12 13  1  0
 14 22  1  0
 15 16  1  0
 16 21  1  0
  3 24  1  0
  4 25  1  0
  9 26  1  0
 10 27  1  0
 12 28  1  0
 13 29  1  0
 14 30  1  0
 15 31  1  0
 17 32  1  0
M  CHG  2  19  -1  21  -1
M  END
>  <mol_id>  (76) 
2026-08-23-6tgu-s0-n100-r5-0076

>  <rmsd_to_ref>  (76) 
3.897959183678578

$$$$
6tgu.A
     RDKit          3D

 32 34  0  0  0  0  0  0  0  0999 V2000
   -0.4444   20.2416   37.5321 C   0  0  0  0  0  0  0  0  0  0  0  0
   -0.2108   19.7290   38.9559 C   0  0  0  0  0  0  0  0  0  0  0  0
   -1.2751   19.6043   39.8462 C   0  0  0  0  0  0  0  0  0  0  0  0
   -1.1368   18.9661   41.0831 C   0  0  0  0  0  0  0  0  0  0  0  0
    0.1328   18.5840   41.5402 C   0  0  0  0  0  0  0  0  0  0  0  0
    1.2605   17.0226   43.1997 C   0  0  0  0  0  0  0  0  0  0  0  0
    3.2430   15.9072   43.1689 C   0  0  0  0  0  0  0  0  0  0  0  0
    4.5731   15.5780   42.6553 C   0  0  0  0  0  0  0  0  0  0  0  0
    5.3376   14.5306   43.1888 C   0  0  0  0  0  0  0  0  0  0  0  0
    6.5860   14.2129   42.6631 C   0  0  0  0  0  0  0  0  0  0  0  0
    7.0456   14.9230   41.5699 C   0  0  0  0  0  0  0  0  0  0  0  0
    6.3199   15.9623   41.0075 C   0  0  0  0  0  0  0  0  0  0  0  0
    5.0780   16.2724   41.5549 C   0  0  0  0  0  0  0  0  0  0  0  0
    2.6393   15.2502   44.2082 C   0  0  0  0  0  0  0  0  0  0  0  0
    1.2127   18.6925   40.6525 C   0  0  0  0  0  0  0  0  0  0  0  0
    1.0236   19.2631   39.3925 C   0  0  0  0  0  0  0  0  0  0  0  0
    0.2834   17.8743   42.7711 N   0  0  0  0  0  0  0  0  0  0  0  0
    2.4429   16.8687   42.5075 N   0  0  0  0  0  0  0  0  0  0  0  0
   -1.6504   20.3780   37.1714 O   0  0  0  0  0  0  0  0  0  0  0  0
    0.5674   20.4066   36.8159 O   0  0  0  0  0  0  0  0  0  0  0  0
    2.0632   19.2692   38.4930 O   0  0  0  0  0  0  0  0  0  0  0  0
    1.0119   15.7784   44.4094 S   0  0  0  0  0  0  0  0  0  0  0  0
    8.5802   14.5117   40.8790 Cl  0  0  0  0  0  0  0  0  0  0  0  0
   -2.2544   20.0206   39.5677 H   0  0  0  0  0  0  0  0  0  0  0  0
   -2.0257   18.7635   41.6986 H   0  0  0  0  0  0  0  0  0  0  0  0
    4.9439   13.9507   44.0366 H   0  0  0  0  0  0  0  0  0  0  0  0
    7.1951   13.4126   43.1086 H   0  0  0  0  0  0  0  0  0  0  0  0
    6.7156   16.5273   40.1506 H   0  0  0  0  0  0  0  0  0  0  0  0
    4.4815   17.0827   41.1103 H   0  0  0  0  0  0  0  0  0  0  0  0
    3.1284   14.4870   44.8314 H   0  0  0  0  0  0  0  0  0  0  0  0
    2.2076   18.3285   40.9485 H   0  0  0  0  0  0  0  0  0  0  0  0
   -0.4741   18.0322   43.4508 H   0  0  0  0  0  0  0  0  0  0  0  0
  1  2  1  0
  1 19  1  0
  1 20  2  0
  2  3  1  0
  2 16  2  0
  3  4  2  0
  4  5  1  0
  5 15  2  0
  5 17  1  0
  6 17  1  0
  6 18  2  0
  6 22  1  0
  7  8  1  0
  7 14  2  0
  7 18  1  0
  8  9  1  0
  8 13  2  0
  9 10  2  0
 10 11  1  0
 11 12  2  0
 11 23  1  0
 12 13  1  0
 14 22  1  0
 15 16  1  0
 16 21  1  0
  3 24  1  0
  4 25  1  0
  9 26  1  0
 10 27  1  0
 12 28  1  0
 13 29  1  0
 14 30  1  0
 15 31  1  0
 17 32  1  0
M  CHG  2  19  -1  21  -1
M  END
>  <mol_id>  (77) 
2026-08-23-6tgu-s0-n100-r5-0077

>  <rmsd_to_ref>  (77) 
3.9438775510212674

$$$$
6tgu.A
     RDKit          3D

 32 34  0  0  0  0  0  0  0  0999 V2000
   -1.5592   19.2079   36.2191 C   0  0  0  0  0  0  0  0  0  0  0  0
   -0.5639   19.3731   37.2736 C   0  0  0  0  0  0  0  0  0  0  0  0
   -1.0239   19.3833   38.5871 C   0  0  0  0  0  0  0  0  0  0  0  0
   -0.1451   19.5206   39.6570 C   0  0  0  0  0  0  0  0  0  0  0  0
    1.1855   19.6455   39.3421 C   0  0  0  0  0  0  0  0  0  0  0  0
    2.3072   18.4899   41.1413 C   0  0  0  0  0  0  0  0  0  0  0  0
    3.0178   16.6843   42.2565 C   0  0  0  0  0  0  0  0  0  0  0  0
    4.1515   15.8684   42.7453 C   0  0  0  0  0  0  0  0  0  0  0  0
    5.4651   16.2175   42.5269 C   0  0  0  0  0  0  0  0  0  0  0  0
    6.4780   15.3912   43.0102 C   0  0  0  0  0  0  0  0  0  0  0  0
    6.2161   14.2313   43.7023 C   0  0  0  0  0  0  0  0  0  0  0  0
    4.8974   13.8747   43.9267 C   0  0  0  0  0  0  0  0  0  0  0  0
    3.9098   14.6886   43.4492 C   0  0  0  0  0  0  0  0  0  0  0  0
    1.7207   16.3024   42.4632 C   0  0  0  0  0  0  0  0  0  0  0  0
    1.6742   19.6418   38.0449 C   0  0  0  0  0  0  0  0  0  0  0  0
    0.7782   19.5010   36.9863 C   0  0  0  0  0  0  0  0  0  0  0  0
    2.1732   19.7252   40.3965 N   0  0  0  0  0  0  0  0  0  0  0  0
    3.1247   17.8110   41.5731 N   0  0  0  0  0  0  0  0  0  0  0  0
   -2.9074   19.0720   36.5045 O   0  0  0  0  0  0  0  0  0  0  0  0
   -1.1861   19.1852   35.0260 O   0  0  0  0  0  0  0  0  0  0  0  0
    1.2164   19.4885   35.6723 O   0  0  0  0  0  0  0  0  0  0  0  0
    0.7478   17.5853   41.6579 S   0  0  0  0  0  0  0  0  0  0  0  0
    7.4516   13.1778   44.3215 Cl  0  0  0  0  0  0  0  0  0  0  0  0
   -2.0951   19.2845   38.8021 H   0  0  0  0  0  0  0  0  0  0  0  0
   -0.5416   19.5258   40.6412 H   0  0  0  0  0  0  0  0  0  0  0  0
    5.7041   17.1172   41.9838 H   0  0  0  0  0  0  0  0  0  0  0  0
    7.5201   15.6531   42.8495 H   0  0  0  0  0  0  0  0  0  0  0  0
    4.6366   12.9686   44.4715 H   0  0  0  0  0  0  0  0  0  0  0  0
    2.8793   14.3620   43.6455 H   0  0  0  0  0  0  0  0  0  0  0  0
    1.2987   15.4394   42.9836 H   0  0  0  0  0  0  0  0  0  0  0  0
    2.7430   19.7454   37.8387 H   0  0  0  0  0  0  0  0  0  0  0  0
    2.7156   20.5674   40.5981 H   0  0  0  0  0  0  0  0  0  0  0  0
  1  2  1  0
  1 19  1  0
  1 20  2  0
  2  3  1  0
  2 16  2  0
  3  4  2  0
  4  5  1  0
  5 15  2  0
  5 17  1  0
  6 17  1  0
  6 18  2  0
  6 22  1  0
  7  8  1  0
  7 14  2  0
  7 18  1  0
  8  9  1  0
  8 13  2  0
  9 10  2  0
 10 11  1  0
 11 12  2  0
 11 23  1  0
 12 13  1  0
 14 22  1  0
 15 16  1  0
 16 21  1  0
  3 24  1  0
  4 25  1  0
  9 26  1  0
 10 27  1  0
 12 28  1  0
 13 29  1  0
 14 30  1  0
 15 31  1  0
 17 32  1  0
M  CHG  2  19  -1  21  -1
M  END
>  <mol_id>  (78) 
2026-08-23-6tgu-s0-n100-r5-0078

>  <rmsd_to_ref>  (78) 
3.9897959183675193

$$$$
6tgu.A
     RDKit          3D

 32 34  0  0  0  0  0  0  0  0999 V2000
    1.1596   21.5816   42.7617 C   0  0  0  0  0  0  0  0  0  0  0  0
    0.2360   20.4199   42.3847 C   0  0  0  0  0  0  0  0  0  0  0  0
   -0.9562   20.6564   41.7039 C   0  0  0  0  0  0  0  0  0  0  0  0
   -1.7290   19.6161   41.1776 C   0  0  0  0  0  0  0  0  0  0  0  0
   -1.4113   18.2829   41.4750 C   0  0  0  0  0  0  0  0  0  0  0  0
   -1.8000   15.9135   40.6395 C   0  0  0  0  0  0  0  0  0  0  0  0
   -0.5237   14.0308   40.6856 C   0  0  0  0  0  0  0  0  0  0  0  0
    0.6153   13.2089   41.0960 C   0  0  0  0  0  0  0  0  0  0  0  0
    0.8418   11.9325   40.5616 C   0  0  0  0  0  0  0  0  0  0  0  0
    1.9499   11.1816   40.9411 C   0  0  0  0  0  0  0  0  0  0  0  0
    2.8547   11.7355   41.8270 C   0  0  0  0  0  0  0  0  0  0  0  0
    2.6726   12.9962   42.3753 C   0  0  0  0  0  0  0  0  0  0  0  0
    1.5517   13.7274   41.9918 C   0  0  0  0  0  0  0  0  0  0  0  0
   -1.4660   13.6332   39.7743 C   0  0  0  0  0  0  0  0  0  0  0  0
   -0.2091   18.0270   42.1497 C   0  0  0  0  0  0  0  0  0  0  0  0
    0.5804   19.0897   42.5930 C   0  0  0  0  0  0  0  0  0  0  0  0
   -2.1514   17.2079   40.8937 N   0  0  0  0  0  0  0  0  0  0  0  0
   -0.6335   15.3687   41.1328 N   0  0  0  0  0  0  0  0  0  0  0  0
    0.8660   22.7156   42.2812 O   0  0  0  0  0  0  0  0  0  0  0  0
    2.1701   21.3040   43.4440 O   0  0  0  0  0  0  0  0  0  0  0  0
    1.8054   18.8281   43.1595 O   0  0  0  0  0  0  0  0  0  0  0  0
   -2.5416   14.9247   39.3963 S   0  0  0  0  0  0  0  0  0  0  0  0
    4.2605   10.8286   42.2773 Cl  0  0  0  0  0  0  0  0  0  0  0  0
   -1.3004   21.6933   41.5763 H   0  0  0  0  0  0  0  0  0  0  0  0
   -2.5877   19.8442   40.5290 H   0  0  0  0  0  0  0  0  0  0  0  0
    0.1319   11.5182   39.8306 H   0  0  0  0  0  0  0  0  0  0  0  0
    2.1029   10.1672   40.5440 H   0  0  0  0  0  0  0  0  0  0  0  0
    3.3955   13.4080   43.0949 H   0  0  0  0  0  0  0  0  0  0  0  0
    1.4007   14.7361   42.4039 H   0  0  0  0  0  0  0  0  0  0  0  0
   -1.5276   12.6238   39.3416 H   0  0  0  0  0  0  0  0  0  0  0  0
    0.1116   16.9903   42.3296 H   0  0  0  0  0  0  0  0  0  0  0  0
   -3.1141   17.4510   40.6197 H   0  0  0  0  0  0  0  0  0  0  0  0
  1  2  1  0
  1 19  1  0
  1 20  2  0
  2  3  1  0
  2 16  2  0
  3  4  2  0
  4  5  1  0
  5 15  2  0
  5 17  1  0
  6 17  1  0
  6 18  2  0
  6 22  1  0
  7  8  1  0
  7 14  2  0
  7 18  1  0
  8  9  1  0
  8 13  2  0
  9 10  2  0
 10 11  1  0
 11 12  2  0
 11 23  1  0
 12 13  1  0
 14 22  1  0
 15 16  1  0
 16 21  1  0
  3 24  1  0
  4 25  1  0
  9 26  1  0
 10 27  1  0
 12 28  1  0
 13 29  1  0
 14 30  1  0
 15 31  1  0
 17 32  1  0
M  CHG  2  19  -1  21  -1
M  END
>  <mol_id>  (79) 
2026-08-23-6tgu-s0-n100-r5-0079

>  <rmsd_to_ref>  (79) 
4.035714285715243

$$$$
6tgu.A
     RDKit          3D

 32 34  0  0  0  0  0  0  0  0999 V2000
   -1.2814   18.0381   36.1975 C   0  0  0  0  0  0  0  0  0  0  0  0
   -0.7133   18.5895   37.4314 C   0  0  0  0  0  0  0  0  0  0  0  0
    0.6400   18.9161   37.4783 C   0  0  0  0  0  0  0  0  0  0  0  0
    1.1426   19.4210   38.6586 C   0  0  0  0  0  0  0  0  0  0  0  0
    0.3094   19.5935   39.7562 C   0  0  0  0  0  0  0  0  0  0  0  0
    1.4552   19.0363   41.7902 C   0  0  0  0  0  0  0  0  0  0  0  0
    2.7538   17.3014   42.3910 C   0  0  0  0  0  0  0  0  0  0  0  0
    3.8065   16.3477   41.9529 C   0  0  0  0  0  0  0  0  0  0  0  0
    4.2847   15.3641   42.7854 C   0  0  0  0  0  0  0  0  0  0  0  0
    5.2426   14.4762   42.3434 C   0  0  0  0  0  0  0  0  0  0  0  0
    5.7721   14.5201   41.0611 C   0  0  0  0  0  0  0  0  0  0  0  0
    5.2878   15.5127   40.2339 C   0  0  0  0  0  0  0  0  0  0  0  0
    4.3374   16.3879   40.6786 C   0  0  0  0  0  0  0  0  0  0  0  0
    2.1952   17.2741   43.5871 C   0  0  0  0  0  0  0  0  0  0  0  0
   -1.0308   19.2767   39.7228 C   0  0  0  0  0  0  0  0  0  0  0  0
   -1.5332   18.7715   38.5444 C   0  0  0  0  0  0  0  0  0  0  0  0
    0.8203   20.0754   41.0128 N   0  0  0  0  0  0  0  0  0  0  0  0
    2.2872   18.2375   41.5922 N   0  0  0  0  0  0  0  0  0  0  0  0
   -2.6153   17.6942   36.1235 O   0  0  0  0  0  0  0  0  0  0  0  0
   -0.5790   17.8586   35.1619 O   0  0  0  0  0  0  0  0  0  0  0  0
   -2.8868   18.4516   38.5226 O   0  0  0  0  0  0  0  0  0  0  0  0
    0.9459   18.6684   43.5222 S   0  0  0  0  0  0  0  0  0  0  0  0
    6.9746   13.3932   40.4947 Cl  0  0  0  0  0  0  0  0  0  0  0  0
    1.2951   18.7815   36.6269 H   0  0  0  0  0  0  0  0  0  0  0  0
    2.2105   19.6943   38.7480 H   0  0  0  0  0  0  0  0  0  0  0  0
    3.8919   15.3065   43.7997 H   0  0  0  0  0  0  0  0  0  0  0  0
    5.5856   13.7128   43.0431 H   0  0  0  0  0  0  0  0  0  0  0  0
    5.6404   15.6347   39.2073 H   0  0  0  0  0  0  0  0  0  0  0  0
    3.9713   17.1642   40.0073 H   0  0  0  0  0  0  0  0  0  0  0  0
    2.2943   16.6617   44.5296 H   0  0  0  0  0  0  0  0  0  0  0  0
   -1.6259   19.4351   40.6047 H   0  0  0  0  0  0  0  0  0  0  0  0
    0.7419   21.0538   41.3312 H   0  0  0  0  0  0  0  0  0  0  0  0
  1  2  1  0
  1 19  1  0
  1 20  2  0
  2  3  1  0
  2 16  2  0
  3  4  2  0
  4  5  1  0
  5 15  2  0
  5 17  1  0
  6 17  1  0
  6 18  2  0
  6 22  1  0
  7  8  1  0
  7 14  2  0
  7 18  1  0
  8  9  1  0
  8 13  2  0
  9 10  2  0
 10 11  1  0
 11 12  2  0
 11 23  1  0
 12 13  1  0
 14 22  1  0
 15 16  1  0
 16 21  1  0
  3 24  1  0
  4 25  1  0
  9 26  1  0
 10 27  1  0
 12 28  1  0
 13 29  1  0
 14 30  1  0
 15 31  1  0
 17 32  1  0
M  CHG  2  19  -1  21  -1
M  END
>  <mol_id>  (80) 
2026-08-23-6tgu-s0-n100-r5-0080

>  <rmsd_to_ref>  (80) 
4.081632653067731

$$$$
6tgu.A
     RDKit          3D

 32 34  0  0  0  0  0  0  0  0999 V2000
    1.7350   16.0037   36.0006 C   0  0  0  0  0  0  0  0  0  0  0  0
    1.5190   16.8906   37.2299 C   0  0  0  0  0  0  0  0  0  0  0  0
    0.3799   17.6854   37.3374 C   0  0  0  0  0  0  0  0  0  0  0  0
    0.0541   18.3592   38.5190 C   0  0  0  0  0  0  0  0  0  0  0  0
    0.9657   18.3938   39.5841 C   0  0  0  0  0  0  0  0  0  0  0  0
    1.0803   18.8130   42.0890 C   0  0  0  0  0  0  0  0  0  0  0  0
    2.3990   17.9658   43.7380 C   0  0  0  0  0  0  0  0  0  0  0  0
    3.5314   17.2115   44.2762 C   0  0  0  0  0  0  0  0  0  0  0  0
    3.7018   17.0078   45.6530 C   0  0  0  0  0  0  0  0  0  0  0  0
    4.7677   16.2587   46.1414 C   0  0  0  0  0  0  0  0  0  0  0  0
    5.6383   15.6771   45.2390 C   0  0  0  0  0  0  0  0  0  0  0  0
    5.5037   15.8481   43.8694 C   0  0  0  0  0  0  0  0  0  0  0  0
    4.4373   16.6105   43.4008 C   0  0  0  0  0  0  0  0  0  0  0  0
    1.4292   18.5471   44.5113 C   0  0  0  0  0  0  0  0  0  0  0  0
    2.1118   17.5907   39.4966 C   0  0  0  0  0  0  0  0  0  0  0  0
    2.3674   16.8669   38.3305 C   0  0  0  0  0  0  0  0  0  0  0  0
    0.6222   19.0226   40.8202 N   0  0  0  0  0  0  0  0  0  0  0  0
    2.1799   18.0205   42.3411 N   0  0  0  0  0  0  0  0  0  0  0  0
    0.7637   15.9102   35.1938 O   0  0  0  0  0  0  0  0  0  0  0  0
    2.8178   15.3819   35.9333 O   0  0  0  0  0  0  0  0  0  0  0  0
    3.4363   16.0033   38.2945 O   0  0  0  0  0  0  0  0  0  0  0  0
    0.1593   19.1808   43.5347 S   0  0  0  0  0  0  0  0  0  0  0  0
    6.9465   14.7078   45.8310 Cl  0  0  0  0  0  0  0  0  0  0  0  0
   -0.2838   17.7861   36.4660 H   0  0  0  0  0  0  0  0  0  0  0  0
   -0.9193   18.8629   38.6131 H   0  0  0  0  0  0  0  0  0  0  0  0
    2.9811   17.4472   46.3583 H   0  0  0  0  0  0  0  0  0  0  0  0
    4.9146   16.1318   47.2242 H   0  0  0  0  0  0  0  0  0  0  0  0
    6.2214   15.3928   43.1711 H   0  0  0  0  0  0  0  0  0  0  0  0
    4.3057   16.7421   42.3167 H   0  0  0  0  0  0  0  0  0  0  0  0
    1.4574   18.6019   45.6095 H   0  0  0  0  0  0  0  0  0  0  0  0
    2.8086   17.5311   40.3456 H   0  0  0  0  0  0  0  0  0  0  0  0
   -0.0929   19.7597   40.7404 H   0  0  0  0  0  0  0  0  0  0  0  0
  1  2  1  0
  1 19  1  0
  1 20  2  0
  2  3  1  0
  2 16  2  0
  3  4  2  0
  4  5  1  0
  5 15  2  0
  5 17  1  0
  6 17  1  0
  6 18  2  0
  6 22  1  0
  7  8  1  0
  7 14  2  0
  7 18  1  0
  8  9  1  0
  8 13  2  0
  9 10  2  0
 10 11  1  0
 11 12  2  0
 11 23  1  0
 12 13  1  0
 14 22  1  0
 15 16  1  0
 16 21  1  0
  3 24  1  0
  4 25  1  0
  9 26  1  0
 10 27  1  0
 12 28  1  0
 13 29  1  0
 14 30  1  0
 15 31  1  0
 17 32  1  0
M  CHG  2  19  -1  21  -1
M  END
>  <mol_id>  (81) 
2026-08-23-6tgu-s0-n100-r5-0081

>  <rmsd_to_ref>  (81) 
4.1275510204087125

$$$$
6tgu.A
     RDKit          3D

 32 34  0  0  0  0  0  0  0  0999 V2000
    4.4738   18.8442   38.5301 C   0  0  0  0  0  0  0  0  0  0  0  0
    3.7320   18.5714   39.7497 C   0  0  0  0  0  0  0  0  0  0  0  0
    3.9238   19.3354   40.8847 C   0  0  0  0  0  0  0  0  0  0  0  0
    3.1890   19.0258   42.0075 C   0  0  0  0  0  0  0  0  0  0  0  0
    2.2692   17.9761   42.0292 C   0  0  0  0  0  0  0  0  0  0  0  0
    0.5932   16.5729   43.1495 C   0  0  0  0  0  0  0  0  0  0  0  0
   -1.2151   15.2546   42.9132 C   0  0  0  0  0  0  0  0  0  0  0  0
   -2.6508   15.1782   42.5320 C   0  0  0  0  0  0  0  0  0  0  0  0
   -3.3293   13.9787   42.5834 C   0  0  0  0  0  0  0  0  0  0  0  0
   -4.6570   13.8508   42.2408 C   0  0  0  0  0  0  0  0  0  0  0  0
   -5.3525   14.9670   41.8251 C   0  0  0  0  0  0  0  0  0  0  0  0
   -4.6929   16.1730   41.7672 C   0  0  0  0  0  0  0  0  0  0  0  0
   -3.3629   16.2780   42.1150 C   0  0  0  0  0  0  0  0  0  0  0  0
   -0.5155   14.1903   43.3159 C   0  0  0  0  0  0  0  0  0  0  0  0
    2.1088   17.2308   40.8580 C   0  0  0  0  0  0  0  0  0  0  0  0
    2.8339   17.5181   39.7116 C   0  0  0  0  0  0  0  0  0  0  0  0
    1.5172   17.6670   43.1887 N   0  0  0  0  0  0  0  0  0  0  0  0
   -0.5366   16.3802   42.8772 N   0  0  0  0  0  0  0  0  0  0  0  0
    5.4095   19.8844   38.4517 O   0  0  0  0  0  0  0  0  0  0  0  0
    4.2713   18.1273   37.5158 O   0  0  0  0  0  0  0  0  0  0  0  0
    2.6180   16.7388   38.6031 O   0  0  0  0  0  0  0  0  0  0  0  0
    1.1448   14.8584   43.6401 S   0  0  0  0  0  0  0  0  0  0  0  0
   -7.0381   14.8819   41.3748 Cl  0  0  0  0  0  0  0  0  0  0  0  0
    4.6250   20.1491   40.8954 H   0  0  0  0  0  0  0  0  0  0  0  0
    3.3461   19.6348   42.9015 H   0  0  0  0  0  0  0  0  0  0  0  0
   -2.7819   13.1125   42.9082 H   0  0  0  0  0  0  0  0  0  0  0  0
   -5.1358   12.8771   42.3028 H   0  0  0  0  0  0  0  0  0  0  0  0
   -5.1831   17.1018   41.4460 H   0  0  0  0  0  0  0  0  0  0  0  0
   -2.8166   17.2251   42.0774 H   0  0  0  0  0  0  0  0  0  0  0  0
   -0.7613   13.1136   43.4615 H   0  0  0  0  0  0  0  0  0  0  0  0
    1.3876   16.4130   40.8866 H   0  0  0  0  0  0  0  0  0  0  0  0
    1.6634   18.2504   44.0367 H   0  0  0  0  0  0  0  0  0  0  0  0
  1  2  1  0
  1 19  1  0
  1 20  2  0
  2  3  1  0
  2 16  2  0
  3  4  2  0
  4  5  1  0
  5 15  2  0
  5 17  1  0
  6 17  1  0
  6 18  2  0
  6 22  1  0
  7  8  1  0
  7 14  2  0
  7 18  1  0
  8  9  1  0
  8 13  2  0
  9 10  2  0
 10 11  1  0
 11 12  2  0
 11 23  1  0
 12 13  1  0
 14 22  1  0
 15 16  1  0
 16 21  1  0
  3 24  1  0
  4 25  1  0
  9 26  1  0
 10 27  1  0
 12 28  1  0
 13 29  1  0
 14 30  1  0
 15 31  1  0
 17 32  1  0
M  CHG  2  19  -1  21  -1
M  END
>  <mol_id>  (82) 
2026-08-23-6tgu-s0-n100-r5-0082

>  <rmsd_to_ref>  (82) 
4.173469387758314

$$$$
6tgu.A
     RDKit          3D

 32 34  0  0  0  0  0  0  0  0999 V2000
    2.7409   15.4125   36.8437 C   0  0  0  0  0  0  0  0  0  0  0  0
    2.1864   16.5241   37.7391 C   0  0  0  0  0  0  0  0  0  0  0  0
    1.3450   17.5021   37.2135 C   0  0  0  0  0  0  0  0  0  0  0  0
    0.6701   18.4165   38.0289 C   0  0  0  0  0  0  0  0  0  0  0  0
    0.9606   18.4861   39.3991 C   0  0  0  0  0  0  0  0  0  0  0  0
   -0.0131   19.3123   41.5974 C   0  0  0  0  0  0  0  0  0  0  0  0
    0.1510   18.5609   43.7385 C   0  0  0  0  0  0  0  0  0  0  0  0
    0.6950   17.7362   44.8179 C   0  0  0  0  0  0  0  0  0  0  0  0
    0.1521   17.7511   46.1106 C   0  0  0  0  0  0  0  0  0  0  0  0
    0.6637   16.9337   47.1136 C   0  0  0  0  0  0  0  0  0  0  0  0
    1.6950   16.0679   46.8020 C   0  0  0  0  0  0  0  0  0  0  0  0
    2.2576   16.0165   45.5356 C   0  0  0  0  0  0  0  0  0  0  0  0
    1.7395   16.8504   44.5486 C   0  0  0  0  0  0  0  0  0  0  0  0
   -0.9051   19.4203   43.8893 C   0  0  0  0  0  0  0  0  0  0  0  0
    1.7968   17.5024   39.9460 C   0  0  0  0  0  0  0  0  0  0  0  0
    2.3929   16.5537   39.1131 C   0  0  0  0  0  0  0  0  0  0  0  0
    0.2350   19.3694   40.2562 N   0  0  0  0  0  0  0  0  0  0  0  0
    0.6274   18.4058   42.4152 N   0  0  0  0  0  0  0  0  0  0  0  0
    2.2655   15.3407   35.6724 O   0  0  0  0  0  0  0  0  0  0  0  0
    3.5551   14.6187   37.3639 O   0  0  0  0  0  0  0  0  0  0  0  0
    3.1253   15.5329   39.6712 O   0  0  0  0  0  0  0  0  0  0  0  0
   -1.3898   20.0739   42.3708 S   0  0  0  0  0  0  0  0  0  0  0  0
    2.3150   15.0149   48.0302 Cl  0  0  0  0  0  0  0  0  0  0  0  0
    1.2071   17.5569   36.1236 H   0  0  0  0  0  0  0  0  0  0  0  0
   -0.0900   19.0824   37.5944 H   0  0  0  0  0  0  0  0  0  0  0  0
   -0.6918   18.4199   46.3353 H   0  0  0  0  0  0  0  0  0  0  0  0
    0.2554   16.9757   48.1342 H   0  0  0  0  0  0  0  0  0  0  0  0
    3.0922   15.3341   45.3165 H   0  0  0  0  0  0  0  0  0  0  0  0
    2.1625   16.8102   43.5340 H   0  0  0  0  0  0  0  0  0  0  0  0
   -1.3803   19.6609   44.8517 H   0  0  0  0  0  0  0  0  0  0  0  0
    1.9828   17.4781   41.0299 H   0  0  0  0  0  0  0  0  0  0  0  0
   -0.1700   20.1887   39.7812 H   0  0  0  0  0  0  0  0  0  0  0  0
  1  2  1  0
  1 19  1  0
  1 20  2  0
  2  3  1  0
  2 16  2  0
  3  4  2  0
  4  5  1  0
  5 15  2  0
  5 17  1  0
  6 17  1  0
  6 18  2  0
  6 22  1  0
  7  8  1  0
  7 14  2  0
  7 18  1  0
  8  9  1  0
  8 13  2  0
  9 10  2  0
 10 11  1  0
 11 12  2  0
 11 23  1  0
 12 13  1  0
 14 22  1  0
 15 16  1  0
 16 21  1  0
  3 24  1  0
  4 25  1  0
  9 26  1  0
 10 27  1  0
 12 28  1  0
 13 29  1  0
 14 30  1  0
 15 31  1  0
 17 32  1  0
M  CHG  2  19  -1  21  -1
M  END
>  <mol_id>  (83) 
2026-08-23-6tgu-s0-n100-r5-0083

>  <rmsd_to_ref>  (83) 
4.219387755108515

$$$$
6tgu.A
     RDKit          3D

 32 34  0  0  0  0  0  0  0  0999 V2000
    0.2954   18.5789   35.4257 C   0  0  0  0  0  0  0  0  0  0  0  0
    0.6890   18.1751   36.7565 C   0  0  0  0  0  0  0  0  0  0  0  0
    2.0059   18.0711   37.1501 C   0  0  0  0  0  0  0  0  0  0  0  0
    2.3716   17.6869   38.4169 C   0  0  0  0  0  0  0  0  0  0  0  0
    1.4005   17.3773   39.3855 C   0  0  0  0  0  0  0  0  0  0  0  0
    1.0207   17.0636   41.8086 C   0  0  0  0  0  0  0  0  0  0  0  0
    0.6878   16.7442   44.0654 C   0  0  0  0  0  0  0  0  0  0  0  0
    1.0977   16.3174   45.4525 C   0  0  0  0  0  0  0  0  0  0  0  0
    0.2178   16.4459   46.4898 C   0  0  0  0  0  0  0  0  0  0  0  0
    0.6504   16.0381   47.7404 C   0  0  0  0  0  0  0  0  0  0  0  0
    1.9010   15.5202   47.9790 C   0  0  0  0  0  0  0  0  0  0  0  0
    2.7821   15.3944   46.9256 C   0  0  0  0  0  0  0  0  0  0  0  0
    2.3483   15.7996   45.6906 C   0  0  0  0  0  0  0  0  0  0  0  0
   -0.5783   17.2572   43.8927 C   0  0  0  0  0  0  0  0  0  0  0  0
    0.1011   17.4874   38.9712 C   0  0  0  0  0  0  0  0  0  0  0  0
   -0.2720   17.8750   37.6931 C   0  0  0  0  0  0  0  0  0  0  0  0
    1.8654   16.9915   40.6298 N   0  0  0  0  0  0  0  0  0  0  0  0
    1.5060   16.6276   43.0870 N   0  0  0  0  0  0  0  0  0  0  0  0
    1.1871   18.8970   34.4289 O   0  0  0  0  0  0  0  0  0  0  0  0
   -0.9323   18.6448   35.1599 O   0  0  0  0  0  0  0  0  0  0  0  0
   -1.6221   17.9647   37.3444 O   0  0  0  0  0  0  0  0  0  0  0  0
   -0.5626   17.6114   42.0686 S   0  0  0  0  0  0  0  0  0  0  0  0
    2.3162   15.0434   49.6175 Cl  0  0  0  0  0  0  0  0  0  0  0  0
    2.7485   18.3180   36.3770 H   0  0  0  0  0  0  0  0  0  0  0  0
    3.4257   17.6344   38.6318 H   0  0  0  0  0  0  0  0  0  0  0  0
   -0.7713   16.8405   46.3781 H   0  0  0  0  0  0  0  0  0  0  0  0
   -0.0544   16.1450   48.5493 H   0  0  0  0  0  0  0  0  0  0  0  0
    3.7708   14.9869   47.1043 H   0  0  0  0  0  0  0  0  0  0  0  0
    3.0521   15.6957   44.8676 H   0  0  0  0  0  0  0  0  0  0  0  0
   -1.3550   17.4282   44.5155 H   0  0  0  0  0  0  0  0  0  0  0  0
   -0.7041   17.2602   39.6467 H   0  0  0  0  0  0  0  0  0  0  0  0
    2.8304   16.6382   40.7571 H   0  0  0  0  0  0  0  0  0  0  0  0
  1  2  1  0
  1 19  1  0
  1 20  2  0
  2  3  1  0
  2 16  2  0
  3  4  2  0
  4  5  1  0
  5 15  2  0
  5 17  1  0
  6 17  1  0
  6 18  2  0
  6 22  1  0
  7  8  1  0
  7 14  2  0
  7 18  1  0
  8  9  1  0
  8 13  2  0
  9 10  2  0
 10 11  1  0
 11 12  2  0
 11 23  1  0
 12 13  1  0
 14 22  1  0
 15 16  1  0
 16 21  1  0
  3 24  1  0
  4 25  1  0
  9 26  1  0
 10 27  1  0
 12 28  1  0
 13 29  1  0
 14 30  1  0
 15 31  1  0
 17 32  1  0
M  CHG  2  19  -1  21  -1
M  END
>  <mol_id>  (84) 
2026-08-23-6tgu-s0-n100-r5-0084

>  <rmsd_to_ref>  (84) 
4.265306122450873

$$$$
6tgu.A
     RDKit          3D

 32 34  0  0  0  0  0  0  0  0999 V2000
    7.4422   15.4897   38.5897 C   0  0  0  0  0  0  0  0  0  0  0  0
    6.4349   16.4925   39.1592 C   0  0  0  0  0  0  0  0  0  0  0  0
    6.4649   17.8277   38.7629 C   0  0  0  0  0  0  0  0  0  0  0  0
    5.4523   18.7278   39.1105 C   0  0  0  0  0  0  0  0  0  0  0  0
    4.4570   18.3497   40.0233 C   0  0  0  0  0  0  0  0  0  0  0  0
    2.1154   18.9819   40.7850 C   0  0  0  0  0  0  0  0  0  0  0  0
    0.3697   17.7621   41.5853 C   0  0  0  0  0  0  0  0  0  0  0  0
   -0.2804   16.5604   42.1092 C   0  0  0  0  0  0  0  0  0  0  0  0
   -1.6605   16.5076   42.3514 C   0  0  0  0  0  0  0  0  0  0  0  0
   -2.2635   15.3436   42.8180 C   0  0  0  0  0  0  0  0  0  0  0  0
   -1.4817   14.2182   42.9987 C   0  0  0  0  0  0  0  0  0  0  0  0
   -0.1146   14.2247   42.7660 C   0  0  0  0  0  0  0  0  0  0  0  0
    0.4720   15.4022   42.3103 C   0  0  0  0  0  0  0  0  0  0  0  0
   -0.2901   18.9294   41.3051 C   0  0  0  0  0  0  0  0  0  0  0  0
    4.4060   17.0068   40.4235 C   0  0  0  0  0  0  0  0  0  0  0  0
    5.3897   16.1143   39.9934 C   0  0  0  0  0  0  0  0  0  0  0  0
    3.3808   19.2346   40.3394 N   0  0  0  0  0  0  0  0  0  0  0  0
    1.7341   17.7277   41.2122 N   0  0  0  0  0  0  0  0  0  0  0  0
    8.1705   15.8989   37.6383 O   0  0  0  0  0  0  0  0  0  0  0  0
    7.4095   14.3284   39.0526 O   0  0  0  0  0  0  0  0  0  0  0  0
    5.2720   14.7807   40.3056 O   0  0  0  0  0  0  0  0  0  0  0  0
    0.7548   20.0571   40.5279 S   0  0  0  0  0  0  0  0  0  0  0  0
   -2.2256   12.7502   43.5401 Cl  0  0  0  0  0  0  0  0  0  0  0  0
    7.3111   18.1851   38.1577 H   0  0  0  0  0  0  0  0  0  0  0  0
    5.4366   19.7343   38.6671 H   0  0  0  0  0  0  0  0  0  0  0  0
   -2.2764   17.4007   42.1696 H   0  0  0  0  0  0  0  0  0  0  0  0
   -3.3409   15.3196   43.0386 H   0  0  0  0  0  0  0  0  0  0  0  0
    0.4909   13.3224   42.9371 H   0  0  0  0  0  0  0  0  0  0  0  0
    1.5523   15.4201   42.1043 H   0  0  0  0  0  0  0  0  0  0  0  0
   -1.3465   19.1211   41.5446 H   0  0  0  0  0  0  0  0  0  0  0  0
    3.5920   16.6570   41.0754 H   0  0  0  0  0  0  0  0  0  0  0  0
    3.5963   20.2333   40.2087 H   0  0  0  0  0  0  0  0  0  0  0  0
  1  2  1  0
  1 19  1  0
  1 20  2  0
  2  3  1  0
  2 16  2  0
  3  4  2  0
  4  5  1  0
  5 15  2  0
  5 17  1  0
  6 17  1  0
  6 18  2  0
  6 22  1  0
  7  8  1  0
  7 14  2  0
  7 18  1  0
  8  9  1  0
  8 13  2  0
  9 10  2  0
 10 11  1  0
 11 12  2  0
 11 23  1  0
 12 13  1  0
 14 22  1  0
 15 16  1  0
 16 21  1  0
  3 24  1  0
  4 25  1  0
  9 26  1  0
 10 27  1  0
 12 28  1  0
 13 29  1  0
 14 30  1  0
 15 31  1  0
 17 32  1  0
M  CHG  2  19  -1  21  -1
M  END
>  <mol_id>  (85) 
2026-08-23-6tgu-s0-n100-r5-0085

>  <rmsd_to_ref>  (85) 
4.311224489802638

$$$$
6tgu.A
     RDKit          3D

 32 34  0  0  0  0  0  0  0  0999 V2000
    6.6376   19.0057   38.5231 C   0  0  0  0  0  0  0  0  0  0  0  0
    5.5470   18.2668   39.1213 C   0  0  0  0  0  0  0  0  0  0  0  0
    4.3785   18.0283   38.4281 C   0  0  0  0  0  0  0  0  0  0  0  0
    3.3275   17.3211   38.9943 C   0  0  0  0  0  0  0  0  0  0  0  0
    3.3787   16.8164   40.2677 C   0  0  0  0  0  0  0  0  0  0  0  0
    1.4154   15.2324   40.3009 C   0  0  0  0  0  0  0  0  0  0  0  0
   -0.2796   13.8458   39.8251 C   0  0  0  0  0  0  0  0  0  0  0  0
   -1.4430   13.0698   40.2795 C   0  0  0  0  0  0  0  0  0  0  0  0
   -2.1792   12.3153   39.3966 C   0  0  0  0  0  0  0  0  0  0  0  0
   -3.2682   11.5929   39.8353 C   0  0  0  0  0  0  0  0  0  0  0  0
   -3.6741   11.5839   41.1525 C   0  0  0  0  0  0  0  0  0  0  0  0
   -2.9417   12.3377   42.0471 C   0  0  0  0  0  0  0  0  0  0  0  0
   -1.8533   13.0575   41.5982 C   0  0  0  0  0  0  0  0  0  0  0  0
    0.1174   13.8422   38.4645 C   0  0  0  0  0  0  0  0  0  0  0  0
    4.5698   17.0628   40.9669 C   0  0  0  0  0  0  0  0  0  0  0  0
    5.6133   17.7644   40.4068 C   0  0  0  0  0  0  0  0  0  0  0  0
    2.3985   16.0800   40.9238 N   0  0  0  0  0  0  0  0  0  0  0  0
    0.4920   14.5938   40.5646 N   0  0  0  0  0  0  0  0  0  0  0  0
    7.7859   19.2058   39.2872 O   0  0  0  0  0  0  0  0  0  0  0  0
    6.5354   19.4505   37.3393 O   0  0  0  0  0  0  0  0  0  0  0  0
    6.7653   17.9673   41.1703 O   0  0  0  0  0  0  0  0  0  0  0  0
    1.5382   14.9099   38.4414 S   0  0  0  0  0  0  0  0  0  0  0  0
   -5.0561   10.6674   41.7099 Cl  0  0  0  0  0  0  0  0  0  0  0  0
    4.2937   18.4139   37.4067 H   0  0  0  0  0  0  0  0  0  0  0  0
    2.4606   17.1897   38.4001 H   0  0  0  0  0  0  0  0  0  0  0  0
   -1.9308   12.2620   38.3315 H   0  0  0  0  0  0  0  0  0  0  0  0
   -3.8420   11.0015   39.1258 H   0  0  0  0  0  0  0  0  0  0  0  0
   -3.1891   12.3909   43.1068 H   0  0  0  0  0  0  0  0  0  0  0  0
   -1.2960   13.6411   42.3176 H   0  0  0  0  0  0  0  0  0  0  0  0
   -0.3296   13.3219   37.6488 H   0  0  0  0  0  0  0  0  0  0  0  0
    4.6894   16.6906   41.9935 H   0  0  0  0  0  0  0  0  0  0  0  0
    2.3314   16.1143   41.9668 H   0  0  0  0  0  0  0  0  0  0  0  0
  1  2  1  0
  1 19  1  0
  1 20  2  0
  2  3  1  0
  2 16  2  0
  3  4  2  0
  4  5  1  0
  5 15  2  0
  5 17  1  0
  6 17  1  0
  6 18  2  0
  6 22  1  0
  7  8  1  0
  7 14  2  0
  7 18  1  0
  8  9  1  0
  8 13  2  0
  9 10  2  0
 10 11  1  0
 11 12  2  0
 11 23  1  0
 12 13  1  0
 14 22  1  0
 15 16  1  0
 16 21  1  0
  3 24  1  0
  4 25  1  0
  9 26  1  0
 10 27  1  0
 12 28  1  0
 13 29  1  0
 14 30  1  0
 15 31  1  0
 17 32  1  0
M  CHG  2  19  -1  21  -1
M  END
>  <mol_id>  (86) 
2026-08-23-6tgu-s0-n100-r5-0086

>  <rmsd_to_ref>  (86) 
4.3571428571462425

$$$$
6tgu.A
     RDKit          3D

 32 34  0  0  0  0  0  0  0  0999 V2000
    3.7854   15.7335   36.5936 C   0  0  0  0  0  0  0  0  0  0  0  0
    3.0202   16.7302   37.4688 C   0  0  0  0  0  0  0  0  0  0  0  0
    1.9053   17.3996   36.9692 C   0  0  0  0  0  0  0  0  0  0  0  0
    1.0723   18.1680   37.7889 C   0  0  0  0  0  0  0  0  0  0  0  0
    1.4389   18.4305   39.1169 C   0  0  0  0  0  0  0  0  0  0  0  0
    0.4515   19.1539   41.3451 C   0  0  0  0  0  0  0  0  0  0  0  0
    0.9814   18.6610   43.5020 C   0  0  0  0  0  0  0  0  0  0  0  0
    1.8126   18.1074   44.5714 C   0  0  0  0  0  0  0  0  0  0  0  0
    1.3890   18.0886   45.9079 C   0  0  0  0  0  0  0  0  0  0  0  0
    2.1811   17.5267   46.9043 C   0  0  0  0  0  0  0  0  0  0  0  0
    3.3821   16.9434   46.5468 C   0  0  0  0  0  0  0  0  0  0  0  0
    3.8366   16.9346   45.2366 C   0  0  0  0  0  0  0  0  0  0  0  0
    3.0349   17.5119   44.2558 C   0  0  0  0  0  0  0  0  0  0  0  0
   -0.2540   19.2177   43.7026 C   0  0  0  0  0  0  0  0  0  0  0  0
    2.5520   17.7560   39.6385 C   0  0  0  0  0  0  0  0  0  0  0  0
    3.3175   16.9321   38.8113 C   0  0  0  0  0  0  0  0  0  0  0  0
    0.5689   19.1590   39.9850 N   0  0  0  0  0  0  0  0  0  0  0  0
    1.3771   18.5249   42.1503 N   0  0  0  0  0  0  0  0  0  0  0  0
    3.2577   15.4369   35.4816 O   0  0  0  0  0  0  0  0  0  0  0  0
    4.8235   15.2332   37.0792 O   0  0  0  0  0  0  0  0  0  0  0  0
    4.3421   16.1954   39.3565 O   0  0  0  0  0  0  0  0  0  0  0  0
   -1.0160   19.5850   42.2018 S   0  0  0  0  0  0  0  0  0  0  0  0
    4.3600   16.2036   47.7706 Cl  0  0  0  0  0  0  0  0  0  0  0  0
    1.6730   17.3214   35.8969 H   0  0  0  0  0  0  0  0  0  0  0  0
    0.1276   18.5673   37.3911 H   0  0  0  0  0  0  0  0  0  0  0  0
    0.4148   18.5252   46.1730 H   0  0  0  0  0  0  0  0  0  0  0  0
    1.8580   17.5463   47.9556 H   0  0  0  0  0  0  0  0  0  0  0  0
    4.8059   16.4829   44.9790 H   0  0  0  0  0  0  0  0  0  0  0  0
    3.3722   17.4985   43.2089 H   0  0  0  0  0  0  0  0  0  0  0  0
   -0.7002   19.4052   44.6905 H   0  0  0  0  0  0  0  0  0  0  0  0
    2.8217   17.8758   40.6982 H   0  0  0  0  0  0  0  0  0  0  0  0
   -0.0802   19.7967   39.5025 H   0  0  0  0  0  0  0  0  0  0  0  0
  1  2  1  0
  1 19  1  0
  1 20  2  0
  2  3  1  0
  2 16  2  0
  3  4  2  0
  4  5  1  0
  5 15  2  0
  5 17  1  0
  6 17  1  0
  6 18  2  0
  6 22  1  0
  7  8  1  0
  7 14  2  0
  7 18  1  0
  8  9  1  0
  8 13  2  0
  9 10  2  0
 10 11  1  0
 11 12  2  0
 11 23  1  0
 12 13  1  0
 14 22  1  0
 15 16  1  0
 16 21  1  0
  3 24  1  0
  4 25  1  0
  9 26  1  0
 10 27  1  0
 12 28  1  0
 13 29  1  0
 14 30  1  0
 15 31  1  0
 17 32  1  0
M  CHG  2  19  -1  21  -1
M  END
>  <mol_id>  (87) 
2026-08-23-6tgu-s0-n100-r5-0087

>  <rmsd_to_ref>  (87) 
4.403061224494542

$$$$
6tgu.A
     RDKit          3D

 32 34  0  0  0  0  0  0  0  0999 V2000
    5.9630   21.5179   42.4601 C   0  0  0  0  0  0  0  0  0  0  0  0
    4.9781   20.4527   42.6194 C   0  0  0  0  0  0  0  0  0  0  0  0
    3.6551   20.7582   42.3137 C   0  0  0  0  0  0  0  0  0  0  0  0
    2.6514   19.8008   42.4216 C   0  0  0  0  0  0  0  0  0  0  0  0
    3.0401   18.5536   42.8443 C   0  0  0  0  0  0  0  0  0  0  0  0
    1.5911   17.0601   41.6194 C   0  0  0  0  0  0  0  0  0  0  0  0
    0.9039   15.9369   39.8098 C   0  0  0  0  0  0  0  0  0  0  0  0
    0.6721   14.6350   39.1453 C   0  0  0  0  0  0  0  0  0  0  0  0
    0.9219   13.4313   39.7647 C   0  0  0  0  0  0  0  0  0  0  0  0
    0.6880   12.2467   39.0688 C   0  0  0  0  0  0  0  0  0  0  0  0
    0.2137   12.2314   37.7774 C   0  0  0  0  0  0  0  0  0  0  0  0
   -0.0408   13.4383   37.1487 C   0  0  0  0  0  0  0  0  0  0  0  0
    0.1917   14.5954   37.8363 C   0  0  0  0  0  0  0  0  0  0  0  0
    0.6731   17.1203   39.1638 C   0  0  0  0  0  0  0  0  0  0  0  0
    4.3481   18.2193   43.1589 C   0  0  0  0  0  0  0  0  0  0  0  0
    5.3401   19.1918   43.0424 C   0  0  0  0  0  0  0  0  0  0  0  0
    2.0712   17.4816   42.9196 N   0  0  0  0  0  0  0  0  0  0  0  0
    1.3637   16.0974   41.0388 N   0  0  0  0  0  0  0  0  0  0  0  0
    5.6039   22.7837   42.0287 O   0  0  0  0  0  0  0  0  0  0  0  0
    7.1637   21.2820   42.7167 O   0  0  0  0  0  0  0  0  0  0  0  0
    6.6623   18.9074   43.3420 O   0  0  0  0  0  0  0  0  0  0  0  0
    1.1372   18.3782   40.3650 S   0  0  0  0  0  0  0  0  0  0  0  0
   -0.0918   10.7756   36.8792 Cl  0  0  0  0  0  0  0  0  0  0  0  0
    3.3796   21.7668   41.9818 H   0  0  0  0  0  0  0  0  0  0  0  0
    1.6565   20.0800   42.1805 H   0  0  0  0  0  0  0  0  0  0  0  0
    1.2987   13.4086   40.7742 H   0  0  0  0  0  0  0  0  0  0  0  0
    0.8768   11.2878   39.5435 H   0  0  0  0  0  0  0  0  0  0  0  0
   -0.4199   13.4811   36.1286 H   0  0  0  0  0  0  0  0  0  0  0  0
   -0.0186   15.5281   37.2950 H   0  0  0  0  0  0  0  0  0  0  0  0
    0.2971   17.3308   38.1598 H   0  0  0  0  0  0  0  0  0  0  0  0
    4.6139   17.2129   43.4934 H   0  0  0  0  0  0  0  0  0  0  0  0
    1.7545   17.0689   43.7990 H   0  0  0  0  0  0  0  0  0  0  0  0
  1  2  1  0
  1 19  1  0
  1 20  2  0
  2  3  1  0
  2 16  2  0
  3  4  2  0
  4  5  1  0
  5 15  2  0
  5 17  1  0
  6 17  1  0
  6 18  2  0
  6 22  1  0
  7  8  1  0
  7 14  2  0
  7 18  1  0
  8  9  1  0
  8 13  2  0
  9 10  2  0
 10 11  1  0
 11 12  2  0
 11 23  1  0
 12 13  1  0
 14 22  1  0
 15 16  1  0
 16 21  1  0
  3 24  1  0
  4 25  1  0
  9 26  1  0
 10 27  1  0
 12 28  1  0
 13 29  1  0
 14 30  1  0
 15 31  1  0
 17 32  1  0
M  CHG  2  19  -1  21  -1
M  END
>  <mol_id>  (88) 
2026-08-23-6tgu-s0-n100-r5-0088

>  <rmsd_to_ref>  (88) 
4.4489795918409545

$$$$
6tgu.A
     RDKit          3D

 32 34  0  0  0  0  0  0  0  0999 V2000
    7.4515   16.5437   37.6895 C   0  0  0  0  0  0  0  0  0  0  0  0
    5.9359   16.7413   37.5983 C   0  0  0  0  0  0  0  0  0  0  0  0
    5.3099   16.8477   36.3583 C   0  0  0  0  0  0  0  0  0  0  0  0
    3.9174   16.8379   36.2269 C   0  0  0  0  0  0  0  0  0  0  0  0
    3.1021   16.8968   37.3665 C   0  0  0  0  0  0  0  0  0  0  0  0
    0.7309   16.4064   38.1411 C   0  0  0  0  0  0  0  0  0  0  0  0
   -0.1326   15.7158   40.1293 C   0  0  0  0  0  0  0  0  0  0  0  0
   -0.0923   15.4113   41.5600 C   0  0  0  0  0  0  0  0  0  0  0  0
   -1.1811   14.8329   42.2278 C   0  0  0  0  0  0  0  0  0  0  0  0
   -1.1093   14.5206   43.5818 C   0  0  0  0  0  0  0  0  0  0  0  0
    0.0766   14.7507   44.2535 C   0  0  0  0  0  0  0  0  0  0  0  0
    1.1794   15.3155   43.6307 C   0  0  0  0  0  0  0  0  0  0  0  0
    1.0840   15.6316   42.2783 C   0  0  0  0  0  0  0  0  0  0  0  0
   -1.2198   15.4868   39.3280 C   0  0  0  0  0  0  0  0  0  0  0  0
    3.7155   16.7796   38.6219 C   0  0  0  0  0  0  0  0  0  0  0  0
    5.1070   16.7114   38.7134 C   0  0  0  0  0  0  0  0  0  0  0  0
    1.6799   16.8229   37.2525 N   0  0  0  0  0  0  0  0  0  0  0  0
    1.0348   16.1570   39.4625 N   0  0  0  0  0  0  0  0  0  0  0  0
    8.0584   16.3184   36.6014 O   0  0  0  0  0  0  0  0  0  0  0  0
    7.9548   16.5401   38.8342 O   0  0  0  0  0  0  0  0  0  0  0  0
    5.6915   16.4918   39.9381 O   0  0  0  0  0  0  0  0  0  0  0  0
   -0.8409   15.7859   37.6743 S   0  0  0  0  0  0  0  0  0  0  0  0
    0.1942   14.3290   45.9298 Cl  0  0  0  0  0  0  0  0  0  0  0  0
    5.9298   16.9423   35.4546 H   0  0  0  0  0  0  0  0  0  0  0  0
    3.4607   16.7839   35.2276 H   0  0  0  0  0  0  0  0  0  0  0  0
   -2.1070   14.6227   41.6723 H   0  0  0  0  0  0  0  0  0  0  0  0
   -1.9789   14.0989   44.1071 H   0  0  0  0  0  0  0  0  0  0  0  0
    2.1059   15.5090   44.1911 H   0  0  0  0  0  0  0  0  0  0  0  0
    1.9549   16.0645   41.7644 H   0  0  0  0  0  0  0  0  0  0  0  0
   -2.2037   15.1560   39.6920 H   0  0  0  0  0  0  0  0  0  0  0  0
    3.1012   16.7415   39.5336 H   0  0  0  0  0  0  0  0  0  0  0  0
    1.3071   17.1375   36.3453 H   0  0  0  0  0  0  0  0  0  0  0  0
  1  2  1  0
  1 19  1  0
  1 20  2  0
  2  3  1  0
  2 16  2  0
  3  4  2  0
  4  5  1  0
  5 15  2  0
  5 17  1  0
  6 17  1  0
  6 18  2  0
  6 22  1  0
  7  8  1  0
  7 14  2  0
  7 18  1  0
  8  9  1  0
  8 13  2  0
  9 10  2  0
 10 11  1  0
 11 12  2  0
 11 23  1  0
 12 13  1  0
 14 22  1  0
 15 16  1  0
 16 21  1  0
  3 24  1  0
  4 25  1  0
  9 26  1  0
 10 27  1  0
 12 28  1  0
 13 29  1  0
 14 30  1  0
 15 31  1  0
 17 32  1  0
M  CHG  2  19  -1  21  -1
M  END
>  <mol_id>  (89) 
2026-08-23-6tgu-s0-n100-r5-0089

>  <rmsd_to_ref>  (89) 
4.494897959186812

$$$$
6tgu.A
     RDKit          3D

 32 34  0  0  0  0  0  0  0  0999 V2000
   -1.7041   21.5806   38.7065 C   0  0  0  0  0  0  0  0  0  0  0  0
   -1.2736   20.2067   39.0026 C   0  0  0  0  0  0  0  0  0  0  0  0
   -0.3791   19.9633   40.0202 C   0  0  0  0  0  0  0  0  0  0  0  0
   -0.0090   18.6498   40.2501 C   0  0  0  0  0  0  0  0  0  0  0  0
   -0.4870   17.5935   39.5214 C   0  0  0  0  0  0  0  0  0  0  0  0
    1.0325   15.8459   40.4928 C   0  0  0  0  0  0  0  0  0  0  0  0
    3.0460   14.9922   41.1005 C   0  0  0  0  0  0  0  0  0  0  0  0
    4.2721   14.2875   40.7588 C   0  0  0  0  0  0  0  0  0  0  0  0
    5.2331   14.0458   41.7144 C   0  0  0  0  0  0  0  0  0  0  0  0
    6.4012   13.3597   41.3787 C   0  0  0  0  0  0  0  0  0  0  0  0
    6.5752   12.9247   40.0600 C   0  0  0  0  0  0  0  0  0  0  0  0
    5.6235   13.1572   39.0864 C   0  0  0  0  0  0  0  0  0  0  0  0
    4.4892   13.8403   39.4757 C   0  0  0  0  0  0  0  0  0  0  0  0
    2.7818   15.4599   42.4811 C   0  0  0  0  0  0  0  0  0  0  0  0
   -1.3842   17.8637   38.5055 C   0  0  0  0  0  0  0  0  0  0  0  0
   -1.7555   19.1659   38.2706 C   0  0  0  0  0  0  0  0  0  0  0  0
   -0.1004   16.2471   39.7605 N   0  0  0  0  0  0  0  0  0  0  0  0
    2.0512   15.3010   40.3343 N   0  0  0  0  0  0  0  0  0  0  0  0
   -1.2320   22.6576   39.4498 O   0  0  0  0  0  0  0  0  0  0  0  0
   -2.5243   21.7646   37.7491 O   0  0  0  0  0  0  0  0  0  0  0  0
   -2.6539   19.4315   37.2497 O   0  0  0  0  0  0  0  0  0  0  0  0
    1.1516   16.2375   42.3438 S   0  0  0  0  0  0  0  0  0  0  0  0
    8.0474   12.0499   39.6212 Cl  0  0  0  0  0  0  0  0  0  0  0  0
   -0.0178   20.7953   40.5799 H   0  0  0  0  0  0  0  0  0  0  0  0
    0.6955   18.4159   41.0461 H   0  0  0  0  0  0  0  0  0  0  0  0
    5.1424   14.3583   42.7232 H   0  0  0  0  0  0  0  0  0  0  0  0
    7.1636   13.1608   42.1102 H   0  0  0  0  0  0  0  0  0  0  0  0
    5.7278   12.8355   38.0658 H   0  0  0  0  0  0  0  0  0  0  0  0
    3.6891   14.0610   38.7535 H   0  0  0  0  0  0  0  0  0  0  0  0
    3.3945   15.3545   43.2964 H   0  0  0  0  0  0  0  0  0  0  0  0
   -1.8102   17.0945   37.8833 H   0  0  0  0  0  0  0  0  0  0  0  0
   -0.6984   15.4606   39.3625 H   0  0  0  0  0  0  0  0  0  0  0  0
  1  2  1  0
  1 19  1  0
  1 20  2  0
  2  3  1  0
  2 16  2  0
  3  4  2  0
  4  5  1  0
  5 15  2  0
  5 17  1  0
  6 17  1  0
  6 18  2  0
  6 22  1  0
  7  8  1  0
  7 14  2  0
  7 18  1  0
  8  9  1  0
  8 13  2  0
  9 10  2  0
 10 11  1  0
 11 12  2  0
 11 23  1  0
 12 13  1  0
 14 22  1  0
 15 16  1  0
 16 21  1  0
  3 24  1  0
  4 25  1  0
  9 26  1  0
 10 27  1  0
 12 28  1  0
 13 29  1  0
 14 30  1  0
 15 31  1  0
 17 32  1  0
M  CHG  2  19  -1  21  -1
M  END
>  <mol_id>  (90) 
2026-08-23-6tgu-s0-n100-r5-0090

>  <rmsd_to_ref>  (90) 
4.540816326537751

$$$$
6tgu.A
     RDKit          3D

 32 34  0  0  0  0  0  0  0  0999 V2000
    3.5271   22.2994   39.4286 C   0  0  0  0  0  0  0  0  0  0  0  0
    3.9804   20.8368   39.4407 C   0  0  0  0  0  0  0  0  0  0  0  0
    5.1380   20.4607   40.1183 C   0  0  0  0  0  0  0  0  0  0  0  0
    5.4812   19.1187   40.3125 C   0  0  0  0  0  0  0  0  0  0  0  0
    4.7522   18.1058   39.6725 C   0  0  0  0  0  0  0  0  0  0  0  0
    4.2679   15.6141   39.8132 C   0  0  0  0  0  0  0  0  0  0  0  0
    2.4376   14.3651   39.2977 C   0  0  0  0  0  0  0  0  0  0  0  0
    1.1162   14.1230   38.7177 C   0  0  0  0  0  0  0  0  0  0  0  0
    0.4405   12.9064   38.8897 C   0  0  0  0  0  0  0  0  0  0  0  0
   -0.8300   12.7094   38.3579 C   0  0  0  0  0  0  0  0  0  0  0  0
   -1.4387   13.7550   37.6895 C   0  0  0  0  0  0  0  0  0  0  0  0
   -0.8092   14.9762   37.5015 C   0  0  0  0  0  0  0  0  0  0  0  0
    0.4664   15.1500   38.0313 C   0  0  0  0  0  0  0  0  0  0  0  0
    3.1327   13.4408   40.0319 C   0  0  0  0  0  0  0  0  0  0  0  0
    3.5783   18.4663   38.9958 C   0  0  0  0  0  0  0  0  0  0  0  0
    3.2218   19.8118   38.8882 C   0  0  0  0  0  0  0  0  0  0  0  0
    5.0497   16.7290   39.9112 N   0  0  0  0  0  0  0  0  0  0  0  0
    3.0190   15.6533   39.2304 N   0  0  0  0  0  0  0  0  0  0  0  0
    4.1551   23.0918   40.1907 O   0  0  0  0  0  0  0  0  0  0  0  0
    2.5265   22.5770   38.7319 O   0  0  0  0  0  0  0  0  0  0  0  0
    2.0179   20.1458   38.3147 O   0  0  0  0  0  0  0  0  0  0  0  0
    4.5547   14.1362   40.7116 S   0  0  0  0  0  0  0  0  0  0  0  0
   -3.0370   13.5378   37.0573 Cl  0  0  0  0  0  0  0  0  0  0  0  0
    5.8026   21.2433   40.5130 H   0  0  0  0  0  0  0  0  0  0  0  0
    6.3246   18.8573   40.9684 H   0  0  0  0  0  0  0  0  0  0  0  0
    0.9227   12.0948   39.4542 H   0  0  0  0  0  0  0  0  0  0  0  0
   -1.3399   11.7408   38.4671 H   0  0  0  0  0  0  0  0  0  0  0  0
   -1.3051   15.7870   36.9477 H   0  0  0  0  0  0  0  0  0  0  0  0
    0.9734   16.1181   37.9062 H   0  0  0  0  0  0  0  0  0  0  0  0
    2.8239   12.3940   40.1693 H   0  0  0  0  0  0  0  0  0  0  0  0
    2.9391   17.6899   38.5501 H   0  0  0  0  0  0  0  0  0  0  0  0
    6.0191   16.5464   40.2076 H   0  0  0  0  0  0  0  0  0  0  0  0
  1  2  1  0
  1 19  1  0
  1 20  2  0
  2  3  1  0
  2 16  2  0
  3  4  2  0
  4  5  1  0
  5 15  2  0
  5 17  1  0
  6 17  1  0
  6 18  2  0
  6 22  1  0
  7  8  1  0
  7 14  2  0
  7 18  1  0
  8  9  1  0
  8 13  2  0
  9 10  2  0
 10 11  1  0
 11 12  2  0
 11 23  1  0
 12 13  1  0
 14 22  1  0
 15 16  1  0
 16 21  1  0
  3 24  1  0
  4 25  1  0
  9 26  1  0
 10 27  1  0
 12 28  1  0
 13 29  1  0
 14 30  1  0
 15 31  1  0
 17 32  1  0
M  CHG  2  19  -1  21  -1
M  END
>  <mol_id>  (91) 
2026-08-23-6tgu-s0-n100-r5-0091

>  <rmsd_to_ref>  (91) 
4.586734693880982

$$$$
6tgu.A
     RDKit          3D

 32 34  0  0  0  0  0  0  0  0999 V2000
    3.1414   15.3798   34.3818 C   0  0  0  0  0  0  0  0  0  0  0  0
    2.2485   15.8726   35.4208 C   0  0  0  0  0  0  0  0  0  0  0  0
    0.9432   16.1840   35.1237 C   0  0  0  0  0  0  0  0  0  0  0  0
    0.0879   16.6569   36.0958 C   0  0  0  0  0  0  0  0  0  0  0  0
    0.4949   16.8432   37.4184 C   0  0  0  0  0  0  0  0  0  0  0  0
   -0.0304   17.6843   39.6850 C   0  0  0  0  0  0  0  0  0  0  0  0
    0.4218   17.7058   41.9341 C   0  0  0  0  0  0  0  0  0  0  0  0
    0.4296   17.0588   43.2740 C   0  0  0  0  0  0  0  0  0  0  0  0
   -0.0301   15.7751   43.4557 C   0  0  0  0  0  0  0  0  0  0  0  0
   -0.0258   15.1914   44.7301 C   0  0  0  0  0  0  0  0  0  0  0  0
    0.4424   15.9083   45.8105 C   0  0  0  0  0  0  0  0  0  0  0  0
    0.9075   17.2047   45.6278 C   0  0  0  0  0  0  0  0  0  0  0  0
    0.8879   17.7382   44.3757 C   0  0  0  0  0  0  0  0  0  0  0  0
    0.8855   19.0039   41.7940 C   0  0  0  0  0  0  0  0  0  0  0  0
    1.8052   16.5296   37.7167 C   0  0  0  0  0  0  0  0  0  0  0  0
    2.6603   16.0531   36.7286 C   0  0  0  0  0  0  0  0  0  0  0  0
   -0.4107   17.3407   38.3952 N   0  0  0  0  0  0  0  0  0  0  0  0
   -0.0143   17.1069   40.8716 N   0  0  0  0  0  0  0  0  0  0  0  0
    2.6522   15.2238   33.0845 O   0  0  0  0  0  0  0  0  0  0  0  0
    4.3447   15.0823   34.5833 O   0  0  0  0  0  0  0  0  0  0  0  0
    3.9887   15.7351   37.0324 O   0  0  0  0  0  0  0  0  0  0  0  0
    0.6473   19.3173   39.9891 S   0  0  0  0  0  0  0  0  0  0  0  0
    0.4878   15.2775   47.4394 Cl  0  0  0  0  0  0  0  0  0  0  0  0
    0.5601   16.0692   34.1371 H   0  0  0  0  0  0  0  0  0  0  0  0
   -0.9398   16.8962   35.8330 H   0  0  0  0  0  0  0  0  0  0  0  0
   -0.4019   15.1947   42.6234 H   0  0  0  0  0  0  0  0  0  0  0  0
   -0.3731   14.1998   44.9127 H   0  0  0  0  0  0  0  0  0  0  0  0
    1.2830   17.7994   46.4508 H   0  0  0  0  0  0  0  0  0  0  0  0
    1.2667   18.7676   44.2759 H   0  0  0  0  0  0  0  0  0  0  0  0
    1.3018   19.7395   42.4831 H   0  0  0  0  0  0  0  0  0  0  0  0
    2.1691   16.6577   38.7404 H   0  0  0  0  0  0  0  0  0  0  0  0
   -1.4251   17.4532   38.1275 H   0  0  0  0  0  0  0  0  0  0  0  0
  1  2  1  0
  1 19  1  0
  1 20  2  0
  2  3  1  0
  2 16  2  0
  3  4  2  0
  4  5  1  0
  5 15  2  0
  5 17  1  0
  6 17  1  0
  6 18  2  0
  6 22  1  0
  7  8  1  0
  7 14  2  0
  7 18  1  0
  8  9  1  0
  8 13  2  0
  9 10  2  0
 10 11  1  0
 11 12  2  0
 11 23  1  0
 12 13  1  0
 14 22  1  0
 15 16  1  0
 16 21  1  0
  3 24  1  0
  4 25  1  0
  9 26  1  0
 10 27  1  0
 12 28  1  0
 13 29  1  0
 14 30  1  0
 15 31  1  0
 17 32  1  0
M  CHG  2  19  -1  21  -1
M  END
>  <mol_id>  (92) 
2026-08-23-6tgu-s0-n100-r5-0092

>  <rmsd_to_ref>  (92) 
4.63265306123051

$$$$
6tgu.A
     RDKit          3D

 32 34  0  0  0  0  0  0  0  0999 V2000
    1.8921   20.7698   42.0615 C   0  0  0  0  0  0  0  0  0  0  0  0
    1.8701   19.2765   42.3995 C   0  0  0  0  0  0  0  0  0  0  0  0
    1.6448   18.8505   43.7066 C   0  0  0  0  0  0  0  0  0  0  0  0
    1.4292   17.5049   44.0216 C   0  0  0  0  0  0  0  0  0  0  0  0
    1.6089   16.5154   43.0441 C   0  0  0  0  0  0  0  0  0  0  0  0
    0.9811   14.1097   42.5129 C   0  0  0  0  0  0  0  0  0  0  0  0
    0.5961   13.0096   40.5591 C   0  0  0  0  0  0  0  0  0  0  0  0
    0.5914   12.8491   39.1047 C   0  0  0  0  0  0  0  0  0  0  0  0
    0.0225   11.7289   38.4823 C   0  0  0  0  0  0  0  0  0  0  0  0
   -0.0011   11.6123   37.0960 C   0  0  0  0  0  0  0  0  0  0  0  0
    0.5098   12.6467   36.3348 C   0  0  0  0  0  0  0  0  0  0  0  0
    1.0764   13.7748   36.9087 C   0  0  0  0  0  0  0  0  0  0  0  0
    1.1008   13.8676   38.2975 C   0  0  0  0  0  0  0  0  0  0  0  0
    0.0732   12.0929   41.4324 C   0  0  0  0  0  0  0  0  0  0  0  0
    1.8251   16.9276   41.7215 C   0  0  0  0  0  0  0  0  0  0  0  0
    1.9568   18.2862   41.4283 C   0  0  0  0  0  0  0  0  0  0  0  0
    1.3307   15.1440   43.3326 N   0  0  0  0  0  0  0  0  0  0  0  0
    1.0422   14.2203   41.1400 N   0  0  0  0  0  0  0  0  0  0  0  0
    1.5343   21.5627   42.9815 O   0  0  0  0  0  0  0  0  0  0  0  0
    2.1824   21.0806   40.8855 O   0  0  0  0  0  0  0  0  0  0  0  0
    2.0637   18.6850   40.1171 O   0  0  0  0  0  0  0  0  0  0  0  0
    0.0822   12.7015   43.0440 S   0  0  0  0  0  0  0  0  0  0  0  0
    0.4503   12.5341   34.6070 Cl  0  0  0  0  0  0  0  0  0  0  0  0
    1.6362   19.5954   44.5159 H   0  0  0  0  0  0  0  0  0  0  0  0
    1.1182   17.2222   45.0381 H   0  0  0  0  0  0  0  0  0  0  0  0
   -0.4123   10.9292   39.1000 H   0  0  0  0  0  0  0  0  0  0  0  0
   -0.4180   10.7150   36.6155 H   0  0  0  0  0  0  0  0  0  0  0  0
    1.4959   14.5760   36.2825 H   0  0  0  0  0  0  0  0  0  0  0  0
    1.5310   14.7633   38.7693 H   0  0  0  0  0  0  0  0  0  0  0  0
   -0.3024   11.1003   41.1431 H   0  0  0  0  0  0  0  0  0  0  0  0
    1.8909   16.1815   40.9159 H   0  0  0  0  0  0  0  0  0  0  0  0
    1.4068   14.8929   44.3286 H   0  0  0  0  0  0  0  0  0  0  0  0
  1  2  1  0
  1 19  1  0
  1 20  2  0
  2  3  1  0
  2 16  2  0
  3  4  2  0
  4  5  1  0
  5 15  2  0
  5 17  1  0
  6 17  1  0
  6 18  2  0
  6 22  1  0
  7  8  1  0
  7 14  2  0
  7 18  1  0
  8  9  1  0
  8 13  2  0
  9 10  2  0
 10 11  1  0
 11 12  2  0
 11 23  1  0
 12 13  1  0
 14 22  1  0
 15 16  1  0
 16 21  1  0
  3 24  1  0
  4 25  1  0
  9 26  1  0
 10 27  1  0
 12 28  1  0
 13 29  1  0
 14 30  1  0
 15 31  1  0
 17 32  1  0
M  CHG  2  19  -1  21  -1
M  END
>  <mol_id>  (93) 
2026-08-23-6tgu-s0-n100-r5-0093

>  <rmsd_to_ref>  (93) 
4.678571428572352

$$$$
6tgu.A
     RDKit          3D

 32 34  0  0  0  0  0  0  0  0999 V2000
    2.0579   16.1676   34.6477 C   0  0  0  0  0  0  0  0  0  0  0  0
    2.3364   16.2202   36.0647 C   0  0  0  0  0  0  0  0  0  0  0  0
    1.3904   16.6757   36.9655 C   0  0  0  0  0  0  0  0  0  0  0  0
    1.6848   16.7160   38.3313 C   0  0  0  0  0  0  0  0  0  0  0  0
    2.8909   16.3182   38.8427 C   0  0  0  0  0  0  0  0  0  0  0  0
    2.3826   16.2853   41.2857 C   0  0  0  0  0  0  0  0  0  0  0  0
    1.7539   16.2683   43.4828 C   0  0  0  0  0  0  0  0  0  0  0  0
    2.0943   16.2872   44.9378 C   0  0  0  0  0  0  0  0  0  0  0  0
    1.0848   16.2477   45.8649 C   0  0  0  0  0  0  0  0  0  0  0  0
    1.4130   16.2646   47.2040 C   0  0  0  0  0  0  0  0  0  0  0  0
    2.7239   16.3199   47.6505 C   0  0  0  0  0  0  0  0  0  0  0  0
    3.7426   16.3598   46.7035 C   0  0  0  0  0  0  0  0  0  0  0  0
    3.3995   16.3423   45.3686 C   0  0  0  0  0  0  0  0  0  0  0  0
    0.4783   16.2117   43.0601 C   0  0  0  0  0  0  0  0  0  0  0  0
    3.8297   15.8623   37.9118 C   0  0  0  0  0  0  0  0  0  0  0  0
    3.5588   15.8157   36.5644 C   0  0  0  0  0  0  0  0  0  0  0  0
    3.2618   16.3020   40.1947 N   0  0  0  0  0  0  0  0  0  0  0  0
    2.6944   16.3046   42.5723 N   0  0  0  0  0  0  0  0  0  0  0  0
    0.8223   16.5789   34.1688 O   0  0  0  0  0  0  0  0  0  0  0  0
    2.9736   15.7381   33.8783 O   0  0  0  0  0  0  0  0  0  0  0  0
    4.5285   15.3536   35.6844 O   0  0  0  0  0  0  0  0  0  0  0  0
    0.5824   16.2077   41.2327 S   0  0  0  0  0  0  0  0  0  0  0  0
    3.0850   16.3384   49.3710 Cl  0  0  0  0  0  0  0  0  0  0  0  0
    0.4217   17.0015   36.6146 H   0  0  0  0  0  0  0  0  0  0  0  0
    0.9089   17.0878   38.9621 H   0  0  0  0  0  0  0  0  0  0  0  0
    0.0402   16.2038   45.5716 H   0  0  0  0  0  0  0  0  0  0  0  0
    0.5913   16.2323   47.9097 H   0  0  0  0  0  0  0  0  0  0  0  0
    4.7779   16.4035   47.0322 H   0  0  0  0  0  0  0  0  0  0  0  0
    4.2176   16.3746   44.6493 H   0  0  0  0  0  0  0  0  0  0  0  0
   -0.5365   16.1710   43.6024 H   0  0  0  0  0  0  0  0  0  0  0  0
    4.8162   15.5266   38.2321 H   0  0  0  0  0  0  0  0  0  0  0  0
    4.2892   16.3047   40.4139 H   0  0  0  0  0  0  0  0  0  0  0  0
  1  2  1  0
  1 19  1  0
  1 20  2  0
  2  3  1  0
  2 16  2  0
  3  4  2  0
  4  5  1  0
  5 15  2  0
  5 17  1  0
  6 17  1  0
  6 18  2  0
  6 22  1  0
  7  8  1  0
  7 14  2  0
  7 18  1  0
  8  9  1  0
  8 13  2  0
  9 10  2  0
 10 11  1  0
 11 12  2  0
 11 23  1  0
 12 13  1  0
 14 22  1  0
 15 16  1  0
 16 21  1  0
  3 24  1  0
  4 25  1  0
  9 26  1  0
 10 27  1  0
 12 28  1  0
 13 29  1  0
 14 30  1  0
 15 31  1  0
 17 32  1  0
M  CHG  2  19  -1  21  -1
M  END
>  <mol_id>  (94) 
2026-08-23-6tgu-s0-n100-r5-0094

>  <rmsd_to_ref>  (94) 
4.724489795925717

$$$$
6tgu.A
     RDKit          3D

 32 34  0  0  0  0  0  0  0  0999 V2000
    6.7026   14.2356   37.8893 C   0  0  0  0  0  0  0  0  0  0  0  0
    5.9241   15.2166   38.7704 C   0  0  0  0  0  0  0  0  0  0  0  0
    6.3757   16.5230   38.9440 C   0  0  0  0  0  0  0  0  0  0  0  0
    5.6003   17.4976   39.5807 C   0  0  0  0  0  0  0  0  0  0  0  0
    4.4065   17.1387   40.2231 C   0  0  0  0  0  0  0  0  0  0  0  0
    2.2303   18.1388   41.0759 C   0  0  0  0  0  0  0  0  0  0  0  0
    0.1156   17.3175   41.2466 C   0  0  0  0  0  0  0  0  0  0  0  0
   -0.9094   16.2736   41.2174 C   0  0  0  0  0  0  0  0  0  0  0  0
   -2.2731   16.5667   41.3603 C   0  0  0  0  0  0  0  0  0  0  0  0
   -3.2340   15.5625   41.2957 C   0  0  0  0  0  0  0  0  0  0  0  0
   -2.8235   14.2671   41.0427 C   0  0  0  0  0  0  0  0  0  0  0  0
   -1.4862   13.9339   40.8894 C   0  0  0  0  0  0  0  0  0  0  0  0
   -0.5390   14.9511   40.9687 C   0  0  0  0  0  0  0  0  0  0  0  0
   -0.1518   18.6483   41.4305 C   0  0  0  0  0  0  0  0  0  0  0  0
    3.9323   15.8307   40.0490 C   0  0  0  0  0  0  0  0  0  0  0  0
    4.6955   14.9022   39.3387 C   0  0  0  0  0  0  0  0  0  0  0  0
    3.5716   18.1314   40.8220 N   0  0  0  0  0  0  0  0  0  0  0  0
    1.4621   17.0011   40.9483 N   0  0  0  0  0  0  0  0  0  0  0  0
    7.6575   14.7191   37.2129 O   0  0  0  0  0  0  0  0  0  0  0  0
    6.2846   13.0579   37.8462 O   0  0  0  0  0  0  0  0  0  0  0  0
    4.1747   13.6555   39.0851 O   0  0  0  0  0  0  0  0  0  0  0  0
    1.2690   19.5983   41.2147 S   0  0  0  0  0  0  0  0  0  0  0  0
   -4.0120   13.0127   40.9188 Cl  0  0  0  0  0  0  0  0  0  0  0  0
    7.3729   16.7966   38.5687 H   0  0  0  0  0  0  0  0  0  0  0  0
    5.9277   18.5478   39.5775 H   0  0  0  0  0  0  0  0  0  0  0  0
   -2.5884   17.6074   41.5262 H   0  0  0  0  0  0  0  0  0  0  0  0
   -4.2990   15.7948   41.4431 H   0  0  0  0  0  0  0  0  0  0  0  0
   -1.1815   12.8923   40.7096 H   0  0  0  0  0  0  0  0  0  0  0  0
    0.5249   14.7071   40.8324 H   0  0  0  0  0  0  0  0  0  0  0  0
   -1.1419   19.0561   41.6824 H   0  0  0  0  0  0  0  0  0  0  0  0
    2.9602   15.5365   40.4715 H   0  0  0  0  0  0  0  0  0  0  0  0
    4.0660   18.9874   41.1117 H   0  0  0  0  0  0  0  0  0  0  0  0
  1  2  1  0
  1 19  1  0
  1 20  2  0
  2  3  1  0
  2 16  2  0
  3  4  2  0
  4  5  1  0
  5 15  2  0
  5 17  1  0
  6 17  1  0
  6 18  2  0
  6 22  1  0
  7  8  1  0
  7 14  2  0
  7 18  1  0
  8  9  1  0
  8 13  2  0
  9 10  2  0
 10 11  1  0
 11 12  2  0
 11 23  1  0
 12 13  1  0
 14 22  1  0
 15 16  1  0
 16 21  1  0
  3 24  1  0
  4 25  1  0
  9 26  1  0
 10 27  1  0
 12 28  1  0
 13 29  1  0
 14 30  1  0
 15 31  1  0
 17 32  1  0
M  CHG  2  19  -1  21  -1
M  END
>  <mol_id>  (95) 
2026-08-23-6tgu-s0-n100-r5-0095

>  <rmsd_to_ref>  (95) 
4.77040816326906

$$$$
6tgu.A
     RDKit          3D

 32 34  0  0  0  0  0  0  0  0999 V2000
    3.6749   22.8962   44.2857 C   0  0  0  0  0  0  0  0  0  0  0  0
    2.8308   21.7518   43.9508 C   0  0  0  0  0  0  0  0  0  0  0  0
    2.6916   21.2598   42.6730 C   0  0  0  0  0  0  0  0  0  0  0  0
    1.8703   20.1634   42.4007 C   0  0  0  0  0  0  0  0  0  0  0  0
    1.1717   19.5391   43.4046 C   0  0  0  0  0  0  0  0  0  0  0  0
    0.2366   17.7361   41.9347 C   0  0  0  0  0  0  0  0  0  0  0  0
    0.3645   16.1671   40.3276 C   0  0  0  0  0  0  0  0  0  0  0  0
    0.6983   14.7726   39.9632 C   0  0  0  0  0  0  0  0  0  0  0  0
    1.1667   13.8665   40.8954 C   0  0  0  0  0  0  0  0  0  0  0  0
    1.4687   12.5680   40.5590 C   0  0  0  0  0  0  0  0  0  0  0  0
    1.3052   12.1392   39.2545 C   0  0  0  0  0  0  0  0  0  0  0  0
    0.8376   13.0192   38.2893 C   0  0  0  0  0  0  0  0  0  0  0  0
    0.5487   14.3101   38.6763 C   0  0  0  0  0  0  0  0  0  0  0  0
   -0.1091   17.0576   39.4166 C   0  0  0  0  0  0  0  0  0  0  0  0
    1.3193   20.0401   44.6809 C   0  0  0  0  0  0  0  0  0  0  0  0
    2.1346   21.1317   44.9655 C   0  0  0  0  0  0  0  0  0  0  0  0
    0.3179   18.4377   43.2280 N   0  0  0  0  0  0  0  0  0  0  0  0
    0.4870   16.6428   41.5461 N   0  0  0  0  0  0  0  0  0  0  0  0
    4.4115   23.5924   43.3326 O   0  0  0  0  0  0  0  0  0  0  0  0
    3.7079   23.2385   45.5158 O   0  0  0  0  0  0  0  0  0  0  0  0
    2.2164   21.5644   46.3028 O   0  0  0  0  0  0  0  0  0  0  0  0
   -0.3606   18.6095   40.4430 S   0  0  0  0  0  0  0  0  0  0  0  0
    1.6704   10.5002   38.7786 Cl  0  0  0  0  0  0  0  0  0  0  0  0
    3.2510   21.7626   41.8834 H   0  0  0  0  0  0  0  0  0  0  0  0
    1.7684   19.7831   41.3813 H   0  0  0  0  0  0  0  0  0  0  0  0
    1.3095   14.1610   41.9301 H   0  0  0  0  0  0  0  0  0  0  0  0
    1.8322   11.8741   41.3039 H   0  0  0  0  0  0  0  0  0  0  0  0
    0.6958   12.7307   37.2580 H   0  0  0  0  0  0  0  0  0  0  0  0
    0.1815   15.0198   37.9405 H   0  0  0  0  0  0  0  0  0  0  0  0
   -0.3385   17.0492   38.3562 H   0  0  0  0  0  0  0  0  0  0  0  0
    0.7790   19.5701   45.5145 H   0  0  0  0  0  0  0  0  0  0  0  0
   -0.2949   18.0593   43.9764 H   0  0  0  0  0  0  0  0  0  0  0  0
  1  2  1  0
  1 19  1  0
  1 20  2  0
  2  3  1  0
  2 16  2  0
  3  4  2  0
  4  5  1  0
  5 15  2  0
  5 17  1  0
  6 17  1  0
  6 18  2  0
  6 22  1  0
  7  8  1  0
  7 14  2  0
  7 18  1  0
  8  9  1  0
  8 13  2  0
  9 10  2  0
 10 11  1  0
 11 12  2  0
 11 23  1  0
 12 13  1  0
 14 22  1  0
 15 16  1  0
 16 21  1  0
  3 24  1  0
  4 25  1  0
  9 26  1  0
 10 27  1  0
 12 28  1  0
 13 29  1  0
 14 30  1  0
 15 31  1  0
 17 32  1  0
M  CHG  2  19  -1  21  -1
M  END
>  <mol_id>  (96) 
2026-08-23-6tgu-s0-n100-r5-0096

>  <rmsd_to_ref>  (96) 
4.816326530617146

$$$$
6tgu.A
     RDKit          3D

 32 34  0  0  0  0  0  0  0  0999 V2000
   -1.4937   14.8892   38.1705 C   0  0  0  0  0  0  0  0  0  0  0  0
   -0.6163   15.9369   38.8614 C   0  0  0  0  0  0  0  0  0  0  0  0
   -0.8743   17.2958   38.6960 C   0  0  0  0  0  0  0  0  0  0  0  0
   -0.2210   18.2728   39.4543 C   0  0  0  0  0  0  0  0  0  0  0  0
    0.8491   17.9178   40.2884 C   0  0  0  0  0  0  0  0  0  0  0  0
    2.1746   18.7601   42.2876 C   0  0  0  0  0  0  0  0  0  0  0  0
    3.2197   17.6974   44.0063 C   0  0  0  0  0  0  0  0  0  0  0  0
    3.7535   16.5380   44.7219 C   0  0  0  0  0  0  0  0  0  0  0  0
    4.2919   16.6442   46.0122 C   0  0  0  0  0  0  0  0  0  0  0  0
    4.7633   15.5230   46.6880 C   0  0  0  0  0  0  0  0  0  0  0  0
    4.6515   14.2867   46.0803 C   0  0  0  0  0  0  0  0  0  0  0  0
    4.1206   14.1355   44.8082 C   0  0  0  0  0  0  0  0  0  0  0  0
    3.6648   15.2707   44.1437 C   0  0  0  0  0  0  0  0  0  0  0  0
    3.2119   18.9712   44.5100 C   0  0  0  0  0  0  0  0  0  0  0  0
    1.1148   16.5537   40.4745 C   0  0  0  0  0  0  0  0  0  0  0  0
    0.3888   15.5991   39.7598 C   0  0  0  0  0  0  0  0  0  0  0  0
    1.4844   18.8928   41.1172 N   0  0  0  0  0  0  0  0  0  0  0  0
    2.5492   17.5250   42.7723 N   0  0  0  0  0  0  0  0  0  0  0  0
   -2.5384   15.3166   37.5970 O   0  0  0  0  0  0  0  0  0  0  0  0
   -1.1532   13.6925   38.2964 O   0  0  0  0  0  0  0  0  0  0  0  0
    0.5851   14.2649   40.0268 O   0  0  0  0  0  0  0  0  0  0  0  0
    2.3367   20.0371   43.4777 S   0  0  0  0  0  0  0  0  0  0  0  0
    5.1968   12.8765   46.9263 Cl  0  0  0  0  0  0  0  0  0  0  0  0
   -1.6148   17.6102   37.9458 H   0  0  0  0  0  0  0  0  0  0  0  0
   -0.5473   19.3217   39.3964 H   0  0  0  0  0  0  0  0  0  0  0  0
    4.3424   17.6298   46.4981 H   0  0  0  0  0  0  0  0  0  0  0  0
    5.2160   15.6187   47.6860 H   0  0  0  0  0  0  0  0  0  0  0  0
    4.0612   13.1437   44.3361 H   0  0  0  0  0  0  0  0  0  0  0  0
    3.2250   15.1667   43.1409 H   0  0  0  0  0  0  0  0  0  0  0  0
    3.6996   19.2732   45.4486 H   0  0  0  0  0  0  0  0  0  0  0  0
    1.8942   16.2361   41.1828 H   0  0  0  0  0  0  0  0  0  0  0  0
    1.4089   19.8607   40.7731 H   0  0  0  0  0  0  0  0  0  0  0  0
  1  2  1  0
  1 19  1  0
  1 20  2  0
  2  3  1  0
  2 16  2  0
  3  4  2  0
  4  5  1  0
  5 15  2  0
  5 17  1  0
  6 17  1  0
  6 18  2  0
  6 22  1  0
  7  8  1  0
  7 14  2  0
  7 18  1  0
  8  9  1  0
  8 13  2  0
  9 10  2  0
 10 11  1  0
 11 12  2  0
 11 23  1  0
 12 13  1  0
 14 22  1  0
 15 16  1  0
 16 21  1  0
  3 24  1  0
  4 25  1  0
  9 26  1  0
 10 27  1  0
 12 28  1  0
 13 29  1  0
 14 30  1  0
 15 31  1  0
 17 32  1  0
M  CHG  2  19  -1  21  -1
M  END
>  <mol_id>  (97) 
2026-08-23-6tgu-s0-n100-r5-0097

>  <rmsd_to_ref>  (97) 
4.862244897959857

$$$$
6tgu.A
     RDKit          3D

 32 34  0  0  0  0  0  0  0  0999 V2000
    4.6013   21.3251   42.3021 C   0  0  0  0  0  0  0  0  0  0  0  0
    5.0963   20.0951   41.6960 C   0  0  0  0  0  0  0  0  0  0  0  0
    6.4167   19.9684   41.3428 C   0  0  0  0  0  0  0  0  0  0  0  0
    6.8432   18.8019   40.7771 C   0  0  0  0  0  0  0  0  0  0  0  0
    5.9361   17.7651   40.5688 C   0  0  0  0  0  0  0  0  0  0  0  0
    5.3934   15.4515   39.8109 C   0  0  0  0  0  0  0  0  0  0  0  0
    4.0844   13.6423   39.9716 C   0  0  0  0  0  0  0  0  0  0  0  0
    3.6929   12.4620   40.7730 C   0  0  0  0  0  0  0  0  0  0  0  0
    4.2696   12.1681   41.9881 C   0  0  0  0  0  0  0  0  0  0  0  0
    3.8934   11.0624   42.7330 C   0  0  0  0  0  0  0  0  0  0  0  0
    2.9104   10.2097   42.2665 C   0  0  0  0  0  0  0  0  0  0  0  0
    2.3222   10.4899   41.0504 C   0  0  0  0  0  0  0  0  0  0  0  0
    2.7138   11.5967   40.3272 C   0  0  0  0  0  0  0  0  0  0  0  0
    3.5165   13.9245   38.7717 C   0  0  0  0  0  0  0  0  0  0  0  0
    4.5916   17.9065   40.9336 C   0  0  0  0  0  0  0  0  0  0  0  0
    4.1724   19.0847   41.5023 C   0  0  0  0  0  0  0  0  0  0  0  0
    6.3378   16.5327   39.9762 N   0  0  0  0  0  0  0  0  0  0  0  0
    4.9965   14.5217   40.3131 N   0  0  0  0  0  0  0  0  0  0  0  0
    5.4654   22.3930   42.5329 O   0  0  0  0  0  0  0  0  0  0  0  0
    3.3702   21.4016   42.6138 O   0  0  0  0  0  0  0  0  0  0  0  0
    2.8353   19.2003   41.8549 O   0  0  0  0  0  0  0  0  0  0  0  0
    4.3472   15.4583   38.2102 S   0  0  0  0  0  0  0  0  0  0  0  0
    2.4576    8.8291   43.2235 Cl  0  0  0  0  0  0  0  0  0  0  0  0
    7.1107   20.7778   41.5083 H   0  0  0  0  0  0  0  0  0  0  0  0
    7.8833   18.6718   40.4870 H   0  0  0  0  0  0  0  0  0  0  0  0
    5.0357   12.8170   42.3701 H   0  0  0  0  0  0  0  0  0  0  0  0
    4.4028   10.8964   43.6945 H   0  0  0  0  0  0  0  0  0  0  0  0
    1.5449    9.8430   40.6489 H   0  0  0  0  0  0  0  0  0  0  0  0
    2.2355   11.7967   39.3715 H   0  0  0  0  0  0  0  0  0  0  0  0
    2.7445   13.4331   38.1816 H   0  0  0  0  0  0  0  0  0  0  0  0
    3.8864   17.0955   40.7695 H   0  0  0  0  0  0  0  0  0  0  0  0
    7.3344   16.4369   39.6667 H   0  0  0  0  0  0  0  0  0  0  0  0
  1  2  1  0
  1 19  1  0
  1 20  2  0
  2  3  1  0
  2 16  2  0
  3  4  2  0
  4  5  1  0
  5 15  2  0
  5 17  1  0
  6 17  1  0
  6 18  2  0
  6 22  1  0
  7  8  1  0
  7 14  2  0
  7 18  1  0
  8  9  1  0
  8 13  2  0
  9 10  2  0
 10 11  1  0
 11 12  2  0
 11 23  1  0
 12 13  1  0
 14 22  1  0
 15 16  1  0
 16 21  1  0
  3 24  1  0
  4 25  1  0
  9 26  1  0
 10 27  1  0
 12 28  1  0
 13 29  1  0
 14 30  1  0
 15 31  1  0
 17 32  1  0
M  CHG  2  19  -1  21  -1
M  END
>  <mol_id>  (98) 
2026-08-23-6tgu-s0-n100-r5-0098

>  <rmsd_to_ref>  (98) 
4.908163265306446

$$$$
6tgu.A
     RDKit          3D

 32 34  0  0  0  0  0  0  0  0999 V2000
    5.3951   14.6200   37.6672 C   0  0  0  0  0  0  0  0  0  0  0  0
    4.6532   15.7417   38.3993 C   0  0  0  0  0  0  0  0  0  0  0  0
    5.1125   17.0551   38.3315 C   0  0  0  0  0  0  0  0  0  0  0  0
    4.3640   18.1292   38.8238 C   0  0  0  0  0  0  0  0  0  0  0  0
    3.1963   17.8932   39.5638 C   0  0  0  0  0  0  0  0  0  0  0  0
    1.0566   19.0396   40.3194 C   0  0  0  0  0  0  0  0  0  0  0  0
   -1.0504   18.2751   40.7091 C   0  0  0  0  0  0  0  0  0  0  0  0
   -2.0766   17.2491   40.8970 C   0  0  0  0  0  0  0  0  0  0  0  0
   -3.4333   17.5725   41.0414 C   0  0  0  0  0  0  0  0  0  0  0  0
   -4.3969   16.5792   41.1853 C   0  0  0  0  0  0  0  0  0  0  0  0
   -3.9980   15.2566   41.1393 C   0  0  0  0  0  0  0  0  0  0  0  0
   -2.6681   14.8921   40.9924 C   0  0  0  0  0  0  0  0  0  0  0  0
   -1.7176   15.9008   40.8615 C   0  0  0  0  0  0  0  0  0  0  0  0
   -1.3090   19.6198   40.6754 C   0  0  0  0  0  0  0  0  0  0  0  0
    2.7144   16.5782   39.6323 C   0  0  0  0  0  0  0  0  0  0  0  0
    3.4479   15.5372   39.0601 C   0  0  0  0  0  0  0  0  0  0  0  0
    2.3868   18.9792   40.0183 N   0  0  0  0  0  0  0  0  0  0  0  0
    0.2829   17.9026   40.4163 N   0  0  0  0  0  0  0  0  0  0  0  0
    6.3228   14.9748   36.8820 O   0  0  0  0  0  0  0  0  0  0  0  0
    4.9747   13.4550   37.8404 O   0  0  0  0  0  0  0  0  0  0  0  0
    2.9163   14.2695   39.0417 O   0  0  0  0  0  0  0  0  0  0  0  0
    0.1029   20.5088   40.2466 S   0  0  0  0  0  0  0  0  0  0  0  0
   -5.1916   14.0084   41.2760 Cl  0  0  0  0  0  0  0  0  0  0  0  0
    6.0942   17.2537   37.8767 H   0  0  0  0  0  0  0  0  0  0  0  0
    4.6918   19.1612   38.6302 H   0  0  0  0  0  0  0  0  0  0  0  0
   -3.7408   18.6287   41.0409 H   0  0  0  0  0  0  0  0  0  0  0  0
   -5.4550   16.8411   41.3327 H   0  0  0  0  0  0  0  0  0  0  0  0
   -2.3717   13.8328   40.9798 H   0  0  0  0  0  0  0  0  0  0  0  0
   -0.6601   15.6292   40.7269 H   0  0  0  0  0  0  0  0  0  0  0  0
   -2.2880   20.0718   40.8932 H   0  0  0  0  0  0  0  0  0  0  0  0
    1.7596   16.3671   40.1361 H   0  0  0  0  0  0  0  0  0  0  0  0
    2.8931   19.8680   40.1393 H   0  0  0  0  0  0  0  0  0  0  0  0
  1  2  1  0
  1 19  1  0
  1 20  2  0
  2  3  1  0
  2 16  2  0
  3  4  2  0
  4  5  1  0
  5 15  2  0
  5 17  1  0
  6 17  1  0
  6 18  2  0
  6 22  1  0
  7  8  1  0
  7 14  2  0
  7 18  1  0
  8  9  1  0
  8 13  2  0
  9 10  2  0
 10 11  1  0
 11 12  2  0
 11 23  1  0
 12 13  1  0
 14 22  1  0
 15 16  1  0
 16 21  1  0
  3 24  1  0
  4 25  1  0
  9 26  1  0
 10 27  1  0
 12 28  1  0
 13 29  1  0
 14 30  1  0
 15 31  1  0
 17 32  1  0
M  CHG  2  19  -1  21  -1
M  END
>  <mol_id>  (99) 
2026-08-23-6tgu-s0-n100-r5-0099

>  <rmsd_to_ref>  (99) 
4.954081632660466

$$$$
6tgu.A
     RDKit          3D

 32 34  0  0  0  0  0  0  0  0999 V2000
    1.8627   21.1717   44.8339 C   0  0  0  0  0  0  0  0  0  0  0  0
    1.8561   20.1050   43.8517 C   0  0  0  0  0  0  0  0  0  0  0  0
    1.1253   18.9552   44.0490 C   0  0  0  0  0  0  0  0  0  0  0  0
    1.1259   17.9396   43.1024 C   0  0  0  0  0  0  0  0  0  0  0  0
    1.8351   18.0017   41.9303 C   0  0  0  0  0  0  0  0  0  0  0  0
    1.6152   15.6548   41.0731 C   0  0  0  0  0  0  0  0  0  0  0  0
    1.3431   13.4872   40.4476 C   0  0  0  0  0  0  0  0  0  0  0  0
    1.3663   12.4567   39.3830 C   0  0  0  0  0  0  0  0  0  0  0  0
    1.0674   11.1557   39.6879 C   0  0  0  0  0  0  0  0  0  0  0  0
    1.0873   10.1921   38.7030 C   0  0  0  0  0  0  0  0  0  0  0  0
    1.4016   10.4828   37.3934 C   0  0  0  0  0  0  0  0  0  0  0  0
    1.7078   11.8110   37.0776 C   0  0  0  0  0  0  0  0  0  0  0  0
    1.6830   12.7663   38.0787 C   0  0  0  0  0  0  0  0  0  0  0  0
    1.0198   13.1569   41.7666 C   0  0  0  0  0  0  0  0  0  0  0  0
    2.5762   19.1778   41.7392 C   0  0  0  0  0  0  0  0  0  0  0  0
    2.5795   20.1861   42.6718 C   0  0  0  0  0  0  0  0  0  0  0  0
    1.9110   17.0334   40.9385 N   0  0  0  0  0  0  0  0  0  0  0  0
    1.6131   14.7389   40.2421 N   0  0  0  0  0  0  0  0  0  0  0  0
    1.1214   21.0341   45.9873 O   0  0  0  0  0  0  0  0  0  0  0  0
    2.5264   22.2112   44.6544 O   0  0  0  0  0  0  0  0  0  0  0  0
    3.3362   21.3136   42.4096 O   0  0  0  0  0  0  0  0  0  0  0  0
    1.1581   14.8217   42.6016 S   0  0  0  0  0  0  0  0  0  0  0  0
    1.4219    9.2361   36.1502 Cl  0  0  0  0  0  0  0  0  0  0  0  0
    0.5355   18.8433   44.9672 H   0  0  0  0  0  0  0  0  0  0  0  0
    0.5239   17.0817   43.3286 H   0  0  0  0  0  0  0  0  0  0  0  0
    0.8063   10.8298   40.6991 H   0  0  0  0  0  0  0  0  0  0  0  0
    0.8470    9.1679   38.9683 H   0  0  0  0  0  0  0  0  0  0  0  0
    1.9631   12.0753   36.0411 H   0  0  0  0  0  0  0  0  0  0  0  0
    1.9283   13.8038   37.8005 H   0  0  0  0  0  0  0  0  0  0  0  0
    0.7580   12.2761   42.2694 H   0  0  0  0  0  0  0  0  0  0  0  0
    3.1671   19.3001   40.8284 H   0  0  0  0  0  0  0  0  0  0  0  0
    2.2187   17.3343   39.9670 H   0  0  0  0  0  0  0  0  0  0  0  0
  1  2  1  0
  1 19  1  0
  1 20  2  0
  2  3  1  0
  2 16  2  0
  3  4  2  0
  4  5  1  0
  5 15  2  0
  5 17  1  0
  6 17  1  0
  6 18  2  0
  6 22  1  0
  7  8  1  0
  7 14  2  0
  7 18  1  0
  8  9  1  0
  8 13  2  0
  9 10  2  0
 10 11  1  0
 11 12  2  0
 11 23  1  0
 12 13  1  0
 14 22  1  0
 15 16  1  0
 16 21  1  0
  3 24  1  0
  4 25  1  0
  9 26  1  0
 10 27  1  0
 12 28  1  0
 13 29  1  0
 14 30  1  0
 15 31  1  0
 17 32  1  0
M  CHG  2  19  -1  21  -1
M  END
>  <mol_id>  (100) 
2026-08-23-6tgu-s0-n100-r5-0100

>  <rmsd_to_ref>  (100) 
5.000000000005819

$$$$
