
     RDKit          3D

 67 70  0  0  0  0  0  0  0  0999 V2000
    3.1000   19.4580   38.6490 C   0  0  0  0  0  0  0  0  0  0  0  0
    2.9670   16.5460   38.4680 C   0  0  0  0  0  0  0  0  0  0  0  0
    3.3080   24.4390   30.2700 C   0  0  0  0  0  0  0  0  0  0  0  0
    2.4040   14.1480   40.9230 C   0  0  0  0  0  0  0  0  0  0  0  0
    2.8780   20.2820   37.4380 C   0  0  0  0  0  0  0  0  0  0  0  0
    2.2550   19.5490   39.8700 C   0  0  0  0  0  0  0  0  0  0  0  0
    2.1930   16.4420   39.8650 N   0  0  0  0  0  0  0  0  0  0  0  0
    4.7500   24.4480   28.1910 C   0  0  0  0  0  0  0  0  0  0  0  0
    1.4800   16.5560   42.0440 O   0  0  0  0  0  0  0  0  0  0  0  0
    2.4670   25.8000   32.2600 C   0  0  0  0  0  0  0  0  0  0  0  0
    3.2800   24.5980   31.6920 C   0  0  0  0  0  0  0  0  0  0  0  0
    1.5890   15.0200   39.9320 C   0  0  0  0  0  0  0  0  0  0  0  0
    2.2550   25.1900   29.4490 C   0  0  0  0  0  0  0  0  0  0  0  0
    2.0310   25.1790   33.6060 C   0  0  0  0  0  0  0  0  0  0  0  0
    2.6890   22.8030   34.5980 C   0  0  0  0  0  0  0  0  0  0  0  0
    2.9290   21.8830   35.4420 C   0  0  0  0  0  0  0  0  0  0  0  0
   -0.7370   20.6210   43.3330 S   0  0  0  0  0  0  0  0  0  0  0  0
    0.6600   19.1780   41.9110 C   0  0  0  0  0  0  0  0  0  0  0  0
    4.2290   17.3380   38.0180 C   0  0  0  0  0  0  0  0  0  0  0  0
    0.1210   18.3750   42.8550 N   0  0  0  0  0  0  0  0  0  0  0  0
    2.3100   24.8350   28.0640 C   0  0  0  0  0  0  0  0  0  0  0  0
    0.3040   20.5690   42.0100 C   0  0  0  0  0  0  0  0  0  0  0  0
   -1.4290   18.4690   44.8980 N   0  0  0  0  0  0  0  0  0  0  0  0
    4.4330   18.7410   38.5940 C   0  0  0  0  0  0  0  0  0  0  0  0
    1.8040   17.2520   40.9600 C   0  0  0  0  0  0  0  0  0  0  0  0
    3.5310   23.5520   32.6260 N   0  0  0  0  0  4  0  0  0  0  0  0
    2.8700   20.9180   36.5310 C   0  0  0  0  0  0  0  0  0  0  0  0
    4.6230   24.7740   29.6460 C   0  0  0  0  0  0  0  0  0  0  0  0
    1.6680   18.7030   40.8240 C   0  0  0  0  0  0  0  0  0  0  0  0
   -0.6890   18.9860   43.7590 C   0  0  0  0  0  0  0  0  0  0  0  0
    2.7460   23.8320   34.0640 C   0  0  0  0  0  0  0  0  0  0  0  0
    3.5890   24.9340   27.3480 C   0  0  0  0  0  0  0  0  0  0  0  0
    2.2866   18.7362   38.8144 H   0  0  0  0  0  0  0  0  0  0  0  0
    3.2277   15.5014   38.2425 H   0  0  0  0  0  0  0  0  0  0  0  0
    2.2343   17.2027   37.9762 H   0  0  0  0  0  0  0  0  0  0  0  0
    3.0820   23.3637   30.2180 H   0  0  0  0  0  0  0  0  0  0  0  0
    2.1443   14.4259   41.9551 H   0  0  0  0  0  0  0  0  0  0  0  0
    2.1666   13.0866   40.7583 H   0  0  0  0  0  0  0  0  0  0  0  0
    3.4790   14.3132   40.7583 H   0  0  0  0  0  0  0  0  0  0  0  0
    2.0179   20.5997   40.0933 H   0  0  0  0  0  0  0  0  0  0  0  0
    5.6718   24.9129   27.8114 H   0  0  0  0  0  0  0  0  0  0  0  0
    4.7651   23.3511   28.1104 H   0  0  0  0  0  0  0  0  0  0  0  0
    1.6060   26.0534   31.6241 H   0  0  0  0  0  0  0  0  0  0  0  0
    3.0149   26.7511   32.3321 H   0  0  0  0  0  0  0  0  0  0  0  0
    4.3493   24.8408   31.6051 H   0  0  0  0  0  0  0  0  0  0  0  0
    0.5453   15.0825   40.2739 H   0  0  0  0  0  0  0  0  0  0  0  0
    1.6252   14.5630   38.9321 H   0  0  0  0  0  0  0  0  0  0  0  0
    1.2567   24.9446   29.8403 H   0  0  0  0  0  0  0  0  0  0  0  0
    2.4588   26.2676   29.5346 H   0  0  0  0  0  0  0  0  0  0  0  0
    2.2124   25.9302   34.3888 H   0  0  0  0  0  0  0  0  0  0  0  0
    0.9781   24.8984   33.4554 H   0  0  0  0  0  0  0  0  0  0  0  0
    5.1087   16.7385   38.2948 H   0  0  0  0  0  0  0  0  0  0  0  0
    4.0852   17.4992   36.9394 H   0  0  0  0  0  0  0  0  0  0  0  0
    1.9791   23.7888   27.9872 H   0  0  0  0  0  0  0  0  0  0  0  0
    1.6780   25.5911   27.5753 H   0  0  0  0  0  0  0  0  0  0  0  0
    0.6341   21.4020   41.3719 H   0  0  0  0  0  0  0  0  0  0  0  0
   -1.3797   17.4673   45.1325 H   0  0  0  0  0  0  0  0  0  0  0  0
   -2.0028   19.1043   45.4707 H   0  0  0  0  0  0  0  0  0  0  0  0
    4.8513   18.6645   39.6085 H   0  0  0  0  0  0  0  0  0  0  0  0
    5.1285   19.3044   37.9545 H   0  0  0  0  0  0  0  0  0  0  0  0
    3.1997   22.6608   32.2299 H   0  0  0  0  0  0  0  0  0  0  0  0
    4.5439   23.5129   32.8087 H   0  0  0  0  0  0  0  0  0  0  0  0
    5.4049   24.2203   30.1864 H   0  0  0  0  0  0  0  0  0  0  0  0
    4.7210   25.8672   29.7191 H   0  0  0  0  0  0  0  0  0  0  0  0
    2.7853   24.1496   35.1164 H   0  0  0  0  0  0  0  0  0  0  0  0
    3.5330   24.3234   26.4348 H   0  0  0  0  0  0  0  0  0  0  0  0
    3.7631   25.9933   27.1081 H   0  0  0  0  0  0  0  0  0  0  0  0
  1  5  1  0
  1  6  1  0
  2  7  1  0
  6 29  2  0
  7 12  1  0
  7 25  1  0
  8 28  1  0
 10 14  1  0
 11  3  1  0
 11 10  1  0
 11 26  1  0
 12  4  1  0
 13  3  1  0
 14 31  1  0
 15 16  3  0
 16 27  1  0
 17 30  1  0
 18 22  2  0
 18 20  1  0
 19  2  1  0
 19 24  1  0
 20 30  2  0
 21 13  1  0
 22 17  1  0
 24  1  1  0
 25  9  2  0
 26 31  1  0
 27  5  3  0
 28  3  1  0
 29 25  1  0
 29 18  1  0
 30 23  1  0
 31 15  1  0
 32 21  1  0
 32  8  1  0
  1 33  1  0
  2 34  1  0
  2 35  1  0
  3 36  1  0
  4 37  1  0
  4 38  1  0
  4 39  1  0
  6 40  1  0
  8 41  1  0
  8 42  1  0
 10 43  1  0
 10 44  1  0
 11 45  1  0
 12 46  1  0
 12 47  1  0
 13 48  1  0
 13 49  1  0
 14 50  1  0
 14 51  1  0
 19 52  1  0
 19 53  1  0
 21 54  1  0
 21 55  1  0
 22 56  1  0
 23 57  1  0
 23 58  1  0
 24 59  1  0
 24 60  1  0
 26 61  1  0
 26 62  1  0
 28 63  1  0
 28 64  1  0
 31 65  1  0
 32 66  1  0
 32 67  1  0
M  CHG  1  26   1
M  END
>  <mol_id>  (1) 
2026-09-18-3war-s0-n100-0001

>  <rmsd_to_ref>  (1) 


$$$$

     RDKit          3D

 61 62  0  0  0  0  0  0  0  0999 V2000
    5.3120   22.9220   33.3070 O   0  0  0  0  0  0  0  0  0  0  0  0
    3.2720   23.2860   32.5800 C   0  0  0  0  0  0  0  0  0  0  0  0
    0.4460   26.1280   30.7810 C   0  0  0  0  0  0  0  0  0  0  0  0
    3.5360   21.8440   34.6260 C   0  0  0  0  0  0  0  0  0  0  0  0
    5.2160   23.4820   30.3360 C   0  0  0  0  0  0  0  0  0  0  0  0
    1.6700   25.4330   30.5810 C   0  0  0  0  0  0  0  0  0  0  0  0
    2.6000   16.7980   38.4890 C   0  0  0  0  0  0  0  0  0  0  0  0
    1.3470   25.7040   31.5030 C   0  0  0  0  0  0  0  0  0  0  0  0
    1.6390   21.2190   39.1060 C   0  0  0  0  0  0  0  0  0  0  0  0
    4.0610   22.3090   33.3490 C   0  0  0  0  0  0  0  0  0  0  0  0
    4.3400   23.5150   28.9550 S   0  0  0  0  0  0  0  0  0  0  0  0
    2.4640   18.9490   39.0430 C   0  0  0  0  0  0  0  0  0  0  0  0
    1.5160   25.0170   29.2000 N   0  0  0  0  0  0  0  0  0  0  0  0
    2.2730   20.1660   41.0500 F   0  0  0  0  0  0  0  0  0  0  0  0
    0.1290   15.2480   40.1750 O   0  0  0  0  0  0  0  0  0  0  0  0
    2.2880   14.3600   41.1200 O   0  0  0  0  0  0  0  0  0  0  0  0
    4.2080   23.9950   31.4830 O   0  0  0  0  0  0  0  0  0  0  0  0
    2.1730   15.4850   38.7370 N   0  0  0  0  0  0  0  0  0  0  0  0
    1.6140   15.4490   40.3040 S   0  0  0  0  0  6  0  0  0  0  0  0
    2.9150   19.0080   37.7080 C   0  0  0  0  0  0  0  0  0  0  0  0
    0.5160   25.7370   28.6030 C   0  0  0  0  0  0  0  0  0  0  0  0
    3.2040   24.6860   30.6940 C   0  0  0  0  0  0  0  0  0  0  0  0
    2.1260   22.2760   34.9440 C   0  0  0  0  0  0  0  0  0  0  0  0
    1.4890   21.9460   38.2400 F   0  0  0  0  0  0  0  0  0  0  0  0
    3.3030   17.5260   37.1120 S   0  0  0  0  0  0  0  0  0  0  0  0
    2.6250   23.6800   29.4170 C   0  0  0  0  0  0  0  0  0  0  0  0
    2.5170   17.7440   39.5690 N   0  0  0  0  0  0  0  0  0  0  0  0
    2.0020   17.0960   40.8280 C   0  0  0  0  0  0  0  0  0  0  0  0
    2.0210   20.1780   39.7390 C   0  0  0  0  0  0  0  0  0  0  0  0
    3.9780   20.7010   35.0500 O   0  0  0  0  0  0  0  0  0  0  0  0
    5.6335   23.0795   34.2300 H   0  0  0  0  0  0  0  0  0  0  0  0
    2.4429   22.7694   32.0743 H   0  0  0  0  0  0  0  0  0  0  0  0
    2.8702   24.0485   33.2635 H   0  0  0  0  0  0  0  0  0  0  0  0
   -0.3734   26.5136   31.4054 H   0  0  0  0  0  0  0  0  0  0  0  0
    0.8352   26.9374   30.1460 H   0  0  0  0  0  0  0  0  0  0  0  0
    0.0704   25.3121   30.1460 H   0  0  0  0  0  0  0  0  0  0  0  0
    4.0544   22.4567   35.3783 H   0  0  0  0  0  0  0  0  0  0  0  0
    4.5374   23.5076   31.2014 H   0  0  0  0  0  0  0  0  0  0  0  0
    5.8160   22.5606   30.3677 H   0  0  0  0  0  0  0  0  0  0  0  0
    5.8837   24.3556   30.3677 H   0  0  0  0  0  0  0  0  0  0  0  0
    0.8794   26.1968   30.5418 H   0  0  0  0  0  0  0  0  0  0  0  0
    1.9481   26.4558   32.0354 H   0  0  0  0  0  0  0  0  0  0  0  0
    1.2325   25.0467   32.3776 H   0  0  0  0  0  0  0  0  0  0  0  0
    0.5730   21.1220   39.3595 H   0  0  0  0  0  0  0  0  0  0  0  0
    2.6822   21.5654   39.1490 H   0  0  0  0  0  0  0  0  0  0  0  0
    4.0592   21.2924   32.9288 H   0  0  0  0  0  0  0  0  0  0  0  0
    1.4304   18.7612   38.7168 H   0  0  0  0  0  0  0  0  0  0  0  0
    2.1191   19.4421   37.0850 H   0  0  0  0  0  0  0  0  0  0  0  0
    3.8246   19.6263   37.6881 H   0  0  0  0  0  0  0  0  0  0  0  0
   -0.1187   26.1940   29.3765 H   0  0  0  0  0  0  0  0  0  0  0  0
    0.9565   26.5266   27.9765 H   0  0  0  0  0  0  0  0  0  0  0  0
   -0.0931   25.0688   27.9765 H   0  0  0  0  0  0  0  0  0  0  0  0
    3.8919   25.4768   31.0279 H   0  0  0  0  0  0  0  0  0  0  0  0
    1.9923   22.3170   36.0351 H   0  0  0  0  0  0  0  0  0  0  0  0
    1.9419   23.2718   34.5144 H   0  0  0  0  0  0  0  0  0  0  0  0
    1.4157   21.5543   34.5144 H   0  0  0  0  0  0  0  0  0  0  0  0
    2.1262   22.7371   29.1486 H   0  0  0  0  0  0  0  0  0  0  0  0
    1.1053   17.6134   41.1999 H   0  0  0  0  0  0  0  0  0  0  0  0
    2.7250   17.1266   41.6564 H   0  0  0  0  0  0  0  0  0  0  0  0
    0.9336   20.3160   39.6467 H   0  0  0  0  0  0  0  0  0  0  0  0
    3.9804   20.6948   36.0400 H   0  0  0  0  0  0  0  0  0  0  0  0
  2 10  1  0
  3  8  1  0
  4 23  1  0
  4 30  1  0
  6 22  1  0
  6  8  1  0
  7 18  2  0
  7 27  1  0
  9 29  1  0
 10  1  1  0
 10  4  1  0
 11  5  1  0
 12 27  1  0
 12 29  1  0
 13 26  1  0
 13  6  1  0
 15 19  2  0
 17  2  1  0
 18 19  1  0
 19 28  1  0
 19 16  2  0
 20 12  1  0
 21 13  1  0
 22 17  1  0
 24  9  1  0
 25 20  1  0
 25  7  1  0
 26 11  1  0
 26 22  1  0
 27 28  1  0
 29 14  1  0
  1 31  1  0
  2 32  1  0
  2 33  1  0
  3 34  1  0
  3 35  1  0
  3 36  1  0
  4 37  1  0
  5 38  1  0
  5 39  1  0
  5 40  1  0
  6 41  1  0
  8 42  1  0
  8 43  1  0
  9 44  1  0
  9 45  1  0
 10 46  1  0
 12 47  1  0
 20 48  1  0
 20 49  1  0
 21 50  1  0
 21 51  1  0
 21 52  1  0
 22 53  1  0
 23 54  1  0
 23 55  1  0
 23 56  1  0
 26 57  1  0
 28 58  1  0
 28 59  1  0
 29 60  1  0
 30 61  1  0
M  END
>  <mol_id>  (2) 
2026-09-18-3war-s0-n100-0002

>  <rmsd_to_ref>  (2) 


$$$$

     RDKit          3D

 28 29  0  0  0  0  0  0  0  0999 V2000
    3.1650   23.5730   33.3990 C   0  0  0  0  0  0  0  0  0  0  0  0
    2.9970   24.7560   30.8260 C   0  0  0  0  0  0  0  0  0  0  0  0
    2.0880   21.1720   38.2540 C   0  0  0  0  0  0  0  0  0  0  0  0
    3.1190   19.2350   37.7360 N   0  0  0  0  0  0  0  0  0  0  0  0
    3.4280   21.7840   35.0760 C   0  0  0  0  0  0  0  0  0  0  0  0
    2.5660   17.6720   39.9610 Cl  0  0  0  0  0  0  0  0  0  0  0  0
    2.5200   19.1230   38.9860 C   0  0  0  0  0  0  0  0  0  0  0  0
    4.0610   23.0940   32.4500 C   0  0  0  0  0  0  0  0  0  0  0  0
    1.9020   20.2590   39.3050 C   0  0  0  0  0  0  0  0  0  0  0  0
    1.8230   25.5320   30.8560 C   0  0  0  0  0  0  0  0  0  0  0  0
    3.2720   21.0810   35.9500 C   0  0  0  0  0  0  0  0  0  0  0  0
    4.0810   24.2680   31.3290 N   0  0  0  0  0  4  0  0  0  0  0  0
    1.2100   20.5590   40.8300 Cl  0  0  0  0  0  0  0  0  0  0  0  0
    2.7550   20.5370   37.2570 C   0  0  0  0  0  0  0  0  0  0  0  0
    4.1520   22.2540   33.8810 C   0  0  0  0  0  0  0  0  0  0  0  0
    2.0866   23.4142   33.2514 H   0  0  0  0  0  0  0  0  0  0  0  0
    2.9754   24.5698   33.8239 H   0  0  0  0  0  0  0  0  0  0  0  0
    2.5284   23.8010   30.5458 H   0  0  0  0  0  0  0  0  0  0  0  0
    3.5560   25.6803   30.6181 H   0  0  0  0  0  0  0  0  0  0  0  0
    1.7517   22.2192   38.2412 H   0  0  0  0  0  0  0  0  0  0  0  0
    2.5946   22.4961   35.1676 H   0  0  0  0  0  0  0  0  0  0  0  0
    4.6022   22.5670   31.6504 H   0  0  0  0  0  0  0  0  0  0  0  0
    1.5356   25.7219   31.9007 H   0  0  0  0  0  0  0  0  0  0  0  0
    2.0032   26.4895   30.3454 H   0  0  0  0  0  0  0  0  0  0  0  0
    1.0127   24.9910   30.3454 H   0  0  0  0  0  0  0  0  0  0  0  0
    4.6254   23.8994   30.5362 H   0  0  0  0  0  0  0  0  0  0  0  0
    4.4493   25.0683   31.8627 H   0  0  0  0  0  0  0  0  0  0  0  0
    4.9689   21.5580   34.1224 H   0  0  0  0  0  0  0  0  0  0  0  0
  1 15  1  0
  2 10  1  0
  2 12  1  0
  3  9  2  0
  4  7  2  0
  5 11  2  0
  7  9  1  0
  7  6  1  0
  8 12  1  0
  8  1  1  0
  8 15  1  0
  9 13  1  0
 11 14  2  0
 14  4  1  0
 14  3  1  0
 15  5  1  0
  1 16  1  0
  1 17  1  0
  2 18  1  0
  2 19  1  0
  3 20  1  0
  5 21  1  0
  8 22  1  0
 10 23  1  0
 10 24  1  0
 10 25  1  0
 12 26  1  0
 12 27  1  0
 15 28  1  0
M  CHG  1  12   1
M  END
>  <mol_id>  (3) 
2026-09-18-3war-s0-n100-0003

>  <rmsd_to_ref>  (3) 


$$$$

     RDKit          3D

 76 76  0  0  0  0  0  0  0  0999 V2000
    2.6220   22.4830   34.8740 C   0  0  0  0  0  0  0  0  0  0  0  0
    2.9500   18.4010   38.6910 C   0  0  0  0  0  0  0  0  0  0  0  0
    2.5080   18.8620   41.0290 F   0  0  0  0  0  0  0  0  0  0  0  0
    4.0900   12.6910   39.7760 S   0  0  0  0  0  0  0  0  0  0  0  0
    2.4000   16.2080   39.1180 N   0  0  0  0  0  0  0  0  0  0  0  0
    3.2250   17.0930   38.9050 O   0  0  0  0  0  0  0  0  0  0  0  0
    0.8100   29.5300   32.3280 C   0  0  0  0  0  0  0  0  0  0  0  0
    1.8780   26.8150   33.2590 C   0  0  0  0  0  0  0  0  0  0  0  0
    3.7540   29.5890   32.3430 C   0  0  0  0  0  0  0  0  0  0  0  0
    2.4910   14.8570   38.9180 C   0  0  0  0  0  0  0  0  0  0  0  0
    1.8330   20.4030   39.6050 C   0  0  0  0  0  0  0  0  0  0  0  0
    1.6680   27.1420   31.8490 C   0  0  0  0  0  0  0  0  0  0  0  0
    1.9160   14.1900   35.5600 N   0  0  0  0  0  4  0  0  0  0  0  0
    1.4410   27.2400   35.4230 O   0  0  0  0  0  0  0  0  0  0  0  0
    3.0360   13.8490   36.3340 C   0  0  0  0  0  0  0  0  0  0  0  0
    1.5030   25.5830   33.7640 C   0  0  0  0  0  0  0  0  0  0  0  0
    3.8560   26.5910   35.0020 O   0  0  0  0  0  0  0  0  0  0  0  0
    1.3180   30.4010   32.6160 O   0  0  0  0  0  0  0  0  0  0  0  0
    1.9480   24.9820   34.7490 C   0  0  0  0  0  0  0  0  0  0  0  0
    2.4780   26.7960   34.7420 S   0  0  0  0  0  6  0  0  0  0  0  0
    3.3480   14.7200   37.5170 C   0  0  0  0  0  0  0  0  0  0  0  0
    2.8800   19.3950   39.8740 C   0  0  0  0  0  0  0  0  0  0  0  0
    1.9430   21.0780   38.2250 C   0  0  0  0  0  0  0  0  0  0  0  0
    3.9190   12.7680   35.8250 C   0  0  0  0  0  0  0  0  0  0  0  0
    2.9280   20.4190   37.3680 C   0  0  0  0  0  0  0  0  0  0  0  0
    4.4150   27.6280   31.3850 C   0  0  0  0  0  0  0  0  0  0  0  0
    3.3210   21.7240   34.3120 O   0  0  0  0  0  0  0  0  0  0  0  0
    3.4130   28.3390   31.9260 C   0  0  0  0  0  0  0  0  0  0  0  0
    3.0290   18.9980   37.4400 C   0  0  0  0  0  0  0  0  0  0  0  0
    3.0570   13.9850   40.0070 C   0  0  0  0  0  0  0  0  0  0  0  0
    1.4870   22.1430   35.5290 N   0  0  0  0  0  0  0  0  0  0  0  0
    3.5220   30.8200   31.7300 O   0  0  0  0  0  0  0  0  0  0  0  0
    2.9190   23.9620   35.0260 C   0  0  0  0  0  0  0  0  0  0  0  0
    1.9620   28.0540   32.2380 C   0  0  0  0  0  0  0  0  0  0  0  0
    1.3530   26.6790   30.3710 C   0  0  0  0  0  0  0  0  0  0  0  0
    4.4835   12.1981   40.9922 H   0  0  0  0  0  0  0  0  0  0  0  0
    0.0180   29.3200   33.0619 H   0  0  0  0  0  0  0  0  0  0  0  0
    0.3855   29.6955   31.3268 H   0  0  0  0  0  0  0  0  0  0  0  0
    1.9358   27.8041   32.7812 H   0  0  0  0  0  0  0  0  0  0  0  0
    3.2805   29.6842   33.3313 H   0  0  0  0  0  0  0  0  0  0  0  0
    4.8347   29.5241   32.1485 H   0  0  0  0  0  0  0  0  0  0  0  0
    0.8530   19.9074   39.6690 H   0  0  0  0  0  0  0  0  0  0  0  0
    1.9601   21.1973   40.3553 H   0  0  0  0  0  0  0  0  0  0  0  0
    2.7441   27.0153   31.6593 H   0  0  0  0  0  0  0  0  0  0  0  0
    1.1297   14.4294   36.1807 H   0  0  0  0  0  0  0  0  0  0  0  0
    2.1431   15.0000   34.9656 H   0  0  0  0  0  0  0  0  0  0  0  0
    1.6532   13.3909   34.9656 H   0  0  0  0  0  0  0  0  0  0  0  0
    3.0047   13.1152   37.1528 H   0  0  0  0  0  0  0  0  0  0  0  0
    0.8112   24.9489   33.1901 H   0  0  0  0  0  0  0  0  0  0  0  0
    1.3487   30.4537   33.6041 H   0  0  0  0  0  0  0  0  0  0  0  0
    2.3009   25.8102   35.3810 H   0  0  0  0  0  0  0  0  0  0  0  0
    1.1015   24.2806   34.7874 H   0  0  0  0  0  0  0  0  0  0  0  0
    4.3557   14.4128   37.8335 H   0  0  0  0  0  0  0  0  0  0  0  0
    3.1104   15.6990   37.0753 H   0  0  0  0  0  0  0  0  0  0  0  0
    3.9039   19.7886   39.9557 H   0  0  0  0  0  0  0  0  0  0  0  0
    0.9607   21.0389   37.7316 H   0  0  0  0  0  0  0  0  0  0  0  0
    2.2699   22.1167   38.3807 H   0  0  0  0  0  0  0  0  0  0  0  0
    4.3617   12.2260   36.6737 H   0  0  0  0  0  0  0  0  0  0  0  0
    3.3290   12.0706   35.2122 H   0  0  0  0  0  0  0  0  0  0  0  0
    4.7201   13.2070   35.2122 H   0  0  0  0  0  0  0  0  0  0  0  0
    3.9147   20.8313   37.6256 H   0  0  0  0  0  0  0  0  0  0  0  0
    2.5816   20.6200   36.3435 H   0  0  0  0  0  0  0  0  0  0  0  0
    5.4093   28.0827   31.2642 H   0  0  0  0  0  0  0  0  0  0  0  0
    4.2417   26.5907   31.0625 H   0  0  0  0  0  0  0  0  0  0  0  0
    3.1654   18.3931   36.5314 H   0  0  0  0  0  0  0  0  0  0  0  0
    2.1833   13.5697   40.5306 H   0  0  0  0  0  0  0  0  0  0  0  0
    3.7444   14.6973   40.4867 H   0  0  0  0  0  0  0  0  0  0  0  0
    1.1571   21.1674   35.5154 H   0  0  0  0  0  0  0  0  0  0  0  0
    0.9534   22.8600   36.0409 H   0  0  0  0  0  0  0  0  0  0  0  0
    3.3911   31.5144   32.4233 H   0  0  0  0  0  0  0  0  0  0  0  0
    3.2203   24.1055   36.0741 H   0  0  0  0  0  0  0  0  0  0  0  0
    3.6499   24.1260   34.2205 H   0  0  0  0  0  0  0  0  0  0  0  0
    1.8386   27.8645   33.3145 H   0  0  0  0  0  0  0  0  0  0  0  0
    0.7344   25.7698   30.3956 H   0  0  0  0  0  0  0  0  0  0  0  0
    0.8101   27.4777   29.8444 H   0  0  0  0  0  0  0  0  0  0  0  0
    2.2953   26.4673   29.8444 H   0  0  0  0  0  0  0  0  0  0  0  0
  1 33  1  0
  1 31  1  0
  2  6  1  0
  2 22  1  0
  4 30  1  0
  6  5  1  0
  7 18  1  0
  8 12  1  0
  8 16  1  0
  8 20  1  0
 10  5  2  3
 10 30  1  0
 11 22  1  0
 12 35  1  0
 12 34  1  0
 13 15  1  0
 15 24  1  0
 15 21  1  0
 16 20  1  0
 16 19  1  0
 19 33  1  0
 20 17  2  0
 20 14  2  0
 21 10  1  0
 22  3  1  0
 23 11  1  0
 25 29  1  0
 25 23  1  0
 26 28  2  3
 27  1  2  0
 28 34  1  0
 28  9  1  0
 29  2  2  0
 32  9  1  0
 34  7  1  0
  4 36  1  0
  7 37  1  0
  7 38  1  0
  8 39  1  0
  9 40  1  0
  9 41  1  0
 11 42  1  0
 11 43  1  0
 12 44  1  0
 13 45  1  0
 13 46  1  0
 13 47  1  0
 15 48  1  0
 16 49  1  0
 18 50  1  0
 19 51  1  0
 19 52  1  0
 21 53  1  0
 21 54  1  0
 22 55  1  0
 23 56  1  0
 23 57  1  0
 24 58  1  0
 24 59  1  0
 24 60  1  0
 25 61  1  0
 25 62  1  0
 26 63  1  0
 26 64  1  0
 29 65  1  0
 30 66  1  0
 30 67  1  0
 31 68  1  0
 31 69  1  0
 32 70  1  0
 33 71  1  0
 33 72  1  0
 34 73  1  0
 35 74  1  0
 35 75  1  0
 35 76  1  0
M  CHG  1  13   1
M  END
>  <mol_id>  (4) 
2026-09-18-3war-s0-n100-0004

>  <rmsd_to_ref>  (4) 


$$$$

     RDKit          3D

 34 37  0  0  0  0  0  0  0  0999 V2000
    2.4490   21.3980   37.5690 C   0  0  0  0  0  0  0  0  0  0  0  0
    2.0500   19.5250   39.3860 C   0  0  0  0  0  0  0  0  0  0  0  0
    2.2740   24.2090   32.5460 C   0  0  0  0  0  0  0  0  0  0  0  0
    2.0680   23.4020   36.2680 C   0  0  0  0  0  0  0  0  0  0  0  0
    2.7520   23.7730   34.9070 C   0  0  0  0  0  0  0  0  0  0  0  0
    2.3280   18.2420   39.8780 C   0  0  0  0  0  0  0  0  0  0  0  0
    2.3700   19.8980   37.9290 C   0  0  0  0  0  0  0  0  0  0  0  0
    3.7450   23.8490   32.7340 C   0  0  0  0  0  0  0  0  0  0  0  0
    3.0380   21.8690   36.1020 C   0  0  0  0  0  0  0  0  0  0  0  0
    1.0490   18.8490   41.9380 C   0  0  0  0  0  0  0  0  0  0  0  0
    0.9400   20.2440   41.4880 C   0  0  0  0  0  0  0  0  0  0  0  0
    4.1270   23.4850   34.1810 C   0  0  0  0  0  0  0  0  0  0  0  0
    1.5420   20.4870   40.2400 C   0  0  0  0  0  0  0  0  0  0  0  0
    1.8590   24.6290   33.9340 C   0  0  0  0  0  0  0  0  0  0  0  0
    2.5620   19.0480   37.1070 O   0  0  0  0  0  0  0  0  0  0  0  0
    1.7100   22.0020   36.2920 N   0  0  0  0  0  0  0  0  0  0  0  0
    1.7690   17.9220   41.1820 C   0  0  0  0  0  0  0  0  0  0  0  0
    2.5648   21.6233   38.6394 H   0  0  0  0  0  0  0  0  0  0  0  0
    2.1556   25.0348   31.8290 H   0  0  0  0  0  0  0  0  0  0  0  0
    1.6700   23.3846   32.1390 H   0  0  0  0  0  0  0  0  0  0  0  0
    1.6656   24.2802   36.7941 H   0  0  0  0  0  0  0  0  0  0  0  0
    3.1846   24.6724   35.3696 H   0  0  0  0  0  0  0  0  0  0  0  0
    2.9335   17.5196   39.3110 H   0  0  0  0  0  0  0  0  0  0  0  0
    3.9741   22.9873   32.0898 H   0  0  0  0  0  0  0  0  0  0  0  0
    4.3255   24.7453   32.4702 H   0  0  0  0  0  0  0  0  0  0  0  0
    3.9423   21.5532   35.5611 H   0  0  0  0  0  0  0  0  0  0  0  0
    0.5620   18.5345   42.8729 H   0  0  0  0  0  0  0  0  0  0  0  0
    0.4342   21.0261   42.0733 H   0  0  0  0  0  0  0  0  0  0  0  0
    4.4238   22.4297   34.2720 H   0  0  0  0  0  0  0  0  0  0  0  0
    4.9893   24.0352   34.5855 H   0  0  0  0  0  0  0  0  0  0  0  0
    1.6152   21.5352   39.9145 H   0  0  0  0  0  0  0  0  0  0  0  0
    2.0446   25.7028   34.0840 H   0  0  0  0  0  0  0  0  0  0  0  0
    0.7855   24.4657   34.1098 H   0  0  0  0  0  0  0  0  0  0  0  0
    1.9192   16.9108   41.5882 H   0  0  0  0  0  0  0  0  0  0  0  0
  1  7  1  0
  2  6  2  0
  2 13  1  0
  3  8  1  0
  3 14  1  0
  4  5  1  0
  4 16  1  0
  6 17  1  0
  7  2  1  0
  8 12  1  0
  9  4  1  0
  9 16  1  0
  9  1  1  0
 11 10  1  0
 12  5  1  0
 13 11  2  0
 14  5  1  0
 15  7  2  0
 16  1  1  0
 17 10  2  0
  1 18  1  0
  3 19  1  0
  3 20  1  0
  4 21  1  0
  5 22  1  0
  6 23  1  0
  8 24  1  0
  8 25  1  0
  9 26  1  0
 10 27  1  0
 11 28  1  0
 12 29  1  0
 12 30  1  0
 13 31  1  0
 14 32  1  0
 14 33  1  0
 17 34  1  0
M  END
>  <mol_id>  (5) 
2026-09-18-3war-s0-n100-0005

>  <rmsd_to_ref>  (5) 


$$$$

     RDKit          3D

 65 70  0  0  0  0  0  0  0  0999 V2000
    1.1540   15.2110   42.0970 S   0  0  0  0  0  0  0  0  0  0  0  0
    3.1570   16.5310   38.6270 N   0  0  0  0  0  0  0  0  0  0  0  0
    1.8450   22.9090   33.6150 O   0  0  0  0  0  0  0  0  0  0  0  0
    2.0760   19.8010   39.4520 C   0  0  0  0  0  0  0  0  0  0  0  0
    1.9670   15.5630   40.6600 C   0  0  0  0  0  0  0  0  0  0  0  0
    3.4080   18.6860   37.7540 C   0  0  0  0  0  0  0  0  0  0  0  0
    2.4060   25.4540   33.3580 C   0  0  0  0  0  0  0  0  0  0  0  0
    0.7690   26.5060   28.5660 O   0  0  0  0  0  0  0  0  0  0  0  0
    3.2440   19.6870   36.9390 C   0  0  0  0  0  0  0  0  0  0  0  0
    1.7900   19.7120   40.8250 C   0  0  0  0  0  0  0  0  0  0  0  0
    2.1110   21.9020   36.5420 C   0  0  0  0  0  0  0  0  0  0  0  0
    1.7140   26.7900   30.8950 C   0  0  0  0  0  0  0  0  0  0  0  0
    2.3070   25.9280   31.8780 C   0  0  0  0  0  0  0  0  0  0  0  0
    3.0630   26.9990   28.5670 C   0  0  0  0  0  0  0  0  0  0  0  0
    3.1690   15.3150   38.6390 C   0  0  0  0  0  0  0  0  0  0  0  0
    0.5010   17.8320   43.3440 C   0  0  0  0  0  0  0  0  0  0  0  0
    2.0350   25.6850   28.4180 C   0  0  0  0  0  0  0  0  0  0  0  0
    2.6180   18.6680   38.9500 C   0  0  0  0  0  0  0  0  0  0  0  0
    1.2520   25.3430   30.9680 C   0  0  0  0  0  0  0  0  0  0  0  0
    0.5720   26.2490   29.9620 C   0  0  0  0  0  0  0  0  0  0  0  0
    2.8610   23.9740   33.6400 C   0  0  0  0  0  0  0  0  0  0  0  0
    3.2580   25.5340   29.3370 C   0  0  0  0  0  0  0  0  0  0  0  0
    2.1470   23.3800   34.8420 C   0  0  0  0  0  0  0  0  0  0  0  0
    3.9030   14.5890   37.6090 C   0  0  0  0  0  0  0  0  0  0  0  0
    0.4120   16.7430   42.4090 C   0  0  0  0  0  0  0  0  0  0  0  0
    1.8980   16.9410   40.4260 N   0  0  0  0  0  0  0  0  0  0  0  0
    2.5570   17.4310   39.4500 C   0  0  0  0  0  0  0  0  0  0  0  0
    2.4910   20.6980   37.4220 C   0  0  0  0  0  0  0  0  0  0  0  0
    3.6280   27.1520   27.1970 O   0  0  0  0  0  0  0  0  0  0  0  0
    2.8460   22.2860   35.4890 C   0  0  0  0  0  0  0  0  0  0  0  0
    3.9590   25.5790   30.6020 O   0  0  0  0  0  0  0  0  0  0  0  0
    2.5590   14.7300   39.7840 C   0  0  0  0  0  0  0  0  0  0  0  0
    1.9280   20.9170   38.6340 C   0  0  0  0  0  0  0  0  0  0  0  0
    4.1266   17.8829   37.5333 H   0  0  0  0  0  0  0  0  0  0  0  0
    1.4097   25.5793   33.8072 H   0  0  0  0  0  0  0  0  0  0  0  0
    3.2096   26.0708   33.7868 H   0  0  0  0  0  0  0  0  0  0  0  0
    3.6858   19.7079   35.9319 H   0  0  0  0  0  0  0  0  0  0  0  0
    2.6829   19.9899   41.4043 H   0  0  0  0  0  0  0  0  0  0  0  0
    0.9648   20.3958   41.0727 H   0  0  0  0  0  0  0  0  0  0  0  0
    1.4985   18.6807   41.0727 H   0  0  0  0  0  0  0  0  0  0  0  0
    1.1053   21.6888   36.1508 H   0  0  0  0  0  0  0  0  0  0  0  0
    2.2561   22.7428   37.2363 H   0  0  0  0  0  0  0  0  0  0  0  0
    0.9338   27.0755   31.6160 H   0  0  0  0  0  0  0  0  0  0  0  0
    3.3507   26.0188   32.2133 H   0  0  0  0  0  0  0  0  0  0  0  0
    3.1409   28.0346   28.9296 H   0  0  0  0  0  0  0  0  0  0  0  0
    0.4688   17.4376   44.3704 H   0  0  0  0  0  0  0  0  0  0  0  0
    1.4463   18.3725   43.1884 H   0  0  0  0  0  0  0  0  0  0  0  0
   -0.3440   18.5188   43.1884 H   0  0  0  0  0  0  0  0  0  0  0  0
    1.6316   24.8226   27.8670 H   0  0  0  0  0  0  0  0  0  0  0  0
    2.0322   25.0575   30.2470 H   0  0  0  0  0  0  0  0  0  0  0  0
   -0.5015   26.3097   29.7300 H   0  0  0  0  0  0  0  0  0  0  0  0
    3.8723   24.0955   33.2247 H   0  0  0  0  0  0  0  0  0  0  0  0
    3.6818   24.5357   29.5208 H   0  0  0  0  0  0  0  0  0  0  0  0
    1.6516   23.8648   35.6961 H   0  0  0  0  0  0  0  0  0  0  0  0
    4.6083   13.8914   38.0842 H   0  0  0  0  0  0  0  0  0  0  0  0
    3.1956   14.0255   36.9829 H   0  0  0  0  0  0  0  0  0  0  0  0
    4.4588   15.3026   36.9829 H   0  0  0  0  0  0  0  0  0  0  0  0
    0.5691   17.2620   41.4519 H   0  0  0  0  0  0  0  0  0  0  0  0
   -0.4333   16.2842   42.9429 H   0  0  0  0  0  0  0  0  0  0  0  0
    4.5816   27.4102   27.2603 H   0  0  0  0  0  0  0  0  0  0  0  0
    2.9620   21.4474   34.7867 H   0  0  0  0  0  0  0  0  0  0  0  0
    3.8477   22.6052   35.8127 H   0  0  0  0  0  0  0  0  0  0  0  0
    3.3045   25.5370   31.3436 H   0  0  0  0  0  0  0  0  0  0  0  0
    2.5708   13.6421   39.9464 H   0  0  0  0  0  0  0  0  0  0  0  0
    1.4235   21.8483   38.9308 H   0  0  0  0  0  0  0  0  0  0  0  0
  1 25  1  0
  2 15  2  0
  2 27  1  0
  3 21  1  0
  3 23  1  0
  4 10  1  0
  5  1  1  0
  6 18  1  0
  7 21  1  0
  8 20  1  0
  9 28  1  0
  9  6  2  0
 11 28  1  0
 12 19  1  0
 12 13  1  0
 13  7  1  0
 14 22  1  0
 15 32  1  0
 17  8  1  0
 17 14  1  0
 17 22  1  0
 18 27  1  0
 18  4  2  0
 19 13  1  0
 20 12  1  0
 20 19  1  0
 21 23  1  0
 22 31  1  0
 23 30  1  0
 24 15  1  0
 25 16  1  0
 26  5  1  0
 27 26  2  0
 28 33  2  0
 29 14  1  0
 30 11  1  0
 32  5  2  0
 33  4  1  0
  6 34  1  0
  7 35  1  0
  7 36  1  0
  9 37  1  0
 10 38  1  0
 10 39  1  0
 10 40  1  0
 11 41  1  0
 11 42  1  0
 12 43  1  0
 13 44  1  0
 14 45  1  0
 16 46  1  0
 16 47  1  0
 16 48  1  0
 17 49  1  0
 19 50  1  0
 20 51  1  0
 21 52  1  0
 22 53  1  0
 23 54  1  0
 24 55  1  0
 24 56  1  0
 24 57  1  0
 25 58  1  0
 25 59  1  0
 29 60  1  0
 30 61  1  0
 30 62  1  0
 31 63  1  0
 32 64  1  0
 33 65  1  0
M  END
>  <mol_id>  (6) 
2026-09-18-3war-s0-n100-0006

>  <rmsd_to_ref>  (6) 


$$$$

     RDKit          3D

 87 90  0  0  0  0  0  0  0  0999 V2000
    2.0560   15.5730   40.0950 C   0  0  0  0  0  0  0  0  0  0  0  0
    3.6120   14.2730   38.3010 C   0  0  0  0  0  0  0  0  0  0  0  0
   -0.0690   18.7300   43.3370 N   0  0  0  0  0  0  0  0  0  0  0  0
    2.6430   19.6720   38.0080 N   0  0  0  0  0  4  0  0  0  0  0  0
    2.3730   14.2870   36.2810 O   0  0  0  0  0  0  0  0  0  0  0  0
    2.3040   18.0160   39.5880 C   0  0  0  0  0  0  0  0  0  0  0  0
    2.5690   19.5900   39.4230 C   0  0  0  0  0  0  0  0  0  0  0  0
    2.9810   13.6170   37.1520 C   0  0  0  0  0  0  0  0  0  0  0  0
    3.0180   25.0930   27.5710 C   0  0  0  0  0  0  0  0  0  0  0  0
   -1.0930   19.5140   43.2880 C   0  0  0  0  0  0  0  0  0  0  0  0
    2.7230   15.0930   39.2920 C   0  0  0  0  0  0  0  0  0  0  0  0
   -1.0390   20.6120   42.5740 N   0  0  0  0  0  0  0  0  0  0  0  0
    2.3800   25.2130   34.5200 S   0  0  0  0  0  0  0  0  0  0  0  0
    3.7930   22.6130   34.4900 C   0  0  0  0  0  0  0  0  0  0  0  0
    2.7760   22.5980   33.4280 F   0  0  0  0  0  0  0  0  0  0  0  0
    2.8690   25.3010   30.0540 C   0  0  0  0  0  0  0  0  0  0  0  0
    4.3170   16.4730   37.7100 C   0  0  0  0  0  0  0  0  0  0  0  0
    2.1060   25.0220   28.4510 C   0  0  0  0  0  0  0  0  0  0  0  0
    1.5980   21.3770   40.1880 O   0  0  0  0  0  0  0  0  0  0  0  0
    3.1680   18.4100   37.4700 C   0  0  0  0  0  0  0  0  0  0  0  0
    0.6310   19.5820   40.9720 N   0  0  0  0  0  0  0  0  0  0  0  0
    4.1570   24.2540   32.1650 C   0  0  0  0  0  0  0  0  0  0  0  0
    3.2590   17.3820   38.5000 C   0  0  0  0  0  0  0  0  0  0  0  0
    1.4600   20.1340   40.1590 C   0  0  0  0  0  0  0  0  0  0  0  0
    3.9560   24.8530   33.4010 C   0  0  0  0  0  0  0  0  0  0  0  0
    4.1080   24.4520   29.8080 C   0  0  0  0  0  0  0  0  0  0  0  0
    3.3730   24.4220   29.4020 C   0  0  0  0  0  0  0  0  0  0  0  0
    1.4850   17.7290   40.9440 C   0  0  0  0  0  0  0  0  0  0  0  0
   -2.1030   19.1470   43.9300 O   0  0  0  0  0  0  0  0  0  0  0  0
    3.7320   25.0040   31.2280 C   0  0  0  0  0  0  0  0  0  0  0  0
    2.4200   24.9280   29.5300 C   0  0  0  0  0  0  0  0  0  0  0  0
   -0.0670   20.6950   41.5200 C   0  0  0  0  0  0  0  0  0  0  0  0
    4.7140   23.8190   34.4320 C   0  0  0  0  0  0  0  0  0  0  0  0
    1.3760   16.2380   41.2970 C   0  0  0  0  0  0  0  0  0  0  0  0
    3.0290   12.3820   37.0170 O   0  0  0  0  0  1  0  0  0  0  0  0
    4.4410   15.0790   37.1870 C   0  0  0  0  0  0  0  0  0  0  0  0
    2.7070   24.2690   36.0940 C   0  0  0  0  0  0  0  0  0  0  0  0
    4.1360   24.0270   28.3880 C   0  0  0  0  0  0  0  0  0  0  0  0
    4.2760   25.1800   30.2960 C   0  0  0  0  0  0  0  0  0  0  0  0
    2.9090   22.7530   35.8750 C   0  0  0  0  0  0  0  0  0  0  0  0
    4.0813   13.7102   39.1214 H   0  0  0  0  0  0  0  0  0  0  0  0
    0.7929   18.9763   42.8297 H   0  0  0  0  0  0  0  0  0  0  0  0
   -0.1137   17.8580   43.8834 H   0  0  0  0  0  0  0  0  0  0  0  0
    1.7025   19.8436   37.6246 H   0  0  0  0  0  0  0  0  0  0  0  0
    3.2693   20.4451   37.7417 H   0  0  0  0  0  0  0  0  0  0  0  0
    1.7083   17.0986   39.4714 H   0  0  0  0  0  0  0  0  0  0  0  0
    3.4479   20.1315   39.8030 H   0  0  0  0  0  0  0  0  0  0  0  0
    3.4135   26.1122   27.4491 H   0  0  0  0  0  0  0  0  0  0  0  0
    2.7416   24.8365   26.5376 H   0  0  0  0  0  0  0  0  0  0  0  0
   -1.6785   21.3966   42.7644 H   0  0  0  0  0  0  0  0  0  0  0  0
    4.4310   21.7206   34.4084 H   0  0  0  0  0  0  0  0  0  0  0  0
    2.4057   25.0670   31.0238 H   0  0  0  0  0  0  0  0  0  0  0  0
    2.8838   26.2867   29.5660 H   0  0  0  0  0  0  0  0  0  0  0  0
    4.4832   17.0670   36.7992 H   0  0  0  0  0  0  0  0  0  0  0  0
    4.8847   16.2410   38.6232 H   0  0  0  0  0  0  0  0  0  0  0  0
    1.4966   25.9337   28.3654 H   0  0  0  0  0  0  0  0  0  0  0  0
    1.5846   24.0785   28.2323 H   0  0  0  0  0  0  0  0  0  0  0  0
    2.4987   18.0568   36.6717 H   0  0  0  0  0  0  0  0  0  0  0  0
    4.1799   18.5971   37.0814 H   0  0  0  0  0  0  0  0  0  0  0  0
    0.5033   18.5806   41.1765 H   0  0  0  0  0  0  0  0  0  0  0  0
    5.2324   24.0719   32.0224 H   0  0  0  0  0  0  0  0  0  0  0  0
    3.6027   23.3043   32.1374 H   0  0  0  0  0  0  0  0  0  0  0  0
    4.0854   17.9311   38.9750 H   0  0  0  0  0  0  0  0  0  0  0  0
    4.1832   25.8694   33.0470 H   0  0  0  0  0  0  0  0  0  0  0  0
    4.7099   24.0072   30.6141 H   0  0  0  0  0  0  0  0  0  0  0  0
    3.0995   23.3582   29.4614 H   0  0  0  0  0  0  0  0  0  0  0  0
    3.7008   25.0305   28.5463 H   0  0  0  0  0  0  0  0  0  0  0  0
    1.9926   18.2455   41.7720 H   0  0  0  0  0  0  0  0  0  0  0  0
    0.4607   18.0968   40.7843 H   0  0  0  0  0  0  0  0  0  0  0  0
    2.7571   24.5894   30.9317 H   0  0  0  0  0  0  0  0  0  0  0  0
    3.7995   25.9941   31.7025 H   0  0  0  0  0  0  0  0  0  0  0  0
    1.3838   24.8455   29.8898 H   0  0  0  0  0  0  0  0  0  0  0  0
    0.7117   21.3780   41.8903 H   0  0  0  0  0  0  0  0  0  0  0  0
   -0.7125   20.9658   40.6714 H   0  0  0  0  0  0  0  0  0  0  0  0
    5.7037   23.5363   34.0440 H   0  0  0  0  0  0  0  0  0  0  0  0
    4.8903   24.2638   35.4225 H   0  0  0  0  0  0  0  0  0  0  0  0
    0.3254   15.9244   41.3853 H   0  0  0  0  0  0  0  0  0  0  0  0
    1.8320   15.9775   42.2635 H   0  0  0  0  0  0  0  0  0  0  0  0
    3.9868   14.9774   36.1903 H   0  0  0  0  0  0  0  0  0  0  0  0
    5.4756   14.7329   37.0461 H   0  0  0  0  0  0  0  0  0  0  0  0
    3.6151   24.6769   36.5619 H   0  0  0  0  0  0  0  0  0  0  0  0
    1.8186   24.3874   36.7318 H   0  0  0  0  0  0  0  0  0  0  0  0
    3.8117   22.9803   28.2918 H   0  0  0  0  0  0  0  0  0  0  0  0
    5.1478   24.0852   27.9605 H   0  0  0  0  0  0  0  0  0  0  0  0
    5.2434   25.6976   30.2167 H   0  0  0  0  0  0  0  0  0  0  0  0
    1.9375   22.2495   35.7619 H   0  0  0  0  0  0  0  0  0  0  0  0
    3.4190   22.2849   36.7299 H   0  0  0  0  0  0  0  0  0  0  0  0
  1 34  1  0
  2  8  1  0
  2 11  1  0
  4  7  1  0
  5  8  2  0
  6 28  1  0
  7  6  1  0
  7 24  1  0
  9 38  1  0
  9 18  1  0
 10  3  1  0
 10 29  2  0
 11  1  3  0
 12 10  1  0
 13 37  1  0
 14 15  1  0
 14 40  1  0
 16 39  1  0
 17 23  1  0
 20  4  1  0
 21 32  1  0
 23 20  1  0
 23  6  1  0
 24 19  2  0
 24 21  1  0
 25 22  1  0
 25 33  1  0
 25 13  1  0
 26 38  1  0
 26 39  1  0
 27 31  1  0
 27 26  1  0
 28 34  1  0
 30 22  1  0
 31 18  1  0
 31 16  1  0
 32 12  1  0
 33 14  1  0
 35  8  1  0
 36 17  1  0
 36  2  1  0
 39 30  1  0
 40 37  1  0
  2 41  1  0
  3 42  1  0
  3 43  1  0
  4 44  1  0
  4 45  1  0
  6 46  1  0
  7 47  1  0
  9 48  1  0
  9 49  1  0
 12 50  1  0
 14 51  1  0
 16 52  1  0
 16 53  1  0
 17 54  1  0
 17 55  1  0
 18 56  1  0
 18 57  1  0
 20 58  1  0
 20 59  1  0
 21 60  1  0
 22 61  1  0
 22 62  1  0
 23 63  1  0
 25 64  1  0
 26 65  1  0
 27 66  1  0
 27 67  1  0
 28 68  1  0
 28 69  1  0
 30 70  1  0
 30 71  1  0
 31 72  1  0
 32 73  1  0
 32 74  1  0
 33 75  1  0
 33 76  1  0
 34 77  1  0
 34 78  1  0
 36 79  1  0
 36 80  1  0
 37 81  1  0
 37 82  1  0
 38 83  1  0
 38 84  1  0
 39 85  1  0
 40 86  1  0
 40 87  1  0
M  CHG  2   4   1  35  -1
M  END
>  <mol_id>  (7) 
2026-09-18-3war-s0-n100-0007

>  <rmsd_to_ref>  (7) 


$$$$

     RDKit          3D

 43 43  0  0  0  0  0  0  0  0999 V2000
    1.5760   15.4390   38.1110 O   0  0  0  0  0  0  0  0  0  0  0  0
    2.4980   17.5630   38.8720 C   0  0  0  0  0  0  0  0  0  0  0  0
    3.3720   22.6040   33.7330 C   0  0  0  0  0  0  0  0  0  0  0  0
    2.2260   21.8100   36.1780 O   0  0  0  0  0  0  0  0  0  0  0  0
    1.0710   25.5830   31.2070 C   0  0  0  0  0  0  0  0  0  0  0  0
    2.7320   16.0950   38.5290 C   0  0  0  0  0  0  0  0  0  0  0  0
    1.4260   21.5520   39.6590 C   0  0  0  0  0  0  0  0  0  0  0  0
    3.9620   18.0970   37.0950 N   0  0  0  0  0  0  0  0  0  0  0  0
    2.6990   19.8410   38.2940 C   0  0  0  0  0  0  0  0  0  0  0  0
    4.0090   20.3890   36.3210 O   0  0  0  0  0  1  0  0  0  0  0  0
    3.2300   21.2750   35.7020 C   0  0  0  0  0  0  0  0  0  0  0  0
    3.5980   21.7390   34.5210 N   0  0  0  0  0  0  0  0  0  0  0  0
    1.9100   20.2570   39.3940 C   0  0  0  0  0  0  0  0  0  0  0  0
    1.7630   17.9190   40.0100 C   0  0  0  0  0  0  0  0  0  0  0  0
    2.2660   25.4600   31.8520 C   0  0  0  0  0  0  0  0  0  0  0  0
    1.4920   19.2160   40.2690 C   0  0  0  0  0  0  0  0  0  0  0  0
    1.4310   26.6290   32.1520 C   0  0  0  0  0  0  0  0  0  0  0  0
    2.1730   24.4880   32.9660 C   0  0  0  0  0  0  0  0  0  0  0  0
    3.0670   18.5550   38.1110 C   0  0  0  0  0  0  0  0  0  0  0  0
    3.4760   23.5720   32.8070 C   0  0  0  0  0  0  0  0  0  0  0  0
    1.0587   15.1454   38.9024 H   0  0  0  0  0  0  0  0  0  0  0  0
    2.6600   22.0029   33.1484 H   0  0  0  0  0  0  0  0  0  0  0  0
    3.8512   23.2994   34.4379 H   0  0  0  0  0  0  0  0  0  0  0  0
    1.0563   25.8065   30.1300 H   0  0  0  0  0  0  0  0  0  0  0  0
    0.1953   24.9270   31.0938 H   0  0  0  0  0  0  0  0  0  0  0  0
    3.1201   15.5845   39.4227 H   0  0  0  0  0  0  0  0  0  0  0  0
    3.4464   16.0640   37.6931 H   0  0  0  0  0  0  0  0  0  0  0  0
    1.3683   21.7064   40.7466 H   0  0  0  0  0  0  0  0  0  0  0  0
    2.1071   22.2952   39.2188 H   0  0  0  0  0  0  0  0  0  0  0  0
    0.4244   21.6663   39.2188 H   0  0  0  0  0  0  0  0  0  0  0  0
    4.1912   17.0953   37.0239 H   0  0  0  0  0  0  0  0  0  0  0  0
    4.3777   18.7686   36.4339 H   0  0  0  0  0  0  0  0  0  0  0  0
    3.0243   20.5940   37.5611 H   0  0  0  0  0  0  0  0  0  0  0  0
    4.3478   21.1391   34.1484 H   0  0  0  0  0  0  0  0  0  0  0  0
    1.4047   17.1376   40.6963 H   0  0  0  0  0  0  0  0  0  0  0  0
    3.3026   25.3015   31.5198 H   0  0  0  0  0  0  0  0  0  0  0  0
    0.9333   19.4747   41.1806 H   0  0  0  0  0  0  0  0  0  0  0  0
    1.7187   27.6303   31.7989 H   0  0  0  0  0  0  0  0  0  0  0  0
    0.9870   27.0899   33.0467 H   0  0  0  0  0  0  0  0  0  0  0  0
    2.1780   25.0065   33.9361 H   0  0  0  0  0  0  0  0  0  0  0  0
    1.2427   23.9019   32.9337 H   0  0  0  0  0  0  0  0  0  0  0  0
    3.5120   23.1327   31.7992 H   0  0  0  0  0  0  0  0  0  0  0  0
    4.3963   24.1588   32.9438 H   0  0  0  0  0  0  0  0  0  0  0  0
  1  6  1  0
  2 14  2  0
  3 12  1  0
  5 15  1  0
  5 17  1  0
  6  2  1  0
  8 19  1  0
  9 13  1  0
 11  4  2  0
 11 10  1  0
 12 11  1  0
 13  7  1  0
 13 16  2  0
 14 16  1  0
 15 17  1  0
 15 18  1  0
 19  9  2  0
 19  2  1  0
 20 18  1  0
 20  3  1  0
  1 21  1  0
  3 22  1  0
  3 23  1  0
  5 24  1  0
  5 25  1  0
  6 26  1  0
  6 27  1  0
  7 28  1  0
  7 29  1  0
  7 30  1  0
  8 31  1  0
  8 32  1  0
  9 33  1  0
 12 34  1  0
 14 35  1  0
 15 36  1  0
 16 37  1  0
 17 38  1  0
 17 39  1  0
 18 40  1  0
 18 41  1  0
 20 42  1  0
 20 43  1  0
M  CHG  1  10  -1
M  END
>  <mol_id>  (8) 
2026-09-18-3war-s0-n100-0008

>  <rmsd_to_ref>  (8) 


$$$$

     RDKit          3D

 44 45  0  0  0  0  0  0  0  0999 V2000
    2.3310   23.8230   33.9950 C   0  0  0  0  0  0  0  0  0  0  0  0
    3.0970   24.6540   31.7950 C   0  0  0  0  0  0  0  0  0  0  0  0
    2.1330   24.6120   32.8740 C   0  0  0  0  0  0  0  0  0  0  0  0
    2.7440   18.7970   38.9570 C   0  0  0  0  0  0  0  0  0  0  0  0
    2.4880   25.5710   30.7290 C   0  0  0  0  0  0  0  0  0  0  0  0
    1.6960   16.5240   42.9460 O   0  0  0  0  0  0  0  0  0  0  0  0
    1.3020   19.5440   41.2730 C   0  0  0  0  0  0  0  0  0  0  0  0
    2.6180   20.1300   39.3270 C   0  0  0  0  0  0  0  0  0  0  0  0
    0.2090   16.0220   41.1340 O   0  0  0  0  0  0  0  0  0  0  0  0
   -0.2490   18.1390   42.7970 O   0  0  0  0  0  0  0  0  0  0  0  0
    3.3150   19.2150   36.6030 N   0  0  0  0  0  4  0  0  0  0  0  0
    0.8540   17.1730   41.9170 S   0  0  0  0  0  4  0  0  0  0  0  0
    1.0310   25.0360   32.4900 O   0  0  0  0  0  0  0  0  0  0  0  0
    1.2490   26.6650   30.8630 C   0  0  0  0  0  0  0  0  0  0  0  0
    2.2230   17.8120   39.7880 C   0  0  0  0  0  0  0  0  0  0  0  0
    3.3290   21.8510   34.8790 N   0  0  0  0  0  0  0  0  0  0  0  0
    4.2080   24.0220   31.7630 C   0  0  0  0  0  0  0  0  0  0  0  0
    4.2550   23.0260   32.8610 C   0  0  0  0  0  0  0  0  0  0  0  0
    3.3940   22.8850   33.9510 C   0  0  0  0  0  0  0  0  0  0  0  0
    1.5880   18.1820   40.9430 C   0  0  0  0  0  0  0  0  0  0  0  0
    1.2300   25.8440   31.3970 C   0  0  0  0  0  0  0  0  0  0  0  0
    1.9000   20.5470   40.3920 C   0  0  0  0  0  0  0  0  0  0  0  0
    3.4560   18.4280   37.7200 C   0  0  0  0  0  0  0  0  0  0  0  0
    1.6898   23.9199   34.8835 H   0  0  0  0  0  0  0  0  0  0  0  0
    2.3465   25.0562   29.7673 H   0  0  0  0  0  0  0  0  0  0  0  0
    3.0868   26.4496   30.4469 H   0  0  0  0  0  0  0  0  0  0  0  0
    1.3696   16.7755   43.8462 H   0  0  0  0  0  0  0  0  0  0  0  0
    0.6736   19.8192   42.1329 H   0  0  0  0  0  0  0  0  0  0  0  0
    3.1320   20.8885   38.7183 H   0  0  0  0  0  0  0  0  0  0  0  0
   -0.1626   15.3589   41.7683 H   0  0  0  0  0  0  0  0  0  0  0  0
   -0.1005   18.0090   43.7671 H   0  0  0  0  0  0  0  0  0  0  0  0
    3.1405   20.1890   36.8890 H   0  0  0  0  0  0  0  0  0  0  0  0
    4.1772   19.1714   36.0412 H   0  0  0  0  0  0  0  0  0  0  0  0
    2.5216   18.8748   36.0412 H   0  0  0  0  0  0  0  0  0  0  0  0
    0.4303   27.3949   30.9471 H   0  0  0  0  0  0  0  0  0  0  0  0
    2.0890   26.8571   30.1793 H   0  0  0  0  0  0  0  0  0  0  0  0
    2.3197   16.7493   39.5211 H   0  0  0  0  0  0  0  0  0  0  0  0
    2.6338   21.8834   35.6383 H   0  0  0  0  0  0  0  0  0  0  0  0
    3.9761   21.0529   34.8069 H   0  0  0  0  0  0  0  0  0  0  0  0
    5.0102   24.1918   31.0297 H   0  0  0  0  0  0  0  0  0  0  0  0
    5.0799   22.3001   32.8096 H   0  0  0  0  0  0  0  0  0  0  0  0
    1.7674   21.6203   40.5931 H   0  0  0  0  0  0  0  0  0  0  0  0
    3.1193   17.4175   37.4452 H   0  0  0  0  0  0  0  0  0  0  0  0
    4.5172   18.5415   37.9864 H   0  0  0  0  0  0  0  0  0  0  0  0
  2  3  1  0
  3  1  2  0
  4  8  2  0
  4 15  1  0
  5 21  1  0
  5  2  1  0
  8 22  1  0
  9 12  1  0
 11 23  1  0
 12 10  1  0
 12  6  1  0
 13  3  1  0
 14 21  2  3
 15 20  2  0
 17  2  2  0
 17 18  1  0
 18 19  2  0
 19  1  1  0
 19 16  1  0
 20  7  1  0
 20 12  1  0
 21 13  1  0
 22  7  2  0
 23  4  1  0
  1 24  1  0
  5 25  1  0
  5 26  1  0
  6 27  1  0
  7 28  1  0
  8 29  1  0
  9 30  1  0
 10 31  1  0
 11 32  1  0
 11 33  1  0
 11 34  1  0
 14 35  1  0
 14 36  1  0
 15 37  1  0
 16 38  1  0
 16 39  1  0
 17 40  1  0
 18 41  1  0
 22 42  1  0
 23 43  1  0
 23 44  1  0
M  CHG  1  11   1
M  END
>  <mol_id>  (9) 
2026-09-18-3war-s0-n100-0009

>  <rmsd_to_ref>  (9) 


$$$$

     RDKit          3D

 22 22  0  0  0  0  0  0  0  0999 V2000
    3.0380   19.5850   38.0540 C   0  0  0  0  0  0  0  0  0  0  0  0
    2.2500   20.3950   38.9170 C   0  0  0  0  0  0  0  0  0  0  0  0
    2.8490   22.5180   35.8690 N   0  0  0  0  0  0  0  0  0  0  0  0
    2.5420   21.4480   36.7850 C   0  0  0  0  0  0  0  0  0  0  0  0
    3.9720   22.8510   33.6700 C   0  0  0  0  0  0  0  0  0  0  0  0
    1.8340   20.2500   40.4420 C   0  0  0  0  0  0  0  0  0  0  0  0
    3.1200   20.0970   36.7610 C   0  0  0  0  0  0  0  0  0  0  0  0
    2.8460   22.1230   34.4410 C   0  0  0  0  0  0  0  0  0  0  0  0
    1.7980   21.8840   38.1940 S   0  0  0  0  0  0  0  0  0  0  0  0
    3.6730   23.3090   32.5210 O   0  0  0  0  0  0  0  0  0  0  0  0
    5.2830   23.4060   34.3990 C   0  0  0  0  0  0  0  0  0  0  0  0
    3.5299   18.6543   38.3730 H   0  0  0  0  0  0  0  0  0  0  0  0
    3.0536   23.4779   36.1815 H   0  0  0  0  0  0  0  0  0  0  0  0
    2.6787   20.5444   41.0821 H   0  0  0  0  0  0  0  0  0  0  0  0
    0.9719   20.9006   40.6504 H   0  0  0  0  0  0  0  0  0  0  0  0
    1.5631   19.2044   40.6504 H   0  0  0  0  0  0  0  0  0  0  0  0
    3.5402   19.5842   35.8832 H   0  0  0  0  0  0  0  0  0  0  0  0
    1.8751   22.3859   33.9957 H   0  0  0  0  0  0  0  0  0  0  0  0
    3.0155   21.0382   34.3738 H   0  0  0  0  0  0  0  0  0  0  0  0
    5.1482   23.3490   35.4892 H   0  0  0  0  0  0  0  0  0  0  0  0
    6.1513   22.7983   34.1046 H   0  0  0  0  0  0  0  0  0  0  0  0
    5.4511   24.4525   34.1046 H   0  0  0  0  0  0  0  0  0  0  0  0
  1  2  2  0
  2  6  1  0
  3  4  1  0
  4  9  1  0
  5 11  1  0
  5  8  1  0
  7  4  2  0
  7  1  1  0
  8  3  1  0
  9  2  1  0
 10  5  2  0
  1 12  1  0
  3 13  1  0
  6 14  1  0
  6 15  1  0
  6 16  1  0
  7 17  1  0
  8 18  1  0
  8 19  1  0
 11 20  1  0
 11 21  1  0
 11 22  1  0
M  END
>  <mol_id>  (10) 
2026-09-18-3war-s0-n100-0010

>  <rmsd_to_ref>  (10) 


$$$$

     RDKit          3D

 54 58  0  0  0  0  0  0  0  0999 V2000
    4.2600   24.3970   31.2440 O   0  0  0  0  0  0  0  0  0  0  0  0
   -0.9170   20.0650   43.4410 C   0  0  0  0  0  0  0  0  0  0  0  0
   -0.6830   19.0760   42.5630 C   0  0  0  0  0  0  0  0  0  0  0  0
    4.7920   22.9110   29.0600 C   0  0  0  0  0  0  0  0  0  0  0  0
    2.2420   24.1350   28.1420 C   0  0  0  0  0  0  0  0  0  0  0  0
    2.0700   21.6370   37.2390 C   0  0  0  0  0  0  0  0  0  0  0  0
    3.7340   22.2180   32.5190 O   0  0  0  0  0  0  0  0  0  0  0  0
    3.1420   23.9380   30.5480 C   0  0  0  0  0  0  0  0  0  0  0  0
    2.5660   26.1470   29.4550 C   0  0  0  0  0  0  0  0  0  0  0  0
    2.7640   22.7220   34.9830 Cl  0  0  0  0  0  0  0  0  0  0  0  0
    2.3380   19.4370   40.6140 C   0  0  0  0  0  0  0  0  0  0  0  0
   -0.8060   21.3400   43.4580 O   0  0  0  0  0  0  0  0  0  0  0  0
    3.3970   19.2390   37.0240 C   0  0  0  0  0  0  0  0  0  0  0  0
    0.8480   19.0580   42.4350 N   0  0  0  0  0  4  0  0  0  0  0  0
    2.8150   21.4390   36.1060 C   0  0  0  0  0  0  0  0  0  0  0  0
    4.8390   23.6070   27.7910 C   0  0  0  0  0  0  0  0  0  0  0  0
    1.6810   18.5230   41.3350 C   0  0  0  0  0  0  0  0  0  0  0  0
    2.9030   20.4860   40.9540 O   0  0  0  0  0  0  0  0  0  0  0  0
    2.4960   17.3940   39.6630 N   0  0  0  0  0  0  0  0  0  0  0  0
    2.4540   25.0330   26.8940 C   0  0  0  0  0  0  0  0  0  0  0  0
    2.7690   19.5080   38.1930 C   0  0  0  0  0  0  0  0  0  0  0  0
    1.9390   17.2970   40.8730 C   0  0  0  0  0  0  0  0  0  0  0  0
    2.6710   24.8020   29.4230 C   0  0  0  0  0  0  0  0  0  0  0  0
    3.4890   22.5090   29.8690 C   0  0  0  0  0  0  0  0  0  0  0  0
    1.5800   15.8620   41.6450 S   0  0  0  0  0  0  0  0  0  0  0  0
    4.1010   21.7130   31.2090 N   0  0  0  0  0  0  0  0  0  0  0  0
    2.0200   20.7180   38.2540 C   0  0  0  0  0  0  0  0  0  0  0  0
    3.4510   22.9370   28.2090 S   0  0  0  0  0  4  0  0  0  0  0  0
   -1.0470   19.0240   44.2240 N   0  0  0  0  0  0  0  0  0  0  0  0
    2.6640   18.7670   39.4090 N   0  0  0  0  0  0  0  0  0  0  0  0
    3.4960   20.1510   35.9920 C   0  0  0  0  0  0  0  0  0  0  0  0
    4.0936   24.3287   32.2175 H   0  0  0  0  0  0  0  0  0  0  0  0
   -1.0545   18.6521   41.6184 H   0  0  0  0  0  0  0  0  0  0  0  0
    5.7469   22.7687   29.5872 H   0  0  0  0  0  0  0  0  0  0  0  0
    1.1858   23.8381   28.0622 H   0  0  0  0  0  0  0  0  0  0  0  0
    1.4913   22.5673   37.3371 H   0  0  0  0  0  0  0  0  0  0  0  0
    4.1459   21.6512   33.2184 H   0  0  0  0  0  0  0  0  0  0  0  0
    2.3488   23.9098   31.3096 H   0  0  0  0  0  0  0  0  0  0  0  0
    2.8614   26.7004   30.3586 H   0  0  0  0  0  0  0  0  0  0  0  0
    2.1850   26.6900   28.5775 H   0  0  0  0  0  0  0  0  0  0  0  0
    3.8503   18.2458   36.8899 H   0  0  0  0  0  0  0  0  0  0  0  0
    1.1234   20.0478   42.5076 H   0  0  0  0  0  0  0  0  0  0  0  0
    1.0458   18.3304   43.1367 H   0  0  0  0  0  0  0  0  0  0  0  0
    4.9296   24.7032   27.7765 H   0  0  0  0  0  0  0  0  0  0  0  0
    5.4850   23.5310   26.9039 H   0  0  0  0  0  0  0  0  0  0  0  0
    2.5380   18.4478   42.0205 H   0  0  0  0  0  0  0  0  0  0  0  0
    2.7522   16.6160   39.0385 H   0  0  0  0  0  0  0  0  0  0  0  0
    2.6957   26.0568   27.2157 H   0  0  0  0  0  0  0  0  0  0  0  0
    3.2824   24.6330   26.2909 H   0  0  0  0  0  0  0  0  0  0  0  0
    1.5342   25.0457   26.2909 H   0  0  0  0  0  0  0  0  0  0  0  0
    3.7843   20.7343   31.1567 H   0  0  0  0  0  0  0  0  0  0  0  0
    1.3894   20.9185   39.1327 H   0  0  0  0  0  0  0  0  0  0  0  0
   -1.2257   18.5529   45.1223 H   0  0  0  0  0  0  0  0  0  0  0  0
    4.0819   19.9104   35.0926 H   0  0  0  0  0  0  0  0  0  0  0  0
  2 12  2  0
  2 29  1  0
  3 14  1  0
  3  2  1  0
  3 29  1  0
  4 16  1  0
  4 24  1  0
  5 20  1  0
  5 28  1  0
  5 23  1  0
  6 27  2  0
  8  1  1  0
 10 15  1  0
 11 18  2  0
 11 17  1  0
 13 21  2  0
 15  6  1  0
 17 14  1  0
 19 22  1  0
 21 27  1  0
 21 30  1  0
 22 17  1  0
 22 25  2  0
 23  9  2  3
 23  8  1  0
 24  8  1  0
 24 26  1  0
 26  7  1  0
 28 16  1  0
 28  4  1  0
 28 24  1  0
 30 19  1  0
 30 11  1  0
 31 15  2  0
 31 13  1  0
  1 32  1  0
  3 33  1  0
  4 34  1  0
  5 35  1  0
  6 36  1  0
  7 37  1  0
  8 38  1  0
  9 39  1  0
  9 40  1  0
 13 41  1  0
 14 42  1  0
 14 43  1  0
 16 44  1  0
 16 45  1  0
 17 46  1  0
 19 47  1  0
 20 48  1  0
 20 49  1  0
 20 50  1  0
 26 51  1  0
 27 52  1  0
 29 53  1  0
 31 54  1  0
M  CHG  1  14   1
M  END
>  <mol_id>  (11) 
2026-09-18-3war-s0-n100-0011

>  <rmsd_to_ref>  (11) 


$$$$

     RDKit          3D

 52 53  0  0  0  0  0  0  0  0999 V2000
    2.0870   16.5180   40.2770 C   0  0  0  0  0  0  0  0  0  0  0  0
    3.1120   22.7990   34.4100 C   0  0  0  0  0  0  0  0  0  0  0  0
   -0.0660   17.8160   43.1020 C   0  0  0  0  0  0  0  0  0  0  0  0
    3.5230   24.8430   30.2060 C   0  0  0  0  0  0  0  0  0  0  0  0
    2.6010   17.0950   39.0370 C   0  0  0  0  0  0  0  0  0  0  0  0
    0.6950   21.2350   41.7760 C   0  0  0  0  0  0  0  0  0  0  0  0
    4.8290   24.1120   29.8450 C   0  0  0  0  0  0  0  0  0  0  0  0
    1.9650   19.4330   39.7830 N   0  0  0  0  0  0  0  0  0  0  0  0
    0.7350   19.6790   41.8830 C   0  0  0  0  0  0  0  0  0  0  0  0
    3.9990   23.6750   33.4730 S   0  0  0  0  0  0  0  0  0  0  0  0
    4.1130   16.0100   37.4420 C   0  0  0  0  0  0  0  0  0  0  0  0
    3.2910   25.9530   27.8970 C   0  0  0  0  0  0  0  0  0  0  0  0
    1.4800   18.8230   41.0140 C   0  0  0  0  0  0  0  0  0  0  0  0
    3.5330   19.1970   37.9380 C   0  0  0  0  0  0  0  0  0  0  0  0
    3.0480   16.4130   37.9390 O   0  0  0  0  0  0  0  0  0  0  0  0
    2.4680   18.5730   38.7790 C   0  0  0  0  0  0  0  0  0  0  0  0
    5.2570   24.1710   28.4160 C   0  0  0  0  0  0  0  0  0  0  0  0
    4.9940   25.5620   27.4830 S   0  0  0  0  0  0  0  0  0  0  0  0
    3.4120   21.3630   34.8010 N   0  0  0  0  0  0  0  0  0  0  0  0
    2.0790   21.6860   36.7310 O   0  0  0  0  0  0  0  0  0  0  0  0
    3.0420   19.4690   36.5390 C   0  0  0  0  0  0  0  0  0  0  0  0
    3.1570   26.0740   29.4220 C   0  0  0  0  0  0  0  0  0  0  0  0
    1.4350   17.4600   41.2370 C   0  0  0  0  0  0  0  0  0  0  0  0
    0.0050   19.1310   42.9420 C   0  0  0  0  0  0  0  0  0  0  0  0
    0.7240   16.9160   42.2960 C   0  0  0  0  0  0  0  0  0  0  0  0
    2.8710   20.9330   36.0630 C   0  0  0  0  0  0  0  0  0  0  0  0
    2.1755   15.4431   40.4934 H   0  0  0  0  0  0  0  0  0  0  0  0
    2.1991   23.2566   34.8189 H   0  0  0  0  0  0  0  0  0  0  0  0
   -0.7415   17.4025   43.8654 H   0  0  0  0  0  0  0  0  0  0  0  0
    2.7012   24.1221   30.0836 H   0  0  0  0  0  0  0  0  0  0  0  0
    3.6906   25.2112   31.2289 H   0  0  0  0  0  0  0  0  0  0  0  0
    0.6838   21.6718   42.7855 H   0  0  0  0  0  0  0  0  0  0  0  0
    1.5844   21.5882   41.2335 H   0  0  0  0  0  0  0  0  0  0  0  0
   -0.2113   21.5421   41.2335 H   0  0  0  0  0  0  0  0  0  0  0  0
    5.6348   24.5494   30.4527 H   0  0  0  0  0  0  0  0  0  0  0  0
    4.6296   23.0486   30.0435 H   0  0  0  0  0  0  0  0  0  0  0  0
    4.8153   15.7442   38.2458 H   0  0  0  0  0  0  0  0  0  0  0  0
    3.9154   15.1245   36.8201 H   0  0  0  0  0  0  0  0  0  0  0  0
    4.5512   16.8045   36.8201 H   0  0  0  0  0  0  0  0  0  0  0  0
    2.6306   25.1526   27.5320 H   0  0  0  0  0  0  0  0  0  0  0  0
    3.0048   26.9041   27.4243 H   0  0  0  0  0  0  0  0  0  0  0  0
    3.8426   20.1464   38.3993 H   0  0  0  0  0  0  0  0  0  0  0  0
    4.3797   18.4974   37.8772 H   0  0  0  0  0  0  0  0  0  0  0  0
    6.3417   23.9884   28.4065 H   0  0  0  0  0  0  0  0  0  0  0  0
    4.6010   23.4299   27.9360 H   0  0  0  0  0  0  0  0  0  0  0  0
    3.9674   20.7365   34.2011 H   0  0  0  0  0  0  0  0  0  0  0  0
    3.7540   18.9897   35.8510 H   0  0  0  0  0  0  0  0  0  0  0  0
    2.0143   19.0770   36.5446 H   0  0  0  0  0  0  0  0  0  0  0  0
    3.8100   26.8941   29.7552 H   0  0  0  0  0  0  0  0  0  0  0  0
    2.0887   26.2490   29.6175 H   0  0  0  0  0  0  0  0  0  0  0  0
   -0.5146   19.7955   43.6481 H   0  0  0  0  0  0  0  0  0  0  0  0
    0.7606   15.8384   42.5138 H   0  0  0  0  0  0  0  0  0  0  0  0
  1 23  2  0
  2 19  1  0
  5  1  1  0
  6  9  1  0
  7  4  1  0
  8 13  2  0
  9 24  2  0
 10  2  2  0
 11 15  1  0
 12 22  1  0
 13 23  1  0
 13  9  1  0
 14 16  1  0
 15  5  1  0
 16  5  2  0
 16  8  1  0
 17  7  1  0
 18 12  1  0
 18 17  1  0
 19 26  1  0
 21 14  1  0
 22  4  1  0
 23 25  1  0
 24  3  1  0
 25  3  2  0
 26 21  1  0
 26 20  2  0
  1 27  1  0
  2 28  1  0
  3 29  1  0
  4 30  1  0
  4 31  1  0
  6 32  1  0
  6 33  1  0
  6 34  1  0
  7 35  1  0
  7 36  1  0
 11 37  1  0
 11 38  1  0
 11 39  1  0
 12 40  1  0
 12 41  1  0
 14 42  1  0
 14 43  1  0
 17 44  1  0
 17 45  1  0
 19 46  1  0
 21 47  1  0
 21 48  1  0
 22 49  1  0
 22 50  1  0
 24 51  1  0
 25 52  1  0
M  END
>  <mol_id>  (12) 
2026-09-18-3war-s0-n100-0012

>  <rmsd_to_ref>  (12) 


$$$$

     RDKit          3D

 99103  0  0  0  0  0  0  0  0999 V2000
    4.8440   24.4580   28.6690 C   0  0  0  0  0  0  0  0  0  0  0  0
    3.7960   15.0680   37.6730 C   0  0  0  0  0  0  0  0  0  0  0  0
    5.7950   13.7890   37.1110 O   0  0  0  0  0  0  0  0  0  0  0  0
    0.9890   14.9630   42.1630 C   0  0  0  0  0  0  0  0  0  0  0  0
    2.1510   24.9960   33.7260 C   0  0  0  0  0  0  0  0  0  0  0  0
    2.8370   27.1480   32.4660 C   0  0  0  0  0  0  0  0  0  0  0  0
    2.2500   18.1050   40.1160 C   0  0  0  0  0  0  0  0  0  0  0  0
    3.5950   27.0310   31.0050 C   0  0  0  0  0  0  0  0  0  0  0  0
    1.5810   22.1620   37.5810 C   0  0  0  0  0  0  0  0  0  0  0  0
    2.2410   18.9360   41.7950 C   0  0  0  0  0  0  0  0  0  0  0  0
    3.8990   24.7590   31.2950 C   0  0  0  0  0  0  0  0  0  0  0  0
    1.6890   28.1970   32.5190 C   0  0  0  0  0  0  0  0  0  0  0  0
    1.4840   22.9330   36.2010 C   0  0  0  0  0  0  0  0  0  0  0  0
    1.2010   25.5200   32.8550 C   0  0  0  0  0  0  0  0  0  0  0  0
    1.0930   19.8700   41.9550 C   0  0  0  0  0  0  0  0  0  0  0  0
    2.6620   14.1900   38.2260 C   0  0  0  0  0  0  0  0  0  0  0  0
    2.1960   16.8580   39.0410 C   0  0  0  0  0  0  0  0  0  0  0  0
    3.3470   16.2480   38.4590 C   0  0  0  0  0  0  0  0  0  0  0  0
    1.4070   21.1190   40.9460 C   0  0  0  0  0  0  0  0  0  0  0  0
    2.1750   19.4450   39.3670 N   0  0  0  0  0  0  0  0  0  0  0  0
    4.5960   14.0810   36.5400 C   0  0  0  0  0  0  0  0  0  0  0  0
    3.0700   18.9850   37.2550 O   0  0  0  0  0  0  0  0  0  0  0  0
    3.5660   13.0390   36.2340 C   0  0  0  0  0  0  0  0  0  0  0  0
    1.2080   16.3670   41.3690 C   0  0  0  0  0  0  0  0  0  0  0  0
    2.5670   22.4400   35.3460 C   0  0  0  0  0  0  0  0  0  0  0  0
    2.6930   19.5540   38.0420 C   0  0  0  0  0  0  0  0  0  0  0  0
    3.2070   22.7840   33.9250 C   0  0  0  0  0  0  0  0  0  0  0  0
    1.4500   26.6670   31.9490 C   0  0  0  0  0  0  0  0  0  0  0  0
    2.4820   21.0480   37.2950 C   0  0  0  0  0  0  0  0  0  0  0  0
    4.6810   26.6790   29.7690 C   0  0  0  0  0  0  0  0  0  0  0  0
    4.4800   25.9220   28.9860 C   0  0  0  0  0  0  0  0  0  0  0  0
    1.6920   20.8120   39.8140 C   0  0  0  0  0  0  0  0  0  0  0  0
    2.9930   12.9430   34.7510 C   0  0  0  0  0  0  0  0  0  0  0  0
    3.1120   21.0400   36.0800 C   0  0  0  0  0  0  0  0  0  0  0  0
    3.0930   13.4370   39.2970 O   0  0  0  0  0  0  0  0  0  0  0  0
    2.4410   13.6520   35.7800 O   0  0  0  0  0  0  0  0  0  0  0  0
    2.6910   26.8770   30.7100 C   0  0  0  0  0  0  0  0  0  0  0  0
    3.0040   24.0740   33.6040 C   0  0  0  0  0  0  0  0  0  0  0  0
    3.1560   25.5870   30.2970 N   0  0  0  0  0  4  0  0  0  0  0  0
    2.0900   16.1860   40.3010 O   0  0  0  0  0  0  0  0  0  0  0  0
    4.9820   23.9028   29.6085 H   0  0  0  0  0  0  0  0  0  0  0  0
    4.0332   23.9965   28.0861 H   0  0  0  0  0  0  0  0  0  0  0  0
    5.7765   24.4300   28.0861 H   0  0  0  0  0  0  0  0  0  0  0  0
    3.1494   15.3777   36.8387 H   0  0  0  0  0  0  0  0  0  0  0  0
    5.7052   13.8109   38.0967 H   0  0  0  0  0  0  0  0  0  0  0  0
    1.0176   15.1466   43.2472 H   0  0  0  0  0  0  0  0  0  0  0  0
    0.0133   14.5352   41.8892 H   0  0  0  0  0  0  0  0  0  0  0  0
    1.7881   14.2584   41.8892 H   0  0  0  0  0  0  0  0  0  0  0  0
    2.7584   25.8717   33.9985 H   0  0  0  0  0  0  0  0  0  0  0  0
    1.4433   24.4223   34.3424 H   0  0  0  0  0  0  0  0  0  0  0  0
    3.5984   26.9565   33.2365 H   0  0  0  0  0  0  0  0  0  0  0  0
    1.1550   18.1965   40.0648 H   0  0  0  0  0  0  0  0  0  0  0  0
    4.5993   27.4290   31.2125 H   0  0  0  0  0  0  0  0  0  0  0  0
    1.9977   22.8119   38.3646 H   0  0  0  0  0  0  0  0  0  0  0  0
    0.6002   21.8312   37.9534 H   0  0  0  0  0  0  0  0  0  0  0  0
    2.1782   18.1611   42.5732 H   0  0  0  0  0  0  0  0  0  0  0  0
    3.1676   19.5217   41.8864 H   0  0  0  0  0  0  0  0  0  0  0  0
    3.6188   25.0713   32.3118 H   0  0  0  0  0  0  0  0  0  0  0  0
    3.6441   23.6983   31.1539 H   0  0  0  0  0  0  0  0  0  0  0  0
    4.9810   24.8980   31.1539 H   0  0  0  0  0  0  0  0  0  0  0  0
    1.2605   28.5032   33.4847 H   0  0  0  0  0  0  0  0  0  0  0  0
    1.5323   29.2159   32.1351 H   0  0  0  0  0  0  0  0  0  0  0  0
    0.5112   22.7348   35.7273 H   0  0  0  0  0  0  0  0  0  0  0  0
    1.5748   24.0183   36.3555 H   0  0  0  0  0  0  0  0  0  0  0  0
    0.9009   24.6856   32.2041 H   0  0  0  0  0  0  0  0  0  0  0  0
    0.4891   25.9654   33.5655 H   0  0  0  0  0  0  0  0  0  0  0  0
    0.1518   19.3750   41.6738 H   0  0  0  0  0  0  0  0  0  0  0  0
    0.9787   20.2039   42.9969 H   0  0  0  0  0  0  0  0  0  0  0  0
    1.8338   14.8364   38.5518 H   0  0  0  0  0  0  0  0  0  0  0  0
    2.3302   13.5068   37.4303 H   0  0  0  0  0  0  0  0  0  0  0  0
    1.5803   16.9705   38.1364 H   0  0  0  0  0  0  0  0  0  0  0  0
    3.9976   16.1617   39.3418 H   0  0  0  0  0  0  0  0  0  0  0  0
    3.2306   16.8452   37.5426 H   0  0  0  0  0  0  0  0  0  0  0  0
    0.5126   21.7583   40.9091 H   0  0  0  0  0  0  0  0  0  0  0  0
    2.2948   21.6231   41.3555 H   0  0  0  0  0  0  0  0  0  0  0  0
    4.9059   14.4523   35.5520 H   0  0  0  0  0  0  0  0  0  0  0  0
    3.9095   12.2911   36.9638 H   0  0  0  0  0  0  0  0  0  0  0  0
    0.2403   16.7216   40.9847 H   0  0  0  0  0  0  0  0  0  0  0  0
    1.6319   17.1085   42.0622 H   0  0  0  0  0  0  0  0  0  0  0  0
    1.7695   21.8687   34.8485 H   0  0  0  0  0  0  0  0  0  0  0  0
    4.2889   22.5883   33.9610 H   0  0  0  0  0  0  0  0  0  0  0  0
    2.7262   22.1536   33.1625 H   0  0  0  0  0  0  0  0  0  0  0  0
    2.6030   21.5574   38.2624 H   0  0  0  0  0  0  0  0  0  0  0  0
    4.8522   27.6266   29.2373 H   0  0  0  0  0  0  0  0  0  0  0  0
    5.5024   26.2053   30.3267 H   0  0  0  0  0  0  0  0  0  0  0  0
    4.8266   26.4401   28.0796 H   0  0  0  0  0  0  0  0  0  0  0  0
    3.5047   25.6494   29.4154 H   0  0  0  0  0  0  0  0  0  0  0  0
    2.4845   21.5131   39.5133 H   0  0  0  0  0  0  0  0  0  0  0  0
    0.6930   20.8236   39.3537 H   0  0  0  0  0  0  0  0  0  0  0  0
    2.5230   12.0183   34.3848 H   0  0  0  0  0  0  0  0  0  0  0  0
    3.3495   13.1406   33.7293 H   0  0  0  0  0  0  0  0  0  0  0  0
    2.8265   20.1531   35.4953 H   0  0  0  0  0  0  0  0  0  0  0  0
    4.2079   21.0014   36.1668 H   0  0  0  0  0  0  0  0  0  0  0  0
    2.8359   13.8862   40.1410 H   0  0  0  0  0  0  0  0  0  0  0  0
    2.1991   27.6316   30.0786 H   0  0  0  0  0  0  0  0  0  0  0  0
    3.1231   24.0404   32.5110 H   0  0  0  0  0  0  0  0  0  0  0  0
    3.5622   24.4213   34.4859 H   0  0  0  0  0  0  0  0  0  0  0  0
    2.3322   25.0444   30.0008 H   0  0  0  0  0  0  0  0  0  0  0  0
    3.8476   25.7855   29.5600 H   0  0  0  0  0  0  0  0  0  0  0  0
  1 31  1  0
  2 16  1  0
  2 18  1  0
  6 12  1  0
  7 17  1  0
  7 10  1  0
  8 30  1  0
  8  6  1  0
 10 15  1  0
 13  9  1  0
 14  5  1  0
 16 35  1  0
 17 18  1  0
 17 40  1  0
 19 15  1  0
 20 32  1  0
 20  7  1  0
 21  3  1  0
 21  2  1  0
 22 26  2  0
 23 21  1  0
 24  4  1  0
 25 27  1  0
 25 34  1  0
 25 13  1  0
 26 20  1  0
 28  6  1  0
 28 12  1  0
 28 14  1  0
 29  9  1  0
 29 26  1  0
 31 30  1  0
 32 19  1  0
 33 36  1  0
 33 23  1  0
 34 29  1  0
 36 23  1  0
 37 39  1  0
 37  8  1  0
 37 28  1  0
 38  5  1  0
 38 27  1  0
 39 11  1  0
 40 24  1  0
  1 41  1  0
  1 42  1  0
  1 43  1  0
  2 44  1  0
  3 45  1  0
  4 46  1  0
  4 47  1  0
  4 48  1  0
  5 49  1  0
  5 50  1  0
  6 51  1  0
  7 52  1  0
  8 53  1  0
  9 54  1  0
  9 55  1  0
 10 56  1  0
 10 57  1  0
 11 58  1  0
 11 59  1  0
 11 60  1  0
 12 61  1  0
 12 62  1  0
 13 63  1  0
 13 64  1  0
 14 65  1  0
 14 66  1  0
 15 67  1  0
 15 68  1  0
 16 69  1  0
 16 70  1  0
 17 71  1  0
 18 72  1  0
 18 73  1  0
 19 74  1  0
 19 75  1  0
 21 76  1  0
 23 77  1  0
 24 78  1  0
 24 79  1  0
 25 80  1  0
 27 81  1  0
 27 82  1  0
 29 83  1  0
 30 84  1  0
 30 85  1  0
 31 86  1  0
 31 87  1  0
 32 88  1  0
 32 89  1  0
 33 90  1  0
 33 91  1  0
 34 92  1  0
 34 93  1  0
 35 94  1  0
 37 95  1  0
 38 96  1  0
 38 97  1  0
 39 98  1  0
 39 99  1  0
M  CHG  1  39   1
M  END
>  <mol_id>  (13) 
2026-09-18-3war-s0-n100-0013

>  <rmsd_to_ref>  (13) 


$$$$

     RDKit          3D

 76 79  0  0  0  0  0  0  0  0999 V2000
    0.1370   19.5780   42.2930 C   0  0  0  0  0  0  0  0  0  0  0  0
    3.5320   21.8840   32.1760 C   0  0  0  0  0  0  0  0  0  0  0  0
    0.9330   18.4640   42.1210 C   0  0  0  0  0  0  0  0  0  0  0  0
    3.2550   12.9070   36.0630 O   0  0  0  0  0  0  0  0  0  0  0  0
    3.6610   17.7590   37.7840 C   0  0  0  0  0  0  0  0  0  0  0  0
    3.3910   14.2600   37.5160 O   0  0  0  0  0  0  0  0  0  0  0  0
    1.5400   21.3160   39.1940 C   0  0  0  0  0  0  0  0  0  0  0  0
    3.9540   25.6470   31.7140 C   0  0  0  0  0  0  0  0  0  0  0  0
    3.1600   16.4780   38.1250 C   0  0  0  0  0  0  0  0  0  0  0  0
    2.7590   25.4800   31.7440 O   0  0  0  0  0  0  0  0  0  0  0  0
    2.9960   20.8790   35.7670 C   0  0  0  0  0  0  0  0  0  0  0  0
    3.7750   15.4260   37.2350 C   0  0  0  0  0  0  0  0  0  0  0  0
    1.7370   24.8150   29.0680 C   0  0  0  0  0  0  0  0  0  0  0  0
    3.7840   19.7770   36.6310 C   0  0  0  0  0  0  0  0  0  0  0  0
    3.5640   13.1090   36.8890 C   0  0  0  0  0  0  0  0  0  0  0  0
    2.0370   26.4640   31.0180 C   0  0  0  0  0  0  0  0  0  0  0  0
    2.0080   23.8190   29.7750 C   0  0  0  0  0  0  0  0  0  0  0  0
    0.6120   25.8120   29.1720 C   0  0  0  0  0  0  0  0  0  0  0  0
    4.4230   24.0290   31.2280 C   0  0  0  0  0  0  0  0  0  0  0  0
    2.5290   18.5480   39.3970 N   0  0  0  0  0  0  0  0  0  0  0  0
    2.2520   20.6550   38.1750 N   0  0  0  0  0  4  0  0  0  0  0  0
    3.0330   19.3410   38.1210 C   0  0  0  0  0  0  0  0  0  0  0  0
    2.1470   19.2150   40.3030 C   0  0  0  0  0  0  0  0  0  0  0  0
    3.7970   23.3370   32.3770 C   0  0  0  0  0  0  0  0  0  0  0  0
    3.0270   24.8110   29.1680 C   0  0  0  0  0  0  0  0  0  0  0  0
    2.7450   15.9230   39.1780 C   0  0  0  0  0  0  0  0  0  0  0  0
    1.1140   27.2550   31.8410 C   0  0  0  0  0  0  0  0  0  0  0  0
    2.1170   18.6020   41.3580 N   0  0  0  0  0  0  0  0  0  0  0  0
    1.4100   20.2910   40.2890 C   0  0  0  0  0  0  0  0  0  0  0  0
    0.4610   20.5250   41.4760 C   0  0  0  0  0  0  0  0  0  0  0  0
    2.2870   15.4350   40.0970 N   0  0  0  0  0  0  0  0  0  0  0  0
    0.5850   26.4060   30.6400 C   0  0  0  0  0  0  0  0  0  0  0  0
    4.2860   24.3790   29.8940 C   0  0  0  0  0  0  0  0  0  0  0  0
   -0.9120   19.2978   42.1167 H   0  0  0  0  0  0  0  0  0  0  0  0
    0.2781   19.9463   43.3199 H   0  0  0  0  0  0  0  0  0  0  0  0
    3.4417   21.3890   33.1542 H   0  0  0  0  0  0  0  0  0  0  0  0
    2.5958   21.7565   31.6127 H   0  0  0  0  0  0  0  0  0  0  0  0
    4.3629   21.4342   31.6127 H   0  0  0  0  0  0  0  0  0  0  0  0
    1.2281   18.1158   43.1218 H   0  0  0  0  0  0  0  0  0  0  0  0
    0.3104   17.7704   41.5369 H   0  0  0  0  0  0  0  0  0  0  0  0
    3.7372   17.7313   36.6870 H   0  0  0  0  0  0  0  0  0  0  0  0
    4.4906   17.7813   38.5060 H   0  0  0  0  0  0  0  0  0  0  0  0
    2.0964   22.1959   39.5492 H   0  0  0  0  0  0  0  0  0  0  0  0
    0.5631   21.6860   38.8493 H   0  0  0  0  0  0  0  0  0  0  0  0
    4.2491   26.4051   30.9736 H   0  0  0  0  0  0  0  0  0  0  0  0
    4.4100   26.0203   32.6428 H   0  0  0  0  0  0  0  0  0  0  0  0
    2.1924   17.0011   38.1140 H   0  0  0  0  0  0  0  0  0  0  0  0
    2.4918   21.5841   36.4442 H   0  0  0  0  0  0  0  0  0  0  0  0
    3.7089   21.4261   35.1326 H   0  0  0  0  0  0  0  0  0  0  0  0
    2.2478   20.3813   35.1326 H   0  0  0  0  0  0  0  0  0  0  0  0
    3.5003   15.6442   36.1924 H   0  0  0  0  0  0  0  0  0  0  0  0
    4.8638   15.4604   37.3876 H   0  0  0  0  0  0  0  0  0  0  0  0
    1.1411   24.9905   28.1602 H   0  0  0  0  0  0  0  0  0  0  0  0
    3.8791   18.8682   36.0187 H   0  0  0  0  0  0  0  0  0  0  0  0
    4.7507   20.2298   36.8964 H   0  0  0  0  0  0  0  0  0  0  0  0
    4.1328   12.3296   37.4172 H   0  0  0  0  0  0  0  0  0  0  0  0
    2.9065   26.6181   30.3621 H   0  0  0  0  0  0  0  0  0  0  0  0
    1.7948   23.8157   30.8541 H   0  0  0  0  0  0  0  0  0  0  0  0
    1.8202   22.7353   29.7573 H   0  0  0  0  0  0  0  0  0  0  0  0
    0.7711   26.6247   28.4480 H   0  0  0  0  0  0  0  0  0  0  0  0
   -0.3455   25.3167   28.9533 H   0  0  0  0  0  0  0  0  0  0  0  0
    5.2389   23.2972   31.1340 H   0  0  0  0  0  0  0  0  0  0  0  0
    1.5478   20.5408   37.4321 H   0  0  0  0  0  0  0  0  0  0  0  0
    3.0804   21.2658   38.2151 H   0  0  0  0  0  0  0  0  0  0  0  0
    2.8378   23.8314   32.5904 H   0  0  0  0  0  0  0  0  0  0  0  0
    4.5196   23.4037   33.2037 H   0  0  0  0  0  0  0  0  0  0  0  0
    3.6442   25.5013   28.5743 H   0  0  0  0  0  0  0  0  0  0  0  0
    0.8935   26.9474   32.8739 H   0  0  0  0  0  0  0  0  0  0  0  0
    1.0443   28.3103   32.1433 H   0  0  0  0  0  0  0  0  0  0  0  0
    2.9848   18.1695   41.7056 H   0  0  0  0  0  0  0  0  0  0  0  0
    0.6463   19.7603   39.7015 H   0  0  0  0  0  0  0  0  0  0  0  0
    0.9226   21.3142   42.0877 H   0  0  0  0  0  0  0  0  0  0  0  0
   -0.4942   20.7288   40.9699 H   0  0  0  0  0  0  0  0  0  0  0  0
   -0.4992   26.2365   30.5635 H   0  0  0  0  0  0  0  0  0  0  0  0
    4.6408   23.4992   29.3372 H   0  0  0  0  0  0  0  0  0  0  0  0
    4.8032   25.3494   29.9224 H   0  0  0  0  0  0  0  0  0  0  0  0
  2 24  1  0
  3  1  1  0
  4 15  2  0
  5 22  1  0
  5  9  1  0
  8 10  1  0
  9 12  1  0
  9 26  1  0
 11 14  1  0
 12  6  1  0
 13 25  1  0
 13 18  1  0
 13 17  1  0
 15  6  1  0
 16 10  1  0
 16 27  1  0
 19  8  1  0
 19 24  1  0
 20 23  2  0
 21  7  1  0
 22 14  1  0
 22 21  1  0
 22 20  1  0
 23 28  1  0
 25 17  1  0
 25 33  1  0
 26 31  3  0
 28  3  1  0
 29  7  1  0
 29 23  1  0
 29 30  1  0
 30  1  1  0
 32 18  1  0
 32 16  1  0
 32 27  1  0
 33 19  1  0
  1 34  1  0
  1 35  1  0
  2 36  1  0
  2 37  1  0
  2 38  1  0
  3 39  1  0
  3 40  1  0
  5 41  1  0
  5 42  1  0
  7 43  1  0
  7 44  1  0
  8 45  1  0
  8 46  1  0
  9 47  1  0
 11 48  1  0
 11 49  1  0
 11 50  1  0
 12 51  1  0
 12 52  1  0
 13 53  1  0
 14 54  1  0
 14 55  1  0
 15 56  1  0
 16 57  1  0
 17 58  1  0
 17 59  1  0
 18 60  1  0
 18 61  1  0
 19 62  1  0
 21 63  1  0
 21 64  1  0
 24 65  1  0
 24 66  1  0
 25 67  1  0
 27 68  1  0
 27 69  1  0
 28 70  1  0
 29 71  1  0
 30 72  1  0
 30 73  1  0
 32 74  1  0
 33 75  1  0
 33 76  1  0
M  CHG  1  21   1
M  END
>  <mol_id>  (14) 
2026-09-18-3war-s0-n100-0014

>  <rmsd_to_ref>  (14) 


$$$$

     RDKit          3D

 44 45  0  0  0  0  0  0  0  0999 V2000
    2.9140   19.8820   37.2700 C   0  0  0  0  0  0  0  0  0  0  0  0
    2.5480   24.2320   33.8740 C   0  0  0  0  0  0  0  0  0  0  0  0
    2.1210   14.7740   35.7760 N   0  0  0  0  0  0  0  0  0  0  0  0
    0.9360   21.4570   40.3220 C   0  0  0  0  0  0  0  0  0  0  0  0
    4.0460   18.0310   38.7400 C   0  0  0  0  0  0  0  0  0  0  0  0
    3.4370   15.0620   36.3200 C   0  0  0  0  0  0  0  0  0  0  0  0
    1.3190   26.2710   33.1840 C   0  0  0  0  0  0  0  0  0  0  0  0
    0.7430   19.3140   41.4740 C   0  0  0  0  0  0  0  0  0  0  0  0
    1.8660   20.8860   39.4070 C   0  0  0  0  0  0  0  0  0  0  0  0
    2.1080   24.9210   34.9340 N   0  0  0  0  0  0  0  0  0  0  0  0
    3.4660   23.1360   33.7300 N   0  0  0  0  0  0  0  0  0  0  0  0
    3.4100   21.9320   34.3110 N   0  0  0  0  0  0  0  0  0  0  0  0
    1.4160   26.1250   34.5300 C   0  0  0  0  0  0  0  0  0  0  0  0
    2.6510   21.9600   35.4660 C   0  0  0  0  0  0  0  0  0  0  0  0
    4.9020   15.1090   35.3960 S   0  0  0  0  0  0  0  0  0  0  0  0
    3.4600   15.8590   37.5700 C   0  0  0  0  0  0  0  0  0  0  0  0
    2.2560   19.5380   39.5940 C   0  0  0  0  0  0  0  0  0  0  0  0
    3.0400   19.1180   38.3910 C   0  0  0  0  0  0  0  0  0  0  0  0
    0.3390   20.6330   41.3030 C   0  0  0  0  0  0  0  0  0  0  0  0
    1.9700   24.8280   32.3940 S   0  0  0  0  0  0  0  0  0  0  0  0
    1.7300   18.7450   40.6000 C   0  0  0  0  0  0  0  0  0  0  0  0
    4.3020   16.9940   37.6480 C   0  0  0  0  0  0  0  0  0  0  0  0
    2.6750   20.6410   36.1100 C   0  0  0  0  0  0  0  0  0  0  0  0
    0.9690   27.4320   32.3920 C   0  0  0  0  0  0  0  0  0  0  0  0
    2.0309   14.2248   34.9093 H   0  0  0  0  0  0  0  0  0  0  0  0
    1.2781   15.1191   36.2570 H   0  0  0  0  0  0  0  0  0  0  0  0
    0.6853   22.5266   40.2659 H   0  0  0  0  0  0  0  0  0  0  0  0
    5.0036   18.5188   38.9748 H   0  0  0  0  0  0  0  0  0  0  0  0
    3.6102   17.4774   39.5848 H   0  0  0  0  0  0  0  0  0  0  0  0
    0.3062   18.7056   42.2796 H   0  0  0  0  0  0  0  0  0  0  0  0
    2.2720   21.4788   38.5741 H   0  0  0  0  0  0  0  0  0  0  0  0
    4.2662   23.2971   33.1018 H   0  0  0  0  0  0  0  0  0  0  0  0
    2.9904   21.2615   33.6513 H   0  0  0  0  0  0  0  0  0  0  0  0
    1.0070   26.8534   35.2457 H   0  0  0  0  0  0  0  0  0  0  0  0
    3.0639   22.7106   36.1560 H   0  0  0  0  0  0  0  0  0  0  0  0
    1.6130   22.2208   35.2118 H   0  0  0  0  0  0  0  0  0  0  0  0
    2.8310   15.5720   38.4255 H   0  0  0  0  0  0  0  0  0  0  0  0
   -0.4580   21.0420   41.9413 H   0  0  0  0  0  0  0  0  0  0  0  0
    2.0606   17.7035   40.7266 H   0  0  0  0  0  0  0  0  0  0  0  0
    5.1277   17.1272   36.9335 H   0  0  0  0  0  0  0  0  0  0  0  0
    2.3673   19.9218   35.3367 H   0  0  0  0  0  0  0  0  0  0  0  0
    0.7167   28.2689   33.0598 H   0  0  0  0  0  0  0  0  0  0  0  0
    1.8222   27.7137   31.7573 H   0  0  0  0  0  0  0  0  0  0  0  0
    0.1023   27.1952   31.7573 H   0  0  0  0  0  0  0  0  0  0  0  0
  1 18  2  0
  2 10  2  0
  3  6  1  0
  4 19  2  0
  6 16  1  0
  7 13  2  0
  9 17  2  0
  9  4  1  0
 11  2  1  0
 11 12  1  0
 12 14  1  0
 13 10  1  0
 14 23  1  0
 15  6  2  0
 16 22  2  3
 17 21  1  0
 18  5  1  0
 18 17  1  0
 19  8  1  0
 20  7  1  0
 20  2  1  0
 21  8  2  0
 22  5  1  0
 23  1  2  0
 24  7  1  0
  3 25  1  0
  3 26  1  0
  4 27  1  0
  5 28  1  0
  5 29  1  0
  8 30  1  0
  9 31  1  0
 11 32  1  0
 12 33  1  0
 13 34  1  0
 14 35  1  0
 14 36  1  0
 16 37  1  0
 19 38  1  0
 21 39  1  0
 22 40  1  0
 23 41  1  0
 24 42  1  0
 24 43  1  0
 24 44  1  0
M  END
>  <mol_id>  (15) 
2026-09-18-3war-s0-n100-0015

>  <rmsd_to_ref>  (15) 


$$$$

     RDKit          3D

 50 54  0  0  0  0  0  0  0  0999 V2000
    1.8650   22.7610   33.9640 C   0  0  0  0  0  0  0  0  0  0  0  0
    1.9890   19.4970   37.2780 O   0  0  0  0  0  0  0  0  0  0  0  0
    4.3470   17.4690   37.8850 O   0  0  0  0  0  0  0  0  0  0  0  0
    1.1940   24.6750   31.9780 C   0  0  0  0  0  0  0  0  0  0  0  0
    1.3640   21.8170   34.5950 C   0  0  0  0  0  0  0  0  0  0  0  0
    2.6360   27.1070   30.4730 O   0  0  0  0  0  0  0  0  0  0  0  0
    2.3330   23.0540   32.8370 C   0  0  0  0  0  0  0  0  0  0  0  0
    0.9400   20.1540   41.3210 C   0  0  0  0  0  0  0  0  0  0  0  0
    3.4270   17.9380   38.4470 C   0  0  0  0  0  0  0  0  0  0  0  0
    2.7070   19.2400   38.3100 C   0  0  0  0  0  0  0  0  0  0  0  0
    1.6350   23.7440   32.7660 C   0  0  0  0  0  0  0  0  0  0  0  0
    1.9750   26.3690   30.1210 C   0  0  0  0  0  0  0  0  0  0  0  0
    1.0490   17.7590   42.2070 C   0  0  0  0  0  0  0  0  0  0  0  0
    2.7270   19.7810   39.6730 C   0  0  0  0  0  0  0  0  0  0  0  0
    1.3740   18.8410   41.2490 C   0  0  0  0  0  0  0  0  0  0  0  0
    2.9260   17.5480   39.6740 C   0  0  0  0  0  0  0  0  0  0  0  0
    1.6550   21.0140   40.0420 S   0  0  0  0  0  0  0  0  0  0  0  0
    3.1490   26.5220   29.7120 C   0  0  0  0  0  0  0  0  0  0  0  0
    3.9720   23.4970   31.2830 C   0  0  0  0  0  0  0  0  0  0  0  0
    3.4920   22.6410   31.8600 C   0  0  0  0  0  0  0  0  0  0  0  0
    2.2200   18.6720   40.2450 N   0  0  0  0  0  0  0  0  0  0  0  0
    4.0840   25.7000   29.9950 C   0  0  0  0  0  0  0  0  0  0  0  0
    3.0270   14.8640   39.2560 C   0  0  0  0  0  0  0  0  0  0  0  0
    3.4240   24.8700   30.9100 C   0  0  0  0  0  0  0  0  0  0  0  0
    1.9540   25.2580   31.0580 C   0  0  0  0  0  0  0  0  0  0  0  0
    1.6320   15.3310   39.1800 O   0  0  0  0  0  0  0  0  0  0  0  0
    2.6870   16.0650   39.4050 C   0  0  0  0  0  0  0  0  0  0  0  0
    1.9166   23.6447   34.6171 H   0  0  0  0  0  0  0  0  0  0  0  0
    0.1462   24.9953   32.0758 H   0  0  0  0  0  0  0  0  0  0  0  0
    1.0557   21.9571   35.6416 H   0  0  0  0  0  0  0  0  0  0  0  0
    1.2283   20.8402   34.1077 H   0  0  0  0  0  0  0  0  0  0  0  0
   -0.1555   20.1906   41.2291 H   0  0  0  0  0  0  0  0  0  0  0  0
    1.2244   20.5981   42.2863 H   0  0  0  0  0  0  0  0  0  0  0  0
    1.8208   24.3211   33.6839 H   0  0  0  0  0  0  0  0  0  0  0  0
    0.9128   23.0178   32.3648 H   0  0  0  0  0  0  0  0  0  0  0  0
    0.9618   26.3300   29.6946 H   0  0  0  0  0  0  0  0  0  0  0  0
    1.1615   18.1336   43.2351 H   0  0  0  0  0  0  0  0  0  0  0  0
    0.0119   17.4283   42.0486 H   0  0  0  0  0  0  0  0  0  0  0  0
    1.7323   16.9116   42.0486 H   0  0  0  0  0  0  0  0  0  0  0  0
    3.7022   20.2129   39.9422 H   0  0  0  0  0  0  0  0  0  0  0  0
    2.2614   19.1017   41.8445 H   0  0  0  0  0  0  0  0  0  0  0  0
    3.3507   17.4152   40.6800 H   0  0  0  0  0  0  0  0  0  0  0  0
    3.6666   26.6969   28.7573 H   0  0  0  0  0  0  0  0  0  0  0  0
    4.9982   23.3017   30.9385 H   0  0  0  0  0  0  0  0  0  0  0  0
    3.8172   21.5969   31.7416 H   0  0  0  0  0  0  0  0  0  0  0  0
    4.4172   25.1422   29.1074 H   0  0  0  0  0  0  0  0  0  0  0  0
    5.0039   26.1656   30.3783 H   0  0  0  0  0  0  0  0  0  0  0  0
    3.5594   14.5415   38.3490 H   0  0  0  0  0  0  0  0  0  0  0  0
    3.5877   14.1155   39.8351 H   0  0  0  0  0  0  0  0  0  0  0  0
    2.8017   16.2316   38.3238 H   0  0  0  0  0  0  0  0  0  0  0  0
  1  5  2  3
  2 10  2  0
  3  9  2  0
  4 11  1  0
  7  1  1  0
 10  9  1  0
 11  7  1  0
 12  6  1  0
 12 25  1  0
 14 10  1  0
 14 17  1  0
 14 21  1  0
 15  8  1  0
 15 13  1  0
 16  9  1  0
 16 21  1  0
 17  8  1  0
 18 22  1  0
 18 12  1  0
 18  6  1  0
 19 20  1  0
 20  7  2  0
 21 15  1  0
 22 24  1  0
 23 27  1  0
 24 25  1  0
 24 19  2  0
 25  4  2  0
 26 23  1  0
 26 27  1  0
 27 16  1  0
  1 28  1  0
  4 29  1  0
  5 30  1  0
  5 31  1  0
  8 32  1  0
  8 33  1  0
 11 34  1  0
 11 35  1  0
 12 36  1  0
 13 37  1  0
 13 38  1  0
 13 39  1  0
 14 40  1  0
 15 41  1  0
 16 42  1  0
 18 43  1  0
 19 44  1  0
 20 45  1  0
 22 46  1  0
 22 47  1  0
 23 48  1  0
 23 49  1  0
 27 50  1  0
M  END
>  <mol_id>  (16) 
2026-09-18-3war-s0-n100-0016

>  <rmsd_to_ref>  (16) 


$$$$

     RDKit          3D

 83 88  0  0  0  0  0  0  0  0999 V2000
    1.3110   26.6730   32.6350 C   0  0  0  0  0  0  0  0  0  0  0  0
    2.6130   23.0340   34.4370 C   0  0  0  0  0  0  0  0  0  0  0  0
    3.1210   24.3770   33.4820 C   0  0  0  0  0  0  0  0  0  0  0  0
    3.6810   24.8570   32.1070 C   0  0  0  0  0  0  0  0  0  0  0  0
    0.1530   19.6300   42.3360 C   0  0  0  0  0  0  0  0  0  0  0  0
    2.2900   18.3760   39.2660 C   0  0  0  0  0  0  0  0  0  0  0  0
    3.1050   15.5560   38.3040 C   0  0  0  0  0  0  0  0  0  0  0  0
    1.0290   18.7200   41.5330 C   0  0  0  0  0  0  0  0  0  0  0  0
    2.7940   21.2260   36.2990 C   0  0  0  0  0  0  0  0  0  0  0  0
   -1.0370   21.6740   42.6920 O   0  0  0  0  0  0  0  0  0  0  0  0
    3.9300   13.1560   38.2280 C   0  0  0  0  0  0  0  0  0  0  0  0
    0.0890   21.0330   41.9710 C   0  0  0  0  0  0  0  0  0  0  0  0
    4.5730   23.5900   33.0340 C   0  0  0  0  0  0  0  0  0  0  0  0
    1.9910   28.4080   34.3440 C   0  0  0  0  0  0  0  0  0  0  0  0
    2.6570   18.9440   37.8280 C   0  0  0  0  0  0  0  0  0  0  0  0
    4.9880   24.5820   31.8900 C   0  0  0  0  0  0  0  0  0  0  0  0
    1.6370   19.3560   40.2010 C   0  0  0  0  0  0  0  0  0  0  0  0
    4.4390   27.5380   34.3130 C   0  0  0  0  0  0  0  0  0  0  0  0
    1.9640   16.7990   40.0140 C   0  0  0  0  0  0  0  0  0  0  0  0
    0.8260   26.4500   30.9610 C   0  0  0  0  0  0  0  0  0  0  0  0
    3.6940   16.7910   37.6160 C   0  0  0  0  0  0  0  0  0  0  0  0
    1.5660   20.6520   39.8380 C   0  0  0  0  0  0  0  0  0  0  0  0
    2.1700   29.2700   35.2480 O   0  0  0  0  0  0  0  0  0  0  0  0
    2.5990   14.1600   36.3640 N   0  0  0  0  0  0  0  0  0  0  0  0
    1.1130   21.6350   40.8210 C   0  0  0  0  0  0  0  0  0  0  0  0
    1.9620   21.0800   38.5400 C   0  0  0  0  0  0  0  0  0  0  0  0
    2.4280   20.3800   37.4350 C   0  0  0  0  0  0  0  0  0  0  0  0
    2.7780   13.0370   35.7270 C   0  0  0  0  0  0  0  0  0  0  0  0
    3.8110   12.0700   35.7530 N   0  0  0  0  0  0  0  0  0  0  0  0
    1.7890   12.7760   34.6600 N   0  0  0  0  0  0  0  0  0  0  0  0
    3.5500   26.3690   31.8510 C   0  0  0  0  0  0  0  0  0  0  0  0
    0.5560   27.8910   33.5790 S   0  0  0  0  0  0  0  0  0  0  0  0
    3.2170   14.2790   37.5340 C   0  0  0  0  0  0  0  0  0  0  0  0
    3.1520   27.4890   33.8210 C   0  0  0  0  0  0  0  0  0  0  0  0
    2.6390   26.9410   32.6920 N   0  0  0  0  0  0  0  0  0  0  0  0
    2.6150   15.4220   39.7880 C   0  0  0  0  0  0  0  0  0  0  0  0
    4.9570   12.3730   37.0760 S   0  0  0  0  0  0  0  0  0  0  0  0
    3.1720   22.0940   35.4120 C   0  0  0  0  0  0  0  0  0  0  0  0
    4.5730   27.1840   31.2670 C   0  0  0  0  0  0  0  0  0  0  0  0
    0.9888   25.7182   33.0761 H   0  0  0  0  0  0  0  0  0  0  0  0
    2.2221   22.3506   33.6688 H   0  0  0  0  0  0  0  0  0  0  0  0
    2.1856   23.6790   35.2189 H   0  0  0  0  0  0  0  0  0  0  0  0
    2.4192   25.0928   33.9350 H   0  0  0  0  0  0  0  0  0  0  0  0
   -0.4300   19.2434   43.1849 H   0  0  0  0  0  0  0  0  0  0  0  0
    3.2837   18.0652   38.9112 H   0  0  0  0  0  0  0  0  0  0  0  0
    2.2924   16.2907   38.4037 H   0  0  0  0  0  0  0  0  0  0  0  0
    1.8671   18.4046   42.1719 H   0  0  0  0  0  0  0  0  0  0  0  0
    0.3857   17.8896   41.2066 H   0  0  0  0  0  0  0  0  0  0  0  0
   -1.2260   22.6366   42.5590 H   0  0  0  0  0  0  0  0  0  0  0  0
    4.5350   13.5543   39.0559 H   0  0  0  0  0  0  0  0  0  0  0  0
    3.2025   12.4394   38.6370 H   0  0  0  0  0  0  0  0  0  0  0  0
    5.0862   22.7363   33.5006 H   0  0  0  0  0  0  0  0  0  0  0  0
    3.7332   18.7601   37.6941 H   0  0  0  0  0  0  0  0  0  0  0  0
    1.9298   18.4204   37.1901 H   0  0  0  0  0  0  0  0  0  0  0  0
    5.7144   25.3671   32.1469 H   0  0  0  0  0  0  0  0  0  0  0  0
    5.4736   24.3390   30.9334 H   0  0  0  0  0  0  0  0  0  0  0  0
    4.4114   27.5370   35.4127 H   0  0  0  0  0  0  0  0  0  0  0  0
    5.0004   26.6606   33.9594 H   0  0  0  0  0  0  0  0  0  0  0  0
    4.9320   28.4556   33.9594 H   0  0  0  0  0  0  0  0  0  0  0  0
    2.1031   16.9833   41.0895 H   0  0  0  0  0  0  0  0  0  0  0  0
    1.0211   16.5913   39.4869 H   0  0  0  0  0  0  0  0  0  0  0  0
   -0.1729   25.9907   30.9267 H   0  0  0  0  0  0  0  0  0  0  0  0
    0.7984   27.4259   30.4541 H   0  0  0  0  0  0  0  0  0  0  0  0
    1.5489   25.7938   30.4541 H   0  0  0  0  0  0  0  0  0  0  0  0
    4.0356   17.5072   38.3778 H   0  0  0  0  0  0  0  0  0  0  0  0
    4.5454   16.4898   36.9880 H   0  0  0  0  0  0  0  0  0  0  0  0
    2.9241   17.2630   36.9880 H   0  0  0  0  0  0  0  0  0  0  0  0
    1.9979   22.0451   41.3297 H   0  0  0  0  0  0  0  0  0  0  0  0
    0.5458   22.3955   40.2643 H   0  0  0  0  0  0  0  0  0  0  0  0
    1.0738   21.6049   38.1583 H   0  0  0  0  0  0  0  0  0  0  0  0
    2.9322   21.5039   38.8383 H   0  0  0  0  0  0  0  0  0  0  0  0
    3.8887   11.2877   35.0875 H   0  0  0  0  0  0  0  0  0  0  0  0
    0.9862   13.4092   34.5359 H   0  0  0  0  0  0  0  0  0  0  0  0
    1.9027   11.9609   34.0406 H   0  0  0  0  0  0  0  0  0  0  0  0
    3.1842   26.3538   30.8137 H   0  0  0  0  0  0  0  0  0  0  0  0
    2.2858   14.0087   38.0534 H   0  0  0  0  0  0  0  0  0  0  0  0
    3.7889   26.7403   34.3148 H   0  0  0  0  0  0  0  0  0  0  0  0
    1.8841   14.6075   39.8991 H   0  0  0  0  0  0  0  0  0  0  0  0
    3.4114   15.1761   40.5058 H   0  0  0  0  0  0  0  0  0  0  0  0
    4.2707   22.1389   35.3822 H   0  0  0  0  0  0  0  0  0  0  0  0
    5.1656   27.6561   32.0645 H   0  0  0  0  0  0  0  0  0  0  0  0
    5.2292   26.5584   30.6440 H   0  0  0  0  0  0  0  0  0  0  0  0
    4.1099   27.9634   30.6440 H   0  0  0  0  0  0  0  0  0  0  0  0
  1 20  1  0
  1 35  1  0
  1 32  1  0
  2 38  1  0
  3  2  1  0
  4 31  1  0
  4 13  1  0
  4  3  1  0
  6 19  1  0
  6 17  1  0
  7 21  1  0
  7 36  1  0
  8  5  1  0
  9 27  2  0
 12  5  2  0
 12 10  1  0
 13 16  1  0
 13  3  1  0
 14 23  2  0
 15  6  1  0
 16  4  1  0
 17  8  1  0
 22 17  2  0
 22 25  1  0
 24 33  1  0
 25 12  1  0
 26 22  1  0
 27 15  1  0
 27 26  1  0
 28 29  1  0
 28 24  2  0
 29 37  1  0
 30 28  1  0
 31 39  1  0
 31 35  1  0
 32 14  1  0
 33 11  1  0
 33  7  1  0
 34 18  1  0
 34 14  1  0
 35 34  1  0
 36 19  1  0
 37 11  1  0
 38  9  2  0
  1 40  1  0
  2 41  1  0
  2 42  1  0
  3 43  1  0
  5 44  1  0
  6 45  1  0
  7 46  1  0
  8 47  1  0
  8 48  1  0
 10 49  1  0
 11 50  1  0
 11 51  1  0
 13 52  1  0
 15 53  1  0
 15 54  1  0
 16 55  1  0
 16 56  1  0
 18 57  1  0
 18 58  1  0
 18 59  1  0
 19 60  1  0
 19 61  1  0
 20 62  1  0
 20 63  1  0
 20 64  1  0
 21 65  1  0
 21 66  1  0
 21 67  1  0
 25 68  1  0
 25 69  1  0
 26 70  1  0
 26 71  1  0
 29 72  1  0
 30 73  1  0
 30 74  1  0
 31 75  1  0
 33 76  1  0
 34 77  1  0
 36 78  1  0
 36 79  1  0
 38 80  1  0
 39 81  1  0
 39 82  1  0
 39 83  1  0
M  END
>  <mol_id>  (17) 
2026-09-18-3war-s0-n100-0017

>  <rmsd_to_ref>  (17) 


$$$$

     RDKit          3D

 39 39  0  0  0  0  0  0  0  0999 V2000
    3.6890   22.4570   32.2150 C   0  0  0  0  0  0  0  0  0  0  0  0
    0.4580   20.9580   41.7280 C   0  0  0  0  0  0  0  0  0  0  0  0
    2.5240   19.1560   36.3900 O   0  0  0  0  0  0  0  0  0  0  0  0
    2.2410   19.3020   41.3300 C   0  0  0  0  0  0  0  0  0  0  0  0
    3.4510   21.0490   35.5860 N   0  0  0  0  0  0  0  0  0  0  0  0
    3.0890   24.6650   30.9920 C   0  0  0  0  0  0  0  0  0  0  0  0
    2.8330   20.0520   38.9730 C   0  0  0  0  0  0  0  0  0  0  0  0
    4.0350   24.5380   30.5170 C   0  0  0  0  0  0  0  0  0  0  0  0
    1.8580   19.8810   40.0460 C   0  0  0  0  0  0  0  0  0  0  0  0
    2.7130   20.2820   36.4500 C   0  0  0  0  0  0  0  0  0  0  0  0
    3.9900   23.9700   31.6980 C   0  0  0  0  0  0  0  0  0  0  0  0
    2.1890   20.8680   37.8020 C   0  0  0  0  0  0  0  0  0  0  0  0
    1.4650   21.1660   40.7190 C   0  0  0  0  0  0  0  0  0  0  0  0
    3.6270   20.8500   34.1280 C   0  0  0  0  0  0  0  0  0  0  0  0
    4.0890   22.0950   33.4590 C   0  0  0  0  0  0  0  0  0  0  0  0
    1.2930   18.2270   41.5780 O   0  0  0  0  0  0  0  0  0  0  0  0
    3.1686   21.7383   31.5649 H   0  0  0  0  0  0  0  0  0  0  0  0
    0.9131   21.0520   42.7250 H   0  0  0  0  0  0  0  0  0  0  0  0
   -0.3357   21.7112   41.6147 H   0  0  0  0  0  0  0  0  0  0  0  0
    0.0277   19.9520   41.6147 H   0  0  0  0  0  0  0  0  0  0  0  0
    2.1785   20.0591   42.1256 H   0  0  0  0  0  0  0  0  0  0  0  0
    3.2771   18.9329   41.3150 H   0  0  0  0  0  0  0  0  0  0  0  0
    3.9396   21.8569   35.9977 H   0  0  0  0  0  0  0  0  0  0  0  0
    2.2103   24.1440   30.5841 H   0  0  0  0  0  0  0  0  0  0  0  0
    2.4813   25.5524   31.2228 H   0  0  0  0  0  0  0  0  0  0  0  0
    3.7095   20.5939   39.3579 H   0  0  0  0  0  0  0  0  0  0  0  0
    3.1440   19.0644   38.6017 H   0  0  0  0  0  0  0  0  0  0  0  0
    4.0957   23.8969   29.6252 H   0  0  0  0  0  0  0  0  0  0  0  0
    4.7373   25.2650   30.0830 H   0  0  0  0  0  0  0  0  0  0  0  0
    1.1658   19.2853   39.4328 H   0  0  0  0  0  0  0  0  0  0  0  0
    4.6453   23.9523   32.5813 H   0  0  0  0  0  0  0  0  0  0  0  0
    2.4756   21.9268   37.8846 H   0  0  0  0  0  0  0  0  0  0  0  0
    1.0923   20.7954   37.8473 H   0  0  0  0  0  0  0  0  0  0  0  0
    2.3554   21.6071   41.1908 H   0  0  0  0  0  0  0  0  0  0  0  0
    1.0476   21.8375   39.9542 H   0  0  0  0  0  0  0  0  0  0  0  0
    4.3723   20.0580   33.9629 H   0  0  0  0  0  0  0  0  0  0  0  0
    2.6542   20.5685   33.6986 H   0  0  0  0  0  0  0  0  0  0  0  0
    4.7872   22.7524   33.9979 H   0  0  0  0  0  0  0  0  0  0  0  0
    1.1832   18.1025   42.5540 H   0  0  0  0  0  0  0  0  0  0  0  0
  1 15  2  3
  3 10  2  0
  4 16  1  0
  5 10  1  0
  6 11  1  0
  8  6  1  0
  8 11  1  0
  9  7  1  0
  9 13  1  0
  9  4  1  0
 10 12  1  0
 11  1  1  0
 12  7  1  0
 13  2  1  0
 14  5  1  0
 15 14  1  0
  1 17  1  0
  2 18  1  0
  2 19  1  0
  2 20  1  0
  4 21  1  0
  4 22  1  0
  5 23  1  0
  6 24  1  0
  6 25  1  0
  7 26  1  0
  7 27  1  0
  8 28  1  0
  8 29  1  0
  9 30  1  0
 11 31  1  0
 12 32  1  0
 12 33  1  0
 13 34  1  0
 13 35  1  0
 14 36  1  0
 14 37  1  0
 15 38  1  0
 16 39  1  0
M  END
>  <mol_id>  (18) 
2026-09-18-3war-s0-n100-0018

>  <rmsd_to_ref>  (18) 


$$$$

     RDKit          3D

 67 69  0  0  0  0  0  0  0  0999 V2000
   -0.4470   19.6400   42.5570 N   0  0  0  0  0  0  0  0  0  0  0  0
    3.1350   24.1940   26.4790 C   0  0  0  0  0  0  0  0  0  0  0  0
    2.4090   17.5530   40.3640 N   0  0  0  0  0  0  0  0  0  0  0  0
    3.5400   24.2670   27.8610 C   0  0  0  0  0  0  0  0  0  0  0  0
   -1.0060   19.2780   43.8370 C   0  0  0  0  0  0  0  0  0  0  0  0
    3.6930   18.5360   38.0230 C   0  0  0  0  0  0  0  0  0  0  0  0
    2.5540   20.9180   36.1330 C   0  0  0  0  0  0  0  0  0  0  0  0
    3.1030   22.0060   35.1810 C   0  0  0  0  0  0  0  0  0  0  0  0
    3.0880   16.8080   39.5880 C   0  0  0  0  0  0  0  0  0  0  0  0
    1.0880   17.9510   42.6700 O   0  0  0  0  0  0  0  0  0  0  0  0
    5.8200   23.3430   27.4030 N   0  0  0  0  0  4  0  0  0  0  0  0
    1.4270   25.5510   29.0720 C   0  0  0  0  0  0  0  0  0  0  0  0
    3.5880   22.0910   32.8220 C   0  0  0  0  0  0  0  0  0  0  0  0
    1.2370   19.5010   40.7260 C   0  0  0  0  0  0  0  0  0  0  0  0
    4.0380   21.4720   34.0740 C   0  0  0  0  0  0  0  0  0  0  0  0
    1.9870   24.4390   26.1000 C   0  0  0  0  0  0  0  0  0  0  0  0
    2.0880   21.3610   37.4150 C   0  0  0  0  0  0  0  0  0  0  0  0
    0.6080   18.9920   42.0230 C   0  0  0  0  0  0  0  0  0  0  0  0
    2.0300   20.4890   38.6360 C   0  0  0  0  0  0  0  0  0  0  0  0
    2.1720   18.7060   40.0320 C   0  0  0  0  0  0  0  0  0  0  0  0
    4.9680   23.4540   29.8420 S   0  0  0  0  0  0  0  0  0  0  0  0
    3.4830   24.1800   30.1190 C   0  0  0  0  0  0  0  0  0  0  0  0
    1.0390   20.9420   39.9270 S   0  0  0  0  0  0  0  0  0  0  0  0
    2.7450   24.8290   29.0070 C   0  0  0  0  0  0  0  0  0  0  0  0
    2.7160   15.3920   39.5340 C   0  0  0  0  0  0  0  0  0  0  0  0
    4.1870   17.3170   38.7710 C   0  0  0  0  0  0  0  0  0  0  0  0
    1.9310   14.8550   39.9630 O   0  0  0  0  0  0  0  0  0  0  0  0
    3.0410   24.2270   31.5470 C   0  0  0  0  0  0  0  0  0  0  0  0
    4.8000   23.6950   28.2370 C   0  0  0  0  0  0  0  0  0  0  0  0
    3.6690   23.3870   32.4670 C   0  0  0  0  0  0  0  0  0  0  0  0
    2.6780   19.2800   38.8290 C   0  0  0  0  0  0  0  0  0  0  0  0
   -0.8684   20.4203   42.0331 H   0  0  0  0  0  0  0  0  0  0  0  0
    3.8850   23.9063   25.7275 H   0  0  0  0  0  0  0  0  0  0  0  0
    2.0623   17.1888   41.2629 H   0  0  0  0  0  0  0  0  0  0  0  0
    3.0446   23.3046   28.0570 H   0  0  0  0  0  0  0  0  0  0  0  0
   -0.3758   19.6861   44.6409 H   0  0  0  0  0  0  0  0  0  0  0  0
   -2.0224   19.6898   43.9229 H   0  0  0  0  0  0  0  0  0  0  0  0
   -1.0460   18.1821   43.9229 H   0  0  0  0  0  0  0  0  0  0  0  0
    4.5446   19.2002   37.8142 H   0  0  0  0  0  0  0  0  0  0  0  0
    3.2240   18.2066   37.0841 H   0  0  0  0  0  0  0  0  0  0  0  0
    3.3588   20.1880   36.3046 H   0  0  0  0  0  0  0  0  0  0  0  0
    1.6661   20.5114   35.6267 H   0  0  0  0  0  0  0  0  0  0  0  0
    2.2489   22.5044   34.6992 H   0  0  0  0  0  0  0  0  0  0  0  0
    3.7053   22.6887   35.7984 H   0  0  0  0  0  0  0  0  0  0  0  0
    2.3872   17.0234   38.7680 H   0  0  0  0  0  0  0  0  0  0  0  0
    6.6382   23.0607   27.9614 H   0  0  0  0  0  0  0  0  0  0  0  0
    5.5218   22.5563   26.8089 H   0  0  0  0  0  0  0  0  0  0  0  0
    6.0704   24.1462   26.8089 H   0  0  0  0  0  0  0  0  0  0  0  0
    1.1450   25.7055   30.1240 H   0  0  0  0  0  0  0  0  0  0  0  0
    1.5176   26.5255   28.5698 H   0  0  0  0  0  0  0  0  0  0  0  0
    0.6546   24.9501   28.5698 H   0  0  0  0  0  0  0  0  0  0  0  0
    4.1304   21.5505   32.0323 H   0  0  0  0  0  0  0  0  0  0  0  0
    2.5018   22.0285   32.9842 H   0  0  0  0  0  0  0  0  0  0  0  0
    3.9618   20.3767   34.0064 H   0  0  0  0  0  0  0  0  0  0  0  0
    5.0894   21.7163   34.2859 H   0  0  0  0  0  0  0  0  0  0  0  0
    1.7333   24.3674   25.0320 H   0  0  0  0  0  0  0  0  0  0  0  0
    1.2169   24.7290   26.8300 H   0  0  0  0  0  0  0  0  0  0  0  0
    2.7292   22.2123   37.6871 H   0  0  0  0  0  0  0  0  0  0  0  0
    1.0168   21.5036   37.2096 H   0  0  0  0  0  0  0  0  0  0  0  0
    3.3943   14.7771   38.9243 H   0  0  0  0  0  0  0  0  0  0  0  0
    4.5078   16.5455   38.0556 H   0  0  0  0  0  0  0  0  0  0  0  0
    5.0435   17.5827   39.4081 H   0  0  0  0  0  0  0  0  0  0  0  0
    3.1866   25.2593   31.8980 H   0  0  0  0  0  0  0  0  0  0  0  0
    2.0022   23.8662   31.5190 H   0  0  0  0  0  0  0  0  0  0  0  0
    4.3716   22.6866   28.1386 H   0  0  0  0  0  0  0  0  0  0  0  0
    4.7294   23.4897   32.1931 H   0  0  0  0  0  0  0  0  0  0  0  0
    3.0695   23.7402   33.3190 H   0  0  0  0  0  0  0  0  0  0  0  0
  1  5  1  0
  4  2  1  0
  4 29  1  0
  4 24  1  0
  6 26  1  0
  6 31  1  0
  7 17  1  0
  8  7  1  0
  9 25  1  0
  9  3  1  0
 13 15  1  0
 14 18  1  0
 15  8  1  0
 16  2  2  3
 17 19  1  0
 18  1  1  0
 18 10  2  0
 19 31  2  0
 19 23  1  0
 20  3  1  0
 20 14  2  0
 21 22  1  0
 22 28  1  0
 23 14  1  0
 24 12  1  0
 24 22  2  0
 25 27  2  0
 26  9  1  0
 28 30  1  0
 29 11  1  0
 29 21  1  0
 30 13  1  0
 31 20  1  0
  1 32  1  0
  2 33  1  0
  3 34  1  0
  4 35  1  0
  5 36  1  0
  5 37  1  0
  5 38  1  0
  6 39  1  0
  6 40  1  0
  7 41  1  0
  7 42  1  0
  8 43  1  0
  8 44  1  0
  9 45  1  0
 11 46  1  0
 11 47  1  0
 11 48  1  0
 12 49  1  0
 12 50  1  0
 12 51  1  0
 13 52  1  0
 13 53  1  0
 15 54  1  0
 15 55  1  0
 16 56  1  0
 16 57  1  0
 17 58  1  0
 17 59  1  0
 25 60  1  0
 26 61  1  0
 26 62  1  0
 28 63  1  0
 28 64  1  0
 29 65  1  0
 30 66  1  0
 30 67  1  0
M  CHG  1  11   1
M  END
>  <mol_id>  (19) 
2026-09-18-3war-s0-n100-0019

>  <rmsd_to_ref>  (19) 


$$$$

     RDKit          3D

 40 41  0  0  0  0  0  0  0  0999 V2000
    3.2690   24.5670   32.0340 C   0  0  0  0  0  0  0  0  0  0  0  0
    2.7090   19.5780   38.4340 C   0  0  0  0  0  0  0  0  0  0  0  0
    3.3710   19.4070   37.1340 C   0  0  0  0  0  0  0  0  0  0  0  0
    2.5350   21.4260   36.1810 C   0  0  0  0  0  0  0  0  0  0  0  0
    3.6440   17.7880   39.5500 O   0  0  0  0  0  0  0  0  0  0  0  0
    1.1340   19.9870   40.9270 C   0  0  0  0  0  0  0  0  0  0  0  0
    3.2980   20.2970   36.1530 C   0  0  0  0  0  0  0  0  0  0  0  0
    2.9160   25.4630   29.8230 F   0  0  0  0  0  0  0  0  0  0  0  0
    1.9320   18.7980   40.7510 C   0  0  0  0  0  0  0  0  0  0  0  0
    1.5770   26.5260   31.4550 C   0  0  0  0  0  0  0  0  0  0  0  0
    2.6170   25.5240   31.1590 C   0  0  0  0  0  0  0  0  0  0  0  0
    1.8200   21.6130   37.3970 C   0  0  0  0  0  0  0  0  0  0  0  0
    4.4000   23.8400   31.5410 C   0  0  0  0  0  0  0  0  0  0  0  0
    1.9180   20.7080   38.5590 C   0  0  0  0  0  0  0  0  0  0  0  0
    1.1890   20.9900   39.7780 C   0  0  0  0  0  0  0  0  0  0  0  0
    2.7530   24.2290   33.3820 C   0  0  0  0  0  0  0  0  0  0  0  0
    2.1110   25.3890   34.2640 S   0  0  0  0  0  0  0  0  0  0  0  0
    2.3870   22.3470   35.0880 C   0  0  0  0  0  0  0  0  0  0  0  0
    2.8460   22.8810   34.0250 C   0  0  0  0  0  0  0  0  0  0  0  0
    2.7890   18.5930   39.5430 C   0  0  0  0  0  0  0  0  0  0  0  0
    2.1200   17.6330   41.6200 C   0  0  0  0  0  0  0  0  0  0  0  0
    3.9584   18.4925   36.9649 H   0  0  0  0  0  0  0  0  0  0  0  0
    0.5271   20.1590   41.8282 H   0  0  0  0  0  0  0  0  0  0  0  0
    3.8977   20.1099   35.2500 H   0  0  0  0  0  0  0  0  0  0  0  0
    1.4683   26.6307   32.5446 H   0  0  0  0  0  0  0  0  0  0  0  0
    1.8665   27.4943   31.0206 H   0  0  0  0  0  0  0  0  0  0  0  0
    0.6202   26.2007   31.0206 H   0  0  0  0  0  0  0  0  0  0  0  0
    1.1539   22.4848   37.4759 H   0  0  0  0  0  0  0  0  0  0  0  0
    4.9899   23.4608   32.3885 H   0  0  0  0  0  0  0  0  0  0  0  0
    4.0538   22.9949   30.9279 H   0  0  0  0  0  0  0  0  0  0  0  0
    5.0251   24.5059   30.9279 H   0  0  0  0  0  0  0  0  0  0  0  0
    1.6228   21.9121   40.1922 H   0  0  0  0  0  0  0  0  0  0  0  0
    0.1457   21.0065   39.4298 H   0  0  0  0  0  0  0  0  0  0  0  0
    1.4332   21.9741   34.6864 H   0  0  0  0  0  0  0  0  0  0  0  0
    2.9300   23.1010   35.6767 H   0  0  0  0  0  0  0  0  0  0  0  0
    2.4683   22.2123   33.2375 H   0  0  0  0  0  0  0  0  0  0  0  0
    3.8530   23.0466   34.4354 H   0  0  0  0  0  0  0  0  0  0  0  0
    2.0691   17.9486   42.6725 H   0  0  0  0  0  0  0  0  0  0  0  0
    1.3293   16.8949   41.4199 H   0  0  0  0  0  0  0  0  0  0  0  0
    3.1027   17.1811   41.4199 H   0  0  0  0  0  0  0  0  0  0  0  0
  1 16  1  0
  2 14  1  0
  2 20  1  0
  3  2  2  0
  4 12  1  0
  7  4  2  0
  7  3  1  0
  8 11  1  0
  9  6  2  0
  9 21  1  0
 11 10  1  0
 11  1  2  3
 12 14  2  0
 13  1  1  0
 14 15  1  0
 15  6  1  0
 16 19  1  0
 16 17  2  0
 18  4  1  0
 19 18  1  0
 20  5  2  0
 20  9  1  0
  3 22  1  0
  6 23  1  0
  7 24  1  0
 10 25  1  0
 10 26  1  0
 10 27  1  0
 12 28  1  0
 13 29  1  0
 13 30  1  0
 13 31  1  0
 15 32  1  0
 15 33  1  0
 18 34  1  0
 18 35  1  0
 19 36  1  0
 19 37  1  0
 21 38  1  0
 21 39  1  0
 21 40  1  0
M  END
>  <mol_id>  (20) 
2026-09-18-3war-s0-n100-0020

>  <rmsd_to_ref>  (20) 


$$$$

     RDKit          3D

 80 83  0  0  0  0  0  0  0  0999 V2000
    0.4310   17.2890   42.8920 C   0  0  0  0  0  0  0  0  0  0  0  0
    2.0430   23.3120   34.0440 S   0  0  0  0  0  0  0  0  0  0  0  0
    1.9530   27.6080   34.5270 C   0  0  0  0  0  0  0  0  0  0  0  0
    3.1960   25.8650   29.4250 C   0  0  0  0  0  0  0  0  0  0  0  0
    1.5210   26.4400   27.7570 C   0  0  0  0  0  0  0  0  0  0  0  0
    3.3900   20.0580   36.3460 C   0  0  0  0  0  0  0  0  0  0  0  0
    2.6050   25.0950   31.7970 C   0  0  0  0  0  0  0  0  0  0  0  0
    2.7020   21.2860   35.7760 C   0  0  0  0  0  0  0  0  0  0  0  0
    2.5040   14.0190   36.3090 N   0  0  0  0  0  4  0  0  0  0  0  0
    1.9790   17.7250   41.0520 C   0  0  0  0  0  0  0  0  0  0  0  0
    1.9910   25.6670   26.8410 O   0  0  0  0  0  0  0  0  0  0  0  0
    3.0010   14.7520   37.3530 C   0  0  0  0  0  0  0  0  0  0  0  0
    3.0480   19.9100   38.8930 C   0  0  0  0  0  0  0  0  0  0  0  0
    0.3170   27.0120   27.4760 N   0  0  0  0  0  0  0  0  0  0  0  0
    3.2840   22.5380   35.1860 C   0  0  0  0  0  0  0  0  0  0  0  0
    3.1610   17.7780   37.5950 C   0  0  0  0  0  0  0  0  0  0  0  0
    2.1730   26.1430   35.4520 S   0  0  0  0  0  0  0  0  0  0  0  0
    1.3780   26.8430   30.3670 C   0  0  0  0  0  0  0  0  0  0  0  0
    2.0500   26.8760   29.0560 C   0  0  0  0  0  0  0  0  0  0  0  0
    3.2130   19.2850   37.6000 N   0  0  0  0  0  0  0  0  0  0  0  0
    1.3280   18.1350   42.2270 C   0  0  0  0  0  0  0  0  0  0  0  0
   -0.2310   17.7400   44.1290 C   0  0  0  0  0  0  0  0  0  0  0  0
    4.0680   25.5740   28.1830 C   0  0  0  0  0  0  0  0  0  0  0  0
    1.3090   27.2090   33.2640 C   0  0  0  0  0  0  0  0  0  0  0  0
    2.0950   25.0430   34.1700 C   0  0  0  0  0  0  0  0  0  0  0  0
    4.1820   19.4450   39.6520 C   0  0  0  0  0  0  0  0  0  0  0  0
    1.0000   15.5710   41.2190 C   0  0  0  0  0  0  0  0  0  0  0  0
    3.5250   16.8550   38.5090 N   0  0  0  0  0  4  0  0  0  0  0  0
    2.7100   15.9440   39.3990 C   0  0  0  0  0  0  0  0  0  0  0  0
    1.9370   15.2090   38.3430 C   0  0  0  0  0  0  0  0  0  0  0  0
    1.7780   25.7280   32.8940 C   0  0  0  0  0  0  0  0  0  0  0  0
    2.6400   26.1660   30.7870 C   0  0  0  0  0  0  0  0  0  0  0  0
    0.2780   16.0150   42.3730 C   0  0  0  0  0  0  0  0  0  0  0  0
    1.8710   16.4340   40.5930 C   0  0  0  0  0  0  0  0  0  0  0  0
    1.3103   28.3118   35.0761 H   0  0  0  0  0  0  0  0  0  0  0  0
    2.9134   28.1119   34.3433 H   0  0  0  0  0  0  0  0  0  0  0  0
    3.8834   25.0230   29.5939 H   0  0  0  0  0  0  0  0  0  0  0  0
    4.4486   20.3549   36.3800 H   0  0  0  0  0  0  0  0  0  0  0  0
    2.8822   19.3320   35.6940 H   0  0  0  0  0  0  0  0  0  0  0  0
    3.6162   24.8459   32.1513 H   0  0  0  0  0  0  0  0  0  0  0  0
    2.1955   24.1449   31.4235 H   0  0  0  0  0  0  0  0  0  0  0  0
    2.0617   20.8862   34.9759 H   0  0  0  0  0  0  0  0  0  0  0  0
    2.3705   21.7195   36.7311 H   0  0  0  0  0  0  0  0  0  0  0  0
    1.9638   13.2222   36.6754 H   0  0  0  0  0  0  0  0  0  0  0  0
    1.8911   14.6136   35.7331 H   0  0  0  0  0  0  0  0  0  0  0  0
    3.2832   13.6697   35.7331 H   0  0  0  0  0  0  0  0  0  0  0  0
    2.5858   18.4497   40.4893 H   0  0  0  0  0  0  0  0  0  0  0  0
    3.7346   14.1348   37.8923 H   0  0  0  0  0  0  0  0  0  0  0  0
    3.4503   15.6593   36.9230 H   0  0  0  0  0  0  0  0  0  0  0  0
    2.1058   19.5924   39.3635 H   0  0  0  0  0  0  0  0  0  0  0  0
    3.0016   21.0072   38.8302 H   0  0  0  0  0  0  0  0  0  0  0  0
   -0.1251   27.6435   28.1591 H   0  0  0  0  0  0  0  0  0  0  0  0
   -0.1512   26.8130   26.5804 H   0  0  0  0  0  0  0  0  0  0  0  0
    4.1961   22.2896   34.6236 H   0  0  0  0  0  0  0  0  0  0  0  0
    3.5336   23.2438   35.9920 H   0  0  0  0  0  0  0  0  0  0  0  0
    2.0981   17.5580   37.4167 H   0  0  0  0  0  0  0  0  0  0  0  0
    4.0188   17.6287   36.9228 H   0  0  0  0  0  0  0  0  0  0  0  0
    0.4673   26.2284   30.4201 H   0  0  0  0  0  0  0  0  0  0  0  0
    0.9551   27.7269   30.8669 H   0  0  0  0  0  0  0  0  0  0  0  0
    1.5260   19.1383   42.6323 H   0  0  0  0  0  0  0  0  0  0  0  0
    0.3237   17.3621   45.0005 H   0  0  0  0  0  0  0  0  0  0  0  0
   -0.2497   18.8395   44.1549 H   0  0  0  0  0  0  0  0  0  0  0  0
   -1.2611   17.3550   44.1549 H   0  0  0  0  0  0  0  0  0  0  0  0
    5.0656   25.2411   28.5053 H   0  0  0  0  0  0  0  0  0  0  0  0
    3.5952   24.7849   27.5798 H   0  0  0  0  0  0  0  0  0  0  0  0
    4.1639   26.4888   27.5798 H   0  0  0  0  0  0  0  0  0  0  0  0
    0.2157   27.2319   33.3829 H   0  0  0  0  0  0  0  0  0  0  0  0
    1.5966   27.9041   32.4614 H   0  0  0  0  0  0  0  0  0  0  0  0
    2.8492   24.6018   34.8383 H   0  0  0  0  0  0  0  0  0  0  0  0
    3.9652   19.5339   40.7268 H   0  0  0  0  0  0  0  0  0  0  0  0
    4.3823   18.3922   39.4042 H   0  0  0  0  0  0  0  0  0  0  0  0
    5.0638   20.0541   39.4042 H   0  0  0  0  0  0  0  0  0  0  0  0
    0.8600   14.5494   40.8360 H   0  0  0  0  0  0  0  0  0  0  0  0
    4.1193   16.2051   37.9749 H   0  0  0  0  0  0  0  0  0  0  0  0
    3.8055   17.5197   39.2441 H   0  0  0  0  0  0  0  0  0  0  0  0
    3.3835   15.3867   40.0667 H   0  0  0  0  0  0  0  0  0  0  0  0
    1.2109   15.8761   37.8554 H   0  0  0  0  0  0  0  0  0  0  0  0
    1.3545   14.3708   38.7531 H   0  0  0  0  0  0  0  0  0  0  0  0
    0.9160   25.6415   32.2161 H   0  0  0  0  0  0  0  0  0  0  0  0
   -0.4209   15.3211   42.8630 H   0  0  0  0  0  0  0  0  0  0  0  0
  1 22  1  0
  2 15  1  0
  3 17  1  0
  4 23  1  0
  4 32  1  0
  6 20  1  0
  8  6  1  0
  9 12  1  0
 10 21  1  0
 11  5  2  0
 12 30  1  0
 13 26  1  0
 14  5  1  0
 15  8  1  0
 16 20  1  0
 16 28  1  0
 18 32  1  0
 19  5  1  0
 19  4  1  0
 19 18  1  0
 19 32  1  0
 20 13  1  0
 21  1  2  0
 24  3  1  0
 25  2  1  0
 25 17  1  0
 27 33  2  0
 28 29  1  0
 29 30  1  0
 29 34  1  0
 31  7  1  0
 31 24  1  0
 31 25  1  0
 32  7  1  0
 33  1  1  0
 34 10  2  0
 34 27  1  0
  3 35  1  0
  3 36  1  0
  4 37  1  0
  6 38  1  0
  6 39  1  0
  7 40  1  0
  7 41  1  0
  8 42  1  0
  8 43  1  0
  9 44  1  0
  9 45  1  0
  9 46  1  0
 10 47  1  0
 12 48  1  0
 12 49  1  0
 13 50  1  0
 13 51  1  0
 14 52  1  0
 14 53  1  0
 15 54  1  0
 15 55  1  0
 16 56  1  0
 16 57  1  0
 18 58  1  0
 18 59  1  0
 21 60  1  0
 22 61  1  0
 22 62  1  0
 22 63  1  0
 23 64  1  0
 23 65  1  0
 23 66  1  0
 24 67  1  0
 24 68  1  0
 25 69  1  0
 26 70  1  0
 26 71  1  0
 26 72  1  0
 27 73  1  0
 28 74  1  0
 28 75  1  0
 29 76  1  0
 30 77  1  0
 30 78  1  0
 31 79  1  0
 33 80  1  0
M  CHG  2   9   1  28   1
M  END
>  <mol_id>  (21) 
2026-09-18-3war-s0-n100-0021

>  <rmsd_to_ref>  (21) 


$$$$

     RDKit          3D

 66 68  0  0  0  0  0  0  0  0999 V2000
    4.2620   24.0350   27.0650 C   0  0  0  0  0  0  0  0  0  0  0  0
    1.6180   18.9900   41.5540 C   0  0  0  0  0  0  0  0  0  0  0  0
    2.8590   23.1190   33.2700 C   0  0  0  0  0  0  0  0  0  0  0  0
    4.2410   24.3910   30.6450 C   0  0  0  0  0  0  0  0  0  0  0  0
    3.4820   19.1760   37.4700 N   0  0  0  0  0  0  0  0  0  0  0  0
    3.6140   20.0840   35.4690 C   0  0  0  0  0  0  0  0  0  0  0  0
    3.2900   19.9610   36.7520 C   0  0  0  0  0  0  0  0  0  0  0  0
    1.8420   27.9120   29.9680 C   0  0  0  0  0  0  0  0  0  0  0  0
    4.1040   16.5580   38.7620 O   0  0  0  0  0  1  0  0  0  0  0  0
    1.6660   27.0090   32.5930 C   0  0  0  0  0  0  0  0  0  0  0  0
    2.0580   15.7450   38.2300 O   0  0  0  0  0  0  0  0  0  0  0  0
    2.6400   24.1280   32.5460 C   0  0  0  0  0  0  0  0  0  0  0  0
    4.4890   24.4870   29.4800 C   0  0  0  0  0  0  0  0  0  0  0  0
    1.5700   21.9300   36.7240 O   0  0  0  0  0  0  0  0  0  0  0  0
    2.1440   27.0510   31.1890 C   0  0  0  0  0  0  0  0  0  0  0  0
    2.3800   21.0160   37.1450 C   0  0  0  0  0  0  0  0  0  0  0  0
    2.2290   18.5440   40.4980 C   0  0  0  0  0  0  0  0  0  0  0  0
    0.7520   18.1040   42.3660 C   0  0  0  0  0  0  0  0  0  0  0  0
    2.5110   23.0490   34.6720 C   0  0  0  0  0  0  0  0  0  0  0  0
    3.2130   19.3550   39.8090 C   0  0  0  0  0  0  0  0  0  0  0  0
    3.0780   24.9690   31.2330 C   0  0  0  0  0  0  0  0  0  0  0  0
    2.3560   25.6140   30.3280 C   0  0  0  0  0  0  0  0  0  0  0  0
    3.4700   21.5030   34.5440 S   0  0  0  0  0  0  0  0  0  0  0  0
    2.3960   20.7860   38.3540 N   0  0  0  0  0  0  0  0  0  0  0  0
    0.5990   16.7210   42.0150 C   0  0  0  0  0  0  0  0  0  0  0  0
    2.1680   17.1820   40.2090 C   0  0  0  0  0  0  0  0  0  0  0  0
    3.1130   19.5790   38.6860 N   0  0  0  0  0  0  0  0  0  0  0  0
    2.9280   27.5230   28.7300 C   0  0  0  0  0  0  0  0  0  0  0  0
    3.0900   26.1420   29.4850 C   0  0  0  0  0  0  0  0  0  0  0  0
    4.4970   24.9920   28.1800 C   0  0  0  0  0  0  0  0  0  0  0  0
    2.7710   16.5560   39.0370 C   0  0  0  0  0  0  0  0  0  0  0  0
    1.2980   16.3180   40.9700 C   0  0  0  0  0  0  0  0  0  0  0  0
    4.0188   23.0445   27.4771 H   0  0  0  0  0  0  0  0  0  0  0  0
    3.4245   24.3907   26.4469 H   0  0  0  0  0  0  0  0  0  0  0  0
    5.1690   23.9623   26.4469 H   0  0  0  0  0  0  0  0  0  0  0  0
    1.7456   20.0418   41.8498 H   0  0  0  0  0  0  0  0  0  0  0  0
    3.9439   22.9443   33.2210 H   0  0  0  0  0  0  0  0  0  0  0  0
    2.1563   22.3906   32.8391 H   0  0  0  0  0  0  0  0  0  0  0  0
    4.9377   23.8346   31.2892 H   0  0  0  0  0  0  0  0  0  0  0  0
    4.4877   18.9538   37.4735 H   0  0  0  0  0  0  0  0  0  0  0  0
    4.6765   19.8054   35.4098 H   0  0  0  0  0  0  0  0  0  0  0  0
    2.8203   19.4752   35.0114 H   0  0  0  0  0  0  0  0  0  0  0  0
    4.2812   19.5057   36.8942 H   0  0  0  0  0  0  0  0  0  0  0  0
    0.8133   27.7209   29.6285 H   0  0  0  0  0  0  0  0  0  0  0  0
    1.9465   28.9751   30.2306 H   0  0  0  0  0  0  0  0  0  0  0  0
    2.5255   27.0845   33.2754 H   0  0  0  0  0  0  0  0  0  0  0  0
    0.9805   27.8504   32.7723 H   0  0  0  0  0  0  0  0  0  0  0  0
    1.1377   26.0610   32.7723 H   0  0  0  0  0  0  0  0  0  0  0  0
    1.5800   23.9557   32.3078 H   0  0  0  0  0  0  0  0  0  0  0  0
    3.3399   24.7174   33.1565 H   0  0  0  0  0  0  0  0  0  0  0  0
    2.8414   27.6065   31.8333 H   0  0  0  0  0  0  0  0  0  0  0  0
    0.2237   18.5081   43.2421 H   0  0  0  0  0  0  0  0  0  0  0  0
    2.9405   23.8312   35.3152 H   0  0  0  0  0  0  0  0  0  0  0  0
    1.4898   23.1269   35.0735 H   0  0  0  0  0  0  0  0  0  0  0  0
    3.2311   20.3280   40.3218 H   0  0  0  0  0  0  0  0  0  0  0  0
    4.1162   18.7285   39.8517 H   0  0  0  0  0  0  0  0  0  0  0  0
    3.0768   25.8914   31.8324 H   0  0  0  0  0  0  0  0  0  0  0  0
    1.5505   24.9846   29.9218 H   0  0  0  0  0  0  0  0  0  0  0  0
    1.9451   21.3914   39.0548 H   0  0  0  0  0  0  0  0  0  0  0  0
   -0.0571   16.0418   42.5791 H   0  0  0  0  0  0  0  0  0  0  0  0
    3.8352   28.1440   28.6919 H   0  0  0  0  0  0  0  0  0  0  0  0
    2.6688   27.5942   27.6633 H   0  0  0  0  0  0  0  0  0  0  0  0
    3.1529   25.3980   28.6773 H   0  0  0  0  0  0  0  0  0  0  0  0
    3.9060   26.4366   30.1613 H   0  0  0  0  0  0  0  0  0  0  0  0
    4.6710   26.0606   27.9856 H   0  0  0  0  0  0  0  0  0  0  0  0
    1.2125   15.2654   40.6624 H   0  0  0  0  0  0  0  0  0  0  0  0
  1 30  1  0
  2 18  2  0
  3 19  1  0
  5 27  1  0
  7  6  1  0
  7 16  1  0
  7  5  1  0
  8 15  1  0
  9 31  1  0
 11 31  2  0
 12  3  1  0
 13  4  2  0
 14 16  2  0
 15 10  1  0
 16 24  1  0
 17  2  1  0
 20 17  1  0
 21  4  1  0
 21 12  1  0
 22 15  1  0
 22 21  1  0
 23 19  1  0
 23  6  1  0
 24 27  1  0
 25 18  1  0
 26 17  2  0
 26 32  1  0
 27 20  1  0
 28 29  1  0
 28  8  1  0
 29 22  1  0
 30 13  2  0
 31 26  1  0
 32 25  2  0
  1 33  1  0
  1 34  1  0
  1 35  1  0
  2 36  1  0
  3 37  1  0
  3 38  1  0
  4 39  1  0
  5 40  1  0
  6 41  1  0
  6 42  1  0
  7 43  1  0
  8 44  1  0
  8 45  1  0
 10 46  1  0
 10 47  1  0
 10 48  1  0
 12 49  1  0
 12 50  1  0
 15 51  1  0
 18 52  1  0
 19 53  1  0
 19 54  1  0
 20 55  1  0
 20 56  1  0
 21 57  1  0
 22 58  1  0
 24 59  1  0
 25 60  1  0
 28 61  1  0
 28 62  1  0
 29 63  1  0
 29 64  1  0
 30 65  1  0
 32 66  1  0
M  CHG  1   9  -1
M  END
>  <mol_id>  (22) 
2026-09-18-3war-s0-n100-0022

>  <rmsd_to_ref>  (22) 


$$$$

     RDKit          3D

 29 29  0  0  0  0  0  0  0  0999 V2000
    3.0290   20.8790   35.7550 O   0  0  0  0  0  0  0  0  0  0  0  0
    1.4930   22.5590   35.7500 O   0  0  0  0  0  0  0  0  0  0  0  0
    2.2980   20.9020   36.8990 C   0  0  0  0  0  0  0  0  0  0  0  0
    4.9410   19.3680   40.3190 O   0  0  0  0  0  0  0  0  0  0  0  0
    2.0680   19.7070   37.8790 C   0  0  0  0  0  0  0  0  0  0  0  0
    2.0080   19.5480   40.4750 C   0  0  0  0  0  0  0  0  0  0  0  0
    2.8510   22.0260   35.1290 C   0  0  0  0  0  0  0  0  0  0  0  0
    4.5090   22.4070   33.2170 C   0  0  0  0  0  0  0  0  0  0  0  0
    1.6350   22.0920   37.0290 C   0  0  0  0  0  0  0  0  0  0  0  0
    4.1390   19.0820   39.2400 C   0  0  0  0  0  0  0  0  0  0  0  0
    2.9050   23.9850   33.7730 O   0  0  0  0  0  0  0  0  0  0  0  0
    3.2860   22.7990   33.9900 C   0  0  0  0  0  0  0  0  0  0  0  0
    2.7810   19.8710   39.2290 C   0  0  0  0  0  0  0  0  0  0  0  0
    3.1584   21.3222   37.4404 H   0  0  0  0  0  0  0  0  0  0  0  0
    4.4434   19.1906   41.1563 H   0  0  0  0  0  0  0  0  0  0  0  0
    0.9880   19.6136   38.0656 H   0  0  0  0  0  0  0  0  0  0  0  0
    2.4895   18.8115   37.3991 H   0  0  0  0  0  0  0  0  0  0  0  0
    2.6133   19.8009   41.3579 H   0  0  0  0  0  0  0  0  0  0  0  0
    1.0759   20.1319   40.4900 H   0  0  0  0  0  0  0  0  0  0  0  0
    1.7685   18.4745   40.4900 H   0  0  0  0  0  0  0  0  0  0  0  0
    3.9328   22.0212   34.9298 H   0  0  0  0  0  0  0  0  0  0  0  0
    5.3174   22.1479   33.9165 H   0  0  0  0  0  0  0  0  0  0  0  0
    4.2794   21.5374   32.5836 H   0  0  0  0  0  0  0  0  0  0  0  0
    4.8277   23.2480   32.5836 H   0  0  0  0  0  0  0  0  0  0  0  0
    2.2219   22.7975   37.6354 H   0  0  0  0  0  0  0  0  0  0  0  0
    0.6659   21.9723   37.5356 H   0  0  0  0  0  0  0  0  0  0  0  0
    4.6916   19.3311   38.3221 H   0  0  0  0  0  0  0  0  0  0  0  0
    3.8866   18.0133   39.3044 H   0  0  0  0  0  0  0  0  0  0  0  0
    2.9322   20.9591   39.2849 H   0  0  0  0  0  0  0  0  0  0  0  0
  1  3  1  0
  2  9  1  0
  3  9  1  0
  3  5  1  0
  5 13  1  0
  7 12  1  0
  7  2  1  0
  7  1  1  0
  8 12  1  0
 10  4  1  0
 11 12  2  0
 13 10  1  0
 13  6  1  0
  3 14  1  0
  4 15  1  0
  5 16  1  0
  5 17  1  0
  6 18  1  0
  6 19  1  0
  6 20  1  0
  7 21  1  0
  8 22  1  0
  8 23  1  0
  8 24  1  0
  9 25  1  0
  9 26  1  0
 10 27  1  0
 10 28  1  0
 13 29  1  0
M  END
>  <mol_id>  (23) 
2026-09-18-3war-s0-n100-0023

>  <rmsd_to_ref>  (23) 


$$$$

     RDKit          3D

 60 62  0  0  0  0  0  0  0  0999 V2000
    2.1820   22.0490   36.0840 C   0  0  0  0  0  0  0  0  0  0  0  0
    2.9150   25.9890   30.3530 C   0  0  0  0  0  0  0  0  0  0  0  0
    4.1000   24.4640   31.8960 C   0  0  0  0  0  0  0  0  0  0  0  0
    3.0790   20.6450   36.2750 C   0  0  0  0  0  0  0  0  0  0  0  0
    1.5420   25.8410   29.8260 C   0  0  0  0  0  0  0  0  0  0  0  0
    0.9810   15.4570   42.5280 C   0  0  0  0  0  0  0  0  0  0  0  0
    2.0350   19.2790   39.8370 C   0  0  0  0  0  0  0  0  0  0  0  0
    4.0480   23.4020   32.9440 C   0  0  0  0  0  0  0  0  0  0  0  0
    2.6780   22.6130   34.9290 C   0  0  0  0  0  0  0  0  0  0  0  0
    1.5650   25.9870   27.1770 C   0  0  0  0  0  0  0  0  0  0  0  0
    1.2180   20.3070   40.3920 C   0  0  0  0  0  0  0  0  0  0  0  0
    0.4260   16.4760   41.6870 O   0  0  0  0  0  0  0  0  0  0  0  0
    2.5240   16.8840   39.7720 O   0  0  0  0  0  0  0  0  0  0  0  0
    0.8970   26.3810   28.4070 C   0  0  0  0  0  0  0  0  0  0  0  0
    0.5960   18.8490   42.2230 C   0  0  0  0  0  0  0  0  0  0  0  0
    0.9030   20.1430   41.7470 C   0  0  0  0  0  0  0  0  0  0  0  0
    1.8790   17.8420   40.3220 C   0  0  0  0  0  0  0  0  0  0  0  0
    2.9060   25.0810   29.3190 C   0  0  0  0  0  0  0  0  0  0  0  0
    2.5340   20.3360   37.6110 C   0  0  0  0  0  0  0  0  0  0  0  0
    3.9600   24.2170   30.4960 C   0  0  0  0  0  0  0  0  0  0  0  0
    4.2480   18.8910   38.5410 C   0  0  0  0  0  0  0  0  0  0  0  0
    0.9490   17.6800   41.4460 C   0  0  0  0  0  0  0  0  0  0  0  0
   -0.0360   18.4970   43.4660 O   0  0  0  0  0  0  0  0  0  0  0  0
    2.8970   19.4940   38.6120 C   0  0  0  0  0  0  0  0  0  0  0  0
    3.3070   22.9570   33.9030 C   0  0  0  0  0  0  0  0  0  0  0  0
    5.3490   23.7090   32.4260 C   0  0  0  0  0  0  0  0  0  0  0  0
    1.1122   21.8168   35.9764 H   0  0  0  0  0  0  0  0  0  0  0  0
    2.2638   22.7221   36.9502 H   0  0  0  0  0  0  0  0  0  0  0  0
    3.4307   26.9482   30.1981 H   0  0  0  0  0  0  0  0  0  0  0  0
    3.2987   25.8969   31.3798 H   0  0  0  0  0  0  0  0  0  0  0  0
    3.6164   25.4509   31.8504 H   0  0  0  0  0  0  0  0  0  0  0  0
    2.8410   19.8766   35.5247 H   0  0  0  0  0  0  0  0  0  0  0  0
    4.1716   20.7139   36.1683 H   0  0  0  0  0  0  0  0  0  0  0  0
    0.5963   25.8655   30.3874 H   0  0  0  0  0  0  0  0  0  0  0  0
    0.8319   15.7308   43.5829 H   0  0  0  0  0  0  0  0  0  0  0  0
    0.4798   14.4994   42.3233 H   0  0  0  0  0  0  0  0  0  0  0  0
    2.0573   15.3586   42.3233 H   0  0  0  0  0  0  0  0  0  0  0  0
    2.7315   19.8014   40.5093 H   0  0  0  0  0  0  0  0  0  0  0  0
    3.5140   22.5600   33.4086 H   0  0  0  0  0  0  0  0  0  0  0  0
    2.4891   25.4420   27.4200 H   0  0  0  0  0  0  0  0  0  0  0  0
    0.8993   25.3369   26.5903 H   0  0  0  0  0  0  0  0  0  0  0  0
    1.8119   26.8841   26.5903 H   0  0  0  0  0  0  0  0  0  0  0  0
    1.7483   21.2639   40.2779 H   0  0  0  0  0  0  0  0  0  0  0  0
    0.2634   20.2705   39.8467 H   0  0  0  0  0  0  0  0  0  0  0  0
   -0.1380   26.0124   28.3533 H   0  0  0  0  0  0  0  0  0  0  0  0
    1.0031   27.4751   28.4474 H   0  0  0  0  0  0  0  0  0  0  0  0
   -0.3895   18.9042   41.7375 H   0  0  0  0  0  0  0  0  0  0  0  0
    1.7663   20.5038   42.3254 H   0  0  0  0  0  0  0  0  0  0  0  0
   -0.0365   20.7015   41.8709 H   0  0  0  0  0  0  0  0  0  0  0  0
    3.0484   24.6979   28.2978 H   0  0  0  0  0  0  0  0  0  0  0  0
    1.6316   20.9183   37.8491 H   0  0  0  0  0  0  0  0  0  0  0  0
    4.9770   24.3250   30.0909 H   0  0  0  0  0  0  0  0  0  0  0  0
    3.4071   23.2675   30.5489 H   0  0  0  0  0  0  0  0  0  0  0  0
    4.6278   18.7215   39.5593 H   0  0  0  0  0  0  0  0  0  0  0  0
    4.1937   17.9317   38.0055 H   0  0  0  0  0  0  0  0  0  0  0  0
    4.9258   19.5720   38.0055 H   0  0  0  0  0  0  0  0  0  0  0  0
    0.1045   17.9137   40.7810 H   0  0  0  0  0  0  0  0  0  0  0  0
    0.5238   18.8088   44.2207 H   0  0  0  0  0  0  0  0  0  0  0  0
    5.8696   22.9856   31.7813 H   0  0  0  0  0  0  0  0  0  0  0  0
    6.3116   24.0087   32.8659 H   0  0  0  0  0  0  0  0  0  0  0  0
  1  4  1  0
  3 20  1  0
  3 26  1  0
  3  8  1  0
  4 19  1  0
  5 14  1  0
  5  2  1  0
  7 24  1  0
  7 17  1  0
  7 11  1  0
  8 25  1  0
  9  1  1  0
 10 14  1  0
 11 16  1  0
 12  6  1  0
 13 17  2  0
 15 23  1  0
 16 15  1  0
 17 22  1  0
 18  5  1  0
 18  2  1  0
 18 20  1  0
 19 24  2  3
 21 24  1  0
 22 12  1  0
 22 15  1  0
 25  9  3  0
 26  8  1  0
  1 27  1  0
  1 28  1  0
  2 29  1  0
  2 30  1  0
  3 31  1  0
  4 32  1  0
  4 33  1  0
  5 34  1  0
  6 35  1  0
  6 36  1  0
  6 37  1  0
  7 38  1  0
  8 39  1  0
 10 40  1  0
 10 41  1  0
 10 42  1  0
 11 43  1  0
 11 44  1  0
 14 45  1  0
 14 46  1  0
 15 47  1  0
 16 48  1  0
 16 49  1  0
 18 50  1  0
 19 51  1  0
 20 52  1  0
 20 53  1  0
 21 54  1  0
 21 55  1  0
 21 56  1  0
 22 57  1  0
 23 58  1  0
 26 59  1  0
 26 60  1  0
M  END
>  <mol_id>  (24) 
2026-09-18-3war-s0-n100-0024

>  <rmsd_to_ref>  (24) 


$$$$

     RDKit          3D

 85 87  0  0  0  0  0  0  0  0999 V2000
    3.1070   23.5270   34.9420 C   0  0  0  0  0  0  0  0  0  0  0  0
    1.7790   16.0050   40.7060 C   0  0  0  0  0  0  0  0  0  0  0  0
    3.2390   21.4010   35.5590 C   0  0  0  0  0  0  0  0  0  0  0  0
    0.1430   18.7880   42.8550 C   0  0  0  0  0  0  0  0  0  0  0  0
    2.6350   16.4580   39.6770 C   0  0  0  0  0  0  0  0  0  0  0  0
    3.1310   15.3750   38.6780 C   0  0  0  0  0  0  0  0  0  0  0  0
    3.4120   14.6490   36.4490 O   0  0  0  0  0  0  0  0  0  0  0  0
    2.1510   25.5710   30.9550 C   0  0  0  0  0  0  0  0  0  0  0  0
    2.4950   22.1300   35.5560 C   0  0  0  0  0  0  0  0  0  0  0  0
    3.7480   23.0470   33.6500 C   0  0  0  0  0  0  0  0  0  0  0  0
    4.1450   24.3920   34.4740 C   0  0  0  0  0  0  0  0  0  0  0  0
    6.1540   27.7390   32.2690 C   0  0  0  0  0  0  0  0  0  0  0  0
    1.2580   26.5330   31.2860 C   0  0  0  0  0  0  0  0  0  0  0  0
    3.2200   19.9290   37.8620 O   0  0  0  0  0  0  0  0  0  0  0  0
    5.5110   26.0500   33.2230 S   0  0  0  0  0  0  0  0  0  0  0  0
    4.0010   26.6680   31.7190 C   0  0  0  0  0  0  0  0  0  0  0  0
    3.4830   14.0530   39.0330 C   0  0  0  0  0  0  0  0  0  0  0  0
    1.6680   21.1300   38.9940 C   0  0  0  0  0  0  0  0  0  0  0  0
    4.8800   28.4510   31.8260 S   0  0  0  0  0  0  0  0  0  0  0  0
   -0.1760   19.8260   41.7610 C   0  0  0  0  0  0  0  0  0  0  0  0
    0.3020   17.3750   42.4000 C   0  0  0  0  0  0  0  0  0  0  0  0
    2.2720   11.1800   36.4970 O   0  0  0  0  0  0  0  0  0  0  0  0
    1.2570   17.2570   41.2280 N   0  0  0  0  0  0  0  0  0  0  0  0
    2.9510   12.3370   35.8350 C   0  0  0  0  0  0  0  0  0  0  0  0
    3.5530   26.9890   32.4440 C   0  0  0  0  0  0  0  0  0  0  0  0
    3.8060   13.0480   38.0290 C   0  0  0  0  0  0  0  0  0  0  0  0
    2.1030   21.5430   37.7510 N   0  0  0  0  0  0  0  0  0  0  0  0
    7.2570   28.3200   32.6590 C   0  0  0  0  0  0  0  0  0  0  0  0
    2.6660   17.8920   39.7240 N   0  0  0  0  0  0  0  0  0  0  0  0
    1.3590   26.4690   31.0930 O   0  0  0  0  0  0  0  0  0  0  0  0
    1.0290   20.4560   41.1570 C   0  0  0  0  0  0  0  0  0  0  0  0
    2.2540   12.7280   34.4830 N   0  0  0  0  0  0  0  0  0  0  0  0
    3.3970   25.5290   30.7220 C   0  0  0  0  0  0  0  0  0  0  0  0
    1.3900   28.4300   32.6090 O   0  0  0  0  0  0  0  0  0  0  0  0
    2.7850   20.7750   37.1090 C   0  0  0  0  0  0  0  0  0  0  0  0
    1.5860   20.2950   40.0260 C   0  0  0  0  0  0  0  0  0  0  0  0
    1.3320   14.8610   41.0960 C   0  0  0  0  0  0  0  0  0  0  0  0
    1.9170   27.1510   32.9450 C   0  0  0  0  0  0  0  0  0  0  0  0
    4.3220   26.5840   33.0080 C   0  0  0  0  0  0  0  0  0  0  0  0
    3.4900   13.3230   36.7500 C   0  0  0  0  0  0  0  0  0  0  0  0
    1.8030   18.1360   40.5040 N   0  0  0  0  0  0  0  0  0  0  0  0
    3.2370   15.6780   37.4000 C   0  0  0  0  0  0  0  0  0  0  0  0
    2.4245   24.0204   35.6496 H   0  0  0  0  0  0  0  0  0  0  0  0
    4.2561   21.8196   35.5415 H   0  0  0  0  0  0  0  0  0  0  0  0
    3.2892   20.7039   34.7096 H   0  0  0  0  0  0  0  0  0  0  0  0
    1.0820   19.0912   43.3411 H   0  0  0  0  0  0  0  0  0  0  0  0
   -0.7327   18.7850   43.5207 H   0  0  0  0  0  0  0  0  0  0  0  0
    1.6956   24.5744   31.0519 H   0  0  0  0  0  0  0  0  0  0  0  0
    2.1453   22.3026   36.5846 H   0  0  0  0  0  0  0  0  0  0  0  0
    1.6510   21.7932   34.9361 H   0  0  0  0  0  0  0  0  0  0  0  0
    3.2080   23.1078   32.6936 H   0  0  0  0  0  0  0  0  0  0  0  0
    4.2531   22.1418   33.2819 H   0  0  0  0  0  0  0  0  0  0  0  0
    5.1025   24.4471   35.0126 H   0  0  0  0  0  0  0  0  0  0  0  0
    4.2221   25.4626   34.2335 H   0  0  0  0  0  0  0  0  0  0  0  0
    0.4657   25.7900   31.4600 H   0  0  0  0  0  0  0  0  0  0  0  0
    0.8479   27.3797   30.7160 H   0  0  0  0  0  0  0  0  0  0  0  0
    2.0766   26.0694   30.7160 H   0  0  0  0  0  0  0  0  0  0  0  0
    4.6338   25.8425   31.3611 H   0  0  0  0  0  0  0  0  0  0  0  0
    3.5139   13.7752   40.0969 H   0  0  0  0  0  0  0  0  0  0  0  0
    1.0244   21.9640   39.3105 H   0  0  0  0  0  0  0  0  0  0  0  0
   -0.7416   19.3243   40.9621 H   0  0  0  0  0  0  0  0  0  0  0  0
   -0.7494   20.6315   42.2430 H   0  0  0  0  0  0  0  0  0  0  0  0
    0.6906   16.7748   43.2359 H   0  0  0  0  0  0  0  0  0  0  0  0
   -0.6832   17.0119   42.0720 H   0  0  0  0  0  0  0  0  0  0  0  0
    3.1151   27.9962   32.3823 H   0  0  0  0  0  0  0  0  0  0  0  0
    4.2901   12.0998   38.3059 H   0  0  0  0  0  0  0  0  0  0  0  0
    1.8562   22.4724   37.3820 H   0  0  0  0  0  0  0  0  0  0  0  0
    7.6092   29.2294   32.1502 H   0  0  0  0  0  0  0  0  0  0  0  0
    7.8336   27.8998   33.4962 H   0  0  0  0  0  0  0  0  0  0  0  0
    0.8028   21.5321   41.1856 H   0  0  0  0  0  0  0  0  0  0  0  0
    1.7741   19.9033   41.7481 H   0  0  0  0  0  0  0  0  0  0  0  0
    2.6203   13.5104   33.9222 H   0  0  0  0  0  0  0  0  0  0  0  0
    1.4306   12.2020   34.1571 H   0  0  0  0  0  0  0  0  0  0  0  0
    3.6101   25.7720   29.6705 H   0  0  0  0  0  0  0  0  0  0  0  0
    3.8338   24.5335   30.8896 H   0  0  0  0  0  0  0  0  0  0  0  0
    1.1839   28.9302   33.4381 H   0  0  0  0  0  0  0  0  0  0  0  0
    2.0728   19.3197   39.8787 H   0  0  0  0  0  0  0  0  0  0  0  0
    1.3190   14.8278   42.1954 H   0  0  0  0  0  0  0  0  0  0  0  0
    0.3111   14.7162   40.7127 H   0  0  0  0  0  0  0  0  0  0  0  0
    1.9843   14.0625   40.7127 H   0  0  0  0  0  0  0  0  0  0  0  0
    1.7465   26.8018   33.9741 H   0  0  0  0  0  0  0  0  0  0  0  0
    4.4269   27.4247   33.7096 H   0  0  0  0  0  0  0  0  0  0  0  0
    3.9876   25.5922   32.6695 H   0  0  0  0  0  0  0  0  0  0  0  0
    4.3996   12.9073   36.2920 H   0  0  0  0  0  0  0  0  0  0  0  0
    3.1894   16.7279   37.0754 H   0  0  0  0  0  0  0  0  0  0  0  0
  1  9  1  0
  2 37  1  0
  2 23  1  0
  3 35  1  0
  5 29  1  0
  5  2  2  0
  6 17  1  0
  6  5  1  0
  7 40  1  0
  7 42  1  0
  8 30  2  0
  9  3  1  0
 10 11  1  0
 10  1  1  0
 11  1  1  0
 12 28  2  3
 12 15  1  0
 16 33  1  0
 16 19  1  0
 16 25  1  0
 18 36  2  3
 19 12  1  0
 20  4  1  0
 21  4  1  0
 23 21  1  0
 24 22  2  0
 25 38  1  0
 25 39  1  0
 26 17  2  0
 27 18  1  0
 29 41  2  0
 31 20  1  0
 32 24  1  0
 33  8  1  0
 34 38  1  0
 35 27  1  0
 35 14  2  0
 36 31  1  0
 38 13  1  0
 39 15  1  0
 40 24  1  0
 40 26  1  0
 41 23  1  0
 42  6  2  0
  1 43  1  0
  3 44  1  0
  3 45  1  0
  4 46  1  0
  4 47  1  0
  8 48  1  0
  9 49  1  0
  9 50  1  0
 10 51  1  0
 10 52  1  0
 11 53  1  0
 11 54  1  0
 13 55  1  0
 13 56  1  0
 13 57  1  0
 16 58  1  0
 17 59  1  0
 18 60  1  0
 20 61  1  0
 20 62  1  0
 21 63  1  0
 21 64  1  0
 25 65  1  0
 26 66  1  0
 27 67  1  0
 28 68  1  0
 28 69  1  0
 31 70  1  0
 31 71  1  0
 32 72  1  0
 32 73  1  0
 33 74  1  0
 33 75  1  0
 34 76  1  0
 36 77  1  0
 37 78  1  0
 37 79  1  0
 37 80  1  0
 38 81  1  0
 39 82  1  0
 39 83  1  0
 40 84  1  0
 42 85  1  0
M  END
>  <mol_id>  (25) 
2026-09-18-3war-s0-n100-0025

>  <rmsd_to_ref>  (25) 


$$$$

     RDKit          3D

 48 48  0  0  0  0  0  0  0  0999 V2000
    2.7380   18.1990   40.0950 C   0  0  0  0  0  0  0  0  0  0  0  0
    0.6340   19.2250   41.5460 C   0  0  0  0  0  0  0  0  0  0  0  0
    2.7340   18.9780   38.8530 C   0  0  0  0  0  0  0  0  0  0  0  0
    1.7170   24.9940   33.0160 C   0  0  0  0  0  0  0  0  0  0  0  0
    3.4300   19.6220   38.4020 C   0  0  0  0  0  0  0  0  0  0  0  0
    2.5680   23.9970   32.1950 C   0  0  0  0  0  0  0  0  0  0  0  0
    1.8100   21.3090   38.0570 C   0  0  0  0  0  0  0  0  0  0  0  0
    2.8240   22.6770   34.0860 N   0  0  0  0  0  0  0  0  0  0  0  0
    2.2710   20.2980   38.9880 C   0  0  0  0  0  0  0  0  0  0  0  0
    3.2890   23.0510   32.7900 C   0  0  0  0  0  0  0  0  0  0  0  0
    3.0140   21.0380   35.9630 C   0  0  0  0  0  0  0  0  0  0  0  0
   -0.2250   20.3740   41.7750 C   0  0  0  0  0  0  0  0  0  0  0  0
    2.7190   24.8950   31.0200 C   0  0  0  0  0  0  0  0  0  0  0  0
    3.5750   21.7710   34.8030 C   0  0  0  0  0  0  0  0  0  0  0  0
    2.1510   21.3760   36.8750 C   0  0  0  0  0  0  0  0  0  0  0  0
    1.6560   25.8130   31.6920 C   0  0  0  0  0  0  0  0  0  0  0  0
    1.7000   18.7730   40.9860 C   0  0  0  0  0  0  0  0  0  0  0  0
    3.7247   18.2655   40.5766 H   0  0  0  0  0  0  0  0  0  0  0  0
    2.5273   17.1394   39.8879 H   0  0  0  0  0  0  0  0  0  0  0  0
    0.8439   18.9446   42.5887 H   0  0  0  0  0  0  0  0  0  0  0  0
    0.0569   18.9763   40.6431 H   0  0  0  0  0  0  0  0  0  0  0  0
    2.4237   18.0352   38.3788 H   0  0  0  0  0  0  0  0  0  0  0  0
    0.7516   24.6047   33.3716 H   0  0  0  0  0  0  0  0  0  0  0  0
    2.0489   25.4221   33.9734 H   0  0  0  0  0  0  0  0  0  0  0  0
    4.0000   20.1494   39.1811 H   0  0  0  0  0  0  0  0  0  0  0  0
    4.1195   19.0364   37.7762 H   0  0  0  0  0  0  0  0  0  0  0  0
    2.8996   20.3549   37.7762 H   0  0  0  0  0  0  0  0  0  0  0  0
    2.3897   22.9723   31.8369 H   0  0  0  0  0  0  0  0  0  0  0  0
    0.7136   21.2213   38.0441 H   0  0  0  0  0  0  0  0  0  0  0  0
    2.3068   22.2023   38.4635 H   0  0  0  0  0  0  0  0  0  0  0  0
    1.4209   20.1919   39.6779 H   0  0  0  0  0  0  0  0  0  0  0  0
    3.2674   20.7407   39.1334 H   0  0  0  0  0  0  0  0  0  0  0  0
    3.2768   22.1566   32.1498 H   0  0  0  0  0  0  0  0  0  0  0  0
    4.2972   23.4684   32.9289 H   0  0  0  0  0  0  0  0  0  0  0  0
    3.9044   20.7547   36.5435 H   0  0  0  0  0  0  0  0  0  0  0  0
    2.3350   20.3944   35.3844 H   0  0  0  0  0  0  0  0  0  0  0  0
   -0.3439   20.5331   42.8569 H   0  0  0  0  0  0  0  0  0  0  0  0
    0.2286   21.2673   41.3207 H   0  0  0  0  0  0  0  0  0  0  0  0
   -1.2101   20.1917   41.3207 H   0  0  0  0  0  0  0  0  0  0  0  0
    2.4083   24.4554   30.0607 H   0  0  0  0  0  0  0  0  0  0  0  0
    3.6996   25.2757   30.6983 H   0  0  0  0  0  0  0  0  0  0  0  0
    4.6182   21.5868   34.5068 H   0  0  0  0  0  0  0  0  0  0  0  0
    2.1926   22.4695   36.7632 H   0  0  0  0  0  0  0  0  0  0  0  0
    1.5789   20.4604   36.6644 H   0  0  0  0  0  0  0  0  0  0  0  0
    1.9809   26.8580   31.8030 H   0  0  0  0  0  0  0  0  0  0  0  0
    0.6863   25.9705   31.1971 H   0  0  0  0  0  0  0  0  0  0  0  0
    1.9046   18.0586   41.7970 H   0  0  0  0  0  0  0  0  0  0  0  0
    1.6300   19.6155   40.2822 H   0  0  0  0  0  0  0  0  0  0  0  0
  1 17  1  0
  2 12  1  0
  3  5  1  0
  3  9  1  0
  3  1  1  0
  6 10  1  0
  6  4  1  0
  7  9  1  0
  8 14  2  3
 10  8  1  0
 11 15  1  0
 13 16  1  0
 13  6  1  0
 14 11  1  0
 15  7  1  0
 16  4  1  0
 17  2  1  0
  1 18  1  0
  1 19  1  0
  2 20  1  0
  2 21  1  0
  3 22  1  0
  4 23  1  0
  4 24  1  0
  5 25  1  0
  5 26  1  0
  5 27  1  0
  6 28  1  0
  7 29  1  0
  7 30  1  0
  9 31  1  0
  9 32  1  0
 10 33  1  0
 10 34  1  0
 11 35  1  0
 11 36  1  0
 12 37  1  0
 12 38  1  0
 12 39  1  0
 13 40  1  0
 13 41  1  0
 14 42  1  0
 15 43  1  0
 15 44  1  0
 16 45  1  0
 16 46  1  0
 17 47  1  0
 17 48  1  0
M  END
>  <mol_id>  (26) 
2026-09-18-3war-s0-n100-0026

>  <rmsd_to_ref>  (26) 


$$$$

     RDKit          3D

 40 40  0  0  0  0  0  0  0  0999 V2000
    3.6490   22.3910   34.2630 C   0  0  0  0  0  0  0  0  0  0  0  0
    3.8980   24.9750   30.2300 C   0  0  0  0  0  0  0  0  0  0  0  0
    2.4010   17.9650   38.0390 C   0  0  0  0  0  0  0  0  0  0  0  0
    2.9640   17.4900   40.4140 C   0  0  0  0  0  0  0  0  0  0  0  0
    2.1860   19.9460   37.1510 O   0  0  0  0  0  0  0  0  0  0  0  0
    4.4740   23.9920   32.5600 C   0  0  0  0  0  0  0  0  0  0  0  0
    3.0950   20.0060   39.6760 C   0  0  0  0  0  0  0  0  0  0  0  0
    2.4970   21.1480   36.5630 C   0  0  0  0  0  0  0  0  0  0  0  0
    2.4880   19.3850   38.3900 C   0  0  0  0  0  0  0  0  0  0  0  0
    3.7320   24.1930   31.5310 C   0  0  0  0  0  0  0  0  0  0  0  0
    3.6190   18.7960   40.5640 C   0  0  0  0  0  0  0  0  0  0  0  0
    1.4820   22.1320   37.7390 C   0  0  0  0  0  0  0  0  0  0  0  0
    3.1890   21.3730   35.3570 S   0  0  0  0  0  4  0  0  0  0  0  0
    2.8580   26.1870   30.2080 C   0  0  0  0  0  0  0  0  0  0  0  0
    2.5570   16.9750   39.0890 C   0  0  0  0  0  0  0  0  0  0  0  0
    4.2620   22.9610   33.4540 C   0  0  0  0  0  0  0  0  0  0  0  0
    2.7752   22.2275   33.6151 H   0  0  0  0  0  0  0  0  0  0  0  0
    4.3612   22.7839   35.0035 H   0  0  0  0  0  0  0  0  0  0  0  0
    4.9231   25.3689   30.1660 H   0  0  0  0  0  0  0  0  0  0  0  0
    3.7091   24.3110   29.3736 H   0  0  0  0  0  0  0  0  0  0  0  0
    2.2208   17.6550   36.9991 H   0  0  0  0  0  0  0  0  0  0  0  0
    3.6556   16.7462   40.8365 H   0  0  0  0  0  0  0  0  0  0  0  0
    1.9961   17.6538   40.9103 H   0  0  0  0  0  0  0  0  0  0  0  0
    5.3188   24.6737   32.7376 H   0  0  0  0  0  0  0  0  0  0  0  0
    2.3267   20.5725   40.2226 H   0  0  0  0  0  0  0  0  0  0  0  0
    3.9121   20.7009   39.4322 H   0  0  0  0  0  0  0  0  0  0  0  0
    2.1383   19.8903   39.3023 H   0  0  0  0  0  0  0  0  0  0  0  0
    2.7574   23.6881   31.6032 H   0  0  0  0  0  0  0  0  0  0  0  0
    3.5132   19.0948   41.6173 H   0  0  0  0  0  0  0  0  0  0  0  0
    4.6479   18.6266   40.2136 H   0  0  0  0  0  0  0  0  0  0  0  0
    1.7558   21.8665   38.7708 H   0  0  0  0  0  0  0  0  0  0  0  0
    1.6667   23.2039   37.5748 H   0  0  0  0  0  0  0  0  0  0  0  0
    0.4164   21.9142   37.5748 H   0  0  0  0  0  0  0  0  0  0  0  0
    3.6781   20.1537   34.9685 H   0  0  0  0  0  0  0  0  0  0  0  0
    2.6099   26.4761   31.2399 H   0  0  0  0  0  0  0  0  0  0  0  0
    3.3055   27.0447   29.6845 H   0  0  0  0  0  0  0  0  0  0  0  0
    1.9423   25.8749   29.6845 H   0  0  0  0  0  0  0  0  0  0  0  0
    2.3826   15.9039   38.9095 H   0  0  0  0  0  0  0  0  0  0  0  0
    4.3734   22.1285   32.7437 H   0  0  0  0  0  0  0  0  0  0  0  0
    4.6241   23.6271   34.2510 H   0  0  0  0  0  0  0  0  0  0  0  0
  1 13  1  0
  2 10  1  0
  3  9  1  0
  3 15  2  0
  4 11  1  0
  6 16  1  0
  7 11  1  0
  8  5  1  0
  8 12  1  0
  9  5  1  0
  9  7  1  0
 10  6  2  3
 13  8  2  3
 14  2  1  0
 15  4  1  0
 16  1  1  0
  1 17  1  0
  1 18  1  0
  2 19  1  0
  2 20  1  0
  3 21  1  0
  4 22  1  0
  4 23  1  0
  6 24  1  0
  7 25  1  0
  7 26  1  0
  9 27  1  0
 10 28  1  0
 11 29  1  0
 11 30  1  0
 12 31  1  0
 12 32  1  0
 12 33  1  0
 13 34  1  0
 14 35  1  0
 14 36  1  0
 14 37  1  0
 15 38  1  0
 16 39  1  0
 16 40  1  0
M  END
>  <mol_id>  (27) 
2026-09-18-3war-s0-n100-0027

>  <rmsd_to_ref>  (27) 


$$$$

     RDKit          3D

 70 72  0  0  0  0  0  0  0  0999 V2000
   -1.0760   20.1480   44.1220 N   0  0  0  0  0  0  0  0  0  0  0  0
    4.0080   25.7890   28.5700 S   0  0  0  0  0  4  0  0  0  0  0  0
    1.6710   19.0240   40.5560 N   0  0  0  0  0  0  0  0  0  0  0  0
    2.2320   21.4320   36.6020 C   0  0  0  0  0  0  0  0  0  0  0  0
    3.1640   21.7800   34.1430 C   0  0  0  0  0  0  0  0  0  0  0  0
    3.8710   25.2890   31.3950 O   0  0  0  0  0  0  0  0  0  0  0  0
    3.2360   18.8660   38.7890 C   0  0  0  0  0  0  0  0  0  0  0  0
    2.8780   19.4190   40.0820 N   0  0  0  0  0  0  0  0  0  0  0  0
    1.5210   17.7870   41.0570 C   0  0  0  0  0  0  0  0  0  0  0  0
   -0.6470   17.7200   44.8270 C   0  0  0  0  0  0  0  0  0  0  0  0
   -0.0010   18.9290   42.5100 C   0  0  0  0  0  0  0  0  0  0  0  0
   -0.6610   18.8980   43.8170 C   0  0  0  0  0  0  0  0  0  0  0  0
    3.3680   19.3950   37.0860 O   0  0  0  0  0  0  0  0  0  0  0  0
    0.6310   17.6970   42.1420 N   0  0  0  0  0  0  0  0  0  0  0  0
    3.4580   22.8250   31.9440 C   0  0  0  0  0  0  0  0  0  0  0  0
    1.6870   26.3220   30.5940 S   0  0  0  0  0  4  0  0  0  0  0  0
    3.1370   21.2570   35.6940 C   0  0  0  0  0  0  0  0  0  0  0  0
    3.4920   20.2610   37.9020 C   0  0  0  0  0  0  0  0  0  0  0  0
    3.8270   16.5290   37.6010 C   0  0  0  0  0  0  0  0  0  0  0  0
    3.4120   24.4880   29.3840 C   0  0  0  0  0  0  0  0  0  0  0  0
   -0.8650   20.8840   42.9530 C   0  0  0  0  0  0  0  0  0  0  0  0
    2.9760   23.2950   32.6480 C   0  0  0  0  0  0  0  0  0  0  0  0
    3.1520   24.3260   31.6600 C   0  0  0  0  0  0  0  0  0  0  0  0
    3.0520   25.1570   30.6330 C   0  0  0  0  0  0  0  0  0  0  0  0
    2.1930   21.1480   38.1560 C   0  0  0  0  0  0  0  0  0  0  0  0
    5.7260   25.6510   28.6720 C   0  0  0  0  0  0  0  0  0  0  0  0
    2.5530   22.9540   33.8760 C   0  0  0  0  0  0  0  0  0  0  0  0
    1.5230   27.3180   31.7980 C   0  0  0  0  0  0  0  0  0  0  0  0
   -0.1960   20.2360   41.8690 C   0  0  0  0  0  0  0  0  0  0  0  0
    3.0080   27.0070   29.3250 C   0  0  0  0  0  0  0  0  0  0  0  0
    1.8630   16.8690   40.4130 O   0  0  0  0  0  0  0  0  0  0  0  0
    4.0860   17.4520   38.5570 C   0  0  0  0  0  0  0  0  0  0  0  0
    3.9250   26.0256   27.2231 H   0  0  0  0  0  0  0  0  0  0  0  0
    0.8703   19.6715   40.5320 H   0  0  0  0  0  0  0  0  0  0  0  0
    1.2997   21.8672   36.2129 H   0  0  0  0  0  0  0  0  0  0  0  0
    4.2184   21.8810   33.8464 H   0  0  0  0  0  0  0  0  0  0  0  0
    2.5906   21.0282   33.5808 H   0  0  0  0  0  0  0  0  0  0  0  0
    2.4689   18.1914   38.3810 H   0  0  0  0  0  0  0  0  0  0  0  0
    3.5976   19.1350   40.7620 H   0  0  0  0  0  0  0  0  0  0  0  0
   -0.6517   18.1166   45.8530 H   0  0  0  0  0  0  0  0  0  0  0  0
   -1.5378   17.0935   44.6720 H   0  0  0  0  0  0  0  0  0  0  0  0
    0.2584   17.1148   44.6720 H   0  0  0  0  0  0  0  0  0  0  0  0
   -1.3561   18.0486   43.8897 H   0  0  0  0  0  0  0  0  0  0  0  0
    3.2436   18.5259   37.5435 H   0  0  0  0  0  0  0  0  0  0  0  0
    0.4472   16.8117   42.6352 H   0  0  0  0  0  0  0  0  0  0  0  0
    3.6924   23.3391   31.0002 H   0  0  0  0  0  0  0  0  0  0  0  0
    3.7679   21.7801   32.0928 H   0  0  0  0  0  0  0  0  0  0  0  0
    0.3652   25.9893   30.4559 H   0  0  0  0  0  0  0  0  0  0  0  0
    4.0141   20.6730   36.0095 H   0  0  0  0  0  0  0  0  0  0  0  0
    4.2959   21.0118   37.8963 H   0  0  0  0  0  0  0  0  0  0  0  0
    4.4476   15.6237   37.5280 H   0  0  0  0  0  0  0  0  0  0  0  0
    2.9960   16.6844   36.8973 H   0  0  0  0  0  0  0  0  0  0  0  0
    2.5368   24.0506   28.8814 H   0  0  0  0  0  0  0  0  0  0  0  0
    4.0963   23.6323   29.4816 H   0  0  0  0  0  0  0  0  0  0  0  0
   -1.2027   21.9276   42.8699 H   0  0  0  0  0  0  0  0  0  0  0  0
    3.8254   23.6670   31.0923 H   0  0  0  0  0  0  0  0  0  0  0  0
    2.3485   22.0298   38.7949 H   0  0  0  0  0  0  0  0  0  0  0  0
    1.2994   20.7613   38.6678 H   0  0  0  0  0  0  0  0  0  0  0  0
    6.0298   25.6266   29.7289 H   0  0  0  0  0  0  0  0  0  0  0  0
    6.0495   24.7240   28.1760 H   0  0  0  0  0  0  0  0  0  0  0  0
    6.1933   26.5145   28.1760 H   0  0  0  0  0  0  0  0  0  0  0  0
    2.8453   23.7179   34.6115 H   0  0  0  0  0  0  0  0  0  0  0  0
    1.4574   22.8703   33.9270 H   0  0  0  0  0  0  0  0  0  0  0  0
    1.6138   26.7663   32.7453 H   0  0  0  0  0  0  0  0  0  0  0  0
    2.3064   28.0885   31.7458 H   0  0  0  0  0  0  0  0  0  0  0  0
    0.5340   27.7966   31.7458 H   0  0  0  0  0  0  0  0  0  0  0  0
    0.0844   20.6009   40.8699 H   0  0  0  0  0  0  0  0  0  0  0  0
    3.6672   27.7048   29.8621 H   0  0  0  0  0  0  0  0  0  0  0  0
    2.4371   27.4822   28.5136 H   0  0  0  0  0  0  0  0  0  0  0  0
    4.9273   17.2518   39.2368 H   0  0  0  0  0  0  0  0  0  0  0  0
  2 26  1  0
  2 30  1  0
  2 20  1  0
  3  9  1  0
  4 25  1  0
  5 17  1  0
  6 23  1  0
  7 32  1  0
  7  8  1  0
  8  3  1  0
  9 14  1  0
 11 12  1  0
 12  1  1  0
 12 10  1  0
 14 11  1  0
 15 22  2  3
 16 24  1  0
 16 28  1  0
 17  4  2  3
 18 13  1  0
 18 25  1  0
 18  7  1  0
 19 32  2  3
 21  1  2  0
 22 27  1  0
 23 22  1  0
 24 20  1  0
 24  6  1  0
 24 23  1  0
 27  5  1  0
 29 11  2  0
 29 21  1  0
 30 16  1  0
 31  9  2  0
  2 33  1  0
  3 34  1  0
  4 35  1  0
  5 36  1  0
  5 37  1  0
  7 38  1  0
  8 39  1  0
 10 40  1  0
 10 41  1  0
 10 42  1  0
 12 43  1  0
 13 44  1  0
 14 45  1  0
 15 46  1  0
 15 47  1  0
 16 48  1  0
 17 49  1  0
 18 50  1  0
 19 51  1  0
 19 52  1  0
 20 53  1  0
 20 54  1  0
 21 55  1  0
 23 56  1  0
 25 57  1  0
 25 58  1  0
 26 59  1  0
 26 60  1  0
 26 61  1  0
 27 62  1  0
 27 63  1  0
 28 64  1  0
 28 65  1  0
 28 66  1  0
 29 67  1  0
 30 68  1  0
 30 69  1  0
 32 70  1  0
M  END
>  <mol_id>  (28) 
2026-09-18-3war-s0-n100-0028

>  <rmsd_to_ref>  (28) 


$$$$

     RDKit          3D

 70 72  0  0  0  0  0  0  0  0999 V2000
    3.6130   13.1560   37.8930 O   0  0  0  0  0  0  0  0  0  0  0  0
    2.9650   25.0780   29.6870 C   0  0  0  0  0  0  0  0  0  0  0  0
    3.5100   20.1770   36.3620 C   0  0  0  0  0  0  0  0  0  0  0  0
    2.3920   20.2430   38.5900 C   0  0  0  0  0  0  0  0  0  0  0  0
    1.9110   16.7870   41.0100 O   0  0  0  0  0  0  0  0  0  0  0  0
    3.6290   18.7150   37.1340 C   0  0  0  0  0  0  0  0  0  0  0  0
    1.8170   25.9950   32.0300 C   0  0  0  0  0  0  0  0  0  0  0  0
    4.8730   15.2050   36.7420 O   0  0  0  0  0  0  0  0  0  0  0  0
    2.9250   17.9270   39.2890 C   0  0  0  0  0  0  0  0  0  0  0  0
    2.9920   19.1360   38.3230 C   0  0  0  0  0  0  0  0  0  0  0  0
    1.8510   25.3330   30.6000 C   0  0  0  0  0  0  0  0  0  0  0  0
    1.7400   20.9200   39.6860 C   0  0  0  0  0  0  0  0  0  0  0  0
    2.1120   17.9170   40.4480 C   0  0  0  0  0  0  0  0  0  0  0  0
    2.0980   21.9580   35.1350 O   0  0  0  0  0  0  0  0  0  0  0  0
    3.6430   16.8970   38.9170 O   0  0  0  0  0  0  0  0  0  0  0  0
    5.3250   24.5100   29.1300 S   0  0  0  0  0  0  0  0  0  0  0  0
    0.7870   26.1470   32.9970 C   0  0  0  0  0  0  0  0  0  0  0  0
    1.6750   19.0340   41.2830 N   0  0  0  0  0  0  0  0  0  0  0  0
    4.0210   24.4590   30.2560 C   0  0  0  0  0  0  0  0  0  0  0  0
    3.5580   14.6430   37.4020 P   0  0  0  0  0  5  0  0  0  0  0  0
    2.8760   24.8910   28.2190 C   0  0  0  0  0  0  0  0  0  0  0  0
    0.8300   21.1820   41.9150 C   0  0  0  0  0  0  0  0  0  0  0  0
    2.3540   14.7430   36.5880 O   0  0  0  0  0  0  0  0  0  0  0  0
    2.3650   24.5570   31.8880 C   0  0  0  0  0  0  0  0  0  0  0  0
    1.4170   20.3170   40.9890 C   0  0  0  0  0  0  0  0  0  0  0  0
    2.7840   23.6700   34.2420 C   0  0  0  0  0  0  0  0  0  0  0  0
   -0.4480   19.9620   42.2320 C   0  0  0  0  0  0  0  0  0  0  0  0
    1.9160   23.4240   32.9800 C   0  0  0  0  0  0  0  0  0  0  0  0
    2.5940   20.8100   37.2950 C   0  0  0  0  0  0  0  0  0  0  0  0
    4.2770   24.6320   27.8280 C   0  0  0  0  0  0  0  0  0  0  0  0
    3.0040   22.3880   34.7670 C   0  0  0  0  0  0  0  0  0  0  0  0
    3.5350   15.5480   38.8660 C   0  0  0  0  0  0  0  0  0  0  0  0
    3.6138   13.1351   38.8828 H   0  0  0  0  0  0  0  0  0  0  0  0
    3.0689   26.1632   29.5402 H   0  0  0  0  0  0  0  0  0  0  0  0
    4.4761   20.6997   36.3039 H   0  0  0  0  0  0  0  0  0  0  0  0
    3.1913   20.1481   35.3096 H   0  0  0  0  0  0  0  0  0  0  0  0
    3.0810   17.9135   36.6170 H   0  0  0  0  0  0  0  0  0  0  0  0
    4.6315   18.2718   37.2266 H   0  0  0  0  0  0  0  0  0  0  0  0
    2.1054   27.0233   32.2935 H   0  0  0  0  0  0  0  0  0  0  0  0
    5.5082   15.4765   37.4512 H   0  0  0  0  0  0  0  0  0  0  0  0
    2.0796   17.5530   38.6928 H   0  0  0  0  0  0  0  0  0  0  0  0
    1.0936   25.5058   29.8212 H   0  0  0  0  0  0  0  0  0  0  0  0
    2.3794   21.7851   39.9158 H   0  0  0  0  0  0  0  0  0  0  0  0
    0.7285   21.0346   39.2691 H   0  0  0  0  0  0  0  0  0  0  0  0
    2.1086   21.9630   36.1249 H   0  0  0  0  0  0  0  0  0  0  0  0
    1.2194   26.0832   34.0064 H   0  0  0  0  0  0  0  0  0  0  0  0
    0.3032   27.1263   32.8666 H   0  0  0  0  0  0  0  0  0  0  0  0
    0.0410   25.3492   32.8666 H   0  0  0  0  0  0  0  0  0  0  0  0
    4.3054   24.9786   31.1829 H   0  0  0  0  0  0  0  0  0  0  0  0
    3.7688   23.4183   30.5076 H   0  0  0  0  0  0  0  0  0  0  0  0
    2.2316   24.0355   27.9684 H   0  0  0  0  0  0  0  0  0  0  0  0
    2.4349   25.7544   27.6994 H   0  0  0  0  0  0  0  0  0  0  0  0
    0.4577   22.1214   41.4803 H   0  0  0  0  0  0  0  0  0  0  0  0
    1.4217   21.5999   42.7428 H   0  0  0  0  0  0  0  0  0  0  0  0
    3.2388   23.8905   31.9351 H   0  0  0  0  0  0  0  0  0  0  0  0
    2.2482   24.3010   34.9664 H   0  0  0  0  0  0  0  0  0  0  0  0
    3.7220   24.1960   34.0108 H   0  0  0  0  0  0  0  0  0  0  0  0
   -0.5766   19.8393   43.3175 H   0  0  0  0  0  0  0  0  0  0  0  0
   -1.3955   20.2992   41.7864 H   0  0  0  0  0  0  0  0  0  0  0  0
   -0.1551   18.9999   41.7864 H   0  0  0  0  0  0  0  0  0  0  0  0
    0.8489   23.5319   33.2244 H   0  0  0  0  0  0  0  0  0  0  0  0
    2.0618   22.4076   32.5855 H   0  0  0  0  0  0  0  0  0  0  0  0
    2.9575   21.8365   37.4505 H   0  0  0  0  0  0  0  0  0  0  0  0
    1.6142   20.6900   36.8097 H   0  0  0  0  0  0  0  0  0  0  0  0
    4.3119   23.6883   27.2638 H   0  0  0  0  0  0  0  0  0  0  0  0
    4.6083   25.4913   27.2265 H   0  0  0  0  0  0  0  0  0  0  0  0
    3.4115   21.7419   33.9755 H   0  0  0  0  0  0  0  0  0  0  0  0
    3.7127   22.4728   35.6040 H   0  0  0  0  0  0  0  0  0  0  0  0
    2.5792   15.3052   39.3534 H   0  0  0  0  0  0  0  0  0  0  0  0
    4.4885   15.2411   39.3205 H   0  0  0  0  0  0  0  0  0  0  0  0
  2 21  1  0
  2 19  1  0
  3  6  1  0
  3 29  1  0
  4 12  1  0
  6 10  1  0
  7 17  1  0
  8 20  1  0
  9 15  1  0
  9 13  1  0
 10  4  2  0
 10  9  1  0
 11  2  1  0
 11 24  1  0
 11  7  1  0
 12 25  1  0
 13  5  2  0
 13 18  1  0
 16 19  1  0
 20  1  1  0
 20 32  1  0
 22 27  1  0
 23 20  2  0
 24  7  1  0
 24 28  1  0
 25 18  2  0
 25 22  1  0
 26 31  1  0
 28 26  1  0
 29  4  1  0
 30 21  1  0
 30 16  1  0
 31 14  1  0
 32 15  1  0
  1 33  1  0
  2 34  1  0
  3 35  1  0
  3 36  1  0
  6 37  1  0
  6 38  1  0
  7 39  1  0
  8 40  1  0
  9 41  1  0
 11 42  1  0
 12 43  1  0
 12 44  1  0
 14 45  1  0
 17 46  1  0
 17 47  1  0
 17 48  1  0
 19 49  1  0
 19 50  1  0
 21 51  1  0
 21 52  1  0
 22 53  1  0
 22 54  1  0
 24 55  1  0
 26 56  1  0
 26 57  1  0
 27 58  1  0
 27 59  1  0
 27 60  1  0
 28 61  1  0
 28 62  1  0
 29 63  1  0
 29 64  1  0
 30 65  1  0
 30 66  1  0
 31 67  1  0
 31 68  1  0
 32 69  1  0
 32 70  1  0
M  END
>  <mol_id>  (29) 
2026-09-18-3war-s0-n100-0029

>  <rmsd_to_ref>  (29) 


$$$$

     RDKit          3D

 66 68  0  0  0  0  0  0  0  0999 V2000
    0.6340   27.1510   32.5500 O   0  0  0  0  0  0  0  0  0  0  0  0
    5.3960   23.3880   30.8860 C   0  0  0  0  0  0  0  0  0  0  0  0
    2.5860   26.2420   32.6500 C   0  0  0  0  0  0  0  0  0  0  0  0
    2.5940   24.8020   32.5960 C   0  0  0  0  0  0  0  0  0  0  0  0
    2.8330   15.3150   39.8070 O   0  0  0  0  0  0  0  0  0  0  0  0
    4.3040   20.3700   35.2660 C   0  0  0  0  0  0  0  0  0  0  0  0
    3.0870   20.0570   37.6430 C   0  0  0  0  0  0  0  0  0  0  0  0
    3.9930   22.9300   32.5530 N   0  0  0  0  0  4  0  0  0  0  0  0
    1.2590   15.5270   40.7070 S   0  0  0  0  0  4  0  0  0  0  0  0
    2.4080   17.8600   40.6150 N   0  0  0  0  0  0  0  0  0  0  0  0
    3.9090   18.3440   36.5850 O   0  0  0  0  0  0  0  0  0  0  0  0
    3.5560   19.8260   40.4890 O   0  0  0  0  0  0  0  0  0  0  0  0
    1.4990   26.7930   31.7630 C   0  0  0  0  0  0  0  0  0  0  0  0
    2.9360   25.1090   29.6510 O   0  0  0  0  0  0  0  0  0  0  0  0
    3.9920   25.6310   31.9540 S   0  0  0  0  0  4  0  0  0  0  0  0
   -0.6440   17.5940   43.7720 C   0  0  0  0  0  0  0  0  0  0  0  0
    3.2910   19.0100   38.4830 C   0  0  0  0  0  0  0  0  0  0  0  0
    1.4660   26.4940   30.5110 N   0  0  0  0  0  0  0  0  0  0  0  0
    1.6770   22.1490   37.6240 C   0  0  0  0  0  0  0  0  0  0  0  0
    0.8910   18.9080   42.0560 C   0  0  0  0  0  0  0  0  0  0  0  0
    1.6530   25.6550   28.0980 C   0  0  0  0  0  0  0  0  0  0  0  0
    3.2610   22.7910   33.6040 C   0  0  0  0  0  0  0  0  0  0  0  0
    1.8590   25.6480   29.5230 C   0  0  0  0  0  0  0  0  0  0  0  0
    2.3300   21.3460   37.7290 C   0  0  0  0  0  0  0  0  0  0  0  0
    0.0580   16.7340   43.0180 C   0  0  0  0  0  0  0  0  0  0  0  0
    3.7020   17.8330   37.8700 N   0  0  0  0  0  0  0  0  0  0  0  0
    0.1060   19.5970   42.8470 N   0  0  0  0  0  0  0  0  0  0  0  0
   -0.6440   18.9550   43.6470 C   0  0  0  0  0  0  0  0  0  0  0  0
    3.0310   18.9200   39.9950 C   0  0  0  0  0  0  0  0  0  0  0  0
    0.8570   16.6840   41.8650 C   0  0  0  0  0  0  0  0  0  0  0  0
    2.8260   24.1600   33.7610 C   0  0  0  0  0  0  0  0  0  0  0  0
    1.4530   17.8270   41.6120 C   0  0  0  0  0  0  0  0  0  0  0  0
    4.6800   24.0770   32.1980 C   0  0  0  0  0  0  0  0  0  0  0  0
    3.7910   19.7090   36.4780 C   0  0  0  0  0  0  0  0  0  0  0  0
    6.1512   22.6612   31.2199 H   0  0  0  0  0  0  0  0  0  0  0  0
    4.6349   22.8740   30.2806 H   0  0  0  0  0  0  0  0  0  0  0  0
    5.8804   24.1683   30.2806 H   0  0  0  0  0  0  0  0  0  0  0  0
    2.4950   27.0007   33.4412 H   0  0  0  0  0  0  0  0  0  0  0  0
    1.8797   24.0641   32.2021 H   0  0  0  0  0  0  0  0  0  0  0  0
    4.9550   21.2088   35.5535 H   0  0  0  0  0  0  0  0  0  0  0  0
    4.8796   19.6468   34.6697 H   0  0  0  0  0  0  0  0  0  0  0  0
    3.4606   20.7481   34.6697 H   0  0  0  0  0  0  0  0  0  0  0  0
    3.9809   20.5550   38.0467 H   0  0  0  0  0  0  0  0  0  0  0  0
    4.7098   22.1935   32.6212 H   0  0  0  0  0  0  0  0  0  0  0  0
    3.2653   22.9228   31.8241 H   0  0  0  0  0  0  0  0  0  0  0  0
    0.3198   15.6865   39.7224 H   0  0  0  0  0  0  0  0  0  0  0  0
    2.7051   16.9333   40.2775 H   0  0  0  0  0  0  0  0  0  0  0  0
    4.9079   26.3853   31.2692 H   0  0  0  0  0  0  0  0  0  0  0  0
   -1.2770   17.1645   44.5625 H   0  0  0  0  0  0  0  0  0  0  0  0
    4.3126   19.3671   38.6799 H   0  0  0  0  0  0  0  0  0  0  0  0
    0.8851   27.2143   30.0586 H   0  0  0  0  0  0  0  0  0  0  0  0
    0.9865   22.9981   37.5130 H   0  0  0  0  0  0  0  0  0  0  0  0
    1.3088   19.6837   41.3973 H   0  0  0  0  0  0  0  0  0  0  0  0
    0.5747   25.6916   27.8836 H   0  0  0  0  0  0  0  0  0  0  0  0
    2.1440   26.5370   27.6609 H   0  0  0  0  0  0  0  0  0  0  0  0
    2.0829   24.7417   27.6609 H   0  0  0  0  0  0  0  0  0  0  0  0
    2.4167   22.1075   33.4308 H   0  0  0  0  0  0  0  0  0  0  0  0
    3.7664   22.3527   34.4772 H   0  0  0  0  0  0  0  0  0  0  0  0
   -0.0188   15.7255   43.4505 H   0  0  0  0  0  0  0  0  0  0  0  0
    2.9708   17.1078   37.8882 H   0  0  0  0  0  0  0  0  0  0  0  0
   -0.4140   19.3459   44.6491 H   0  0  0  0  0  0  0  0  0  0  0  0
   -1.6293   19.1216   43.1873 H   0  0  0  0  0  0  0  0  0  0  0  0
    3.6057   24.7095   34.3089 H   0  0  0  0  0  0  0  0  0  0  0  0
    1.8686   24.1285   34.3018 H   0  0  0  0  0  0  0  0  0  0  0  0
    5.2496   24.4992   33.0390 H   0  0  0  0  0  0  0  0  0  0  0  0
    2.8099   19.5864   35.9959 H   0  0  0  0  0  0  0  0  0  0  0  0
  2 33  1  0
  3 13  1  0
  4  3  1  0
  4 31  1  0
  5  9  2  0
  6 34  1  0
  7 24  1  0
  7 17  1  0
  8 22  1  0
  9 30  1  0
 10 32  1  0
 11 26  1  0
 13  1  2  0
 15 33  1  0
 15  4  1  0
 15  3  1  0
 17 29  1  0
 18 13  1  0
 19 24  3  0
 20 27  2  0
 21 23  1  0
 22 31  1  0
 23 14  2  0
 23 18  1  0
 25 16  2  0
 26 17  1  0
 27 28  1  0
 28 16  1  0
 29 12  2  0
 29 10  1  0
 30 25  1  0
 32 30  2  0
 32 20  1  0
 33  8  1  0
 34 11  1  0
 34  7  1  0
  2 35  1  0
  2 36  1  0
  2 37  1  0
  3 38  1  0
  4 39  1  0
  6 40  1  0
  6 41  1  0
  6 42  1  0
  7 43  1  0
  8 44  1  0
  8 45  1  0
  9 46  1  0
 10 47  1  0
 15 48  1  0
 16 49  1  0
 17 50  1  0
 18 51  1  0
 19 52  1  0
 20 53  1  0
 21 54  1  0
 21 55  1  0
 21 56  1  0
 22 57  1  0
 22 58  1  0
 25 59  1  0
 26 60  1  0
 28 61  1  0
 28 62  1  0
 31 63  1  0
 31 64  1  0
 33 65  1  0
 34 66  1  0
M  CHG  1   8   1
M  END
>  <mol_id>  (30) 
2026-09-18-3war-s0-n100-0030

>  <rmsd_to_ref>  (30) 


$$$$

     RDKit          3D

 25 25  0  0  0  0  0  0  0  0999 V2000
    2.0260   20.7870   38.2620 C   0  0  0  0  0  0  0  0  0  0  0  0
    3.5720   22.6830   33.6270 C   0  0  0  0  0  0  0  0  0  0  0  0
    2.4040   22.2190   34.6060 C   0  0  0  0  0  0  0  0  0  0  0  0
    2.8400   20.2690   37.0540 C   0  0  0  0  0  0  0  0  0  0  0  0
    1.8790   23.4610   35.3620 C   0  0  0  0  0  0  0  0  0  0  0  0
    2.8290   21.1070   35.6290 N   0  0  0  0  0  0  0  0  0  0  0  0
    1.5740   20.6380   40.6240 C   0  0  0  0  0  0  0  0  0  0  0  0
    3.7460   18.3940   38.5650 C   0  0  0  0  0  0  0  0  0  0  0  0
    1.0540   21.0710   41.6190 N   0  0  0  0  0  0  0  0  0  0  0  0
    2.1660   20.0350   39.6070 C   0  0  0  0  0  0  0  0  0  0  0  0
    3.1160   18.7730   39.7940 C   0  0  0  0  0  0  0  0  0  0  0  0
    3.6320   19.0640   37.2380 C   0  0  0  0  0  0  0  0  0  0  0  0
    1.2290   21.3760   33.4940 S   0  0  0  0  0  0  0  0  0  0  0  0
    1.3676   21.6632   38.1682 H   0  0  0  0  0  0  0  0  0  0  0  0
    4.4331   23.0251   34.2198 H   0  0  0  0  0  0  0  0  0  0  0  0
    3.8763   21.8375   32.9926 H   0  0  0  0  0  0  0  0  0  0  0  0
    3.2131   23.5068   32.9926 H   0  0  0  0  0  0  0  0  0  0  0  0
    1.9519   23.2884   36.4459 H   0  0  0  0  0  0  0  0  0  0  0  0
    2.4830   24.3389   35.0890 H   0  0  0  0  0  0  0  0  0  0  0  0
    0.8285   23.6395   35.0890 H   0  0  0  0  0  0  0  0  0  0  0  0
    3.5209   20.5790   35.0782 H   0  0  0  0  0  0  0  0  0  0  0  0
    4.3902   17.5032   38.6048 H   0  0  0  0  0  0  0  0  0  0  0  0
    3.2704   18.2541   40.7515 H   0  0  0  0  0  0  0  0  0  0  0  0
    4.1616   18.6348   36.3747 H   0  0  0  0  0  0  0  0  0  0  0  0
    0.2951   20.7060   34.2396 H   0  0  0  0  0  0  0  0  0  0  0  0
  1 10  2  0
  2  3  1  0
  3  5  1  0
  3  6  1  0
  4 12  2  0
  4  1  1  0
  6  4  1  0
  7  9  3  0
  8 11  2  0
 10 11  1  0
 10  7  1  0
 12  8  1  0
 13  3  1  0
  1 14  1  0
  2 15  1  0
  2 16  1  0
  2 17  1  0
  5 18  1  0
  5 19  1  0
  5 20  1  0
  6 21  1  0
  8 22  1  0
 11 23  1  0
 12 24  1  0
 13 25  1  0
M  END
>  <mol_id>  (31) 
2026-09-18-3war-s0-n100-0031

>  <rmsd_to_ref>  (31) 


$$$$

     RDKit          3D

 32 34  0  0  0  0  0  0  0  0999 V2000
    2.3440   20.8890   37.4050 C   0  0  0  0  0  0  0  0  0  0  0  0
    1.5670   22.4030   34.4930 O   0  0  0  0  0  0  0  0  0  0  0  0
    1.7620   19.9710   39.6960 C   0  0  0  0  0  0  0  0  0  0  0  0
    2.9680   19.2220   39.0230 C   0  0  0  0  0  0  0  0  0  0  0  0
    2.5730   22.3240   34.9800 C   0  0  0  0  0  0  0  0  0  0  0  0
    4.7840   23.5270   33.2470 C   0  0  0  0  0  0  0  0  0  0  0  0
    3.5990   24.1550   31.4370 C   0  0  0  0  0  0  0  0  0  0  0  0
    3.5510   23.5450   32.7650 C   0  0  0  0  0  0  0  0  0  0  0  0
    3.7500   22.6000   33.4360 C   0  0  0  0  0  0  0  0  0  0  0  0
    1.6670   21.4580   38.8630 S   0  0  0  0  0  0  0  0  0  0  0  0
    3.1060   19.8200   37.7140 N   0  0  0  0  0  4  0  0  0  0  0  0
    2.6020   22.0850   36.4810 C   0  0  0  0  0  0  0  0  0  0  0  0
    2.6320   17.6570   38.9970 C   0  0  0  0  0  0  0  0  0  0  0  0
    4.3610   19.3520   40.1850 Cl  0  0  0  0  0  0  0  0  0  0  0  0
    2.6880   24.5620   32.3150 C   0  0  0  0  0  0  0  0  0  0  0  0
    1.7914   20.3613   36.6137 H   0  0  0  0  0  0  0  0  0  0  0  0
    0.8313   19.3972   39.5754 H   0  0  0  0  0  0  0  0  0  0  0  0
    1.9035   20.1053   40.7786 H   0  0  0  0  0  0  0  0  0  0  0  0
    5.0952   24.2103   34.0509 H   0  0  0  0  0  0  0  0  0  0  0  0
    5.8182   23.5469   32.8728 H   0  0  0  0  0  0  0  0  0  0  0  0
    3.2906   23.5748   30.5548 H   0  0  0  0  0  0  0  0  0  0  0  0
    4.3771   24.6524   30.8395 H   0  0  0  0  0  0  0  0  0  0  0  0
    3.7762   21.5024   33.3681 H   0  0  0  0  0  0  0  0  0  0  0  0
    2.8940   19.0869   37.0223 H   0  0  0  0  0  0  0  0  0  0  0  0
    4.0675   20.1893   37.7087 H   0  0  0  0  0  0  0  0  0  0  0  0
    1.8924   22.8365   36.8574 H   0  0  0  0  0  0  0  0  0  0  0  0
    3.6977   22.0056   36.5370 H   0  0  0  0  0  0  0  0  0  0  0  0
    2.5515   17.2821   40.0280 H   0  0  0  0  0  0  0  0  0  0  0  0
    1.6787   17.4953   38.4726 H   0  0  0  0  0  0  0  0  0  0  0  0
    3.4349   17.1182   38.4726 H   0  0  0  0  0  0  0  0  0  0  0  0
    2.7727   25.5692   32.7489 H   0  0  0  0  0  0  0  0  0  0  0  0
    1.5925   24.6520   32.2723 H   0  0  0  0  0  0  0  0  0  0  0  0
  1 12  1  0
  1 11  1  0
  1 10  1  0
  2  5  2  0
  4 13  1  0
  4  3  1  0
  4 14  1  0
  5 12  1  0
  6  9  1  0
  7 15  1  0
  7  8  1  0
  8  6  1  0
  8  9  1  0
  9  5  1  0
 10  3  1  0
 11  4  1  0
 15  8  1  0
  1 16  1  0
  3 17  1  0
  3 18  1  0
  6 19  1  0
  6 20  1  0
  7 21  1  0
  7 22  1  0
  9 23  1  0
 11 24  1  0
 11 25  1  0
 12 26  1  0
 12 27  1  0
 13 28  1  0
 13 29  1  0
 13 30  1  0
 15 31  1  0
 15 32  1  0
M  CHG  1  11   1
M  END
>  <mol_id>  (32) 
2026-09-18-3war-s0-n100-0032

>  <rmsd_to_ref>  (32) 


$$$$

     RDKit          3D

 69 70  0  0  0  0  0  0  0  0999 V2000
    2.3210   20.8740   37.6020 C   0  0  0  0  0  0  0  0  0  0  0  0
    2.2220   23.7740   34.6980 C   0  0  0  0  0  0  0  0  0  0  0  0
    2.3670   22.7280   34.3600 C   0  0  0  0  0  0  0  0  0  0  0  0
    2.0580   26.8210   31.6500 C   0  0  0  0  0  0  0  0  0  0  0  0
    0.5110   14.3140   41.2110 C   0  0  0  0  0  0  0  0  0  0  0  0
    2.2640   20.3090   38.7030 C   0  0  0  0  0  0  0  0  0  0  0  0
    1.3990   21.0240   39.9530 C   0  0  0  0  0  0  0  0  0  0  0  0
    3.1590   16.4090   38.2770 C   0  0  0  0  0  0  0  0  0  0  0  0
    4.1950   16.1660   37.4710 O   0  0  0  0  0  0  0  0  0  0  0  0
    2.5630   21.9350   35.7500 C   0  0  0  0  0  0  0  0  0  0  0  0
    1.7590   14.7650   41.1550 O   0  0  0  0  0  0  0  0  0  0  0  0
    2.4790   14.2090   37.8690 O   0  0  0  0  0  0  0  0  0  0  0  0
    2.5470   25.8380   30.2300 C   0  0  0  0  0  0  0  0  0  0  0  0
    3.2470   22.4210   33.4330 C   0  0  0  0  0  0  0  0  0  0  0  0
    0.7820   27.2330   31.2520 C   0  0  0  0  0  0  0  0  0  0  0  0
    4.1990   18.6520   39.1940 C   0  0  0  0  0  0  0  0  0  0  0  0
    2.4040   19.9460   39.9450 C   0  0  0  0  0  0  0  0  0  0  0  0
   -0.3810   14.7990   40.4890 O   0  0  0  0  0  0  0  0  0  0  0  0
    2.7030   25.0080   32.6370 C   0  0  0  0  0  0  0  0  0  0  0  0
    3.0890   26.0560   31.6640 C   0  0  0  0  0  0  0  0  0  0  0  0
    2.0490   25.3880   33.8410 C   0  0  0  0  0  0  0  0  0  0  0  0
    0.4800   13.3130   41.9530 O   0  0  0  0  0  1  0  0  0  0  0  0
    3.7890   19.8080   40.1290 C   0  0  0  0  0  0  0  0  0  0  0  0
    3.1930   17.5850   39.2180 C   0  0  0  0  0  0  0  0  0  0  0  0
   -0.1520   26.3630   31.0390 F   0  0  0  0  0  0  0  0  0  0  0  0
    2.9470   15.0410   38.9540 C   0  0  0  0  0  0  0  0  0  0  0  0
    2.2900   15.5060   40.1490 C   0  0  0  0  0  0  0  0  0  0  0  0
    3.9910   25.5340   32.6520 C   0  0  0  0  0  0  0  0  0  0  0  0
    2.2540   21.7380   36.8260 C   0  0  0  0  0  0  0  0  0  0  0  0
    3.3591   20.5896   37.3752 H   0  0  0  0  0  0  0  0  0  0  0  0
    1.2218   20.8372   37.5818 H   0  0  0  0  0  0  0  0  0  0  0  0
    1.3017   23.7137   35.2974 H   0  0  0  0  0  0  0  0  0  0  0  0
    3.2697   23.9297   34.9949 H   0  0  0  0  0  0  0  0  0  0  0  0
    1.4969   22.4407   33.7514 H   0  0  0  0  0  0  0  0  0  0  0  0
    1.8600   26.7985   32.7318 H   0  0  0  0  0  0  0  0  0  0  0  0
    2.4408   27.2467   30.7107 H   0  0  0  0  0  0  0  0  0  0  0  0
    2.6347   19.6905   37.8723 H   0  0  0  0  0  0  0  0  0  0  0  0
    1.6356   22.0344   40.3178 H   0  0  0  0  0  0  0  0  0  0  0  0
    0.3578   21.1999   40.2612 H   0  0  0  0  0  0  0  0  0  0  0  0
    2.3093   16.7807   37.6855 H   0  0  0  0  0  0  0  0  0  0  0  0
    4.9998   15.9772   38.0158 H   0  0  0  0  0  0  0  0  0  0  0  0
    2.4773   20.9081   35.3652 H   0  0  0  0  0  0  0  0  0  0  0  0
    3.1960   22.7610   36.1064 H   0  0  0  0  0  0  0  0  0  0  0  0
    2.0286   13.4082   38.2378 H   0  0  0  0  0  0  0  0  0  0  0  0
    1.5276   25.4280   30.2817 H   0  0  0  0  0  0  0  0  0  0  0  0
    2.5290   26.7988   29.6948 H   0  0  0  0  0  0  0  0  0  0  0  0
    3.1993   25.1323   29.6948 H   0  0  0  0  0  0  0  0  0  0  0  0
    4.1830   22.0945   33.9097 H   0  0  0  0  0  0  0  0  0  0  0  0
    2.8514   21.6078   32.8068 H   0  0  0  0  0  0  0  0  0  0  0  0
    3.4430   23.3038   32.8068 H   0  0  0  0  0  0  0  0  0  0  0  0
    0.4102   27.9091   32.0360 H   0  0  0  0  0  0  0  0  0  0  0  0
    0.9591   27.6560   30.2521 H   0  0  0  0  0  0  0  0  0  0  0  0
    5.1655   18.2447   39.5256 H   0  0  0  0  0  0  0  0  0  0  0  0
    4.2802   19.0389   38.1675 H   0  0  0  0  0  0  0  0  0  0  0  0
    2.2293   19.1374   40.6700 H   0  0  0  0  0  0  0  0  0  0  0  0
    2.1870   24.0470   32.4945 H   0  0  0  0  0  0  0  0  0  0  0  0
    2.5703   26.2023   34.3655 H   0  0  0  0  0  0  0  0  0  0  0  0
    1.0299   25.7907   33.7449 H   0  0  0  0  0  0  0  0  0  0  0  0
    4.0177   19.5591   41.1758 H   0  0  0  0  0  0  0  0  0  0  0  0
    4.3320   20.7373   39.9020 H   0  0  0  0  0  0  0  0  0  0  0  0
    2.2250   18.0915   39.0897 H   0  0  0  0  0  0  0  0  0  0  0  0
    3.4617   17.0799   40.1575 H   0  0  0  0  0  0  0  0  0  0  0  0
    3.6736   14.3229   39.3620 H   0  0  0  0  0  0  0  0  0  0  0  0
    3.0324   16.1515   40.6412 H   0  0  0  0  0  0  0  0  0  0  0  0
    1.3538   15.8626   39.6946 H   0  0  0  0  0  0  0  0  0  0  0  0
    4.3044   26.1737   33.4902 H   0  0  0  0  0  0  0  0  0  0  0  0
    4.9943   25.0857   32.6020 H   0  0  0  0  0  0  0  0  0  0  0  0
    2.7517   22.5613   37.3594 H   0  0  0  0  0  0  0  0  0  0  0  0
    1.2153   21.5002   36.5531 H   0  0  0  0  0  0  0  0  0  0  0  0
  3 14  1  0
  3  2  1  0
  3 10  1  0
  4 20  1  0
  5 22  1  0
  6  1  1  0
  6 17  1  0
  6  7  1  0
  8  9  1  0
  8 26  1  0
  8 24  1  0
 10 29  1  0
 11  5  1  0
 15  4  1  0
 16 24  1  0
 16 23  1  0
 17  7  1  0
 17 23  1  0
 18  5  2  0
 19 28  1  0
 19 21  1  0
 20 13  1  0
 20 19  1  0
 20 28  1  0
 21  2  1  0
 25 15  1  0
 26 12  1  0
 26 27  1  0
 27 11  1  0
 29  1  1  0
  1 30  1  0
  1 31  1  0
  2 32  1  0
  2 33  1  0
  3 34  1  0
  4 35  1  0
  4 36  1  0
  6 37  1  0
  7 38  1  0
  7 39  1  0
  8 40  1  0
  9 41  1  0
 10 42  1  0
 10 43  1  0
 12 44  1  0
 13 45  1  0
 13 46  1  0
 13 47  1  0
 14 48  1  0
 14 49  1  0
 14 50  1  0
 15 51  1  0
 15 52  1  0
 16 53  1  0
 16 54  1  0
 17 55  1  0
 19 56  1  0
 21 57  1  0
 21 58  1  0
 23 59  1  0
 23 60  1  0
 24 61  1  0
 24 62  1  0
 26 63  1  0
 27 64  1  0
 27 65  1  0
 28 66  1  0
 28 67  1  0
 29 68  1  0
 29 69  1  0
M  CHG  1  22  -1
M  END
>  <mol_id>  (33) 
2026-09-18-3war-s0-n100-0033

>  <rmsd_to_ref>  (33) 


$$$$

     RDKit          3D

 93 97  0  0  0  0  0  0  0  0999 V2000
    3.8670   16.9830   37.3310 C   0  0  0  0  0  0  0  0  0  0  0  0
    1.9460   21.2730   37.2360 C   0  0  0  0  0  0  0  0  0  0  0  0
    3.4580   14.0910   38.5950 C   0  0  0  0  0  0  0  0  0  0  0  0
    1.6520   20.5430   39.7340 C   0  0  0  0  0  0  0  0  0  0  0  0
    2.8090   19.0880   37.9680 C   0  0  0  0  0  0  0  0  0  0  0  0
    1.8110   26.6490   28.0730 C   0  0  0  0  0  0  0  0  0  0  0  0
    4.5400   25.9600   30.6990 C   0  0  0  0  0  0  0  0  0  0  0  0
    3.0110    8.7320   39.6050 O   0  0  0  0  0  0  0  0  0  0  0  0
    2.7370   25.1820   29.4800 C   0  0  0  0  0  0  0  0  0  0  0  0
    0.4700   19.5150   39.7630 S   0  0  0  0  0  0  0  0  0  0  0  0
    2.8350   15.4480   39.4770 C   0  0  0  0  0  0  0  0  0  0  0  0
    3.1250   14.3470   37.4140 N   0  0  0  0  0  0  0  0  0  0  0  0
    4.1580   15.4460   36.9460 C   0  0  0  0  0  0  0  0  0  0  0  0
    2.1160   28.2260   27.8700 C   0  0  0  0  0  0  0  0  0  0  0  0
    2.7960   17.5440   38.0670 C   0  0  0  0  0  0  0  0  0  0  0  0
    3.4520   11.5110   39.1400 C   0  0  0  0  0  0  0  0  0  0  0  0
    4.0210   27.1770   30.8530 C   0  0  0  0  0  0  0  0  0  0  0  0
    4.3200   24.8940   31.7550 C   0  0  0  0  0  0  0  0  0  0  0  0
    1.7680    9.4930   37.6130 O   0  0  0  0  0  0  0  0  0  0  0  0
    1.5150   22.4570   36.3750 C   0  0  0  0  0  0  0  0  0  0  0  0
    3.0650    9.7450   38.4410 P   0  0  0  0  0  5  0  0  0  0  0  0
    1.8280   26.1120   29.5080 C   0  0  0  0  0  0  0  0  0  0  0  0
    0.5940   21.3840   41.6130 C   0  0  0  0  0  0  0  0  0  0  0  0
    1.2690   24.7020   34.1720 C   0  0  0  0  0  0  0  0  0  0  0  0
    2.3860   23.6050   34.1390 C   0  0  0  0  0  0  0  0  0  0  0  0
    3.2580   12.9840   39.8690 S   0  0  0  0  0  0  0  0  0  0  0  0
   -0.2270   20.1560   41.2680 C   0  0  0  0  0  0  0  0  0  0  0  0
    2.0790   24.7420   30.7140 C   0  0  0  0  0  0  0  0  0  0  0  0
    2.3650   20.2570   38.4790 C   0  0  0  0  0  0  0  0  0  0  0  0
    2.1790   22.5250   35.1350 C   0  0  0  0  0  0  0  0  0  0  0  0
    3.3170   16.9320   39.1820 C   0  0  0  0  0  0  0  0  0  0  0  0
    1.1300   25.5640   27.2040 C   0  0  0  0  0  0  0  0  0  0  0  0
    4.3590    9.4490   37.4070 N   0  0  0  0  0  0  0  0  0  0  0  0
    3.0440   23.9340   31.5880 C   0  0  0  0  0  0  0  0  0  0  0  0
    3.3060   13.1670   36.5820 C   0  0  0  0  0  0  0  0  0  0  0  0
    1.5730   21.5430   40.5530 O   0  0  0  0  0  0  0  0  0  0  0  0
    1.9040   15.5040   40.3980 O   0  0  0  0  0  0  0  0  0  0  0  0
    2.6910   22.9230   32.6470 C   0  0  0  0  0  0  0  0  0  0  0  0
    3.7580   26.1740   29.7150 C   0  0  0  0  0  0  0  0  0  0  0  0
    2.9170   21.5960   34.8100 O   0  0  0  0  0  0  0  0  0  0  0  0
    4.6420   18.0000   39.9340 Cl  0  0  0  0  0  0  0  0  0  0  0  0
    4.4522   17.3801   36.4885 H   0  0  0  0  0  0  0  0  0  0  0  0
    1.1642   20.6039   36.8473 H   0  0  0  0  0  0  0  0  0  0  0  0
    2.8716   21.8288   37.4465 H   0  0  0  0  0  0  0  0  0  0  0  0
    4.3927   13.6689   38.1973 H   0  0  0  0  0  0  0  0  0  0  0  0
    2.5723   20.7608   40.2957 H   0  0  0  0  0  0  0  0  0  0  0  0
    2.4738   19.2060   36.9270 H   0  0  0  0  0  0  0  0  0  0  0  0
    3.6736   19.1221   38.6471 H   0  0  0  0  0  0  0  0  0  0  0  0
    2.5556   26.8885   27.2996 H   0  0  0  0  0  0  0  0  0  0  0  0
    5.5841   25.6157   30.6625 H   0  0  0  0  0  0  0  0  0  0  0  0
    3.0369    9.2182   40.4670 H   0  0  0  0  0  0  0  0  0  0  0  0
    3.0455   24.4091   28.7606 H   0  0  0  0  0  0  0  0  0  0  0  0
    2.0741   15.6048   38.6983 H   0  0  0  0  0  0  0  0  0  0  0  0
    4.2170   15.3909   35.8490 H   0  0  0  0  0  0  0  0  0  0  0  0
    5.0808   15.2002   37.4918 H   0  0  0  0  0  0  0  0  0  0  0  0
    2.2098   28.7108   28.8529 H   0  0  0  0  0  0  0  0  0  0  0  0
    3.0545   28.3488   27.3096 H   0  0  0  0  0  0  0  0  0  0  0  0
    1.2909   28.6899   27.3096 H   0  0  0  0  0  0  0  0  0  0  0  0
    1.7266   17.3979   37.8546 H   0  0  0  0  0  0  0  0  0  0  0  0
    3.8431   11.9138   38.1941 H   0  0  0  0  0  0  0  0  0  0  0  0
    3.4022   11.0663   40.1449 H   0  0  0  0  0  0  0  0  0  0  0  0
    3.2608   27.3800   31.6217 H   0  0  0  0  0  0  0  0  0  0  0  0
    4.3750   28.2119   30.9699 H   0  0  0  0  0  0  0  0  0  0  0  0
    5.2142   24.2535   31.7673 H   0  0  0  0  0  0  0  0  0  0  0  0
    4.1283   25.4545   32.6818 H   0  0  0  0  0  0  0  0  0  0  0  0
    0.4344   22.3745   36.1865 H   0  0  0  0  0  0  0  0  0  0  0  0
    1.7750   23.3704   36.9301 H   0  0  0  0  0  0  0  0  0  0  0  0
    2.1003   26.9050   30.2201 H   0  0  0  0  0  0  0  0  0  0  0  0
    0.8463   25.7379   29.8341 H   0  0  0  0  0  0  0  0  0  0  0  0
   -0.0545   22.2709   41.6661 H   0  0  0  0  0  0  0  0  0  0  0  0
    1.0848   21.2697   42.5908 H   0  0  0  0  0  0  0  0  0  0  0  0
    1.0230   24.9435   35.2166 H   0  0  0  0  0  0  0  0  0  0  0  0
    1.6290   25.6073   33.6613 H   0  0  0  0  0  0  0  0  0  0  0  0
    0.3703   24.3257   33.6613 H   0  0  0  0  0  0  0  0  0  0  0  0
    3.2799   24.1868   34.4082 H   0  0  0  0  0  0  0  0  0  0  0  0
   -1.2812   20.4304   41.1155 H   0  0  0  0  0  0  0  0  0  0  0  0
   -0.2001   19.4106   42.0765 H   0  0  0  0  0  0  0  0  0  0  0  0
    1.7376   25.6245   31.2749 H   0  0  0  0  0  0  0  0  0  0  0  0
    1.2244   24.1022   30.4486 H   0  0  0  0  0  0  0  0  0  0  0  0
    3.2715   20.3872   39.0884 H   0  0  0  0  0  0  0  0  0  0  0  0
    0.6592   24.8139   27.8564 H   0  0  0  0  0  0  0  0  0  0  0  0
    0.3627   26.0310   26.5690 H   0  0  0  0  0  0  0  0  0  0  0  0
    1.8842   25.0761   26.5690 H   0  0  0  0  0  0  0  0  0  0  0  0
    5.2048    9.2555   37.9621 H   0  0  0  0  0  0  0  0  0  0  0  0
    4.1446    8.6353   36.8130 H   0  0  0  0  0  0  0  0  0  0  0  0
    3.1917   22.9675   31.0839 H   0  0  0  0  0  0  0  0  0  0  0  0
    3.4415   12.2835   37.2232 H   0  0  0  0  0  0  0  0  0  0  0  0
    2.4189   13.0265   35.9469 H   0  0  0  0  0  0  0  0  0  0  0  0
    4.1944   13.2989   35.9469 H   0  0  0  0  0  0  0  0  0  0  0  0
    2.3243   15.4787   41.2940 H   0  0  0  0  0  0  0  0  0  0  0  0
    1.7925   22.3776   32.3227 H   0  0  0  0  0  0  0  0  0  0  0  0
    3.5603   22.2594   32.7649 H   0  0  0  0  0  0  0  0  0  0  0  0
    3.6964   26.3382   28.6291 H   0  0  0  0  0  0  0  0  0  0  0  0
  1 13  1  0
  1 15  1  0
  1 31  1  0
  3 11  1  0
  3 26  1  0
  4 29  1  0
  4 10  1  0
  4 36  1  0
  5 29  1  0
  6 22  1  0
  7 17  1  0
  7 18  1  0
  9 22  1  0
  9 39  1  0
  9 28  1  0
 10 27  1  0
 11 37  1  0
 12  3  1  0
 13 12  1  0
 14  6  1  0
 15  5  1  0
 15 31  1  0
 16 26  1  0
 19 21  2  0
 20  2  1  0
 21 33  1  0
 21 16  1  0
 21  8  1  0
 25 24  1  0
 25 30  1  0
 27 23  1  0
 28 34  1  0
 29  2  1  0
 30 20  1  0
 31 11  1  0
 31 41  1  0
 32  6  1  0
 34 18  1  0
 34 38  1  0
 35 12  1  0
 36 23  1  0
 38 25  1  0
 39  7  1  0
 39 17  1  0
 40 30  2  0
  1 42  1  0
  2 43  1  0
  2 44  1  0
  3 45  1  0
  4 46  1  0
  5 47  1  0
  5 48  1  0
  6 49  1  0
  7 50  1  0
  8 51  1  0
  9 52  1  0
 11 53  1  0
 13 54  1  0
 13 55  1  0
 14 56  1  0
 14 57  1  0
 14 58  1  0
 15 59  1  0
 16 60  1  0
 16 61  1  0
 17 62  1  0
 17 63  1  0
 18 64  1  0
 18 65  1  0
 20 66  1  0
 20 67  1  0
 22 68  1  0
 22 69  1  0
 23 70  1  0
 23 71  1  0
 24 72  1  0
 24 73  1  0
 24 74  1  0
 25 75  1  0
 27 76  1  0
 27 77  1  0
 28 78  1  0
 28 79  1  0
 29 80  1  0
 32 81  1  0
 32 82  1  0
 32 83  1  0
 33 84  1  0
 33 85  1  0
 34 86  1  0
 35 87  1  0
 35 88  1  0
 35 89  1  0
 37 90  1  0
 38 91  1  0
 38 92  1  0
 39 93  1  0
M  END
>  <mol_id>  (34) 
2026-09-18-3war-s0-n100-0034

>  <rmsd_to_ref>  (34) 


$$$$

     RDKit          3D

 58 61  0  0  0  0  0  0  0  0999 V2000
    2.1220   27.3220   32.1350 C   0  0  0  0  0  0  0  0  0  0  0  0
    2.1490   21.8660   35.8260 O   0  0  0  0  0  0  0  0  0  0  0  0
    3.2150   17.4890   36.9540 C   0  0  0  0  0  0  0  0  0  0  0  0
    1.3200   26.5070   31.1430 C   0  0  0  0  0  0  0  0  0  0  0  0
    2.7500   17.3940   39.5220 C   0  0  0  0  0  0  0  0  0  0  0  0
    4.2340   21.8790   34.9710 C   0  0  0  0  0  0  0  0  0  0  0  0
    1.6120   16.1510   41.0010 N   0  0  0  0  0  0  0  0  0  0  0  0
    2.6290   24.1390   34.0490 C   0  0  0  0  0  0  0  0  0  0  0  0
    1.2930   17.4850   41.2810 C   0  0  0  0  0  0  0  0  0  0  0  0
    1.2260   25.2500   32.3680 O   0  0  0  0  0  0  0  0  0  0  0  0
    3.2450   21.3700   35.8450 C   0  0  0  0  0  0  0  0  0  0  0  0
    2.4900   26.8030   30.7950 C   0  0  0  0  0  0  0  0  0  0  0  0
    3.4930   24.2010   32.8610 C   0  0  0  0  0  0  0  0  0  0  0  0
    1.0710   15.0090   41.8260 C   0  0  0  0  0  0  0  0  0  0  0  0
    0.4370   19.4030   42.3130 C   0  0  0  0  0  0  0  0  0  0  0  0
    4.2840   16.6150   37.4930 C   0  0  0  0  0  0  0  0  0  0  0  0
    3.0570   25.5610   33.5540 C   0  0  0  0  0  0  0  0  0  0  0  0
    3.6460   25.8920   30.6830 C   0  0  0  0  0  0  0  0  0  0  0  0
    0.4960   18.0360   42.2660 C   0  0  0  0  0  0  0  0  0  0  0  0
    2.4350   16.1230   39.9940 C   0  0  0  0  0  0  0  0  0  0  0  0
   -0.0130   14.4200   41.1610 O   0  0  0  0  0  0  0  0  0  0  0  0
    3.6600   17.7140   38.3150 C   0  0  0  0  0  0  0  0  0  0  0  0
    1.1180   20.2150   41.3620 C   0  0  0  0  0  0  0  0  0  0  0  0
    1.9730   18.2640   40.3360 C   0  0  0  0  0  0  0  0  0  0  0  0
    1.8700   19.5950   40.4240 C   0  0  0  0  0  0  0  0  0  0  0  0
    1.9040   26.3520   33.1510 C   0  0  0  0  0  0  0  0  0  0  0  0
    2.5870   27.0020   28.9810 C   0  0  0  0  0  0  0  0  0  0  0  0
    3.6450   20.3070   36.5320 O   0  0  0  0  0  1  0  0  0  0  0  0
    2.3828   28.2634   32.6408 H   0  0  0  0  0  0  0  0  0  0  0  0
    3.4556   18.2257   36.1734 H   0  0  0  0  0  0  0  0  0  0  0  0
    2.2357   17.3042   36.4883 H   0  0  0  0  0  0  0  0  0  0  0  0
    0.4463   26.4704   30.4757 H   0  0  0  0  0  0  0  0  0  0  0  0
    5.0601   22.3042   35.5599 H   0  0  0  0  0  0  0  0  0  0  0  0
    4.6165   21.0657   34.3367 H   0  0  0  0  0  0  0  0  0  0  0  0
    3.7945   22.6629   34.3367 H   0  0  0  0  0  0  0  0  0  0  0  0
    1.5817   23.8204   33.9410 H   0  0  0  0  0  0  0  0  0  0  0  0
    2.7009   23.6169   35.0145 H   0  0  0  0  0  0  0  0  0  0  0  0
    3.0848   23.9355   31.8746 H   0  0  0  0  0  0  0  0  0  0  0  0
    4.4594   23.7519   32.5884 H   0  0  0  0  0  0  0  0  0  0  0  0
    1.8611   14.2582   41.9743 H   0  0  0  0  0  0  0  0  0  0  0  0
    0.7369   15.3902   42.8023 H   0  0  0  0  0  0  0  0  0  0  0  0
   -0.1519   19.8867   43.1062 H   0  0  0  0  0  0  0  0  0  0  0  0
    4.0748   15.5604   37.7254 H   0  0  0  0  0  0  0  0  0  0  0  0
    5.3046   16.3379   37.1904 H   0  0  0  0  0  0  0  0  0  0  0  0
    3.6338   26.4517   33.8437 H   0  0  0  0  0  0  0  0  0  0  0  0
    3.9950   25.6170   31.6893 H   0  0  0  0  0  0  0  0  0  0  0  0
    3.3463   24.9846   30.1381 H   0  0  0  0  0  0  0  0  0  0  0  0
    4.4582   26.3955   30.1381 H   0  0  0  0  0  0  0  0  0  0  0  0
   -0.0625   17.4085   42.9761 H   0  0  0  0  0  0  0  0  0  0  0  0
    2.8384   15.1952   39.5622 H   0  0  0  0  0  0  0  0  0  0  0  0
   -0.6574   14.0699   41.8260 H   0  0  0  0  0  0  0  0  0  0  0  0
    4.0429   18.5809   38.8735 H   0  0  0  0  0  0  0  0  0  0  0  0
    1.0352   21.3115   41.3892 H   0  0  0  0  0  0  0  0  0  0  0  0
    2.4219   20.2133   39.7007 H   0  0  0  0  0  0  0  0  0  0  0  0
    1.4585   26.8803   34.0068 H   0  0  0  0  0  0  0  0  0  0  0  0
    3.0575   27.9673   28.7427 H   0  0  0  0  0  0  0  0  0  0  0  0
    3.1883   26.1857   28.5542 H   0  0  0  0  0  0  0  0  0  0  0  0
    1.5736   26.9728   28.5542 H   0  0  0  0  0  0  0  0  0  0  0  0
  1 12  1  0
  1 26  1  0
  2 11  2  0
  3 16  1  0
  3 22  1  0
  4  1  1  0
  4 10  1  0
  5 20  2  0
  5 24  1  0
  6 11  1  0
  7  9  1  0
  7 14  1  0
  9 19  2  0
 10 26  1  0
 11 28  1  0
 12  4  1  0
 13 17  1  0
 13  8  1  0
 16 22  1  0
 17  8  1  0
 18 12  1  0
 19 15  1  0
 20  7  1  0
 21 14  1  0
 22  5  1  0
 23 15  2  0
 24 25  2  0
 24  9  1  0
 25 23  1  0
 26 17  1  0
 27 12  1  0
  1 29  1  0
  3 30  1  0
  3 31  1  0
  4 32  1  0
  6 33  1  0
  6 34  1  0
  6 35  1  0
  8 36  1  0
  8 37  1  0
 13 38  1  0
 13 39  1  0
 14 40  1  0
 14 41  1  0
 15 42  1  0
 16 43  1  0
 16 44  1  0
 17 45  1  0
 18 46  1  0
 18 47  1  0
 18 48  1  0
 19 49  1  0
 20 50  1  0
 21 51  1  0
 22 52  1  0
 23 53  1  0
 25 54  1  0
 26 55  1  0
 27 56  1  0
 27 57  1  0
 27 58  1  0
M  CHG  1  28  -1
M  END
>  <mol_id>  (35) 
2026-09-18-3war-s0-n100-0035

>  <rmsd_to_ref>  (35) 


$$$$

     RDKit          3D

 48 51  0  0  0  0  0  0  0  0999 V2000
    2.0350   24.0970   34.6680 C   0  0  0  0  0  0  0  0  0  0  0  0
    2.6530   18.5070   38.8730 C   0  0  0  0  0  0  0  0  0  0  0  0
    3.8910   13.2700   38.2260 C   0  0  0  0  0  0  0  0  0  0  0  0
    1.9380   25.8460   30.9230 C   0  0  0  0  0  0  0  0  0  0  0  0
    3.7360   15.6860   37.3060 C   0  0  0  0  0  0  0  0  0  0  0  0
    1.3680   22.5130   37.4690 S   0  0  0  0  0  0  0  0  0  0  0  0
    3.1860   16.0800   38.6460 C   0  0  0  0  0  0  0  0  0  0  0  0
    2.8650   20.9130   36.1080 N   0  0  0  0  0  0  0  0  0  0  0  0
    3.4130   13.7260   39.5240 C   0  0  0  0  0  0  0  0  0  0  0  0
    3.1060   19.1000   37.7040 C   0  0  0  0  0  0  0  0  0  0  0  0
    1.5910   20.5790   39.5250 C   0  0  0  0  0  0  0  0  0  0  0  0
    1.9640   19.3130   39.8160 C   0  0  0  0  0  0  0  0  0  0  0  0
    2.6900   20.3330   37.3900 C   0  0  0  0  0  0  0  0  0  0  0  0
    2.7660   24.7680   31.1040 C   0  0  0  0  0  0  0  0  0  0  0  0
    2.3500   22.0920   36.0270 C   0  0  0  0  0  0  0  0  0  0  0  0
    2.8730   17.2460   38.9860 O   0  0  0  0  0  0  0  0  0  0  0  0
    4.5760   14.3570   37.3780 C   0  0  0  0  0  0  0  0  0  0  0  0
    3.5630   24.1250   29.9670 C   0  0  0  0  0  0  0  0  0  0  0  0
    2.0450   24.6720   33.3920 C   0  0  0  0  0  0  0  0  0  0  0  0
    1.2220   26.3790   31.9700 C   0  0  0  0  0  0  0  0  0  0  0  0
    2.7610   24.1730   32.3680 C   0  0  0  0  0  0  0  0  0  0  0  0
    2.5380   22.8900   34.8350 C   0  0  0  0  0  0  0  0  0  0  0  0
    1.2770   25.8320   33.2120 C   0  0  0  0  0  0  0  0  0  0  0  0
    1.9380   21.0480   38.2060 C   0  0  0  0  0  0  0  0  0  0  0  0
    2.7140   15.0720   39.4130 C   0  0  0  0  0  0  0  0  0  0  0  0
    1.6121   24.6462   35.5221 H   0  0  0  0  0  0  0  0  0  0  0  0
    4.6142   12.4580   38.3925 H   0  0  0  0  0  0  0  0  0  0  0  0
    3.0032   12.9477   37.6622 H   0  0  0  0  0  0  0  0  0  0  0  0
    1.8445   26.2929   29.9222 H   0  0  0  0  0  0  0  0  0  0  0  0
    4.3832   16.4950   36.9365 H   0  0  0  0  0  0  0  0  0  0  0  0
    2.8865   15.5134   36.6288 H   0  0  0  0  0  0  0  0  0  0  0  0
    4.2035   16.4240   38.8832 H   0  0  0  0  0  0  0  0  0  0  0  0
    2.7046   12.9862   39.9252 H   0  0  0  0  0  0  0  0  0  0  0  0
    4.2787   13.8382   40.1933 H   0  0  0  0  0  0  0  0  0  0  0  0
    3.8003   18.5625   37.0414 H   0  0  0  0  0  0  0  0  0  0  0  0
    1.0564   21.2119   40.2486 H   0  0  0  0  0  0  0  0  0  0  0  0
    1.7280   18.8977   40.8069 H   0  0  0  0  0  0  0  0  0  0  0  0
    4.7149   13.9721   36.3570 H   0  0  0  0  0  0  0  0  0  0  0  0
    5.5378   14.5958   37.8554 H   0  0  0  0  0  0  0  0  0  0  0  0
    4.3537   23.4871   30.3886 H   0  0  0  0  0  0  0  0  0  0  0  0
    2.8902   23.5138   29.3475 H   0  0  0  0  0  0  0  0  0  0  0  0
    4.0181   24.9119   29.3475 H   0  0  0  0  0  0  0  0  0  0  0  0
    0.5931   27.2649   31.7980 H   0  0  0  0  0  0  0  0  0  0  0  0
    3.3623   23.2665   32.5315 H   0  0  0  0  0  0  0  0  0  0  0  0
    3.1377   22.4632   34.0176 H   0  0  0  0  0  0  0  0  0  0  0  0
    0.7340   26.2863   34.0539 H   0  0  0  0  0  0  0  0  0  0  0  0
    2.6561   15.4701   40.4368 H   0  0  0  0  0  0  0  0  0  0  0  0
    1.7907   14.8003   38.8803 H   0  0  0  0  0  0  0  0  0  0  0  0
  1 22  2  3
  2 16  1  0
  2 12  1  0
  3  9  1  0
  4 14  2  0
  4 20  1  0
  5 17  1  0
  5  7  1  0
  6 24  1  0
  7 16  1  0
  7 25  1  0
  8 13  1  0
 10  2  2  0
 11 12  2  0
 13 10  1  0
 13 24  2  0
 14 21  1  0
 15  8  2  0
 15  6  1  0
 17  3  1  0
 18 14  1  0
 19  1  1  0
 20 23  2  0
 21 19  2  0
 22 15  1  0
 23 19  1  0
 24 11  1  0
 25  9  1  0
  1 26  1  0
  3 27  1  0
  3 28  1  0
  4 29  1  0
  5 30  1  0
  5 31  1  0
  7 32  1  0
  9 33  1  0
  9 34  1  0
 10 35  1  0
 11 36  1  0
 12 37  1  0
 17 38  1  0
 17 39  1  0
 18 40  1  0
 18 41  1  0
 18 42  1  0
 20 43  1  0
 21 44  1  0
 22 45  1  0
 23 46  1  0
 25 47  1  0
 25 48  1  0
M  END
>  <mol_id>  (36) 
2026-09-18-3war-s0-n100-0036

>  <rmsd_to_ref>  (36) 


$$$$

     RDKit          3D

 80 85  0  0  0  0  0  0  0  0999 V2000
    0.6780   25.5790   30.7410 C   0  0  0  0  0  0  0  0  0  0  0  0
    0.8450   20.7720   41.1150 C   0  0  0  0  0  0  0  0  0  0  0  0
    1.5380   27.1200   31.1190 S   0  0  0  0  0  0  0  0  0  0  0  0
    0.1140   20.8530   31.1690 C   0  0  0  0  0  0  0  0  0  0  0  0
    3.4110   17.9800   38.5940 C   0  0  0  0  0  0  0  0  0  0  0  0
    2.2880   20.6870   38.4190 C   0  0  0  0  0  0  0  0  0  0  0  0
    3.8140   19.0280   39.6600 C   0  0  0  0  0  0  0  0  0  0  0  0
   -0.7740   21.4580   42.8580 O   0  0  0  0  0  0  0  0  0  0  0  0
    3.9450   25.5820   30.2490 O   0  0  0  0  0  0  0  0  0  0  0  0
    0.7410   21.1050   29.8600 C   0  0  0  0  0  0  0  0  0  0  0  0
    2.4200   20.7510   36.0090 C   0  0  0  0  0  0  0  0  0  0  0  0
    1.3970   25.0830   32.9290 C   0  0  0  0  0  0  0  0  0  0  0  0
   -1.2540   21.3200   31.8490 C   0  0  0  0  0  0  0  0  0  0  0  0
    0.1290   25.1720   32.0750 C   0  0  0  0  0  0  0  0  0  0  0  0
   -0.1560   21.9810   31.9810 C   0  0  0  0  0  0  0  0  0  0  0  0
    1.8300   21.6900   28.9660 C   0  0  0  0  0  0  0  0  0  0  0  0
    1.0500   22.5650   29.5270 C   0  0  0  0  0  0  0  0  0  0  0  0
    4.0120   23.9500   30.4420 C   0  0  0  0  0  0  0  0  0  0  0  0
    3.3460   23.8000   31.7370 C   0  0  0  0  0  0  0  0  0  0  0  0
    4.2800   15.7430   37.5790 C   0  0  0  0  0  0  0  0  0  0  0  0
    1.4870   15.5180   39.7300 O   0  0  0  0  0  0  0  0  0  0  0  0
   -0.3680   25.9620   29.8210 O   0  0  0  0  0  0  0  0  0  0  0  0
    3.6190   16.3390   38.7650 C   0  0  0  0  0  0  0  0  0  0  0  0
    3.0020   21.9810   35.5450 C   0  0  0  0  0  0  0  0  0  0  0  0
    2.5950   20.0920   37.2550 C   0  0  0  0  0  0  0  0  0  0  0  0
    3.3800   22.5340   34.4040 C   0  0  0  0  0  0  0  0  0  0  0  0
    0.4620   18.2500   41.8670 N   0  0  0  0  0  0  0  0  0  0  0  0
    2.6790   20.0420   39.6730 N   0  0  0  0  0  0  0  0  0  0  0  0
    3.1890   14.2380   39.8620 O   0  0  0  0  0  1  0  0  0  0  0  0
    1.6080   21.7810   35.6110 C   0  0  0  0  0  0  0  0  0  0  0  0
   -0.3410   19.1810   42.3980 C   0  0  0  0  0  0  0  0  0  0  0  0
    2.1680   25.7740   30.6060 C   0  0  0  0  0  0  0  0  0  0  0  0
   -0.0960   20.4740   42.0910 C   0  0  0  0  0  0  0  0  0  0  0  0
    1.6500   19.7610   40.5970 C   0  0  0  0  0  0  0  0  0  0  0  0
    1.4600   18.4920   41.0400 C   0  0  0  0  0  0  0  0  0  0  0  0
    2.7620   15.3370   39.4870 C   0  0  0  0  0  0  0  0  0  0  0  0
    3.0770   18.6580   37.1900 C   0  0  0  0  0  0  0  0  0  0  0  0
    2.6370   25.0000   32.0930 C   0  0  0  0  0  0  0  0  0  0  0  0
    2.9210   22.3700   31.6780 O   0  0  0  0  0  0  0  0  0  0  0  0
    0.9544   21.8045   40.7517 H   0  0  0  0  0  0  0  0  0  0  0  0
    0.5990   19.8695   31.0827 H   0  0  0  0  0  0  0  0  0  0  0  0
    2.5640   17.4248   39.0234 H   0  0  0  0  0  0  0  0  0  0  0  0
    1.7499   21.6463   38.4297 H   0  0  0  0  0  0  0  0  0  0  0  0
    3.9185   18.5536   40.6469 H   0  0  0  0  0  0  0  0  0  0  0  0
    4.7817   19.4975   39.4293 H   0  0  0  0  0  0  0  0  0  0  0  0
   -1.4360   21.1837   43.5411 H   0  0  0  0  0  0  0  0  0  0  0  0
    0.3160   20.0931   29.7865 H   0  0  0  0  0  0  0  0  0  0  0  0
    2.4803   19.6809   35.7617 H   0  0  0  0  0  0  0  0  0  0  0  0
    1.4585   25.9775   33.5662 H   0  0  0  0  0  0  0  0  0  0  0  0
    1.3343   24.1654   33.5324 H   0  0  0  0  0  0  0  0  0  0  0  0
   -2.0736   21.7194   31.2335 H   0  0  0  0  0  0  0  0  0  0  0  0
   -1.9945   20.8713   32.5274 H   0  0  0  0  0  0  0  0  0  0  0  0
   -0.5655   25.9286   32.4688 H   0  0  0  0  0  0  0  0  0  0  0  0
   -0.4535   24.2393   32.0484 H   0  0  0  0  0  0  0  0  0  0  0  0
    0.3046   22.0165   32.9793 H   0  0  0  0  0  0  0  0  0  0  0  0
    0.0462   23.0449   31.7881 H   0  0  0  0  0  0  0  0  0  0  0  0
    1.7694   21.5377   27.8783 H   0  0  0  0  0  0  0  0  0  0  0  0
    2.9231   21.5691   28.9429 H   0  0  0  0  0  0  0  0  0  0  0  0
    1.4556   23.2201   30.3120 H   0  0  0  0  0  0  0  0  0  0  0  0
    0.4387   23.3881   29.1286 H   0  0  0  0  0  0  0  0  0  0  0  0
    3.4674   23.4251   29.6433 H   0  0  0  0  0  0  0  0  0  0  0  0
    5.0267   23.5274   30.3998 H   0  0  0  0  0  0  0  0  0  0  0  0
    3.8192   23.8311   32.7295 H   0  0  0  0  0  0  0  0  0  0  0  0
    5.0595   15.0402   37.9082 H   0  0  0  0  0  0  0  0  0  0  0  0
    3.5340   15.2063   36.9745 H   0  0  0  0  0  0  0  0  0  0  0  0
    4.7369   16.5404   36.9745 H   0  0  0  0  0  0  0  0  0  0  0  0
   -1.1651   26.2539   30.3305 H   0  0  0  0  0  0  0  0  0  0  0  0
    4.1707   16.5197   39.6993 H   0  0  0  0  0  0  0  0  0  0  0  0
    3.9088   22.4553   35.9484 H   0  0  0  0  0  0  0  0  0  0  0  0
    3.9894   23.4256   34.6129 H   0  0  0  0  0  0  0  0  0  0  0  0
    3.9739   21.8112   33.8253 H   0  0  0  0  0  0  0  0  0  0  0  0
    2.4909   22.8249   33.8253 H   0  0  0  0  0  0  0  0  0  0  0  0
    1.0154   22.3267   36.3600 H   0  0  0  0  0  0  0  0  0  0  0  0
    0.7877   21.8704   34.8835 H   0  0  0  0  0  0  0  0  0  0  0  0
   -1.1725   18.9024   43.0621 H   0  0  0  0  0  0  0  0  0  0  0  0
    2.1269   17.6799   40.7148 H   0  0  0  0  0  0  0  0  0  0  0  0
    2.2934   18.0592   36.7027 H   0  0  0  0  0  0  0  0  0  0  0  0
    4.0262   18.6841   36.6347 H   0  0  0  0  0  0  0  0  0  0  0  0
    3.3935   25.4182   32.7733 H   0  0  0  0  0  0  0  0  0  0  0  0
    2.8166   22.0186   32.5976 H   0  0  0  0  0  0  0  0  0  0  0  0
  1 22  1  0
  1  3  1  0
  1 14  1  0
  2 33  2  0
  4 13  1  0
  4 15  1  0
  5 23  1  0
  5  7  1  0
  6 28  1  0
  7 28  1  0
  9 18  1  0
 10  4  1  0
 11 25  1  0
 13 15  1  0
 14 12  1  0
 16 17  1  0
 16 10  1  0
 17 10  1  0
 18 19  1  0
 19 39  1  0
 19 38  1  0
 23 20  1  0
 23 36  1  0
 24 26  1  0
 24 30  1  0
 24 11  1  0
 25  6  2  0
 27 31  2  0
 28 34  1  0
 30 11  1  0
 32  9  1  0
 32  1  1  0
 32  3  1  0
 32 38  1  0
 33 31  1  0
 33  8  1  0
 34 35  2  0
 34  2  1  0
 35 27  1  0
 36 21  2  0
 36 29  1  0
 37 25  1  0
 37  5  1  0
 38 12  1  0
  2 40  1  0
  4 41  1  0
  5 42  1  0
  6 43  1  0
  7 44  1  0
  7 45  1  0
  8 46  1  0
 10 47  1  0
 11 48  1  0
 12 49  1  0
 12 50  1  0
 13 51  1  0
 13 52  1  0
 14 53  1  0
 14 54  1  0
 15 55  1  0
 15 56  1  0
 16 57  1  0
 16 58  1  0
 17 59  1  0
 17 60  1  0
 18 61  1  0
 18 62  1  0
 19 63  1  0
 20 64  1  0
 20 65  1  0
 20 66  1  0
 22 67  1  0
 23 68  1  0
 24 69  1  0
 26 70  1  0
 26 71  1  0
 26 72  1  0
 30 73  1  0
 30 74  1  0
 31 75  1  0
 35 76  1  0
 37 77  1  0
 37 78  1  0
 38 79  1  0
 39 80  1  0
M  CHG  1  29  -1
M  END
>  <mol_id>  (37) 
2026-09-18-3war-s0-n100-0037

>  <rmsd_to_ref>  (37) 


$$$$

     RDKit          3D

 30 31  0  0  0  0  0  0  0  0999 V2000
    3.0390   18.3590   39.3440 C   0  0  0  0  0  0  0  0  0  0  0  0
    2.5400   20.3130   37.1550 C   0  0  0  0  0  0  0  0  0  0  0  0
    3.0690   22.4320   34.0990 C   0  0  0  0  0  0  0  0  0  0  0  0
    1.4420   22.9540   34.4250 S   0  0  0  0  0  0  0  0  0  0  0  0
    1.4930   22.3240   36.0570 C   0  0  0  0  0  0  0  0  0  0  0  0
    3.8340   22.8710   33.0780 N   0  0  0  0  0  4  0  0  0  0  0  0
    3.4730   21.4650   35.0180 N   0  0  0  0  0  4  0  0  0  0  0  0
    2.6310   21.3070   36.0750 C   0  0  0  0  0  0  0  0  0  0  0  0
    3.2750   19.0990   37.0990 C   0  0  0  0  0  0  0  0  0  0  0  0
    3.7140   18.4270   38.2040 C   0  0  0  0  0  0  0  0  0  0  0  0
    2.4910   19.6130   39.6170 C   0  0  0  0  0  0  0  0  0  0  0  0
    2.3600   20.6020   38.5660 C   0  0  0  0  0  0  0  0  0  0  0  0
    3.7177   18.0667   40.1588 H   0  0  0  0  0  0  0  0  0  0  0  0
    2.2371   17.6107   39.2598 H   0  0  0  0  0  0  0  0  0  0  0  0
    1.5323   20.2682   36.7162 H   0  0  0  0  0  0  0  0  0  0  0  0
    3.4561   23.2404   34.7367 H   0  0  0  0  0  0  0  0  0  0  0  0
    1.6918   23.1340   36.7742 H   0  0  0  0  0  0  0  0  0  0  0  0
    0.5354   21.8650   36.3438 H   0  0  0  0  0  0  0  0  0  0  0  0
    4.6660   23.3485   33.4530 H   0  0  0  0  0  0  0  0  0  0  0  0
    4.1286   22.0704   32.5008 H   0  0  0  0  0  0  0  0  0  0  0  0
    3.2914   23.5293   32.5008 H   0  0  0  0  0  0  0  0  0  0  0  0
    3.5448   20.5630   34.5258 H   0  0  0  0  0  0  0  0  0  0  0  0
    4.3727   21.7846   35.4044 H   0  0  0  0  0  0  0  0  0  0  0  0
    3.2436   22.0029   36.6670 H   0  0  0  0  0  0  0  0  0  0  0  0
    2.6394   18.3890   36.5495 H   0  0  0  0  0  0  0  0  0  0  0  0
    4.2264   19.4465   36.6700 H   0  0  0  0  0  0  0  0  0  0  0  0
    3.8618   17.3858   37.8815 H   0  0  0  0  0  0  0  0  0  0  0  0
    4.5703   19.0494   38.5029 H   0  0  0  0  0  0  0  0  0  0  0  0
    2.1562   19.8524   40.6371 H   0  0  0  0  0  0  0  0  0  0  0  0
    2.1092   21.6334   38.8548 H   0  0  0  0  0  0  0  0  0  0  0  0
  1 11  1  0
  2  9  1  0
  2 12  1  0
  3  6  1  0
  3  4  1  0
  3  7  1  0
  4  5  1  0
  7  8  1  0
  8  5  1  0
  8  2  1  0
  9 10  1  0
 10  1  1  0
 12 11  2  0
  1 13  1  0
  1 14  1  0
  2 15  1  0
  3 16  1  0
  5 17  1  0
  5 18  1  0
  6 19  1  0
  6 20  1  0
  6 21  1  0
  7 22  1  0
  7 23  1  0
  8 24  1  0
  9 25  1  0
  9 26  1  0
 10 27  1  0
 10 28  1  0
 11 29  1  0
 12 30  1  0
M  CHG  2   6   1   7   1
M  END
>  <mol_id>  (38) 
2026-09-18-3war-s0-n100-0038

>  <rmsd_to_ref>  (38) 


$$$$

     RDKit          3D

 74 76  0  0  0  0  0  0  0  0999 V2000
    0.7660   26.6920   28.7270 C   0  0  0  0  0  0  0  0  0  0  0  0
    1.8690   20.5150   39.5190 S   0  0  0  0  0  0  0  0  0  0  0  0
    3.1630   19.8430   37.1430 C   0  0  0  0  0  0  0  0  0  0  0  0
    1.5500   19.3400   40.5820 C   0  0  0  0  0  0  0  0  0  0  0  0
    1.9010   13.8860   41.9030 C   0  0  0  0  0  0  0  0  0  0  0  0
    1.0990   25.6520   32.3520 C   0  0  0  0  0  0  0  0  0  0  0  0
    2.5280   21.2980   36.8970 C   0  0  0  0  0  0  0  0  0  0  0  0
    3.2750   24.2920   33.1280 C   0  0  0  0  0  0  0  0  0  0  0  0
    2.9120   13.4450   39.8340 O   0  0  0  0  0  0  0  0  0  0  0  0
    1.4970   15.3300   40.8100 C   0  0  0  0  0  0  0  0  0  0  0  0
    0.1740   18.2210   42.4720 S   0  0  0  0  0  0  0  0  0  0  0  0
    2.1340   25.4940   30.1530 C   0  0  0  0  0  0  0  0  0  0  0  0
    3.7360   24.2020   31.6670 C   0  0  0  0  0  0  0  0  0  0  0  0
    0.5950   19.5040   41.5860 C   0  0  0  0  0  0  0  0  0  0  0  0
    2.3300   14.5970   37.5700 O   0  0  0  0  0  0  0  0  0  0  0  0
    2.4680   21.6200   35.3860 C   0  0  0  0  0  0  0  0  0  0  0  0
    2.5140   23.0670   34.9520 C   0  0  0  0  0  0  0  0  0  0  0  0
    3.1480   19.5360   38.6260 C   0  0  0  0  0  0  0  0  0  0  0  0
    1.1940   13.4460   42.9980 N   0  0  0  0  0  4  0  0  0  0  0  0
    0.5890   26.9940   27.5910 C   0  0  0  0  0  0  0  0  0  0  0  0
    0.6550   16.7100   41.5160 C   0  0  0  0  0  0  0  0  0  0  0  0
    3.2080   24.9850   30.5210 N   0  0  0  0  0  4  0  0  0  0  0  0
    1.9560   25.0290   33.2880 C   0  0  0  0  0  0  0  0  0  0  0  0
    2.8380   14.9560   40.0400 C   0  0  0  0  0  0  0  0  0  0  0  0
    1.1650   26.3580   29.7810 N   0  0  0  0  0  4  0  0  0  0  0  0
    2.7570   23.0910   33.5770 O   0  0  0  0  0  0  0  0  0  0  0  0
    3.0230   16.8970   38.3160 C   0  0  0  0  0  0  0  0  0  0  0  0
    2.3170   18.2890   40.2630 C   0  0  0  0  0  0  0  0  0  0  0  0
    2.8840   18.1480   38.9760 C   0  0  0  0  0  0  0  0  0  0  0  0
    2.7050   12.8550   41.0910 C   0  0  0  0  0  0  0  0  0  0  0  0
    1.5590   26.5270   31.8810 C   0  0  0  0  0  0  0  0  0  0  0  0
    2.7380   15.6050   38.6140 C   0  0  0  0  0  0  0  0  0  0  0  0
    2.5711   19.0878   36.6052 H   0  0  0  0  0  0  0  0  0  0  0  0
    4.1987   19.8250   36.7729 H   0  0  0  0  0  0  0  0  0  0  0  0
    2.4272   14.4179   42.7094 H   0  0  0  0  0  0  0  0  0  0  0  0
    0.8426   24.9235   31.5687 H   0  0  0  0  0  0  0  0  0  0  0  0
    0.2048   25.9946   32.8933 H   0  0  0  0  0  0  0  0  0  0  0  0
    1.5096   21.3224   37.3121 H   0  0  0  0  0  0  0  0  0  0  0  0
    3.1607   22.0484   37.3936 H   0  0  0  0  0  0  0  0  0  0  0  0
    4.1652   24.7096   33.6211 H   0  0  0  0  0  0  0  0  0  0  0  0
    0.7005   15.6454   40.1200 H   0  0  0  0  0  0  0  0  0  0  0  0
    2.0494   24.8739   29.2484 H   0  0  0  0  0  0  0  0  0  0  0  0
    2.0471   25.9146   31.1657 H   0  0  0  0  0  0  0  0  0  0  0  0
    4.8126   24.4260   31.6934 H   0  0  0  0  0  0  0  0  0  0  0  0
    3.3312   23.2118   31.4108 H   0  0  0  0  0  0  0  0  0  0  0  0
    0.1380   20.4875   41.7704 H   0  0  0  0  0  0  0  0  0  0  0  0
    1.9982   13.7771   38.0148 H   0  0  0  0  0  0  0  0  0  0  0  0
    3.3210   21.1122   34.9122 H   0  0  0  0  0  0  0  0  0  0  0  0
    1.4681   21.2797   35.0789 H   0  0  0  0  0  0  0  0  0  0  0  0
    1.5525   23.5544   35.1710 H   0  0  0  0  0  0  0  0  0  0  0  0
    3.3061   23.6060   35.4924 H   0  0  0  0  0  0  0  0  0  0  0  0
    4.1737   19.7957   38.9267 H   0  0  0  0  0  0  0  0  0  0  0  0
    1.6738   13.7446   43.8591 H   0  0  0  0  0  0  0  0  0  0  0  0
    0.2451   13.8460   42.9774 H   0  0  0  0  0  0  0  0  0  0  0  0
    1.1338   12.4180   42.9774 H   0  0  0  0  0  0  0  0  0  0  0  0
    0.4252   27.2735   26.5398 H   0  0  0  0  0  0  0  0  0  0  0  0
    0.3811   17.1421   40.5422 H   0  0  0  0  0  0  0  0  0  0  0  0
    0.6944   16.1769   42.4774 H   0  0  0  0  0  0  0  0  0  0  0  0
    3.4323   24.3702   29.7256 H   0  0  0  0  0  0  0  0  0  0  0  0
    3.5693   25.8761   30.8902 H   0  0  0  0  0  0  0  0  0  0  0  0
    2.1960   25.8366   33.9953 H   0  0  0  0  0  0  0  0  0  0  0  0
    1.3344   24.1359   33.4491 H   0  0  0  0  0  0  0  0  0  0  0  0
    3.7123   15.3036   40.6098 H   0  0  0  0  0  0  0  0  0  0  0  0
    1.4501   27.2440   30.2223 H   0  0  0  0  0  0  0  0  0  0  0  0
    0.3704   25.7458   30.0150 H   0  0  0  0  0  0  0  0  0  0  0  0
    3.4724   17.0027   37.3176 H   0  0  0  0  0  0  0  0  0  0  0  0
    3.1573   18.2922   40.9728 H   0  0  0  0  0  0  0  0  0  0  0  0
    1.5993   17.4560   40.2959 H   0  0  0  0  0  0  0  0  0  0  0  0
    2.1360   11.9193   40.9873 H   0  0  0  0  0  0  0  0  0  0  0  0
    3.6552   12.5999   41.5830 H   0  0  0  0  0  0  0  0  0  0  0  0
    1.9206   27.2148   32.6595 H   0  0  0  0  0  0  0  0  0  0  0  0
    2.4042   26.2046   31.2552 H   0  0  0  0  0  0  0  0  0  0  0  0
    0.8143   27.0405   31.2552 H   0  0  0  0  0  0  0  0  0  0  0  0
    1.6823   15.8733   38.7675 H   0  0  0  0  0  0  0  0  0  0  0  0
  1 25  1  0
  2  4  1  0
  4 14  2  0
  5 19  1  0
  6 23  1  0
  7  3  1  0
  8 13  1  0
  8 23  1  0
  8 26  1  0
  9 30  1  0
 10 21  1  0
 10  5  1  0
 12 22  1  0
 14 11  1  0
 16  7  1  0
 17 16  1  0
 18  3  1  0
 18 29  1  0
 18  2  1  0
 20  1  3  0
 21 11  1  0
 22 13  1  0
 24  9  1  0
 24 10  1  0
 25 12  1  0
 26 17  1  0
 27 32  1  0
 27 29  2  0
 28  4  1  0
 29 28  1  0
 30  5  1  0
 31  6  1  0
 32 15  1  0
 32 24  1  0
  3 33  1  0
  3 34  1  0
  5 35  1  0
  6 36  1  0
  6 37  1  0
  7 38  1  0
  7 39  1  0
  8 40  1  0
 10 41  1  0
 12 42  1  0
 12 43  1  0
 13 44  1  0
 13 45  1  0
 14 46  1  0
 15 47  1  0
 16 48  1  0
 16 49  1  0
 17 50  1  0
 17 51  1  0
 18 52  1  0
 19 53  1  0
 19 54  1  0
 19 55  1  0
 20 56  1  0
 21 57  1  0
 21 58  1  0
 22 59  1  0
 22 60  1  0
 23 61  1  0
 23 62  1  0
 24 63  1  0
 25 64  1  0
 25 65  1  0
 27 66  1  0
 28 67  1  0
 28 68  1  0
 30 69  1  0
 30 70  1  0
 31 71  1  0
 31 72  1  0
 31 73  1  0
 32 74  1  0
M  CHG  3  19   1  22   1  25   1
M  END
>  <mol_id>  (39) 
2026-09-18-3war-s0-n100-0039

>  <rmsd_to_ref>  (39) 


$$$$

     RDKit          3D

 59 62  0  0  0  0  0  0  0  0999 V2000
    2.1510   19.7910   39.1090 C   0  0  0  0  0  0  0  0  0  0  0  0
    2.8070   23.6560   31.9020 C   0  0  0  0  0  0  0  0  0  0  0  0
    3.8670   17.5100   38.0960 O   0  0  0  0  0  0  0  0  0  0  0  0
    2.2340   25.8900   29.7210 C   0  0  0  0  0  0  0  0  0  0  0  0
    4.1400   21.8020   32.8850 C   0  0  0  0  0  0  0  0  0  0  0  0
    2.7680   23.6290   33.2730 C   0  0  0  0  0  0  0  0  0  0  0  0
    1.9400   25.3480   30.4470 C   0  0  0  0  0  0  0  0  0  0  0  0
    4.6580   25.2210   29.1730 C   0  0  0  0  0  0  0  0  0  0  0  0
    4.0870   22.8660   31.7790 C   0  0  0  0  0  0  0  0  0  0  0  0
    3.2850   22.4790   33.9310 C   0  0  0  0  0  0  0  0  0  0  0  0
    1.6370   17.0580   41.5840 N   0  0  0  0  0  0  0  0  0  0  0  0
    4.1740   16.3810   37.5650 C   0  0  0  0  0  0  0  0  0  0  0  0
    0.2310   21.4660   41.9460 C   0  0  0  0  0  0  0  0  0  0  0  0
    0.9170   17.2800   42.6320 C   0  0  0  0  0  0  0  0  0  0  0  0
    2.3030   18.4600   39.6450 C   0  0  0  0  0  0  0  0  0  0  0  0
    1.0910   19.1910   41.5660 C   0  0  0  0  0  0  0  0  0  0  0  0
    0.9570   20.4590   41.0910 C   0  0  0  0  0  0  0  0  0  0  0  0
    4.9930   23.5760   30.8770 C   0  0  0  0  0  0  0  0  0  0  0  0
    0.5710   18.5940   42.6100 N   0  0  0  0  0  0  0  0  0  0  0  0
    4.1560   24.4820   30.2700 C   0  0  0  0  0  0  0  0  0  0  0  0
    2.6760   20.1210   37.7140 C   0  0  0  0  0  0  0  0  0  0  0  0
    2.8800   17.3160   38.9820 N   0  0  0  0  0  0  0  0  0  0  0  0
    1.5280   20.7770   39.7950 C   0  0  0  0  0  0  0  0  0  0  0  0
    3.4100   15.4290   38.1750 N   0  0  0  0  0  0  0  0  0  0  0  0
    2.6080   15.9760   39.1720 C   0  0  0  0  0  0  0  0  0  0  0  0
    3.0660   24.6210   31.1060 C   0  0  0  0  0  0  0  0  0  0  0  0
    1.7420   18.1950   40.8670 C   0  0  0  0  0  0  0  0  0  0  0  0
    1.7705   23.4408   31.6032 H   0  0  0  0  0  0  0  0  0  0  0  0
    2.7241   26.7935   30.1129 H   0  0  0  0  0  0  0  0  0  0  0  0
    2.9482   25.3230   29.1058 H   0  0  0  0  0  0  0  0  0  0  0  0
    1.3692   26.1795   29.1058 H   0  0  0  0  0  0  0  0  0  0  0  0
    5.1667   21.6332   33.2419 H   0  0  0  0  0  0  0  0  0  0  0  0
    3.8019   20.7995   32.5840 H   0  0  0  0  0  0  0  0  0  0  0  0
    3.3387   24.4973   33.6341 H   0  0  0  0  0  0  0  0  0  0  0  0
    1.6957   23.6285   33.5185 H   0  0  0  0  0  0  0  0  0  0  0  0
    1.4502   25.9914   31.1927 H   0  0  0  0  0  0  0  0  0  0  0  0
    1.2447   24.5964   30.0449 H   0  0  0  0  0  0  0  0  0  0  0  0
    5.2400   26.0777   29.5436 H   0  0  0  0  0  0  0  0  0  0  0  0
    5.3051   24.5753   28.5612 H   0  0  0  0  0  0  0  0  0  0  0  0
    3.8192   25.5846   28.5612 H   0  0  0  0  0  0  0  0  0  0  0  0
    4.6021   22.0271   31.2882 H   0  0  0  0  0  0  0  0  0  0  0  0
    2.4692   21.8164   34.2558 H   0  0  0  0  0  0  0  0  0  0  0  0
    3.8537   22.7340   34.8374 H   0  0  0  0  0  0  0  0  0  0  0  0
    3.9610   16.4013   36.4860 H   0  0  0  0  0  0  0  0  0  0  0  0
    5.2449   16.1658   37.6951 H   0  0  0  0  0  0  0  0  0  0  0  0
    0.3984   21.2338   43.0081 H   0  0  0  0  0  0  0  0  0  0  0  0
    0.6109   22.4748   41.7269 H   0  0  0  0  0  0  0  0  0  0  0  0
   -0.8462   21.4243   41.7269 H   0  0  0  0  0  0  0  0  0  0  0  0
    0.0142   16.6520   42.6091 H   0  0  0  0  0  0  0  0  0  0  0  0
    1.4756   17.0382   43.5483 H   0  0  0  0  0  0  0  0  0  0  0  0
    5.7924   24.0850   31.4355 H   0  0  0  0  0  0  0  0  0  0  0  0
    5.5138   22.9156   30.1680 H   0  0  0  0  0  0  0  0  0  0  0  0
    3.5658   24.6040   29.3498 H   0  0  0  0  0  0  0  0  0  0  0  0
    3.6044   20.7046   37.8002 H   0  0  0  0  0  0  0  0  0  0  0  0
    2.8789   19.1877   37.1683 H   0  0  0  0  0  0  0  0  0  0  0  0
    1.9230   20.7085   37.1683 H   0  0  0  0  0  0  0  0  0  0  0  0
    1.4561   21.7936   39.3811 H   0  0  0  0  0  0  0  0  0  0  0  0
    1.9480   15.4830   39.9009 H   0  0  0  0  0  0  0  0  0  0  0  0
    3.3797   25.3138   31.9007 H   0  0  0  0  0  0  0  0  0  0  0  0
  1 15  2  0
  1 23  1  0
  2  6  1  0
  3 22  1  0
  4  7  1  0
  5 10  1  0
  6 10  1  0
  9 18  1  0
  9  2  1  0
  9  5  1  0
 11 14  1  0
 12  3  1  0
 12 24  1  0
 15 27  1  0
 16 19  2  0
 17 16  1  0
 17 13  1  0
 19 14  1  0
 20  8  1  0
 20 18  1  0
 20 26  1  0
 21  1  1  0
 22 25  1  0
 22 15  1  0
 23 17  2  0
 24 25  2  0
 26  7  1  0
 26  2  1  0
 27 16  1  0
 27 11  2  0
  2 28  1  0
  4 29  1  0
  4 30  1  0
  4 31  1  0
  5 32  1  0
  5 33  1  0
  6 34  1  0
  6 35  1  0
  7 36  1  0
  7 37  1  0
  8 38  1  0
  8 39  1  0
  8 40  1  0
  9 41  1  0
 10 42  1  0
 10 43  1  0
 12 44  1  0
 12 45  1  0
 13 46  1  0
 13 47  1  0
 13 48  1  0
 14 49  1  0
 14 50  1  0
 18 51  1  0
 18 52  1  0
 20 53  1  0
 21 54  1  0
 21 55  1  0
 21 56  1  0
 23 57  1  0
 25 58  1  0
 26 59  1  0
M  END
>  <mol_id>  (40) 
2026-09-18-3war-s0-n100-0040

>  <rmsd_to_ref>  (40) 


$$$$

     RDKit          3D

 54 55  0  0  0  0  0  0  0  0999 V2000
    3.1040   15.7890   37.9080 C   0  0  0  0  0  0  0  0  0  0  0  0
    0.9280   19.9200   42.5770 C   0  0  0  0  0  0  0  0  0  0  0  0
    0.1930   18.6260   42.6140 C   0  0  0  0  0  0  0  0  0  0  0  0
    1.0650   20.3610   41.1600 C   0  0  0  0  0  0  0  0  0  0  0  0
    2.5880   25.9010   32.4070 C   0  0  0  0  0  0  0  0  0  0  0  0
    2.1140   18.3180   40.1940 C   0  0  0  0  0  0  0  0  0  0  0  0
    1.9510   15.5350   36.9390 O   0  0  0  0  0  0  0  0  0  0  0  0
    1.6560   17.3190   40.9290 C   0  0  0  0  0  0  0  0  0  0  0  0
    4.1650   24.1510   32.8230 N   0  0  0  0  0  0  0  0  0  0  0  0
    3.2020   25.0010   33.1310 C   0  0  0  0  0  0  0  0  0  0  0  0
    3.4530   17.9880   36.8070 N   0  0  0  0  0  0  0  0  0  0  0  0
    1.3970   26.3340   31.2000 C   0  0  0  0  0  0  0  0  0  0  0  0
    3.1080   17.2370   37.9350 C   0  0  0  0  0  0  0  0  0  0  0  0
    2.6490   18.1740   38.8480 C   0  0  0  0  0  0  0  0  0  0  0  0
    2.7940   19.3760   38.1400 C   0  0  0  0  0  0  0  0  0  0  0  0
    3.2480   19.2100   37.0010 C   0  0  0  0  0  0  0  0  0  0  0  0
    0.7110   17.4750   41.9720 C   0  0  0  0  0  0  0  0  0  0  0  0
    3.4150   21.1490   35.1870 N   0  0  0  0  0  0  0  0  0  0  0  0
    4.5130   24.1220   31.6990 C   0  0  0  0  0  0  0  0  0  0  0  0
    4.1790   14.8730   37.2560 C   0  0  0  0  0  0  0  0  0  0  0  0
    4.0290   24.9690   31.0860 C   0  0  0  0  0  0  0  0  0  0  0  0
    2.1360   19.6730   40.5250 N   0  0  0  0  0  4  0  0  0  0  0  0
    3.2970   20.3150   36.0340 C   0  0  0  0  0  0  0  0  0  0  0  0
    1.3660   26.4370   32.4110 C   0  0  0  0  0  0  0  0  0  0  0  0
    3.5540   25.9990   31.6160 O   0  0  0  0  0  0  0  0  0  0  0  0
    3.1671   15.5363   38.9767 H   0  0  0  0  0  0  0  0  0  0  0  0
    0.3696   20.6775   43.1465 H   0  0  0  0  0  0  0  0  0  0  0  0
    1.9249   19.7936   43.0245 H   0  0  0  0  0  0  0  0  0  0  0  0
    0.0729   18.3647   43.6757 H   0  0  0  0  0  0  0  0  0  0  0  0
   -0.7114   18.8443   42.0271 H   0  0  0  0  0  0  0  0  0  0  0  0
    0.1290   20.1483   40.6227 H   0  0  0  0  0  0  0  0  0  0  0  0
    1.2757   21.4405   41.1424 H   0  0  0  0  0  0  0  0  0  0  0  0
    2.9358   26.6888   33.0914 H   0  0  0  0  0  0  0  0  0  0  0  0
    3.1260   18.2002   40.6088 H   0  0  0  0  0  0  0  0  0  0  0  0
    1.1236   15.3527   37.4511 H   0  0  0  0  0  0  0  0  0  0  0  0
    2.0312   16.3068   40.7178 H   0  0  0  0  0  0  0  0  0  0  0  0
    2.8577   24.9420   34.1741 H   0  0  0  0  0  0  0  0  0  0  0  0
    1.7041   25.3137   30.9265 H   0  0  0  0  0  0  0  0  0  0  0  0
    0.3975   26.5387   30.7889 H   0  0  0  0  0  0  0  0  0  0  0  0
    2.1175   27.0564   30.7889 H   0  0  0  0  0  0  0  0  0  0  0  0
    3.4451   16.4125   38.5804 H   0  0  0  0  0  0  0  0  0  0  0  0
    2.5321   20.3612   38.5532 H   0  0  0  0  0  0  0  0  0  0  0  0
    0.3042   16.5271   42.3540 H   0  0  0  0  0  0  0  0  0  0  0  0
    5.6068   24.2325   31.6603 H   0  0  0  0  0  0  0  0  0  0  0  0
    4.2015   23.1602   31.2655 H   0  0  0  0  0  0  0  0  0  0  0  0
    4.7633   14.3752   38.0439 H   0  0  0  0  0  0  0  0  0  0  0  0
    3.6844   14.1144   36.6315 H   0  0  0  0  0  0  0  0  0  0  0  0
    4.8495   15.4817   36.6315 H   0  0  0  0  0  0  0  0  0  0  0  0
    3.2035   24.5062   30.5252 H   0  0  0  0  0  0  0  0  0  0  0  0
    4.8947   25.3754   30.5425 H   0  0  0  0  0  0  0  0  0  0  0  0
    2.9500   19.7944   41.1443 H   0  0  0  0  0  0  0  0  0  0  0  0
    2.1109   20.1005   39.5882 H   0  0  0  0  0  0  0  0  0  0  0  0
    0.5957   25.8284   32.9073 H   0  0  0  0  0  0  0  0  0  0  0  0
    1.1450   27.3903   32.9134 H   0  0  0  0  0  0  0  0  0  0  0  0
  1 20  1  0
  2  3  1  0
  4  2  1  0
  5 24  1  0
  5 10  1  0
  6 14  1  0
  6 22  1  0
  6  8  1  0
  7  1  1  0
  8 17  2  0
  9 10  2  0
 11 16  2  0
 11 13  1  0
 12 24  1  0
 13  1  1  0
 13 14  1  0
 15 14  2  0
 16 15  1  0
 17  3  1  0
 18 23  3  0
 19  9  1  0
 21 25  1  0
 21 19  1  0
 22  4  1  0
 23 16  1  0
 25  5  1  0
  1 26  1  0
  2 27  1  0
  2 28  1  0
  3 29  1  0
  3 30  1  0
  4 31  1  0
  4 32  1  0
  5 33  1  0
  6 34  1  0
  7 35  1  0
  8 36  1  0
 10 37  1  0
 12 38  1  0
 12 39  1  0
 12 40  1  0
 13 41  1  0
 15 42  1  0
 17 43  1  0
 19 44  1  0
 19 45  1  0
 20 46  1  0
 20 47  1  0
 20 48  1  0
 21 49  1  0
 21 50  1  0
 22 51  1  0
 22 52  1  0
 24 53  1  0
 24 54  1  0
M  CHG  1  22   1
M  END
>  <mol_id>  (41) 
2026-09-18-3war-s0-n100-0041

>  <rmsd_to_ref>  (41) 


$$$$

     RDKit          3D

 49 51  0  0  0  0  0  0  0  0999 V2000
    0.8370   17.5830   42.5650 Cl  0  0  0  0  0  0  0  0  0  0  0  0
    1.5870   26.2260   31.6770 C   0  0  0  0  0  0  0  0  0  0  0  0
    3.2120   17.9620   39.5910 C   0  0  0  0  0  0  0  0  0  0  0  0
    4.0900   23.5720   31.2500 C   0  0  0  0  0  0  0  0  0  0  0  0
    2.2420   21.5580   36.3990 C   0  0  0  0  0  0  0  0  0  0  0  0
    2.1110   24.8590   31.9520 C   0  0  0  0  0  0  0  0  0  0  0  0
    2.2450   24.2140   33.4710 S   0  0  0  0  0  0  0  0  0  0  0  0
    2.6970   24.4490   29.7350 O   0  0  0  0  0  0  0  0  0  0  0  0
    2.2220   19.9950   39.7390 C   0  0  0  0  0  0  0  0  0  0  0  0
    2.4620   17.4620   40.6180 C   0  0  0  0  0  0  0  0  0  0  0  0
    2.3810   20.9500   37.5170 C   0  0  0  0  0  0  0  0  0  0  0  0
    2.7620   27.1230   31.2460 C   0  0  0  0  0  0  0  0  0  0  0  0
    4.2180   26.1450   31.1460 S   0  0  0  0  0  0  0  0  0  0  0  0
    3.3180   21.6010   35.5070 C   0  0  0  0  0  0  0  0  0  0  0  0
    3.7150   17.1270   38.5410 O   0  0  0  0  0  0  0  0  0  0  0  0
    2.7380   22.7000   33.3840 C   0  0  0  0  0  0  0  0  0  0  0  0
    1.4550   19.6810   40.8000 C   0  0  0  0  0  0  0  0  0  0  0  0
    3.2620   24.6800   30.9890 C   0  0  0  0  0  0  0  0  0  0  0  0
    1.6410   18.3160   41.2240 C   0  0  0  0  0  0  0  0  0  0  0  0
    3.3230   19.2140   39.3960 C   0  0  0  0  0  0  0  0  0  0  0  0
    1.9200   21.1180   38.7710 C   0  0  0  0  0  0  0  0  0  0  0  0
    4.3290   22.7560   32.7290 S   0  0  0  0  0  0  0  0  0  0  0  0
    2.9270   22.2240   34.5780 N   0  0  0  0  0  4  0  0  0  0  0  0
    1.2800   22.0630   39.1890 O   0  0  0  0  0  0  0  0  0  0  0  0
    0.8394   26.1815   30.8713 H   0  0  0  0  0  0  0  0  0  0  0  0
    1.1120   26.6360   32.5805 H   0  0  0  0  0  0  0  0  0  0  0  0
    3.8959   17.7416   40.4239 H   0  0  0  0  0  0  0  0  0  0  0  0
    5.0957   23.9010   30.9495 H   0  0  0  0  0  0  0  0  0  0  0  0
    3.4993   22.8017   30.7326 H   0  0  0  0  0  0  0  0  0  0  0  0
    1.4067   21.0740   35.8717 H   0  0  0  0  0  0  0  0  0  0  0  0
    2.1008   22.6096   36.6891 H   0  0  0  0  0  0  0  0  0  0  0  0
    1.2759   24.1618   31.7892 H   0  0  0  0  0  0  0  0  0  0  0  0
    1.7865   24.0767   29.8468 H   0  0  0  0  0  0  0  0  0  0  0  0
    2.8022   20.6898   40.3640 H   0  0  0  0  0  0  0  0  0  0  0  0
    2.5332   16.4088   40.9275 H   0  0  0  0  0  0  0  0  0  0  0  0
    2.0515   19.9285   37.2761 H   0  0  0  0  0  0  0  0  0  0  0  0
    3.3696   21.3833   37.7291 H   0  0  0  0  0  0  0  0  0  0  0  0
    2.5467   27.5663   30.2626 H   0  0  0  0  0  0  0  0  0  0  0  0
    2.9044   27.9291   31.9808 H   0  0  0  0  0  0  0  0  0  0  0  0
    4.1826   22.0996   35.9694 H   0  0  0  0  0  0  0  0  0  0  0  0
    3.6509   20.5939   35.2157 H   0  0  0  0  0  0  0  0  0  0  0  0
    4.1838   16.3487   38.9342 H   0  0  0  0  0  0  0  0  0  0  0  0
    2.0068   22.1082   32.8138 H   0  0  0  0  0  0  0  0  0  0  0  0
    1.7145   20.3492   41.6344 H   0  0  0  0  0  0  0  0  0  0  0  0
    0.4029   19.8007   40.5021 H   0  0  0  0  0  0  0  0  0  0  0  0
    4.1816   19.5694   39.9847 H   0  0  0  0  0  0  0  0  0  0  0  0
    3.4362   19.3310   38.3081 H   0  0  0  0  0  0  0  0  0  0  0  0
    3.1304   23.1407   35.0014 H   0  0  0  0  0  0  0  0  0  0  0  0
    2.4744   21.3585   34.2509 H   0  0  0  0  0  0  0  0  0  0  0  0
  3 15  1  0
  3 10  1  0
  4 22  1  0
  5 11  1  0
  6  2  1  0
  6  7  1  0
  9 21  1  0
  9 17  1  0
 10 19  2  0
 11 21  1  0
 12  2  1  0
 13 12  1  0
 14  5  1  0
 16  7  1  0
 16 23  1  0
 17 19  1  0
 18  8  1  0
 18 13  1  0
 18  4  1  0
 18  6  1  0
 19  1  1  0
 20  3  1  0
 20  9  1  0
 21 24  2  0
 22 16  1  0
 23 14  1  0
  2 25  1  0
  2 26  1  0
  3 27  1  0
  4 28  1  0
  4 29  1  0
  5 30  1  0
  5 31  1  0
  6 32  1  0
  8 33  1  0
  9 34  1  0
 10 35  1  0
 11 36  1  0
 11 37  1  0
 12 38  1  0
 12 39  1  0
 14 40  1  0
 14 41  1  0
 15 42  1  0
 16 43  1  0
 17 44  1  0
 17 45  1  0
 20 46  1  0
 20 47  1  0
 23 48  1  0
 23 49  1  0
M  CHG  1  23   1
M  END
>  <mol_id>  (42) 
2026-09-18-3war-s0-n100-0042

>  <rmsd_to_ref>  (42) 


$$$$

     RDKit          3D

 80 81  0  0  0  0  0  0  0  0999 V2000
    2.2530   19.8830   36.7150 C   0  0  0  0  0  0  0  0  0  0  0  0
    0.9030   26.6250   33.2200 C   0  0  0  0  0  0  0  0  0  0  0  0
    2.6900   20.9380   35.6110 C   0  0  0  0  0  0  0  0  0  0  0  0
    3.0370   27.5560   33.9810 O   0  0  0  0  0  0  0  0  0  0  0  0
    2.3640   16.4180   40.0200 C   0  0  0  0  0  0  0  0  0  0  0  0
    3.2580   15.0360   38.2920 O   0  0  0  0  0  0  0  0  0  0  0  0
    2.6450   17.6900   40.1380 C   0  0  0  0  0  0  0  0  0  0  0  0
    1.3800   15.6760   40.7050 C   0  0  0  0  0  0  0  0  0  0  0  0
    2.3740   25.0650   31.7290 C   0  0  0  0  0  0  0  0  0  0  0  0
    2.1580   22.0320   34.3870 C   0  0  0  0  0  0  0  0  0  0  0  0
    1.1200   28.5850   31.0400 S   0  0  0  0  0  0  0  0  0  0  0  0
    2.9950   15.7370   38.9480 C   0  0  0  0  0  0  0  0  0  0  0  0
   -2.5100   12.1650   42.2910 C   0  0  0  0  0  0  0  0  0  0  0  0
    2.4020   25.4370   32.9330 C   0  0  0  0  0  0  0  0  0  0  0  0
    3.9320   23.0950   32.3420 C   0  0  0  0  0  0  0  0  0  0  0  0
    1.8670   27.1590   33.5460 C   0  0  0  0  0  0  0  0  0  0  0  0
   -0.0380   11.8770   43.0430 C   0  0  0  0  0  0  0  0  0  0  0  0
    2.6210   24.7320   33.8920 C   0  0  0  0  0  0  0  0  0  0  0  0
   -0.1920   13.3990   42.6630 C   0  0  0  0  0  0  0  0  0  0  0  0
    3.2420   23.9250   31.3780 C   0  0  0  0  0  0  0  0  0  0  0  0
    1.8070   14.1980   41.0730 C   0  0  0  0  0  0  0  0  0  0  0  0
    4.4370   20.8310   33.6420 C   0  0  0  0  0  0  0  0  0  0  0  0
    3.6650   18.5850   39.2460 C   0  0  0  0  0  0  0  0  0  0  0  0
    3.6950   20.2660   34.7800 C   0  0  0  0  0  0  0  0  0  0  0  0
    1.3480   25.3090   30.6140 C   0  0  0  0  0  0  0  0  0  0  0  0
    3.4950   22.1960   33.3870 C   0  0  0  0  0  0  0  0  0  0  0  0
    3.0810   19.8830   39.3710 C   0  0  0  0  0  0  0  0  0  0  0  0
    1.2440   28.8310   32.6690 C   0  0  0  0  0  0  0  0  0  0  0  0
   -1.4690   13.2680   41.7630 O   0  0  0  0  0  0  0  0  0  0  0  0
    0.6110   26.7780   30.7230 S   0  0  0  0  0  0  0  0  0  0  0  0
    1.5960   21.4730   38.8830 O   0  0  0  0  0  0  0  0  0  0  0  0
    2.5050   20.5190   38.2460 C   0  0  0  0  0  0  0  0  0  0  0  0
    1.1460   13.9200   42.1270 C   0  0  0  0  0  0  0  0  0  0  0  0
   -1.3770   11.1750   42.9710 O   0  0  0  0  0  0  0  0  0  0  0  0
    2.8490   18.9658   36.5987 H   0  0  0  0  0  0  0  0  0  0  0  0
    1.1848   19.6515   36.5910 H   0  0  0  0  0  0  0  0  0  0  0  0
    0.3381   26.3121   34.1105 H   0  0  0  0  0  0  0  0  0  0  0  0
    0.2889   27.3116   32.6187 H   0  0  0  0  0  0  0  0  0  0  0  0
    1.1593   25.7402   32.6187 H   0  0  0  0  0  0  0  0  0  0  0  0
    2.5439   21.6397   36.4454 H   0  0  0  0  0  0  0  0  0  0  0  0
    3.0382   27.5564   34.9710 H   0  0  0  0  0  0  0  0  0  0  0  0
    1.6741   18.1977   40.0403 H   0  0  0  0  0  0  0  0  0  0  0  0
    3.2402   17.6390   41.0616 H   0  0  0  0  0  0  0  0  0  0  0  0
    1.1386   16.2058   41.6383 H   0  0  0  0  0  0  0  0  0  0  0  0
    0.5217   15.5916   40.0223 H   0  0  0  0  0  0  0  0  0  0  0  0
    2.5706   26.1468   31.7604 H   0  0  0  0  0  0  0  0  0  0  0  0
    1.3036   21.6152   33.8335 H   0  0  0  0  0  0  0  0  0  0  0  0
    1.8130   22.9929   34.7965 H   0  0  0  0  0  0  0  0  0  0  0  0
   -3.0651   11.6789   41.4752 H   0  0  0  0  0  0  0  0  0  0  0  0
   -3.3270   12.5142   42.9395 H   0  0  0  0  0  0  0  0  0  0  0  0
    4.5638   22.4533   31.7103 H   0  0  0  0  0  0  0  0  0  0  0  0
    4.1994   23.9201   33.0185 H   0  0  0  0  0  0  0  0  0  0  0  0
    1.9894   27.5592   32.5287 H   0  0  0  0  0  0  0  0  0  0  0  0
    0.6604   11.3975   42.3413 H   0  0  0  0  0  0  0  0  0  0  0  0
    0.3474   11.8039   44.0707 H   0  0  0  0  0  0  0  0  0  0  0  0
    2.6211   25.1640   34.9036 H   0  0  0  0  0  0  0  0  0  0  0  0
    2.8200   23.6592   33.7520 H   0  0  0  0  0  0  0  0  0  0  0  0
   -0.3644   14.1817   43.4165 H   0  0  0  0  0  0  0  0  0  0  0  0
    2.6090   23.2390   30.7960 H   0  0  0  0  0  0  0  0  0  0  0  0
    4.0909   24.4493   30.9148 H   0  0  0  0  0  0  0  0  0  0  0  0
    1.5469   13.5056   40.2588 H   0  0  0  0  0  0  0  0  0  0  0  0
    2.8922   14.1061   41.2276 H   0  0  0  0  0  0  0  0  0  0  0  0
    5.4734   21.0860   33.9081 H   0  0  0  0  0  0  0  0  0  0  0  0
    4.5611   20.1664   32.7743 H   0  0  0  0  0  0  0  0  0  0  0  0
    3.6831   18.2508   38.1982 H   0  0  0  0  0  0  0  0  0  0  0  0
    4.7145   18.5300   39.5708 H   0  0  0  0  0  0  0  0  0  0  0  0
    3.1779   19.3861   34.3697 H   0  0  0  0  0  0  0  0  0  0  0  0
    4.5152   20.2129   35.5110 H   0  0  0  0  0  0  0  0  0  0  0  0
    1.8637   25.2473   29.6443 H   0  0  0  0  0  0  0  0  0  0  0  0
    0.5661   24.5419   30.7147 H   0  0  0  0  0  0  0  0  0  0  0  0
    2.8887   21.6410   32.6560 H   0  0  0  0  0  0  0  0  0  0  0  0
    2.2873   19.8007   40.1281 H   0  0  0  0  0  0  0  0  0  0  0  0
    3.9446   20.5233   39.6041 H   0  0  0  0  0  0  0  0  0  0  0  0
    0.8112   27.9725   33.2035 H   0  0  0  0  0  0  0  0  0  0  0  0
    2.3037   28.9379   32.9441 H   0  0  0  0  0  0  0  0  0  0  0  0
    0.6996   29.7464   32.9441 H   0  0  0  0  0  0  0  0  0  0  0  0
    1.6713   21.3940   39.8670 H   0  0  0  0  0  0  0  0  0  0  0  0
    3.2838   20.8974   37.5675 H   0  0  0  0  0  0  0  0  0  0  0  0
    1.1989   14.8872   42.6483 H   0  0  0  0  0  0  0  0  0  0  0  0
    1.5585   12.9003   42.1312 H   0  0  0  0  0  0  0  0  0  0  0  0
  1 32  1  0
  3  1  1  0
  5  7  1  0
  5  8  1  0
  6 12  2  0
  8 21  1  0
  9 25  1  0
  9 14  1  0
 10  3  1  0
 11 28  1  0
 12  5  2  0
 13 34  1  0
 14 16  1  0
 14 18  2  3
 16  2  1  0
 16  4  1  0
 19 33  1  0
 19 17  1  0
 20  9  1  0
 20 15  1  0
 21 33  1  0
 22 24  1  0
 23 27  1  0
 23  7  1  0
 24  3  1  0
 25 30  1  0
 26 15  1  0
 26 22  1  0
 26 10  1  0
 29 13  1  0
 29 19  1  0
 30 11  1  0
 32 31  1  0
 32 27  1  0
 34 17  1  0
  1 35  1  0
  1 36  1  0
  2 37  1  0
  2 38  1  0
  2 39  1  0
  3 40  1  0
  4 41  1  0
  7 42  1  0
  7 43  1  0
  8 44  1  0
  8 45  1  0
  9 46  1  0
 10 47  1  0
 10 48  1  0
 13 49  1  0
 13 50  1  0
 15 51  1  0
 15 52  1  0
 16 53  1  0
 17 54  1  0
 17 55  1  0
 18 56  1  0
 18 57  1  0
 19 58  1  0
 20 59  1  0
 20 60  1  0
 21 61  1  0
 21 62  1  0
 22 63  1  0
 22 64  1  0
 23 65  1  0
 23 66  1  0
 24 67  1  0
 24 68  1  0
 25 69  1  0
 25 70  1  0
 26 71  1  0
 27 72  1  0
 27 73  1  0
 28 74  1  0
 28 75  1  0
 28 76  1  0
 31 77  1  0
 32 78  1  0
 33 79  1  0
 33 80  1  0
M  END
>  <mol_id>  (43) 
2026-09-18-3war-s0-n100-0043

>  <rmsd_to_ref>  (43) 


$$$$

     RDKit          3D

 67 71  0  0  0  0  0  0  0  0999 V2000
    1.9680   19.4460   40.0470 C   0  0  0  0  0  0  0  0  0  0  0  0
    1.0150   25.7130   30.3120 C   0  0  0  0  0  0  0  0  0  0  0  0
    3.1560   20.1460   36.5510 N   0  0  0  0  0  0  0  0  0  0  0  0
    3.2990   16.9500   37.7940 C   0  0  0  0  0  0  0  0  0  0  0  0
    0.1800   17.3910   43.2330 O   0  0  0  0  0  0  0  0  0  0  0  0
    2.0510   21.5960   38.4840 S   0  0  0  0  0  0  0  0  0  0  0  0
    1.5120   20.8450   39.9000 C   0  0  0  0  0  0  0  0  0  0  0  0
    0.2140   20.7270   41.8740 C   0  0  0  0  0  0  0  0  0  0  0  0
    1.4200   26.8790   32.3550 C   0  0  0  0  0  0  0  0  0  0  0  0
    4.9530   15.6700   37.1900 N   0  0  0  0  0  4  0  0  0  0  0  0
    2.2560   24.7560   33.4810 C   0  0  0  0  0  0  0  0  0  0  0  0
    4.3680   23.2980   32.1470 C   0  0  0  0  0  0  0  0  0  0  0  0
    0.5910   19.3430   42.1240 C   0  0  0  0  0  0  0  0  0  0  0  0
    1.6800   25.7910   31.6450 C   0  0  0  0  0  0  0  0  0  0  0  0
    1.6400   26.3380   34.0150 S   0  0  0  0  0  0  0  0  0  0  0  0
    1.1560   24.5140   29.3780 C   0  0  0  0  0  0  0  0  0  0  0  0
    2.7400   13.9980   36.4530 O   0  0  0  0  0  0  0  0  0  0  0  0
    3.3650   17.4240   36.6180 O   0  0  0  0  0  0  0  0  0  0  0  0
    0.7490   21.4630   40.8160 C   0  0  0  0  0  0  0  0  0  0  0  0
    0.6330   26.7060   29.6160 C   0  0  0  0  0  0  0  0  0  0  0  0
    3.8670   22.8160   33.3510 C   0  0  0  0  0  0  0  0  0  0  0  0
   -0.0730   18.6030   43.2150 C   0  0  0  0  0  0  0  0  0  0  0  0
    2.5310   24.9490   32.1890 C   0  0  0  0  0  0  0  0  0  0  0  0
    2.6960   19.0590   38.8780 C   0  0  0  0  0  0  0  0  0  0  0  0
    3.4880   13.3370   38.5040 O   0  0  0  0  0  1  0  0  0  0  0  0
    0.9750   28.1200   31.9530 C   0  0  0  0  0  0  0  0  0  0  0  0
    1.5260   18.7410   41.2060 C   0  0  0  0  0  0  0  0  0  0  0  0
    2.7050   20.1510   37.8920 C   0  0  0  0  0  0  0  0  0  0  0  0
    3.2900   14.1960   37.6040 C   0  0  0  0  0  0  0  0  0  0  0  0
    3.7660   15.5240   37.9010 C   0  0  0  0  0  0  0  0  0  0  0  0
    0.7240   27.8520   29.1570 C   0  0  0  0  0  0  0  0  0  0  0  0
    2.8820   21.3380   35.6440 C   0  0  0  0  0  0  0  0  0  0  0  0
    3.4020   17.6970   38.9600 C   0  0  0  0  0  0  0  0  0  0  0  0
    2.7920   23.4470   33.8750 C   0  0  0  0  0  0  0  0  0  0  0  0
    0.1620   26.8110   28.3630 C   0  0  0  0  0  0  0  0  0  0  0  0
   -0.8960   19.0930   43.9960 O   0  0  0  0  0  1  0  0  0  0  0  0
    2.9640   22.3070   35.4180 C   0  0  0  0  0  0  0  0  0  0  0  0
    3.6430   24.2800   31.5140 C   0  0  0  0  0  0  0  0  0  0  0  0
    0.2881   25.5668   31.1246 H   0  0  0  0  0  0  0  0  0  0  0  0
    3.6720   19.3324   36.1866 H   0  0  0  0  0  0  0  0  0  0  0  0
   -0.5165   21.2082   42.5410 H   0  0  0  0  0  0  0  0  0  0  0  0
    2.4572   27.2450   32.3368 H   0  0  0  0  0  0  0  0  0  0  0  0
    5.7384   15.7666   37.8493 H   0  0  0  0  0  0  0  0  0  0  0  0
    5.1023   14.8410   36.5972 H   0  0  0  0  0  0  0  0  0  0  0  0
    4.8970   16.5104   36.5972 H   0  0  0  0  0  0  0  0  0  0  0  0
    5.3043   22.9104   31.7191 H   0  0  0  0  0  0  0  0  0  0  0  0
    0.8435   25.2361   32.0948 H   0  0  0  0  0  0  0  0  0  0  0  0
    1.2640   23.5957   29.9739 H   0  0  0  0  0  0  0  0  0  0  0  0
    0.2608   24.4362   28.7435 H   0  0  0  0  0  0  0  0  0  0  0  0
    2.0448   24.6460   28.7435 H   0  0  0  0  0  0  0  0  0  0  0  0
    0.5472   22.5411   40.7330 H   0  0  0  0  0  0  0  0  0  0  0  0
    0.6007   26.3952   30.6707 H   0  0  0  0  0  0  0  0  0  0  0  0
    4.3272   21.9549   33.8576 H   0  0  0  0  0  0  0  0  0  0  0  0
    0.7545   28.7349   32.8381 H   0  0  0  0  0  0  0  0  0  0  0  0
    1.7531   28.6109   31.3501 H   0  0  0  0  0  0  0  0  0  0  0  0
    0.0622   28.0046   31.3501 H   0  0  0  0  0  0  0  0  0  0  0  0
    1.9029   17.7263   41.4016 H   0  0  0  0  0  0  0  0  0  0  0  0
    3.4833   15.3488   38.9495 H   0  0  0  0  0  0  0  0  0  0  0  0
    0.0803   28.6536   29.5482 H   0  0  0  0  0  0  0  0  0  0  0  0
    1.5435   28.5739   29.0254 H   0  0  0  0  0  0  0  0  0  0  0  0
    2.2939   20.9167   34.8153 H   0  0  0  0  0  0  0  0  0  0  0  0
    2.9540   17.1213   39.7833 H   0  0  0  0  0  0  0  0  0  0  0  0
    4.4714   17.8956   39.1243 H   0  0  0  0  0  0  0  0  0  0  0  0
   -0.9179   26.7735   28.1568 H   0  0  0  0  0  0  0  0  0  0  0  0
    0.3400   26.3456   27.3823 H   0  0  0  0  0  0  0  0  0  0  0  0
    3.2299   22.8943   36.3093 H   0  0  0  0  0  0  0  0  0  0  0  0
    3.9032   24.5669   30.4844 H   0  0  0  0  0  0  0  0  0  0  0  0
  1 27  1  0
  2 16  1  0
  3 28  1  0
  4 30  1  0
  4 33  1  0
  6  7  1  0
  7  1  2  0
  7 19  1  0
  8 13  1  0
  9 26  1  0
  9 15  1  0
 11 34  2  0
 11 15  1  0
 12 21  2  0
 13 22  1  0
 14  2  1  0
 14 23  1  0
 14  9  1  0
 17 29  2  0
 18  4  2  0
 19  8  2  0
 20  2  1  0
 21 34  1  0
 22  5  2  0
 22 36  1  0
 23 11  1  0
 24 33  1  0
 24  1  1  0
 27 13  2  0
 28  6  1  0
 28 24  2  0
 29 30  1  0
 29 25  1  0
 30 10  1  0
 31 20  1  0
 32  3  1  0
 34 37  1  0
 35 31  1  0
 35 20  1  0
 37 32  2  3
 38 12  1  0
 38 23  2  0
  2 39  1  0
  3 40  1  0
  8 41  1  0
  9 42  1  0
 10 43  1  0
 10 44  1  0
 10 45  1  0
 12 46  1  0
 14 47  1  0
 16 48  1  0
 16 49  1  0
 16 50  1  0
 19 51  1  0
 20 52  1  0
 21 53  1  0
 26 54  1  0
 26 55  1  0
 26 56  1  0
 27 57  1  0
 30 58  1  0
 31 59  1  0
 31 60  1  0
 32 61  1  0
 33 62  1  0
 33 63  1  0
 35 64  1  0
 35 65  1  0
 37 66  1  0
 38 67  1  0
M  CHG  3  10   1  25  -1  36  -1
M  END
>  <mol_id>  (44) 
2026-09-18-3war-s0-n100-0044

>  <rmsd_to_ref>  (44) 


$$$$

     RDKit          3D

 74 77  0  0  0  0  0  0  0  0999 V2000
    2.0990   15.3740   36.6270 C   0  0  0  0  0  0  0  0  0  0  0  0
    0.4040   19.1000   41.7300 C   0  0  0  0  0  0  0  0  0  0  0  0
    2.6950   25.1520   31.7990 C   0  0  0  0  0  0  0  0  0  0  0  0
    1.4940   27.2180   32.4810 C   0  0  0  0  0  0  0  0  0  0  0  0
    2.7730   25.0590   33.2210 C   0  0  0  0  0  0  0  0  0  0  0  0
    2.3700   21.6540   36.3930 C   0  0  0  0  0  0  0  0  0  0  0  0
    3.9750   23.8870   33.6320 C   0  0  0  0  0  0  0  0  0  0  0  0
    3.0360   11.8260   36.1300 C   0  0  0  0  0  0  0  0  0  0  0  0
    0.1030   17.6480   42.0520 C   0  0  0  0  0  0  0  0  0  0  0  0
    3.0660   15.1420   37.8080 C   0  0  0  0  0  0  0  0  0  0  0  0
   -0.1870   20.1360   42.8240 C   0  0  0  0  0  0  0  0  0  0  0  0
    5.3380   24.4290   33.9760 C   0  0  0  0  0  0  0  0  0  0  0  0
    1.3990   21.3380   38.7200 C   0  0  0  0  0  0  0  0  0  0  0  0
    2.2380   20.9590   37.4970 C   0  0  0  0  0  0  0  0  0  0  0  0
    2.8000   13.1300   36.6160 C   0  0  0  0  0  0  0  0  0  0  0  0
    3.7580   11.1850   37.2550 C   0  0  0  0  0  0  0  0  0  0  0  0
    2.3050   25.7650   34.1480 C   0  0  0  0  0  0  0  0  0  0  0  0
    3.9690   12.0850   38.4180 S   0  0  0  0  0  0  0  0  0  0  0  0
    1.3020   19.3280   40.5520 C   0  0  0  0  0  0  0  0  0  0  0  0
    3.6500   17.5950   38.4510 C   0  0  0  0  0  0  0  0  0  0  0  0
    3.3230   13.5320   37.9920 C   0  0  0  0  0  0  0  0  0  0  0  0
    1.6180   26.9610   34.0830 C   0  0  0  0  0  0  0  0  0  0  0  0
    3.2490   22.8770   34.5700 C   0  0  0  0  0  0  0  0  0  0  0  0
    3.1430   18.9060   38.8970 C   0  0  0  0  0  0  0  0  0  0  0  0
    0.6860   27.6030   30.3530 C   0  0  0  0  0  0  0  0  0  0  0  0
    2.0100   26.2450   31.5030 C   0  0  0  0  0  0  0  0  0  0  0  0
    1.7150   20.8640   40.1520 C   0  0  0  0  0  0  0  0  0  0  0  0
    2.2270   14.3240   35.7060 N   0  0  0  0  0  0  0  0  0  0  0  0
    5.1740   23.7470   32.6720 C   0  0  0  0  0  0  0  0  0  0  0  0
    3.1450   16.3140   38.7490 C   0  0  0  0  0  0  0  0  0  0  0  0
    0.8780   28.2640   31.7890 C   0  0  0  0  0  0  0  0  0  0  0  0
    2.8950   19.6400   37.7020 C   0  0  0  0  0  0  0  0  0  0  0  0
    2.8800   22.1300   35.2560 C   0  0  0  0  0  0  0  0  0  0  0  0
    1.0652   15.4100   37.0010 H   0  0  0  0  0  0  0  0  0  0  0  0
    2.3434   16.3265   36.1341 H   0  0  0  0  0  0  0  0  0  0  0  0
    3.1269   24.4423   31.0781 H   0  0  0  0  0  0  0  0  0  0  0  0
    1.4127   21.3366   35.9540 H   0  0  0  0  0  0  0  0  0  0  0  0
    3.1292   22.2496   36.9212 H   0  0  0  0  0  0  0  0  0  0  0  0
    2.7544   11.3933   35.1587 H   0  0  0  0  0  0  0  0  0  0  0  0
    0.0749   17.5126   43.1433 H   0  0  0  0  0  0  0  0  0  0  0  0
   -0.8715   17.3717   41.6231 H   0  0  0  0  0  0  0  0  0  0  0  0
    0.8874   17.0071   41.6231 H   0  0  0  0  0  0  0  0  0  0  0  0
    4.1551   15.2786   37.8800 H   0  0  0  0  0  0  0  0  0  0  0  0
    0.0265   19.7618   43.8361 H   0  0  0  0  0  0  0  0  0  0  0  0
    0.2856   21.1202   42.6897 H   0  0  0  0  0  0  0  0  0  0  0  0
   -1.2747   20.2301   42.6897 H   0  0  0  0  0  0  0  0  0  0  0  0
    5.4995   25.5167   34.0044 H   0  0  0  0  0  0  0  0  0  0  0  0
    6.0212   24.2965   34.8279 H   0  0  0  0  0  0  0  0  0  0  0  0
    0.3795   20.9852   38.5054 H   0  0  0  0  0  0  0  0  0  0  0  0
    1.6124   22.4141   38.7997 H   0  0  0  0  0  0  0  0  0  0  0  0
    1.3569   20.4544   37.0740 H   0  0  0  0  0  0  0  0  0  0  0  0
    4.1048   10.1414   37.2309 H   0  0  0  0  0  0  0  0  0  0  0  0
    2.4663   25.3723   35.1628 H   0  0  0  0  0  0  0  0  0  0  0  0
    1.6785   18.4778   39.9644 H   0  0  0  0  0  0  0  0  0  0  0  0
    4.6930   17.5689   38.7995 H   0  0  0  0  0  0  0  0  0  0  0  0
    3.3382   17.6508   37.3976 H   0  0  0  0  0  0  0  0  0  0  0  0
    1.2467   27.5852   34.9092 H   0  0  0  0  0  0  0  0  0  0  0  0
    2.2143   18.7839   39.4738 H   0  0  0  0  0  0  0  0  0  0  0  0
    3.8601   19.4212   39.5531 H   0  0  0  0  0  0  0  0  0  0  0  0
    0.3809   26.5527   30.4706 H   0  0  0  0  0  0  0  0  0  0  0  0
   -0.0903   28.1504   29.7982 H   0  0  0  0  0  0  0  0  0  0  0  0
    1.6347   27.6493   29.7982 H   0  0  0  0  0  0  0  0  0  0  0  0
    1.8096   26.4430   30.4397 H   0  0  0  0  0  0  0  0  0  0  0  0
    2.8008   20.9617   40.2989 H   0  0  0  0  0  0  0  0  0  0  0  0
    1.0923   21.4984   40.8000 H   0  0  0  0  0  0  0  0  0  0  0  0
    2.0086   14.3194   34.6994 H   0  0  0  0  0  0  0  0  0  0  0  0
    5.6331   22.7615   32.5043 H   0  0  0  0  0  0  0  0  0  0  0  0
    5.3676   24.0146   31.6228 H   0  0  0  0  0  0  0  0  0  0  0  0
    2.1102   16.4847   39.0807 H   0  0  0  0  0  0  0  0  0  0  0  0
    3.9402   15.9561   39.4195 H   0  0  0  0  0  0  0  0  0  0  0  0
    1.5237   29.1533   31.7418 H   0  0  0  0  0  0  0  0  0  0  0  0
   -0.0521   28.6282   32.2497 H   0  0  0  0  0  0  0  0  0  0  0  0
    2.3031   18.9492   37.0836 H   0  0  0  0  0  0  0  0  0  0  0  0
    3.9291   19.9697   37.5234 H   0  0  0  0  0  0  0  0  0  0  0  0
  1 10  1  0
  2  9  1  0
  2 11  1  0
  3  5  2  0
  4 22  1  0
  5  7  1  0
  5 17  1  0
  7 12  1  0
  7 23  1  0
  8 15  1  0
  8 16  2  0
 10 21  1  0
 10 30  1  0
 13 27  1  0
 14  6  1  0
 14 32  1  0
 14 13  1  0
 15 21  2  0
 16 18  1  0
 19  2  2  3
 20 30  1  0
 20 24  1  0
 21 18  1  0
 22 17  2  0
 23 33  3  0
 25 31  1  0
 26  3  1  0
 26  4  2  0
 27 19  1  0
 28 15  1  0
 28  1  1  0
 29  7  1  0
 29 12  1  0
 31  4  1  0
 32 24  1  0
 33  6  1  0
  1 34  1  0
  1 35  1  0
  3 36  1  0
  6 37  1  0
  6 38  1  0
  8 39  1  0
  9 40  1  0
  9 41  1  0
  9 42  1  0
 10 43  1  0
 11 44  1  0
 11 45  1  0
 11 46  1  0
 12 47  1  0
 12 48  1  0
 13 49  1  0
 13 50  1  0
 14 51  1  0
 16 52  1  0
 17 53  1  0
 19 54  1  0
 20 55  1  0
 20 56  1  0
 22 57  1  0
 24 58  1  0
 24 59  1  0
 25 60  1  0
 25 61  1  0
 25 62  1  0
 26 63  1  0
 27 64  1  0
 27 65  1  0
 28 66  1  0
 29 67  1  0
 29 68  1  0
 30 69  1  0
 30 70  1  0
 31 71  1  0
 31 72  1  0
 32 73  1  0
 32 74  1  0
M  END
>  <mol_id>  (45) 
2026-09-18-3war-s0-n100-0045

>  <rmsd_to_ref>  (45) 


$$$$

     RDKit          3D

 74 77  0  0  0  0  0  0  0  0999 V2000
    1.8400   28.5290   33.7650 C   0  0  0  0  0  0  0  0  0  0  0  0
    2.9020   15.7200   38.4550 C   0  0  0  0  0  0  0  0  0  0  0  0
    2.4350   12.7350   35.3480 C   0  0  0  0  0  0  0  0  0  0  0  0
    1.3800   14.5300   41.8240 C   0  0  0  0  0  0  0  0  0  0  0  0
    0.4270   16.7350   42.9330 C   0  0  0  0  0  0  0  0  0  0  0  0
    4.6140   24.7060   31.9190 C   0  0  0  0  0  0  0  0  0  0  0  0
    0.3770   26.1540   30.2220 C   0  0  0  0  0  0  0  0  0  0  0  0
    3.0430   22.8030   33.5770 C   0  0  0  0  0  0  0  0  0  0  0  0
    2.0420   19.6150   39.4820 C   0  0  0  0  0  0  0  0  0  0  0  0
    5.0440   13.9540   37.4680 O   0  0  0  0  0  0  0  0  0  0  0  0
    2.3840   20.1180   38.1570 C   0  0  0  0  0  0  0  0  0  0  0  0
    3.9940   21.6900   33.4390 O   0  0  0  0  0  0  0  0  0  0  0  0
    3.1510   24.4000   31.4890 C   0  0  0  0  0  0  0  0  0  0  0  0
    2.8040   15.0390   37.1960 C   0  0  0  0  0  0  0  0  0  0  0  0
    2.3550   23.0240   34.8950 C   0  0  0  0  0  0  0  0  0  0  0  0
    2.7560   17.2390   38.4730 C   0  0  0  0  0  0  0  0  0  0  0  0
    0.8330   28.1610   32.8050 C   0  0  0  0  0  0  0  0  0  0  0  0
    2.2960   21.8210   35.9130 S   0  0  0  0  0  4  0  0  0  0  0  0
    2.8300   26.9560   31.8380 C   0  0  0  0  0  0  0  0  0  0  0  0
    1.4730   25.5570   30.3120 O   0  0  0  0  0  0  0  0  0  0  0  0
    3.0950   17.9590   37.3230 C   0  0  0  0  0  0  0  0  0  0  0  0
    1.9160   27.8600   32.6230 C   0  0  0  0  0  0  0  0  0  0  0  0
    2.2100   25.5820   31.5660 C   0  0  0  0  0  0  0  0  0  0  0  0
    2.3750   17.8670   39.6430 C   0  0  0  0  0  0  0  0  0  0  0  0
    1.0820   17.6710   42.0360 C   0  0  0  0  0  0  0  0  0  0  0  0
    1.8160   17.1120   40.8510 C   0  0  0  0  0  0  0  0  0  0  0  0
    2.5340   23.3520   32.2610 C   0  0  0  0  0  0  0  0  0  0  0  0
    2.9420   19.2660   37.1540 C   0  0  0  0  0  0  0  0  0  0  0  0
    0.5190   15.2050   42.8820 C   0  0  0  0  0  0  0  0  0  0  0  0
    2.8540   15.0360   39.7660 O   0  0  0  0  0  0  0  0  0  0  0  0
    2.0920   15.6180   40.8700 C   0  0  0  0  0  0  0  0  0  0  0  0
    3.6900   13.8250   37.1690 C   0  0  0  0  0  0  0  0  0  0  0  0
    3.2910   23.8490   30.0890 C   0  0  0  0  0  0  0  0  0  0  0  0
    1.9960   21.5350   37.7480 C   0  0  0  0  0  0  0  0  0  0  0  0
    3.3170   12.5880   36.3670 N   0  0  0  0  0  0  0  0  0  0  0  0
    2.2034   29.5633   33.8557 H   0  0  0  0  0  0  0  0  0  0  0  0
    2.0704   28.3962   34.8324 H   0  0  0  0  0  0  0  0  0  0  0  0
    1.4275   12.9029   35.7564 H   0  0  0  0  0  0  0  0  0  0  0  0
    2.7286   13.5966   34.7304 H   0  0  0  0  0  0  0  0  0  0  0  0
    2.4333   11.8248   34.7304 H   0  0  0  0  0  0  0  0  0  0  0  0
    1.5010   13.4413   41.7231 H   0  0  0  0  0  0  0  0  0  0  0  0
   -0.1977   17.1669   43.7287 H   0  0  0  0  0  0  0  0  0  0  0  0
    4.6782   24.7194   33.0170 H   0  0  0  0  0  0  0  0  0  0  0  0
    5.2831   23.9284   31.5220 H   0  0  0  0  0  0  0  0  0  0  0  0
    4.9154   25.6866   31.5220 H   0  0  0  0  0  0  0  0  0  0  0  0
   -0.0097   26.3646   31.2300 H   0  0  0  0  0  0  0  0  0  0  0  0
    0.5182   27.0998   29.6784 H   0  0  0  0  0  0  0  0  0  0  0  0
   -0.3410   25.5224   29.6784 H   0  0  0  0  0  0  0  0  0  0  0  0
    3.5819   23.7085   33.8926 H   0  0  0  0  0  0  0  0  0  0  0  0
    1.6276   20.2385   40.2880 H   0  0  0  0  0  0  0  0  0  0  0  0
    4.2643   21.3736   34.3373 H   0  0  0  0  0  0  0  0  0  0  0  0
    1.7614   14.7269   37.0362 H   0  0  0  0  0  0  0  0  0  0  0  0
    3.1272   15.7261   36.4002 H   0  0  0  0  0  0  0  0  0  0  0  0
    1.9055   23.9970   35.1424 H   0  0  0  0  0  0  0  0  0  0  0  0
    0.0862   27.3946   33.0600 H   0  0  0  0  0  0  0  0  0  0  0  0
    0.0748   28.7112   32.2285 H   0  0  0  0  0  0  0  0  0  0  0  0
    1.3376   21.0229   35.3461 H   0  0  0  0  0  0  0  0  0  0  0  0
    3.0581   27.4362   30.8750 H   0  0  0  0  0  0  0  0  0  0  0  0
    3.7380   26.7983   32.4385 H   0  0  0  0  0  0  0  0  0  0  0  0
    3.5264   17.3919   36.4850 H   0  0  0  0  0  0  0  0  0  0  0  0
    2.5821   27.5800   31.7936 H   0  0  0  0  0  0  0  0  0  0  0  0
    1.5785   25.4624   32.4587 H   0  0  0  0  0  0  0  0  0  0  0  0
    1.0417   18.7549   42.2188 H   0  0  0  0  0  0  0  0  0  0  0  0
    1.5153   23.7096   32.4716 H   0  0  0  0  0  0  0  0  0  0  0  0
    2.7356   22.4912   31.6064 H   0  0  0  0  0  0  0  0  0  0  0  0
    3.2584   19.7136   36.2003 H   0  0  0  0  0  0  0  0  0  0  0  0
   -0.0370   14.5957   43.6098 H   0  0  0  0  0  0  0  0  0  0  0  0
    2.5972   16.0605   41.7412 H   0  0  0  0  0  0  0  0  0  0  0  0
    3.5616   22.7840   30.1395 H   0  0  0  0  0  0  0  0  0  0  0  0
    2.3362   23.9598   29.5542 H   0  0  0  0  0  0  0  0  0  0  0  0
    4.0771   24.4021   29.5542 H   0  0  0  0  0  0  0  0  0  0  0  0
    2.5973   22.2524   38.3258 H   0  0  0  0  0  0  0  0  0  0  0  0
    0.9240   21.6745   37.9511 H   0  0  0  0  0  0  0  0  0  0  0  0
    3.7216   11.6676   36.5909 H   0  0  0  0  0  0  0  0  0  0  0  0
  2 16  2  0
  2 30  1  0
  3 35  1  0
  4 29  2  0
  7 20  1  0
  8 12  1  0
  8 15  1  0
  9 24  1  0
 11  9  2  0
 13 23  1  0
 13  6  1  0
 13 27  1  0
 14  2  1  0
 15 18  2  3
 16 24  1  0
 17  1  1  0
 18 34  1  0
 19 22  1  0
 20 23  1  0
 21 16  1  0
 22 17  1  0
 22  1  1  0
 23 19  1  0
 24 26  2  0
 25  5  2  0
 26 31  1  0
 26 25  1  0
 27  8  1  0
 28 21  2  0
 28 11  1  0
 29  5  1  0
 30 31  1  0
 31  4  1  0
 32 14  1  0
 32 10  2  0
 33 13  1  0
 34 11  1  0
 35 32  1  0
  1 36  1  0
  1 37  1  0
  3 38  1  0
  3 39  1  0
  3 40  1  0
  4 41  1  0
  5 42  1  0
  6 43  1  0
  6 44  1  0
  6 45  1  0
  7 46  1  0
  7 47  1  0
  7 48  1  0
  8 49  1  0
  9 50  1  0
 12 51  1  0
 14 52  1  0
 14 53  1  0
 15 54  1  0
 17 55  1  0
 17 56  1  0
 18 57  1  0
 19 58  1  0
 19 59  1  0
 21 60  1  0
 22 61  1  0
 23 62  1  0
 25 63  1  0
 27 64  1  0
 27 65  1  0
 28 66  1  0
 29 67  1  0
 31 68  1  0
 33 69  1  0
 33 70  1  0
 33 71  1  0
 34 72  1  0
 34 73  1  0
 35 74  1  0
M  END
>  <mol_id>  (46) 
2026-09-18-3war-s0-n100-0046

>  <rmsd_to_ref>  (46) 


$$$$

     RDKit          3D

 47 49  0  0  0  0  0  0  0  0999 V2000
    2.9710   16.4310   39.8180 N   0  0  0  0  0  0  0  0  0  0  0  0
    3.5510   20.9450   34.9160 C   0  0  0  0  0  0  0  0  0  0  0  0
    1.2640   18.0320   41.0890 C   0  0  0  0  0  0  0  0  0  0  0  0
    2.5880   22.0750   34.5420 C   0  0  0  0  0  0  0  0  0  0  0  0
    0.7340   26.8810   31.4480 C   0  0  0  0  0  0  0  0  0  0  0  0
    1.3790   20.5110   40.5160 C   0  0  0  0  0  0  0  0  0  0  0  0
    2.4340   20.2370   39.6160 C   0  0  0  0  0  0  0  0  0  0  0  0
    2.0480   14.5780   41.4700 O   0  0  0  0  0  0  0  0  0  0  0  0
    3.0200   20.9830   38.4910 C   0  0  0  0  0  0  0  0  0  0  0  0
    1.3060   26.9660   30.2490 C   0  0  0  0  0  0  0  0  0  0  0  0
    1.6710   15.5790   40.4430 S   0  0  0  0  0  6  0  0  0  0  0  0
    3.2250   22.7400   32.9080 S   0  0  0  0  0  0  0  0  0  0  0  0
    1.2680   26.1580   32.4850 C   0  0  0  0  0  0  0  0  0  0  0  0
    0.7390   16.6700   41.3490 N   0  0  0  0  0  0  0  0  0  0  0  0
    2.4160   17.8940   40.3720 C   0  0  0  0  0  0  0  0  0  0  0  0
    2.1710   20.8100   37.2610 C   0  0  0  0  0  0  0  0  0  0  0  0
    2.5560   26.3330   30.0060 C   0  0  0  0  0  0  0  0  0  0  0  0
    3.0770   25.4890   30.9780 C   0  0  0  0  0  0  0  0  0  0  0  0
    3.0600   18.9500   39.6870 C   0  0  0  0  0  0  0  0  0  0  0  0
    4.0410   20.1690   33.8350 C   0  0  0  0  0  0  0  0  0  0  0  0
    1.8190   23.8720   34.6200 S   0  0  0  0  0  0  0  0  0  0  0  0
    2.4840   25.3760   32.3120 C   0  0  0  0  0  0  0  0  0  0  0  0
    2.6460   24.3590   33.1900 C   0  0  0  0  0  0  0  0  0  0  0  0
    0.7710   15.0800   39.3570 O   0  0  0  0  0  0  0  0  0  0  0  0
    0.8010   19.4140   41.2990 C   0  0  0  0  0  0  0  0  0  0  0  0
    3.8070   16.1503   39.2858 H   0  0  0  0  0  0  0  0  0  0  0  0
    4.4149   21.3935   35.4284 H   0  0  0  0  0  0  0  0  0  0  0  0
    2.9698   20.2520   35.5421 H   0  0  0  0  0  0  0  0  0  0  0  0
    1.9426   21.4749   35.2003 H   0  0  0  0  0  0  0  0  0  0  0  0
   -0.2123   27.4161   31.6156 H   0  0  0  0  0  0  0  0  0  0  0  0
    0.9957   21.5360   40.6278 H   0  0  0  0  0  0  0  0  0  0  0  0
    3.0727   22.0508   38.7500 H   0  0  0  0  0  0  0  0  0  0  0  0
    4.0304   20.5977   38.2895 H   0  0  0  0  0  0  0  0  0  0  0  0
    0.8102   27.5277   29.4436 H   0  0  0  0  0  0  0  0  0  0  0  0
    0.7682   26.1695   33.4649 H   0  0  0  0  0  0  0  0  0  0  0  0
   -0.0487   16.4296   41.9675 H   0  0  0  0  0  0  0  0  0  0  0  0
    1.1333   20.5986   37.5585 H   0  0  0  0  0  0  0  0  0  0  0  0
    2.2002   21.7325   36.6626 H   0  0  0  0  0  0  0  0  0  0  0  0
    2.5588   19.9724   36.6626 H   0  0  0  0  0  0  0  0  0  0  0  0
    3.0998   26.5085   29.0661 H   0  0  0  0  0  0  0  0  0  0  0  0
    3.9646   24.8853   30.7378 H   0  0  0  0  0  0  0  0  0  0  0  0
    4.0375   18.7843   39.2106 H   0  0  0  0  0  0  0  0  0  0  0  0
    4.5898   19.2999   34.2267 H   0  0  0  0  0  0  0  0  0  0  0  0
    3.1972   19.8231   33.2199 H   0  0  0  0  0  0  0  0  0  0  0  0
    4.7161   20.7821   33.2199 H   0  0  0  0  0  0  0  0  0  0  0  0
    3.1983   25.3094   33.1493 H   0  0  0  0  0  0  0  0  0  0  0  0
    0.0200   19.6239   42.0447 H   0  0  0  0  0  0  0  0  0  0  0  0
  1 15  1  0
  1 11  1  0
  3 25  1  0
  3 14  1  0
  4 21  1  0
  4  2  1  0
  5 13  2  0
  6 25  2  0
  7 19  2  0
  7  6  1  0
  9  7  1  0
 10  5  1  0
 11 14  1  0
 11  8  2  0
 12 23  1  0
 12  4  1  0
 15  3  2  0
 16  9  1  0
 17 10  2  0
 17 18  1  0
 18 22  2  0
 19 15  1  0
 20  2  1  0
 22 13  1  0
 23 22  1  0
 23 21  1  0
 24 11  2  0
  1 26  1  0
  2 27  1  0
  2 28  1  0
  4 29  1  0
  5 30  1  0
  6 31  1  0
  9 32  1  0
  9 33  1  0
 10 34  1  0
 13 35  1  0
 14 36  1  0
 16 37  1  0
 16 38  1  0
 16 39  1  0
 17 40  1  0
 18 41  1  0
 19 42  1  0
 20 43  1  0
 20 44  1  0
 20 45  1  0
 23 46  1  0
 25 47  1  0
M  END
>  <mol_id>  (47) 
2026-09-18-3war-s0-n100-0047

>  <rmsd_to_ref>  (47) 


$$$$

     RDKit          3D

 67 73  0  0  0  0  0  0  0  0999 V2000
   -0.4420   20.2730   42.7120 C   0  0  0  0  0  0  0  0  0  0  0  0
    1.8590   24.6750   30.4770 N   0  0  0  0  0  0  0  0  0  0  0  0
    1.6420   16.9190   41.1360 C   0  0  0  0  0  0  0  0  0  0  0  0
    0.6410   25.7750   28.5370 C   0  0  0  0  0  0  0  0  0  0  0  0
    1.9900   21.2720   37.9670 C   0  0  0  0  0  0  0  0  0  0  0  0
    3.4510   23.0370   32.6570 C   0  0  0  0  0  0  0  0  0  0  0  0
    3.8730   23.8950   30.1800 N   0  0  0  0  0  0  0  0  0  0  0  0
    2.9710   16.2060   39.1940 C   0  0  0  0  0  0  0  0  0  0  0  0
    0.9030   18.0800   41.5810 C   0  0  0  0  0  0  0  0  0  0  0  0
    0.5520   26.5160   31.0610 C   0  0  0  0  0  0  0  0  0  0  0  0
    1.9650   19.6310   39.7910 C   0  0  0  0  0  0  0  0  0  0  0  0
    3.0270   18.8500   39.1420 C   0  0  0  0  0  0  0  0  0  0  0  0
    2.7820   24.3710   29.6220 C   0  0  0  0  0  0  0  0  0  0  0  0
    2.6730   16.8060   40.2660 N   0  0  0  0  0  0  0  0  0  0  0  0
    0.5060   20.4230   41.6580 C   0  0  0  0  0  0  0  0  0  0  0  0
    1.0160   19.3130   41.0560 C   0  0  0  0  0  0  0  0  0  0  0  0
    3.0080   20.4840   37.2520 C   0  0  0  0  0  0  0  0  0  0  0  0
    3.4340   20.8950   35.9580 C   0  0  0  0  0  0  0  0  0  0  0  0
    1.3750   24.9350   27.5630 C   0  0  0  0  0  0  0  0  0  0  0  0
    3.7870   24.1030   32.6950 C   0  0  0  0  0  0  0  0  0  0  0  0
    4.6670   19.1250   37.5680 O   0  0  0  0  0  0  0  0  0  0  0  0
    1.5350   20.7660   39.1660 C   0  0  0  0  0  0  0  0  0  0  0  0
    2.9880   21.9320   35.0670 C   0  0  0  0  0  0  0  0  0  0  0  0
    3.8820   24.1220   27.1890 S   0  0  0  0  0  0  0  0  0  0  0  0
    1.3850   15.2240   40.7160 C   0  0  0  0  0  0  0  0  0  0  0  0
    3.9090   21.9830   33.7660 C   0  0  0  0  0  0  0  0  0  0  0  0
    3.5970   19.5260   38.0450 C   0  0  0  0  0  0  0  0  0  0  0  0
    3.5500   17.5470   39.5740 C   0  0  0  0  0  0  0  0  0  0  0  0
    2.6030   24.4580   28.2230 C   0  0  0  0  0  0  0  0  0  0  0  0
    3.7580   23.9370   31.4930 C   0  0  0  0  0  0  0  0  0  0  0  0
    2.4780   15.0680   39.8630 N   0  0  0  0  0  4  0  0  0  0  0  0
   -0.1450   17.9290   42.6270 C   0  0  0  0  0  0  0  0  0  0  0  0
    0.8120   25.4540   30.0170 C   0  0  0  0  0  0  0  0  0  0  0  0
   -0.7710   19.0330   43.1050 C   0  0  0  0  0  0  0  0  0  0  0  0
   -0.8935   21.1537   43.1921 H   0  0  0  0  0  0  0  0  0  0  0  0
    1.4587   17.3397   42.1357 H   0  0  0  0  0  0  0  0  0  0  0  0
   -0.4305   25.6892   28.3035 H   0  0  0  0  0  0  0  0  0  0  0  0
    1.0713   26.7804   28.4182 H   0  0  0  0  0  0  0  0  0  0  0  0
    1.1217   21.3758   37.2997 H   0  0  0  0  0  0  0  0  0  0  0  0
    2.4905   22.2164   38.2271 H   0  0  0  0  0  0  0  0  0  0  0  0
    2.7215   22.2148   32.6994 H   0  0  0  0  0  0  0  0  0  0  0  0
    4.6944   23.5422   29.6684 H   0  0  0  0  0  0  0  0  0  0  0  0
    3.1031   15.8426   38.1642 H   0  0  0  0  0  0  0  0  0  0  0  0
    0.6593   26.0779   32.0643 H   0  0  0  0  0  0  0  0  0  0  0  0
    1.2762   27.3350   30.9392 H   0  0  0  0  0  0  0  0  0  0  0  0
   -0.4686   26.9078   30.9392 H   0  0  0  0  0  0  0  0  0  0  0  0
    2.3241   18.3432   38.4645 H   0  0  0  0  0  0  0  0  0  0  0  0
    0.8225   21.4255   41.3341 H   0  0  0  0  0  0  0  0  0  0  0  0
    4.2706   20.3017   35.5602 H   0  0  0  0  0  0  0  0  0  0  0  0
    1.6334   25.5297   26.6744 H   0  0  0  0  0  0  0  0  0  0  0  0
    0.7548   24.0857   27.2404 H   0  0  0  0  0  0  0  0  0  0  0  0
    3.0653   24.8258   33.1033 H   0  0  0  0  0  0  0  0  0  0  0  0
    4.6463   24.4824   33.2674 H   0  0  0  0  0  0  0  0  0  0  0  0
    0.7424   21.3366   39.6721 H   0  0  0  0  0  0  0  0  0  0  0  0
    1.9490   21.7302   34.7676 H   0  0  0  0  0  0  0  0  0  0  0  0
    3.0512   22.8996   35.5864 H   0  0  0  0  0  0  0  0  0  0  0  0
    1.4438   14.5636   41.5937 H   0  0  0  0  0  0  0  0  0  0  0  0
    0.4013   14.9755   40.2909 H   0  0  0  0  0  0  0  0  0  0  0  0
    3.9081   20.9830   33.3077 H   0  0  0  0  0  0  0  0  0  0  0  0
    4.9040   22.3063   34.1057 H   0  0  0  0  0  0  0  0  0  0  0  0
    4.5720   17.9534   39.5957 H   0  0  0  0  0  0  0  0  0  0  0  0
    2.6880   24.1711   31.3918 H   0  0  0  0  0  0  0  0  0  0  0  0
    2.2071   14.3840   39.1421 H   0  0  0  0  0  0  0  0  0  0  0  0
    3.2483   14.7857   40.4858 H   0  0  0  0  0  0  0  0  0  0  0  0
   -0.4092   16.9317   43.0086 H   0  0  0  0  0  0  0  0  0  0  0  0
   -0.0683   24.8016   29.9203 H   0  0  0  0  0  0  0  0  0  0  0  0
   -1.5780   18.9073   43.8419 H   0  0  0  0  0  0  0  0  0  0  0  0
  1 34  2  0
  3 25  1  0
  3  9  1  0
  4 33  1  0
  5 22  1  0
  6 20  1  0
  6 26  1  0
  7 30  1  0
  8 28  1  0
  8 31  1  0
  8 14  1  0
  9 32  2  0
 11 16  1  0
 12 27  1  0
 12 28  1  0
 12 11  1  0
 13  7  1  0
 13  2  2  0
 14  3  1  0
 15  1  1  0
 16  9  1  0
 16 15  2  0
 17  5  1  0
 17 27  1  0
 18 17  2  3
 19 29  1  0
 19  4  1  0
 21 27  2  0
 22 11  2  0
 23 18  1  0
 24 29  2  0
 26 23  1  0
 28 14  1  0
 29 13  1  0
 30  6  1  0
 30 20  1  0
 31 25  1  0
 32 34  1  0
 33  2  1  0
 33 10  1  0
  1 35  1  0
  3 36  1  0
  4 37  1  0
  4 38  1  0
  5 39  1  0
  5 40  1  0
  6 41  1  0
  7 42  1  0
  8 43  1  0
 10 44  1  0
 10 45  1  0
 10 46  1  0
 12 47  1  0
 15 48  1  0
 18 49  1  0
 19 50  1  0
 19 51  1  0
 20 52  1  0
 20 53  1  0
 22 54  1  0
 23 55  1  0
 23 56  1  0
 25 57  1  0
 25 58  1  0
 26 59  1  0
 26 60  1  0
 28 61  1  0
 30 62  1  0
 31 63  1  0
 31 64  1  0
 32 65  1  0
 33 66  1  0
 34 67  1  0
M  CHG  1  31   1
M  END
>  <mol_id>  (48) 
2026-09-18-3war-s0-n100-0048

>  <rmsd_to_ref>  (48) 


$$$$

     RDKit          3D

 55 57  0  0  0  0  0  0  0  0999 V2000
    0.8460   21.1130   40.2600 N   0  0  0  0  0  0  0  0  0  0  0  0
    2.1640   21.4030   35.8660 C   0  0  0  0  0  0  0  0  0  0  0  0
    0.5860   21.4480   41.6550 C   0  0  0  0  0  0  0  0  0  0  0  0
    3.6570   23.0020   32.6140 O   0  0  0  0  0  0  0  0  0  0  0  0
    3.3300   20.2050   36.3460 C   0  0  0  0  0  0  0  0  0  0  0  0
    4.8720   19.3480   39.4560 C   0  0  0  0  0  0  0  0  0  0  0  0
    2.2620   23.2730   33.0720 C   0  0  0  0  0  0  0  0  0  0  0  0
    2.8480   15.5840   38.7980 C   0  0  0  0  0  0  0  0  0  0  0  0
    1.9150   20.5270   39.8280 C   0  0  0  0  0  0  0  0  0  0  0  0
    1.7980   22.6840   34.1520 C   0  0  0  0  0  0  0  0  0  0  0  0
    3.2320   19.9830   37.7460 C   0  0  0  0  0  0  0  0  0  0  0  0
    3.2870   17.7290   38.3070 C   0  0  0  0  0  0  0  0  0  0  0  0
    1.0970   24.2350   32.5430 C   0  0  0  0  0  0  0  0  0  0  0  0
    3.1270   16.8140   39.5070 C   0  0  0  0  0  0  0  0  0  0  0  0
    1.2400   25.6750   31.5410 C   0  0  0  0  0  0  0  0  0  0  0  0
    2.4110   25.3790   30.6120 C   0  0  0  0  0  0  0  0  0  0  0  0
    3.8860   19.0330   38.4550 N   0  0  0  0  0  0  0  0  0  0  0  0
    2.3920   21.6950   34.5680 C   0  0  0  0  0  0  0  0  0  0  0  0
    1.5490   24.2200   30.8460 C   0  0  0  0  0  0  0  0  0  0  0  0
    2.1670   15.8840   37.4490 C   0  0  0  0  0  0  0  0  0  0  0  0
    2.4930   19.7500   40.6550 O   0  0  0  0  0  0  0  0  0  0  0  0
    2.3920   17.3690   37.1220 C   0  0  0  0  0  0  0  0  0  0  0  0
    2.0950   20.6710   38.3730 C   0  0  0  0  0  0  0  0  0  0  0  0
    0.1252   21.3613   39.5675 H   0  0  0  0  0  0  0  0  0  0  0  0
    1.1455   21.0057   35.9881 H   0  0  0  0  0  0  0  0  0  0  0  0
    2.2577   22.3054   36.4880 H   0  0  0  0  0  0  0  0  0  0  0  0
    1.1290   20.7484   42.3074 H   0  0  0  0  0  0  0  0  0  0  0  0
    0.9259   22.4749   41.8550 H   0  0  0  0  0  0  0  0  0  0  0  0
   -0.4931   21.3735   41.8550 H   0  0  0  0  0  0  0  0  0  0  0  0
    4.2464   22.8875   33.4012 H   0  0  0  0  0  0  0  0  0  0  0  0
    3.1312   19.2647   35.8108 H   0  0  0  0  0  0  0  0  0  0  0  0
    4.3421   20.5595   36.1009 H   0  0  0  0  0  0  0  0  0  0  0  0
    4.4363   19.2088   40.4564 H   0  0  0  0  0  0  0  0  0  0  0  0
    5.7398   18.6824   39.3381 H   0  0  0  0  0  0  0  0  0  0  0  0
    5.1931   20.3935   39.3381 H   0  0  0  0  0  0  0  0  0  0  0  0
    1.8980   22.4354   32.4588 H   0  0  0  0  0  0  0  0  0  0  0  0
    3.7915   15.0483   38.6165 H   0  0  0  0  0  0  0  0  0  0  0  0
    2.1735   14.9656   39.4084 H   0  0  0  0  0  0  0  0  0  0  0  0
    1.8011   23.4312   34.9592 H   0  0  0  0  0  0  0  0  0  0  0  0
    0.8084   22.3061   33.8556 H   0  0  0  0  0  0  0  0  0  0  0  0
    4.2754   17.4949   37.8849 H   0  0  0  0  0  0  0  0  0  0  0  0
    0.3741   24.0936   33.3599 H   0  0  0  0  0  0  0  0  0  0  0  0
    2.2910   17.1194   40.1534 H   0  0  0  0  0  0  0  0  0  0  0  0
    3.9781   16.7834   40.2032 H   0  0  0  0  0  0  0  0  0  0  0  0
    0.7903   26.6502   31.7792 H   0  0  0  0  0  0  0  0  0  0  0  0
    2.4241   25.8373   29.6121 H   0  0  0  0  0  0  0  0  0  0  0  0
    3.4955   25.5250   30.7243 H   0  0  0  0  0  0  0  0  0  0  0  0
    2.0824   20.8301   33.9630 H   0  0  0  0  0  0  0  0  0  0  0  0
    3.4655   21.9203   34.4849 H   0  0  0  0  0  0  0  0  0  0  0  0
    1.4735   23.3332   30.1995 H   0  0  0  0  0  0  0  0  0  0  0  0
    2.6089   15.2572   36.6604 H   0  0  0  0  0  0  0  0  0  0  0  0
    1.0906   15.6649   37.5077 H   0  0  0  0  0  0  0  0  0  0  0  0
    2.9042   17.5082   36.1585 H   0  0  0  0  0  0  0  0  0  0  0  0
    1.4819   17.9764   37.0090 H   0  0  0  0  0  0  0  0  0  0  0  0
    1.3987   21.2758   37.7735 H   0  0  0  0  0  0  0  0  0  0  0  0
  1  3  1  0
  2  5  1  0
  5 11  1  0
  7  4  1  0
  7 10  1  0
  8 14  1  0
  9  1  1  0
  9 21  2  0
 10 18  1  0
 11 23  2  3
 11 17  1  0
 12 17  1  0
 12 14  1  0
 13  7  1  0
 15 16  1  0
 15 13  1  0
 17  6  1  0
 18  2  1  0
 19 16  1  0
 19 15  1  0
 19 13  1  0
 20  8  1  0
 22 20  1  0
 22 12  1  0
 23  9  1  0
  1 24  1  0
  2 25  1  0
  2 26  1  0
  3 27  1  0
  3 28  1  0
  3 29  1  0
  4 30  1  0
  5 31  1  0
  5 32  1  0
  6 33  1  0
  6 34  1  0
  6 35  1  0
  7 36  1  0
  8 37  1  0
  8 38  1  0
 10 39  1  0
 10 40  1  0
 12 41  1  0
 13 42  1  0
 14 43  1  0
 14 44  1  0
 15 45  1  0
 16 46  1  0
 16 47  1  0
 18 48  1  0
 18 49  1  0
 19 50  1  0
 20 51  1  0
 20 52  1  0
 22 53  1  0
 22 54  1  0
 23 55  1  0
M  END
>  <mol_id>  (49) 
2026-09-18-3war-s0-n100-0049

>  <rmsd_to_ref>  (49) 


$$$$

     RDKit          3D

 23 22  0  0  0  0  0  0  0  0999 V2000
    4.1140   23.3170   32.6990 C   0  0  0  0  0  0  0  0  0  0  0  0
    3.0260   21.3410   36.7750 C   0  0  0  0  0  0  0  0  0  0  0  0
    1.4510   22.6690   39.4490 O   0  0  0  0  0  0  0  0  0  0  0  0
    3.3860   19.9290   38.8640 F   0  0  0  0  0  0  0  0  0  0  0  0
    2.8160   21.1110   38.3210 C   0  0  0  0  0  0  0  0  0  0  0  0
    3.3620   22.8000   33.8960 C   0  0  0  0  0  0  0  0  0  0  0  0
    3.7020   21.1330   35.6790 C   0  0  0  0  0  0  0  0  0  0  0  0
    1.4540   21.3640   38.8550 C   0  0  0  0  0  0  0  0  0  0  0  0
    1.8560   21.5850   36.4030 O   0  0  0  0  0  0  0  0  0  0  0  0
    3.8310   21.6050   34.5060 N   0  0  0  0  0  0  0  0  0  0  0  0
    1.8720   22.7070   33.6210 C   0  0  0  0  0  0  0  0  0  0  0  0
    4.9768   23.9102   33.0362 H   0  0  0  0  0  0  0  0  0  0  0  0
    4.4662   22.4692   32.0930 H   0  0  0  0  0  0  0  0  0  0  0  0
    3.4486   23.9494   32.0930 H   0  0  0  0  0  0  0  0  0  0  0  0
    1.4512   22.5827   40.4352 H   0  0  0  0  0  0  0  0  0  0  0  0
    3.4305   21.9393   38.7035 H   0  0  0  0  0  0  0  0  0  0  0  0
    3.5718   23.5713   34.6517 H   0  0  0  0  0  0  0  0  0  0  0  0
    4.3762   20.2742   35.8128 H   0  0  0  0  0  0  0  0  0  0  0  0
    0.7184   21.3231   38.0382 H   0  0  0  0  0  0  0  0  0  0  0  0
    1.1865   20.6017   39.6015 H   0  0  0  0  0  0  0  0  0  0  0  0
    1.3246   22.6728   34.5745 H   0  0  0  0  0  0  0  0  0  0  0  0
    1.5499   23.5868   33.0446 H   0  0  0  0  0  0  0  0  0  0  0  0
    1.6618   21.7940   33.0446 H   0  0  0  0  0  0  0  0  0  0  0  0
  1  6  1  0
  2  5  1  0
  5  8  1  0
  5  4  1  0
  6 10  1  0
  7  2  1  0
  8  3  1  0
  9  2  2  0
 10  7  2  3
 11  6  1  0
  1 12  1  0
  1 13  1  0
  1 14  1  0
  3 15  1  0
  5 16  1  0
  6 17  1  0
  7 18  1  0
  8 19  1  0
  8 20  1  0
 11 21  1  0
 11 22  1  0
 11 23  1  0
M  END
>  <mol_id>  (50) 
2026-09-18-3war-s0-n100-0050

>  <rmsd_to_ref>  (50) 


$$$$

     RDKit          3D

 59 62  0  0  0  0  0  0  0  0999 V2000
    2.5990   20.5890   36.7340 C   0  0  0  0  0  0  0  0  0  0  0  0
    3.0400   25.4550   28.7910 F   0  0  0  0  0  0  0  0  0  0  0  0
    1.7610   21.5730   37.8050 O   0  0  0  0  0  0  0  0  0  0  0  0
    2.0260   20.6000   40.2800 C   0  0  0  0  0  0  0  0  0  0  0  0
    2.5130   21.2420   35.6640 C   0  0  0  0  0  0  0  0  0  0  0  0
    2.0980   20.6370   38.8780 C   0  0  0  0  0  0  0  0  0  0  0  0
    4.2480   17.3170   38.0990 Cl  0  0  0  0  0  0  0  0  0  0  0  0
    1.5720   25.6220   31.6930 C   0  0  0  0  0  0  0  0  0  0  0  0
    2.9260   25.1660   29.7740 C   0  0  0  0  0  0  0  0  0  0  0  0
    2.9040   19.7440   38.0270 C   0  0  0  0  0  0  0  0  0  0  0  0
    1.1980   27.8210   31.3590 O   0  0  0  0  0  0  0  0  0  0  0  0
    2.1210   24.1140   33.1520 C   0  0  0  0  0  0  0  0  0  0  0  0
    3.4500   18.7210   40.1180 C   0  0  0  0  0  0  0  0  0  0  0  0
    2.0550   26.5070   32.0050 C   0  0  0  0  0  0  0  0  0  0  0  0
    3.4840   18.7590   38.6750 C   0  0  0  0  0  0  0  0  0  0  0  0
    3.1950   24.1500   34.2810 O   0  0  0  0  0  0  0  0  0  0  0  0
    1.4270   25.6950   30.1830 C   0  0  0  0  0  0  0  0  0  0  0  0
    1.9290   21.5030   34.6750 C   0  0  0  0  0  0  0  0  0  0  0  0
    3.3450   13.8510   39.7930 N   0  0  0  0  0  4  0  0  0  0  0  0
    2.4530   15.7630   37.4020 C   0  0  0  0  0  0  0  0  0  0  0  0
    3.5880   15.0120   37.9230 C   0  0  0  0  0  0  0  0  0  0  0  0
    1.6060   22.6770   33.8750 C   0  0  0  0  0  0  0  0  0  0  0  0
    2.0250   25.5440   32.9330 C   0  0  0  0  0  0  0  0  0  0  0  0
    1.0440   27.7400   32.8490 C   0  0  0  0  0  0  0  0  0  0  0  0
    3.4340   23.9080   31.8970 C   0  0  0  0  0  0  0  0  0  0  0  0
    3.5260   24.8780   31.0490 C   0  0  0  0  0  0  0  0  0  0  0  0
    1.7540   15.2860   36.3920 F   0  0  0  0  0  0  0  0  0  0  0  0
    3.1030   13.7820   38.7200 C   0  0  0  0  0  0  0  0  0  0  0  0
    1.6790   16.0660   38.3260 F   0  0  0  0  0  0  0  0  0  0  0  0
    2.7630   19.6180   40.8940 N   0  0  0  0  0  0  0  0  0  0  0  0
    0.9980   21.4890   41.1050 Cl  0  0  0  0  0  0  0  0  0  0  0  0
    3.5326   21.1158   36.9805 H   0  0  0  0  0  0  0  0  0  0  0  0
    2.5917   22.2563   36.0823 H   0  0  0  0  0  0  0  0  0  0  0  0
    2.9913   20.4033   35.1368 H   0  0  0  0  0  0  0  0  0  0  0  0
    0.8755   24.8040   31.4568 H   0  0  0  0  0  0  0  0  0  0  0  0
    3.6493   24.4110   29.4322 H   0  0  0  0  0  0  0  0  0  0  0  0
    4.0103   17.9224   40.6262 H   0  0  0  0  0  0  0  0  0  0  0  0
    2.7467   24.1350   35.1635 H   0  0  0  0  0  0  0  0  0  0  0  0
    0.6353   25.0290   29.8092 H   0  0  0  0  0  0  0  0  0  0  0  0
    1.1368   26.6749   29.7760 H   0  0  0  0  0  0  0  0  0  0  0  0
    2.4360   20.8619   33.9388 H   0  0  0  0  0  0  0  0  0  0  0  0
    0.9512   21.5011   35.1788 H   0  0  0  0  0  0  0  0  0  0  0  0
    2.5112   13.6133   40.3490 H   0  0  0  0  0  0  0  0  0  0  0  0
    4.1056   13.1934   40.0164 H   0  0  0  0  0  0  0  0  0  0  0  0
    3.6444   14.8109   40.0164 H   0  0  0  0  0  0  0  0  0  0  0  0
    2.9625   16.6251   36.9469 H   0  0  0  0  0  0  0  0  0  0  0  0
    4.2151   14.6755   37.0842 H   0  0  0  0  0  0  0  0  0  0  0  0
    4.1682   15.6636   38.5929 H   0  0  0  0  0  0  0  0  0  0  0  0
    0.7788   23.0758   34.4806 H   0  0  0  0  0  0  0  0  0  0  0  0
    1.9093   22.1285   32.9710 H   0  0  0  0  0  0  0  0  0  0  0  0
    2.2092   25.6945   34.0070 H   0  0  0  0  0  0  0  0  0  0  0  0
    1.5229   28.4944   33.4905 H   0  0  0  0  0  0  0  0  0  0  0  0
    0.1854   27.6960   33.5352 H   0  0  0  0  0  0  0  0  0  0  0  0
    4.3973   23.8176   32.4203 H   0  0  0  0  0  0  0  0  0  0  0  0
    3.1716   23.0112   31.3166 H   0  0  0  0  0  0  0  0  0  0  0  0
    4.6026   24.9061   30.8250 H   0  0  0  0  0  0  0  0  0  0  0  0
    2.8833   25.5663   31.6174 H   0  0  0  0  0  0  0  0  0  0  0  0
    2.0118   13.6981   38.6094 H   0  0  0  0  0  0  0  0  0  0  0  0
    3.6200   12.8985   38.3175 H   0  0  0  0  0  0  0  0  0  0  0  0
  1  5  1  0
  1  3  1  0
  1 10  1  0
  3  6  1  0
  4 30  1  0
  4 31  1  0
  6  4  2  0
  7 15  1  0
  8 17  1  0
  8 14  1  0
  8 23  1  0
  9  2  1  0
  9 17  1  0
  9 26  1  0
 10 15  2  0
 10  6  1  0
 11 14  1  0
 11 24  1  0
 12 22  1  0
 12 16  1  0
 13 30  2  0
 14 24  1  0
 14 23  1  0
 15 13  1  0
 18  5  1  0
 20 21  1  0
 20 29  1  0
 21 28  1  0
 22 18  1  0
 23 12  1  0
 25 12  1  0
 26 25  1  0
 27 20  1  0
 28 19  1  0
  1 32  1  0
  5 33  1  0
  5 34  1  0
  8 35  1  0
  9 36  1  0
 13 37  1  0
 16 38  1  0
 17 39  1  0
 17 40  1  0
 18 41  1  0
 18 42  1  0
 19 43  1  0
 19 44  1  0
 19 45  1  0
 20 46  1  0
 21 47  1  0
 21 48  1  0
 22 49  1  0
 22 50  1  0
 23 51  1  0
 24 52  1  0
 24 53  1  0
 25 54  1  0
 25 55  1  0
 26 56  1  0
 26 57  1  0
 28 58  1  0
 28 59  1  0
M  CHG  1  19   1
M  END
>  <mol_id>  (51) 
2026-09-18-3war-s0-n100-0051

>  <rmsd_to_ref>  (51) 


$$$$

     RDKit          3D

 63 66  0  0  0  0  0  0  0  0999 V2000
    3.8300   13.6170   37.9790 C   0  0  0  0  0  0  0  0  0  0  0  0
    3.5220   12.4030   37.1880 C   0  0  0  0  0  0  0  0  0  0  0  0
    3.0040   14.7440   37.4700 C   0  0  0  0  0  0  0  0  0  0  0  0
    2.8170   25.6950   30.9140 C   0  0  0  0  0  0  0  0  0  0  0  0
    2.9570   23.3960   34.3690 C   0  0  0  0  0  0  0  0  0  0  0  0
    3.6270   13.5170   39.3050 O   0  0  0  0  0  0  0  0  0  0  0  0
    2.3620   16.0520   39.9500 C   0  0  0  0  0  0  0  0  0  0  0  0
    2.8790   12.8640   35.8510 C   0  0  0  0  0  0  0  0  0  0  0  0
    3.4470   16.8900   37.9350 C   0  0  0  0  0  0  0  0  0  0  0  0
    1.5020   26.5240   30.8190 C   0  0  0  0  0  0  0  0  0  0  0  0
    4.1130   23.9620   32.2640 C   0  0  0  0  0  0  0  0  0  0  0  0
    2.1440   17.2310   40.4180 N   0  0  0  0  0  0  0  0  0  0  0  0
    2.7910   21.4910   35.7940 N   0  0  0  0  0  0  0  0  0  0  0  0
    2.9000   15.8020   38.5090 C   0  0  0  0  0  0  0  0  0  0  0  0
    2.5630   20.4820   37.7890 C   0  0  0  0  0  0  0  0  0  0  0  0
    3.4780   12.2200   39.9020 C   0  0  0  0  0  0  0  0  0  0  0  0
    3.1190   25.1130   32.0670 C   0  0  0  0  0  0  0  0  0  0  0  0
    2.3170   25.4800   33.1640 C   0  0  0  0  0  0  0  0  0  0  0  0
    3.6040   22.9110   33.1000 C   0  0  0  0  0  0  0  0  0  0  0  0
    3.0410   18.1630   38.3690 C   0  0  0  0  0  0  0  0  0  0  0  0
    1.0760   26.3170   29.3500 C   0  0  0  0  0  0  0  0  0  0  0  0
    1.9120   19.6180   39.9750 C   0  0  0  0  0  0  0  0  0  0  0  0
    2.1080   22.4100   35.0930 C   0  0  0  0  0  0  0  0  0  0  0  0
    2.1200   24.6680   34.3170 C   0  0  0  0  0  0  0  0  0  0  0  0
    2.1330   25.4380   28.7090 C   0  0  0  0  0  0  0  0  0  0  0  0
    3.2690   25.1180   29.7090 C   0  0  0  0  0  0  0  0  0  0  0  0
    2.5810   21.3980   36.8960 N   0  0  0  0  0  0  0  0  0  0  0  0
    3.0930   19.2030   37.4640 C   0  0  0  0  0  0  0  0  0  0  0  0
    2.4680   18.3530   39.6640 C   0  0  0  0  0  0  0  0  0  0  0  0
    1.9090   20.5920   38.9250 C   0  0  0  0  0  0  0  0  0  0  0  0
    4.9105   13.7778   37.8496 H   0  0  0  0  0  0  0  0  0  0  0  0
    4.4466   11.8424   36.9859 H   0  0  0  0  0  0  0  0  0  0  0  0
    2.8346   11.7458   37.7408 H   0  0  0  0  0  0  0  0  0  0  0  0
    3.4741   15.1630   36.5681 H   0  0  0  0  0  0  0  0  0  0  0  0
    1.9970   14.3747   37.2259 H   0  0  0  0  0  0  0  0  0  0  0  0
    3.8971   23.6000   34.9024 H   0  0  0  0  0  0  0  0  0  0  0  0
    2.1599   15.1839   40.5946 H   0  0  0  0  0  0  0  0  0  0  0  0
    2.0019   13.4929   36.0636 H   0  0  0  0  0  0  0  0  0  0  0  0
    3.6132   13.4427   35.2714 H   0  0  0  0  0  0  0  0  0  0  0  0
    2.5666   11.9829   35.2714 H   0  0  0  0  0  0  0  0  0  0  0  0
    4.1993   16.7840   37.1395 H   0  0  0  0  0  0  0  0  0  0  0  0
    0.7391   26.1384   31.5114 H   0  0  0  0  0  0  0  0  0  0  0  0
    1.6322   27.5819   31.0909 H   0  0  0  0  0  0  0  0  0  0  0  0
    5.0267   24.3644   32.7258 H   0  0  0  0  0  0  0  0  0  0  0  0
    4.3081   23.5257   31.2732 H   0  0  0  0  0  0  0  0  0  0  0  0
    3.7921   21.7107   35.6914 H   0  0  0  0  0  0  0  0  0  0  0  0
    3.4892   12.3172   40.9976 H   0  0  0  0  0  0  0  0  0  0  0  0
    2.5231   11.7770   39.5829 H   0  0  0  0  0  0  0  0  0  0  0  0
    4.3076   11.5720   39.5829 H   0  0  0  0  0  0  0  0  0  0  0  0
    4.1301   25.4588   31.8059 H   0  0  0  0  0  0  0  0  0  0  0  0
    1.8104   26.4558   33.1283 H   0  0  0  0  0  0  0  0  0  0  0  0
    2.8566   22.3438   32.5258 H   0  0  0  0  0  0  0  0  0  0  0  0
    4.4661   22.2961   33.3978 H   0  0  0  0  0  0  0  0  0  0  0  0
    0.1795   26.7274   28.8624 H   0  0  0  0  0  0  0  0  0  0  0  0
    1.5035   19.8409   40.9717 H   0  0  0  0  0  0  0  0  0  0  0  0
    1.4606   22.9618   35.7905 H   0  0  0  0  0  0  0  0  0  0  0  0
    1.5453   21.8601   34.3243 H   0  0  0  0  0  0  0  0  0  0  0  0
    1.4129   24.9401   35.1145 H   0  0  0  0  0  0  0  0  0  0  0  0
    2.0966   25.0761   27.6709 H   0  0  0  0  0  0  0  0  0  0  0  0
    4.2054   24.5712   29.5244 H   0  0  0  0  0  0  0  0  0  0  0  0
    2.3322   22.3116   37.3013 H   0  0  0  0  0  0  0  0  0  0  0  0
    3.5509   19.0406   36.4771 H   0  0  0  0  0  0  0  0  0  0  0  0
    1.3131   21.5034   39.0807 H   0  0  0  0  0  0  0  0  0  0  0  0
  1  2  1  0
  1  6  1  0
  3  1  1  0
  3 14  1  0
  5 23  1  0
  6 16  1  0
  7 12  2  0
  8  2  1  0
  9 20  1  0
  9 14  2  0
 10  4  1  0
 11 19  1  0
 13 27  1  0
 14  7  1  0
 15 30  1  0
 17  4  1  0
 17 11  1  0
 17 18  1  0
 18 24  2  0
 19  5  1  0
 20 29  2  0
 21 10  1  0
 23 13  1  0
 24  5  1  0
 25 21  2  0
 25 26  1  0
 26  4  2  0
 27 15  1  0
 28 15  2  0
 28 20  1  0
 29 22  1  0
 29 12  1  0
 30 22  2  0
  1 31  1  0
  2 32  1  0
  2 33  1  0
  3 34  1  0
  3 35  1  0
  5 36  1  0
  7 37  1  0
  8 38  1  0
  8 39  1  0
  8 40  1  0
  9 41  1  0
 10 42  1  0
 10 43  1  0
 11 44  1  0
 11 45  1  0
 13 46  1  0
 16 47  1  0
 16 48  1  0
 16 49  1  0
 17 50  1  0
 18 51  1  0
 19 52  1  0
 19 53  1  0
 21 54  1  0
 22 55  1  0
 23 56  1  0
 23 57  1  0
 24 58  1  0
 25 59  1  0
 26 60  1  0
 27 61  1  0
 28 62  1  0
 30 63  1  0
M  END
>  <mol_id>  (52) 
2026-09-18-3war-s0-n100-0052

>  <rmsd_to_ref>  (52) 


$$$$

     RDKit          3D

 50 52  0  0  0  0  0  0  0  0999 V2000
    1.2710   21.1610   39.6660 C   0  0  0  0  0  0  0  0  0  0  0  0
    2.2590   21.8820   35.1080 O   0  0  0  0  0  0  0  0  0  0  0  0
    2.1240   20.5420   38.5980 C   0  0  0  0  0  0  0  0  0  0  0  0
    4.6020   24.4440   32.7610 C   0  0  0  0  0  0  0  0  0  0  0  0
    4.0370   25.2890   31.8500 C   0  0  0  0  0  0  0  0  0  0  0  0
    2.8310   16.4730   39.5660 C   0  0  0  0  0  0  0  0  0  0  0  0
    3.3090   17.0130   38.3550 C   0  0  0  0  0  0  0  0  0  0  0  0
    2.4500   21.4910   37.7520 C   0  0  0  0  0  0  0  0  0  0  0  0
    1.9790   18.5780   40.0490 C   0  0  0  0  0  0  0  0  0  0  0  0
    2.5160   24.5400   33.8260 C   0  0  0  0  0  0  0  0  0  0  0  0
    2.0940   21.1720   40.8360 O   0  0  0  0  0  0  0  0  0  0  0  0
    2.3790   19.0840   38.8390 C   0  0  0  0  0  0  0  0  0  0  0  0
    3.7660   21.5150   36.9430 C   0  0  0  0  0  0  0  0  0  0  0  0
    2.1060   17.2540   40.4400 C   0  0  0  0  0  0  0  0  0  0  0  0
    2.9360   25.9080   31.5030 C   0  0  0  0  0  0  0  0  0  0  0  0
    3.3430   22.1530   35.4740 C   0  0  0  0  0  0  0  0  0  0  0  0
    1.7240   25.7120   33.6340 C   0  0  0  0  0  0  0  0  0  0  0  0
    1.6970   26.2690   32.2000 C   0  0  0  0  0  0  0  0  0  0  0  0
    3.0510   18.3060   38.0760 C   0  0  0  0  0  0  0  0  0  0  0  0
    3.0310   24.7670   30.8520 C   0  0  0  0  0  0  0  0  0  0  0  0
    4.0130   16.0980   37.4390 C   0  0  0  0  0  0  0  0  0  0  0  0
    4.1000   22.8990   34.6290 N   0  0  0  0  0  0  0  0  0  0  0  0
    3.7180   24.0230   33.7780 C   0  0  0  0  0  0  0  0  0  0  0  0
    0.3660   20.5591   39.8354 H   0  0  0  0  0  0  0  0  0  0  0  0
    0.9307   22.1701   39.3903 H   0  0  0  0  0  0  0  0  0  0  0  0
    1.2531   20.2869   37.9763 H   0  0  0  0  0  0  0  0  0  0  0  0
    5.4509   24.9609   33.2325 H   0  0  0  0  0  0  0  0  0  0  0  0
    4.9083   23.5417   32.2115 H   0  0  0  0  0  0  0  0  0  0  0  0
    5.0175   25.7306   32.0818 H   0  0  0  0  0  0  0  0  0  0  0  0
    3.0379   15.4217   39.8151 H   0  0  0  0  0  0  0  0  0  0  0  0
    1.6416   21.5158   37.0064 H   0  0  0  0  0  0  0  0  0  0  0  0
    2.6120   22.3352   38.4383 H   0  0  0  0  0  0  0  0  0  0  0  0
    1.5219   19.2768   40.7650 H   0  0  0  0  0  0  0  0  0  0  0  0
    2.2555   24.3085   34.8693 H   0  0  0  0  0  0  0  0  0  0  0  0
    2.3457   24.2494   32.7788 H   0  0  0  0  0  0  0  0  0  0  0  0
    1.5205   21.1643   41.6429 H   0  0  0  0  0  0  0  0  0  0  0  0
    4.5156   22.1483   37.4399 H   0  0  0  0  0  0  0  0  0  0  0  0
    4.2160   20.5156   36.8494 H   0  0  0  0  0  0  0  0  0  0  0  0
    1.6659   16.8606   41.3682 H   0  0  0  0  0  0  0  0  0  0  0  0
    2.8694   26.9792   31.2620 H   0  0  0  0  0  0  0  0  0  0  0  0
    0.6901   25.4729   33.9236 H   0  0  0  0  0  0  0  0  0  0  0  0
    2.1896   26.4941   34.2517 H   0  0  0  0  0  0  0  0  0  0  0  0
    1.6039   27.3645   32.2355 H   0  0  0  0  0  0  0  0  0  0  0  0
    0.8391   25.8413   31.6605 H   0  0  0  0  0  0  0  0  0  0  0  0
    3.4421   18.7185   37.1342 H   0  0  0  0  0  0  0  0  0  0  0  0
    3.2607   24.7486   29.7764 H   0  0  0  0  0  0  0  0  0  0  0  0
    2.4222   23.8607   30.7175 H   0  0  0  0  0  0  0  0  0  0  0  0
    4.5812   15.3595   38.0235 H   0  0  0  0  0  0  0  0  0  0  0  0
    3.2798   15.5781   36.8049 H   0  0  0  0  0  0  0  0  0  0  0  0
    4.7035   16.6735   36.8049 H   0  0  0  0  0  0  0  0  0  0  0  0
  1 11  1  0
  2 16  2  0
  3  8  1  0
  3 12  1  0
  3  1  1  0
  4 23  1  0
  5 20  1  0
  5  4  1  0
  6 14  2  0
  7  6  1  0
  9 14  1  0
 12  9  2  0
 13  8  1  0
 15 20  1  0
 15  5  1  0
 15 18  1  0
 16 13  1  0
 17 10  1  0
 18 17  1  0
 19  7  2  0
 19 12  1  0
 21  7  1  0
 22 16  1  0
 23 10  1  0
 23 22  2  3
  1 24  1  0
  1 25  1  0
  3 26  1  0
  4 27  1  0
  4 28  1  0
  5 29  1  0
  6 30  1  0
  8 31  1  0
  8 32  1  0
  9 33  1  0
 10 34  1  0
 10 35  1  0
 11 36  1  0
 13 37  1  0
 13 38  1  0
 14 39  1  0
 15 40  1  0
 17 41  1  0
 17 42  1  0
 18 43  1  0
 18 44  1  0
 19 45  1  0
 20 46  1  0
 20 47  1  0
 21 48  1  0
 21 49  1  0
 21 50  1  0
M  END
>  <mol_id>  (53) 
2026-09-18-3war-s0-n100-0053

>  <rmsd_to_ref>  (53) 


$$$$

     RDKit          3D

 30 29  0  0  0  0  0  0  0  0999 V2000
    3.3970   22.1320   33.9270 N   0  0  0  0  0  0  0  0  0  0  0  0
    3.5570   20.5300   35.8310 C   0  0  0  0  0  0  0  0  0  0  0  0
    3.1770   19.4830   34.9340 O   0  0  0  0  0  0  0  0  0  0  0  0
    3.9650   21.7080   32.9050 N   0  0  0  0  0  0  0  0  0  0  0  0
    4.1670   21.6060   35.0280 C   0  0  0  0  0  0  0  0  0  0  0  0
    3.3990   23.4270   31.2930 C   0  0  0  0  0  0  0  0  0  0  0  0
    2.0970   20.6620   37.9830 C   0  0  0  0  0  0  0  0  0  0  0  0
    1.5050   20.9950   40.6800 C   0  0  0  0  0  0  0  0  0  0  0  0
    4.4530   22.7670   32.1300 C   0  0  0  0  0  0  0  0  0  0  0  0
    1.7600   20.7190   39.2010 C   0  0  0  0  0  0  0  0  0  0  0  0
    0.4670   20.0660   41.3040 C   0  0  0  0  0  0  0  0  0  0  0  0
    2.4300   21.0130   36.6090 C   0  0  0  0  0  0  0  0  0  0  0  0
    2.4259   21.7914   33.9691 H   0  0  0  0  0  0  0  0  0  0  0  0
    4.2821   20.1489   36.5651 H   0  0  0  0  0  0  0  0  0  0  0  0
    2.8896   18.6911   35.4540 H   0  0  0  0  0  0  0  0  0  0  0  0
    4.7509   21.1027   33.1823 H   0  0  0  0  0  0  0  0  0  0  0  0
    5.1089   21.2158   34.6150 H   0  0  0  0  0  0  0  0  0  0  0  0
    4.2738   22.4504   35.7248 H   0  0  0  0  0  0  0  0  0  0  0  0
    2.6504   23.8958   31.9486 H   0  0  0  0  0  0  0  0  0  0  0  0
    3.8632   24.1960   30.6581 H   0  0  0  0  0  0  0  0  0  0  0  0
    2.9099   22.6736   30.6581 H   0  0  0  0  0  0  0  0  0  0  0  0
    1.1519   22.0315   40.7847 H   0  0  0  0  0  0  0  0  0  0  0  0
    2.4536   20.8212   41.2092 H   0  0  0  0  0  0  0  0  0  0  0  0
    5.2360   22.3785   31.4622 H   0  0  0  0  0  0  0  0  0  0  0  0
    4.8390   23.5272   32.8251 H   0  0  0  0  0  0  0  0  0  0  0  0
    0.5336   20.1256   42.4004 H   0  0  0  0  0  0  0  0  0  0  0  0
   -0.5393   20.3707   40.9807 H   0  0  0  0  0  0  0  0  0  0  0  0
    0.6587   19.0322   40.9807 H   0  0  0  0  0  0  0  0  0  0  0  0
    2.5384   22.1076   36.6148 H   0  0  0  0  0  0  0  0  0  0  0  0
    1.6177   20.4830   36.0901 H   0  0  0  0  0  0  0  0  0  0  0  0
  1  5  1  0
  2  3  1  0
  2 12  1  0
  4  1  1  0
  5  2  1  0
  6  9  1  0
  7 10  3  0
  8 11  1  0
  9  4  1  0
 10  8  1  0
 12  7  1  0
  1 13  1  0
  2 14  1  0
  3 15  1  0
  4 16  1  0
  5 17  1  0
  5 18  1  0
  6 19  1  0
  6 20  1  0
  6 21  1  0
  8 22  1  0
  8 23  1  0
  9 24  1  0
  9 25  1  0
 11 26  1  0
 11 27  1  0
 11 28  1  0
 12 29  1  0
 12 30  1  0
M  END
>  <mol_id>  (54) 
2026-09-18-3war-s0-n100-0054

>  <rmsd_to_ref>  (54) 


$$$$

     RDKit          3D

 41 41  0  0  0  0  0  0  0  0999 V2000
    1.8660   23.9880   30.1930 C   0  0  0  0  0  0  0  0  0  0  0  0
    1.5250   26.1200   31.1890 C   0  0  0  0  0  0  0  0  0  0  0  0
    2.5470   19.0510   38.9590 C   0  0  0  0  0  0  0  0  0  0  0  0
    3.4760   21.0830   35.7320 C   0  0  0  0  0  0  0  0  0  0  0  0
    3.0850   24.2510   32.9720 C   0  0  0  0  0  0  0  0  0  0  0  0
    2.5300   22.1820   34.7430 S   0  0  0  0  0  4  0  0  0  0  0  0
    3.6040   24.8050   31.7590 C   0  0  0  0  0  0  0  0  0  0  0  0
    4.8000   18.6140   40.0380 C   0  0  0  0  0  0  0  0  0  0  0  0
    1.9030   21.2180   37.7220 C   0  0  0  0  0  0  0  0  0  0  0  0
    2.6150   25.2310   30.6630 C   0  0  0  0  0  0  0  0  0  0  0  0
    3.0970   21.6310   33.3000 C   0  0  0  0  0  0  0  0  0  0  0  0
    3.5950   22.9800   33.5730 C   0  0  0  0  0  0  0  0  0  0  0  0
    1.9070   20.6080   39.1160 C   0  0  0  0  0  0  0  0  0  0  0  0
    3.8400   18.9870   39.6170 C   0  0  0  0  0  0  0  0  0  0  0  0
    2.5600   20.3900   36.6690 C   0  0  0  0  0  0  0  0  0  0  0  0
    1.5210   23.4155   31.0667 H   0  0  0  0  0  0  0  0  0  0  0  0
    0.9991   24.2896   29.5867 H   0  0  0  0  0  0  0  0  0  0  0  0
    2.5377   23.3625   29.5867 H   0  0  0  0  0  0  0  0  0  0  0  0
    1.5404   26.1075   32.2888 H   0  0  0  0  0  0  0  0  0  0  0  0
    1.6858   27.1479   30.8317 H   0  0  0  0  0  0  0  0  0  0  0  0
    0.5504   25.7559   30.8317 H   0  0  0  0  0  0  0  0  0  0  0  0
    1.8633   18.3256   39.4241 H   0  0  0  0  0  0  0  0  0  0  0  0
    2.6678   18.8116   37.8922 H   0  0  0  0  0  0  0  0  0  0  0  0
    4.2294   21.6490   36.2995 H   0  0  0  0  0  0  0  0  0  0  0  0
    3.9907   20.3490   35.0946 H   0  0  0  0  0  0  0  0  0  0  0  0
    3.2215   25.0255   33.7411 H   0  0  0  0  0  0  0  0  0  0  0  0
    2.0718   23.9555   32.6619 H   0  0  0  0  0  0  0  0  0  0  0  0
    1.4291   22.5607   35.4651 H   0  0  0  0  0  0  0  0  0  0  0  0
    4.1878   25.6961   32.0332 H   0  0  0  0  0  0  0  0  0  0  0  0
    4.1670   23.9763   31.3049 H   0  0  0  0  0  0  0  0  0  0  0  0
    5.7491   18.2452   40.4542 H   0  0  0  0  0  0  0  0  0  0  0  0
    0.8568   21.3814   37.4241 H   0  0  0  0  0  0  0  0  0  0  0  0
    2.4878   22.1471   37.7916 H   0  0  0  0  0  0  0  0  0  0  0  0
    3.2031   25.7441   29.8879 H   0  0  0  0  0  0  0  0  0  0  0  0
    2.3822   21.4947   32.4751 H   0  0  0  0  0  0  0  0  0  0  0  0
    3.6320   20.7047   33.0435 H   0  0  0  0  0  0  0  0  0  0  0  0
    4.6124   23.3943   33.5159 H   0  0  0  0  0  0  0  0  0  0  0  0
    0.8819   20.5590   39.5120 H   0  0  0  0  0  0  0  0  0  0  0  0
    2.5041   21.2143   39.8130 H   0  0  0  0  0  0  0  0  0  0  0  0
    1.7635   19.9253   36.0693 H   0  0  0  0  0  0  0  0  0  0  0  0
    3.2005   19.6868   37.2216 H   0  0  0  0  0  0  0  0  0  0  0  0
  1 10  1  0
  3 13  1  0
  3 14  1  0
  4 15  1  0
  6  4  1  0
  7  5  1  0
  9 13  1  0
 10  2  1  0
 10  7  1  0
 11 12  1  0
 11  6  1  0
 12  5  1  0
 12  6  1  0
 14  8  3  0
 15  9  1  0
  1 16  1  0
  1 17  1  0
  1 18  1  0
  2 19  1  0
  2 20  1  0
  2 21  1  0
  3 22  1  0
  3 23  1  0
  4 24  1  0
  4 25  1  0
  5 26  1  0
  5 27  1  0
  6 28  1  0
  7 29  1  0
  7 30  1  0
  8 31  1  0
  9 32  1  0
  9 33  1  0
 10 34  1  0
 11 35  1  0
 11 36  1  0
 12 37  1  0
 13 38  1  0
 13 39  1  0
 15 40  1  0
 15 41  1  0
M  END
>  <mol_id>  (55) 
2026-09-18-3war-s0-n100-0055

>  <rmsd_to_ref>  (55) 


$$$$

     RDKit          3D

 40 40  0  0  0  0  0  0  0  0999 V2000
    3.8970   22.4410   33.3330 C   0  0  0  0  0  0  0  0  0  0  0  0
    2.3800   19.4920   39.4610 C   0  0  0  0  0  0  0  0  0  0  0  0
    1.9570   24.1360   31.8440 C   0  0  0  0  0  0  0  0  0  0  0  0
    2.9620   17.0520   39.1340 C   0  0  0  0  0  0  0  0  0  0  0  0
    2.8540   15.5670   39.5740 C   0  0  0  0  0  0  0  0  0  0  0  0
    3.4140   18.7440   37.4180 C   0  0  0  0  0  0  0  0  0  0  0  0
    2.3510   21.1720   37.4380 C   0  0  0  0  0  0  0  0  0  0  0  0
    1.7950   20.6140   40.4010 C   0  0  0  0  0  0  0  0  0  0  0  0
    2.7640   19.8530   38.0520 C   0  0  0  0  0  0  0  0  0  0  0  0
    2.5000   18.1450   39.9570 C   0  0  0  0  0  0  0  0  0  0  0  0
    2.4550   22.7030   33.8560 C   0  0  0  0  0  0  0  0  0  0  0  0
    3.5910   20.8490   35.3900 O   0  0  0  0  0  0  0  0  0  0  0  0
    3.5400   17.4900   37.9120 C   0  0  0  0  0  0  0  0  0  0  0  0
    1.9930   24.0730   33.3260 C   0  0  0  0  0  0  0  0  0  0  0  0
    3.2140   24.1330   30.9580 C   0  0  0  0  0  0  0  0  0  0  0  0
    2.7470   21.4990   36.0040 C   0  0  0  0  0  0  0  0  0  0  0  0
    2.1970   22.5570   35.3250 N   0  0  0  0  0  0  0  0  0  0  0  0
    4.5797   22.3170   34.1865 H   0  0  0  0  0  0  0  0  0  0  0  0
    3.9047   21.5267   32.7214 H   0  0  0  0  0  0  0  0  0  0  0  0
    4.2259   23.2941   32.7214 H   0  0  0  0  0  0  0  0  0  0  0  0
    1.3616   23.2690   31.5219 H   0  0  0  0  0  0  0  0  0  0  0  0
    1.5877   25.1598   31.6844 H   0  0  0  0  0  0  0  0  0  0  0  0
    2.8498   15.5094   40.6725 H   0  0  0  0  0  0  0  0  0  0  0  0
    1.9221   15.1349   39.1806 H   0  0  0  0  0  0  0  0  0  0  0  0
    3.7136   15.0046   39.1806 H   0  0  0  0  0  0  0  0  0  0  0  0
    3.8559   18.9311   36.4282 H   0  0  0  0  0  0  0  0  0  0  0  0
    1.2526   21.2132   37.4819 H   0  0  0  0  0  0  0  0  0  0  0  0
    2.9074   21.9132   38.0304 H   0  0  0  0  0  0  0  0  0  0  0  0
    1.9448   20.3266   41.4522 H   0  0  0  0  0  0  0  0  0  0  0  0
    2.3124   21.5644   40.2034 H   0  0  0  0  0  0  0  0  0  0  0  0
    0.7196   20.7340   40.2034 H   0  0  0  0  0  0  0  0  0  0  0  0
    2.2292   17.9410   41.0034 H   0  0  0  0  0  0  0  0  0  0  0  0
    1.8513   21.8743   33.4575 H   0  0  0  0  0  0  0  0  0  0  0  0
    4.1271   16.7639   37.3305 H   0  0  0  0  0  0  0  0  0  0  0  0
    2.6866   24.8437   33.6934 H   0  0  0  0  0  0  0  0  0  0  0  0
    0.9678   24.2389   33.6887 H   0  0  0  0  0  0  0  0  0  0  0  0
    4.1112   24.1309   31.5944 H   0  0  0  0  0  0  0  0  0  0  0  0
    3.2128   23.2349   30.3229 H   0  0  0  0  0  0  0  0  0  0  0  0
    3.2171   25.0311   30.3229 H   0  0  0  0  0  0  0  0  0  0  0  0
    1.6120   23.2448   35.8206 H   0  0  0  0  0  0  0  0  0  0  0  0
  2 10  2  0
  2  8  1  0
  3 14  1  0
  4  5  1  0
  4 10  1  0
  6 13  1  0
  6  9  2  0
  7  9  1  0
  9  2  1  0
 11  1  1  0
 11 17  1  0
 12 16  2  0
 13  4  2  0
 14 11  1  0
 15  3  1  0
 16  7  1  0
 17 16  1  0
  1 18  1  0
  1 19  1  0
  1 20  1  0
  3 21  1  0
  3 22  1  0
  5 23  1  0
  5 24  1  0
  5 25  1  0
  6 26  1  0
  7 27  1  0
  7 28  1  0
  8 29  1  0
  8 30  1  0
  8 31  1  0
 10 32  1  0
 11 33  1  0
 13 34  1  0
 14 35  1  0
 14 36  1  0
 15 37  1  0
 15 38  1  0
 15 39  1  0
 17 40  1  0
M  END
>  <mol_id>  (56) 
2026-09-18-3war-s0-n100-0056

>  <rmsd_to_ref>  (56) 


$$$$

     RDKit          3D

 40 39  0  0  0  0  0  0  0  0999 V2000
    4.2200   18.8450   39.7360 O   0  0  0  0  0  0  0  0  0  0  0  0
    2.8400   21.5390   35.4800 O   0  0  0  0  0  0  0  0  0  0  0  0
    2.5840   25.6670   30.0230 C   0  0  0  0  0  0  0  0  0  0  0  0
    2.9870   18.6010   39.2120 C   0  0  0  0  0  0  0  0  0  0  0  0
    2.6510   24.6680   32.4600 C   0  0  0  0  0  0  0  0  0  0  0  0
    0.9920   21.6070   39.8840 F   0  0  0  0  0  0  0  0  0  0  0  0
    2.5580   20.6800   41.0800 F   0  0  0  0  0  0  0  0  0  0  0  0
    0.1260   26.6920   30.2630 C   0  0  0  0  0  0  0  0  0  0  0  0
    0.5570   19.4560   40.5930 F   0  0  0  0  0  0  0  0  0  0  0  0
    0.7930   26.9780   31.5570 C   0  0  0  0  0  0  0  0  0  0  0  0
    2.3050   19.9820   38.8520 C   0  0  0  0  0  0  0  0  0  0  0  0
    3.8520   25.4170   30.4910 C   0  0  0  0  0  0  0  0  0  0  0  0
    1.3770   25.8230   30.3740 C   0  0  0  0  0  0  0  0  0  0  0  0
    3.3290   23.6850   33.4480 C   0  0  0  0  0  0  0  0  0  0  0  0
    2.9360   20.7850   36.3900 C   0  0  0  0  0  0  0  0  0  0  0  0
    2.1360   20.9610   37.7150 C   0  0  0  0  0  0  0  0  0  0  0  0
    1.7410   25.3330   33.1450 O   0  0  0  0  0  0  0  0  0  0  0  0
    3.8200   22.4050   32.8090 O   0  0  0  0  0  0  0  0  0  0  0  0
    3.7700   19.7290   36.3620 O   0  0  0  0  0  1  0  0  0  0  0  0
    3.7130   24.2360   34.9970 S   0  0  0  0  0  0  0  0  0  0  0  0
    3.8160   24.8900   31.7900 C   0  0  0  0  0  0  0  0  0  0  0  0
    1.5890   20.4930   40.1790 C   0  0  0  0  0  0  0  0  0  0  0  0
    4.1665   18.8344   40.7245 H   0  0  0  0  0  0  0  0  0  0  0  0
    2.4746   24.8446   29.3007 H   0  0  0  0  0  0  0  0  0  0  0  0
    2.7587   26.7518   30.0755 H   0  0  0  0  0  0  0  0  0  0  0  0
    3.0858   17.9892   38.3032 H   0  0  0  0  0  0  0  0  0  0  0  0
    2.3702   18.0585   39.9436 H   0  0  0  0  0  0  0  0  0  0  0  0
    1.9127   24.6277   31.6456 H   0  0  0  0  0  0  0  0  0  0  0  0
    0.1146   27.4857   29.5015 H   0  0  0  0  0  0  0  0  0  0  0  0
   -0.9154   26.4062   30.0539 H   0  0  0  0  0  0  0  0  0  0  0  0
    1.3189   27.9303   31.7197 H   0  0  0  0  0  0  0  0  0  0  0  0
    0.5178   26.9671   32.6220 H   0  0  0  0  0  0  0  0  0  0  0  0
    4.3453   24.6948   29.8239 H   0  0  0  0  0  0  0  0  0  0  0  0
    4.4091   26.3652   30.5140 H   0  0  0  0  0  0  0  0  0  0  0  0
    1.5646   24.7832   30.0681 H   0  0  0  0  0  0  0  0  0  0  0  0
    1.4411   21.8068   37.8234 H   0  0  0  0  0  0  0  0  0  0  0  0
    1.9047   25.2134   34.1140 H   0  0  0  0  0  0  0  0  0  0  0  0
    3.1393   23.4128   35.9298 H   0  0  0  0  0  0  0  0  0  0  0  0
    4.3285   23.9180   31.7391 H   0  0  0  0  0  0  0  0  0  0  0  0
    4.2596   25.7082   32.3764 H   0  0  0  0  0  0  0  0  0  0  0  0
  2 15  2  0
  3 13  1  0
  3 12  1  0
  4  1  1  0
  5 17  1  0
  5 14  1  0
  6 22  1  0
  8 13  1  0
  8 10  1  0
 11  4  1  0
 11 22  1  0
 12 21  1  0
 13 10  1  0
 14 20  1  0
 15 16  1  0
 16 11  2  3
 18 14  2  0
 19 15  1  0
 21  5  1  0
 22  9  1  0
 22  7  1  0
  1 23  1  0
  3 24  1  0
  3 25  1  0
  4 26  1  0
  4 27  1  0
  5 28  1  0
  8 29  1  0
  8 30  1  0
 10 31  1  0
 10 32  1  0
 12 33  1  0
 12 34  1  0
 13 35  1  0
 16 36  1  0
 17 37  1  0
 20 38  1  0
 21 39  1  0
 21 40  1  0
M  CHG  1  19  -1
M  END
>  <mol_id>  (57) 
2026-09-18-3war-s0-n100-0057

>  <rmsd_to_ref>  (57) 


$$$$

     RDKit          3D

 63 63  0  0  0  0  0  0  0  0999 V2000
    1.2060   15.3130   39.4930 O   0  0  0  0  0  0  0  0  0  0  0  0
    4.5450   23.0430   32.7480 C   0  0  0  0  0  0  0  0  0  0  0  0
    2.2240   20.6840   37.9780 C   0  0  0  0  0  0  0  0  0  0  0  0
    2.9170   22.1700   34.4060 C   0  0  0  0  0  0  0  0  0  0  0  0
    2.3250   27.6170   28.0040 C   0  0  0  0  0  0  0  0  0  0  0  0
    4.8590   25.4750   29.8030 C   0  0  0  0  0  0  0  0  0  0  0  0
    3.8690   19.1830   39.3430 C   0  0  0  0  0  0  0  0  0  0  0  0
    2.6790   15.7350   39.0870 C   0  0  0  0  0  0  0  0  0  0  0  0
    2.5370   23.2770   34.5430 C   0  0  0  0  0  0  0  0  0  0  0  0
    1.5470   21.1080   41.0540 C   0  0  0  0  0  0  0  0  0  0  0  0
    1.7110   19.9310   40.0880 C   0  0  0  0  0  0  0  0  0  0  0  0
    2.9430   17.1420   38.6970 C   0  0  0  0  0  0  0  0  0  0  0  0
    0.7260   15.2650   40.3780 C   0  0  0  0  0  0  0  0  0  0  0  0
    3.5920   20.2550   36.0190 O   0  0  0  0  0  0  0  0  0  0  0  0
    2.0670   21.4360   36.8130 N   0  0  0  0  0  0  0  0  0  0  0  0
    2.7800   20.0190   38.9430 C   0  0  0  0  0  0  0  0  0  0  0  0
    3.4020   17.8810   39.7110 O   0  0  0  0  0  0  0  0  0  0  0  0
    2.5330   25.6670   29.2500 C   0  0  0  0  0  0  0  0  0  0  0  0
    3.1220   21.3270   35.7880 C   0  0  0  0  0  0  0  0  0  0  0  0
    4.8350   25.2790   28.3190 C   0  0  0  0  0  0  0  0  0  0  0  0
    0.5020   16.3990   41.3400 C   0  0  0  0  0  0  0  0  0  0  0  0
    3.8280   23.0950   34.0800 N   0  0  0  0  0  0  0  0  0  0  0  0
    3.4610   26.4300   27.8750 S   0  0  0  0  0  4  0  0  0  0  0  0
    1.4070   16.5450   42.4280 O   0  0  0  0  0  0  0  0  0  0  0  0
    3.4850   25.9130   30.2560 C   0  0  0  0  0  0  0  0  0  0  0  0
    5.6290   22.9644   32.9179 H   0  0  0  0  0  0  0  0  0  0  0  0
    4.1986   22.1676   32.1790 H   0  0  0  0  0  0  0  0  0  0  0  0
    4.3285   23.9592   32.1790 H   0  0  0  0  0  0  0  0  0  0  0  0
    1.6903   21.3901   38.6312 H   0  0  0  0  0  0  0  0  0  0  0  0
    2.4419   19.8226   37.3296 H   0  0  0  0  0  0  0  0  0  0  0  0
    2.5400   21.3020   33.8452 H   0  0  0  0  0  0  0  0  0  0  0  0
    2.1284   27.8224   29.0666 H   0  0  0  0  0  0  0  0  0  0  0  0
    2.6931   28.5314   27.5157 H   0  0  0  0  0  0  0  0  0  0  0  0
    1.3953   27.2894   27.5157 H   0  0  0  0  0  0  0  0  0  0  0  0
    5.5980   26.2473   30.0625 H   0  0  0  0  0  0  0  0  0  0  0  0
    5.1357   24.5340   30.3010 H   0  0  0  0  0  0  0  0  0  0  0  0
    4.3773   19.6406   40.2045 H   0  0  0  0  0  0  0  0  0  0  0  0
    4.5649   19.0818   38.4971 H   0  0  0  0  0  0  0  0  0  0  0  0
    3.3268   15.5122   39.9476 H   0  0  0  0  0  0  0  0  0  0  0  0
    2.8719   15.1655   38.1658 H   0  0  0  0  0  0  0  0  0  0  0  0
    1.7678   23.6751   33.8649 H   0  0  0  0  0  0  0  0  0  0  0  0
    2.0989   23.8353   35.3835 H   0  0  0  0  0  0  0  0  0  0  0  0
    1.5980   20.7419   42.0900 H   0  0  0  0  0  0  0  0  0  0  0  0
    2.3521   21.8377   40.8829 H   0  0  0  0  0  0  0  0  0  0  0  0
    0.5730   21.5898   40.8829 H   0  0  0  0  0  0  0  0  0  0  0  0
    1.9642   19.0500   40.6961 H   0  0  0  0  0  0  0  0  0  0  0  0
    0.7532   19.9027   39.5478 H   0  0  0  0  0  0  0  0  0  0  0  0
    3.6904   17.1491   37.8899 H   0  0  0  0  0  0  0  0  0  0  0  0
    1.9884   17.5811   38.3715 H   0  0  0  0  0  0  0  0  0  0  0  0
   -0.2806   14.8927   40.1367 H   0  0  0  0  0  0  0  0  0  0  0  0
    1.4630   14.6842   40.9519 H   0  0  0  0  0  0  0  0  0  0  0  0
    1.2467   22.0433   36.6744 H   0  0  0  0  0  0  0  0  0  0  0  0
    3.6197   20.3276   38.3030 H   0  0  0  0  0  0  0  0  0  0  0  0
    2.3548   24.5930   29.0927 H   0  0  0  0  0  0  0  0  0  0  0  0
    1.5169   26.0481   29.4297 H   0  0  0  0  0  0  0  0  0  0  0  0
    5.7853   25.5761   27.8513 H   0  0  0  0  0  0  0  0  0  0  0  0
    4.6971   24.2390   27.9883 H   0  0  0  0  0  0  0  0  0  0  0  0
    0.5374   17.3321   40.7585 H   0  0  0  0  0  0  0  0  0  0  0  0
   -0.4621   16.1668   41.8160 H   0  0  0  0  0  0  0  0  0  0  0  0
    3.9756   26.7942   26.6587 H   0  0  0  0  0  0  0  0  0  0  0  0
    0.9122   16.4652   43.2818 H   0  0  0  0  0  0  0  0  0  0  0  0
    3.2072   25.3541   31.1618 H   0  0  0  0  0  0  0  0  0  0  0  0
    3.5076   26.9921   30.4683 H   0  0  0  0  0  0  0  0  0  0  0  0
  1 13  1  0
  2 22  1  0
  4  9  1  0
  4 19  1  0
  6 25  1  0
  7 17  1  0
  8  1  1  0
 11 10  1  0
 12  8  1  0
 12 17  1  0
 13 21  1  0
 15  3  1  0
 16  3  1  0
 16  7  1  0
 16 11  1  0
 18 25  1  0
 19 14  2  0
 19 15  1  0
 20  6  1  0
 21 24  1  0
 22  4  1  0
 22  9  1  0
 23  5  1  0
 23 20  1  0
 23 18  1  0
  2 26  1  0
  2 27  1  0
  2 28  1  0
  3 29  1  0
  3 30  1  0
  4 31  1  0
  5 32  1  0
  5 33  1  0
  5 34  1  0
  6 35  1  0
  6 36  1  0
  7 37  1  0
  7 38  1  0
  8 39  1  0
  8 40  1  0
  9 41  1  0
  9 42  1  0
 10 43  1  0
 10 44  1  0
 10 45  1  0
 11 46  1  0
 11 47  1  0
 12 48  1  0
 12 49  1  0
 13 50  1  0
 13 51  1  0
 15 52  1  0
 16 53  1  0
 18 54  1  0
 18 55  1  0
 20 56  1  0
 20 57  1  0
 21 58  1  0
 21 59  1  0
 23 60  1  0
 24 61  1  0
 25 62  1  0
 25 63  1  0
M  END
>  <mol_id>  (58) 
2026-09-18-3war-s0-n100-0058

>  <rmsd_to_ref>  (58) 


$$$$

     RDKit          3D

 38 38  0  0  0  0  0  0  0  0999 V2000
    3.1200   19.0690   39.3560 N   0  0  0  0  0  0  0  0  0  0  0  0
    3.5170   23.5820   34.0320 N   0  0  0  0  0  4  0  0  0  0  0  0
    2.4320   20.6770   37.9430 N   0  0  0  0  0  0  0  0  0  0  0  0
    1.7770   15.6560   39.8530 C   0  0  0  0  0  0  0  0  0  0  0  0
    1.2680   26.0250   30.9550 C   0  0  0  0  0  0  0  0  0  0  0  0
    2.4270   17.9940   39.9650 C   0  0  0  0  0  0  0  0  0  0  0  0
    1.9620   27.1090   31.0070 C   0  0  0  0  0  0  0  0  0  0  0  0
    3.6500   24.0610   32.6260 C   0  0  0  0  0  0  0  0  0  0  0  0
    1.0400   15.7870   41.0410 C   0  0  0  0  0  0  0  0  0  0  0  0
    1.3070   26.8080   32.2700 C   0  0  0  0  0  0  0  0  0  0  0  0
    2.4080   16.7150   39.3030 C   0  0  0  0  0  0  0  0  0  0  0  0
    3.0230   19.4640   38.0840 C   0  0  0  0  0  0  0  0  0  0  0  0
    0.9200   17.0330   41.6030 C   0  0  0  0  0  0  0  0  0  0  0  0
    1.6800   18.1240   41.0870 C   0  0  0  0  0  0  0  0  0  0  0  0
    2.2230   26.1910   33.3220 C   0  0  0  0  0  0  0  0  0  0  0  0
    2.9780   25.3410   32.4370 O   0  0  0  0  0  0  0  0  0  0  0  0
    2.1480   21.2000   36.6440 O   0  0  0  0  0  0  0  0  0  0  0  0
    3.3560   18.7750   37.1340 O   0  0  0  0  0  0  0  0  0  0  0  0
    3.7657   19.6012   39.9566 H   0  0  0  0  0  0  0  0  0  0  0  0
    3.7313   24.3539   34.6794 H   0  0  0  0  0  0  0  0  0  0  0  0
    2.5536   23.2556   34.1938 H   0  0  0  0  0  0  0  0  0  0  0  0
    4.1742   22.8056   34.1938 H   0  0  0  0  0  0  0  0  0  0  0  0
    2.1860   21.2255   38.7794 H   0  0  0  0  0  0  0  0  0  0  0  0
    1.8412   14.6737   39.3622 H   0  0  0  0  0  0  0  0  0  0  0  0
    0.3413   25.9977   30.3629 H   0  0  0  0  0  0  0  0  0  0  0  0
    1.4859   24.9846   30.6721 H   0  0  0  0  0  0  0  0  0  0  0  0
    3.0582   27.0372   30.9506 H   0  0  0  0  0  0  0  0  0  0  0  0
    1.9560   28.0112   30.3777 H   0  0  0  0  0  0  0  0  0  0  0  0
    4.7173   24.1777   32.3866 H   0  0  0  0  0  0  0  0  0  0  0  0
    3.1809   23.3209   31.9611 H   0  0  0  0  0  0  0  0  0  0  0  0
    0.5695   14.9105   41.5105 H   0  0  0  0  0  0  0  0  0  0  0  0
    0.6116   27.2888   32.9737 H   0  0  0  0  0  0  0  0  0  0  0  0
    2.9156   16.5993   38.3340 H   0  0  0  0  0  0  0  0  0  0  0  0
    0.2377   17.1904   42.4514 H   0  0  0  0  0  0  0  0  0  0  0  0
    1.6589   19.0909   41.6112 H   0  0  0  0  0  0  0  0  0  0  0  0
    2.8535   26.9418   33.8208 H   0  0  0  0  0  0  0  0  0  0  0  0
    1.7278   25.6954   34.1700 H   0  0  0  0  0  0  0  0  0  0  0  0
    1.6775   22.0665   36.7328 H   0  0  0  0  0  0  0  0  0  0  0  0
  1  6  1  0
  3 12  1  0
  4  9  2  0
  5  7  1  0
  5 10  1  0
  6 14  1  0
  7 10  1  0
  8  2  1  0
  9 13  1  0
 10 15  1  0
 11  4  1  0
 11  6  2  0
 12  1  1  0
 14 13  2  0
 16  8  1  0
 16 15  1  0
 17  3  1  0
 18 12  2  0
  1 19  1  0
  2 20  1  0
  2 21  1  0
  2 22  1  0
  3 23  1  0
  4 24  1  0
  5 25  1  0
  5 26  1  0
  7 27  1  0
  7 28  1  0
  8 29  1  0
  8 30  1  0
  9 31  1  0
 10 32  1  0
 11 33  1  0
 13 34  1  0
 14 35  1  0
 15 36  1  0
 15 37  1  0
 17 38  1  0
M  CHG  1   2   1
M  END
>  <mol_id>  (59) 
2026-09-18-3war-s0-n100-0059

>  <rmsd_to_ref>  (59) 


$$$$

     RDKit          3D

 50 54  0  0  0  0  0  0  0  0999 V2000
    3.9260   24.3670   28.9770 C   0  0  0  0  0  0  0  0  0  0  0  0
    0.3060   20.1280   41.3460 C   0  0  0  0  0  0  0  0  0  0  0  0
    3.1090   18.8540   38.5940 C   0  0  0  0  0  0  0  0  0  0  0  0
    2.8670   20.6740   36.9160 C   0  0  0  0  0  0  0  0  0  0  0  0
    1.0760   21.1230   40.6740 C   0  0  0  0  0  0  0  0  0  0  0  0
    3.7230   24.1900   30.1760 C   0  0  0  0  0  0  0  0  0  0  0  0
    3.4990   21.3910   34.6330 C   0  0  0  0  0  0  0  0  0  0  0  0
    2.7660   24.1290   29.5030 C   0  0  0  0  0  0  0  0  0  0  0  0
    4.3730   22.3410   34.0690 C   0  0  0  0  0  0  0  0  0  0  0  0
    2.0750   17.0770   40.3190 N   0  0  0  0  0  0  0  0  0  0  0  0
    2.0160   25.6550   29.2250 C   0  0  0  0  0  0  0  0  0  0  0  0
    1.4230   25.3850   31.6640 C   0  0  0  0  0  0  0  0  0  0  0  0
    2.0470   24.2270   32.2330 C   0  0  0  0  0  0  0  0  0  0  0  0
    3.9890   23.7070   31.2250 C   0  0  0  0  0  0  0  0  0  0  0  0
    3.0180   23.2850   32.1310 C   0  0  0  0  0  0  0  0  0  0  0  0
    1.7630   18.4230   40.4000 C   0  0  0  0  0  0  0  0  0  0  0  0
    3.6290   19.7290   37.6040 N   0  0  0  0  0  0  0  0  0  0  0  0
    2.0820   20.7080   39.8560 C   0  0  0  0  0  0  0  0  0  0  0  0
    2.9110   16.5890   39.3470 C   0  0  0  0  0  0  0  0  0  0  0  0
    3.2480   20.7850   35.7000 N   0  0  0  0  0  0  0  0  0  0  0  0
    2.3310   19.3610   39.5840 C   0  0  0  0  0  0  0  0  0  0  0  0
    3.3380   22.5840   33.3220 C   0  0  0  0  0  0  0  0  0  0  0  0
   -1.1890   20.6500   42.1560 Cl  0  0  0  0  0  0  0  0  0  0  0  0
    3.3770   17.5600   38.5320 N   0  0  0  0  0  0  0  0  0  0  0  0
    1.9490   21.3340   37.2600 O   0  0  0  0  0  0  0  0  0  0  0  0
    0.7560   18.7860   41.2860 C   0  0  0  0  0  0  0  0  0  0  0  0
    1.7260   26.1700   30.5750 C   0  0  0  0  0  0  0  0  0  0  0  0
    4.1740   25.3663   28.5897 H   0  0  0  0  0  0  0  0  0  0  0  0
    4.5607   23.9256   28.1945 H   0  0  0  0  0  0  0  0  0  0  0  0
    0.8634   22.1933   40.8125 H   0  0  0  0  0  0  0  0  0  0  0  0
    4.2752   24.5979   31.0355 H   0  0  0  0  0  0  0  0  0  0  0  0
    3.1233   20.4096   34.9580 H   0  0  0  0  0  0  0  0  0  0  0  0
    1.9395   23.4031   29.4984 H   0  0  0  0  0  0  0  0  0  0  0  0
    4.6859   23.1588   34.7348 H   0  0  0  0  0  0  0  0  0  0  0  0
    5.3789   22.1135   33.6864 H   0  0  0  0  0  0  0  0  0  0  0  0
    2.6969   26.3317   28.6878 H   0  0  0  0  0  0  0  0  0  0  0  0
    1.1119   25.5718   28.6039 H   0  0  0  0  0  0  0  0  0  0  0  0
    0.5228   25.7112   32.2055 H   0  0  0  0  0  0  0  0  0  0  0  0
    1.4971   24.0041   33.1592 H   0  0  0  0  0  0  0  0  0  0  0  0
    4.6040   22.8220   31.0047 H   0  0  0  0  0  0  0  0  0  0  0  0
    4.4316   24.5621   31.7568 H   0  0  0  0  0  0  0  0  0  0  0  0
    2.6421   22.3701   31.6497 H   0  0  0  0  0  0  0  0  0  0  0  0
    4.6320   19.6619   37.3795 H   0  0  0  0  0  0  0  0  0  0  0  0
    2.7269   21.4668   39.3889 H   0  0  0  0  0  0  0  0  0  0  0  0
    3.1726   15.5256   39.2430 H   0  0  0  0  0  0  0  0  0  0  0  0
    3.4867   19.8127   35.4582 H   0  0  0  0  0  0  0  0  0  0  0  0
    2.5205   23.0328   32.7387 H   0  0  0  0  0  0  0  0  0  0  0  0
    0.3061   18.0278   41.9439 H   0  0  0  0  0  0  0  0  0  0  0  0
    2.6146   26.7489   30.8669 H   0  0  0  0  0  0  0  0  0  0  0  0
    0.7552   26.6571   30.4010 H   0  0  0  0  0  0  0  0  0  0  0  0
  2 23  1  0
  3 21  1  0
  4 25  2  0
  4 17  1  0
  5  2  2  0
  6  1  1  0
  6 14  1  0
  7 20  1  0
  8  1  1  0
  8  6  1  0
  9  7  1  0
 10 16  1  0
 11  8  1  0
 11 27  1  0
 12 13  2  0
 15 14  1  0
 15 13  1  0
 15 22  1  0
 16 26  2  0
 17  3  1  0
 18  5  1  0
 19 10  2  0
 20  4  1  0
 21 18  2  0
 21 16  1  0
 22  9  1  0
 22  7  1  0
 24  3  2  0
 24 19  1  0
 26  2  1  0
 27 12  1  0
  1 28  1  0
  1 29  1  0
  5 30  1  0
  6 31  1  0
  7 32  1  0
  8 33  1  0
  9 34  1  0
  9 35  1  0
 11 36  1  0
 11 37  1  0
 12 38  1  0
 13 39  1  0
 14 40  1  0
 14 41  1  0
 15 42  1  0
 17 43  1  0
 18 44  1  0
 19 45  1  0
 20 46  1  0
 22 47  1  0
 26 48  1  0
 27 49  1  0
 27 50  1  0
M  END
>  <mol_id>  (60) 
2026-09-18-3war-s0-n100-0060

>  <rmsd_to_ref>  (60) 


$$$$

     RDKit          3D

 33 33  0  0  0  0  0  0  0  0999 V2000
    3.4410   22.3750   33.7760 C   0  0  0  0  0  0  0  0  0  0  0  0
    1.1750   20.0560   40.6810 C   0  0  0  0  0  0  0  0  0  0  0  0
    1.7140   21.1330   38.5700 C   0  0  0  0  0  0  0  0  0  0  0  0
   -0.3630   20.9310   42.4350 C   0  0  0  0  0  0  0  0  0  0  0  0
    2.8580   21.0530   35.7710 N   0  0  0  0  0  0  0  0  0  0  0  0
    3.3600   20.8890   34.3580 C   0  0  0  0  0  0  0  0  0  0  0  0
    3.7260   22.8300   32.3300 C   0  0  0  0  0  0  0  0  0  0  0  0
    1.1210   21.1060   39.7940 C   0  0  0  0  0  0  0  0  0  0  0  0
    4.0280   23.8930   31.3640 C   0  0  0  0  0  0  0  0  0  0  0  0
    3.0510   19.9380   36.6510 C   0  0  0  0  0  0  0  0  0  0  0  0
    2.4630   20.0390   38.1480 C   0  0  0  0  0  0  0  0  0  0  0  0
    3.6810   18.9140   36.3840 O   0  0  0  0  0  0  0  0  0  0  0  0
    0.4250   19.9330   41.8650 O   0  0  0  0  0  0  0  0  0  0  0  0
    2.6190   18.9520   39.0500 C   0  0  0  0  0  0  0  0  0  0  0  0
    3.1650   21.8950   31.5110 O   0  0  0  0  0  0  0  0  0  0  0  0
    2.0140   18.9870   40.2780 C   0  0  0  0  0  0  0  0  0  0  0  0
    2.4631   22.8180   34.0159 H   0  0  0  0  0  0  0  0  0  0  0  0
    4.3999   22.6700   34.2271 H   0  0  0  0  0  0  0  0  0  0  0  0
    1.6023   22.0127   37.9191 H   0  0  0  0  0  0  0  0  0  0  0  0
   -0.3075   20.8607   43.5313 H   0  0  0  0  0  0  0  0  0  0  0  0
    0.0031   21.9166   42.1118 H   0  0  0  0  0  0  0  0  0  0  0  0
   -1.4067   20.8035   42.1118 H   0  0  0  0  0  0  0  0  0  0  0  0
    2.4008   21.9202   36.0868 H   0  0  0  0  0  0  0  0  0  0  0  0
    2.6606   20.2794   33.7670 H   0  0  0  0  0  0  0  0  0  0  0  0
    4.3323   20.3758   34.3207 H   0  0  0  0  0  0  0  0  0  0  0  0
    4.4836   23.3275   32.9534 H   0  0  0  0  0  0  0  0  0  0  0  0
    0.5519   21.9964   40.0993 H   0  0  0  0  0  0  0  0  0  0  0  0
    4.2900   24.8151   31.9035 H   0  0  0  0  0  0  0  0  0  0  0  0
    4.8741   23.5848   30.7323 H   0  0  0  0  0  0  0  0  0  0  0  0
    3.1462   24.0757   30.7323 H   0  0  0  0  0  0  0  0  0  0  0  0
    3.2264   18.0815   38.7614 H   0  0  0  0  0  0  0  0  0  0  0  0
    2.7408   21.1881   32.0591 H   0  0  0  0  0  0  0  0  0  0  0  0
    2.1854   18.1552   40.9771 H   0  0  0  0  0  0  0  0  0  0  0  0
  1  6  1  0
  2 13  1  0
  3  8  1  0
  5 10  1  0
  6  5  1  0
  7  9  1  0
  7  1  1  0
  8  2  2  0
 10 11  1  0
 11  3  2  0
 11 14  1  0
 12 10  2  0
 13  4  1  0
 14 16  2  0
 15  7  1  0
 16  2  1  0
  1 17  1  0
  1 18  1  0
  3 19  1  0
  4 20  1  0
  4 21  1  0
  4 22  1  0
  5 23  1  0
  6 24  1  0
  6 25  1  0
  7 26  1  0
  8 27  1  0
  9 28  1  0
  9 29  1  0
  9 30  1  0
 14 31  1  0
 15 32  1  0
 16 33  1  0
M  END
>  <mol_id>  (61) 
2026-09-18-3war-s0-n100-0061

>  <rmsd_to_ref>  (61) 


$$$$

     RDKit          3D

 59 61  0  0  0  0  0  0  0  0999 V2000
    2.0650   21.2130   38.2550 C   0  0  0  0  0  0  0  0  0  0  0  0
    2.0320   21.8980   31.7420 C   0  0  0  0  0  0  0  0  0  0  0  0
    2.0160   16.4730   41.7890 O   0  0  0  0  0  0  0  0  0  0  0  0
    3.4450   21.0400   36.2120 C   0  0  0  0  0  0  0  0  0  0  0  0
    1.6120   20.8540   39.4760 C   0  0  0  0  0  0  0  0  0  0  0  0
    2.2150   15.4250   38.2450 C   0  0  0  0  0  0  0  0  0  0  0  0
    2.5740   21.5350   35.3660 C   0  0  0  0  0  0  0  0  0  0  0  0
    2.6020   24.6580   31.5360 C   0  0  0  0  0  0  0  0  0  0  0  0
    3.4840   23.0630   32.0910 S   0  0  0  0  0  4  0  0  0  0  0  0
    2.8300   21.8260   34.3720 N   0  0  0  0  0  4  0  0  0  0  0  0
    3.1600   23.1130   33.8100 C   0  0  0  0  0  0  0  0  0  0  0  0
    2.4240   18.5510   38.9470 C   0  0  0  0  0  0  0  0  0  0  0  0
    1.8580   19.5620   39.8280 C   0  0  0  0  0  0  0  0  0  0  0  0
    2.7960   20.3420   37.3970 C   0  0  0  0  0  0  0  0  0  0  0  0
    1.9770   17.5790   40.9170 C   0  0  0  0  0  0  0  0  0  0  0  0
    2.3510   17.4150   39.6990 N   0  0  0  0  0  0  0  0  0  0  0  0
    0.9600   16.7140   42.7090 C   0  0  0  0  0  0  0  0  0  0  0  0
    4.4180   23.6760   29.6670 O   0  0  0  0  0  0  0  0  0  0  0  0
    3.2500   23.8300   29.5220 C   0  0  0  0  0  0  0  0  0  0  0  0
    1.8050   18.8590   41.1030 N   0  0  0  0  0  0  0  0  0  0  0  0
    0.9390   24.9780   29.7070 O   0  0  0  0  0  0  0  0  0  0  0  0
    2.4120   26.1630   31.3450 C   0  0  0  0  0  0  0  0  0  0  0  0
    1.8590   24.0410   30.3460 C   0  0  0  0  0  0  0  0  0  0  0  0
    2.8930   16.1980   39.2820 C   0  0  0  0  0  0  0  0  0  0  0  0
    4.5460   23.3670   34.3920 C   0  0  0  0  0  0  0  0  0  0  0  0
    2.9110   19.0260   37.7210 C   0  0  0  0  0  0  0  0  0  0  0  0
    0.9380   22.8940   31.1310 C   0  0  0  0  0  0  0  0  0  0  0  0
    1.8579   22.2347   37.9038 H   0  0  0  0  0  0  0  0  0  0  0  0
    2.3111   21.1190   31.0172 H   0  0  0  0  0  0  0  0  0  0  0  0
    1.6829   21.3496   32.6294 H   0  0  0  0  0  0  0  0  0  0  0  0
    4.0717   21.8613   36.5898 H   0  0  0  0  0  0  0  0  0  0  0  0
    4.0358   20.2862   35.6709 H   0  0  0  0  0  0  0  0  0  0  0  0
    1.0826   21.5550   40.1381 H   0  0  0  0  0  0  0  0  0  0  0  0
    1.5592   14.6773   38.7148 H   0  0  0  0  0  0  0  0  0  0  0  0
    1.6124   16.1000   37.6195 H   0  0  0  0  0  0  0  0  0  0  0  0
    2.9628   14.9155   37.6195 H   0  0  0  0  0  0  0  0  0  0  0  0
    1.7840   20.7761   35.2656 H   0  0  0  0  0  0  0  0  0  0  0  0
    2.3464   22.5070   35.8280 H   0  0  0  0  0  0  0  0  0  0  0  0
    2.8393   25.0728   32.5268 H   0  0  0  0  0  0  0  0  0  0  0  0
    4.7562   22.8376   31.6353 H   0  0  0  0  0  0  0  0  0  0  0  0
    3.6507   21.2444   34.1504 H   0  0  0  0  0  0  0  0  0  0  0  0
    1.8810   21.7599   33.9770 H   0  0  0  0  0  0  0  0  0  0  0  0
    2.3443   23.8237   34.0088 H   0  0  0  0  0  0  0  0  0  0  0  0
    1.3421   16.6268   43.7368 H   0  0  0  0  0  0  0  0  0  0  0  0
    0.5601   17.7265   42.5511 H   0  0  0  0  0  0  0  0  0  0  0  0
    0.1604   15.9752   42.5511 H   0  0  0  0  0  0  0  0  0  0  0  0
    3.0255   23.8306   28.4452 H   0  0  0  0  0  0  0  0  0  0  0  0
    0.4450   25.4812   30.4019 H   0  0  0  0  0  0  0  0  0  0  0  0
    2.3502   26.6525   32.3282 H   0  0  0  0  0  0  0  0  0  0  0  0
    3.2656   26.5722   30.7847 H   0  0  0  0  0  0  0  0  0  0  0  0
    1.4835   26.3472   30.7847 H   0  0  0  0  0  0  0  0  0  0  0  0
    2.9549   15.5541   40.1717 H   0  0  0  0  0  0  0  0  0  0  0  0
    3.8425   16.4877   38.8081 H   0  0  0  0  0  0  0  0  0  0  0  0
    4.4899   23.3567   35.4905 H   0  0  0  0  0  0  0  0  0  0  0  0
    5.2360   22.5803   34.0527 H   0  0  0  0  0  0  0  0  0  0  0  0
    4.9122   24.3472   34.0527 H   0  0  0  0  0  0  0  0  0  0  0  0
    3.3893   18.3297   37.0164 H   0  0  0  0  0  0  0  0  0  0  0  0
    0.3335   23.3520   31.9278 H   0  0  0  0  0  0  0  0  0  0  0  0
    0.2205   22.3900   30.4668 H   0  0  0  0  0  0  0  0  0  0  0  0
  1  5  2  0
  2  9  1  0
  3 17  1  0
  4 14  1  0
  5 13  1  0
  6 24  1  0
  7  4  1  0
  8 22  1  0
  8  9  1  0
  9 11  1  0
 10  7  1  0
 11 10  1  0
 11 25  1  0
 12 16  1  0
 12 13  2  0
 13 20  1  0
 14 26  2  0
 14  1  1  0
 15 20  2  0
 15  3  1  0
 16 15  1  0
 19 18  2  0
 19 23  1  0
 23 21  1  0
 23 27  1  0
 23  8  1  0
 24 16  1  0
 26 12  1  0
 27  2  1  0
  1 28  1  0
  2 29  1  0
  2 30  1  0
  4 31  1  0
  4 32  1  0
  5 33  1  0
  6 34  1  0
  6 35  1  0
  6 36  1  0
  7 37  1  0
  7 38  1  0
  8 39  1  0
  9 40  1  0
 10 41  1  0
 10 42  1  0
 11 43  1  0
 17 44  1  0
 17 45  1  0
 17 46  1  0
 19 47  1  0
 21 48  1  0
 22 49  1  0
 22 50  1  0
 22 51  1  0
 24 52  1  0
 24 53  1  0
 25 54  1  0
 25 55  1  0
 25 56  1  0
 26 57  1  0
 27 58  1  0
 27 59  1  0
M  CHG  1  10   1
M  END
>  <mol_id>  (62) 
2026-09-18-3war-s0-n100-0062

>  <rmsd_to_ref>  (62) 


$$$$

     RDKit          3D

 46 48  0  0  0  0  0  0  0  0999 V2000
    3.3120   23.3100   33.6760 C   0  0  0  0  0  0  0  0  0  0  0  0
    0.2130   19.5470   42.1210 C   0  0  0  0  0  0  0  0  0  0  0  0
    2.0200   21.4070   36.9860 C   0  0  0  0  0  0  0  0  0  0  0  0
    2.5710   15.9760   40.0430 C   0  0  0  0  0  0  0  0  0  0  0  0
   -0.6350   19.8420   43.0300 C   0  0  0  0  0  0  0  0  0  0  0  0
    2.7310   25.6030   30.0520 C   0  0  0  0  0  0  0  0  0  0  0  0
    1.7120   19.7480   40.5010 C   0  0  0  0  0  0  0  0  0  0  0  0
    1.6200   18.2830   40.6490 C   0  0  0  0  0  0  0  0  0  0  0  0
    1.1370   27.1810   31.2530 O   0  0  0  0  0  0  0  0  0  0  0  0
    3.1070   19.0890   37.7630 C   0  0  0  0  0  0  0  0  0  0  0  0
    3.1690   24.0920   32.3790 C   0  0  0  0  0  0  0  0  0  0  0  0
    0.7290   27.0030   32.5790 C   0  0  0  0  0  0  0  0  0  0  0  0
   -1.2800   20.2750   43.6140 O   0  0  0  0  0  0  0  0  0  0  0  0
    2.2840   20.6840   39.4270 C   0  0  0  0  0  0  0  0  0  0  0  0
    2.3540   17.4130   39.5940 C   0  0  0  0  0  0  0  0  0  0  0  0
    3.2880   18.4540   39.0350 O   0  0  0  0  0  0  0  0  0  0  0  0
    3.9210   23.8220   31.1930 C   0  0  0  0  0  0  0  0  0  0  0  0
    0.4860   17.8850   41.8010 S   0  0  0  0  0  0  0  0  0  0  0  0
    2.2620   25.1570   32.3380 C   0  0  0  0  0  0  0  0  0  0  0  0
    2.9470   21.5180   35.6980 C   0  0  0  0  0  0  0  0  0  0  0  0
    3.6750   24.6010   30.0730 C   0  0  0  0  0  0  0  0  0  0  0  0
    2.0310   25.9550   31.2230 C   0  0  0  0  0  0  0  0  0  0  0  0
    2.2630   20.3210   38.0090 C   0  0  0  0  0  0  0  0  0  0  0  0
    2.5720   22.5250   34.5210 C   0  0  0  0  0  0  0  0  0  0  0  0
    0.9230   20.3490   41.4480 N   0  0  0  0  0  0  0  0  0  0  0  0
    4.3390   23.4052   34.0582 H   0  0  0  0  0  0  0  0  0  0  0  0
    1.1985   22.1237   37.1328 H   0  0  0  0  0  0  0  0  0  0  0  0
    2.5776   15.9323   41.1421 H   0  0  0  0  0  0  0  0  0  0  0  0
    1.7581   15.3441   39.6558 H   0  0  0  0  0  0  0  0  0  0  0  0
    3.5342   15.6124   39.6558 H   0  0  0  0  0  0  0  0  0  0  0  0
    2.5212   26.1340   29.1117 H   0  0  0  0  0  0  0  0  0  0  0  0
    2.2426   17.4578   41.0250 H   0  0  0  0  0  0  0  0  0  0  0  0
    2.5915   18.4085   37.0693 H   0  0  0  0  0  0  0  0  0  0  0  0
    4.0744   19.3553   37.3121 H   0  0  0  0  0  0  0  0  0  0  0  0
    1.5232   27.3495   33.2566 H   0  0  0  0  0  0  0  0  0  0  0  0
   -0.1877   27.5830   32.7616 H   0  0  0  0  0  0  0  0  0  0  0  0
    0.5306   25.9366   32.7616 H   0  0  0  0  0  0  0  0  0  0  0  0
    1.7310   21.6310   39.5136 H   0  0  0  0  0  0  0  0  0  0  0  0
    3.3596   20.6801   39.6572 H   0  0  0  0  0  0  0  0  0  0  0  0
    1.9213   16.9547   38.6925 H   0  0  0  0  0  0  0  0  0  0  0  0
    4.6729   23.0194   31.1701 H   0  0  0  0  0  0  0  0  0  0  0  0
    1.6917   25.3784   33.2522 H   0  0  0  0  0  0  0  0  0  0  0  0
    3.8513   20.8967   35.6193 H   0  0  0  0  0  0  0  0  0  0  0  0
    4.2597   24.4102   29.1610 H   0  0  0  0  0  0  0  0  0  0  0  0
    1.2737   19.9544   37.6978 H   0  0  0  0  0  0  0  0  0  0  0  0
    1.4884   22.6075   34.3507 H   0  0  0  0  0  0  0  0  0  0  0  0
  1 24  2  3
  2  5  2  0
  5 13  2  0
  6 21  2  0
  6 22  1  0
  7 25  2  0
  8  7  1  0
  8 18  1  0
  9 12  1  0
 10 23  1  0
 10 16  1  0
 11  1  1  0
 14  7  1  0
 15  4  1  0
 15  8  1  0
 16 15  1  0
 17 11  2  0
 18  2  1  0
 19 11  1  0
 20  3  2  3
 21 17  1  0
 22  9  1  0
 22 19  2  0
 23  3  1  0
 23 14  1  0
 24 20  1  0
 25  2  1  0
  1 26  1  0
  3 27  1  0
  4 28  1  0
  4 29  1  0
  4 30  1  0
  6 31  1  0
  8 32  1  0
 10 33  1  0
 10 34  1  0
 12 35  1  0
 12 36  1  0
 12 37  1  0
 14 38  1  0
 14 39  1  0
 15 40  1  0
 17 41  1  0
 19 42  1  0
 20 43  1  0
 21 44  1  0
 23 45  1  0
 24 46  1  0
M  END
>  <mol_id>  (63) 
2026-09-18-3war-s0-n100-0063

>  <rmsd_to_ref>  (63) 


$$$$

     RDKit          3D

 68 72  0  0  0  0  0  0  0  0999 V2000
    2.7470   21.2650   35.6210 C   0  0  0  0  0  0  0  0  0  0  0  0
    1.7480   20.3920   39.2310 C   0  0  0  0  0  0  0  0  0  0  0  0
    4.1260   21.2430   34.6830 C   0  0  0  0  0  0  0  0  0  0  0  0
    4.5480   23.4090   31.7290 C   0  0  0  0  0  0  0  0  0  0  0  0
    4.9480   20.7590   35.5720 O   0  0  0  0  0  0  0  0  0  0  0  0
    4.4080   24.6320   30.2960 O   0  0  0  0  0  0  0  0  0  0  0  0
    0.1750   20.8430   41.6440 C   0  0  0  0  0  0  0  0  0  0  0  0
    2.4510   20.1240   37.9530 C   0  0  0  0  0  0  0  0  0  0  0  0
    3.0880   23.3920   31.8450 C   0  0  0  0  0  0  0  0  0  0  0  0
    2.6490   17.8520   38.6980 C   0  0  0  0  0  0  0  0  0  0  0  0
   -1.0490   19.9100   43.6470 C   0  0  0  0  0  0  0  0  0  0  0  0
    1.8810   25.6910   29.3640 C   0  0  0  0  0  0  0  0  0  0  0  0
    2.9040   16.4310   38.3110 O   0  0  0  0  0  0  0  0  0  0  0  0
    1.5890   19.4050   40.2730 C   0  0  0  0  0  0  0  0  0  0  0  0
    3.9730   23.8410   29.4910 C   0  0  0  0  0  0  0  0  0  0  0  0
    3.0530   22.1870   34.2440 C   0  0  0  0  0  0  0  0  0  0  0  0
    0.5760   18.5350   42.3080 N   0  0  0  0  0  0  0  0  0  0  0  0
    2.6750   15.2280   38.9080 C   0  0  0  0  0  0  0  0  0  0  0  0
    2.9000   18.7070   37.5840 C   0  0  0  0  0  0  0  0  0  0  0  0
    5.5540   24.3330   32.2390 S   0  0  0  0  0  0  0  0  0  0  0  0
    2.2360   18.1560   39.9070 C   0  0  0  0  0  0  0  0  0  0  0  0
    2.4020   24.2640   29.2200 C   0  0  0  0  0  0  0  0  0  0  0  0
   -0.2710   18.5590   43.3930 C   0  0  0  0  0  0  0  0  0  0  0  0
    1.9630   24.9280   28.0890 C   0  0  0  0  0  0  0  0  0  0  0  0
    3.6990   23.8130   26.0100 C   0  0  0  0  0  0  0  0  0  0  0  0
    3.6790   24.6390   27.4160 C   0  0  0  0  0  0  0  0  0  0  0  0
    2.6400   21.3280   37.1570 C   0  0  0  0  0  0  0  0  0  0  0  0
    0.8340   19.5950   41.3850 C   0  0  0  0  0  0  0  0  0  0  0  0
    3.8650   21.9990   32.1350 C   0  0  0  0  0  0  0  0  0  0  0  0
    5.0590   23.1460   26.0920 O   0  0  0  0  0  0  0  0  0  0  0  0
   -0.6890   20.9930   42.8340 C   0  0  0  0  0  0  0  0  0  0  0  0
    5.5390   22.9100   27.5670 C   0  0  0  0  0  0  0  0  0  0  0  0
    4.8260   24.1200   28.2720 C   0  0  0  0  0  0  0  0  0  0  0  0
    1.8609   20.7225   35.9822 H   0  0  0  0  0  0  0  0  0  0  0  0
    1.3258   21.3946   39.3936 H   0  0  0  0  0  0  0  0  0  0  0  0
    4.8726   21.0197   33.9066 H   0  0  0  0  0  0  0  0  0  0  0  0
    5.3284   23.6757   31.0011 H   0  0  0  0  0  0  0  0  0  0  0  0
    4.6077   20.9594   36.4798 H   0  0  0  0  0  0  0  0  0  0  0  0
    4.2273   24.3035   31.2123 H   0  0  0  0  0  0  0  0  0  0  0  0
    0.3130   21.6898   40.9556 H   0  0  0  0  0  0  0  0  0  0  0  0
    2.6047   23.9257   32.6766 H   0  0  0  0  0  0  0  0  0  0  0  0
    2.2689   23.6784   31.1689 H   0  0  0  0  0  0  0  0  0  0  0  0
   -1.8288   19.9958   44.4180 H   0  0  0  0  0  0  0  0  0  0  0  0
    0.9099   25.8919   29.8400 H   0  0  0  0  0  0  0  0  0  0  0  0
    2.2496   26.6500   29.7569 H   0  0  0  0  0  0  0  0  0  0  0  0
    4.0014   22.7815   29.7853 H   0  0  0  0  0  0  0  0  0  0  0  0
    3.2118   23.2710   34.3422 H   0  0  0  0  0  0  0  0  0  0  0  0
    2.5157   22.3394   33.2964 H   0  0  0  0  0  0  0  0  0  0  0  0
    2.6984   15.3507   40.0009 H   0  0  0  0  0  0  0  0  0  0  0  0
    1.6886   14.8490   38.6026 H   0  0  0  0  0  0  0  0  0  0  0  0
    3.4532   14.5131   38.6026 H   0  0  0  0  0  0  0  0  0  0  0  0
    3.3408   18.4008   36.6238 H   0  0  0  0  0  0  0  0  0  0  0  0
    5.5363   24.3168   33.6088 H   0  0  0  0  0  0  0  0  0  0  0  0
    2.3911   17.4106   40.7010 H   0  0  0  0  0  0  0  0  0  0  0  0
    2.1572   23.2981   29.6860 H   0  0  0  0  0  0  0  0  0  0  0  0
   -0.3991   17.6844   44.0478 H   0  0  0  0  0  0  0  0  0  0  0  0
    1.2290   25.0039   27.2732 H   0  0  0  0  0  0  0  0  0  0  0  0
    3.6302   24.4870   25.1434 H   0  0  0  0  0  0  0  0  0  0  0  0
    2.8574   23.1170   25.8785 H   0  0  0  0  0  0  0  0  0  0  0  0
    3.9170   25.7088   27.3220 H   0  0  0  0  0  0  0  0  0  0  0  0
    3.5697   21.7946   37.5147 H   0  0  0  0  0  0  0  0  0  0  0  0
    1.6915   21.8644   37.3078 H   0  0  0  0  0  0  0  0  0  0  0  0
    3.8189   21.1650   31.4192 H   0  0  0  0  0  0  0  0  0  0  0  0
    3.9399   21.2649   32.9508 H   0  0  0  0  0  0  0  0  0  0  0  0
   -1.0642   21.9945   43.0915 H   0  0  0  0  0  0  0  0  0  0  0  0
    5.1919   21.9435   27.9613 H   0  0  0  0  0  0  0  0  0  0  0  0
    6.6299   22.8676   27.7020 H   0  0  0  0  0  0  0  0  0  0  0  0
    5.7062   24.7455   28.4817 H   0  0  0  0  0  0  0  0  0  0  0  0
  1 27  1  0
  2 14  2  0
  3  5  1  0
  3  1  1  0
  4  9  1  0
  4 29  1  0
  4 20  1  0
  7 31  2  0
  8  2  1  0
  9 29  1  0
 10 21  2  0
 13 10  1  0
 13 18  1  0
 14 28  1  0
 15  6  1  0
 16  3  1  0
 16  1  1  0
 17 23  1  0
 19  8  2  0
 19 10  1  0
 21 14  1  0
 22 12  1  0
 22 15  1  0
 23 11  2  0
 24 22  1  0
 24 12  1  0
 25 30  1  0
 26 25  1  0
 26 24  1  0
 26 33  1  0
 27  8  1  0
 28  7  1  0
 28 17  2  0
 30 32  1  0
 31 11  1  0
 33 32  1  0
 33 15  1  0
  1 34  1  0
  2 35  1  0
  3 36  1  0
  4 37  1  0
  5 38  1  0
  6 39  1  0
  7 40  1  0
  9 41  1  0
  9 42  1  0
 11 43  1  0
 12 44  1  0
 12 45  1  0
 15 46  1  0
 16 47  1  0
 16 48  1  0
 18 49  1  0
 18 50  1  0
 18 51  1  0
 19 52  1  0
 20 53  1  0
 21 54  1  0
 22 55  1  0
 23 56  1  0
 24 57  1  0
 25 58  1  0
 25 59  1  0
 26 60  1  0
 27 61  1  0
 27 62  1  0
 29 63  1  0
 29 64  1  0
 31 65  1  0
 32 66  1  0
 32 67  1  0
 33 68  1  0
M  END
>  <mol_id>  (64) 
2026-09-18-3war-s0-n100-0064

>  <rmsd_to_ref>  (64) 


$$$$

     RDKit          3D

 49 48  0  0  0  0  0  0  0  0999 V2000
    0.7930   26.3050   33.0920 C   0  0  0  0  0  0  0  0  0  0  0  0
    3.2220   19.7900   39.6480 C   0  0  0  0  0  0  0  0  0  0  0  0
    3.9220   23.0200   32.4180 O   0  0  0  0  0  0  0  0  0  0  0  0
    3.1080   22.6630   33.8040 C   0  0  0  0  0  0  0  0  0  0  0  0
    1.4850   15.2830   40.7500 C   0  0  0  0  0  0  0  0  0  0  0  0
    2.6360   21.1730   36.3030 C   0  0  0  0  0  0  0  0  0  0  0  0
    2.7520   23.4900   32.3370 C   0  0  0  0  0  0  0  0  0  0  0  0
    3.5030   21.5650   34.8820 C   0  0  0  0  0  0  0  0  0  0  0  0
    2.6020   17.1510   39.5940 C   0  0  0  0  0  0  0  0  0  0  0  0
    3.7170   25.4240   33.1640 O   0  0  0  0  0  0  0  0  0  0  0  0
    2.3420   15.7420   39.6850 C   0  0  0  0  0  0  0  0  0  0  0  0
    1.7240   26.7800   32.1030 C   0  0  0  0  0  0  0  0  0  0  0  0
    2.9650   18.5220   38.9400 C   0  0  0  0  0  0  0  0  0  0  0  0
    3.0200   18.6220   37.5890 C   0  0  0  0  0  0  0  0  0  0  0  0
    2.2210   14.2310   41.6920 C   0  0  0  0  0  0  0  0  0  0  0  0
    3.1170   19.9660   37.0700 C   0  0  0  0  0  0  0  0  0  0  0  0
    1.9280   17.6390   40.9690 O   0  0  0  0  0  0  0  0  0  0  0  0
    3.3570   24.9360   31.9580 C   0  0  0  0  0  0  0  0  0  0  0  0
    2.2470   25.7340   31.2520 C   0  0  0  0  0  0  0  0  0  0  0  0
    1.1907   26.5079   34.0973 H   0  0  0  0  0  0  0  0  0  0  0  0
   -0.1699   26.8220   32.9674 H   0  0  0  0  0  0  0  0  0  0  0  0
    0.6465   25.2220   32.9674 H   0  0  0  0  0  0  0  0  0  0  0  0
    3.1870   19.6173   40.7338 H   0  0  0  0  0  0  0  0  0  0  0  0
    4.2156   20.1708   39.3691 H   0  0  0  0  0  0  0  0  0  0  0  0
    2.4551   20.5276   39.3691 H   0  0  0  0  0  0  0  0  0  0  0  0
    3.0688   23.6096   34.3630 H   0  0  0  0  0  0  0  0  0  0  0  0
    2.2204   22.1784   33.3711 H   0  0  0  0  0  0  0  0  0  0  0  0
    0.5961   14.8065   40.3110 H   0  0  0  0  0  0  0  0  0  0  0  0
    1.2063   16.1530   41.3627 H   0  0  0  0  0  0  0  0  0  0  0  0
    1.7745   21.7684   36.6395 H   0  0  0  0  0  0  0  0  0  0  0  0
    2.1404   23.0372   31.5427 H   0  0  0  0  0  0  0  0  0  0  0  0
    2.0505   23.3836   33.1776 H   0  0  0  0  0  0  0  0  0  0  0  0
    4.4279   20.9995   34.6955 H   0  0  0  0  0  0  0  0  0  0  0  0
    3.2225   16.8137   38.7507 H   0  0  0  0  0  0  0  0  0  0  0  0
    3.3100   24.8722   33.8781 H   0  0  0  0  0  0  0  0  0  0  0  0
    1.8805   15.4318   38.7359 H   0  0  0  0  0  0  0  0  0  0  0  0
    3.3219   15.2936   39.9058 H   0  0  0  0  0  0  0  0  0  0  0  0
    1.2121   27.5200   31.4702 H   0  0  0  0  0  0  0  0  0  0  0  0
    2.5779   27.2129   32.6447 H   0  0  0  0  0  0  0  0  0  0  0  0
    2.9926   17.7395   36.9330 H   0  0  0  0  0  0  0  0  0  0  0  0
    2.0388   14.4915   42.7451 H   0  0  0  0  0  0  0  0  0  0  0  0
    1.8304   13.2226   41.4908 H   0  0  0  0  0  0  0  0  0  0  0  0
    3.3022   14.2523   41.4908 H   0  0  0  0  0  0  0  0  0  0  0  0
    4.0756   19.8421   36.5448 H   0  0  0  0  0  0  0  0  0  0  0  0
    2.4729   20.2891   37.9011 H   0  0  0  0  0  0  0  0  0  0  0  0
    2.4364   17.2709   41.7346 H   0  0  0  0  0  0  0  0  0  0  0  0
    4.2130   24.9530   31.2674 H   0  0  0  0  0  0  0  0  0  0  0  0
    2.6589   26.1884   30.3388 H   0  0  0  0  0  0  0  0  0  0  0  0
    1.4260   25.0433   31.0093 H   0  0  0  0  0  0  0  0  0  0  0  0
  3  4  1  0
  4  8  1  0
  5 15  1  0
  6 16  1  0
  7  3  1  0
  8  6  2  3
  9 11  1  0
  9 17  1  0
 11  5  1  0
 12  1  1  0
 13  9  1  0
 13  2  1  0
 14 13  2  3
 16 14  1  0
 18  7  1  0
 18 10  1  0
 19 18  1  0
 19 12  1  0
  1 20  1  0
  1 21  1  0
  1 22  1  0
  2 23  1  0
  2 24  1  0
  2 25  1  0
  4 26  1  0
  4 27  1  0
  5 28  1  0
  5 29  1  0
  6 30  1  0
  7 31  1  0
  7 32  1  0
  8 33  1  0
  9 34  1  0
 10 35  1  0
 11 36  1  0
 11 37  1  0
 12 38  1  0
 12 39  1  0
 14 40  1  0
 15 41  1  0
 15 42  1  0
 15 43  1  0
 16 44  1  0
 16 45  1  0
 17 46  1  0
 18 47  1  0
 19 48  1  0
 19 49  1  0
M  END
>  <mol_id>  (65) 
2026-09-18-3war-s0-n100-0065

>  <rmsd_to_ref>  (65) 


$$$$

     RDKit          3D

 75 78  0  0  0  0  0  0  0  0999 V2000
    2.4380   18.2080   39.8160 C   0  0  0  0  0  0  0  0  0  0  0  0
    2.9330   19.5050   39.3340 C   0  0  0  0  0  0  0  0  0  0  0  0
    2.1880   20.7770   39.5300 C   0  0  0  0  0  0  0  0  0  0  0  0
    4.5880   24.4360   30.1100 O   0  0  0  0  0  0  0  0  0  0  0  0
    0.1180   16.6440   43.0540 C   0  0  0  0  0  0  0  0  0  0  0  0
    0.9870   18.5230   41.9430 C   0  0  0  0  0  0  0  0  0  0  0  0
    0.6410   27.3600   31.4780 N   0  0  0  0  0  4  0  0  0  0  0  0
    2.9200   17.3050   38.9230 N   0  0  0  0  0  0  0  0  0  0  0  0
    2.8310   16.0330   39.0680 C   0  0  0  0  0  0  0  0  0  0  0  0
    2.8840   19.3800   37.7150 C   0  0  0  0  0  0  0  0  0  0  0  0
    0.8230   15.8510   42.4370 C   0  0  0  0  0  0  0  0  0  0  0  0
    4.0750   24.0460   31.2790 C   0  0  0  0  0  0  0  0  0  0  0  0
    4.4530   14.9890   37.2120 C   0  0  0  0  0  0  0  0  0  0  0  0
    0.2400   17.9690   42.9880 C   0  0  0  0  0  0  0  0  0  0  0  0
    0.9410   23.4430   34.5590 C   0  0  0  0  0  0  0  0  0  0  0  0
    2.0780   24.2250   32.6520 C   0  0  0  0  0  0  0  0  0  0  0  0
    2.1550   15.5600   40.1520 N   0  0  0  0  0  0  0  0  0  0  0  0
    1.2260   26.1540   31.6900 C   0  0  0  0  0  0  0  0  0  0  0  0
    1.7080   17.6580   41.0560 C   0  0  0  0  0  0  0  0  0  0  0  0
    3.1860   15.2530   37.7610 C   0  0  0  0  0  0  0  0  0  0  0  0
   -0.9040   15.6480   43.9940 N   0  0  0  0  0  0  0  0  0  0  0  0
    4.6820   23.1130   32.2090 C   0  0  0  0  0  0  0  0  0  0  0  0
    1.6180   16.2190   41.3940 C   0  0  0  0  0  0  0  0  0  0  0  0
    2.8430   24.6390   31.6040 C   0  0  0  0  0  0  0  0  0  0  0  0
    1.8510   23.1210   33.4820 C   0  0  0  0  0  0  0  0  0  0  0  0
    3.7900   14.0710   38.0120 C   0  0  0  0  0  0  0  0  0  0  0  0
    2.3190   25.7230   30.8250 C   0  0  0  0  0  0  0  0  0  0  0  0
    0.8820   25.2210   32.8160 C   0  0  0  0  0  0  0  0  0  0  0  0
    1.9730   15.1340   36.8540 N   0  0  0  0  0  4  0  0  0  0  0  0
    4.2520   22.5030   33.3320 C   0  0  0  0  0  0  0  0  0  0  0  0
    2.9970   22.3280   33.8450 C   0  0  0  0  0  0  0  0  0  0  0  0
    4.3440   19.3990   39.7200 C   0  0  0  0  0  0  0  0  0  0  0  0
    3.4064   18.0191   40.3023 H   0  0  0  0  0  0  0  0  0  0  0  0
    2.0734   20.9727   40.6064 H   0  0  0  0  0  0  0  0  0  0  0  0
    2.7448   21.6035   39.0643 H   0  0  0  0  0  0  0  0  0  0  0  0
    1.1948   20.6957   39.0643 H   0  0  0  0  0  0  0  0  0  0  0  0
    5.4540   24.0681   29.8021 H   0  0  0  0  0  0  0  0  0  0  0  0
    1.0208   19.6135   41.8031 H   0  0  0  0  0  0  0  0  0  0  0  0
    0.4268   27.8016   32.3835 H   0  0  0  0  0  0  0  0  0  0  0  0
    1.2828   27.9639   30.9448 H   0  0  0  0  0  0  0  0  0  0  0  0
   -0.2306   27.2298   30.9448 H   0  0  0  0  0  0  0  0  0  0  0  0
    2.4957   18.3895   37.4353 H   0  0  0  0  0  0  0  0  0  0  0  0
    2.2253   20.1607   37.3067 H   0  0  0  0  0  0  0  0  0  0  0  0
    3.8977   19.5051   37.3067 H   0  0  0  0  0  0  0  0  0  0  0  0
    0.8123   14.7938   42.7405 H   0  0  0  0  0  0  0  0  0  0  0  0
    4.5643   14.8076   36.1328 H   0  0  0  0  0  0  0  0  0  0  0  0
    5.4368   15.4810   37.2225 H   0  0  0  0  0  0  0  0  0  0  0  0
   -0.2371   18.6145   43.7402 H   0  0  0  0  0  0  0  0  0  0  0  0
    1.4384   23.2670   35.5242 H   0  0  0  0  0  0  0  0  0  0  0  0
    0.6459   24.5001   34.4860 H   0  0  0  0  0  0  0  0  0  0  0  0
    0.0467   22.8067   34.4860 H   0  0  0  0  0  0  0  0  0  0  0  0
    3.0773   23.8094   32.8485 H   0  0  0  0  0  0  0  0  0  0  0  0
    1.9750   14.5466   40.1139 H   0  0  0  0  0  0  0  0  0  0  0  0
    1.9881   26.6346   32.3211 H   0  0  0  0  0  0  0  0  0  0  0  0
   -1.6063   16.0725   44.6164 H   0  0  0  0  0  0  0  0  0  0  0  0
   -0.8177   14.6231   43.9382 H   0  0  0  0  0  0  0  0  0  0  0  0
    4.9728   22.2711   31.5636 H   0  0  0  0  0  0  0  0  0  0  0  0
    5.2996   23.8631   32.7248 H   0  0  0  0  0  0  0  0  0  0  0  0
    1.3309   22.3921   32.8432 H   0  0  0  0  0  0  0  0  0  0  0  0
    3.3893   13.1487   37.5661 H   0  0  0  0  0  0  0  0  0  0  0  0
    4.0515   13.5226   38.9290 H   0  0  0  0  0  0  0  0  0  0  0  0
    3.0639   26.5195   30.6814 H   0  0  0  0  0  0  0  0  0  0  0  0
    2.0201   25.4545   29.8010 H   0  0  0  0  0  0  0  0  0  0  0  0
   -0.0913   24.7305   32.6673 H   0  0  0  0  0  0  0  0  0  0  0  0
    0.7733   25.6835   33.8081 H   0  0  0  0  0  0  0  0  0  0  0  0
    1.1219   15.0505   37.4281 H   0  0  0  0  0  0  0  0  0  0  0  0
    1.9053   15.9724   36.2595 H   0  0  0  0  0  0  0  0  0  0  0  0
    2.0695   14.2984   36.2595 H   0  0  0  0  0  0  0  0  0  0  0  0
    4.6398   21.4781   33.2367 H   0  0  0  0  0  0  0  0  0  0  0  0
    4.5703   23.2872   34.0347 H   0  0  0  0  0  0  0  0  0  0  0  0
    3.1036   22.4428   34.9338 H   0  0  0  0  0  0  0  0  0  0  0  0
    2.7262   21.3605   33.3971 H   0  0  0  0  0  0  0  0  0  0  0  0
    4.4246   19.3929   40.8170 H   0  0  0  0  0  0  0  0  0  0  0  0
    4.7656   18.4667   39.3162 H   0  0  0  0  0  0  0  0  0  0  0  0
    4.9001   20.2579   39.3162 H   0  0  0  0  0  0  0  0  0  0  0  0
  1  2  1  0
  1 19  1  0
  2  3  1  0
  2 32  1  0
  4 12  1  0
  5 21  1  0
  6 14  2  0
  8  9  2  0
  8  1  1  0
  9 17  1  0
 10  2  1  0
 11  5  2  0
 12 24  2  0
 12 22  1  0
 13 20  1  0
 13 26  1  0
 14  5  1  0
 16 28  1  0
 16 25  1  0
 17 23  1  0
 18  7  1  0
 18 28  1  0
 19 23  2  0
 19  6  1  0
 20 26  1  0
 20  9  1  0
 22 30  1  0
 23 11  1  0
 24 16  1  0
 25 31  1  0
 25 15  1  0
 27 24  1  0
 27 18  1  0
 29 20  1  0
 30 31  1  0
  1 33  1  0
  3 34  1  0
  3 35  1  0
  3 36  1  0
  4 37  1  0
  6 38  1  0
  7 39  1  0
  7 40  1  0
  7 41  1  0
 10 42  1  0
 10 43  1  0
 10 44  1  0
 11 45  1  0
 13 46  1  0
 13 47  1  0
 14 48  1  0
 15 49  1  0
 15 50  1  0
 15 51  1  0
 16 52  1  0
 17 53  1  0
 18 54  1  0
 21 55  1  0
 21 56  1  0
 22 57  1  0
 22 58  1  0
 25 59  1  0
 26 60  1  0
 26 61  1  0
 27 62  1  0
 27 63  1  0
 28 64  1  0
 28 65  1  0
 29 66  1  0
 29 67  1  0
 29 68  1  0
 30 69  1  0
 30 70  1  0
 31 71  1  0
 31 72  1  0
 32 73  1  0
 32 74  1  0
 32 75  1  0
M  CHG  2   7   1  29   1
M  END
>  <mol_id>  (66) 
2026-09-18-3war-s0-n100-0066

>  <rmsd_to_ref>  (66) 


$$$$

     RDKit          3D

 58 59  0  0  0  0  0  0  0  0999 V2000
    1.5200   19.7090   40.5720 C   0  0  0  0  0  0  0  0  0  0  0  0
    4.2940   24.1550   29.4680 C   0  0  0  0  0  0  0  0  0  0  0  0
   -0.8330   18.2040   43.7350 O   0  0  0  0  0  0  0  0  0  0  0  0
    0.7050   17.7930   41.7940 C   0  0  0  0  0  0  0  0  0  0  0  0
    3.1310   19.8020   36.9140 N   0  0  0  0  0  0  0  0  0  0  0  0
    0.8900   20.6470   41.4150 C   0  0  0  0  0  0  0  0  0  0  0  0
    3.2720   19.3150   39.1920 C   0  0  0  0  0  0  0  0  0  0  0  0
    3.7600   17.7090   37.4580 O   0  0  0  0  0  0  0  0  0  0  0  0
    2.9270   25.7070   29.9490 C   0  0  0  0  0  0  0  0  0  0  0  0
    2.7060   21.0300   36.1170 C   0  0  0  0  0  0  0  0  0  0  0  0
    3.7230   24.5950   31.7930 C   0  0  0  0  0  0  0  0  0  0  0  0
    4.1340   21.3270   33.9630 N   0  0  0  0  0  4  0  0  0  0  0  0
    2.0510   20.2790   39.3240 N   0  0  0  0  0  0  0  0  0  0  0  0
    0.1980   20.1040   42.3810 C   0  0  0  0  0  0  0  0  0  0  0  0
    3.7380   24.5470   28.2810 C   0  0  0  0  0  0  0  0  0  0  0  0
    4.1020   22.7300   33.1430 C   0  0  0  0  0  0  0  0  0  0  0  0
    1.5450   18.3220   40.8000 C   0  0  0  0  0  0  0  0  0  0  0  0
    4.9050   23.1640   29.3070 C   0  0  0  0  0  0  0  0  0  0  0  0
    4.7760   23.5960   33.5470 C   0  0  0  0  0  0  0  0  0  0  0  0
    2.2750   16.6770   40.3480 C   0  0  0  0  0  0  0  0  0  0  0  0
    2.7250   25.3190   28.6130 C   0  0  0  0  0  0  0  0  0  0  0  0
    3.7380   24.8430   30.5440 C   0  0  0  0  0  0  0  0  0  0  0  0
    0.0080   18.7140   42.5830 C   0  0  0  0  0  0  0  0  0  0  0  0
    4.0290   22.8180   31.8390 C   0  0  0  0  0  0  0  0  0  0  0  0
    3.4200   21.5820   35.1750 C   0  0  0  0  0  0  0  0  0  0  0  0
    3.3860   18.8640   37.7720 C   0  0  0  0  0  0  0  0  0  0  0  0
   -1.3328   18.8421   44.3035 H   0  0  0  0  0  0  0  0  0  0  0  0
    0.6006   16.7083   41.9444 H   0  0  0  0  0  0  0  0  0  0  0  0
    3.5981   19.3350   36.1237 H   0  0  0  0  0  0  0  0  0  0  0  0
    0.9733   21.7346   41.2727 H   0  0  0  0  0  0  0  0  0  0  0  0
    4.1914   19.8423   39.4862 H   0  0  0  0  0  0  0  0  0  0  0  0
    3.1294   18.4435   39.8479 H   0  0  0  0  0  0  0  0  0  0  0  0
    1.9612   25.7251   30.4753 H   0  0  0  0  0  0  0  0  0  0  0  0
    3.3783   26.7098   29.9746 H   0  0  0  0  0  0  0  0  0  0  0  0
    1.7504   20.7597   35.6441 H   0  0  0  0  0  0  0  0  0  0  0  0
    2.7587   21.8063   36.8946 H   0  0  0  0  0  0  0  0  0  0  0  0
    2.7470   24.8423   32.2361 H   0  0  0  0  0  0  0  0  0  0  0  0
    4.4555   25.1820   32.3664 H   0  0  0  0  0  0  0  0  0  0  0  0
    5.1049   21.0508   34.1676 H   0  0  0  0  0  0  0  0  0  0  0  0
    3.7125   20.5573   33.4237 H   0  0  0  0  0  0  0  0  0  0  0  0
    1.7250   21.0569   38.7328 H   0  0  0  0  0  0  0  0  0  0  0  0
   -0.2791   20.7854   43.1008 H   0  0  0  0  0  0  0  0  0  0  0  0
    3.3870   23.6733   27.7122 H   0  0  0  0  0  0  0  0  0  0  0  0
    4.4625   25.0718   27.6409 H   0  0  0  0  0  0  0  0  0  0  0  0
    5.2185   22.8695   28.2946 H   0  0  0  0  0  0  0  0  0  0  0  0
    5.1634   22.5310   30.1687 H   0  0  0  0  0  0  0  0  0  0  0  0
    4.7925   24.5669   33.0302 H   0  0  0  0  0  0  0  0  0  0  0  0
    5.3935   23.4397   34.4438 H   0  0  0  0  0  0  0  0  0  0  0  0
    2.5217   16.1210   41.2645 H   0  0  0  0  0  0  0  0  0  0  0  0
    1.5471   16.1031   39.7558 H   0  0  0  0  0  0  0  0  0  0  0  0
    3.1890   16.8317   39.7558 H   0  0  0  0  0  0  0  0  0  0  0  0
    2.6958   26.2053   27.9621 H   0  0  0  0  0  0  0  0  0  0  0  0
    1.7698   24.7856   28.4984 H   0  0  0  0  0  0  0  0  0  0  0  0
    4.4836   24.9663   31.3433 H   0  0  0  0  0  0  0  0  0  0  0  0
    3.1985   22.2319   31.4185 H   0  0  0  0  0  0  0  0  0  0  0  0
    4.8840   22.4390   31.2600 H   0  0  0  0  0  0  0  0  0  0  0  0
    4.2161   22.0434   35.7778 H   0  0  0  0  0  0  0  0  0  0  0  0
    2.5105   21.8269   34.6068 H   0  0  0  0  0  0  0  0  0  0  0  0
  1 17  2  0
  1  6  1  0
  2 22  1  0
  4 23  2  0
  5 26  1  0
  6 14  2  0
  7 13  1  0
  8 26  2  0
  9 22  1  0
 10  5  1  0
 11 24  1  0
 12 25  1  0
 13  1  1  0
 14 23  1  0
 15 21  1  0
 15  2  1  0
 16 19  2  3
 16 12  1  0
 17  4  1  0
 18  2  2  3
 20 17  1  0
 21  9  1  0
 22 11  1  0
 23  3  1  0
 24 16  1  0
 25 10  1  0
 26  7  1  0
  3 27  1  0
  4 28  1  0
  5 29  1  0
  6 30  1  0
  7 31  1  0
  7 32  1  0
  9 33  1  0
  9 34  1  0
 10 35  1  0
 10 36  1  0
 11 37  1  0
 11 38  1  0
 12 39  1  0
 12 40  1  0
 13 41  1  0
 14 42  1  0
 15 43  1  0
 15 44  1  0
 18 45  1  0
 18 46  1  0
 19 47  1  0
 19 48  1  0
 20 49  1  0
 20 50  1  0
 20 51  1  0
 21 52  1  0
 21 53  1  0
 22 54  1  0
 24 55  1  0
 24 56  1  0
 25 57  1  0
 25 58  1  0
M  CHG  1  12   1
M  END
>  <mol_id>  (67) 
2026-09-18-3war-s0-n100-0067

>  <rmsd_to_ref>  (67) 


$$$$

     RDKit          3D

 40 40  0  0  0  0  0  0  0  0999 V2000
    3.9480   22.8060   34.7720 C   0  0  0  0  0  0  0  0  0  0  0  0
    2.4710   17.4180   38.1820 C   0  0  0  0  0  0  0  0  0  0  0  0
    1.7070   17.6980   40.2780 F   0  0  0  0  0  0  0  0  0  0  0  0
    2.9300   19.7620   38.7920 C   0  0  0  0  0  0  0  0  0  0  0  0
    2.9460   16.0090   40.1170 F   0  0  0  0  0  0  0  0  0  0  0  0
    2.3420   24.4480   33.3160 O   0  0  0  0  0  0  0  0  0  0  0  0
    3.3060   19.7700   36.5040 C   0  0  0  0  0  0  0  0  0  0  0  0
    3.7350   24.1130   31.3230 C   0  0  0  0  0  0  0  0  0  0  0  0
    3.9070   20.4140   41.0730 C   0  0  0  0  0  0  0  0  0  0  0  0
    3.9250   17.9430   39.9700 C   0  0  0  0  0  0  0  0  0  0  0  0
    2.7350   18.8770   37.6420 C   0  0  0  0  0  0  0  0  0  0  0  0
    3.6920   19.4650   39.9120 C   0  0  0  0  0  0  0  0  0  0  0  0
    2.7640   17.2190   39.5720 C   0  0  0  0  0  0  0  0  0  0  0  0
    2.7760   21.0240   36.1500 C   0  0  0  0  0  0  0  0  0  0  0  0
    4.0830   22.9470   33.3470 N   0  0  0  0  0  0  0  0  0  0  0  0
    3.2540   21.4440   34.9950 C   0  0  0  0  0  0  0  0  0  0  0  0
    3.3100   23.8410   32.8030 C   0  0  0  0  0  0  0  0  0  0  0  0
    3.3330   23.6211   35.1812 H   0  0  0  0  0  0  0  0  0  0  0  0
    4.9236   22.8515   35.2781 H   0  0  0  0  0  0  0  0  0  0  0  0
    3.0930   16.7220   37.6000 H   0  0  0  0  0  0  0  0  0  0  0  0
    1.3911   17.2415   38.0693 H   0  0  0  0  0  0  0  0  0  0  0  0
    1.9198   19.9713   39.1736 H   0  0  0  0  0  0  0  0  0  0  0  0
    3.5541   20.5430   38.3332 H   0  0  0  0  0  0  0  0  0  0  0  0
    4.3578   19.9541   36.7681 H   0  0  0  0  0  0  0  0  0  0  0  0
    3.0447   19.1735   35.6175 H   0  0  0  0  0  0  0  0  0  0  0  0
    4.6614   24.7059   31.3106 H   0  0  0  0  0  0  0  0  0  0  0  0
    3.9054   23.1557   30.8086 H   0  0  0  0  0  0  0  0  0  0  0  0
    2.9371   24.6687   30.8086 H   0  0  0  0  0  0  0  0  0  0  0  0
    3.7834   19.8685   42.0202 H   0  0  0  0  0  0  0  0  0  0  0  0
    4.9228   20.8329   41.0209 H   0  0  0  0  0  0  0  0  0  0  0  0
    3.1709   21.2298   41.0209 H   0  0  0  0  0  0  0  0  0  0  0  0
    4.7557   17.6832   39.2974 H   0  0  0  0  0  0  0  0  0  0  0  0
    4.1609   17.6704   41.0093 H   0  0  0  0  0  0  0  0  0  0  0  0
    2.0994   18.3921   36.8864 H   0  0  0  0  0  0  0  0  0  0  0  0
    4.6459   20.0126   39.9252 H   0  0  0  0  0  0  0  0  0  0  0  0
    1.6818   20.9408   36.0745 H   0  0  0  0  0  0  0  0  0  0  0  0
    3.0620   21.7499   36.9254 H   0  0  0  0  0  0  0  0  0  0  0  0
    4.7443   22.3807   32.7966 H   0  0  0  0  0  0  0  0  0  0  0  0
    2.4006   21.4312   34.3010 H   0  0  0  0  0  0  0  0  0  0  0  0
    4.1072   20.7610   34.8704 H   0  0  0  0  0  0  0  0  0  0  0  0
  1 16  1  0
  2 13  1  0
  4 12  1  0
  8 17  1  0
 11  7  1  0
 11  2  1  0
 11  4  1  0
 12 10  1  0
 12  9  1  0
 13 10  1  0
 13  5  1  0
 13  3  1  0
 14  7  1  0
 15  1  1  0
 16 14  1  0
 17  6  2  0
 17 15  1  0
  1 18  1  0
  1 19  1  0
  2 20  1  0
  2 21  1  0
  4 22  1  0
  4 23  1  0
  7 24  1  0
  7 25  1  0
  8 26  1  0
  8 27  1  0
  8 28  1  0
  9 29  1  0
  9 30  1  0
  9 31  1  0
 10 32  1  0
 10 33  1  0
 11 34  1  0
 12 35  1  0
 14 36  1  0
 14 37  1  0
 15 38  1  0
 16 39  1  0
 16 40  1  0
M  END
>  <mol_id>  (68) 
2026-09-18-3war-s0-n100-0068

>  <rmsd_to_ref>  (68) 


$$$$

     RDKit          3D

 70 73  0  0  0  0  0  0  0  0999 V2000
    0.8600   19.2360   41.5150 N   0  0  0  0  0  0  0  0  0  0  0  0
    1.7640   18.1310   41.3700 C   0  0  0  0  0  0  0  0  0  0  0  0
    3.5890   24.9880   30.8500 C   0  0  0  0  0  0  0  0  0  0  0  0
   -0.0830   14.5150   41.5660 C   0  0  0  0  0  0  0  0  0  0  0  0
    0.9680   20.3760   40.8840 C   0  0  0  0  0  0  0  0  0  0  0  0
    3.4120   17.7590   37.7800 O   0  0  0  0  0  0  0  0  0  0  0  0
    1.8210   15.7910   42.3750 C   0  0  0  0  0  0  0  0  0  0  0  0
    3.0850   20.8580   35.9280 C   0  0  0  0  0  0  0  0  0  0  0  0
    3.5440   23.4410   33.3730 C   0  0  0  0  0  0  0  0  0  0  0  0
    2.2450   20.1100   38.3590 C   0  0  0  0  0  0  0  0  0  0  0  0
    4.4090   23.2230   32.2070 O   0  0  0  0  0  0  0  0  0  0  0  0
    4.7050   18.9060   39.4010 O   0  0  0  0  0  0  0  0  0  0  0  0
    1.1990   26.0120   29.7520 C   0  0  0  0  0  0  0  0  0  0  0  0
    2.4340   25.0610   31.8130 C   0  0  0  0  0  0  0  0  0  0  0  0
    3.3070   24.6860   29.4770 O   0  0  0  0  0  0  0  0  0  0  0  0
    3.3480   18.6060   38.9230 S   0  0  0  0  0  6  0  0  0  0  0  0
    2.3740   24.3380   32.9880 C   0  0  0  0  0  0  0  0  0  0  0  0
    1.7910   17.2760   42.5450 C   0  0  0  0  0  0  0  0  0  0  0  0
    1.4290   20.4500   39.4810 C   0  0  0  0  0  0  0  0  0  0  0  0
    2.6270   22.0710   35.0750 C   0  0  0  0  0  0  0  0  0  0  0  0
   -0.2270   19.1320   42.3910 O   0  0  0  0  0  0  0  0  0  0  0  0
   -0.1660   26.2850   29.2660 C   0  0  0  0  0  0  0  0  0  0  0  0
    2.5130   20.8100   37.0280 C   0  0  0  0  0  0  0  0  0  0  0  0
    1.9330   24.7290   29.0030 C   0  0  0  0  0  0  0  0  0  0  0  0
    4.8060   24.2400   31.3660 C   0  0  0  0  0  0  0  0  0  0  0  0
    2.0540   14.2720   40.6880 C   0  0  0  0  0  0  0  0  0  0  0  0
    1.1910   15.2140   41.2800 N   0  0  0  0  0  0  0  0  0  0  0  0
    2.1500   24.9210   27.2650 C   0  0  0  0  0  0  0  0  0  0  0  0
    1.2160   25.9150   31.3570 C   0  0  0  0  0  0  0  0  0  0  0  0
    3.1900   19.9650   36.3130 O   0  0  0  0  0  0  0  0  0  0  0  0
    2.4300   17.9170   40.2950 N   0  0  0  0  0  0  0  0  0  0  0  0
    3.7200   21.7700   34.1020 C   0  0  0  0  0  0  0  0  0  0  0  0
    0.7240   21.5900   41.6100 C   0  0  0  0  0  0  0  0  0  0  0  0
    2.5761   18.7397   41.7943 H   0  0  0  0  0  0  0  0  0  0  0  0
    3.8540   26.0550   30.8145 H   0  0  0  0  0  0  0  0  0  0  0  0
   -0.2228   14.4383   42.6544 H   0  0  0  0  0  0  0  0  0  0  0  0
   -0.9182   15.0812   41.1280 H   0  0  0  0  0  0  0  0  0  0  0  0
   -0.0542   13.5064   41.1280 H   0  0  0  0  0  0  0  0  0  0  0  0
    2.8796   15.4961   42.3268 H   0  0  0  0  0  0  0  0  0  0  0  0
    1.2383   15.4217   43.2318 H   0  0  0  0  0  0  0  0  0  0  0  0
    3.8046   21.0467   35.1177 H   0  0  0  0  0  0  0  0  0  0  0  0
    3.6566   24.0848   34.2578 H   0  0  0  0  0  0  0  0  0  0  0  0
    1.8236   26.8710   29.4656 H   0  0  0  0  0  0  0  0  0  0  0  0
    1.4905   24.4089   33.6394 H   0  0  0  0  0  0  0  0  0  0  0  0
    2.6880   17.5503   43.1196 H   0  0  0  0  0  0  0  0  0  0  0  0
    0.8171   17.4616   43.0216 H   0  0  0  0  0  0  0  0  0  0  0  0
    1.6128   21.9753   34.6601 H   0  0  0  0  0  0  0  0  0  0  0  0
    2.5292   23.0711   35.5225 H   0  0  0  0  0  0  0  0  0  0  0  0
    0.0982   19.1631   43.3256 H   0  0  0  0  0  0  0  0  0  0  0  0
   -0.8407   26.4199   30.1243 H   0  0  0  0  0  0  0  0  0  0  0  0
   -0.1617   27.2001   28.6556 H   0  0  0  0  0  0  0  0  0  0  0  0
   -0.5140   25.4387   28.6556 H   0  0  0  0  0  0  0  0  0  0  0  0
    1.6786   20.2587   36.5700 H   0  0  0  0  0  0  0  0  0  0  0  0
    1.2954   23.8582   29.2156 H   0  0  0  0  0  0  0  0  0  0  0  0
    5.3605   23.8152   30.5163 H   0  0  0  0  0  0  0  0  0  0  0  0
    5.4519   24.9371   31.9200 H   0  0  0  0  0  0  0  0  0  0  0  0
    2.5733   13.7052   41.4748 H   0  0  0  0  0  0  0  0  0  0  0  0
    1.4692   13.5807   40.0634 H   0  0  0  0  0  0  0  0  0  0  0  0
    2.7937   14.7942   40.0634 H   0  0  0  0  0  0  0  0  0  0  0  0
    2.9613   25.6388   27.0739 H   0  0  0  0  0  0  0  0  0  0  0  0
    2.4072   23.9494   26.8181 H   0  0  0  0  0  0  0  0  0  0  0  0
    1.2169   25.2947   26.8181 H   0  0  0  0  0  0  0  0  0  0  0  0
    1.2962   26.9254   31.7844 H   0  0  0  0  0  0  0  0  0  0  0  0
    0.2860   25.4419   31.7052 H   0  0  0  0  0  0  0  0  0  0  0  0
    1.7274   17.3774   39.7697 H   0  0  0  0  0  0  0  0  0  0  0  0
    3.4870   20.9508   33.4059 H   0  0  0  0  0  0  0  0  0  0  0  0
    4.7002   21.4220   34.4599 H   0  0  0  0  0  0  0  0  0  0  0  0
    0.7650   21.3859   42.6901 H   0  0  0  0  0  0  0  0  0  0  0  0
    1.4905   22.3342   41.3481 H   0  0  0  0  0  0  0  0  0  0  0  0
   -0.2705   21.9803   41.3481 H   0  0  0  0  0  0  0  0  0  0  0  0
  1 21  1  0
  2  1  1  0
  2 18  1  0
  3 25  1  0
  3 14  1  0
  5  1  1  0
  5 33  1  0
  6 16  2  0
  7 18  1  0
  8 20  1  0
  8 30  1  0
  8 23  1  0
  9 32  1  0
 10 16  1  0
 10 19  2  0
 11  9  1  0
 13 22  1  0
 13 29  1  0
 14 17  2  0
 15  3  1  0
 16 12  2  0
 16 31  1  0
 17  9  1  0
 19  5  2  0
 23 10  1  0
 24 28  1  0
 24 15  1  0
 24 13  1  0
 25 11  1  0
 26 27  1  0
 27  4  1  0
 27  7  1  0
 29 14  1  0
 30 23  1  0
 31  2  1  0
 32 20  1  0
  2 34  1  0
  3 35  1  0
  4 36  1  0
  4 37  1  0
  4 38  1  0
  7 39  1  0
  7 40  1  0
  8 41  1  0
  9 42  1  0
 13 43  1  0
 17 44  1  0
 18 45  1  0
 18 46  1  0
 20 47  1  0
 20 48  1  0
 21 49  1  0
 22 50  1  0
 22 51  1  0
 22 52  1  0
 23 53  1  0
 24 54  1  0
 25 55  1  0
 25 56  1  0
 26 57  1  0
 26 58  1  0
 26 59  1  0
 28 60  1  0
 28 61  1  0
 28 62  1  0
 29 63  1  0
 29 64  1  0
 31 65  1  0
 32 66  1  0
 32 67  1  0
 33 68  1  0
 33 69  1  0
 33 70  1  0
M  END
>  <mol_id>  (69) 
2026-09-18-3war-s0-n100-0069

>  <rmsd_to_ref>  (69) 


$$$$

     RDKit          3D

 60 62  0  0  0  0  0  0  0  0999 V2000
    3.8140   24.6590   30.5580 C   0  0  0  0  0  0  0  0  0  0  0  0
    2.7860   20.0760   38.1720 C   0  0  0  0  0  0  0  0  0  0  0  0
    1.2900   27.0960   32.6810 C   0  0  0  0  0  0  0  0  0  0  0  0
    2.5340   23.5940   35.4410 O   0  0  0  0  0  0  0  0  0  0  0  0
    3.9800   23.7280   32.0080 C   0  0  0  0  0  0  0  0  0  0  0  0
    3.5010   17.0860   38.1020 C   0  0  0  0  0  0  0  0  0  0  0  0
    0.1320   19.3230   42.2270 C   0  0  0  0  0  0  0  0  0  0  0  0
    3.5860   17.9290   39.2790 O   0  0  0  0  0  0  0  0  0  0  0  0
    2.9240   27.0850   30.3680 O   0  0  0  0  0  0  0  0  0  0  0  0
    0.5680   26.2010   31.8010 C   0  0  0  0  0  0  0  0  0  0  0  0
    1.9580   19.3490   40.5600 C   0  0  0  0  0  0  0  0  0  0  0  0
    2.9210   23.4270   33.0980 C   0  0  0  0  0  0  0  0  0  0  0  0
    2.5190   18.9820   39.2270 C   0  0  0  0  0  0  0  0  0  0  0  0
    1.9970   24.6790   33.1610 C   0  0  0  0  0  0  0  0  0  0  0  0
    1.3380   17.8550   41.3960 O   0  0  0  0  0  0  0  0  0  0  0  0
    2.9840   25.9170   30.9720 C   0  0  0  0  0  0  0  0  0  0  0  0
    0.9560   18.5460   41.2640 C   0  0  0  0  0  0  0  0  0  0  0  0
    2.3940   20.3460   36.9010 C   0  0  0  0  0  0  0  0  0  0  0  0
    1.3820   20.6310   40.1040 C   0  0  0  0  0  0  0  0  0  0  0  0
    3.0530   22.7970   34.3490 C   0  0  0  0  0  0  0  0  0  0  0  0
    2.3220   21.0610   38.7920 C   0  0  0  0  0  0  0  0  0  0  0  0
    1.7860   25.4690   32.0250 C   0  0  0  0  0  0  0  0  0  0  0  0
    2.7200   21.5380   34.6940 C   0  0  0  0  0  0  0  0  0  0  0  0
    3.5570   20.8820   35.8750 C   0  0  0  0  0  0  0  0  0  0  0  0
    3.2815   24.0818   29.7878 H   0  0  0  0  0  0  0  0  0  0  0  0
    4.7901   24.9326   30.1309 H   0  0  0  0  0  0  0  0  0  0  0  0
    3.7924   19.7421   37.8793 H   0  0  0  0  0  0  0  0  0  0  0  0
    1.7414   28.0273   32.3082 H   0  0  0  0  0  0  0  0  0  0  0  0
    1.1531   27.5905   33.6540 H   0  0  0  0  0  0  0  0  0  0  0  0
    2.7998   23.1858   36.3029 H   0  0  0  0  0  0  0  0  0  0  0  0
    4.3051   22.7362   31.6608 H   0  0  0  0  0  0  0  0  0  0  0  0
    4.5955   24.4380   32.5799 H   0  0  0  0  0  0  0  0  0  0  0  0
    3.3951   16.0354   38.4103 H   0  0  0  0  0  0  0  0  0  0  0  0
    2.6281   17.3817   37.5015 H   0  0  0  0  0  0  0  0  0  0  0  0
    4.4153   17.2015   37.5015 H   0  0  0  0  0  0  0  0  0  0  0  0
    0.4175   19.0537   43.2546 H   0  0  0  0  0  0  0  0  0  0  0  0
    0.3006   20.3985   42.0695 H   0  0  0  0  0  0  0  0  0  0  0  0
   -0.9318   19.0916   42.0695 H   0  0  0  0  0  0  0  0  0  0  0  0
    2.8870   27.8055   31.0459 H   0  0  0  0  0  0  0  0  0  0  0  0
    0.3889   26.5569   30.7757 H   0  0  0  0  0  0  0  0  0  0  0  0
   -0.4558   25.8262   31.9470 H   0  0  0  0  0  0  0  0  0  0  0  0
    2.7210   19.2689   41.3483 H   0  0  0  0  0  0  0  0  0  0  0  0
    2.5960   22.4549   32.6987 H   0  0  0  0  0  0  0  0  0  0  0  0
    1.6144   18.5319   38.7922 H   0  0  0  0  0  0  0  0  0  0  0  0
    1.0077   24.3234   33.4847 H   0  0  0  0  0  0  0  0  0  0  0  0
    2.5464   25.3558   33.8319 H   0  0  0  0  0  0  0  0  0  0  0  0
    1.4210   17.7048   42.3710 H   0  0  0  0  0  0  0  0  0  0  0  0
    3.8124   26.5722   31.2793 H   0  0  0  0  0  0  0  0  0  0  0  0
    0.0316   18.2296   40.7587 H   0  0  0  0  0  0  0  0  0  0  0  0
    1.9743   19.4218   36.4771 H   0  0  0  0  0  0  0  0  0  0  0  0
    1.6767   21.1755   36.9873 H   0  0  0  0  0  0  0  0  0  0  0  0
    0.3313   20.5019   39.8052 H   0  0  0  0  0  0  0  0  0  0  0  0
    1.3848   21.3977   40.8928 H   0  0  0  0  0  0  0  0  0  0  0  0
    4.1326   22.6988   34.1623 H   0  0  0  0  0  0  0  0  0  0  0  0
    3.1612   21.6755   39.1499 H   0  0  0  0  0  0  0  0  0  0  0  0
    1.6748   21.6112   38.0931 H   0  0  0  0  0  0  0  0  0  0  0  0
    1.6624   21.5429   34.9964 H   0  0  0  0  0  0  0  0  0  0  0  0
    2.9384   20.9254   33.8069 H   0  0  0  0  0  0  0  0  0  0  0  0
    4.1735   20.0488   35.5068 H   0  0  0  0  0  0  0  0  0  0  0  0
    4.2613   21.5826   36.3473 H   0  0  0  0  0  0  0  0  0  0  0  0
  1 16  1  0
  1  5  1  0
  2 18  1  0
  2 21  1  0
  2 13  1  0
  5 12  1  0
  6  8  1  0
 10 22  1  0
 10  3  1  0
 11 17  1  0
 12 14  1  0
 12 20  1  0
 13  8  1  0
 13 11  1  0
 16  9  1  0
 16 22  1  0
 17 15  1  0
 17  7  1  0
 19 11  1  0
 20 23  1  0
 20  4  1  0
 21 19  1  0
 22  3  1  0
 22 14  1  0
 23 24  1  0
 24 18  1  0
  1 25  1  0
  1 26  1  0
  2 27  1  0
  3 28  1  0
  3 29  1  0
  4 30  1  0
  5 31  1  0
  5 32  1  0
  6 33  1  0
  6 34  1  0
  6 35  1  0
  7 36  1  0
  7 37  1  0
  7 38  1  0
  9 39  1  0
 10 40  1  0
 10 41  1  0
 11 42  1  0
 12 43  1  0
 13 44  1  0
 14 45  1  0
 14 46  1  0
 15 47  1  0
 16 48  1  0
 17 49  1  0
 18 50  1  0
 18 51  1  0
 19 52  1  0
 19 53  1  0
 20 54  1  0
 21 55  1  0
 21 56  1  0
 23 57  1  0
 23 58  1  0
 24 59  1  0
 24 60  1  0
M  END
>  <mol_id>  (70) 
2026-09-18-3war-s0-n100-0071

>  <rmsd_to_ref>  (70) 


$$$$

     RDKit          3D

 52 52  0  0  0  0  0  0  0  0999 V2000
    0.0430   17.5900   41.7240 O   0  0  0  0  0  0  0  0  0  0  0  0
    1.9340   18.1740   40.2980 N   0  0  0  0  0  0  0  0  0  0  0  0
    1.6200   27.4990   32.6700 O   0  0  0  0  0  0  0  0  0  0  0  0
    4.4400   25.2020   30.0820 C   0  0  0  0  0  0  0  0  0  0  0  0
    1.9040   20.8910   37.3360 C   0  0  0  0  0  0  0  0  0  0  0  0
    3.3370   21.7470   34.1790 C   0  0  0  0  0  0  0  0  0  0  0  0
    1.9910   24.8030   32.7580 C   0  0  0  0  0  0  0  0  0  0  0  0
    2.8980   21.6640   35.3600 C   0  0  0  0  0  0  0  0  0  0  0  0
    2.0480   19.5570   40.3510 C   0  0  0  0  0  0  0  0  0  0  0  0
    1.3430   26.7060   31.2160 C   0  0  0  0  0  0  0  0  0  0  0  0
    2.3550   14.7820   40.3410 C   0  0  0  0  0  0  0  0  0  0  0  0
    1.4860   20.3130   41.1620 O   0  0  0  0  0  0  0  0  0  0  0  0
    2.8740   20.1040   39.2590 C   0  0  0  0  0  0  0  0  0  0  0  0
    4.7110   24.8040   31.3350 C   0  0  0  0  0  0  0  0  0  0  0  0
    2.1200   23.7650   33.7520 C   0  0  0  0  0  0  0  0  0  0  0  0
    2.3370   21.4080   36.4100 C   0  0  0  0  0  0  0  0  0  0  0  0
    1.4100   15.8030   40.3470 O   0  0  0  0  0  0  0  0  0  0  0  0
    3.3540   22.8450   33.4860 C   0  0  0  0  0  0  0  0  0  0  0  0
    2.2240   16.7740   42.2820 O   0  0  0  0  0  0  0  0  0  0  0  0
    1.3820   17.0660   41.2220 S   0  0  0  0  0  4  0  0  0  0  0  0
    1.9940   21.0570   38.5770 C   0  0  0  0  0  0  0  0  0  0  0  0
    2.2060   25.5040   31.5090 C   0  0  0  0  0  0  0  0  0  0  0  0
    3.3830   25.2480   30.9500 C   0  0  0  0  0  0  0  0  0  0  0  0
    0.0394   17.5914   42.7140 H   0  0  0  0  0  0  0  0  0  0  0  0
    2.3134   17.7899   39.4208 H   0  0  0  0  0  0  0  0  0  0  0  0
    1.4079   26.8918   33.4226 H   0  0  0  0  0  0  0  0  0  0  0  0
    4.4367   24.4579   29.2718 H   0  0  0  0  0  0  0  0  0  0  0  0
    4.8974   25.9512   29.4190 H   0  0  0  0  0  0  0  0  0  0  0  0
    2.2353   19.8500   37.2076 H   0  0  0  0  0  0  0  0  0  0  0  0
    0.9164   21.3682   37.2524 H   0  0  0  0  0  0  0  0  0  0  0  0
    4.3822   21.4072   34.2249 H   0  0  0  0  0  0  0  0  0  0  0  0
    2.5786   21.1668   33.6328 H   0  0  0  0  0  0  0  0  0  0  0  0
    0.8940   24.7644   32.6863 H   0  0  0  0  0  0  0  0  0  0  0  0
    2.9846   25.1569   33.0703 H   0  0  0  0  0  0  0  0  0  0  0  0
    0.2847   26.4420   31.0734 H   0  0  0  0  0  0  0  0  0  0  0  0
    1.5657   27.2648   30.2951 H   0  0  0  0  0  0  0  0  0  0  0  0
    2.6071   14.5096   41.3765 H   0  0  0  0  0  0  0  0  0  0  0  0
    1.9434   13.9045   39.8209 H   0  0  0  0  0  0  0  0  0  0  0  0
    3.2617   15.1246   39.8209 H   0  0  0  0  0  0  0  0  0  0  0  0
    3.7622   20.6135   39.6608 H   0  0  0  0  0  0  0  0  0  0  0  0
    3.2468   19.3204   38.5830 H   0  0  0  0  0  0  0  0  0  0  0  0
    4.8994   23.7419   31.5506 H   0  0  0  0  0  0  0  0  0  0  0  0
    5.4406   25.0845   32.1090 H   0  0  0  0  0  0  0  0  0  0  0  0
    2.2336   24.2333   34.7408 H   0  0  0  0  0  0  0  0  0  0  0  0
    1.2161   23.1397   33.7073 H   0  0  0  0  0  0  0  0  0  0  0  0
    3.3699   22.5830   32.4178 H   0  0  0  0  0  0  0  0  0  0  0  0
    4.2497   23.4069   33.7894 H   0  0  0  0  0  0  0  0  0  0  0  0
    1.7496   16.9385   43.1352 H   0  0  0  0  0  0  0  0  0  0  0  0
    2.3791   22.0710   38.7602 H   0  0  0  0  0  0  0  0  0  0  0  0
    0.9856   20.8972   38.9863 H   0  0  0  0  0  0  0  0  0  0  0  0
    1.6377   25.0925   30.6618 H   0  0  0  0  0  0  0  0  0  0  0  0
    3.1162   24.2156   30.6798 H   0  0  0  0  0  0  0  0  0  0  0  0
  2  9  1  0
  2 20  1  0
  4 23  1  0
  4 14  1  0
  5 21  1  0
  6  8  1  0
  7 15  1  0
  8 16  3  0
  9 12  2  0
 10  3  1  0
 11 17  1  0
 13  9  1  0
 16  5  1  0
 17 20  1  0
 18 15  1  0
 18  6  1  0
 20  1  1  0
 20 19  1  0
 21 13  1  0
 22 10  1  0
 22  7  1  0
 23 14  1  0
 23 22  1  0
  1 24  1  0
  2 25  1  0
  3 26  1  0
  4 27  1  0
  4 28  1  0
  5 29  1  0
  5 30  1  0
  6 31  1  0
  6 32  1  0
  7 33  1  0
  7 34  1  0
 10 35  1  0
 10 36  1  0
 11 37  1  0
 11 38  1  0
 11 39  1  0
 13 40  1  0
 13 41  1  0
 14 42  1  0
 14 43  1  0
 15 44  1  0
 15 45  1  0
 18 46  1  0
 18 47  1  0
 19 48  1  0
 21 49  1  0
 21 50  1  0
 22 51  1  0
 23 52  1  0
M  END
>  <mol_id>  (71) 
2026-09-18-3war-s0-n100-0072

>  <rmsd_to_ref>  (71) 


$$$$

     RDKit          3D

 28 28  0  0  0  0  0  0  0  0999 V2000
    4.0110   20.7500   34.9510 O   0  0  0  0  0  0  0  0  0  0  0  0
    2.7910   19.6790   40.2640 C   0  0  0  0  0  0  0  0  0  0  0  0
    4.0490   22.1110   32.8880 C   0  0  0  0  0  0  0  0  0  0  0  0
    4.0440   21.9050   34.4040 C   0  0  0  0  0  0  0  0  0  0  0  0
    1.7620   20.8160   39.9060 C   0  0  0  0  0  0  0  0  0  0  0  0
    2.2900   20.7510   37.3790 C   0  0  0  0  0  0  0  0  0  0  0  0
    0.8980   21.3520   41.0340 C   0  0  0  0  0  0  0  0  0  0  0  0
    1.6250   21.2380   38.5940 C   0  0  0  0  0  0  0  0  0  0  0  0
    2.4950   19.6020   37.0560 O   0  0  0  0  0  1  0  0  0  0  0  0
    4.4000   22.1330   31.3450 C   0  0  0  0  0  0  0  0  0  0  0  0
    2.6780   22.1340   33.5880 C   0  0  0  0  0  0  0  0  0  0  0  0
    5.2260   22.6780   33.9220 C   0  0  0  0  0  0  0  0  0  0  0  0
    2.6740   21.6680   36.4050 O   0  0  0  0  0  0  0  0  0  0  0  0
    4.0139   20.8511   35.9358 H   0  0  0  0  0  0  0  0  0  0  0  0
    2.8724   19.5891   41.3573 H   0  0  0  0  0  0  0  0  0  0  0  0
    2.4438   18.7242   39.8424 H   0  0  0  0  0  0  0  0  0  0  0  0
    3.7756   19.9295   39.8424 H   0  0  0  0  0  0  0  0  0  0  0  0
    1.3440   21.0753   42.0007 H   0  0  0  0  0  0  0  0  0  0  0  0
    0.8356   22.4477   40.9592 H   0  0  0  0  0  0  0  0  0  0  0  0
   -0.1114   20.9213   40.9592 H   0  0  0  0  0  0  0  0  0  0  0  0
    0.9115   22.0608   38.4392 H   0  0  0  0  0  0  0  0  0  0  0  0
    5.4905   22.2014   31.2180 H   0  0  0  0  0  0  0  0  0  0  0  0
    4.0329   21.2101   30.8723 H   0  0  0  0  0  0  0  0  0  0  0  0
    3.9206   23.0029   30.8723 H   0  0  0  0  0  0  0  0  0  0  0  0
    2.1223   23.0779   33.6895 H   0  0  0  0  0  0  0  0  0  0  0  0
    1.7262   21.5940   33.4761 H   0  0  0  0  0  0  0  0  0  0  0  0
    6.2278   22.2237   33.9274 H   0  0  0  0  0  0  0  0  0  0  0  0
    5.6779   23.6553   34.1470 H   0  0  0  0  0  0  0  0  0  0  0  0
  3 10  1  0
  3 11  1  0
  3 12  1  0
  3  4  1  0
  4  1  1  0
  5  2  1  0
  5  7  1  0
  6  8  1  0
  8  5  2  3
  9  6  1  0
 11  4  1  0
 12  4  1  0
 13  6  2  0
  1 14  1  0
  2 15  1  0
  2 16  1  0
  2 17  1  0
  7 18  1  0
  7 19  1  0
  7 20  1  0
  8 21  1  0
 10 22  1  0
 10 23  1  0
 10 24  1  0
 11 25  1  0
 11 26  1  0
 12 27  1  0
 12 28  1  0
M  CHG  1   9  -1
M  END
>  <mol_id>  (72) 
2026-09-18-3war-s0-n100-0073

>  <rmsd_to_ref>  (72) 


$$$$

     RDKit          3D

 49 51  0  0  0  0  0  0  0  0999 V2000
    1.9280   21.8430   35.8380 C   0  0  0  0  0  0  0  0  0  0  0  0
    2.9450   23.6730   32.8590 C   0  0  0  0  0  0  0  0  0  0  0  0
    1.5890   24.8020   29.5030 C   0  0  0  0  0  0  0  0  0  0  0  0
    3.6810   19.7270   38.5140 C   0  0  0  0  0  0  0  0  0  0  0  0
    3.0350   25.6060   28.7440 S   0  0  0  0  0  0  0  0  0  0  0  0
    2.0410   19.2690   40.5420 N   0  0  0  0  0  0  0  0  0  0  0  0
    2.6590   17.1220   39.9200 O   0  0  0  0  0  0  0  0  0  0  0  0
    3.1440   22.1270   35.0370 C   0  0  0  0  0  0  0  0  0  0  0  0
    2.6210   20.1030   39.5740 C   0  0  0  0  0  0  0  0  0  0  0  0
    1.0720   17.0030   41.7320 C   0  0  0  0  0  0  0  0  0  0  0  0
    0.3230   17.4230   42.8040 C   0  0  0  0  0  0  0  0  0  0  0  0
    1.1460   15.6630   41.4320 C   0  0  0  0  0  0  0  0  0  0  0  0
    3.2170   20.1430   37.1150 C   0  0  0  0  0  0  0  0  0  0  0  0
    2.0480   21.0580   37.1690 C   0  0  0  0  0  0  0  0  0  0  0  0
    4.3700   25.2290   31.2350 C   0  0  0  0  0  0  0  0  0  0  0  0
    2.9220   23.0730   33.8760 C   0  0  0  0  0  0  0  0  0  0  0  0
   -0.3930   16.5470   43.6450 C   0  0  0  0  0  0  0  0  0  0  0  0
    4.2690   26.5290   31.0690 C   0  0  0  0  0  0  0  0  0  0  0  0
    4.4340   25.8320   29.9170 C   0  0  0  0  0  0  0  0  0  0  0  0
    1.7260   24.7950   31.0430 C   0  0  0  0  0  0  0  0  0  0  0  0
    1.9290   17.9830   40.8930 C   0  0  0  0  0  0  0  0  0  0  0  0
    3.0490   24.3340   31.5540 C   0  0  0  0  0  0  0  0  0  0  0  0
    0.4790   14.7130   42.2590 C   0  0  0  0  0  0  0  0  0  0  0  0
   -0.2900   15.1410   43.3720 C   0  0  0  0  0  0  0  0  0  0  0  0
    1.2470   21.2706   35.1910 H   0  0  0  0  0  0  0  0  0  0  0  0
    1.5959   22.8411   36.1598 H   0  0  0  0  0  0  0  0  0  0  0  0
    1.5178   23.7660   29.1403 H   0  0  0  0  0  0  0  0  0  0  0  0
    0.6827   25.3609   29.2269 H   0  0  0  0  0  0  0  0  0  0  0  0
    4.6250   20.2404   38.7491 H   0  0  0  0  0  0  0  0  0  0  0  0
    3.8261   18.6367   38.5294 H   0  0  0  0  0  0  0  0  0  0  0  0
    3.8986   22.5710   35.7030 H   0  0  0  0  0  0  0  0  0  0  0  0
    3.4650   21.1683   34.6035 H   0  0  0  0  0  0  0  0  0  0  0  0
    2.2807   21.1490   39.5690 H   0  0  0  0  0  0  0  0  0  0  0  0
    0.2795   18.5011   43.0178 H   0  0  0  0  0  0  0  0  0  0  0  0
    1.7187   15.3251   40.5557 H   0  0  0  0  0  0  0  0  0  0  0  0
    2.9373   19.2414   36.5503 H   0  0  0  0  0  0  0  0  0  0  0  0
    4.0452   20.6762   36.6254 H   0  0  0  0  0  0  0  0  0  0  0  0
    2.1784   21.7671   37.9998 H   0  0  0  0  0  0  0  0  0  0  0  0
    1.1333   20.4668   37.3235 H   0  0  0  0  0  0  0  0  0  0  0  0
    5.0040   24.5874   31.8646 H   0  0  0  0  0  0  0  0  0  0  0  0
   -1.0057   16.9252   44.4766 H   0  0  0  0  0  0  0  0  0  0  0  0
    3.3029   27.0179   31.2628 H   0  0  0  0  0  0  0  0  0  0  0  0
    4.8142   27.3778   31.5075 H   0  0  0  0  0  0  0  0  0  0  0  0
    5.1349   25.8507   29.0694 H   0  0  0  0  0  0  0  0  0  0  0  0
    1.5580   25.8198   31.4056 H   0  0  0  0  0  0  0  0  0  0  0  0
    0.9834   24.0739   31.4153 H   0  0  0  0  0  0  0  0  0  0  0  0
    3.3372   23.5290   30.8619 H   0  0  0  0  0  0  0  0  0  0  0  0
    0.5610   13.6397   42.0327 H   0  0  0  0  0  0  0  0  0  0  0  0
   -0.7989   14.4079   44.0151 H   0  0  0  0  0  0  0  0  0  0  0  0
  1 14  1  0
  2 16  3  0
  3 20  1  0
  4  9  1  0
  5  3  1  0
  5 19  1  0
  6 21  1  0
  7 21  2  0
  8  1  1  0
  9  6  2  3
 10 11  2  0
 11 17  1  0
 12 10  1  0
 12 23  2  0
 13 14  1  0
 13  4  1  0
 15 18  1  0
 15 22  1  0
 16  8  1  0
 19 18  1  0
 19 15  1  0
 20 22  1  0
 21 10  1  0
 22  2  1  0
 23 24  1  0
 24 17  2  0
  1 25  1  0
  1 26  1  0
  3 27  1  0
  3 28  1  0
  4 29  1  0
  4 30  1  0
  8 31  1  0
  8 32  1  0
  9 33  1  0
 11 34  1  0
 12 35  1  0
 13 36  1  0
 13 37  1  0
 14 38  1  0
 14 39  1  0
 15 40  1  0
 17 41  1  0
 18 42  1  0
 18 43  1  0
 19 44  1  0
 20 45  1  0
 20 46  1  0
 22 47  1  0
 23 48  1  0
 24 49  1  0
M  END
>  <mol_id>  (73) 
2026-09-18-3war-s0-n100-0074

>  <rmsd_to_ref>  (73) 


$$$$

     RDKit          3D

 44 45  0  0  0  0  0  0  0  0999 V2000
    3.1330   23.3790   34.2410 C   0  0  0  0  0  0  0  0  0  0  0  0
    2.9300   22.6150   35.0540 C   0  0  0  0  0  0  0  0  0  0  0  0
    1.6850   18.5540   40.8760 C   0  0  0  0  0  0  0  0  0  0  0  0
    0.5280   20.5960   41.6970 O   0  0  0  0  0  0  0  0  0  0  0  0
    1.2580   16.9190   42.4410 C   0  0  0  0  0  0  0  0  0  0  0  0
    4.1790   23.9950   31.7850 C   0  0  0  0  0  0  0  0  0  0  0  0
    0.3880   17.1270   43.1120 C   0  0  0  0  0  0  0  0  0  0  0  0
    2.9860   18.4450   37.2130 C   0  0  0  0  0  0  0  0  0  0  0  0
    2.4670   25.4130   32.8150 C   0  0  0  0  0  0  0  0  0  0  0  0
    1.8930   17.2250   41.1970 C   0  0  0  0  0  0  0  0  0  0  0  0
    2.6210   20.7990   36.5550 C   0  0  0  0  0  0  0  0  0  0  0  0
    1.2860   26.8410   31.3490 F   0  0  0  0  0  0  0  0  0  0  0  0
    2.1280   25.8570   31.5370 C   0  0  0  0  0  0  0  0  0  0  0  0
    2.5110   19.7720   37.5170 C   0  0  0  0  0  0  0  0  0  0  0  0
    2.2300   19.1140   39.8170 C   0  0  0  0  0  0  0  0  0  0  0  0
    3.7910   24.4090   30.5200 C   0  0  0  0  0  0  0  0  0  0  0  0
    0.2870   18.6640   43.0070 C   0  0  0  0  0  0  0  0  0  0  0  0
    2.7260   25.2830   30.3550 C   0  0  0  0  0  0  0  0  0  0  0  0
    3.3000   24.3180   32.9780 C   0  0  0  0  0  0  0  0  0  0  0  0
    0.8040   19.3160   41.8610 C   0  0  0  0  0  0  0  0  0  0  0  0
    2.0220   20.0300   38.8280 C   0  0  0  0  0  0  0  0  0  0  0  0
    2.6410   21.7060   35.8460 C   0  0  0  0  0  0  0  0  0  0  0  0
    1.7790   26.2320   33.9830 C   0  0  0  0  0  0  0  0  0  0  0  0
   -0.0467   21.0663   42.3517 H   0  0  0  0  0  0  0  0  0  0  0  0
    2.0840   17.1431   43.1320 H   0  0  0  0  0  0  0  0  0  0  0  0
    0.6962   16.1056   41.9585 H   0  0  0  0  0  0  0  0  0  0  0  0
    5.1168   23.4368   31.9223 H   0  0  0  0  0  0  0  0  0  0  0  0
   -0.5274   16.6373   42.7483 H   0  0  0  0  0  0  0  0  0  0  0  0
    0.5109   16.7523   44.1389 H   0  0  0  0  0  0  0  0  0  0  0  0
    3.1805   17.9017   38.1495 H   0  0  0  0  0  0  0  0  0  0  0  0
    2.2243   17.9078   36.6288 H   0  0  0  0  0  0  0  0  0  0  0  0
    3.9156   18.5132   36.6288 H   0  0  0  0  0  0  0  0  0  0  0  0
    1.4705   16.5883   40.4057 H   0  0  0  0  0  0  0  0  0  0  0  0
    2.9735   17.0393   41.2869 H   0  0  0  0  0  0  0  0  0  0  0  0
    3.1596   19.5049   40.2563 H   0  0  0  0  0  0  0  0  0  0  0  0
    1.8554   18.3049   39.1727 H   0  0  0  0  0  0  0  0  0  0  0  0
    4.3337   24.0404   29.6370 H   0  0  0  0  0  0  0  0  0  0  0  0
   -0.7810   18.9203   43.0675 H   0  0  0  0  0  0  0  0  0  0  0  0
    0.9302   19.0237   43.8236 H   0  0  0  0  0  0  0  0  0  0  0  0
    2.3482   25.5314   29.3522 H   0  0  0  0  0  0  0  0  0  0  0  0
    1.4795   20.9625   39.0427 H   0  0  0  0  0  0  0  0  0  0  0  0
    2.1117   25.8360   34.9538 H   0  0  0  0  0  0  0  0  0  0  0  0
    2.0614   27.2921   33.9032 H   0  0  0  0  0  0  0  0  0  0  0  0
    0.6860   26.1367   33.9032 H   0  0  0  0  0  0  0  0  0  0  0  0
  1  2  3  0
  2 22  1  0
  3 10  1  0
  3 20  2  0
  4 20  1  0
  5  7  1  0
  6 19  2  0
  8 14  1  0
  9 19  1  0
  9 23  1  0
 10  5  1  0
 11 14  1  0
 12 13  1  0
 13  9  2  0
 14 21  2  3
 15  3  1  0
 16  6  1  0
 17  7  1  0
 18 16  2  0
 18 13  1  0
 19  1  1  0
 20 17  1  0
 21 15  1  0
 22 11  3  0
  4 24  1  0
  5 25  1  0
  5 26  1  0
  6 27  1  0
  7 28  1  0
  7 29  1  0
  8 30  1  0
  8 31  1  0
  8 32  1  0
 10 33  1  0
 10 34  1  0
 15 35  1  0
 15 36  1  0
 16 37  1  0
 17 38  1  0
 17 39  1  0
 18 40  1  0
 21 41  1  0
 23 42  1  0
 23 43  1  0
 23 44  1  0
M  END
>  <mol_id>  (74) 
2026-09-18-3war-s0-n100-0075

>  <rmsd_to_ref>  (74) 


$$$$

     RDKit          3D

 64 68  0  0  0  0  0  0  0  0999 V2000
    3.8700   18.9080   39.5270 C   0  0  0  0  0  0  0  0  0  0  0  0
    2.7240   24.7790   28.8210 C   0  0  0  0  0  0  0  0  0  0  0  0
    0.2160   16.6870   42.7780 N   0  0  0  0  0  0  0  0  0  0  0  0
    1.5830   25.6930   29.2800 C   0  0  0  0  0  0  0  0  0  0  0  0
    0.4410   18.7510   42.2780 C   0  0  0  0  0  0  0  0  0  0  0  0
    4.5840   17.5120   38.9710 S   0  0  0  0  0  0  0  0  0  0  0  0
    4.4440   19.4940   40.6580 O   0  0  0  0  0  0  0  0  0  0  0  0
    4.0380   23.8590   33.3330 C   0  0  0  0  0  0  0  0  0  0  0  0
    1.4190   25.9450   30.6740 C   0  0  0  0  0  0  0  0  0  0  0  0
    0.0250   17.9790   43.2600 N   0  0  0  0  0  0  0  0  0  0  0  0
    4.0620   22.2320   34.2820 N   0  0  0  0  0  0  0  0  0  0  0  0
    1.3160   15.7960   40.7260 C   0  0  0  0  0  0  0  0  0  0  0  0
    3.6920   24.3360   29.7430 C   0  0  0  0  0  0  0  0  0  0  0  0
    2.4570   19.9650   37.8180 C   0  0  0  0  0  0  0  0  0  0  0  0
    2.3330   21.5670   35.8060 C   0  0  0  0  0  0  0  0  0  0  0  0
    3.6290   19.8950   36.9790 C   0  0  0  0  0  0  0  0  0  0  0  0
    3.2710   24.6520   32.0350 C   0  0  0  0  0  0  0  0  0  0  0  0
    4.4790   23.7340   30.8710 C   0  0  0  0  0  0  0  0  0  0  0  0
    0.2760   26.7370   31.2280 C   0  0  0  0  0  0  0  0  0  0  0  0
    0.8800   26.1960   28.3510 F   0  0  0  0  0  0  0  0  0  0  0  0
    2.7320   19.2020   38.9980 O   0  0  0  0  0  0  0  0  0  0  0  0
    3.3780   16.1590   39.1520 C   0  0  0  0  0  0  0  0  0  0  0  0
    4.5570   20.9790   34.8820 C   0  0  0  0  0  0  0  0  0  0  0  0
    0.6910   14.7880   39.7990 C   0  0  0  0  0  0  0  0  0  0  0  0
    2.7310   16.0550   40.2200 C   0  0  0  0  0  0  0  0  0  0  0  0
    0.9960   18.1970   41.2270 N   0  0  0  0  0  0  0  0  0  0  0  0
    2.2670   25.3030   31.4770 C   0  0  0  0  0  0  0  0  0  0  0  0
    3.7100   21.0700   36.1820 C   0  0  0  0  0  0  0  0  0  0  0  0
    2.5700   22.3010   34.6450 C   0  0  0  0  0  0  0  0  0  0  0  0
    3.6580   23.2430   32.0350 C   0  0  0  0  0  0  0  0  0  0  0  0
    0.7550   16.9110   41.5470 C   0  0  0  0  0  0  0  0  0  0  0  0
    2.2567   23.8786   28.3956 H   0  0  0  0  0  0  0  0  0  0  0  0
    3.3018   25.4221   28.1408 H   0  0  0  0  0  0  0  0  0  0  0  0
    0.3249   19.8432   42.3382 H   0  0  0  0  0  0  0  0  0  0  0  0
    4.5280   24.4335   34.1329 H   0  0  0  0  0  0  0  0  0  0  0  0
    1.0066   15.2402   41.6234 H   0  0  0  0  0  0  0  0  0  0  0  0
    4.3027   23.8486   28.9687 H   0  0  0  0  0  0  0  0  0  0  0  0
    3.2107   24.9861   30.4885 H   0  0  0  0  0  0  0  0  0  0  0  0
    1.5900   19.5418   37.2896 H   0  0  0  0  0  0  0  0  0  0  0  0
    2.2236   21.0088   38.0748 H   0  0  0  0  0  0  0  0  0  0  0  0
    1.6496   20.7275   35.6103 H   0  0  0  0  0  0  0  0  0  0  0  0
    1.8533   22.1568   36.6010 H   0  0  0  0  0  0  0  0  0  0  0  0
    4.5272   19.8162   37.6090 H   0  0  0  0  0  0  0  0  0  0  0  0
    3.5615   19.0121   36.3263 H   0  0  0  0  0  0  0  0  0  0  0  0
    5.4654   23.4121   30.5057 H   0  0  0  0  0  0  0  0  0  0  0  0
    0.3115   26.7124   32.3272 H   0  0  0  0  0  0  0  0  0  0  0  0
    0.3498   27.7785   30.8820 H   0  0  0  0  0  0  0  0  0  0  0  0
   -0.6733   26.3021   30.8820 H   0  0  0  0  0  0  0  0  0  0  0  0
    2.6434   16.2728   38.3412 H   0  0  0  0  0  0  0  0  0  0  0  0
    3.9989   15.2512   39.1332 H   0  0  0  0  0  0  0  0  0  0  0  0
    4.3121   20.0934   34.2773 H   0  0  0  0  0  0  0  0  0  0  0  0
    5.6458   20.8773   35.0006 H   0  0  0  0  0  0  0  0  0  0  0  0
    0.2022   13.9997   40.3903 H   0  0  0  0  0  0  0  0  0  0  0  0
   -0.0563   15.2872   39.1646 H   0  0  0  0  0  0  0  0  0  0  0  0
    1.4704   14.3406   39.1646 H   0  0  0  0  0  0  0  0  0  0  0  0
    3.2885   15.2551   40.7292 H   0  0  0  0  0  0  0  0  0  0  0  0
    2.6035   17.1449   40.2972 H   0  0  0  0  0  0  0  0  0  0  0  0
    1.4682   18.6144   40.4123 H   0  0  0  0  0  0  0  0  0  0  0  0
    2.2928   26.1173   32.2161 H   0  0  0  0  0  0  0  0  0  0  0  0
    2.0849   24.4038   30.8701 H   0  0  0  0  0  0  0  0  0  0  0  0
    4.2426   21.7699   36.8426 H   0  0  0  0  0  0  0  0  0  0  0  0
    2.2824   23.3497   34.8107 H   0  0  0  0  0  0  0  0  0  0  0  0
    1.9754   21.8799   33.8209 H   0  0  0  0  0  0  0  0  0  0  0  0
    3.3287   22.1953   31.9730 H   0  0  0  0  0  0  0  0  0  0  0  0
  1  7  2  0
  2  4  1  0
  2 13  1  0
  3 10  1  0
  4  9  2  0
  5 10  2  0
  6 22  1  0
  6  1  1  0
  8 11  1  0
  9 19  1  0
  9 27  1  0
 11 29  1  0
 11 23  1  0
 12 24  1  0
 12 31  1  0
 14 21  1  0
 15 28  1  0
 16 14  1  0
 17 27  1  0
 17  8  1  0
 18 13  1  0
 18 30  1  0
 18 17  1  0
 20  4  1  0
 21  1  1  0
 22 25  1  0
 23 28  1  0
 25 12  1  0
 26 31  1  0
 26  5  1  0
 28 16  1  0
 29 15  1  0
 30 17  1  0
 30  8  1  0
 31  3  2  0
  2 32  1  0
  2 33  1  0
  5 34  1  0
  8 35  1  0
 12 36  1  0
 13 37  1  0
 13 38  1  0
 14 39  1  0
 14 40  1  0
 15 41  1  0
 15 42  1  0
 16 43  1  0
 16 44  1  0
 18 45  1  0
 19 46  1  0
 19 47  1  0
 19 48  1  0
 22 49  1  0
 22 50  1  0
 23 51  1  0
 23 52  1  0
 24 53  1  0
 24 54  1  0
 24 55  1  0
 25 56  1  0
 25 57  1  0
 26 58  1  0
 27 59  1  0
 27 60  1  0
 28 61  1  0
 29 62  1  0
 29 63  1  0
 30 64  1  0
M  END
>  <mol_id>  (75) 
2026-09-18-3war-s0-n100-0076

>  <rmsd_to_ref>  (75) 


$$$$

     RDKit          3D

 65 67  0  0  0  0  0  0  0  0999 V2000
    4.0090   24.9880   33.0830 N   0  0  0  0  0  0  0  0  0  0  0  0
    4.1860   23.8290   33.9210 N   0  0  0  0  0  0  0  0  0  0  0  0
    1.2390   26.2880   30.0560 F   0  0  0  0  0  0  0  0  0  0  0  0
    4.4810   14.8490   36.2290 C   0  0  0  0  0  0  0  0  0  0  0  0
    3.7450   13.4770   36.4200 C   0  0  0  0  0  0  0  0  0  0  0  0
    2.9620   18.1970   38.8780 C   0  0  0  0  0  0  0  0  0  0  0  0
    2.9920   25.7680   33.1880 C   0  0  0  0  0  0  0  0  0  0  0  0
    0.7000   26.9960   32.3710 C   0  0  0  0  0  0  0  0  0  0  0  0
    0.9940   19.5020   41.6840 C   0  0  0  0  0  0  0  0  0  0  0  0
    3.3390   19.2760   36.7430 N   0  0  0  0  0  0  0  0  0  0  0  0
    0.7090   20.8730   41.2290 C   0  0  0  0  0  0  0  0  0  0  0  0
    2.7130   20.4520   36.9290 C   0  0  0  0  0  0  0  0  0  0  0  0
    3.6030   13.4660   37.9130 C   0  0  0  0  0  0  0  0  0  0  0  0
    2.5220   26.4420   35.6180 C   0  0  0  0  0  0  0  0  0  0  0  0
    1.9950   20.4320   39.2490 C   0  0  0  0  0  0  0  0  0  0  0  0
    2.0670   18.8250   40.9390 C   0  0  0  0  0  0  0  0  0  0  0  0
    4.5850   12.5520   38.3100 O   0  0  0  0  0  0  0  0  0  0  0  0
    1.1420   21.2840   40.0320 C   0  0  0  0  0  0  0  0  0  0  0  0
    1.0380   26.9900   33.7830 C   0  0  0  0  0  0  0  0  0  0  0  0
    5.0920   25.7790   32.9560 O   0  0  0  0  0  0  0  0  0  0  0  0
    2.2200   26.3400   34.2350 C   0  0  0  0  0  0  0  0  0  0  0  0
    3.5730   24.4190   30.2430 C   0  0  0  0  0  0  0  0  0  0  0  0
    4.2030   17.0440   37.1500 C   0  0  0  0  0  0  0  0  0  0  0  0
    3.6570   15.6320   37.2130 N   0  0  0  0  0  0  0  0  0  0  0  0
    2.4180   13.3400   35.8900 N   0  0  0  0  0  4  0  0  0  0  0  0
    3.4340   18.3020   37.5780 C   0  0  0  0  0  0  0  0  0  0  0  0
    2.2710   19.1590   39.6280 C   0  0  0  0  0  0  0  0  0  0  0  0
    3.6980   25.4590   31.0860 O   0  0  0  0  0  0  0  0  0  0  0  0
    1.5080   26.3740   31.4680 C   0  0  0  0  0  0  0  0  0  0  0  0
    3.6860   14.8500   38.4410 C   0  0  0  0  0  0  0  0  0  0  0  0
    2.6810   25.8430   31.8990 C   0  0  0  0  0  0  0  0  0  0  0  0
    2.1020   20.9610   37.9540 C   0  0  0  0  0  0  0  0  0  0  0  0
    4.1429   24.1111   34.9107 H   0  0  0  0  0  0  0  0  0  0  0  0
    3.4394   23.1468   33.7256 H   0  0  0  0  0  0  0  0  0  0  0  0
    5.5428   14.8009   36.5123 H   0  0  0  0  0  0  0  0  0  0  0  0
    4.5326   15.2434   35.2034 H   0  0  0  0  0  0  0  0  0  0  0  0
    4.3084   12.6862   35.9031 H   0  0  0  0  0  0  0  0  0  0  0  0
    3.1538   17.2392   39.3837 H   0  0  0  0  0  0  0  0  0  0  0  0
   -0.2130   27.5053   32.0289 H   0  0  0  0  0  0  0  0  0  0  0  0
    1.2852   19.5448   42.7439 H   0  0  0  0  0  0  0  0  0  0  0  0
    0.0774   18.9180   41.5143 H   0  0  0  0  0  0  0  0  0  0  0  0
    0.1400   21.5593   41.8734 H   0  0  0  0  0  0  0  0  0  0  0  0
    2.7206   21.1059   36.0445 H   0  0  0  0  0  0  0  0  0  0  0  0
    2.6335   13.1398   38.3176 H   0  0  0  0  0  0  0  0  0  0  0  0
    1.6426   26.1450   36.2082 H   0  0  0  0  0  0  0  0  0  0  0  0
    3.3661   25.7791   35.8588 H   0  0  0  0  0  0  0  0  0  0  0  0
    2.7914   27.4810   35.8588 H   0  0  0  0  0  0  0  0  0  0  0  0
    3.0074   19.0245   41.4736 H   0  0  0  0  0  0  0  0  0  0  0  0
    1.7413   17.7751   40.8985 H   0  0  0  0  0  0  0  0  0  0  0  0
    4.6227   12.5169   39.2987 H   0  0  0  0  0  0  0  0  0  0  0  0
    0.8462   22.2713   39.6478 H   0  0  0  0  0  0  0  0  0  0  0  0
    0.3773   27.4902   34.5064 H   0  0  0  0  0  0  0  0  0  0  0  0
    5.4284   26.0247   33.8541 H   0  0  0  0  0  0  0  0  0  0  0  0
    3.4613   23.4898   30.8211 H   0  0  0  0  0  0  0  0  0  0  0  0
    2.6860   24.5654   29.6091 H   0  0  0  0  0  0  0  0  0  0  0  0
    4.4694   24.3510   29.6091 H   0  0  0  0  0  0  0  0  0  0  0  0
    5.1155   17.0340   37.7643 H   0  0  0  0  0  0  0  0  0  0  0  0
    4.2423   17.1946   36.0611 H   0  0  0  0  0  0  0  0  0  0  0  0
    1.7440   13.2704   36.6657 H   0  0  0  0  0  0  0  0  0  0  0  0
    2.1926   14.1622   35.3120 H   0  0  0  0  0  0  0  0  0  0  0  0
    2.3653   12.4891   35.3120 H   0  0  0  0  0  0  0  0  0  0  0  0
    1.5035   19.1149   38.8412 H   0  0  0  0  0  0  0  0  0  0  0  0
    2.8278   15.0854   39.0876 H   0  0  0  0  0  0  0  0  0  0  0  0
    4.5681   15.0373   39.0710 H   0  0  0  0  0  0  0  0  0  0  0  0
    1.6057   21.9284   37.7868 H   0  0  0  0  0  0  0  0  0  0  0  0
  1  7  1  0
  1  2  1  0
  3 29  1  0
  4  5  1  0
  4 24  1  0
  5 25  1  0
  5 13  1  0
  7 21  2  0
  8 19  2  0
 10 12  2  0
 10 26  1  0
 11  9  1  0
 12 32  1  0
 13 17  1  0
 13 30  1  0
 15 27  1  0
 15 18  1  0
 16  9  1  0
 18 11  2  0
 19 21  1  0
 20  1  1  0
 21 14  1  0
 22 28  1  0
 23 24  1  0
 23 26  1  0
 24 30  1  0
 26  6  2  0
 27  6  1  0
 27 16  1  0
 28 31  1  0
 29 31  2  0
 29  8  1  0
 31  7  1  0
 32 15  2  0
  2 33  1  0
  2 34  1  0
  4 35  1  0
  4 36  1  0
  5 37  1  0
  6 38  1  0
  8 39  1  0
  9 40  1  0
  9 41  1  0
 11 42  1  0
 12 43  1  0
 13 44  1  0
 14 45  1  0
 14 46  1  0
 14 47  1  0
 16 48  1  0
 16 49  1  0
 17 50  1  0
 18 51  1  0
 19 52  1  0
 20 53  1  0
 22 54  1  0
 22 55  1  0
 22 56  1  0
 23 57  1  0
 23 58  1  0
 25 59  1  0
 25 60  1  0
 25 61  1  0
 27 62  1  0
 30 63  1  0
 30 64  1  0
 32 65  1  0
M  CHG  1  25   1
M  END
>  <mol_id>  (76) 
2026-09-18-3war-s0-n100-0077

>  <rmsd_to_ref>  (76) 


$$$$

     RDKit          3D

 41 41  0  0  0  0  0  0  0  0999 V2000
    1.0640   20.4300   40.9190 C   0  0  0  0  0  0  0  0  0  0  0  0
    1.9380   19.8800   39.7380 C   0  0  0  0  0  0  0  0  0  0  0  0
    4.0580   22.0550   34.1860 C   0  0  0  0  0  0  0  0  0  0  0  0
    3.7340   23.5660   33.4580 S   0  0  0  0  0  0  0  0  0  0  0  0
    2.4970   18.6390   39.9890 C   0  0  0  0  0  0  0  0  0  0  0  0
    1.7710   26.3860   29.3150 C   0  0  0  0  0  0  0  0  0  0  0  0
    2.1900   20.5990   38.5980 C   0  0  0  0  0  0  0  0  0  0  0  0
    3.5400   18.7290   37.8370 C   0  0  0  0  0  0  0  0  0  0  0  0
    3.7760   25.4820   32.0320 C   0  0  0  0  0  0  0  0  0  0  0  0
    3.3800   20.6270   36.2950 C   0  0  0  0  0  0  0  0  0  0  0  0
    2.6700   25.9190   30.4490 C   0  0  0  0  0  0  0  0  0  0  0  0
    3.2560   18.0600   38.9810 C   0  0  0  0  0  0  0  0  0  0  0  0
    3.6400   19.7990   35.1670 O   0  0  0  0  0  0  0  0  0  0  0  0
    3.0400   20.0430   37.6300 C   0  0  0  0  0  0  0  0  0  0  0  0
    3.1430   21.7970   35.4240 C   0  0  0  0  0  0  0  0  0  0  0  0
    2.2150   25.9180   31.6530 C   0  0  0  0  0  0  0  0  0  0  0  0
    3.8920   25.4660   30.6420 C   0  0  0  0  0  0  0  0  0  0  0  0
    1.5205   20.1427   41.8777 H   0  0  0  0  0  0  0  0  0  0  0  0
    1.0077   21.5266   40.8537 H   0  0  0  0  0  0  0  0  0  0  0  0
    0.0510   20.0063   40.8537 H   0  0  0  0  0  0  0  0  0  0  0  0
    5.1090   22.0345   34.5102 H   0  0  0  0  0  0  0  0  0  0  0  0
    3.8565   21.2688   33.4435 H   0  0  0  0  0  0  0  0  0  0  0  0
    3.5320   24.5082   34.4319 H   0  0  0  0  0  0  0  0  0  0  0  0
    2.3454   18.1299   40.9522 H   0  0  0  0  0  0  0  0  0  0  0  0
    0.8679   26.8551   29.7325 H   0  0  0  0  0  0  0  0  0  0  0  0
    2.3114   27.1174   28.6961 H   0  0  0  0  0  0  0  0  0  0  0  0
    1.4834   25.5233   28.6961 H   0  0  0  0  0  0  0  0  0  0  0  0
    1.7360   21.5893   38.4458 H   0  0  0  0  0  0  0  0  0  0  0  0
    4.1610   18.2521   37.0644 H   0  0  0  0  0  0  0  0  0  0  0  0
    4.3739   26.2425   32.5556 H   0  0  0  0  0  0  0  0  0  0  0  0
    4.0515   24.6481   32.6944 H   0  0  0  0  0  0  0  0  0  0  0  0
    3.7820   20.9808   37.2558 H   0  0  0  0  0  0  0  0  0  0  0  0
    2.3101   24.8889   30.3101 H   0  0  0  0  0  0  0  0  0  0  0  0
    3.6351   17.0360   39.1137 H   0  0  0  0  0  0  0  0  0  0  0  0
    3.9219   18.9012   35.4746 H   0  0  0  0  0  0  0  0  0  0  0  0
    3.2186   22.6883   36.0643 H   0  0  0  0  0  0  0  0  0  0  0  0
    2.1654   21.5766   34.9704 H   0  0  0  0  0  0  0  0  0  0  0  0
    1.8881   26.8952   32.0380 H   0  0  0  0  0  0  0  0  0  0  0  0
    1.3250   25.3565   31.9733 H   0  0  0  0  0  0  0  0  0  0  0  0
    4.0515   24.4582   30.2311 H   0  0  0  0  0  0  0  0  0  0  0  0
    4.7301   26.0090   30.1808 H   0  0  0  0  0  0  0  0  0  0  0  0
  2  5  2  0
  2  1  1  0
  3 15  1  0
  4  3  1  0
  6 11  1  0
  7  2  1  0
  8 12  2  0
 10 13  1  0
 10 14  1  0
 11 17  1  0
 11 16  1  0
 12  5  1  0
 14  8  1  0
 14  7  2  0
 15 10  1  0
 16  9  1  0
 17  9  1  0
  1 18  1  0
  1 19  1  0
  1 20  1  0
  3 21  1  0
  3 22  1  0
  4 23  1  0
  5 24  1  0
  6 25  1  0
  6 26  1  0
  6 27  1  0
  7 28  1  0
  8 29  1  0
  9 30  1  0
  9 31  1  0
 10 32  1  0
 11 33  1  0
 12 34  1  0
 13 35  1  0
 15 36  1  0
 15 37  1  0
 16 38  1  0
 16 39  1  0
 17 40  1  0
 17 41  1  0
M  END
>  <mol_id>  (77) 
2026-09-18-3war-s0-n100-0078

>  <rmsd_to_ref>  (77) 


$$$$

     RDKit          3D

 79 82  0  0  0  0  0  0  0  0999 V2000
    1.4770   25.5630   29.7280 C   0  0  0  0  0  0  0  0  0  0  0  0
    4.0010   22.9630   32.9890 C   0  0  0  0  0  0  0  0  0  0  0  0
   -0.5700   20.0940   42.4840 C   0  0  0  0  0  0  0  0  0  0  0  0
    5.6850   23.8480   30.2430 C   0  0  0  0  0  0  0  0  0  0  0  0
    1.5610   20.2010   41.1620 C   0  0  0  0  0  0  0  0  0  0  0  0
    0.4040   19.0000   42.1130 C   0  0  0  0  0  0  0  0  0  0  0  0
    2.4380   24.4810   29.3600 C   0  0  0  0  0  0  0  0  0  0  0  0
    3.0680   20.0860   35.6390 C   0  0  0  0  0  0  0  0  0  0  0  0
    3.6600   22.1760   34.2250 C   0  0  0  0  0  0  0  0  0  0  0  0
    0.7710   17.9190   43.1390 C   0  0  0  0  0  0  0  0  0  0  0  0
    1.5380   25.4610   31.2960 C   0  0  0  0  0  0  0  0  0  0  0  0
    2.2220   22.6480   28.1300 F   0  0  0  0  0  0  0  0  0  0  0  0
    2.8840   24.9670   31.4910 C   0  0  0  0  0  0  0  0  0  0  0  0
    3.5750   20.6340   34.2210 C   0  0  0  0  0  0  0  0  0  0  0  0
    4.6090   24.3760   29.3330 C   0  0  0  0  0  0  0  0  0  0  0  0
    3.5980   24.2140   30.4130 C   0  0  0  0  0  0  0  0  0  0  0  0
   -0.5000   18.5650   45.4550 N   0  0  0  0  0  4  0  0  0  0  0  0
    4.1930   24.2300   27.6860 S   0  0  0  0  0  0  0  0  0  0  0  0
    0.3720   17.6360   41.4890 C   0  0  0  0  0  0  0  0  0  0  0  0
    3.1610   19.2580   37.7010 C   0  0  0  0  0  0  0  0  0  0  0  0
    4.5630   21.8510   32.2020 C   0  0  0  0  0  0  0  0  0  0  0  0
   -0.8470   17.1610   45.9380 C   0  0  0  0  0  0  0  0  0  0  0  0
    3.2740   20.1550   36.7040 C   0  0  0  0  0  0  0  0  0  0  0  0
    2.6900   19.5850   38.8610 C   0  0  0  0  0  0  0  0  0  0  0  0
    3.8700   21.3830   30.9620 C   0  0  0  0  0  0  0  0  0  0  0  0
   -0.7310   16.8540   44.5830 C   0  0  0  0  0  0  0  0  0  0  0  0
   -0.5250   17.9910   43.9890 C   0  0  0  0  0  0  0  0  0  0  0  0
    0.6050   21.1740   41.8110 S   0  0  0  0  0  0  0  0  0  0  0  0
    1.5730   21.3400   38.8760 O   0  0  0  0  0  0  0  0  0  0  0  0
    2.4560   23.9780   28.0470 C   0  0  0  0  0  0  0  0  0  0  0  0
    1.8180   20.3950   39.6770 C   0  0  0  0  0  0  0  0  0  0  0  0
    2.7570   22.8580   35.0840 C   0  0  0  0  0  0  0  0  0  0  0  0
    0.4663   25.3590   29.3447 H   0  0  0  0  0  0  0  0  0  0  0  0
    1.7176   26.5552   29.3186 H   0  0  0  0  0  0  0  0  0  0  0  0
    3.1118   23.4041   32.5149 H   0  0  0  0  0  0  0  0  0  0  0  0
    4.6529   23.8374   33.1321 H   0  0  0  0  0  0  0  0  0  0  0  0
   -1.5328   20.0618   41.9530 H   0  0  0  0  0  0  0  0  0  0  0  0
   -0.9769   20.2119   43.4991 H   0  0  0  0  0  0  0  0  0  0  0  0
    5.3842   23.9956   31.2907 H   0  0  0  0  0  0  0  0  0  0  0  0
    5.8330   22.7749   30.0517 H   0  0  0  0  0  0  0  0  0  0  0  0
    6.6243   24.3875   30.0517 H   0  0  0  0  0  0  0  0  0  0  0  0
    2.6495   20.0518   41.2154 H   0  0  0  0  0  0  0  0  0  0  0  0
    1.9504   23.5025   29.4816 H   0  0  0  0  0  0  0  0  0  0  0  0
    3.1453   19.0000   35.4821 H   0  0  0  0  0  0  0  0  0  0  0  0
    2.2953   20.8663   35.7030 H   0  0  0  0  0  0  0  0  0  0  0  0
    4.6543   22.1660   34.6954 H   0  0  0  0  0  0  0  0  0  0  0  0
    1.5724   17.5593   43.8012 H   0  0  0  0  0  0  0  0  0  0  0  0
    1.3961   26.4434   31.7701 H   0  0  0  0  0  0  0  0  0  0  0  0
    0.7551   24.8279   31.7390 H   0  0  0  0  0  0  0  0  0  0  0  0
    3.5068   25.8433   31.7239 H   0  0  0  0  0  0  0  0  0  0  0  0
    2.7473   24.2005   32.2680 H   0  0  0  0  0  0  0  0  0  0  0  0
    2.8711   20.3141   33.4386 H   0  0  0  0  0  0  0  0  0  0  0  0
    4.5780   20.2271   34.0250 H   0  0  0  0  0  0  0  0  0  0  0  0
    4.9420   25.2477   28.7505 H   0  0  0  0  0  0  0  0  0  0  0  0
    4.1008   23.4708   31.0493 H   0  0  0  0  0  0  0  0  0  0  0  0
   -1.2187   19.2765   45.6502 H   0  0  0  0  0  0  0  0  0  0  0  0
    0.3136   19.0790   45.8221 H   0  0  0  0  0  0  0  0  0  0  0  0
   -0.5853   17.1672   41.2171 H   0  0  0  0  0  0  0  0  0  0  0  0
    0.8436   17.1411   40.6272 H   0  0  0  0  0  0  0  0  0  0  0  0
    4.1725   18.8636   37.8781 H   0  0  0  0  0  0  0  0  0  0  0  0
    2.3858   18.5784   37.3172 H   0  0  0  0  0  0  0  0  0  0  0  0
    5.5768   22.1553   31.9027 H   0  0  0  0  0  0  0  0  0  0  0  0
    4.4708   20.9907   32.8813 H   0  0  0  0  0  0  0  0  0  0  0  0
   -0.1055   16.6879   46.5985 H   0  0  0  0  0  0  0  0  0  0  0  0
   -1.7267   16.9194   46.5527 H   0  0  0  0  0  0  0  0  0  0  0  0
    4.3315   20.4550   36.7442 H   0  0  0  0  0  0  0  0  0  0  0  0
    2.3842   20.7464   36.9659 H   0  0  0  0  0  0  0  0  0  0  0  0
    2.3345   18.5934   39.1777 H   0  0  0  0  0  0  0  0  0  0  0  0
    3.4468   20.3812   38.9189 H   0  0  0  0  0  0  0  0  0  0  0  0
    2.9875   20.7870   31.2379 H   0  0  0  0  0  0  0  0  0  0  0  0
    3.5537   22.2532   30.3681 H   0  0  0  0  0  0  0  0  0  0  0  0
    4.5590   20.7646   30.3681 H   0  0  0  0  0  0  0  0  0  0  0  0
    0.1155   16.1722   44.4138 H   0  0  0  0  0  0  0  0  0  0  0  0
   -1.6294   16.3484   44.1993 H   0  0  0  0  0  0  0  0  0  0  0  0
   -1.1479   18.4919   43.2332 H   0  0  0  0  0  0  0  0  0  0  0  0
    1.7472   24.4164   27.3291 H   0  0  0  0  0  0  0  0  0  0  0  0
    3.0243   22.6561   36.1317 H   0  0  0  0  0  0  0  0  0  0  0  0
    2.8151   23.9397   34.8927 H   0  0  0  0  0  0  0  0  0  0  0  0
    1.7325   22.5063   34.8927 H   0  0  0  0  0  0  0  0  0  0  0  0
  1 11  1  0
  2  9  1  0
  5 31  1  0
  5 28  1  0
  5  6  1  0
  6 19  1  0
  6  3  1  0
  6 10  1  0
  7  1  1  0
  7 16  1  0
  8 23  1  0
  9 32  1  0
 10 19  1  0
 10 27  1  0
 11 13  1  0
 14  9  1  0
 14  8  1  0
 15  4  1  0
 15 16  1  0
 16 13  1  0
 17 22  1  0
 18 30  1  0
 18 15  1  0
 20 24  1  0
 21  2  1  0
 23 20  1  0
 24 31  1  0
 25 21  1  0
 26 22  1  0
 27 26  1  0
 27 17  1  0
 28  3  1  0
 29 31  2  0
 30 12  1  0
 30  7  1  0
  1 33  1  0
  1 34  1  0
  2 35  1  0
  2 36  1  0
  3 37  1  0
  3 38  1  0
  4 39  1  0
  4 40  1  0
  4 41  1  0
  5 42  1  0
  7 43  1  0
  8 44  1  0
  8 45  1  0
  9 46  1  0
 10 47  1  0
 11 48  1  0
 11 49  1  0
 13 50  1  0
 13 51  1  0
 14 52  1  0
 14 53  1  0
 15 54  1  0
 16 55  1  0
 17 56  1  0
 17 57  1  0
 19 58  1  0
 19 59  1  0
 20 60  1  0
 20 61  1  0
 21 62  1  0
 21 63  1  0
 22 64  1  0
 22 65  1  0
 23 66  1  0
 23 67  1  0
 24 68  1  0
 24 69  1  0
 25 70  1  0
 25 71  1  0
 25 72  1  0
 26 73  1  0
 26 74  1  0
 27 75  1  0
 30 76  1  0
 32 77  1  0
 32 78  1  0
 32 79  1  0
M  CHG  1  17   1
M  END
>  <mol_id>  (78) 
2026-09-18-3war-s0-n100-0079

>  <rmsd_to_ref>  (78) 


$$$$

     RDKit          3D

 74 76  0  0  0  0  0  0  0  0999 V2000
    4.0970   23.6590   31.8200 S   0  0  0  0  0  0  0  0  0  0  0  0
    2.9630   18.6020   38.6650 C   0  0  0  0  0  0  0  0  0  0  0  0
    1.6820   24.9160   29.3800 S   0  0  0  0  0  0  0  0  0  0  0  0
    1.9750   15.2080   36.5120 C   0  0  0  0  0  0  0  0  0  0  0  0
    1.0980   27.6850   32.3120 S   0  0  0  0  0  0  0  0  0  0  0  0
    3.0260   14.9180   37.6890 C   0  0  0  0  0  0  0  0  0  0  0  0
    2.7320   25.0620   30.9020 C   0  0  0  0  0  0  0  0  0  0  0  0
    3.2510   12.8520   36.9940 O   0  0  0  0  0  0  0  0  0  0  0  0
    2.7750   27.9910   33.8120 C   0  0  0  0  0  0  0  0  0  0  0  0
    5.2220   13.9420   37.5120 O   0  0  0  0  0  1  0  0  0  0  0  0
    1.5850   21.9270   38.0340 F   0  0  0  0  0  0  0  0  0  0  0  0
    3.9730   13.8330   37.4620 C   0  0  0  0  0  0  0  0  0  0  0  0
    0.6320   26.1730   29.8560 C   0  0  0  0  0  0  0  0  0  0  0  0
   -0.7210   20.6900   41.7670 C   0  0  0  0  0  0  0  0  0  0  0  0
    2.0790   19.5390   40.6890 N   0  0  0  0  0  0  0  0  0  0  0  0
    3.0330   19.9800   36.7830 O   0  0  0  0  0  0  0  0  0  0  0  0
    2.6280   19.8640   38.0410 C   0  0  0  0  0  0  0  0  0  0  0  0
   -1.1350   19.9260   43.1170 C   0  0  0  0  0  0  0  0  0  0  0  0
    3.3210   21.8790   34.8970 O   0  0  0  0  0  1  0  0  0  0  0  0
    3.5140   16.0880   38.2010 N   0  0  0  0  0  0  0  0  0  0  0  0
    1.7880   20.7000   40.1110 C   0  0  0  0  0  0  0  0  0  0  0  0
    2.7730   14.5710   39.9670 C   0  0  0  0  0  0  0  0  0  0  0  0
    1.7920   14.2120   35.5450 O   0  0  0  0  0  0  0  0  0  0  0  0
    2.6050   18.5500   40.0800 C   0  0  0  0  0  0  0  0  0  0  0  0
    0.6150   26.1740   31.3660 C   0  0  0  0  0  0  0  0  0  0  0  0
    3.4970   17.4420   37.9700 C   0  0  0  0  0  0  0  0  0  0  0  0
    1.3620   22.4280   33.9070 O   0  0  0  0  0  0  0  0  0  0  0  0
    0.5380   21.4720   42.0330 C   0  0  0  0  0  0  0  0  0  0  0  0
    2.0350   20.8550   38.6860 C   0  0  0  0  0  0  0  0  0  0  0  0
    1.0480   26.6200   33.5900 C   0  0  0  0  0  0  0  0  0  0  0  0
    2.1090   25.3240   33.5110 C   0  0  0  0  0  0  0  0  0  0  0  0
    2.5680   22.7040   34.1550 C   0  0  0  0  0  0  0  0  0  0  0  0
    1.8410   25.1020   31.7750 C   0  0  0  0  0  0  0  0  0  0  0  0
    1.2050   21.7910   40.8220 O   0  0  0  0  0  0  0  0  0  0  0  0
    3.1540   13.1770   40.5210 C   0  0  0  0  0  0  0  0  0  0  0  0
    1.7320   27.2890   34.7280 C   0  0  0  0  0  0  0  0  0  0  0  0
    3.5120   26.2230   30.7820 C   0  0  0  0  0  0  0  0  0  0  0  0
    3.5250   15.6060   39.3260 O   0  0  0  0  0  0  0  0  0  0  0  0
    3.1690   23.8710   33.4050 C   0  0  0  0  0  0  0  0  0  0  0  0
    0.9979   15.3936   36.9819 H   0  0  0  0  0  0  0  0  0  0  0  0
    2.4025   16.0578   35.9596 H   0  0  0  0  0  0  0  0  0  0  0  0
    2.4645   14.4509   38.5116 H   0  0  0  0  0  0  0  0  0  0  0  0
    3.5275   28.4975   34.4343 H   0  0  0  0  0  0  0  0  0  0  0  0
    3.2690   27.2409   33.1770 H   0  0  0  0  0  0  0  0  0  0  0  0
    2.2660   28.7311   33.1770 H   0  0  0  0  0  0  0  0  0  0  0  0
    1.0014   27.1386   29.4802 H   0  0  0  0  0  0  0  0  0  0  0  0
   -0.3784   26.0210   29.4485 H   0  0  0  0  0  0  0  0  0  0  0  0
   -1.5272   21.3747   41.4649 H   0  0  0  0  0  0  0  0  0  0  0  0
   -0.5525   19.9645   40.9575 H   0  0  0  0  0  0  0  0  0  0  0  0
    2.8468   20.8107   36.2776 H   0  0  0  0  0  0  0  0  0  0  0  0
   -0.8141   20.5182   43.9866 H   0  0  0  0  0  0  0  0  0  0  0  0
   -2.2269   19.7961   43.1447 H   0  0  0  0  0  0  0  0  0  0  0  0
   -0.6476   18.9402   43.1447 H   0  0  0  0  0  0  0  0  0  0  0  0
    1.9804   14.3457   39.2383 H   0  0  0  0  0  0  0  0  0  0  0  0
    2.7065   15.0682   40.9459 H   0  0  0  0  0  0  0  0  0  0  0  0
    1.6324   13.3433   35.9921 H   0  0  0  0  0  0  0  0  0  0  0  0
    2.7962   17.6234   40.6410 H   0  0  0  0  0  0  0  0  0  0  0  0
   -0.4381   25.9860   31.6224 H   0  0  0  0  0  0  0  0  0  0  0  0
    4.5660   17.6852   37.8801 H   0  0  0  0  0  0  0  0  0  0  0  0
    2.6861   17.3983   37.2280 H   0  0  0  0  0  0  0  0  0  0  0  0
    0.2785   22.4038   42.5568 H   0  0  0  0  0  0  0  0  0  0  0  0
    1.2087   20.8562   42.6503 H   0  0  0  0  0  0  0  0  0  0  0  0
   -0.0097   26.3214   33.6367 H   0  0  0  0  0  0  0  0  0  0  0  0
    1.2810   24.6329   33.7272 H   0  0  0  0  0  0  0  0  0  0  0  0
    1.6415   24.0217   31.7198 H   0  0  0  0  0  0  0  0  0  0  0  0
    3.1464   13.2048   41.6206 H   0  0  0  0  0  0  0  0  0  0  0  0
    2.4268   12.4309   40.1681 H   0  0  0  0  0  0  0  0  0  0  0  0
    4.1596   12.9045   40.1681 H   0  0  0  0  0  0  0  0  0  0  0  0
    2.1837   26.5828   35.4402 H   0  0  0  0  0  0  0  0  0  0  0  0
    1.1318   27.9081   35.4110 H   0  0  0  0  0  0  0  0  0  0  0  0
    3.7652   26.5998   31.7840 H   0  0  0  0  0  0  0  0  0  0  0  0
    4.4365   25.9886   30.2340 H   0  0  0  0  0  0  0  0  0  0  0  0
    2.9455   26.9903   30.2340 H   0  0  0  0  0  0  0  0  0  0  0  0
    4.0928   24.0239   33.9822 H   0  0  0  0  0  0  0  0  0  0  0  0
  1 39  1  0
  2 24  2  0
  3 13  1  0
  3  7  1  0
  5 30  1  0
  6  4  1  0
  6 20  1  0
  7 37  1  0
  7 33  1  0
  7  1  1  0
  8 12  2  0
  9 36  1  0
 11 29  1  0
 12 10  1  0
 12  6  1  0
 14 28  1  0
 14 18  1  0
 16 17  1  0
 17  2  1  0
 17 29  2  0
 20 38  1  0
 21 15  2  0
 21 34  1  0
 22 35  1  0
 23  4  1  0
 24 15  1  0
 25 13  1  0
 25 33  1  0
 25  5  1  0
 26 20  1  0
 26  2  1  0
 27 32  2  0
 29 21  1  0
 30 36  1  0
 31 30  1  0
 32 19  1  0
 33 31  1  0
 34 28  1  0
 38 22  1  0
 39 31  1  0
 39 32  1  0
  4 40  1  0
  4 41  1  0
  6 42  1  0
  9 43  1  0
  9 44  1  0
  9 45  1  0
 13 46  1  0
 13 47  1  0
 14 48  1  0
 14 49  1  0
 16 50  1  0
 18 51  1  0
 18 52  1  0
 18 53  1  0
 22 54  1  0
 22 55  1  0
 23 56  1  0
 24 57  1  0
 25 58  1  0
 26 59  1  0
 26 60  1  0
 28 61  1  0
 28 62  1  0
 30 63  1  0
 31 64  1  0
 33 65  1  0
 35 66  1  0
 35 67  1  0
 35 68  1  0
 36 69  1  0
 36 70  1  0
 37 71  1  0
 37 72  1  0
 37 73  1  0
 39 74  1  0
M  CHG  2  10  -1  19  -1
M  END
>  <mol_id>  (79) 
2026-09-18-3war-s0-n100-0080

>  <rmsd_to_ref>  (79) 


$$$$

     RDKit          3D

 53 54  0  0  0  0  0  0  0  0999 V2000
    1.0200   29.0520   33.0860 C   0  0  0  0  0  0  0  0  0  0  0  0
    2.6090   21.8960   35.0320 C   0  0  0  0  0  0  0  0  0  0  0  0
    2.7130   16.6500   39.8780 C   0  0  0  0  0  0  0  0  0  0  0  0
    3.3250   18.9140   37.0650 N   0  0  0  0  0  0  0  0  0  0  0  0
    1.5390   22.1950   37.2300 C   0  0  0  0  0  0  0  0  0  0  0  0
    2.6860   25.1210   33.8660 C   0  0  0  0  0  0  0  0  0  0  0  0
    2.7090   14.4050   39.4050 O   0  0  0  0  0  0  0  0  0  0  0  0
    2.9340   20.1600   36.6510 C   0  0  0  0  0  0  0  0  0  0  0  0
    1.9490   20.3730   38.7960 C   0  0  0  0  0  0  0  0  0  0  0  0
    2.1240   20.8800   37.5630 C   0  0  0  0  0  0  0  0  0  0  0  0
    2.3820   15.3450   40.3200 C   0  0  0  0  0  0  0  0  0  0  0  0
    1.3980   28.6320   34.4270 C   0  0  0  0  0  0  0  0  0  0  0  0
    3.6820   13.4210   37.3750 C   0  0  0  0  0  0  0  0  0  0  0  0
    1.3730   26.8280   32.1760 C   0  0  0  0  0  0  0  0  0  0  0  0
    2.9670   18.3190   38.2190 C   0  0  0  0  0  0  0  0  0  0  0  0
    4.8530   13.0000   37.4530 O   0  0  0  0  0  1  0  0  0  0  0  0
    1.9020   26.2750   33.5810 C   0  0  0  0  0  0  0  0  0  0  0  0
    2.2510   19.1340   39.1190 C   0  0  0  0  0  0  0  0  0  0  0  0
    3.3840   14.7150   38.1870 C   0  0  0  0  0  0  0  0  0  0  0  0
    1.8360   22.6890   35.9850 C   0  0  0  0  0  0  0  0  0  0  0  0
    1.8190   27.2740   34.5560 C   0  0  0  0  0  0  0  0  0  0  0  0
    1.2990   25.8680   30.9370 C   0  0  0  0  0  0  0  0  0  0  0  0
    2.8330   13.0320   36.6280 O   0  0  0  0  0  0  0  0  0  0  0  0
    2.7630   25.1760   35.4690 N   0  0  0  0  0  4  0  0  0  0  0  0
    3.1310   20.6990   35.3690 C   0  0  0  0  0  0  0  0  0  0  0  0
    3.1250   17.0160   38.6190 C   0  0  0  0  0  0  0  0  0  0  0  0
    0.9550   28.1550   32.0710 C   0  0  0  0  0  0  0  0  0  0  0  0
    0.7843   30.1091   32.8934 H   0  0  0  0  0  0  0  0  0  0  0  0
    2.7690   22.2845   34.0154 H   0  0  0  0  0  0  0  0  0  0  0  0
    1.8112   17.2508   40.0672 H   0  0  0  0  0  0  0  0  0  0  0  0
    3.6599   16.7863   40.4210 H   0  0  0  0  0  0  0  0  0  0  0  0
    0.9028   22.7456   37.9385 H   0  0  0  0  0  0  0  0  0  0  0  0
    3.6858   25.1922   33.4128 H   0  0  0  0  0  0  0  0  0  0  0  0
    2.2677   24.1846   33.4684 H   0  0  0  0  0  0  0  0  0  0  0  0
    1.5317   21.0281   39.5749 H   0  0  0  0  0  0  0  0  0  0  0  0
    2.9256   15.1371   41.2534 H   0  0  0  0  0  0  0  0  0  0  0  0
    1.2941   15.3039   40.4773 H   0  0  0  0  0  0  0  0  0  0  0  0
    1.3617   29.3173   35.2867 H   0  0  0  0  0  0  0  0  0  0  0  0
    1.9434   18.7322   40.0957 H   0  0  0  0  0  0  0  0  0  0  0  0
    4.3325   15.2214   38.4192 H   0  0  0  0  0  0  0  0  0  0  0  0
    2.7383   15.3693   37.5829 H   0  0  0  0  0  0  0  0  0  0  0  0
    1.4883   23.6933   35.7012 H   0  0  0  0  0  0  0  0  0  0  0  0
    2.1219   26.9694   35.5687 H   0  0  0  0  0  0  0  0  0  0  0  0
    1.2188   24.8272   31.2839 H   0  0  0  0  0  0  0  0  0  0  0  0
    0.4177   26.1209   30.3293 H   0  0  0  0  0  0  0  0  0  0  0  0
    2.2087   25.9829   30.3293 H   0  0  0  0  0  0  0  0  0  0  0  0
    1.9906   24.6243   35.8690 H   0  0  0  0  0  0  0  0  0  0  0  0
    3.6627   24.7851   35.7831 H   0  0  0  0  0  0  0  0  0  0  0  0
    2.6851   26.1538   35.7831 H   0  0  0  0  0  0  0  0  0  0  0  0
    3.7196   20.1367   34.6292 H   0  0  0  0  0  0  0  0  0  0  0  0
    2.5708   16.3901   37.9041 H   0  0  0  0  0  0  0  0  0  0  0  0
    4.2162   16.8803   38.6491 H   0  0  0  0  0  0  0  0  0  0  0  0
    0.5482   28.4940   31.1068 H   0  0  0  0  0  0  0  0  0  0  0  0
  1 12  2  0
  2 25  2  0
  2 20  1  0
  3 11  1  0
  4 15  1  0
  5 10  1  0
  6 24  1  0
  7 11  1  0
  8  4  2  0
  8 10  1  0
  9 18  1  0
 10  9  2  0
 12 21  1  0
 13 16  1  0
 13 19  1  0
 14 17  1  0
 15 26  1  0
 15 18  2  0
 17  6  1  0
 17 21  2  0
 19  7  1  0
 20  5  2  0
 22 14  1  0
 23 13  2  0
 25  8  1  0
 26  3  1  0
 27 14  2  0
 27  1  1  0
  1 28  1  0
  2 29  1  0
  3 30  1  0
  3 31  1  0
  5 32  1  0
  6 33  1  0
  6 34  1  0
  9 35  1  0
 11 36  1  0
 11 37  1  0
 12 38  1  0
 18 39  1  0
 19 40  1  0
 19 41  1  0
 20 42  1  0
 21 43  1  0
 22 44  1  0
 22 45  1  0
 22 46  1  0
 24 47  1  0
 24 48  1  0
 24 49  1  0
 25 50  1  0
 26 51  1  0
 26 52  1  0
 27 53  1  0
M  CHG  2  16  -1  24   1
M  END
>  <mol_id>  (80) 
2026-09-18-3war-s0-n100-0082

>  <rmsd_to_ref>  (80) 


$$$$

     RDKit          3D

 73 76  0  0  0  0  0  0  0  0999 V2000
    2.0970   25.0110   28.4400 C   0  0  0  0  0  0  0  0  0  0  0  0
    2.6210   17.3300   39.8300 C   0  0  0  0  0  0  0  0  0  0  0  0
   -1.6460   20.3620   43.1560 C   0  0  0  0  0  0  0  0  0  0  0  0
    1.3830   20.2550   41.6070 C   0  0  0  0  0  0  0  0  0  0  0  0
    2.8420   21.0890   35.9390 C   0  0  0  0  0  0  0  0  0  0  0  0
    3.8890   13.4270   38.1320 O   0  0  0  0  0  0  0  0  0  0  0  0
    4.2700   12.6570   35.1970 O   0  0  0  0  0  0  0  0  0  0  0  0
    2.8430   18.5590   37.7820 C   0  0  0  0  0  0  0  0  0  0  0  0
    1.9110   19.6180   40.4100 C   0  0  0  0  0  0  0  0  0  0  0  0
    4.3350   25.1470   27.5250 C   0  0  0  0  0  0  0  0  0  0  0  0
    4.1840   23.6670   30.8580 C   0  0  0  0  0  0  0  0  0  0  0  0
    0.3790   20.5520   41.8700 N   0  0  0  0  0  0  0  0  0  0  0  0
    2.1720   18.3350   40.5440 C   0  0  0  0  0  0  0  0  0  0  0  0
    3.0790   15.9450   37.7700 C   0  0  0  0  0  0  0  0  0  0  0  0
    2.3380   15.0940   36.8820 C   0  0  0  0  0  0  0  0  0  0  0  0
    2.8890   22.4870   33.7970 C   0  0  0  0  0  0  0  0  0  0  0  0
   -1.9490   21.6950   42.5290 C   0  0  0  0  0  0  0  0  0  0  0  0
    2.5470   24.1870   30.8430 C   0  0  0  0  0  0  0  0  0  0  0  0
    4.5400   23.5080   32.0130 C   0  0  0  0  0  0  0  0  0  0  0  0
   -0.5830   21.1150   42.7710 C   0  0  0  0  0  0  0  0  0  0  0  0
    2.9090   25.3460   27.4290 C   0  0  0  0  0  0  0  0  0  0  0  0
    4.8970   24.6060   28.5490 C   0  0  0  0  0  0  0  0  0  0  0  0
    1.9270   13.3520   35.0150 O   0  0  0  0  0  0  0  0  0  0  0  0
    2.7360   24.6350   29.5550 C   0  0  0  0  0  0  0  0  0  0  0  0
    3.0800   13.8130   37.0930 C   0  0  0  0  0  0  0  0  0  0  0  0
   -2.2140   23.0130   43.3320 C   0  0  0  0  0  0  0  0  0  0  0  0
    2.6510   20.8950   37.0610 C   0  0  0  0  0  0  0  0  0  0  0  0
    3.6870   22.9600   32.9110 C   0  0  0  0  0  0  0  0  0  0  0  0
    2.1040   20.3810   39.3220 C   0  0  0  0  0  0  0  0  0  0  0  0
    3.2810   21.5600   34.8120 C   0  0  0  0  0  0  0  0  0  0  0  0
    2.9990   12.8190   35.9160 C   0  0  0  0  0  0  0  0  0  0  0  0
   -2.2130   21.5560   41.0790 C   0  0  0  0  0  0  0  0  0  0  0  0
   -3.4760   23.7500   43.2860 C   0  0  0  0  0  0  0  0  0  0  0  0
    4.2050   24.2580   29.5460 C   0  0  0  0  0  0  0  0  0  0  0  0
    2.8470   17.3620   38.4460 C   0  0  0  0  0  0  0  0  0  0  0  0
    2.5590   19.8650   38.1250 C   0  0  0  0  0  0  0  0  0  0  0  0
    1.0003   25.0420   28.3612 H   0  0  0  0  0  0  0  0  0  0  0  0
    2.8370   16.3893   40.3577 H   0  0  0  0  0  0  0  0  0  0  0  0
   -1.8423   20.2110   44.2278 H   0  0  0  0  0  0  0  0  0  0  0  0
   -1.9643   19.3316   42.9394 H   0  0  0  0  0  0  0  0  0  0  0  0
    2.1377   20.4714   42.3774 H   0  0  0  0  0  0  0  0  0  0  0  0
    3.4457   13.6385   38.9916 H   0  0  0  0  0  0  0  0  0  0  0  0
    5.0086   12.5629   35.8495 H   0  0  0  0  0  0  0  0  0  0  0  0
    3.1349   18.4554   36.7265 H   0  0  0  0  0  0  0  0  0  0  0  0
    4.9692   25.4716   26.6869 H   0  0  0  0  0  0  0  0  0  0  0  0
    5.0005   22.9307   30.8238 H   0  0  0  0  0  0  0  0  0  0  0  0
    1.2007   17.9469   40.8844 H   0  0  0  0  0  0  0  0  0  0  0  0
    3.1577   18.5270   40.9928 H   0  0  0  0  0  0  0  0  0  0  0  0
    4.0244   16.0913   37.2271 H   0  0  0  0  0  0  0  0  0  0  0  0
    2.8192   15.3743   38.6738 H   0  0  0  0  0  0  0  0  0  0  0  0
    2.3992   15.4368   35.8386 H   0  0  0  0  0  0  0  0  0  0  0  0
    1.2559   15.0457   37.0735 H   0  0  0  0  0  0  0  0  0  0  0  0
    1.8392   22.8147   33.7743 H   0  0  0  0  0  0  0  0  0  0  0  0
    1.8113   23.3748   30.9383 H   0  0  0  0  0  0  0  0  0  0  0  0
    2.1546   24.8534   31.6253 H   0  0  0  0  0  0  0  0  0  0  0  0
    5.5511   23.8087   32.3250 H   0  0  0  0  0  0  0  0  0  0  0  0
    0.3007   21.6015   43.2096 H   0  0  0  0  0  0  0  0  0  0  0  0
    2.4827   25.7791   26.5121 H   0  0  0  0  0  0  0  0  0  0  0  0
    5.9853   24.4462   28.5554 H   0  0  0  0  0  0  0  0  0  0  0  0
    1.1883   13.7193   35.5623 H   0  0  0  0  0  0  0  0  0  0  0  0
    3.9521   14.2319   36.5696 H   0  0  0  0  0  0  0  0  0  0  0  0
   -2.0548   22.7568   44.3898 H   0  0  0  0  0  0  0  0  0  0  0  0
   -1.5392   23.7141   42.8191 H   0  0  0  0  0  0  0  0  0  0  0  0
    2.4594   21.8700   37.5329 H   0  0  0  0  0  0  0  0  0  0  0  0
    1.8915   21.4583   39.3869 H   0  0  0  0  0  0  0  0  0  0  0  0
    4.2517   21.1073   34.5613 H   0  0  0  0  0  0  0  0  0  0  0  0
    2.7697   11.8095   36.2879 H   0  0  0  0  0  0  0  0  0  0  0  0
   -3.1772   21.0483   40.9289 H   0  0  0  0  0  0  0  0  0  0  0  0
   -2.2474   22.5529   40.6153 H   0  0  0  0  0  0  0  0  0  0  0  0
   -1.4105   20.9635   40.6153 H   0  0  0  0  0  0  0  0  0  0  0  0
   -3.8206   23.9513   44.3110 H   0  0  0  0  0  0  0  0  0  0  0  0
   -3.3255   24.7022   42.7562 H   0  0  0  0  0  0  0  0  0  0  0  0
   -4.2313   23.1510   42.7562 H   0  0  0  0  0  0  0  0  0  0  0  0
  1 24  2  0
  2 13  1  0
  4 12  2  3
  5 27  2  0
  7 31  1  0
  8 36  2  0
  8 35  1  0
  9 13  1  0
  9  4  1  0
 10 22  1  0
 11 19  1  0
 14 35  1  0
 15 25  1  0
 15 14  1  0
 16 30  1  0
 17 32  1  0
 17 20  1  0
 17  3  1  0
 17 26  1  0
 18 11  1  0
 19 28  2  0
 20 12  1  0
 20  3  1  0
 21 10  2  0
 21  1  1  0
 22 34  2  0
 23 31  1  0
 24 18  1  0
 25  6  1  0
 27 36  1  0
 28 16  2  0
 29  9  2  0
 30  5  2  0
 31 25  1  0
 33 26  1  0
 34 24  1  0
 34 11  1  0
 35  2  2  0
 36 29  1  0
  1 37  1  0
  2 38  1  0
  3 39  1  0
  3 40  1  0
  4 41  1  0
  6 42  1  0
  7 43  1  0
  8 44  1  0
 10 45  1  0
 11 46  1  0
 13 47  1  0
 13 48  1  0
 14 49  1  0
 14 50  1  0
 15 51  1  0
 15 52  1  0
 16 53  1  0
 18 54  1  0
 18 55  1  0
 19 56  1  0
 20 57  1  0
 21 58  1  0
 22 59  1  0
 23 60  1  0
 25 61  1  0
 26 62  1  0
 26 63  1  0
 27 64  1  0
 29 65  1  0
 30 66  1  0
 31 67  1  0
 32 68  1  0
 32 69  1  0
 32 70  1  0
 33 71  1  0
 33 72  1  0
 33 73  1  0
M  END
>  <mol_id>  (81) 
2026-09-18-3war-s0-n100-0083

>  <rmsd_to_ref>  (81) 


$$$$

     RDKit          3D

 52 56  0  0  0  0  0  0  0  0999 V2000
    1.5240   26.2320   32.4310 C   0  0  0  0  0  0  0  0  0  0  0  0
    3.4150   12.2720   39.1840 N   0  0  0  0  0  0  0  0  0  0  0  0
    2.2470   21.6250   36.1100 S   0  0  0  0  0  0  0  0  0  0  0  0
    3.5180   22.3260   33.8150 C   0  0  0  0  0  0  0  0  0  0  0  0
    1.7280   21.6420   38.7060 N   0  0  0  0  0  0  0  0  0  0  0  0
    2.2230   20.8280   37.7470 C   0  0  0  0  0  0  0  0  0  0  0  0
    0.9280   21.3490   40.9320 O   0  0  0  0  0  0  0  0  0  0  0  0
    1.8420   19.5160   39.6870 C   0  0  0  0  0  0  0  0  0  0  0  0
    0.6640   28.3780   32.0670 F   0  0  0  0  0  0  0  0  0  0  0  0
    3.3150   13.3210   38.4060 C   0  0  0  0  0  0  0  0  0  0  0  0
    3.0180   18.2320   38.0860 C   0  0  0  0  0  0  0  0  0  0  0  0
    2.0830   25.4850   33.4640 C   0  0  0  0  0  0  0  0  0  0  0  0
    2.9630   24.7720   30.9130 C   0  0  0  0  0  0  0  0  0  0  0  0
    2.4040   19.4320   38.4180 C   0  0  0  0  0  0  0  0  0  0  0  0
    1.6940   18.3110   40.4860 C   0  0  0  0  0  0  0  0  0  0  0  0
    3.4980   21.2880   34.8660 C   0  0  0  0  0  0  0  0  0  0  0  0
    2.6400   14.7630   40.2210 C   0  0  0  0  0  0  0  0  0  0  0  0
    1.4470   20.9550   39.8760 C   0  0  0  0  0  0  0  0  0  0  0  0
    3.3990   15.8050   38.2820 C   0  0  0  0  0  0  0  0  0  0  0  0
    2.4200   22.1450   32.9960 F   0  0  0  0  0  0  0  0  0  0  0  0
    3.1760   14.6540   38.9570 C   0  0  0  0  0  0  0  0  0  0  0  0
    0.2750   27.0190   32.3230 C   0  0  0  0  0  0  0  0  0  0  0  0
    3.7430   23.7170   34.2700 C   0  0  0  0  0  0  0  0  0  0  0  0
    2.2650   17.1270   40.0180 C   0  0  0  0  0  0  0  0  0  0  0  0
    2.1600   26.0520   31.1320 C   0  0  0  0  0  0  0  0  0  0  0  0
    3.0440   17.0420   38.7800 C   0  0  0  0  0  0  0  0  0  0  0  0
    2.2310   15.9480   40.7490 C   0  0  0  0  0  0  0  0  0  0  0  0
    1.5370   24.7600   30.6400 C   0  0  0  0  0  0  0  0  0  0  0  0
    3.3170   24.6630   33.2350 C   0  0  0  0  0  0  0  0  0  0  0  0
    4.0060   24.6290   32.0500 N   0  0  0  0  0  4  0  0  0  0  0  0
    1.5490   26.7826   33.3829 H   0  0  0  0  0  0  0  0  0  0  0  0
    3.5131   11.3330   38.7723 H   0  0  0  0  0  0  0  0  0  0  0  0
    4.4324   22.1786   33.2215 H   0  0  0  0  0  0  0  0  0  0  0  0
    3.3369   13.1876   37.3143 H   0  0  0  0  0  0  0  0  0  0  0  0
    3.5627   18.2311   37.1303 H   0  0  0  0  0  0  0  0  0  0  0  0
    1.6148   25.4975   34.4593 H   0  0  0  0  0  0  0  0  0  0  0  0
    3.6640   24.1525   30.3344 H   0  0  0  0  0  0  0  0  0  0  0  0
    1.1441   18.3319   41.4385 H   0  0  0  0  0  0  0  0  0  0  0  0
    3.2849   20.3141   34.4010 H   0  0  0  0  0  0  0  0  0  0  0  0
    4.4804   21.2825   35.3608 H   0  0  0  0  0  0  0  0  0  0  0  0
    2.5383   13.8525   40.8298 H   0  0  0  0  0  0  0  0  0  0  0  0
    3.8832   15.7527   37.2957 H   0  0  0  0  0  0  0  0  0  0  0  0
   -0.3421   26.6390   31.4955 H   0  0  0  0  0  0  0  0  0  0  0  0
   -0.3202   26.9449   33.2451 H   0  0  0  0  0  0  0  0  0  0  0  0
    3.1639   23.8973   35.1877 H   0  0  0  0  0  0  0  0  0  0  0  0
    4.8154   23.8608   34.4684 H   0  0  0  0  0  0  0  0  0  0  0  0
    2.3736   27.0937   30.8505 H   0  0  0  0  0  0  0  0  0  0  0  0
    1.8627   15.9724   41.7852 H   0  0  0  0  0  0  0  0  0  0  0  0
    1.1818   24.6874   29.6015 H   0  0  0  0  0  0  0  0  0  0  0  0
    0.6967   24.1363   30.9790 H   0  0  0  0  0  0  0  0  0  0  0  0
    4.5080   23.7343   31.9586 H   0  0  0  0  0  0  0  0  0  0  0  0
    4.7010   25.3880   32.0079 H   0  0  0  0  0  0  0  0  0  0  0  0
  1 22  1  0
  1 12  1  0
  3  6  1  0
  4 20  1  0
  4 23  1  0
  4 16  1  0
  5 18  1  0
  6 14  1  0
  6  5  2  0
  8 18  1  0
  8 15  2  0
  9 22  1  0
 10 21  1  0
 10  2  2  3
 11 14  2  0
 11 26  1  0
 13 28  1  0
 13 25  1  0
 13 30  1  0
 14  8  1  0
 16  3  1  0
 17 27  1  0
 18  7  2  0
 19 26  2  0
 19 21  1  0
 21 17  2  0
 24 15  1  0
 24 27  2  0
 25 28  1  0
 25  1  1  0
 26 24  1  0
 29 12  2  0
 29 23  1  0
 30 29  1  0
  1 31  1  0
  2 32  1  0
  4 33  1  0
 10 34  1  0
 11 35  1  0
 12 36  1  0
 13 37  1  0
 15 38  1  0
 16 39  1  0
 16 40  1  0
 17 41  1  0
 19 42  1  0
 22 43  1  0
 22 44  1  0
 23 45  1  0
 23 46  1  0
 25 47  1  0
 27 48  1  0
 28 49  1  0
 28 50  1  0
 30 51  1  0
 30 52  1  0
M  CHG  1  30   1
M  END
>  <mol_id>  (82) 
2026-09-18-3war-s0-n100-0084

>  <rmsd_to_ref>  (82) 


$$$$

     RDKit          3D

 40 41  0  0  0  0  0  0  0  0999 V2000
    3.8420   22.8600   32.7350 O   0  0  0  0  0  0  0  0  0  0  0  0
    1.2530   17.6560   41.5760 C   0  0  0  0  0  0  0  0  0  0  0  0
    2.7580   21.0270   35.9210 C   0  0  0  0  0  0  0  0  0  0  0  0
    1.5930   24.9820   30.2280 S   0  0  0  0  0  0  0  0  0  0  0  0
    3.6630   22.7890   34.1310 C   0  0  0  0  0  0  0  0  0  0  0  0
    3.0570   19.8680   37.9090 N   0  0  0  0  0  0  0  0  0  0  0  0
    2.0870   15.8380   40.1050 N   0  0  0  0  0  0  0  0  0  0  0  0
    3.3680   23.8480   31.9090 C   0  0  0  0  0  0  0  0  0  0  0  0
    2.6840   20.0980   40.1590 O   0  0  0  0  0  0  0  0  0  0  0  0
    1.8690   21.8140   36.2770 O   0  0  0  0  0  0  0  0  0  0  0  0
    2.6300   24.1590   29.1900 C   0  0  0  0  0  0  0  0  0  0  0  0
    2.0200   17.1350   40.3430 C   0  0  0  0  0  0  0  0  0  0  0  0
    3.1360   19.9370   36.7150 N   0  0  0  0  0  0  0  0  0  0  0  0
    1.5070   25.0550   32.7420 O   0  0  0  0  0  0  0  0  0  0  0  0
    3.5450   21.3710   34.6970 C   0  0  0  0  0  0  0  0  0  0  0  0
    4.2650   23.9390   30.8020 C   0  0  0  0  0  0  0  0  0  0  0  0
    2.2220   24.6130   31.7570 C   0  0  0  0  0  0  0  0  0  0  0  0
    2.4920   23.5460   34.3470 O   0  0  0  0  0  0  0  0  0  0  0  0
    2.6330   15.5710   38.9150 C   0  0  0  0  0  0  0  0  0  0  0  0
    2.7170   19.3910   39.2600 C   0  0  0  0  0  0  0  0  0  0  0  0
    3.6950   23.4360   29.7160 C   0  0  0  0  0  0  0  0  0  0  0  0
    2.6240   17.9550   39.4210 C   0  0  0  0  0  0  0  0  0  0  0  0
    3.1980   16.9420   38.1120 S   0  0  0  0  0  0  0  0  0  0  0  0
    1.7564   17.3141   42.4924 H   0  0  0  0  0  0  0  0  0  0  0  0
    1.2325   18.7557   41.5574 H   0  0  0  0  0  0  0  0  0  0  0  0
    0.2232   17.2697   41.5574 H   0  0  0  0  0  0  0  0  0  0  0  0
    4.5468   23.1733   34.6613 H   0  0  0  0  0  0  0  0  0  0  0  0
    3.5830   20.7173   38.1599 H   0  0  0  0  0  0  0  0  0  0  0  0
    2.8862   24.1901   32.8368 H   0  0  0  0  0  0  0  0  0  0  0  0
    3.0580   24.9069   28.5063 H   0  0  0  0  0  0  0  0  0  0  0  0
    1.9879   23.3849   28.7444 H   0  0  0  0  0  0  0  0  0  0  0  0
    3.5188   19.1154   36.2257 H   0  0  0  0  0  0  0  0  0  0  0  0
    3.1206   20.7598   33.8868 H   0  0  0  0  0  0  0  0  0  0  0  0
    4.5722   21.1984   35.0507 H   0  0  0  0  0  0  0  0  0  0  0  0
    4.5194   24.9944   30.6247 H   0  0  0  0  0  0  0  0  0  0  0  0
    5.1781   23.3690   31.0284 H   0  0  0  0  0  0  0  0  0  0  0  0
    2.3381   23.6455   35.3199 H   0  0  0  0  0  0  0  0  0  0  0  0
    2.7068   14.5552   38.4994 H   0  0  0  0  0  0  0  0  0  0  0  0
    3.3267   22.4300   29.9657 H   0  0  0  0  0  0  0  0  0  0  0  0
    4.4743   23.4536   28.9398 H   0  0  0  0  0  0  0  0  0  0  0  0
  1  5  1  0
  3 10  2  0
  3 13  1  0
  4 17  1  0
  5 18  1  0
  5 15  1  0
  6 20  1  0
  7 12  1  0
  8  1  1  0
 11 21  1  0
 11  4  1  0
 12  2  1  0
 13  6  1  0
 15  3  1  0
 16  8  1  0
 17  8  1  0
 17 14  2  0
 19  7  2  0
 20 22  1  0
 20  9  2  0
 21 16  1  0
 22 12  2  0
 23 19  1  0
 23 22  1  0
  2 24  1  0
  2 25  1  0
  2 26  1  0
  5 27  1  0
  6 28  1  0
  8 29  1  0
 11 30  1  0
 11 31  1  0
 13 32  1  0
 15 33  1  0
 15 34  1  0
 16 35  1  0
 16 36  1  0
 18 37  1  0
 19 38  1  0
 21 39  1  0
 21 40  1  0
M  END
>  <mol_id>  (83) 
2026-09-18-3war-s0-n100-0085

>  <rmsd_to_ref>  (83) 


$$$$

     RDKit          3D

 65 65  0  0  0  0  0  0  0  0999 V2000
    3.2230   20.4590   36.2070 C   0  0  0  0  0  0  0  0  0  0  0  0
    1.6990   17.5670   40.7620 C   0  0  0  0  0  0  0  0  0  0  0  0
    2.6670   24.5520   34.1770 C   0  0  0  0  0  0  0  0  0  0  0  0
    2.0340   24.9340   31.6680 C   0  0  0  0  0  0  0  0  0  0  0  0
    1.0590   26.9550   30.7920 C   0  0  0  0  0  0  0  0  0  0  0  0
    2.6950   18.6590   37.3200 C   0  0  0  0  0  0  0  0  0  0  0  0
    1.1650   26.8290   31.9300 C   0  0  0  0  0  0  0  0  0  0  0  0
    2.1090   17.6120   42.3000 C   0  0  0  0  0  0  0  0  0  0  0  0
    2.5040   20.1680   37.5150 C   0  0  0  0  0  0  0  0  0  0  0  0
    2.1210   25.0920   30.2500 C   0  0  0  0  0  0  0  0  0  0  0  0
    4.9130   21.9210   34.3450 O   0  0  0  0  0  0  0  0  0  0  0  0
    2.2870   17.8650   38.4310 O   0  0  0  0  0  0  0  0  0  0  0  0
    3.2810   23.5050   33.8180 C   0  0  0  0  0  0  0  0  0  0  0  0
    3.2640   15.4490   37.9190 C   0  0  0  0  0  0  0  0  0  0  0  0
    3.5730   22.2480   34.4390 C   0  0  0  0  0  0  0  0  0  0  0  0
    2.4530   25.4850   32.8000 C   0  0  0  0  0  0  0  0  0  0  0  0
    2.7080   21.5770   35.2000 C   0  0  0  0  0  0  0  0  0  0  0  0
    3.2270   15.8160   39.4280 C   0  0  0  0  0  0  0  0  0  0  0  0
    2.7440   17.4580   39.7230 C   0  0  0  0  0  0  0  0  0  0  0  0
    1.3890   26.3680   33.2760 C   0  0  0  0  0  0  0  0  0  0  0  0
    4.1510   13.1670   39.7100 O   0  0  0  0  0  0  0  0  0  0  0  0
    3.8890   18.4870   39.8230 C   0  0  0  0  0  0  0  0  0  0  0  0
    2.1840   12.5940   40.5530 O   0  0  0  0  0  1  0  0  0  0  0  0
    3.0880   13.5620   40.1670 C   0  0  0  0  0  0  0  0  0  0  0  0
    1.9690   26.2040   29.4330 C   0  0  0  0  0  0  0  0  0  0  0  0
    2.5660   14.9300   40.4270 C   0  0  0  0  0  0  0  0  0  0  0  0
    4.2533   20.7356   36.4754 H   0  0  0  0  0  0  0  0  0  0  0  0
    3.0534   19.5341   35.6362 H   0  0  0  0  0  0  0  0  0  0  0  0
    1.0336   16.7002   40.6357 H   0  0  0  0  0  0  0  0  0  0  0  0
    1.2687   18.5638   40.5851 H   0  0  0  0  0  0  0  0  0  0  0  0
    1.6913   24.2886   34.6113 H   0  0  0  0  0  0  0  0  0  0  0  0
    3.2369   25.1012   34.9410 H   0  0  0  0  0  0  0  0  0  0  0  0
    2.4007   23.9038   31.7875 H   0  0  0  0  0  0  0  0  0  0  0  0
    1.0825   25.4844   31.7086 H   0  0  0  0  0  0  0  0  0  0  0  0
    0.0127   26.6803   30.5925 H   0  0  0  0  0  0  0  0  0  0  0  0
    1.5137   27.9543   30.7235 H   0  0  0  0  0  0  0  0  0  0  0  0
    2.1094   18.3488   36.4420 H   0  0  0  0  0  0  0  0  0  0  0  0
    3.7753   18.4930   37.1957 H   0  0  0  0  0  0  0  0  0  0  0  0
    1.8426   27.6892   32.0348 H   0  0  0  0  0  0  0  0  0  0  0  0
    0.3241   26.1216   31.8803 H   0  0  0  0  0  0  0  0  0  0  0  0
    1.2077   17.5131   42.9228 H   0  0  0  0  0  0  0  0  0  0  0  0
    2.7993   16.7842   42.5198 H   0  0  0  0  0  0  0  0  0  0  0  0
    2.6033   18.5698   42.5198 H   0  0  0  0  0  0  0  0  0  0  0  0
    3.0152   20.5698   38.4022 H   0  0  0  0  0  0  0  0  0  0  0  0
    1.4960   20.5736   37.6865 H   0  0  0  0  0  0  0  0  0  0  0  0
    3.1314   24.7295   30.0099 H   0  0  0  0  0  0  0  0  0  0  0  0
    1.1540   24.6255   30.0107 H   0  0  0  0  0  0  0  0  0  0  0  0
    5.2445   21.0741   34.7362 H   0  0  0  0  0  0  0  0  0  0  0  0
    2.7460   23.2084   32.9038 H   0  0  0  0  0  0  0  0  0  0  0  0
    4.2868   23.9246   33.9672 H   0  0  0  0  0  0  0  0  0  0  0  0
    3.3738   14.3600   37.8091 H   0  0  0  0  0  0  0  0  0  0  0  0
    2.3286   15.7735   37.4397 H   0  0  0  0  0  0  0  0  0  0  0  0
    4.1158   15.9536   37.4397 H   0  0  0  0  0  0  0  0  0  0  0  0
    3.4314   25.8779   32.4865 H   0  0  0  0  0  0  0  0  0  0  0  0
    1.6326   21.7978   35.1310 H   0  0  0  0  0  0  0  0  0  0  0  0
    4.2943   15.6409   39.6284 H   0  0  0  0  0  0  0  0  0  0  0  0
    1.7322   27.1518   33.9673 H   0  0  0  0  0  0  0  0  0  0  0  0
    0.5564   25.9642   33.8708 H   0  0  0  0  0  0  0  0  0  0  0  0
    4.1111   18.6866   40.8817 H   0  0  0  0  0  0  0  0  0  0  0  0
    4.7865   18.0860   39.3293 H   0  0  0  0  0  0  0  0  0  0  0  0
    3.5858   19.4221   39.3293 H   0  0  0  0  0  0  0  0  0  0  0  0
    2.9072   26.7138   29.1687 H   0  0  0  0  0  0  0  0  0  0  0  0
    1.5492   26.1307   28.4189 H   0  0  0  0  0  0  0  0  0  0  0  0
    2.8203   15.2488   41.4486 H   0  0  0  0  0  0  0  0  0  0  0  0
    1.4703   14.9679   40.3379 H   0  0  0  0  0  0  0  0  0  0  0  0
  1  9  1  0
  2  8  1  0
  4 16  1  0
  5  7  1  0
  6  9  1  0
  6 12  1  0
  7 20  1  0
 10  4  1  0
 11 15  1  0
 12 19  1  0
 13  3  1  0
 13 15  1  0
 15 17  2  3
 16 20  1  0
 16  3  1  0
 17  1  1  0
 18 14  1  0
 18 19  1  0
 18 26  1  0
 19 22  1  0
 19  2  1  0
 21 24  2  0
 24 26  1  0
 24 23  1  0
 25 10  1  0
 25  5  1  0
  1 27  1  0
  1 28  1  0
  2 29  1  0
  2 30  1  0
  3 31  1  0
  3 32  1  0
  4 33  1  0
  4 34  1  0
  5 35  1  0
  5 36  1  0
  6 37  1  0
  6 38  1  0
  7 39  1  0
  7 40  1  0
  8 41  1  0
  8 42  1  0
  8 43  1  0
  9 44  1  0
  9 45  1  0
 10 46  1  0
 10 47  1  0
 11 48  1  0
 13 49  1  0
 13 50  1  0
 14 51  1  0
 14 52  1  0
 14 53  1  0
 16 54  1  0
 17 55  1  0
 18 56  1  0
 20 57  1  0
 20 58  1  0
 22 59  1  0
 22 60  1  0
 22 61  1  0
 25 62  1  0
 25 63  1  0
 26 64  1  0
 26 65  1  0
M  CHG  1  23  -1
M  END
>  <mol_id>  (84) 
2026-09-18-3war-s0-n100-0086

>  <rmsd_to_ref>  (84) 


$$$$

     RDKit          3D

 63 64  0  0  0  0  0  0  0  0999 V2000
    2.1720   21.8460   35.5640 C   0  0  0  0  0  0  0  0  0  0  0  0
    1.4290   16.3900   41.0640 C   0  0  0  0  0  0  0  0  0  0  0  0
    2.9390   27.8640   33.9370 O   0  0  0  0  0  0  0  0  0  0  0  0
    3.6170   21.6580   34.8900 C   0  0  0  0  0  0  0  0  0  0  0  0
    1.5500   28.0730   33.1770 C   0  0  0  0  0  0  0  0  0  0  0  0
    1.0650   26.0960   30.0590 C   0  0  0  0  0  0  0  0  0  0  0  0
    3.8840   18.3270   38.4790 S   0  0  0  0  0  0  0  0  0  0  0  0
    1.2840   14.1130   41.4820 O   0  0  0  0  0  1  0  0  0  0  0  0
    2.0070   20.6360   36.5390 C   0  0  0  0  0  0  0  0  0  0  0  0
    2.5220   14.6630   39.8140 O   0  0  0  0  0  0  0  0  0  0  0  0
    3.2490   16.9540   39.3730 C   0  0  0  0  0  0  0  0  0  0  0  0
    0.3850   16.7040   41.8360 C   0  0  0  0  0  0  0  0  0  0  0  0
    2.6950   24.7830   31.7170 C   0  0  0  0  0  0  0  0  0  0  0  0
    1.0310   19.0280   41.6070 C   0  0  0  0  0  0  0  0  0  0  0  0
    2.0640   18.7060   40.7530 N   0  0  0  0  0  0  0  0  0  0  0  0
    3.9190   22.8760   33.9710 C   0  0  0  0  0  0  0  0  0  0  0  0
    0.8160   20.2230   41.9480 O   0  0  0  0  0  0  0  0  0  0  0  0
    3.1030   20.5340   37.6090 C   0  0  0  0  0  0  0  0  0  0  0  0
    2.7600   26.3780   31.7110 C   0  0  0  0  0  0  0  0  0  0  0  0
    2.2260   17.3480   40.4000 C   0  0  0  0  0  0  0  0  0  0  0  0
    0.1130   18.0910   42.1600 C   0  0  0  0  0  0  0  0  0  0  0  0
    0.8120   28.6110   34.0870 O   0  0  0  0  0  0  0  0  0  0  0  0
    1.3570   25.6760   29.0150 O   0  0  0  0  0  0  0  0  0  0  0  0
    0.3020   26.7710   31.1470 C   0  0  0  0  0  0  0  0  0  0  0  0
    1.9660   28.6940   32.0390 C   0  0  0  0  0  0  0  0  0  0  0  0
    1.5260   27.1690   32.0560 C   0  0  0  0  0  0  0  0  0  0  0  0
    1.7650   14.9770   40.7860 C   0  0  0  0  0  0  0  0  0  0  0  0
    2.7410   19.5790   38.6580 C   0  0  0  0  0  0  0  0  0  0  0  0
    2.8590   19.8090   40.2160 C   0  0  0  0  0  0  0  0  0  0  0  0
    1.3845   21.8314   34.7961 H   0  0  0  0  0  0  0  0  0  0  0  0
    2.0884   22.8087   36.0896 H   0  0  0  0  0  0  0  0  0  0  0  0
    2.7868   27.8869   34.9150 H   0  0  0  0  0  0  0  0  0  0  0  0
    4.3833   21.5923   35.6764 H   0  0  0  0  0  0  0  0  0  0  0  0
    3.6271   20.7345   34.2924 H   0  0  0  0  0  0  0  0  0  0  0  0
    1.9793   26.6937   30.1886 H   0  0  0  0  0  0  0  0  0  0  0  0
    0.3312   25.2791   30.1236 H   0  0  0  0  0  0  0  0  0  0  0  0
    1.0366   20.7332   37.0478 H   0  0  0  0  0  0  0  0  0  0  0  0
    2.0787   19.7252   35.9263 H   0  0  0  0  0  0  0  0  0  0  0  0
    2.7817   16.2575   38.6613 H   0  0  0  0  0  0  0  0  0  0  0  0
    4.0911   16.4897   39.9070 H   0  0  0  0  0  0  0  0  0  0  0  0
   -0.2687   15.9100   42.2261 H   0  0  0  0  0  0  0  0  0  0  0  0
    2.6802   24.4205   32.7555 H   0  0  0  0  0  0  0  0  0  0  0  0
    1.7826   24.4513   31.1998 H   0  0  0  0  0  0  0  0  0  0  0  0
    3.5774   24.3781   31.1998 H   0  0  0  0  0  0  0  0  0  0  0  0
    4.1377   23.7579   34.5911 H   0  0  0  0  0  0  0  0  0  0  0  0
    4.7882   22.6496   33.3360 H   0  0  0  0  0  0  0  0  0  0  0  0
    3.0447   23.0819   33.3360 H   0  0  0  0  0  0  0  0  0  0  0  0
    4.0381   20.2044   37.1326 H   0  0  0  0  0  0  0  0  0  0  0  0
    3.2273   21.5243   38.0715 H   0  0  0  0  0  0  0  0  0  0  0  0
    3.5393   26.6697   32.4305 H   0  0  0  0  0  0  0  0  0  0  0  0
    2.9408   26.6265   30.6548 H   0  0  0  0  0  0  0  0  0  0  0  0
    2.9782   17.2313   41.1941 H   0  0  0  0  0  0  0  0  0  0  0  0
   -0.8924   18.3377   41.7881 H   0  0  0  0  0  0  0  0  0  0  0  0
    0.2068   18.1761   43.2527 H   0  0  0  0  0  0  0  0  0  0  0  0
    1.1555   28.3606   34.9811 H   0  0  0  0  0  0  0  0  0  0  0  0
    1.9183   24.8686   29.1293 H   0  0  0  0  0  0  0  0  0  0  0  0
   -0.2516   27.6498   30.7848 H   0  0  0  0  0  0  0  0  0  0  0  0
   -0.4841   26.1719   31.6298 H   0  0  0  0  0  0  0  0  0  0  0  0
    3.0239   28.9658   31.9091 H   0  0  0  0  0  0  0  0  0  0  0  0
    1.6743   29.5943   31.4783 H   0  0  0  0  0  0  0  0  0  0  0  0
    1.6580   19.5097   38.4779 H   0  0  0  0  0  0  0  0  0  0  0  0
    3.9051   19.7461   40.5502 H   0  0  0  0  0  0  0  0  0  0  0  0
    2.5144   20.8012   40.5428 H   0  0  0  0  0  0  0  0  0  0  0  0
  1  9  1  0
  2 12  2  0
  4  1  1  0
  5  3  1  0
  5 22  1  0
  6 24  1  0
  7 28  1  0
  7 11  1  0
  9 18  1  0
 10 27  2  0
 12 21  1  0
 14 17  2  0
 14 21  1  0
 15 14  1  0
 16  4  1  0
 19 13  1  0
 19 26  1  0
 20 11  1  0
 20 15  1  0
 20  2  1  0
 23  6  1  0
 25 26  1  0
 25  5  1  0
 26 24  1  0
 26  5  1  0
 27  2  1  0
 27  8  1  0
 28 18  1  0
 28 29  1  0
 29 15  1  0
  1 30  1  0
  1 31  1  0
  3 32  1  0
  4 33  1  0
  4 34  1  0
  6 35  1  0
  6 36  1  0
  9 37  1  0
  9 38  1  0
 11 39  1  0
 11 40  1  0
 12 41  1  0
 13 42  1  0
 13 43  1  0
 13 44  1  0
 16 45  1  0
 16 46  1  0
 16 47  1  0
 18 48  1  0
 18 49  1  0
 19 50  1  0
 19 51  1  0
 20 52  1  0
 21 53  1  0
 21 54  1  0
 22 55  1  0
 23 56  1  0
 24 57  1  0
 24 58  1  0
 25 59  1  0
 25 60  1  0
 28 61  1  0
 29 62  1  0
 29 63  1  0
M  CHG  1   8  -1
M  END
>  <mol_id>  (85) 
2026-09-18-3war-s0-n100-0087

>  <rmsd_to_ref>  (85) 


$$$$

     RDKit          3D

 46 46  0  0  0  0  0  0  0  0999 V2000
    3.8950   20.7860   36.2930 C   0  0  0  0  0  0  0  0  0  0  0  0
    2.8570   17.0670   38.7330 C   0  0  0  0  0  0  0  0  0  0  0  0
    2.5220   18.6520   40.4780 C   0  0  0  0  0  0  0  0  0  0  0  0
    2.4750   23.2810   34.0800 C   0  0  0  0  0  0  0  0  0  0  0  0
    2.3870   19.6870   39.6530 C   0  0  0  0  0  0  0  0  0  0  0  0
    2.7010   17.3870   40.0640 C   0  0  0  0  0  0  0  0  0  0  0  0
    1.1220   26.6490   30.9470 C   0  0  0  0  0  0  0  0  0  0  0  0
    3.4820   21.5350   35.2050 C   0  0  0  0  0  0  0  0  0  0  0  0
    1.9780   26.0260   32.0170 C   0  0  0  0  0  0  0  0  0  0  0  0
    2.7110   19.4870   38.2900 C   0  0  0  0  0  0  0  0  0  0  0  0
    2.7710   20.6520   37.4280 C   0  0  0  0  0  0  0  0  0  0  0  0
    3.0940   22.0510   34.1180 C   0  0  0  0  0  0  0  0  0  0  0  0
    4.2660   24.8260   35.0130 C   0  0  0  0  0  0  0  0  0  0  0  0
    2.9770   24.5490   34.6070 C   0  0  0  0  0  0  0  0  0  0  0  0
    1.2010   25.9000   33.3670 C   0  0  0  0  0  0  0  0  0  0  0  0
    2.8830   18.1310   37.8290 C   0  0  0  0  0  0  0  0  0  0  0  0
    2.0600   25.7430   34.7070 C   0  0  0  0  0  0  0  0  0  0  0  0
    3.2930   25.4040   31.4090 C   0  0  0  0  0  0  0  0  0  0  0  0
    4.7810   21.2670   36.7330 H   0  0  0  0  0  0  0  0  0  0  0  0
    4.1150   19.7718   35.9282 H   0  0  0  0  0  0  0  0  0  0  0  0
    2.9563   16.0238   38.3986 H   0  0  0  0  0  0  0  0  0  0  0  0
    2.4849   18.8432   41.5606 H   0  0  0  0  0  0  0  0  0  0  0  0
    1.4874   23.3129   33.5966 H   0  0  0  0  0  0  0  0  0  0  0  0
    2.0359   20.6637   40.0175 H   0  0  0  0  0  0  0  0  0  0  0  0
    2.7238   16.5804   40.8116 H   0  0  0  0  0  0  0  0  0  0  0  0
    0.3174   27.2346   31.4158 H   0  0  0  0  0  0  0  0  0  0  0  0
    1.7400   27.3100   30.3216 H   0  0  0  0  0  0  0  0  0  0  0  0
    0.6830   25.8577   30.3216 H   0  0  0  0  0  0  0  0  0  0  0  0
    2.6630   21.9993   35.7740 H   0  0  0  0  0  0  0  0  0  0  0  0
    4.3818   21.1896   34.6749 H   0  0  0  0  0  0  0  0  0  0  0  0
    2.7414   26.2277   32.7829 H   0  0  0  0  0  0  0  0  0  0  0  0
    2.8892   21.5234   38.0888 H   0  0  0  0  0  0  0  0  0  0  0  0
    1.8452   20.5644   36.8405 H   0  0  0  0  0  0  0  0  0  0  0  0
    2.3880   21.3357   33.6709 H   0  0  0  0  0  0  0  0  0  0  0  0
    4.0445   22.2516   33.6020 H   0  0  0  0  0  0  0  0  0  0  0  0
    4.3102   24.8355   36.1121 H   0  0  0  0  0  0  0  0  0  0  0  0
    4.9465   24.0536   34.6253 H   0  0  0  0  0  0  0  0  0  0  0  0
    4.5691   25.8098   34.6253 H   0  0  0  0  0  0  0  0  0  0  0  0
    0.5837   26.8039   33.4764 H   0  0  0  0  0  0  0  0  0  0  0  0
    0.6449   24.9548   33.2807 H   0  0  0  0  0  0  0  0  0  0  0  0
    3.0357   17.9337   36.7577 H   0  0  0  0  0  0  0  0  0  0  0  0
    1.3791   25.6067   35.5601 H   0  0  0  0  0  0  0  0  0  0  0  0
    2.6677   26.6487   34.8495 H   0  0  0  0  0  0  0  0  0  0  0  0
    3.9603   25.0883   32.2245 H   0  0  0  0  0  0  0  0  0  0  0  0
    3.0340   24.5329   30.7892 H   0  0  0  0  0  0  0  0  0  0  0  0
    3.8021   26.1567   30.7892 H   0  0  0  0  0  0  0  0  0  0  0  0
  1 11  1  0
  2  6  2  0
  4 12  1  0
  4 14  2  3
  5  3  2  0
  6  3  1  0
  7  9  1  0
  8  1  1  0
  9 15  1  0
 10  5  1  0
 11 10  1  0
 12  8  1  0
 14 17  1  0
 14 13  1  0
 15 17  1  0
 16 10  2  0
 16  2  1  0
 18  9  1  0
  1 19  1  0
  1 20  1  0
  2 21  1  0
  3 22  1  0
  4 23  1  0
  5 24  1  0
  6 25  1  0
  7 26  1  0
  7 27  1  0
  7 28  1  0
  8 29  1  0
  8 30  1  0
  9 31  1  0
 11 32  1  0
 11 33  1  0
 12 34  1  0
 12 35  1  0
 13 36  1  0
 13 37  1  0
 13 38  1  0
 15 39  1  0
 15 40  1  0
 16 41  1  0
 17 42  1  0
 17 43  1  0
 18 44  1  0
 18 45  1  0
 18 46  1  0
M  END
>  <mol_id>  (86) 
2026-09-18-3war-s0-n100-0088

>  <rmsd_to_ref>  (86) 


$$$$

     RDKit          3D

 78 80  0  0  0  0  0  0  0  0999 V2000
    0.1820   15.1650   42.3320 C   0  0  0  0  0  0  0  0  0  0  0  0
    2.8410   25.6880   29.5670 C   0  0  0  0  0  0  0  0  0  0  0  0
   -0.1290   20.0500   42.7100 C   0  0  0  0  0  0  0  0  0  0  0  0
    2.7700   22.8670   34.5210 C   0  0  0  0  0  0  0  0  0  0  0  0
    0.7540   17.8040   42.4820 C   0  0  0  0  0  0  0  0  0  0  0  0
    2.3740   20.0840   39.8920 C   0  0  0  0  0  0  0  0  0  0  0  0
    2.5610   26.0110   32.6640 C   0  0  0  0  0  0  0  0  0  0  0  0
    3.5470   18.0080   39.6990 O   0  0  0  0  0  0  0  0  0  0  0  0
    1.5160   19.5710   40.9610 C   0  0  0  0  0  0  0  0  0  0  0  0
    3.4310   23.9410   33.9490 C   0  0  0  0  0  0  0  0  0  0  0  0
    1.5190   18.2620   41.3770 C   0  0  0  0  0  0  0  0  0  0  0  0
    3.5460   16.8290   37.5050 C   0  0  0  0  0  0  0  0  0  0  0  0
    3.0790   19.1850   37.7270 C   0  0  0  0  0  0  0  0  0  0  0  0
    0.6450   20.4910   41.6830 C   0  0  0  0  0  0  0  0  0  0  0  0
    3.0180   19.0880   39.0400 C   0  0  0  0  0  0  0  0  0  0  0  0
    3.2540   16.8020   39.0360 C   0  0  0  0  0  0  0  0  0  0  0  0
    3.0700   26.6600   30.4510 C   0  0  0  0  0  0  0  0  0  0  0  0
    3.8900   23.6880   28.0050 C   0  0  0  0  0  0  0  0  0  0  0  0
   -0.8620   20.8340   43.3540 O   0  0  0  0  0  0  0  0  0  0  0  0
   -1.1720   13.7130   41.9650 N   0  0  0  0  0  0  0  0  0  0  0  0
    0.8700   16.4170   42.8970 C   0  0  0  0  0  0  0  0  0  0  0  0
    2.9980   23.9860   31.4100 C   0  0  0  0  0  0  0  0  0  0  0  0
    2.5800   24.5990   27.7340 C   0  0  0  0  0  0  0  0  0  0  0  0
    3.2050   24.2950   30.1900 C   0  0  0  0  0  0  0  0  0  0  0  0
    0.0320   14.3630   41.3010 N   0  0  0  0  0  0  0  0  0  0  0  0
    4.6550   23.7760   29.3090 S   0  0  0  0  0  0  0  0  0  0  0  0
    2.5400   25.3230   26.2070 C   0  0  0  0  0  0  0  0  0  0  0  0
    3.1420   23.1730   31.4190 C   0  0  0  0  0  0  0  0  0  0  0  0
    2.1810   25.7360   28.5210 C   0  0  0  0  0  0  0  0  0  0  0  0
   -0.0920   18.7100   43.1180 C   0  0  0  0  0  0  0  0  0  0  0  0
    2.4010   26.8570   31.5150 C   0  0  0  0  0  0  0  0  0  0  0  0
    2.9880   20.4520   37.1520 O   0  0  0  0  0  0  0  0  0  0  0  0
    4.9490   23.7250   34.1170 C   0  0  0  0  0  0  0  0  0  0  0  0
    2.8570   24.6900   32.8030 C   0  0  0  0  0  0  0  0  0  0  0  0
   -1.0020   14.5470   43.0820 C   0  0  0  0  0  0  0  0  0  0  0  0
    3.3560   18.0450   36.9150 C   0  0  0  0  0  0  0  0  0  0  0  0
    1.1730   15.6128   42.1667 H   0  0  0  0  0  0  0  0  0  0  0  0
    2.8195   22.9475   35.6169 H   0  0  0  0  0  0  0  0  0  0  0  0
    1.7178   22.8710   34.2002 H   0  0  0  0  0  0  0  0  0  0  0  0
    3.2476   21.9294   34.2002 H   0  0  0  0  0  0  0  0  0  0  0  0
    1.7567   20.7267   39.2472 H   0  0  0  0  0  0  0  0  0  0  0  0
    3.1964   20.6058   40.4033 H   0  0  0  0  0  0  0  0  0  0  0  0
    2.4156   26.5338   33.6208 H   0  0  0  0  0  0  0  0  0  0  0  0
    3.1645   24.8529   34.5035 H   0  0  0  0  0  0  0  0  0  0  0  0
    2.1407   17.5374   40.8307 H   0  0  0  0  0  0  0  0  0  0  0  0
    4.5935   16.5313   37.3495 H   0  0  0  0  0  0  0  0  0  0  0  0
    2.8292   16.1382   37.0370 H   0  0  0  0  0  0  0  0  0  0  0  0
    0.6139   21.5519   41.3939 H   0  0  0  0  0  0  0  0  0  0  0  0
    2.0540   18.5649   38.9566 H   0  0  0  0  0  0  0  0  0  0  0  0
    2.1864   16.5794   39.1800 H   0  0  0  0  0  0  0  0  0  0  0  0
    3.9110   16.0341   39.4703 H   0  0  0  0  0  0  0  0  0  0  0  0
    4.1090   26.5151   30.7819 H   0  0  0  0  0  0  0  0  0  0  0  0
    2.7632   27.5367   29.8617 H   0  0  0  0  0  0  0  0  0  0  0  0
    4.2317   22.9906   27.2260 H   0  0  0  0  0  0  0  0  0  0  0  0
   -1.0514   12.7101   42.1662 H   0  0  0  0  0  0  0  0  0  0  0  0
    0.5827   16.4275   43.9588 H   0  0  0  0  0  0  0  0  0  0  0  0
    1.8775   16.2260   42.4989 H   0  0  0  0  0  0  0  0  0  0  0  0
    1.9226   23.7516   27.9784 H   0  0  0  0  0  0  0  0  0  0  0  0
    3.6660   23.5402   29.5360 H   0  0  0  0  0  0  0  0  0  0  0  0
    0.8240   13.7219   41.1506 H   0  0  0  0  0  0  0  0  0  0  0  0
    2.4796   26.4154   26.3206 H   0  0  0  0  0  0  0  0  0  0  0  0
    3.4539   25.0619   25.6533 H   0  0  0  0  0  0  0  0  0  0  0  0
    1.6604   24.9628   25.6533 H   0  0  0  0  0  0  0  0  0  0  0  0
    3.2040   22.8231   32.4600 H   0  0  0  0  0  0  0  0  0  0  0  0
    2.3226   22.6498   30.9045 H   0  0  0  0  0  0  0  0  0  0  0  0
    4.0913   22.9630   30.9045 H   0  0  0  0  0  0  0  0  0  0  0  0
    2.3962   26.6683   27.9783 H   0  0  0  0  0  0  0  0  0  0  0  0
    1.1013   25.7159   28.7304 H   0  0  0  0  0  0  0  0  0  0  0  0
    0.1886   18.7112   44.1816 H   0  0  0  0  0  0  0  0  0  0  0  0
   -1.0946   18.3417   42.8550 H   0  0  0  0  0  0  0  0  0  0  0  0
    1.6859   27.6919   31.5555 H   0  0  0  0  0  0  0  0  0  0  0  0
    3.0310   20.5533   36.1681 H   0  0  0  0  0  0  0  0  0  0  0  0
    5.1980   23.6896   35.1879 H   0  0  0  0  0  0  0  0  0  0  0  0
    5.2392   22.7765   33.6415 H   0  0  0  0  0  0  0  0  0  0  0  0
    5.4923   24.5549   33.6415 H   0  0  0  0  0  0  0  0  0  0  0  0
   -0.7366   14.0238   44.0125 H   0  0  0  0  0  0  0  0  0  0  0  0
   -1.8224   15.1588   43.4853 H   0  0  0  0  0  0  0  0  0  0  0  0
    3.4160   18.1454   35.8212 H   0  0  0  0  0  0  0  0  0  0  0  0
  1 21  1  0
  1 35  1  0
  2 24  2  0
  2 17  1  0
  3 30  1  0
  3 19  2  0
  5 21  1  0
  5 30  1  0
  6  9  1  0
  7 34  1  0
  9 11  1  0
  9 14  2  0
 10 33  1  0
 10  4  1  0
 11  5  2  0
 12 16  1  0
 13 15  1  0
 14  3  1  0
 15  8  1  0
 15  6  1  0
 16  8  1  0
 17 31  1  0
 18 26  2  0
 20 35  1  0
 22 28  1  0
 22 34  2  0
 23 27  1  0
 23 18  1  0
 23 29  1  0
 24 22  1  0
 25 20  1  0
 25  1  1  0
 29  2  1  0
 31  7  2  0
 32 13  1  0
 34 10  1  0
 36 12  1  0
 36 13  2  0
  1 37  1  0
  4 38  1  0
  4 39  1  0
  4 40  1  0
  6 41  1  0
  6 42  1  0
  7 43  1  0
 10 44  1  0
 11 45  1  0
 12 46  1  0
 12 47  1  0
 14 48  1  0
 15 49  1  0
 16 50  1  0
 16 51  1  0
 17 52  1  0
 17 53  1  0
 18 54  1  0
 20 55  1  0
 21 56  1  0
 21 57  1  0
 23 58  1  0
 24 59  1  0
 25 60  1  0
 27 61  1  0
 27 62  1  0
 27 63  1  0
 28 64  1  0
 28 65  1  0
 28 66  1  0
 29 67  1  0
 29 68  1  0
 30 69  1  0
 30 70  1  0
 31 71  1  0
 32 72  1  0
 33 73  1  0
 33 74  1  0
 33 75  1  0
 35 76  1  0
 35 77  1  0
 36 78  1  0
M  END
>  <mol_id>  (87) 
2026-09-18-3war-s0-n100-0089

>  <rmsd_to_ref>  (87) 


$$$$

     RDKit          3D

 86 88  0  0  0  0  0  0  0  0999 V2000
    3.3160   27.6120   27.9320 C   0  0  0  0  0  0  0  0  0  0  0  0
    3.0530   12.6350   34.9120 C   0  0  0  0  0  0  0  0  0  0  0  0
    4.4590   12.0140   34.2830 C   0  0  0  0  0  0  0  0  0  0  0  0
    1.7650   15.3660   42.0480 C   0  0  0  0  0  0  0  0  0  0  0  0
    1.9300   16.4650   40.9860 C   0  0  0  0  0  0  0  0  0  0  0  0
    1.4150   17.7910   41.3200 C   0  0  0  0  0  0  0  0  0  0  0  0
    3.2130   11.6670   32.1730 C   0  0  0  0  0  0  0  0  0  0  0  0
    2.3980   25.3330   35.8100 S   0  0  0  0  0  0  0  0  0  0  0  0
    0.5930   18.0420   42.5630 C   0  0  0  0  0  0  0  0  0  0  0  0
    3.3900   14.8240   37.9810 C   0  0  0  0  0  0  0  0  0  0  0  0
    1.6390   26.0380   33.4750 N   0  0  0  0  0  0  0  0  0  0  0  0
    3.1650   13.3500   37.3850 C   0  0  0  0  0  0  0  0  0  0  0  0
    1.9310   20.7340   39.2790 C   0  0  0  0  0  0  0  0  0  0  0  0
    4.5980   27.0160   27.9700 C   0  0  0  0  0  0  0  0  0  0  0  0
    3.0550   20.6820   36.3350 O   0  0  0  0  0  0  0  0  0  0  0  0
    2.3150   21.8260   36.3420 C   0  0  0  0  0  0  0  0  0  0  0  0
    2.5000   24.1240   34.6890 C   0  0  0  0  0  0  0  0  0  0  0  0
    2.5020   16.2250   39.7330 C   0  0  0  0  0  0  0  0  0  0  0  0
    3.5750   10.8480   33.3890 C   0  0  0  0  0  0  0  0  0  0  0  0
    1.5640   26.5480   34.7300 C   0  0  0  0  0  0  0  0  0  0  0  0
    4.5880   26.1060   29.1920 C   0  0  0  0  0  0  0  0  0  0  0  0
    2.2850   24.7130   33.2660 C   0  0  0  0  0  0  0  0  0  0  0  0
    1.3520   26.6630   31.0140 C   0  0  0  0  0  0  0  0  0  0  0  0
    2.5030   18.5230   39.1880 C   0  0  0  0  0  0  0  0  0  0  0  0
    2.7050   22.6570   35.0900 C   0  0  0  0  0  0  0  0  0  0  0  0
    0.5530   27.9550   32.8750 F   0  0  0  0  0  0  0  0  0  0  0  0
    1.7890   18.7770   40.4020 C   0  0  0  0  0  0  0  0  0  0  0  0
    3.5530   19.8910   37.4110 C   0  0  0  0  0  0  0  0  0  0  0  0
    2.7590   19.6780   38.4950 C   0  0  0  0  0  0  0  0  0  0  0  0
    1.2210   26.8220   32.4270 C   0  0  0  0  0  0  0  0  0  0  0  0
    2.3860   26.1130   29.9640 C   0  0  0  0  0  0  0  0  0  0  0  0
    3.4820   13.1580   36.0380 N   0  0  0  0  0  4  0  0  0  0  0  0
    2.8070   17.2130   38.8550 N   0  0  0  0  0  0  0  0  0  0  0  0
    2.5010   26.4180   28.1550 C   0  0  0  0  0  0  0  0  0  0  0  0
    2.9360   14.7890   39.3790 C   0  0  0  0  0  0  0  0  0  0  0  0
    1.5270   20.1390   40.4800 N   0  0  0  0  0  0  0  0  0  0  0  0
    3.1836   28.3566   28.7307 H   0  0  0  0  0  0  0  0  0  0  0  0
    3.0848   28.1782   27.0177 H   0  0  0  0  0  0  0  0  0  0  0  0
    2.3096   11.8447   35.0929 H   0  0  0  0  0  0  0  0  0  0  0  0
    2.5412   13.3494   34.2504 H   0  0  0  0  0  0  0  0  0  0  0  0
    5.0192   12.7244   33.6573 H   0  0  0  0  0  0  0  0  0  0  0  0
    5.2667   11.6922   34.9568 H   0  0  0  0  0  0  0  0  0  0  0  0
    1.8320   15.8124   43.0511 H   0  0  0  0  0  0  0  0  0  0  0  0
    0.7843   14.8829   41.9264 H   0  0  0  0  0  0  0  0  0  0  0  0
    2.5606   14.6162   41.9264 H   0  0  0  0  0  0  0  0  0  0  0  0
    2.7875   12.6297   32.4927 H   0  0  0  0  0  0  0  0  0  0  0  0
    4.1154   11.8470   31.5703 H   0  0  0  0  0  0  0  0  0  0  0  0
    2.4724   11.1209   31.5703 H   0  0  0  0  0  0  0  0  0  0  0  0
    1.2094   17.8538   43.4544 H   0  0  0  0  0  0  0  0  0  0  0  0
    0.2479   19.0865   42.5697 H   0  0  0  0  0  0  0  0  0  0  0  0
   -0.2767   17.3685   42.5697 H   0  0  0  0  0  0  0  0  0  0  0  0
    2.8021   15.5576   37.4098 H   0  0  0  0  0  0  0  0  0  0  0  0
    4.4475   15.1196   37.9160 H   0  0  0  0  0  0  0  0  0  0  0  0
    3.7822   12.6556   37.9739 H   0  0  0  0  0  0  0  0  0  0  0  0
    2.0810   13.1757   37.4523 H   0  0  0  0  0  0  0  0  0  0  0  0
    1.0500   21.0328   38.6920 H   0  0  0  0  0  0  0  0  0  0  0  0
    2.5327   21.6341   39.4737 H   0  0  0  0  0  0  0  0  0  0  0  0
    4.7769   26.4305   27.0561 H   0  0  0  0  0  0  0  0  0  0  0  0
    5.3968   27.7699   28.0292 H   0  0  0  0  0  0  0  0  0  0  0  0
    1.2439   21.5780   36.3067 H   0  0  0  0  0  0  0  0  0  0  0  0
    2.5099   22.4017   37.2588 H   0  0  0  0  0  0  0  0  0  0  0  0
    1.4099   23.9854   34.7393 H   0  0  0  0  0  0  0  0  0  0  0  0
    2.6813   10.5085   33.9330 H   0  0  0  0  0  0  0  0  0  0  0  0
    4.1214    9.9177   33.1745 H   0  0  0  0  0  0  0  0  0  0  0  0
    2.0761   27.5202   34.7799 H   0  0  0  0  0  0  0  0  0  0  0  0
    0.5213   26.7156   35.0379 H   0  0  0  0  0  0  0  0  0  0  0  0
    4.5947   26.7187   30.1055 H   0  0  0  0  0  0  0  0  0  0  0  0
    3.6829   25.4810   29.1764 H   0  0  0  0  0  0  0  0  0  0  0  0
    5.4791   25.4613   29.1764 H   0  0  0  0  0  0  0  0  0  0  0  0
    1.6313   24.0563   32.6732 H   0  0  0  0  0  0  0  0  0  0  0  0
    3.2330   24.8045   32.7156 H   0  0  0  0  0  0  0  0  0  0  0  0
    0.4543   27.0412   30.5030 H   0  0  0  0  0  0  0  0  0  0  0  0
    2.2329   22.1035   34.2649 H   0  0  0  0  0  0  0  0  0  0  0  0
    3.7666   22.7646   35.3572 H   0  0  0  0  0  0  0  0  0  0  0  0
    3.8039   18.9036   36.9961 H   0  0  0  0  0  0  0  0  0  0  0  0
    4.3899   20.4836   37.8091 H   0  0  0  0  0  0  0  0  0  0  0  0
    1.9080   19.4679   37.8304 H   0  0  0  0  0  0  0  0  0  0  0  0
    2.1728   27.3728   32.4533 H   0  0  0  0  0  0  0  0  0  0  0  0
    3.1571   25.4445   30.3745 H   0  0  0  0  0  0  0  0  0  0  0  0
    4.3910   12.6820   36.1282 H   0  0  0  0  0  0  0  0  0  0  0  0
    3.0676   14.0686   35.7929 H   0  0  0  0  0  0  0  0  0  0  0  0
    1.4939   26.5746   27.7412 H   0  0  0  0  0  0  0  0  0  0  0  0
    2.9610   25.5517   27.6572 H   0  0  0  0  0  0  0  0  0  0  0  0
    2.0869   14.0979   39.4858 H   0  0  0  0  0  0  0  0  0  0  0  0
    3.7350   14.4379   40.0486 H   0  0  0  0  0  0  0  0  0  0  0  0
    1.1073   20.6274   41.2839 H   0  0  0  0  0  0  0  0  0  0  0  0
  1 14  1  0
  1 34  1  0
  2 32  1  0
  3  2  1  0
  5  6  2  0
  5  4  1  0
  6  9  1  0
  7 19  1  0
 10 35  1  0
 11 20  1  0
 12 10  1  0
 13 36  1  0
 14 21  1  0
 15 16  1  0
 15 28  1  0
 17 25  1  0
 17  8  1  0
 18  5  1  0
 19  3  1  0
 20  8  1  0
 22 11  1  0
 22 17  1  0
 23 30  1  0
 24 27  2  0
 25 16  1  0
 27 36  1  0
 27  6  1  0
 29 28  1  0
 29 24  1  0
 29 13  1  0
 30 26  1  0
 30 11  1  0
 31 23  2  3
 32 12  1  0
 33 24  1  0
 33 18  2  0
 34 31  1  0
 35 18  1  0
  1 37  1  0
  1 38  1  0
  2 39  1  0
  2 40  1  0
  3 41  1  0
  3 42  1  0
  4 43  1  0
  4 44  1  0
  4 45  1  0
  7 46  1  0
  7 47  1  0
  7 48  1  0
  9 49  1  0
  9 50  1  0
  9 51  1  0
 10 52  1  0
 10 53  1  0
 12 54  1  0
 12 55  1  0
 13 56  1  0
 13 57  1  0
 14 58  1  0
 14 59  1  0
 16 60  1  0
 16 61  1  0
 17 62  1  0
 19 63  1  0
 19 64  1  0
 20 65  1  0
 20 66  1  0
 21 67  1  0
 21 68  1  0
 21 69  1  0
 22 70  1  0
 22 71  1  0
 23 72  1  0
 25 73  1  0
 25 74  1  0
 28 75  1  0
 28 76  1  0
 29 77  1  0
 30 78  1  0
 31 79  1  0
 32 80  1  0
 32 81  1  0
 34 82  1  0
 34 83  1  0
 35 84  1  0
 35 85  1  0
 36 86  1  0
M  CHG  1  32   1
M  END
>  <mol_id>  (88) 
2026-09-18-3war-s0-n100-0090

>  <rmsd_to_ref>  (88) 


$$$$

     RDKit          3D

 92 92  0  0  0  0  0  0  0  0999 V2000
    2.6410   20.9100   37.4100 C   0  0  0  0  0  0  0  0  0  0  0  0
    1.6750   20.8300   39.7000 C   0  0  0  0  0  0  0  0  0  0  0  0
    3.4080   27.9450   33.2610 O   0  0  0  0  0  0  0  0  0  0  0  0
    3.9550   23.1940   34.4590 C   0  0  0  0  0  0  0  0  0  0  0  0
    0.9810   13.2420   41.9570 O   0  0  0  0  0  0  0  0  0  0  0  0
   -0.3310   14.4680   43.1850 C   0  0  0  0  0  0  0  0  0  0  0  0
    3.2610   26.7520   31.0210 C   0  0  0  0  0  0  0  0  0  0  0  0
    1.1110   20.2920   29.5340 C   0  0  0  0  0  0  0  0  0  0  0  0
    1.9090   26.6760   30.9000 O   0  0  0  0  0  0  0  0  0  0  0  0
    2.2550   27.3770   33.2360 C   0  0  0  0  0  0  0  0  0  0  0  0
    4.1950   21.1460   35.7470 O   0  0  0  0  0  0  0  0  0  0  0  0
    5.2370   25.7760   29.2200 O   0  0  0  0  0  0  0  0  0  0  0  0
   -0.3790   13.0130   42.6950 C   0  0  0  0  0  0  0  0  0  0  0  0
    2.4080   25.1180   34.1400 C   0  0  0  0  0  0  0  0  0  0  0  0
    2.7540   21.6020   33.4160 C   0  0  0  0  0  0  0  0  0  0  0  0
    2.0940   25.9830   33.3410 C   0  0  0  0  0  0  0  0  0  0  0  0
    1.2440   20.0220   40.6680 C   0  0  0  0  0  0  0  0  0  0  0  0
    5.6540   27.1070   31.3850 O   0  0  0  0  0  0  0  0  0  0  0  0
    0.6300   16.8580   42.7930 C   0  0  0  0  0  0  0  0  0  0  0  0
    3.5230   21.7060   34.7640 C   0  0  0  0  0  0  0  0  0  0  0  0
    3.9880   25.3130   32.6420 O   0  0  0  0  0  0  0  0  0  0  0  0
    3.3910   24.0710   29.7470 C   0  0  0  0  0  0  0  0  0  0  0  0
    2.6870   18.7480   38.8330 C   0  0  0  0  0  0  0  0  0  0  0  0
    1.6190   18.6810   40.9550 C   0  0  0  0  0  0  0  0  0  0  0  0
    0.7050   15.3870   42.7550 C   0  0  0  0  0  0  0  0  0  0  0  0
    2.2040   17.9760   40.0090 C   0  0  0  0  0  0  0  0  0  0  0  0
    0.9560   14.6940   41.6260 C   0  0  0  0  0  0  0  0  0  0  0  0
   -1.6090   13.0740   41.8410 O   0  0  0  0  0  0  0  0  0  0  0  0
    2.6350   21.6900   35.7950 C   0  0  0  0  0  0  0  0  0  0  0  0
    3.3950   24.3840   33.3180 C   0  0  0  0  0  0  0  0  0  0  0  0
    1.4660   17.9260   42.3390 C   0  0  0  0  0  0  0  0  0  0  0  0
    4.0470   27.7340   34.4350 O   0  0  0  0  0  0  0  0  0  0  0  0
    6.8580   28.6240   29.5970 C   0  0  0  0  0  0  0  0  0  0  0  0
    0.1090   15.1690   40.6000 O   0  0  0  0  0  0  0  0  0  0  0  0
    4.4370   26.0070   30.6440 C   0  0  0  0  0  0  0  0  0  0  0  0
    0.2180   20.7250   41.6950 C   0  0  0  0  0  0  0  0  0  0  0  0
    3.6520   25.5190   31.3030 N   0  0  0  0  0  0  0  0  0  0  0  0
   -0.1780   11.3660   43.0890 C   0  0  0  0  0  0  0  0  0  0  0  0
    2.3950   20.0070   38.6360 C   0  0  0  0  0  0  0  0  0  0  0  0
    2.3933   21.8382   37.9458 H   0  0  0  0  0  0  0  0  0  0  0  0
    3.1253   20.0447   36.9338 H   0  0  0  0  0  0  0  0  0  0  0  0
    0.8176   21.3480   39.2454 H   0  0  0  0  0  0  0  0  0  0  0  0
    2.3686   21.5719   40.1224 H   0  0  0  0  0  0  0  0  0  0  0  0
    3.8328   23.6969   35.4296 H   0  0  0  0  0  0  0  0  0  0  0  0
    4.8739   22.9358   33.9123 H   0  0  0  0  0  0  0  0  0  0  0  0
   -1.2885   14.9238   42.8926 H   0  0  0  0  0  0  0  0  0  0  0  0
   -0.1038   14.3457   44.2543 H   0  0  0  0  0  0  0  0  0  0  0  0
    3.1766   27.8442   31.1208 H   0  0  0  0  0  0  0  0  0  0  0  0
    1.1110   20.2920   30.6340 H   0  0  0  0  0  0  0  0  0  0  0  0
    1.1110   21.3291   29.1673 H   0  0  0  0  0  0  0  0  0  0  0  0
    2.0091   19.7735   29.1673 H   0  0  0  0  0  0  0  0  0  0  0  0
    0.2129   19.7735   29.1673 H   0  0  0  0  0  0  0  0  0  0  0  0
    1.4979   26.6529   31.8003 H   0  0  0  0  0  0  0  0  0  0  0  0
    1.6819   27.8136   34.0672 H   0  0  0  0  0  0  0  0  0  0  0  0
    1.9361   27.5622   32.1997 H   0  0  0  0  0  0  0  0  0  0  0  0
    6.1712   25.5063   29.4063 H   0  0  0  0  0  0  0  0  0  0  0  0
    2.8621   25.5416   35.0479 H   0  0  0  0  0  0  0  0  0  0  0  0
    1.5765   24.5127   34.5301 H   0  0  0  0  0  0  0  0  0  0  0  0
    1.6820   21.4570   33.6156 H   0  0  0  0  0  0  0  0  0  0  0  0
    2.8977   22.5278   32.8395 H   0  0  0  0  0  0  0  0  0  0  0  0
    3.1384   20.7477   32.8395 H   0  0  0  0  0  0  0  0  0  0  0  0
    1.0018   25.8660   33.2828 H   0  0  0  0  0  0  0  0  0  0  0  0
    2.9133   25.7527   32.6441 H   0  0  0  0  0  0  0  0  0  0  0  0
    0.4441   19.6569   40.0071 H   0  0  0  0  0  0  0  0  0  0  0  0
    5.5921   27.0510   32.3715 H   0  0  0  0  0  0  0  0  0  0  0  0
   -0.3249   17.0656   42.2880 H   0  0  0  0  0  0  0  0  0  0  0  0
    0.9356   16.9406   43.8465 H   0  0  0  0  0  0  0  0  0  0  0  0
    3.3910   24.0710   30.8470 H   0  0  0  0  0  0  0  0  0  0  0  0
    3.3910   25.1081   29.3803 H   0  0  0  0  0  0  0  0  0  0  0  0
    4.2891   23.5525   29.3803 H   0  0  0  0  0  0  0  0  0  0  0  0
    2.4929   23.5525   29.3803 H   0  0  0  0  0  0  0  0  0  0  0  0
    3.3200   18.2352   38.0939 H   0  0  0  0  0  0  0  0  0  0  0  0
    1.5122   15.5952   43.4728 H   0  0  0  0  0  0  0  0  0  0  0  0
    2.3276   16.8855   40.0838 H   0  0  0  0  0  0  0  0  0  0  0  0
    1.9543   14.8558   41.1933 H   0  0  0  0  0  0  0  0  0  0  0  0
   -2.4111   13.1138   42.4200 H   0  0  0  0  0  0  0  0  0  0  0  0
    2.9902   22.6802   36.1163 H   0  0  0  0  0  0  0  0  0  0  0  0
    3.2531   23.7174   32.4546 H   0  0  0  0  0  0  0  0  0  0  0  0
    2.4810   17.5482   42.5314 H   0  0  0  0  0  0  0  0  0  0  0  0
    0.8987   18.7264   42.8366 H   0  0  0  0  0  0  0  0  0  0  0  0
    3.4339   27.9365   35.1855 H   0  0  0  0  0  0  0  0  0  0  0  0
    6.8580   28.6240   30.6970 H   0  0  0  0  0  0  0  0  0  0  0  0
    6.8580   29.6611   29.2303 H   0  0  0  0  0  0  0  0  0  0  0  0
    7.7561   28.1055   29.2303 H   0  0  0  0  0  0  0  0  0  0  0  0
    5.9599   28.1055   29.2303 H   0  0  0  0  0  0  0  0  0  0  0  0
   -0.6801   15.6115   41.0019 H   0  0  0  0  0  0  0  0  0  0  0  0
    0.5295   20.5116   42.7282 H   0  0  0  0  0  0  0  0  0  0  0  0
    0.2201   21.8123   41.5286 H   0  0  0  0  0  0  0  0  0  0  0  0
   -0.7953   20.3305   41.5286 H   0  0  0  0  0  0  0  0  0  0  0  0
   -0.1638   11.2497   44.1827 H   0  0  0  0  0  0  0  0  0  0  0  0
   -1.0118   10.7842   42.6692 H   0  0  0  0  0  0  0  0  0  0  0  0
    0.7713   11.0018   42.6692 H   0  0  0  0  0  0  0  0  0  0  0  0
  1 39  1  0
  2 17  1  0
  3 32  1  0
  4 20  1  0
  5 13  1  0
  7  9  1  0
  7 37  1  0
 10  3  1  0
 10 16  1  0
 11 29  1  0
 12 35  1  0
 13 38  1  0
 13  6  1  0
 16 14  1  0
 17 24  1  0
 17 36  1  0
 20 15  1  0
 20 11  1  0
 20 29  1  0
 21 30  1  0
 23 26  1  0
 24 31  1  0
 25 19  1  0
 25  6  1  0
 26 24  2  0
 27 34  1  0
 27  5  1  0
 27 25  1  0
 28 13  1  0
 29  1  1  0
 30 14  1  0
 30  4  1  0
 31 19  1  0
 35  7  1  0
 35 37  1  0
 35 18  1  0
 37 21  1  0
 39 23  2  0
 39  2  1  0
  1 40  1  0
  1 41  1  0
  2 42  1  0
  2 43  1  0
  4 44  1  0
  4 45  1  0
  6 46  1  0
  6 47  1  0
  7 48  1  0
  8 49  1  0
  8 50  1  0
  8 51  1  0
  8 52  1  0
  9 53  1  0
 10 54  1  0
 10 55  1  0
 12 56  1  0
 14 57  1  0
 14 58  1  0
 15 59  1  0
 15 60  1  0
 15 61  1  0
 16 62  1  0
 16 63  1  0
 17 64  1  0
 18 65  1  0
 19 66  1  0
 19 67  1  0
 22 68  1  0
 22 69  1  0
 22 70  1  0
 22 71  1  0
 23 72  1  0
 25 73  1  0
 26 74  1  0
 27 75  1  0
 28 76  1  0
 29 77  1  0
 30 78  1  0
 31 79  1  0
 31 80  1  0
 32 81  1  0
 33 82  1  0
 33 83  1  0
 33 84  1  0
 33 85  1  0
 34 86  1  0
 36 87  1  0
 36 88  1  0
 36 89  1  0
 38 90  1  0
 38 91  1  0
 38 92  1  0
M  END
>  <mol_id>  (89) 
2026-09-18-3war-s0-n100-0091

>  <rmsd_to_ref>  (89) 


$$$$

     RDKit          3D

 47 50  0  0  0  0  0  0  0  0999 V2000
    5.9080   24.3740   28.9630 C   0  0  0  0  0  0  0  0  0  0  0  0
    2.6940   17.5480   38.0160 N   0  0  0  0  0  0  0  0  0  0  0  0
    4.9030   25.3960   28.4830 C   0  0  0  0  0  0  0  0  0  0  0  0
    0.8920   18.4730   42.6430 O   0  0  0  0  0  0  0  0  0  0  0  0
    3.3380   22.6350   33.0380 C   0  0  0  0  0  0  0  0  0  0  0  0
    2.4290   21.2710   36.6230 C   0  0  0  0  0  0  0  0  0  0  0  0
    2.4030   15.4920   39.4070 C   0  0  0  0  0  0  0  0  0  0  0  0
    1.8660   17.8850   40.3740 C   0  0  0  0  0  0  0  0  0  0  0  0
    2.5530   16.1330   38.0640 C   0  0  0  0  0  0  0  0  0  0  0  0
    3.0370   21.6350   35.2360 C   0  0  0  0  0  0  0  0  0  0  0  0
    1.3330   18.8950   41.4240 C   0  0  0  0  0  0  0  0  0  0  0  0
    4.5740   22.7060   30.8570 C   0  0  0  0  0  0  0  0  0  0  0  0
    3.8090   23.7090   30.0840 C   0  0  0  0  0  0  0  0  0  0  0  0
    2.2010   23.4470   32.2350 S   0  0  0  0  0  0  0  0  0  0  0  0
    2.5690   19.8840   38.7800 C   0  0  0  0  0  0  0  0  0  0  0  0
    2.5950   24.2600   30.6340 C   0  0  0  0  0  0  0  0  0  0  0  0
    1.7480   20.7550   39.6610 C   0  0  0  0  0  0  0  0  0  0  0  0
    1.8140   25.2820   30.0730 C   0  0  0  0  0  0  0  0  0  0  0  0
    3.3240   22.0690   34.3110 C   0  0  0  0  0  0  0  0  0  0  0  0
    2.2910   15.2560   36.9050 O   0  0  0  0  0  0  0  0  0  0  0  0
    2.9520   20.3320   37.4260 C   0  0  0  0  0  0  0  0  0  0  0  0
    4.3640   22.4770   32.3080 N   0  0  0  0  0  0  0  0  0  0  0  0
    2.0670   16.4330   40.4940 C   0  0  0  0  0  0  0  0  0  0  0  0
    1.9040   16.0220   41.6610 O   0  0  0  0  0  0  0  0  0  0  0  0
    2.3470   18.3910   39.0540 C   0  0  0  0  0  0  0  0  0  0  0  0
    4.4080   24.0920   28.8530 C   0  0  0  0  0  0  0  0  0  0  0  0
    1.3660   20.4570   41.1210 C   0  0  0  0  0  0  0  0  0  0  0  0
    6.6166   23.9133   28.2590 H   0  0  0  0  0  0  0  0  0  0  0  0
    6.6738   24.3182   29.7506 H   0  0  0  0  0  0  0  0  0  0  0  0
    4.8988   25.6989   27.4255 H   0  0  0  0  0  0  0  0  0  0  0  0
    4.6527   26.4228   28.7879 H   0  0  0  0  0  0  0  0  0  0  0  0
    0.5548   19.1302   43.3021 H   0  0  0  0  0  0  0  0  0  0  0  0
    2.9634   21.6915   32.6144 H   0  0  0  0  0  0  0  0  0  0  0  0
    1.5300   21.8082   36.9595 H   0  0  0  0  0  0  0  0  0  0  0  0
    3.3520   14.9970   39.6606 H   0  0  0  0  0  0  0  0  0  0  0  0
    1.5618   14.7876   39.3282 H   0  0  0  0  0  0  0  0  0  0  0  0
    5.3312   22.1039   30.3335 H   0  0  0  0  0  0  0  0  0  0  0  0
    3.5960   20.0806   39.1214 H   0  0  0  0  0  0  0  0  0  0  0  0
    2.2797   21.7175   39.6922 H   0  0  0  0  0  0  0  0  0  0  0  0
    0.7654   20.6362   39.1810 H   0  0  0  0  0  0  0  0  0  0  0  0
    1.3582   25.8785   30.8770 H   0  0  0  0  0  0  0  0  0  0  0  0
    2.4494   25.9297   29.4511 H   0  0  0  0  0  0  0  0  0  0  0  0
    1.0222   24.8390   29.4511 H   0  0  0  0  0  0  0  0  0  0  0  0
    3.8180   19.8031   37.0013 H   0  0  0  0  0  0  0  0  0  0  0  0
    3.6971   23.4469   28.3159 H   0  0  0  0  0  0  0  0  0  0  0  0
    2.1038   20.9316   41.7847 H   0  0  0  0  0  0  0  0  0  0  0  0
    0.3565   20.8574   41.2956 H   0  0  0  0  0  0  0  0  0  0  0  0
  2  9  1  0
  2 25  2  0
  3 26  1  0
  3  1  1  0
  5 19  1  0
  6 21  2  3
  7 23  1  0
  8 23  1  0
  8 11  2  0
  9  7  1  0
 10  6  1  0
 11  4  1  0
 12 22  2  0
 13 16  2  0
 13 12  1  0
 14  5  1  0
 15 21  1  0
 15 25  1  0
 15 17  1  0
 16 14  1  0
 17 27  1  0
 18 16  1  0
 19 10  3  0
 20  9  2  0
 22  5  1  0
 23 24  2  0
 25  8  1  0
 26  1  1  0
 26 13  1  0
 27 11  1  0
  1 28  1  0
  1 29  1  0
  3 30  1  0
  3 31  1  0
  4 32  1  0
  5 33  1  0
  6 34  1  0
  7 35  1  0
  7 36  1  0
 12 37  1  0
 15 38  1  0
 17 39  1  0
 17 40  1  0
 18 41  1  0
 18 42  1  0
 18 43  1  0
 21 44  1  0
 26 45  1  0
 27 46  1  0
 27 47  1  0
M  END
>  <mol_id>  (90) 
2026-09-18-3war-s0-n100-0092

>  <rmsd_to_ref>  (90) 


$$$$

     RDKit          3D

 47 51  0  0  0  0  0  0  0  0999 V2000
    2.8140   15.8690   39.0210 C   0  0  0  0  0  0  0  0  0  0  0  0
    3.8740   23.6470   31.9280 C   0  0  0  0  0  0  0  0  0  0  0  0
    1.2880   21.1250   39.8310 C   0  0  0  0  0  0  0  0  0  0  0  0
    1.9980   20.7460   38.5340 N   0  0  0  0  0  0  0  0  0  0  0  0
    1.0870   26.1600   30.5850 C   0  0  0  0  0  0  0  0  0  0  0  0
    2.0290   25.2950   31.5100 C   0  0  0  0  0  0  0  0  0  0  0  0
    3.1170   22.2280   33.9410 N   0  0  0  0  0  4  0  0  0  0  0  0
    3.2680   24.6840   31.1350 C   0  0  0  0  0  0  0  0  0  0  0  0
    4.4140   16.3440   37.3900 N   0  0  0  0  0  0  0  0  0  0  0  0
    3.7900   14.0920   37.7540 C   0  0  0  0  0  0  0  0  0  0  0  0
    2.1440   23.9230   35.2030 C   0  0  0  0  0  0  0  0  0  0  0  0
    1.9750   16.9240   40.1890 S   0  0  0  0  0  0  0  0  0  0  0  0
    2.2750   24.2760   33.7690 C   0  0  0  0  0  0  0  0  0  0  0  0
    1.6390   25.2180   32.8800 C   0  0  0  0  0  0  0  0  0  0  0  0
    3.0070   14.6710   38.7030 N   0  0  0  0  0  0  0  0  0  0  0  0
    4.5830   15.0850   37.0790 C   0  0  0  0  0  0  0  0  0  0  0  0
    1.7890   21.8020   37.3930 C   0  0  0  0  0  0  0  0  0  0  0  0
    3.1590   18.0650   38.3020 C   0  0  0  0  0  0  0  0  0  0  0  0
    3.4430   16.7580   38.1450 C   0  0  0  0  0  0  0  0  0  0  0  0
    3.1520   23.3270   33.1560 C   0  0  0  0  0  0  0  0  0  0  0  0
    2.5670   22.5850   35.1970 C   0  0  0  0  0  0  0  0  0  0  0  0
    2.4290   18.4610   39.4500 C   0  0  0  0  0  0  0  0  0  0  0  0
    2.4980   21.5790   36.1950 C   0  0  0  0  0  0  0  0  0  0  0  0
    2.1310   19.8530   39.8070 C   0  0  0  0  0  0  0  0  0  0  0  0
    3.9321   22.7351   31.3155 H   0  0  0  0  0  0  0  0  0  0  0  0
    4.8619   24.0222   32.2334 H   0  0  0  0  0  0  0  0  0  0  0  0
    1.6319   21.9969   40.4068 H   0  0  0  0  0  0  0  0  0  0  0  0
    0.2455   21.3516   40.0990 H   0  0  0  0  0  0  0  0  0  0  0  0
    0.4205   26.7720   31.2104 H   0  0  0  0  0  0  0  0  0  0  0  0
    1.6995   26.8170   29.9499 H   0  0  0  0  0  0  0  0  0  0  0  0
    0.4845   25.4939   29.9499 H   0  0  0  0  0  0  0  0  0  0  0  0
    2.6315   26.1882   31.7317 H   0  0  0  0  0  0  0  0  0  0  0  0
    4.0719   21.8645   34.0713 H   0  0  0  0  0  0  0  0  0  0  0  0
    2.5391   21.4989   33.4990 H   0  0  0  0  0  0  0  0  0  0  0  0
    3.1102   24.2550   30.1345 H   0  0  0  0  0  0  0  0  0  0  0  0
    3.9812   25.5132   31.2522 H   0  0  0  0  0  0  0  0  0  0  0  0
    3.8139   13.0147   37.5331 H   0  0  0  0  0  0  0  0  0  0  0  0
    2.7944   24.5480   35.8325 H   0  0  0  0  0  0  0  0  0  0  0  0
    1.1348   24.0744   35.6136 H   0  0  0  0  0  0  0  0  0  0  0  0
    0.8483   25.8810   33.2612 H   0  0  0  0  0  0  0  0  0  0  0  0
    5.3179   14.7905   36.3154 H   0  0  0  0  0  0  0  0  0  0  0  0
    0.7167   21.8227   37.1484 H   0  0  0  0  0  0  0  0  0  0  0  0
    2.1830   22.7474   37.7941 H   0  0  0  0  0  0  0  0  0  0  0  0
    3.4855   18.8064   37.5578 H   0  0  0  0  0  0  0  0  0  0  0  0
    3.9907   23.7178   33.7509 H   0  0  0  0  0  0  0  0  0  0  0  0
    3.0028   20.6153   36.0324 H   0  0  0  0  0  0  0  0  0  0  0  0
    2.5231   19.4405   40.7483 H   0  0  0  0  0  0  0  0  0  0  0  0
  1 12  1  0
  4 24  1  0
  4  3  1  0
  6  5  1  0
  6 14  1  0
  7 21  1  0
  8  6  1  0
  8  2  1  0
  9 19  2  0
 10 15  1  0
 13 11  1  0
 14 13  2  0
 15  1  2  0
 16  9  1  0
 16 10  2  0
 17  4  1  0
 18 22  2  0
 19 18  1  0
 19  1  1  0
 20  2  1  0
 20 13  1  0
 20  7  1  0
 21 11  1  0
 21 23  2  3
 22 12  1  0
 23 17  1  0
 24 22  1  0
 24  3  1  0
  2 25  1  0
  2 26  1  0
  3 27  1  0
  3 28  1  0
  5 29  1  0
  5 30  1  0
  5 31  1  0
  6 32  1  0
  7 33  1  0
  7 34  1  0
  8 35  1  0
  8 36  1  0
 10 37  1  0
 11 38  1  0
 11 39  1  0
 14 40  1  0
 16 41  1  0
 17 42  1  0
 17 43  1  0
 18 44  1  0
 20 45  1  0
 23 46  1  0
 24 47  1  0
M  CHG  1   7   1
M  END
>  <mol_id>  (91) 
2026-09-18-3war-s0-n100-0093

>  <rmsd_to_ref>  (91) 


$$$$

     RDKit          3D

 67 68  0  0  0  0  0  0  0  0999 V2000
    2.8730   22.5140   34.5520 C   0  0  0  0  0  0  0  0  0  0  0  0
    3.1340   19.5450   37.0200 S   0  0  0  0  0  0  0  0  0  0  0  0
    3.5630   23.7940   32.1050 C   0  0  0  0  0  0  0  0  0  0  0  0
    1.8960   19.9930   40.7410 C   0  0  0  0  0  0  0  0  0  0  0  0
    2.5150   21.8660   35.8910 C   0  0  0  0  0  0  0  0  0  0  0  0
    1.9040   21.1640   38.2210 N   0  0  0  0  0  0  0  0  0  0  0  0
    2.0620   20.1270   39.1500 C   0  0  0  0  0  0  0  0  0  0  0  0
    4.1850   17.1150   38.4100 C   0  0  0  0  0  0  0  0  0  0  0  0
    2.4550   20.8860   36.8950 C   0  0  0  0  0  0  0  0  0  0  0  0
    0.9730   18.5940   41.2220 S   0  0  0  0  0  0  0  0  0  0  0  0
    0.3040   27.3630   32.7140 C   0  0  0  0  0  0  0  0  0  0  0  0
    1.3000   25.7390   34.4360 C   0  0  0  0  0  0  0  0  0  0  0  0
    0.8060   26.7650   31.6270 C   0  0  0  0  0  0  0  0  0  0  0  0
    3.4510   14.2460   38.7560 C   0  0  0  0  0  0  0  0  0  0  0  0
    0.9040   27.1270   34.1200 C   0  0  0  0  0  0  0  0  0  0  0  0
    3.6020   16.2030   37.3260 C   0  0  0  0  0  0  0  0  0  0  0  0
    2.8130   19.0200   38.5390 C   0  0  0  0  0  0  0  0  0  0  0  0
    2.2190   25.2830   30.8770 C   0  0  0  0  0  0  0  0  0  0  0  0
    2.8100   15.0630   37.5870 C   0  0  0  0  0  0  0  0  0  0  0  0
    3.2870   17.8810   39.1310 N   0  0  0  0  0  0  0  0  0  0  0  0
    1.2210   26.0540   30.5190 C   0  0  0  0  0  0  0  0  0  0  0  0
    1.5750   23.4110   34.1080 C   0  0  0  0  0  0  0  0  0  0  0  0
    1.9140   24.7200   33.8470 C   0  0  0  0  0  0  0  0  0  0  0  0
    2.6650   14.4100   39.9700 O   0  0  0  0  0  0  0  0  0  0  0  0
    0.1560   21.1420   42.1020 C   0  0  0  0  0  0  0  0  0  0  0  0
    2.4680   24.9060   32.4090 C   0  0  0  0  0  0  0  0  0  0  0  0
    1.2070   21.2640   41.1870 C   0  0  0  0  0  0  0  0  0  0  0  0
    3.7584   23.1568   34.6655 H   0  0  0  0  0  0  0  0  0  0  0  0
    3.1102   21.7541   33.7928 H   0  0  0  0  0  0  0  0  0  0  0  0
    3.9546   23.3963   33.0529 H   0  0  0  0  0  0  0  0  0  0  0  0
    3.1060   22.9780   31.5259 H   0  0  0  0  0  0  0  0  0  0  0  0
    4.3859   24.2384   31.5259 H   0  0  0  0  0  0  0  0  0  0  0  0
    2.8812   19.8575   41.2111 H   0  0  0  0  0  0  0  0  0  0  0  0
    2.9464   22.6560   36.5232 H   0  0  0  0  0  0  0  0  0  0  0  0
    1.7529   21.2863   35.3495 H   0  0  0  0  0  0  0  0  0  0  0  0
    4.8915   17.8023   37.9218 H   0  0  0  0  0  0  0  0  0  0  0  0
    4.6375   16.4339   39.1458 H   0  0  0  0  0  0  0  0  0  0  0  0
    0.9275   18.5250   42.5895 H   0  0  0  0  0  0  0  0  0  0  0  0
   -0.7522   27.0613   32.7734 H   0  0  0  0  0  0  0  0  0  0  0  0
    0.5428   28.4211   32.5313 H   0  0  0  0  0  0  0  0  0  0  0  0
    1.9143   25.8805   35.3374 H   0  0  0  0  0  0  0  0  0  0  0  0
    0.2981   25.3392   34.2205 H   0  0  0  0  0  0  0  0  0  0  0  0
    0.7429   27.6967   31.0456 H   0  0  0  0  0  0  0  0  0  0  0  0
    1.4540   26.1473   32.2661 H   0  0  0  0  0  0  0  0  0  0  0  0
    4.4747   14.6071   38.9337 H   0  0  0  0  0  0  0  0  0  0  0  0
    3.4723   13.1809   38.4818 H   0  0  0  0  0  0  0  0  0  0  0  0
    1.7982   27.7607   34.2139 H   0  0  0  0  0  0  0  0  0  0  0  0
    0.0989   27.3718   34.8284 H   0  0  0  0  0  0  0  0  0  0  0  0
    4.4647   15.8392   36.7486 H   0  0  0  0  0  0  0  0  0  0  0  0
    2.8564   16.8726   36.8724 H   0  0  0  0  0  0  0  0  0  0  0  0
    3.1363   25.7776   30.5251 H   0  0  0  0  0  0  0  0  0  0  0  0
    1.9429   24.3144   30.4347 H   0  0  0  0  0  0  0  0  0  0  0  0
    1.7952   15.3778   37.8718 H   0  0  0  0  0  0  0  0  0  0  0  0
    2.7571   14.4362   36.6846 H   0  0  0  0  0  0  0  0  0  0  0  0
    2.9867   17.6048   40.0768 H   0  0  0  0  0  0  0  0  0  0  0  0
    1.5509   26.7490   29.7327 H   0  0  0  0  0  0  0  0  0  0  0  0
    0.3930   25.4457   30.1260 H   0  0  0  0  0  0  0  0  0  0  0  0
    1.1337   22.9715   33.2013 H   0  0  0  0  0  0  0  0  0  0  0  0
    0.8591   23.4068   34.9431 H   0  0  0  0  0  0  0  0  0  0  0  0
    2.7511   24.8701   34.5447 H   0  0  0  0  0  0  0  0  0  0  0  0
    3.2489   14.2882   40.7601 H   0  0  0  0  0  0  0  0  0  0  0  0
    0.5544   21.1882   43.1263 H   0  0  0  0  0  0  0  0  0  0  0  0
   -0.5600   21.9631   41.9496 H   0  0  0  0  0  0  0  0  0  0  0  0
   -0.3529   20.1788   41.9496 H   0  0  0  0  0  0  0  0  0  0  0  0
    2.1699   25.8945   32.7886 H   0  0  0  0  0  0  0  0  0  0  0  0
    1.9706   21.9089   41.6464 H   0  0  0  0  0  0  0  0  0  0  0  0
    0.7397   21.6642   40.2752 H   0  0  0  0  0  0  0  0  0  0  0  0
  1  5  1  0
  2 17  1  0
  4 27  1  0
  4 10  1  0
  5  9  1  0
  6  7  1  0
  7  4  1  0
  8 20  1  0
  9  2  1  0
  9  6  2  0
 11 15  1  0
 13 11  1  0
 14 24  1  0
 15 12  1  0
 16 19  1  0
 16  8  1  0
 17 20  1  0
 17  7  2  0
 18 26  1  0
 19 14  1  0
 21 18  1  0
 21 13  1  0
 22  1  1  0
 23 22  1  0
 23 12  1  0
 26  3  1  0
 26 23  1  0
 27 25  1  0
  1 28  1  0
  1 29  1  0
  3 30  1  0
  3 31  1  0
  3 32  1  0
  4 33  1  0
  5 34  1  0
  5 35  1  0
  8 36  1  0
  8 37  1  0
 10 38  1  0
 11 39  1  0
 11 40  1  0
 12 41  1  0
 12 42  1  0
 13 43  1  0
 13 44  1  0
 14 45  1  0
 14 46  1  0
 15 47  1  0
 15 48  1  0
 16 49  1  0
 16 50  1  0
 18 51  1  0
 18 52  1  0
 19 53  1  0
 19 54  1  0
 20 55  1  0
 21 56  1  0
 21 57  1  0
 22 58  1  0
 22 59  1  0
 23 60  1  0
 24 61  1  0
 25 62  1  0
 25 63  1  0
 25 64  1  0
 26 65  1  0
 27 66  1  0
 27 67  1  0
M  END
>  <mol_id>  (92) 
2026-09-18-3war-s0-n100-0094

>  <rmsd_to_ref>  (92) 


$$$$

     RDKit          3D

 44 45  0  0  0  0  0  0  0  0999 V2000
    2.1170   17.3740   39.6880 O   0  0  0  0  0  0  0  0  0  0  0  0
    3.9080   22.4930   33.8120 N   0  0  0  0  0  0  0  0  0  0  0  0
    2.9900   24.8470   30.6930 C   0  0  0  0  0  0  0  0  0  0  0  0
    2.4460   19.6660   39.3300 C   0  0  0  0  0  0  0  0  0  0  0  0
    1.9620   22.2800   34.9530 O   0  0  0  0  0  0  0  0  0  0  0  0
    1.1930   26.5980   31.8910 C   0  0  0  0  0  0  0  0  0  0  0  0
    0.8470   20.6450   41.1750 C   0  0  0  0  0  0  0  0  0  0  0  0
    2.0710   18.5300   40.4230 C   0  0  0  0  0  0  0  0  0  0  0  0
    2.5450   20.3930   36.9470 C   0  0  0  0  0  0  0  0  0  0  0  0
    4.0670   23.2030   32.5700 C   0  0  0  0  0  0  0  0  0  0  0  0
    3.2320   21.9250   34.8190 C   0  0  0  0  0  0  0  0  0  0  0  0
    1.7480   17.2490   42.0530 O   0  0  0  0  0  0  0  0  0  0  0  0
    3.1420   19.5390   38.0060 C   0  0  0  0  0  0  0  0  0  0  0  0
    3.8410   20.7680   35.8740 S   0  0  0  0  0  0  0  0  0  0  0  0
    1.7940   25.1780   31.6310 C   0  0  0  0  0  0  0  0  0  0  0  0
    3.0440   24.5270   32.4760 C   0  0  0  0  0  0  0  0  0  0  0  0
    1.6500   21.0750   39.7810 S   0  0  0  0  0  0  0  0  0  0  0  0
    0.6900   26.7820   33.3040 C   0  0  0  0  0  0  0  0  0  0  0  0
    0.7790   18.2820   42.3300 N   0  0  0  0  0  0  0  0  0  0  0  0
    0.7740   19.0390   41.0520 C   0  0  0  0  0  0  0  0  0  0  0  0
    2.1480   16.5956   40.2989 H   0  0  0  0  0  0  0  0  0  0  0  0
    4.8857   22.3216   34.0871 H   0  0  0  0  0  0  0  0  0  0  0  0
    2.9229   24.0120   29.9801 H   0  0  0  0  0  0  0  0  0  0  0  0
    3.6056   25.4032   29.9707 H   0  0  0  0  0  0  0  0  0  0  0  0
    3.4892   19.4369   39.0666 H   0  0  0  0  0  0  0  0  0  0  0  0
    0.3533   26.7545   31.1979 H   0  0  0  0  0  0  0  0  0  0  0  0
    2.0003   27.3284   31.7337 H   0  0  0  0  0  0  0  0  0  0  0  0
    1.4105   20.9503   42.0690 H   0  0  0  0  0  0  0  0  0  0  0  0
   -0.1383   21.1228   41.2795 H   0  0  0  0  0  0  0  0  0  0  0  0
    2.7078   18.3219   41.2954 H   0  0  0  0  0  0  0  0  0  0  0  0
    1.7511   19.8479   36.4154 H   0  0  0  0  0  0  0  0  0  0  0  0
    2.0853   21.3007   37.3651 H   0  0  0  0  0  0  0  0  0  0  0  0
    5.1076   23.5503   32.4889 H   0  0  0  0  0  0  0  0  0  0  0  0
    3.8147   22.5164   31.7484 H   0  0  0  0  0  0  0  0  0  0  0  0
    2.0921   16.8821   42.9057 H   0  0  0  0  0  0  0  0  0  0  0  0
    4.1954   19.8279   38.1356 H   0  0  0  0  0  0  0  0  0  0  0  0
    3.0374   18.4935   37.6806 H   0  0  0  0  0  0  0  0  0  0  0  0
    0.7320   24.9006   31.5591 H   0  0  0  0  0  0  0  0  0  0  0  0
    3.1788   24.6897   33.5555 H   0  0  0  0  0  0  0  0  0  0  0  0
    1.4787   26.4935   34.0144 H   0  0  0  0  0  0  0  0  0  0  0  0
    0.4211   27.8367   33.4631 H   0  0  0  0  0  0  0  0  0  0  0  0
   -0.1960   26.1497   33.4631 H   0  0  0  0  0  0  0  0  0  0  0  0
   -0.1483   17.8824   42.5336 H   0  0  0  0  0  0  0  0  0  0  0  0
   -0.1651   18.8783   40.5022 H   0  0  0  0  0  0  0  0  0  0  0  0
  2 11  1  0
  3 15  1  0
  3 16  1  0
  4 13  1  0
  4 17  1  0
  4  8  1  0
  6 18  1  0
  8  1  1  0
  8 20  1  0
  9 13  1  0
 10  2  1  0
 11  5  2  0
 11 14  1  0
 12 19  1  0
 14  9  1  0
 15  6  1  0
 15 16  1  0
 16 10  1  0
 17  7  1  0
 20  7  1  0
 20 19  1  0
  1 21  1  0
  2 22  1  0
  3 23  1  0
  3 24  1  0
  4 25  1  0
  6 26  1  0
  6 27  1  0
  7 28  1  0
  7 29  1  0
  8 30  1  0
  9 31  1  0
  9 32  1  0
 10 33  1  0
 10 34  1  0
 12 35  1  0
 13 36  1  0
 13 37  1  0
 15 38  1  0
 16 39  1  0
 18 40  1  0
 18 41  1  0
 18 42  1  0
 19 43  1  0
 20 44  1  0
M  END
>  <mol_id>  (93) 
2026-09-18-3war-s0-n100-0095

>  <rmsd_to_ref>  (93) 


$$$$

     RDKit          3D

 47 49  0  0  0  0  0  0  0  0999 V2000
    5.8980   23.2000   28.2910 C   0  0  0  0  0  0  0  0  0  0  0  0
    3.9460   23.9870   29.8850 N   0  0  0  0  0  0  0  0  0  0  0  0
    4.6840   24.0900   28.5930 C   0  0  0  0  0  0  0  0  0  0  0  0
    1.7000   20.3300   39.5260 C   0  0  0  0  0  0  0  0  0  0  0  0
    2.9090   23.4370   34.3560 C   0  0  0  0  0  0  0  0  0  0  0  0
    1.8470   16.9440   41.0150 C   0  0  0  0  0  0  0  0  0  0  0  0
    3.2950   25.6360   32.5180 C   0  0  0  0  0  0  0  0  0  0  0  0
    2.7350   22.1010   35.3380 C   0  0  0  0  0  0  0  0  0  0  0  0
    1.8220   20.9940   38.3020 C   0  0  0  0  0  0  0  0  0  0  0  0
    2.4150   24.6790   34.6720 C   0  0  0  0  0  0  0  0  0  0  0  0
    3.8350   24.3780   32.1940 C   0  0  0  0  0  0  0  0  0  0  0  0
    2.3490   19.0270   39.6590 C   0  0  0  0  0  0  0  0  0  0  0  0
    2.8060   21.2710   35.9080 C   0  0  0  0  0  0  0  0  0  0  0  0
    4.1510   17.6910   39.0270 O   0  0  0  0  0  0  0  0  0  0  0  0
    4.5200   24.0960   30.9940 N   0  0  0  0  0  0  0  0  0  0  0  0
    3.3380   18.7320   38.6950 C   0  0  0  0  0  0  0  0  0  0  0  0
    1.0650   20.5260   40.6940 N   0  0  0  0  0  0  0  0  0  0  0  0
    1.7870   18.4180   40.7840 C   0  0  0  0  0  0  0  0  0  0  0  0
    3.6360   23.2360   33.1580 C   0  0  0  0  0  0  0  0  0  0  0  0
    2.6580   20.5190   37.2700 C   0  0  0  0  0  0  0  0  0  0  0  0
    1.1880   16.6760   42.4520 C   0  0  0  0  0  0  0  0  0  0  0  0
    3.4320   19.4480   37.5020 C   0  0  0  0  0  0  0  0  0  0  0  0
    2.6980   25.7670   33.8250 C   0  0  0  0  0  0  0  0  0  0  0  0
    1.0080   19.3560   41.4580 C   0  0  0  0  0  0  0  0  0  0  0  0
    6.3525   22.8668   29.2357 H   0  0  0  0  0  0  0  0  0  0  0  0
    5.5746   22.3234   27.7105 H   0  0  0  0  0  0  0  0  0  0  0  0
    6.6367   23.7721   27.7105 H   0  0  0  0  0  0  0  0  0  0  0  0
    5.0348   25.1298   28.5177 H   0  0  0  0  0  0  0  0  0  0  0  0
    3.9404   23.7313   27.8660 H   0  0  0  0  0  0  0  0  0  0  0  0
    2.8922   16.6012   41.0073 H   0  0  0  0  0  0  0  0  0  0  0  0
    1.3105   16.3974   40.2254 H   0  0  0  0  0  0  0  0  0  0  0  0
    3.3263   26.4776   31.8104 H   0  0  0  0  0  0  0  0  0  0  0  0
    1.2471   21.9174   38.1382 H   0  0  0  0  0  0  0  0  0  0  0  0
    1.8053   24.8218   35.5764 H   0  0  0  0  0  0  0  0  0  0  0  0
    3.1784   20.5014   35.2158 H   0  0  0  0  0  0  0  0  0  0  0  0
    4.8743   17.4119   38.4113 H   0  0  0  0  0  0  0  0  0  0  0  0
    0.6682   21.4290   40.9907 H   0  0  0  0  0  0  0  0  0  0  0  0
    2.3283   17.8524   41.5567 H   0  0  0  0  0  0  0  0  0  0  0  0
    3.1190   22.4391   32.6032 H   0  0  0  0  0  0  0  0  0  0  0  0
    4.6554   23.0265   33.5142 H   0  0  0  0  0  0  0  0  0  0  0  0
    1.8983   16.9648   43.2407 H   0  0  0  0  0  0  0  0  0  0  0  0
    0.2685   17.2716   42.5505 H   0  0  0  0  0  0  0  0  0  0  0  0
    0.9452   15.6077   42.5505 H   0  0  0  0  0  0  0  0  0  0  0  0
    4.1546   19.1286   36.7366 H   0  0  0  0  0  0  0  0  0  0  0  0
    2.4491   26.7777   34.1808 H   0  0  0  0  0  0  0  0  0  0  0  0
    1.4133   19.5368   42.4645 H   0  0  0  0  0  0  0  0  0  0  0  0
   -0.0274   19.0056   41.5810 H   0  0  0  0  0  0  0  0  0  0  0  0
  1  3  1  0
  2 15  2  3
  3  2  1  0
  4 12  1  0
  4 17  1  0
  5 10  1  0
  5  8  2  0
  6 21  1  0
  7 23  1  0
  8 13  2  0
  9  4  2  0
 11  7  2  0
 11 19  1  0
 12 18  1  0
 13 20  1  0
 15 11  1  0
 16 14  1  0
 16 12  2  0
 17 24  1  0
 18  6  1  0
 18 24  1  0
 19  5  1  0
 20 22  2  0
 20  9  1  0
 22 16  1  0
 23 10  2  0
  1 25  1  0
  1 26  1  0
  1 27  1  0
  3 28  1  0
  3 29  1  0
  6 30  1  0
  6 31  1  0
  7 32  1  0
  9 33  1  0
 10 34  1  0
 13 35  1  0
 14 36  1  0
 17 37  1  0
 18 38  1  0
 19 39  1  0
 19 40  1  0
 21 41  1  0
 21 42  1  0
 21 43  1  0
 22 44  1  0
 23 45  1  0
 24 46  1  0
 24 47  1  0
M  END
>  <mol_id>  (94) 
2026-09-18-3war-s0-n100-0096

>  <rmsd_to_ref>  (94) 


$$$$

     RDKit          3D

 70 73  0  0  0  0  0  0  0  0999 V2000
    2.2820   15.0360   36.9160 C   0  0  0  0  0  0  0  0  0  0  0  0
   -1.0830   20.2810   42.8400 O   0  0  0  0  0  0  0  0  0  0  0  0
   -0.1440   20.2960   41.9290 C   0  0  0  0  0  0  0  0  0  0  0  0
    2.9030   15.3140   39.3840 C   0  0  0  0  0  0  0  0  0  0  0  0
    3.0820   24.4600   32.3030 C   0  0  0  0  0  0  0  0  0  0  0  0
    2.2370   25.2850   31.2990 C   0  0  0  0  0  0  0  0  0  0  0  0
    2.4890   23.4770   33.4060 C   0  0  0  0  0  0  0  0  0  0  0  0
    0.4190   21.5510   41.4760 C   0  0  0  0  0  0  0  0  0  0  0  0
    2.1170   25.5020   28.6440 C   0  0  0  0  0  0  0  0  0  0  0  0
    2.9370   18.9150   38.7010 C   0  0  0  0  0  0  0  0  0  0  0  0
    3.1860   13.7910   36.8430 C   0  0  0  0  0  0  0  0  0  0  0  0
    4.5800   24.1640   32.0630 C   0  0  0  0  0  0  0  0  0  0  0  0
    1.3120   21.5080   40.4320 C   0  0  0  0  0  0  0  0  0  0  0  0
    2.4790   21.4420   35.7760 C   0  0  0  0  0  0  0  0  0  0  0  0
    1.6510   20.3680   39.8070 C   0  0  0  0  0  0  0  0  0  0  0  0
    1.3240   19.1450   40.3470 C   0  0  0  0  0  0  0  0  0  0  0  0
    2.6960   15.9430   38.0090 C   0  0  0  0  0  0  0  0  0  0  0  0
    2.6470   13.1910   40.4810 O   0  0  0  0  0  0  0  0  0  0  0  0
    1.4920   22.6460   35.8370 C   0  0  0  0  0  0  0  0  0  0  0  0
    2.4260   20.1760   38.5190 N   0  0  0  0  0  0  0  0  0  0  0  0
    2.6450   13.8810   39.2790 C   0  0  0  0  0  0  0  0  0  0  0  0
    3.6060   13.3100   38.2490 C   0  0  0  0  0  0  0  0  0  0  0  0
    3.7580   18.5090   37.9810 O   0  0  0  0  0  0  0  0  0  0  0  0
    3.9840   24.2820   29.7010 C   0  0  0  0  0  0  0  0  0  0  0  0
    2.2180   24.0150   34.8900 C   0  0  0  0  0  0  0  0  0  0  0  0
    2.2430   18.3200   39.6670 O   0  0  0  0  0  0  0  0  0  0  0  0
    1.2740   26.3690   31.4700 C   0  0  0  0  0  0  0  0  0  0  0  0
    2.7960   25.0590   29.8780 C   0  0  0  0  0  0  0  0  0  0  0  0
    0.9910   26.5160   28.7410 C   0  0  0  0  0  0  0  0  0  0  0  0
    2.6790   20.9170   37.1840 C   0  0  0  0  0  0  0  0  0  0  0  0
    0.6130   26.8010   30.2520 C   0  0  0  0  0  0  0  0  0  0  0  0
    4.9880   23.8680   30.6450 C   0  0  0  0  0  0  0  0  0  0  0  0
    0.3100   19.1260   41.3700 C   0  0  0  0  0  0  0  0  0  0  0  0
    0.5320   27.4160   27.3440 Cl  0  0  0  0  0  0  0  0  0  0  0  0
    1.2447   14.7148   37.0916 H   0  0  0  0  0  0  0  0  0  0  0  0
    2.3673   15.5809   35.9642 H   0  0  0  0  0  0  0  0  0  0  0  0
   -1.4632   19.4192   43.1448 H   0  0  0  0  0  0  0  0  0  0  0  0
    3.9378   15.4817   39.7172 H   0  0  0  0  0  0  0  0  0  0  0  0
    2.2178   15.7687   40.1146 H   0  0  0  0  0  0  0  0  0  0  0  0
    2.8945   25.4670   32.7039 H   0  0  0  0  0  0  0  0  0  0  0  0
    1.5269   23.1090   33.0202 H   0  0  0  0  0  0  0  0  0  0  0  0
    3.2913   22.7376   33.5458 H   0  0  0  0  0  0  0  0  0  0  0  0
    0.1420   22.5041   41.9502 H   0  0  0  0  0  0  0  0  0  0  0  0
    2.4232   25.1022   27.6660 H   0  0  0  0  0  0  0  0  0  0  0  0
    2.6387   12.9817   36.3376 H   0  0  0  0  0  0  0  0  0  0  0  0
    4.0955   14.0585   36.2851 H   0  0  0  0  0  0  0  0  0  0  0  0
    5.1519   25.0416   32.3989 H   0  0  0  0  0  0  0  0  0  0  0  0
    4.7875   23.2408   32.6240 H   0  0  0  0  0  0  0  0  0  0  0  0
    1.7696   22.4491   40.0930 H   0  0  0  0  0  0  0  0  0  0  0  0
    2.0591   20.6490   35.1397 H   0  0  0  0  0  0  0  0  0  0  0  0
    3.4417   21.7629   35.3515 H   0  0  0  0  0  0  0  0  0  0  0  0
    3.6456   16.4115   37.7110 H   0  0  0  0  0  0  0  0  0  0  0  0
    1.8567   16.6426   38.1359 H   0  0  0  0  0  0  0  0  0  0  0  0
    2.6451   13.8362   41.2319 H   0  0  0  0  0  0  0  0  0  0  0  0
    0.5255   22.3591   35.3972 H   0  0  0  0  0  0  0  0  0  0  0  0
    1.3240   22.9500   36.8807 H   0  0  0  0  0  0  0  0  0  0  0  0
    1.6065   13.7424   38.9438 H   0  0  0  0  0  0  0  0  0  0  0  0
    3.5755   12.2111   38.2865 H   0  0  0  0  0  0  0  0  0  0  0  0
    4.6284   13.6522   38.4671 H   0  0  0  0  0  0  0  0  0  0  0  0
    3.6198   23.3370   29.2716 H   0  0  0  0  0  0  0  0  0  0  0  0
    4.5807   25.0585   29.2001 H   0  0  0  0  0  0  0  0  0  0  0  0
    3.1634   24.3334   35.3534 H   0  0  0  0  0  0  0  0  0  0  0  0
    1.5384   24.8798   34.8725 H   0  0  0  0  0  0  0  0  0  0  0  0
    1.0649   26.8245   32.4492 H   0  0  0  0  0  0  0  0  0  0  0  0
    3.6490   20.4395   36.9812 H   0  0  0  0  0  0  0  0  0  0  0  0
    1.9228   21.6476   37.5072 H   0  0  0  0  0  0  0  0  0  0  0  0
   -0.2848   27.4188   30.4010 H   0  0  0  0  0  0  0  0  0  0  0  0
    5.1500   22.7851   30.5401 H   0  0  0  0  0  0  0  0  0  0  0  0
    5.9097   24.4290   30.4309 H   0  0  0  0  0  0  0  0  0  0  0  0
   -0.1051   18.1647   41.7071 H   0  0  0  0  0  0  0  0  0  0  0  0
  1 17  1  0
  3  2  1  0
  5  7  1  0
  6 27  1  0
  6  5  1  0
  7 25  1  0
  8  3  2  0
  9 29  2  0
  9 28  1  0
 10 26  1  0
 11  1  1  0
 11 22  1  0
 12  5  1  0
 13  8  1  0
 14 19  1  0
 14 30  1  0
 15 16  1  0
 15 13  2  0
 16 33  2  0
 17  4  1  0
 20 10  1  0
 20 15  1  0
 21  4  1  0
 21 18  1  0
 22 21  1  0
 23 10  2  0
 24 28  1  0
 24 32  1  0
 25 19  1  0
 26 16  1  0
 28  6  2  0
 29 31  1  0
 30 20  1  0
 31 27  2  0
 32 12  1  0
 33  3  1  0
 34 29  1  0
  1 35  1  0
  1 36  1  0
  2 37  1  0
  4 38  1  0
  4 39  1  0
  5 40  1  0
  7 41  1  0
  7 42  1  0
  8 43  1  0
  9 44  1  0
 11 45  1  0
 11 46  1  0
 12 47  1  0
 12 48  1  0
 13 49  1  0
 14 50  1  0
 14 51  1  0
 17 52  1  0
 17 53  1  0
 18 54  1  0
 19 55  1  0
 19 56  1  0
 21 57  1  0
 22 58  1  0
 22 59  1  0
 24 60  1  0
 24 61  1  0
 25 62  1  0
 25 63  1  0
 27 64  1  0
 30 65  1  0
 30 66  1  0
 31 67  1  0
 32 68  1  0
 32 69  1  0
 33 70  1  0
M  END
>  <mol_id>  (95) 
2026-09-18-3war-s0-n100-0097

>  <rmsd_to_ref>  (95) 


$$$$

     RDKit          3D

 44 44  0  0  0  0  0  0  0  0999 V2000
    1.1150   21.1390   40.9120 C   0  0  0  0  0  0  0  0  0  0  0  0
    1.7220   18.4730   41.9080 C   0  0  0  0  0  0  0  0  0  0  0  0
    3.0190   18.4900   37.5060 C   0  0  0  0  0  0  0  0  0  0  0  0
    2.1290   19.2010   39.6240 C   0  0  0  0  0  0  0  0  0  0  0  0
    2.3910   21.4620   36.2610 C   0  0  0  0  0  0  0  0  0  0  0  0
    2.2320   20.7950   37.3830 C   0  0  0  0  0  0  0  0  0  0  0  0
    3.1740   21.7330   35.0280 C   0  0  0  0  0  0  0  0  0  0  0  0
    1.4680   19.7560   40.8920 C   0  0  0  0  0  0  0  0  0  0  0  0
    3.3900   17.5010   38.6030 C   0  0  0  0  0  0  0  0  0  0  0  0
    2.4280   19.6370   38.2480 C   0  0  0  0  0  0  0  0  0  0  0  0
    3.0770   23.9480   30.1920 C   0  0  0  0  0  0  0  0  0  0  0  0
    3.9940   24.0160   31.3710 C   0  0  0  0  0  0  0  0  0  0  0  0
    3.5780   23.1750   35.0070 C   0  0  0  0  0  0  0  0  0  0  0  0
    4.3620   23.6640   33.6410 C   0  0  0  0  0  0  0  0  0  0  0  0
    2.6440   18.0600   39.6920 O   0  0  0  0  0  0  0  0  0  0  0  0
    3.4630   24.3940   32.7480 C   0  0  0  0  0  0  0  0  0  0  0  0
    1.0279   21.4802   41.9541 H   0  0  0  0  0  0  0  0  0  0  0  0
    1.8928   21.7234   40.3986 H   0  0  0  0  0  0  0  0  0  0  0  0
    0.1523   21.2792   40.3986 H   0  0  0  0  0  0  0  0  0  0  0  0
    1.6547   18.8131   42.9519 H   0  0  0  0  0  0  0  0  0  0  0  0
    0.9590   17.7025   41.7234 H   0  0  0  0  0  0  0  0  0  0  0  0
    2.7211   18.0513   41.7234 H   0  0  0  0  0  0  0  0  0  0  0  0
    2.2852   18.0509   36.8141 H   0  0  0  0  0  0  0  0  0  0  0  0
    3.8802   18.7818   36.8869 H   0  0  0  0  0  0  0  0  0  0  0  0
    1.4214   21.2340   35.7943 H   0  0  0  0  0  0  0  0  0  0  0  0
    3.0298   22.1772   36.7999 H   0  0  0  0  0  0  0  0  0  0  0  0
    2.6322   21.5586   38.0662 H   0  0  0  0  0  0  0  0  0  0  0  0
    1.4059   20.2512   36.9015 H   0  0  0  0  0  0  0  0  0  0  0  0
    4.0729   21.0991   35.0164 H   0  0  0  0  0  0  0  0  0  0  0  0
    2.5594   21.5089   34.1437 H   0  0  0  0  0  0  0  0  0  0  0  0
    0.5975   20.1891   41.4065 H   0  0  0  0  0  0  0  0  0  0  0  0
    3.0606   16.4794   38.3623 H   0  0  0  0  0  0  0  0  0  0  0  0
    4.4690   17.3887   38.7851 H   0  0  0  0  0  0  0  0  0  0  0  0
    2.0366   23.8708   30.5407 H   0  0  0  0  0  0  0  0  0  0  0  0
    3.1935   24.8572   29.5840 H   0  0  0  0  0  0  0  0  0  0  0  0
    3.3263   23.0659   29.5840 H   0  0  0  0  0  0  0  0  0  0  0  0
    4.4498   23.0200   31.4725 H   0  0  0  0  0  0  0  0  0  0  0  0
    4.6524   24.8611   31.1214 H   0  0  0  0  0  0  0  0  0  0  0  0
    2.6689   23.7848   35.1145 H   0  0  0  0  0  0  0  0  0  0  0  0
    4.2934   23.3039   35.8326 H   0  0  0  0  0  0  0  0  0  0  0  0
    5.1986   24.3203   33.9229 H   0  0  0  0  0  0  0  0  0  0  0  0
    4.7298   22.7723   33.1123 H   0  0  0  0  0  0  0  0  0  0  0  0
    3.5292   25.4790   32.9162 H   0  0  0  0  0  0  0  0  0  0  0  0
    2.4013   24.1460   32.8935 H   0  0  0  0  0  0  0  0  0  0  0  0
  3 10  1  0
  3  9  1  0
  4 15  1  0
  4  8  1  0
  5  6  1  0
  6 10  1  0
  7  5  1  0
  8  1  1  0
  8  2  1  0
  9 15  1  0
 10  4  2  0
 11 12  1  0
 12 16  1  0
 13  7  1  0
 14 13  1  0
 16 14  1  0
  1 17  1  0
  1 18  1  0
  1 19  1  0
  2 20  1  0
  2 21  1  0
  2 22  1  0
  3 23  1  0
  3 24  1  0
  5 25  1  0
  5 26  1  0
  6 27  1  0
  6 28  1  0
  7 29  1  0
  7 30  1  0
  8 31  1  0
  9 32  1  0
  9 33  1  0
 11 34  1  0
 11 35  1  0
 11 36  1  0
 12 37  1  0
 12 38  1  0
 13 39  1  0
 13 40  1  0
 14 41  1  0
 14 42  1  0
 16 43  1  0
 16 44  1  0
M  END
>  <mol_id>  (96) 
2026-09-18-3war-s0-n100-0098

>  <rmsd_to_ref>  (96) 


$$$$

     RDKit          3D

 35 35  0  0  0  0  0  0  0  0999 V2000
    2.6530   20.9480   36.5880 C   0  0  0  0  0  0  0  0  0  0  0  0
    1.7010   20.8770   39.0310 C   0  0  0  0  0  0  0  0  0  0  0  0
    1.5270   18.1560   41.4200 O   0  0  0  0  0  0  0  0  0  0  0  0
    2.4720   20.3140   38.0110 C   0  0  0  0  0  0  0  0  0  0  0  0
    3.8720   24.5300   30.9220 O   0  0  0  0  0  0  0  0  0  0  0  0
    3.9970   23.1890   31.0630 C   0  0  0  0  0  0  0  0  0  0  0  0
    4.4350   22.3570   34.9590 C   0  0  0  0  0  0  0  0  0  0  0  0
    2.7320   25.2610   30.6540 C   0  0  0  0  0  0  0  0  0  0  0  0
    2.0040   18.8720   40.4040 C   0  0  0  0  0  0  0  0  0  0  0  0
    5.8820   24.0480   32.6300 C   0  0  0  0  0  0  0  0  0  0  0  0
    1.4990   20.1720   40.2420 C   0  0  0  0  0  0  0  0  0  0  0  0
    3.8240   21.2780   34.3130 O   0  0  0  0  0  0  0  0  0  0  0  0
    2.8360   18.3240   39.3830 C   0  0  0  0  0  0  0  0  0  0  0  0
    3.9440   21.1120   35.7490 C   0  0  0  0  0  0  0  0  0  0  0  0
    1.7100   21.5200   36.1760 O   0  0  0  0  0  0  0  0  0  0  0  0
    4.7750   23.7500   31.7080 C   0  0  0  0  0  0  0  0  0  0  0  0
    3.0230   19.0460   38.2280 C   0  0  0  0  0  0  0  0  0  0  0  0
    1.2497   21.8706   38.8928 H   0  0  0  0  0  0  0  0  0  0  0  0
    1.8543   17.2342   41.5727 H   0  0  0  0  0  0  0  0  0  0  0  0
    3.1927   22.6387   31.5732 H   0  0  0  0  0  0  0  0  0  0  0  0
    4.1198   22.3929   30.3140 H   0  0  0  0  0  0  0  0  0  0  0  0
    3.9066   23.3171   35.0540 H   0  0  0  0  0  0  0  0  0  0  0  0
    5.3875   22.8976   34.8565 H   0  0  0  0  0  0  0  0  0  0  0  0
    2.2597   25.5638   31.6002 H   0  0  0  0  0  0  0  0  0  0  0  0
    2.9988   26.1569   30.0741 H   0  0  0  0  0  0  0  0  0  0  0  0
    2.0291   24.6448   30.0741 H   0  0  0  0  0  0  0  0  0  0  0  0
    5.5303   23.9533   33.6679 H   0  0  0  0  0  0  0  0  0  0  0  0
    6.7052   23.3395   32.4557 H   0  0  0  0  0  0  0  0  0  0  0  0
    6.2382   25.0740   32.4557 H   0  0  0  0  0  0  0  0  0  0  0  0
    0.9417   20.6468   41.0630 H   0  0  0  0  0  0  0  0  0  0  0  0
    3.3179   17.3443   39.5170 H   0  0  0  0  0  0  0  0  0  0  0  0
    4.4194   20.4711   36.5061 H   0  0  0  0  0  0  0  0  0  0  0  0
    5.1836   24.3395   30.8740 H   0  0  0  0  0  0  0  0  0  0  0  0
    4.1996   23.4269   32.5880 H   0  0  0  0  0  0  0  0  0  0  0  0
    3.6390   18.6031   37.4315 H   0  0  0  0  0  0  0  0  0  0  0  0
  1  4  1  0
  2 11  2  0
  4 17  2  0
  4  2  1  0
  5  6  1  0
  6 16  1  0
  7 14  1  0
  8  5  1  0
  9  3  1  0
 11  9  1  0
 12  7  1  0
 12 14  1  0
 13  9  2  0
 14  1  1  0
 15  1  2  0
 16 10  1  0
 17 13  1  0
  2 18  1  0
  3 19  1  0
  6 20  1  0
  6 21  1  0
  7 22  1  0
  7 23  1  0
  8 24  1  0
  8 25  1  0
  8 26  1  0
 10 27  1  0
 10 28  1  0
 10 29  1  0
 11 30  1  0
 13 31  1  0
 14 32  1  0
 16 33  1  0
 16 34  1  0
 17 35  1  0
M  END
>  <mol_id>  (97) 
2026-09-18-3war-s0-n100-0099

>  <rmsd_to_ref>  (97) 


$$$$

     RDKit          3D

 34 35  0  0  0  0  0  0  0  0999 V2000
    3.8910   22.5300   34.1720 C   0  0  0  0  0  0  0  0  0  0  0  0
    1.8940   24.3280   33.7330 S   0  0  0  0  0  0  0  0  0  0  0  0
    1.8750   19.0310   40.4850 C   0  0  0  0  0  0  0  0  0  0  0  0
    3.2330   24.4280   32.6100 C   0  0  0  0  0  0  0  0  0  0  0  0
    2.6280   18.0340   39.5670 S   0  0  0  0  0  0  0  0  0  0  0  0
    2.5930   20.1320   38.6900 C   0  0  0  0  0  0  0  0  0  0  0  0
    4.3540   23.6350   33.2810 C   0  0  0  0  0  0  0  0  0  0  0  0
    2.9480   19.0790   38.0660 C   0  0  0  0  0  0  0  0  0  0  0  0
    2.1570   21.2120   37.6380 C   0  0  0  0  0  0  0  0  0  0  0  0
    1.2710   21.3200   40.3690 N   0  0  0  0  0  4  0  0  0  0  0  0
    1.9520   22.2160   35.5430 N   0  0  0  0  0  4  0  0  0  0  0  0
    1.8960   20.1260   39.8500 C   0  0  0  0  0  0  0  0  0  0  0  0
    2.3930   22.6070   34.1690 C   0  0  0  0  0  0  0  0  0  0  0  0
    2.3220   21.2060   36.2150 C   0  0  0  0  0  0  0  0  0  0  0  0
    4.2258   21.5573   33.7824 H   0  0  0  0  0  0  0  0  0  0  0  0
    4.3006   22.6290   35.1881 H   0  0  0  0  0  0  0  0  0  0  0  0
    0.8398   18.6989   40.6529 H   0  0  0  0  0  0  0  0  0  0  0  0
    2.3385   19.1155   41.4790 H   0  0  0  0  0  0  0  0  0  0  0  0
    3.5348   25.4746   32.4568 H   0  0  0  0  0  0  0  0  0  0  0  0
    2.9766   24.0317   31.6164 H   0  0  0  0  0  0  0  0  0  0  0  0
    3.5150   20.3875   39.2328 H   0  0  0  0  0  0  0  0  0  0  0  0
    4.9837   23.1978   32.4922 H   0  0  0  0  0  0  0  0  0  0  0  0
    4.8950   24.3454   33.9234 H   0  0  0  0  0  0  0  0  0  0  0  0
    2.3051   18.8329   37.2080 H   0  0  0  0  0  0  0  0  0  0  0  0
    3.9311   19.0413   37.5741 H   0  0  0  0  0  0  0  0  0  0  0  0
    1.6538   22.0984   38.0516 H   0  0  0  0  0  0  0  0  0  0  0  0
    1.2843   21.2947   41.3986 H   0  0  0  0  0  0  0  0  0  0  0  0
    1.7866   22.1485   40.0393 H   0  0  0  0  0  0  0  0  0  0  0  0
    0.2964   21.3684   40.0393 H   0  0  0  0  0  0  0  0  0  0  0  0
    0.9282   22.1257   35.4748 H   0  0  0  0  0  0  0  0  0  0  0  0
    2.4329   22.9511   36.0808 H   0  0  0  0  0  0  0  0  0  0  0  0
    2.8155   20.3666   40.4037 H   0  0  0  0  0  0  0  0  0  0  0  0
    1.9261   21.9382   33.4310 H   0  0  0  0  0  0  0  0  0  0  0  0
    2.7649   20.3346   35.7105 H   0  0  0  0  0  0  0  0  0  0  0  0
  2 13  1  0
  4  7  1  0
  4  2  1  0
  5  3  1  0
  6  9  1  0
  6 12  1  0
  7  1  1  0
  8  6  1  0
  8  5  1  0
 11 14  1  0
 12 10  1  0
 12  3  1  0
 13  1  1  0
 13 11  1  0
 14  9  2  3
  1 15  1  0
  1 16  1  0
  3 17  1  0
  3 18  1  0
  4 19  1  0
  4 20  1  0
  6 21  1  0
  7 22  1  0
  7 23  1  0
  8 24  1  0
  8 25  1  0
  9 26  1  0
 10 27  1  0
 10 28  1  0
 10 29  1  0
 11 30  1  0
 11 31  1  0
 12 32  1  0
 13 33  1  0
 14 34  1  0
M  CHG  2  10   1  11   1
M  END
>  <mol_id>  (98) 
2026-09-18-3war-s0-n100-0100

>  <rmsd_to_ref>  (98) 


$$$$
