
     RDKit          3D

 56 59  0  0  0  0  0  0  0  0999 V2000
   -1.8220   15.0390   44.1420 Cl  0  0  0  0  0  0  0  0  0  0  0  0
    1.2140   18.5720   42.1680 C   0  0  0  0  0  0  0  0  0  0  0  0
    2.6420   20.8190   38.7720 O   0  0  0  0  0  0  0  0  0  0  0  0
    4.6950   15.3920   36.3320 C   0  0  0  0  0  0  0  0  0  0  0  0
    6.0200   14.9210   35.3420 P   0  0  0  0  0  5  0  0  0  0  0  0
    2.2790   20.2700   40.0960 C   0  0  0  0  0  0  0  0  0  0  0  0
   -0.0350   16.7800   43.1820 C   0  0  0  0  0  0  0  0  0  0  0  0
    1.9280   19.2410   39.5230 C   0  0  0  0  0  0  0  0  0  0  0  0
    1.4270   20.8370   41.1890 C   0  0  0  0  0  0  0  0  0  0  0  0
    4.9420   16.2830   38.7480 O   0  0  0  0  0  0  0  0  0  0  0  0
    6.4420   15.6200   34.3200 O   0  0  0  0  0  0  0  0  0  0  0  0
    1.0730   19.8980   42.2680 C   0  0  0  0  0  0  0  0  0  0  0  0
    2.4150   14.8730   36.8870 C   0  0  0  0  0  0  0  0  0  0  0  0
    0.1340   19.0980   44.0500 C   0  0  0  0  0  0  0  0  0  0  0  0
    7.0740   15.0740   36.5820 O   0  0  0  0  0  0  0  0  0  0  0  0
    0.6180   13.5960   38.1490 C   0  0  0  0  0  0  0  0  0  0  0  0
    4.1140   17.9960   36.8880 O   0  0  0  0  0  0  0  0  0  0  0  0
    4.7150   13.8610   34.1380 O   0  0  0  0  0  0  0  0  0  0  0  0
   -0.8450   16.5040   44.2840 C   0  0  0  0  0  0  0  0  0  0  0  0
    2.1840   17.6310   40.0550 C   0  0  0  0  0  0  0  0  0  0  0  0
    2.7680   19.4960   38.3930 C   0  0  0  0  0  0  0  0  0  0  0  0
    4.1500   16.5970   37.5300 P   0  0  0  0  0  5  0  0  0  0  0  0
    0.9030   14.5630   37.0870 C   0  0  0  0  0  0  0  0  0  0  0  0
    3.8090   14.2790   36.5400 C   0  0  0  0  0  0  0  0  0  0  0  0
    2.7470   15.9200   37.8620 O   0  0  0  0  0  0  0  0  0  0  0  0
    0.4980   18.1680   43.1730 C   0  0  0  0  0  0  0  0  0  0  0  0
   -1.0060   17.3780   45.3480 C   0  0  0  0  0  0  0  0  0  0  0  0
    0.5110   20.2560   43.4230 N   0  0  0  0  0  0  0  0  0  0  0  0
    1.8970   17.4970   41.2340 C   0  0  0  0  0  0  0  0  0  0  0  0
   -0.4540   18.6850   45.1680 C   0  0  0  0  0  0  0  0  0  0  0  0
    5.0500   16.2670   35.7677 H   0  0  0  0  0  0  0  0  0  0  0  0
    3.0387   20.3789   40.8840 H   0  0  0  0  0  0  0  0  0  0  0  0
    0.1875   16.0427   42.3966 H   0  0  0  0  0  0  0  0  0  0  0  0
    0.8312   19.1588   39.5372 H   0  0  0  0  0  0  0  0  0  0  0  0
    1.9700   21.6813   41.6388 H   0  0  0  0  0  0  0  0  0  0  0  0
    0.4772   21.1239   40.7141 H   0  0  0  0  0  0  0  0  0  0  0  0
    4.4068   16.4952   39.5534 H   0  0  0  0  0  0  0  0  0  0  0  0
    6.9253   16.4206   34.6448 H   0  0  0  0  0  0  0  0  0  0  0  0
    2.1392   14.6331   35.8495 H   0  0  0  0  0  0  0  0  0  0  0  0
    6.5861   15.0032   37.4405 H   0  0  0  0  0  0  0  0  0  0  0  0
    0.7593   14.0753   39.1289 H   0  0  0  0  0  0  0  0  0  0  0  0
   -0.4212   13.2470   38.0579 H   0  0  0  0  0  0  0  0  0  0  0  0
    1.3018   12.7392   38.0579 H   0  0  0  0  0  0  0  0  0  0  0  0
    1.5583   16.9531   39.4558 H   0  0  0  0  0  0  0  0  0  0  0  0
    3.2507   17.3928   39.9310 H   0  0  0  0  0  0  0  0  0  0  0  0
    3.7850   19.0820   38.4593 H   0  0  0  0  0  0  0  0  0  0  0  0
    2.5458   19.1327   37.3788 H   0  0  0  0  0  0  0  0  0  0  0  0
    0.3885   15.5040   37.3317 H   0  0  0  0  0  0  0  0  0  0  0  0
    0.5488   14.1114   36.1486 H   0  0  0  0  0  0  0  0  0  0  0  0
    3.7444   13.6705   35.6259 H   0  0  0  0  0  0  0  0  0  0  0  0
    4.1740   13.6300   37.3497 H   0  0  0  0  0  0  0  0  0  0  0  0
   -1.5255   17.0848   46.2722 H   0  0  0  0  0  0  0  0  0  0  0  0
    0.3850   21.2158   43.7749 H   0  0  0  0  0  0  0  0  0  0  0  0
    1.2274   16.6249   41.2667 H   0  0  0  0  0  0  0  0  0  0  0  0
    2.9084   17.5000   41.6665 H   0  0  0  0  0  0  0  0  0  0  0  0
   -0.5203   19.3927   46.0075 H   0  0  0  0  0  0  0  0  0  0  0  0
  1 19  1  0
  2 12  2  0
  2 26  1  0
  3  6  1  0
  4  5  1  0
  4 24  1  0
  4 22  1  0
  5 15  1  0
  6  9  1  0
  7 19  1  0
  8 21  1  0
  8 20  1  0
  8  6  1  0
  9 12  1  0
 11  5  1  0
 12 28  1  0
 13 23  1  0
 13 25  1  0
 14 30  2  0
 18  5  2  0
 19 27  2  0
 20 29  1  0
 21  3  1  0
 22 17  2  0
 22 25  1  0
 22 10  1  0
 23 16  1  0
 24 13  1  0
 26  7  2  0
 26 14  1  0
 28 14  1  0
 29  2  1  0
 30 27  1  0
  4 31  1  0
  6 32  1  0
  7 33  1  0
  8 34  1  0
  9 35  1  0
  9 36  1  0
 10 37  1  0
 11 38  1  0
 13 39  1  0
 15 40  1  0
 16 41  1  0
 16 42  1  0
 16 43  1  0
 20 44  1  0
 20 45  1  0
 21 46  1  0
 21 47  1  0
 23 48  1  0
 23 49  1  0
 24 50  1  0
 24 51  1  0
 27 52  1  0
 28 53  1  0
 29 54  1  0
 29 55  1  0
 30 56  1  0
M  END
>  <mol_id>  (1) 
2026-09-18-5lvo-s0-n100-0002

>  <rmsd_to_ref>  (1) 


$$$$

     RDKit          3D

 46 47  0  0  0  0  0  0  0  0999 V2000
    3.5600   15.4060   37.1700 N   0  0  0  0  0  0  0  0  0  0  0  0
    1.8450   14.3440   36.0290 N   0  0  0  0  0  4  0  0  0  0  0  0
    1.6670   18.4340   42.5800 C   0  0  0  0  0  0  0  0  0  0  0  0
    2.2140   15.6200   36.5950 C   0  0  0  0  0  0  0  0  0  0  0  0
    1.1340   18.3980   44.0460 C   0  0  0  0  0  0  0  0  0  0  0  0
    3.6030   18.6500   38.8830 C   0  0  0  0  0  0  0  0  0  0  0  0
    2.3990   19.6940   42.1790 C   0  0  0  0  0  0  0  0  0  0  0  0
    0.3810   20.9860   42.9340 C   0  0  0  0  0  0  0  0  0  0  0  0
    3.0270   13.5060   36.0890 C   0  0  0  0  0  0  0  0  0  0  0  0
    1.4720   20.8620   42.0800 C   0  0  0  0  0  0  0  0  0  0  0  0
    3.1730   19.4220   41.0080 O   0  0  0  0  0  0  0  0  0  0  0  0
    2.3020   13.3900   38.5050 S   0  0  0  0  0  0  0  0  0  0  0  0
    3.4150   17.6120   37.9430 C   0  0  0  0  0  0  0  0  0  0  0  0
    2.8080   18.6840   40.0300 N   0  0  0  0  0  0  0  0  0  0  0  0
    5.4350   16.0500   38.2920 C   0  0  0  0  0  0  0  0  0  0  0  0
    4.0560   16.4280   37.9210 C   0  0  0  0  0  0  0  0  0  0  0  0
   -0.3010   20.3120   43.8870 N   0  0  0  0  0  0  0  0  0  0  0  0
    4.4730   19.4590   38.6810 O   0  0  0  0  0  0  0  0  0  0  0  0
    3.6020   13.9840   37.4330 C   0  0  0  0  0  0  0  0  0  0  0  0
    2.8330   18.0800   36.7550 O   0  0  0  0  0  0  0  0  0  0  0  0
   -0.2290   19.0150   44.1740 C   0  0  0  0  0  0  0  0  0  0  0  0
    1.5431   14.4629   35.0515 H   0  0  0  0  0  0  0  0  0  0  0  0
    1.0627   13.9201   36.5479 H   0  0  0  0  0  0  0  0  0  0  0  0
    2.3566   17.5869   42.4503 H   0  0  0  0  0  0  0  0  0  0  0  0
    0.7763   18.3872   41.9362 H   0  0  0  0  0  0  0  0  0  0  0  0
    2.2450   16.3950   35.8150 H   0  0  0  0  0  0  0  0  0  0  0  0
    1.4909   15.9631   37.3496 H   0  0  0  0  0  0  0  0  0  0  0  0
    1.0802   17.3503   44.3768 H   0  0  0  0  0  0  0  0  0  0  0  0
    1.8268   18.9821   44.6696 H   0  0  0  0  0  0  0  0  0  0  0  0
    3.1096   19.9997   42.9610 H   0  0  0  0  0  0  0  0  0  0  0  0
   -0.0873   21.9696   42.7817 H   0  0  0  0  0  0  0  0  0  0  0  0
    2.7721   12.4361   36.1079 H   0  0  0  0  0  0  0  0  0  0  0  0
    3.7079   13.5910   35.2293 H   0  0  0  0  0  0  0  0  0  0  0  0
    2.0869   21.7623   42.2257 H   0  0  0  0  0  0  0  0  0  0  0  0
    0.9957   20.7100   41.1002 H   0  0  0  0  0  0  0  0  0  0  0  0
    2.6746   13.5603   39.8123 H   0  0  0  0  0  0  0  0  0  0  0  0
    2.7777   16.9926   38.5912 H   0  0  0  0  0  0  0  0  0  0  0  0
    1.9444   18.1255   40.0872 H   0  0  0  0  0  0  0  0  0  0  0  0
    5.5261   16.0250   39.3879 H   0  0  0  0  0  0  0  0  0  0  0  0
    5.6655   15.0556   37.8822 H   0  0  0  0  0  0  0  0  0  0  0  0
    6.1403   16.7879   37.8822 H   0  0  0  0  0  0  0  0  0  0  0  0
    3.7402   16.8584   38.8828 H   0  0  0  0  0  0  0  0  0  0  0  0
    4.5848   13.6887   37.8291 H   0  0  0  0  0  0  0  0  0  0  0  0
    2.0803   18.6852   36.9724 H   0  0  0  0  0  0  0  0  0  0  0  0
   -0.9083   18.4796   43.4944 H   0  0  0  0  0  0  0  0  0  0  0  0
   -0.5018   18.9257   45.2359 H   0  0  0  0  0  0  0  0  0  0  0  0
  1 19  1  0
  1 16  1  0
  2  9  1  0
  2  4  1  0
  3  5  1  0
  4  1  1  0
  5 21  1  0
  6 14  1  0
  7 11  1  0
  7  3  1  0
  8 17  2  0
  9 19  1  0
 10  7  1  0
 10  8  1  0
 13 20  1  0
 13  6  1  0
 14 11  1  0
 16 13  1  0
 16 15  1  0
 17 21  1  0
 18  6  2  0
 19 12  1  0
  2 22  1  0
  2 23  1  0
  3 24  1  0
  3 25  1  0
  4 26  1  0
  4 27  1  0
  5 28  1  0
  5 29  1  0
  7 30  1  0
  8 31  1  0
  9 32  1  0
  9 33  1  0
 10 34  1  0
 10 35  1  0
 12 36  1  0
 13 37  1  0
 14 38  1  0
 15 39  1  0
 15 40  1  0
 15 41  1  0
 16 42  1  0
 19 43  1  0
 20 44  1  0
 21 45  1  0
 21 46  1  0
M  CHG  1   2   1
M  END
>  <mol_id>  (2) 
2026-09-18-5lvo-s0-n100-0003

>  <rmsd_to_ref>  (2) 


$$$$

     RDKit          3D

 47 50  0  0  0  0  0  0  0  0999 V2000
   -0.2540   19.3120   44.9600 N   0  0  0  0  0  0  0  0  0  0  0  0
    1.6800   15.2240   43.5220 C   0  0  0  0  0  0  0  0  0  0  0  0
    0.5640   16.0630   42.9640 C   0  0  0  0  0  0  0  0  0  0  0  0
    0.8010   16.4580   40.7120 N   0  0  0  0  0  0  0  0  0  0  0  0
    2.2100   21.8960   37.9500 O   0  0  0  0  0  0  0  0  0  0  0  0
    0.1180   16.8690   44.2130 C   0  0  0  0  0  0  0  0  0  0  0  0
    4.3910   20.7430   38.1910 C   0  0  0  0  0  0  0  0  0  0  0  0
    0.1090   15.4510   40.8490 N   0  0  0  0  0  0  0  0  0  0  0  0
    0.6100   19.0350   42.9960 C   0  0  0  0  0  0  0  0  0  0  0  0
    3.2480   17.2570   37.4690 O   0  0  0  0  0  0  0  0  0  0  0  0
   -0.2540   14.7520   39.5720 C   0  0  0  0  0  0  0  0  0  0  0  0
   -0.0700   20.4830   44.4410 O   0  0  0  0  0  0  0  0  0  0  0  0
    0.8880   16.9630   41.7930 C   0  0  0  0  0  0  0  0  0  0  0  0
    1.9890   19.1840   40.5590 S   0  0  0  0  0  4  0  0  0  0  0  0
    0.1120   18.3440   44.1070 C   0  0  0  0  0  0  0  0  0  0  0  0
    3.6270   18.3970   37.2510 C   0  0  0  0  0  0  0  0  0  0  0  0
    4.4880   17.9810   35.0780 O   0  0  0  0  0  0  0  0  0  0  0  0
    4.0650   18.8470   36.0910 N   0  0  0  0  0  0  0  0  0  0  0  0
    1.1100   18.4090   41.8720 C   0  0  0  0  0  0  0  0  0  0  0  0
   -0.2150   15.1080   42.1100 N   0  0  0  0  0  0  0  0  0  0  0  0
    3.7420   19.3350   38.4280 C   0  0  0  0  0  0  0  0  0  0  0  0
    4.5840   22.0070   37.3610 N   0  0  0  0  0  0  0  0  0  0  0  0
    0.8640   21.4090   42.4390 N   0  0  0  0  0  0  0  0  0  0  0  0
    3.1590   18.9020   39.5290 C   0  0  0  0  0  0  0  0  0  0  0  0
    3.4130   21.7030   37.7560 C   0  0  0  0  0  0  0  0  0  0  0  0
    0.5040   20.3520   43.2290 C   0  0  0  0  0  0  0  0  0  0  0  0
    1.6445   15.2507   44.6211 H   0  0  0  0  0  0  0  0  0  0  0  0
    1.5663   14.1859   43.1766 H   0  0  0  0  0  0  0  0  0  0  0  0
    2.6457   15.6217   43.1766 H   0  0  0  0  0  0  0  0  0  0  0  0
    1.7357   16.2020   40.3631 H   0  0  0  0  0  0  0  0  0  0  0  0
   -0.9057   16.5523   44.4613 H   0  0  0  0  0  0  0  0  0  0  0  0
    0.8777   16.6459   44.9766 H   0  0  0  0  0  0  0  0  0  0  0  0
    5.1888   20.2489   38.7649 H   0  0  0  0  0  0  0  0  0  0  0  0
   -0.7495   13.7978   39.8044 H   0  0  0  0  0  0  0  0  0  0  0  0
   -0.9364   15.3868   38.9877 H   0  0  0  0  0  0  0  0  0  0  0  0
    0.6578   14.5589   38.9877 H   0  0  0  0  0  0  0  0  0  0  0  0
    1.8317   17.1746   42.3171 H   0  0  0  0  0  0  0  0  0  0  0  0
    0.9639   19.5131   39.7119 H   0  0  0  0  0  0  0  0  0  0  0  0
    4.8846   17.1690   35.4823 H   0  0  0  0  0  0  0  0  0  0  0  0
    4.0962   19.8634   35.9271 H   0  0  0  0  0  0  0  0  0  0  0  0
    2.0573   18.2345   42.4032 H   0  0  0  0  0  0  0  0  0  0  0  0
   -1.2267   15.2173   42.2696 H   0  0  0  0  0  0  0  0  0  0  0  0
    2.7516   19.7519   38.1926 H   0  0  0  0  0  0  0  0  0  0  0  0
    5.2099   22.6456   36.8498 H   0  0  0  0  0  0  0  0  0  0  0  0
    0.7138   22.3731   42.7689 H   0  0  0  0  0  0  0  0  0  0  0  0
    1.2853   21.2408   41.5143 H   0  0  0  0  0  0  0  0  0  0  0  0
    3.6894   17.9966   39.8590 H   0  0  0  0  0  0  0  0  0  0  0  0
  3  2  1  0
  3  6  1  0
  4  8  1  0
  7 21  1  0
  8 20  1  0
  9 26  2  0
  9 15  1  0
 11  8  1  0
 12  1  1  0
 13  4  1  0
 13 19  1  0
 13  3  1  0
 15  6  1  0
 15  1  2  0
 16 10  2  0
 16 21  1  0
 17 18  1  0
 18 16  1  0
 19 14  1  0
 19  9  1  0
 20  3  1  0
 21 24  1  0
 22 25  1  0
 22  7  1  0
 23 26  1  0
 24 14  2  3
 25  5  2  0
 25  7  1  0
 26 12  1  0
  2 27  1  0
  2 28  1  0
  2 29  1  0
  4 30  1  0
  6 31  1  0
  6 32  1  0
  7 33  1  0
 11 34  1  0
 11 35  1  0
 11 36  1  0
 13 37  1  0
 14 38  1  0
 17 39  1  0
 18 40  1  0
 19 41  1  0
 20 42  1  0
 21 43  1  0
 22 44  1  0
 23 45  1  0
 23 46  1  0
 24 47  1  0
M  END
>  <mol_id>  (3) 
2026-09-18-5lvo-s0-n100-0004

>  <rmsd_to_ref>  (3) 


$$$$

     RDKit          3D

 37 37  0  0  0  0  0  0  0  0999 V2000
   -0.1420   17.8120   44.9850 C   0  0  0  0  0  0  0  0  0  0  0  0
    3.8240   19.6840   38.8970 C   0  0  0  0  0  0  0  0  0  0  0  0
   -0.0130   20.0800   44.9380 O   0  0  0  0  0  0  0  0  0  0  0  0
    0.6000   20.5600   42.0740 C   0  0  0  0  0  0  0  0  0  0  0  0
    1.2970   18.6330   43.2100 C   0  0  0  0  0  0  0  0  0  0  0  0
    1.6020   18.4090   39.9970 C   0  0  0  0  0  0  0  0  0  0  0  0
    1.6170   19.7500   42.1040 C   0  0  0  0  0  0  0  0  0  0  0  0
   -1.3100   17.5880   44.1590 C   0  0  0  0  0  0  0  0  0  0  0  0
    0.5310   18.9770   44.2760 N   0  0  0  0  0  0  0  0  0  0  0  0
    3.6520   18.5060   38.2260 C   0  0  0  0  0  0  0  0  0  0  0  0
    1.7690   17.5410   43.2220 O   0  0  0  0  0  0  0  0  0  0  0  0
    3.6650   19.3590   40.3960 C   0  0  0  0  0  0  0  0  0  0  0  0
   -1.1370   16.2360   43.2560 C   0  0  0  0  0  0  0  0  0  0  0  0
   -0.3200   21.3240   42.1130 N   0  0  0  0  0  0  0  0  0  0  0  0
    2.2550   17.6420   38.7380 C   0  0  0  0  0  0  0  0  0  0  0  0
    2.2660   19.3930   40.7600 C   0  0  0  0  0  0  0  0  0  0  0  0
    4.8140   17.4480   38.7590 C   0  0  0  0  0  0  0  0  0  0  0  0
   -0.4257   18.0805   46.0133 H   0  0  0  0  0  0  0  0  0  0  0  0
    0.5019   16.9264   45.0904 H   0  0  0  0  0  0  0  0  0  0  0  0
    3.0639   20.4148   38.5835 H   0  0  0  0  0  0  0  0  0  0  0  0
    4.8108   20.1221   38.6866 H   0  0  0  0  0  0  0  0  0  0  0  0
    0.0542   19.9438   45.9163 H   0  0  0  0  0  0  0  0  0  0  0  0
    0.5714   18.1481   40.2797 H   0  0  0  0  0  0  0  0  0  0  0  0
    2.5334   20.2522   42.4476 H   0  0  0  0  0  0  0  0  0  0  0  0
   -2.1927   17.4781   44.8061 H   0  0  0  0  0  0  0  0  0  0  0  0
   -1.4324   18.4477   43.4838 H   0  0  0  0  0  0  0  0  0  0  0  0
    3.6384   18.7730   37.1590 H   0  0  0  0  0  0  0  0  0  0  0  0
    4.0702   18.3563   40.5970 H   0  0  0  0  0  0  0  0  0  0  0  0
    4.2124   20.1063   40.9892 H   0  0  0  0  0  0  0  0  0  0  0  0
   -1.0255   15.3647   43.9181 H   0  0  0  0  0  0  0  0  0  0  0  0
   -2.0254   16.1029   42.6212 H   0  0  0  0  0  0  0  0  0  0  0  0
   -0.2437   16.3309   42.6212 H   0  0  0  0  0  0  0  0  0  0  0  0
    1.5267   17.5957   37.9150 H   0  0  0  0  0  0  0  0  0  0  0  0
    2.5341   16.6183   39.0279 H   0  0  0  0  0  0  0  0  0  0  0  0
    4.8244   17.4385   39.8589 H   0  0  0  0  0  0  0  0  0  0  0  0
    4.5892   16.4380   38.3857 H   0  0  0  0  0  0  0  0  0  0  0  0
    5.7986   17.7662   38.3857 H   0  0  0  0  0  0  0  0  0  0  0  0
  2 12  1  0
  4 14  3  0
  5 11  2  0
  5  9  1  0
  6 16  2  0
  7  4  1  0
  7  5  1  0
  8  1  1  0
  9  3  1  0
  9  1  1  0
 10 15  1  0
 10 17  1  0
 10  2  1  0
 12 16  1  0
 13  8  1  0
 15  6  1  0
 16  7  1  0
  1 18  1  0
  1 19  1  0
  2 20  1  0
  2 21  1  0
  3 22  1  0
  6 23  1  0
  7 24  1  0
  8 25  1  0
  8 26  1  0
 10 27  1  0
 12 28  1  0
 12 29  1  0
 13 30  1  0
 13 31  1  0
 13 32  1  0
 15 33  1  0
 15 34  1  0
 17 35  1  0
 17 36  1  0
 17 37  1  0
M  END
>  <mol_id>  (4) 
2026-09-18-5lvo-s0-n100-0005

>  <rmsd_to_ref>  (4) 


$$$$

     RDKit          3D

 64 66  0  0  0  0  0  0  0  0999 V2000
    2.3840   16.0340   41.3200 C   0  0  0  0  0  0  0  0  0  0  0  0
    1.5540   15.2900   37.3790 C   0  0  0  0  0  0  0  0  0  0  0  0
   -1.4350   14.8350   43.8580 O   0  0  0  0  0  0  0  0  0  0  0  0
    2.4600   18.6930   39.1220 S   0  0  0  0  0  4  0  0  0  0  0  0
    4.1330   14.1170   41.3830 C   0  0  0  0  0  0  0  0  0  0  0  0
   -0.5370   18.2580   44.3220 C   0  0  0  0  0  0  0  0  0  0  0  0
    0.4090   15.6410   42.7020 C   0  0  0  0  0  0  0  0  0  0  0  0
    3.1180   16.1390   39.9280 C   0  0  0  0  0  0  0  0  0  0  0  0
    1.2670   20.7950   42.6930 O   0  0  0  0  0  0  0  0  0  0  0  0
    2.3310   16.6160   37.4960 C   0  0  0  0  0  0  0  0  0  0  0  0
    4.8510   19.1770   38.6360 O   0  0  0  0  0  0  0  0  0  0  0  0
    1.3100   17.9050   42.6150 C   0  0  0  0  0  0  0  0  0  0  0  0
    0.5540   20.1810   43.5040 C   0  0  0  0  0  0  0  0  0  0  0  0
    3.3010   21.1030   38.3330 C   0  0  0  0  0  0  0  0  0  0  0  0
    2.8390   17.1990   38.8150 C   0  0  0  0  0  0  0  0  0  0  0  0
    3.4930   21.5040   36.8400 C   0  0  0  0  0  0  0  0  0  0  0  0
    2.8260   14.6990   41.8970 C   0  0  0  0  0  0  0  0  0  0  0  0
    5.2090   15.7360   37.6670 O   0  0  0  0  0  0  0  0  0  0  0  0
    3.6480   19.6430   38.3270 C   0  0  0  0  0  0  0  0  0  0  0  0
   -0.5890   15.8570   43.6150 C   0  0  0  0  0  0  0  0  0  0  0  0
    1.8040   18.5840   41.4660 C   0  0  0  0  0  0  0  0  0  0  0  0
    4.6150   15.7850   36.5990 C   0  0  0  0  0  0  0  0  0  0  0  0
    2.8540   20.9180   35.8880 O   0  0  0  0  0  0  0  0  0  0  0  0
    0.4760   18.6980   43.5060 C   0  0  0  0  0  0  0  0  0  0  0  0
    3.4500   16.5730   36.5080 C   0  0  0  0  0  0  0  0  0  0  0  0
   -0.1270   20.7060   44.3810 O   0  0  0  0  0  1  0  0  0  0  0  0
   -0.9890   16.9280   44.4600 C   0  0  0  0  0  0  0  0  0  0  0  0
    1.3030   16.5920   42.2630 C   0  0  0  0  0  0  0  0  0  0  0  0
    0.3780   14.4570   41.8110 C   0  0  0  0  0  0  0  0  0  0  0  0
    1.6860   13.6870   41.8900 C   0  0  0  0  0  0  0  0  0  0  0  0
    2.7240   18.3400   40.7350 C   0  0  0  0  0  0  0  0  0  0  0  0
    4.4830   22.2540   36.6850 O   0  0  0  0  0  1  0  0  0  0  0  0
    5.0690   15.2060   35.5270 N   0  0  0  0  0  0  0  0  0  0  0  0
    1.3294   14.9066   38.3853 H   0  0  0  0  0  0  0  0  0  0  0  0
    0.6142   15.4626   36.8341 H   0  0  0  0  0  0  0  0  0  0  0  0
    2.1640   14.5544   36.8341 H   0  0  0  0  0  0  0  0  0  0  0  0
   -2.1713   14.9463   44.5104 H   0  0  0  0  0  0  0  0  0  0  0  0
    1.2977   19.3408   38.7960 H   0  0  0  0  0  0  0  0  0  0  0  0
    4.7685   13.8340   42.2350 H   0  0  0  0  0  0  0  0  0  0  0  0
    3.9227   13.2275   40.7710 H   0  0  0  0  0  0  0  0  0  0  0  0
    4.6534   14.8684   40.7710 H   0  0  0  0  0  0  0  0  0  0  0  0
   -1.0480   19.0192   44.9297 H   0  0  0  0  0  0  0  0  0  0  0  0
    3.9012   15.3948   39.7211 H   0  0  0  0  0  0  0  0  0  0  0  0
    1.5157   17.3330   37.3193 H   0  0  0  0  0  0  0  0  0  0  0  0
    4.9475   19.1396   39.6206 H   0  0  0  0  0  0  0  0  0  0  0  0
    3.9800   21.6699   38.9869 H   0  0  0  0  0  0  0  0  0  0  0  0
    2.2908   21.3111   38.7155 H   0  0  0  0  0  0  0  0  0  0  0  0
    3.8928   17.4906   38.6945 H   0  0  0  0  0  0  0  0  0  0  0  0
    3.0839   14.9418   42.9384 H   0  0  0  0  0  0  0  0  0  0  0  0
    3.6739   19.5365   37.2325 H   0  0  0  0  0  0  0  0  0  0  0  0
    0.9363   18.6211   40.7909 H   0  0  0  0  0  0  0  0  0  0  0  0
    2.2804   19.4182   42.0018 H   0  0  0  0  0  0  0  0  0  0  0  0
    3.8102   17.6100   36.4376 H   0  0  0  0  0  0  0  0  0  0  0  0
    2.9434   16.0568   35.6792 H   0  0  0  0  0  0  0  0  0  0  0  0
   -0.7091   16.6231   45.4792 H   0  0  0  0  0  0  0  0  0  0  0  0
   -2.0448   17.0369   44.1710 H   0  0  0  0  0  0  0  0  0  0  0  0
    0.2175   14.7896   40.7749 H   0  0  0  0  0  0  0  0  0  0  0  0
   -0.4402   13.7956   42.1322 H   0  0  0  0  0  0  0  0  0  0  0  0
    1.7121   13.0883   42.8124 H   0  0  0  0  0  0  0  0  0  0  0  0
    1.7827   13.0070   41.0308 H   0  0  0  0  0  0  0  0  0  0  0  0
    2.9489   17.2663   40.8167 H   0  0  0  0  0  0  0  0  0  0  0  0
    3.5529   18.9866   41.0588 H   0  0  0  0  0  0  0  0  0  0  0  0
    4.5410   15.2688   34.6448 H   0  0  0  0  0  0  0  0  0  0  0  0
    5.9566   14.6845   35.5599 H   0  0  0  0  0  0  0  0  0  0  0  0
  1 17  1  0
  1 28  1  0
  4 19  1  0
  4 31  1  0
  6 27  1  0
  7 20  2  0
  8  1  2  0
  9 13  2  0
 10  2  1  0
 12 24  1  0
 13 24  1  0
 13 26  1  0
 15 10  1  0
 15  4  1  0
 15  8  1  0
 16 14  1  0
 17  5  1  0
 19 14  1  0
 19 11  1  0
 20  3  1  0
 20 27  1  0
 21 12  1  0
 22 18  2  0
 23 16  2  0
 24  6  2  0
 25 22  1  0
 25 10  1  0
 28 12  2  0
 28  7  1  0
 29 30  1  0
 29  7  1  0
 30 17  1  0
 31 21  1  0
 32 16  1  0
 33 22  1  0
  2 34  1  0
  2 35  1  0
  2 36  1  0
  3 37  1  0
  4 38  1  0
  5 39  1  0
  5 40  1  0
  5 41  1  0
  6 42  1  0
  8 43  1  0
 10 44  1  0
 11 45  1  0
 14 46  1  0
 14 47  1  0
 15 48  1  0
 17 49  1  0
 19 50  1  0
 21 51  1  0
 21 52  1  0
 25 53  1  0
 25 54  1  0
 27 55  1  0
 27 56  1  0
 29 57  1  0
 29 58  1  0
 30 59  1  0
 30 60  1  0
 31 61  1  0
 31 62  1  0
 33 63  1  0
 33 64  1  0
M  CHG  2  26  -1  32  -1
M  END
>  <mol_id>  (5) 
2026-09-18-5lvo-s0-n100-0006

>  <rmsd_to_ref>  (5) 


$$$$

     RDKit          3D

 37 39  0  0  0  0  0  0  0  0999 V2000
    0.4670   17.4020   42.6760 N   0  0  0  0  0  0  0  0  0  0  0  0
    3.0730   19.0100   39.4780 C   0  0  0  0  0  0  0  0  0  0  0  0
    0.7230   16.5450   41.5280 C   0  0  0  0  0  0  0  0  0  0  0  0
   -0.8400   15.6020   42.7230 C   0  0  0  0  0  0  0  0  0  0  0  0
   -0.3700   14.5200   40.5280 O   0  0  0  0  0  0  0  0  0  0  0  0
   -0.1750   15.4910   41.4840 C   0  0  0  0  0  0  0  0  0  0  0  0
    4.2260   17.2160   38.1400 C   0  0  0  0  0  0  0  0  0  0  0  0
   -0.3920   16.7210   43.3850 N   0  0  0  0  0  0  0  0  0  0  0  0
   -0.1780   14.7040   39.1160 C   0  0  0  0  0  0  0  0  0  0  0  0
    3.6270   19.6590   37.3490 O   0  0  0  0  0  0  0  0  0  0  0  0
    2.5950   19.3850   40.7250 C   0  0  0  0  0  0  0  0  0  0  0  0
    1.2520   18.5380   42.7690 C   0  0  0  0  0  0  0  0  0  0  0  0
    3.8760   21.1430   38.9030 O   0  0  0  0  0  1  0  0  0  0  0  0
    3.1460   17.6550   39.1300 C   0  0  0  0  0  0  0  0  0  0  0  0
    1.7580   17.1350   40.9200 C   0  0  0  0  0  0  0  0  0  0  0  0
    3.5210   19.9980   38.5120 C   0  0  0  0  0  0  0  0  0  0  0  0
    1.9950   18.4340   41.5280 C   0  0  0  0  0  0  0  0  0  0  0  0
    2.4300   16.7050   39.7320 C   0  0  0  0  0  0  0  0  0  0  0  0
    3.5590   16.4720   36.9120 C   0  0  0  0  0  0  0  0  0  0  0  0
    5.2200   16.3930   38.7460 O   0  0  0  0  0  0  0  0  0  0  0  0
    4.0921   18.9481   39.8873 H   0  0  0  0  0  0  0  0  0  0  0  0
   -1.5994   14.9018   43.1012 H   0  0  0  0  0  0  0  0  0  0  0  0
    4.7390   18.1224   37.7862 H   0  0  0  0  0  0  0  0  0  0  0  0
    0.6068   15.4561   38.9476 H   0  0  0  0  0  0  0  0  0  0  0  0
    0.1245   13.7499   38.6597 H   0  0  0  0  0  0  0  0  0  0  0  0
   -1.1183   15.0468   38.6597 H   0  0  0  0  0  0  0  0  0  0  0  0
    2.6922   20.4250   41.0698 H   0  0  0  0  0  0  0  0  0  0  0  0
    0.6428   19.4532   42.8044 H   0  0  0  0  0  0  0  0  0  0  0  0
    1.8716   18.5996   43.6758 H   0  0  0  0  0  0  0  0  0  0  0  0
    2.1733   17.9237   38.6922 H   0  0  0  0  0  0  0  0  0  0  0  0
    2.4913   16.3456   40.6985 H   0  0  0  0  0  0  0  0  0  0  0  0
    1.6733   16.3418   39.0210 H   0  0  0  0  0  0  0  0  0  0  0  0
    3.1404   15.9231   40.0386 H   0  0  0  0  0  0  0  0  0  0  0  0
    2.8675   15.7007   37.2822 H   0  0  0  0  0  0  0  0  0  0  0  0
    3.0043   17.1987   36.3003 H   0  0  0  0  0  0  0  0  0  0  0  0
    4.3418   15.9996   36.3003 H   0  0  0  0  0  0  0  0  0  0  0  0
    5.1445   16.4555   39.7311 H   0  0  0  0  0  0  0  0  0  0  0  0
  1 12  1  0
  1  8  1  0
  2 16  1  0
  2 11  1  0
  3  1  1  0
  4  8  2  0
  5  6  1  0
  6  3  2  0
  6  4  1  0
  7 19  1  0
  7 20  1  0
  9  5  1  0
 10 16  2  0
 11 17  2  0
 14  7  1  0
 14  2  1  0
 14 18  1  0
 15 18  1  0
 15 17  1  0
 15  3  1  0
 16 13  1  0
 17 12  1  0
  2 21  1  0
  4 22  1  0
  7 23  1  0
  9 24  1  0
  9 25  1  0
  9 26  1  0
 11 27  1  0
 12 28  1  0
 12 29  1  0
 14 30  1  0
 15 31  1  0
 18 32  1  0
 18 33  1  0
 19 34  1  0
 19 35  1  0
 19 36  1  0
 20 37  1  0
M  CHG  1  13  -1
M  END
>  <mol_id>  (6) 
2026-09-18-5lvo-s0-n100-0008

>  <rmsd_to_ref>  (6) 


$$$$

     RDKit          3D

 46 48  0  0  0  0  0  0  0  0999 V2000
    2.6970   20.2450   39.2450 C   0  0  0  0  0  0  0  0  0  0  0  0
    1.1600   15.0140   37.3630 S   0  0  0  0  0  0  0  0  0  0  0  0
    3.0570   16.4580   38.4190 C   0  0  0  0  0  0  0  0  0  0  0  0
    2.1020   19.9990   40.6330 C   0  0  0  0  0  0  0  0  0  0  0  0
    3.5430   18.6690   37.5690 N   0  0  0  0  0  4  0  0  0  0  0  0
    0.8310   21.0470   42.5000 C   0  0  0  0  0  0  0  0  0  0  0  0
   -0.0090   14.5750   38.5480 C   0  0  0  0  0  0  0  0  0  0  0  0
    1.4460   21.0090   41.2680 C   0  0  0  0  0  0  0  0  0  0  0  0
    0.3780   15.4760   45.0540 N   0  0  0  0  0  0  0  0  0  0  0  0
   -0.5120   18.8080   44.9340 N   0  0  0  0  0  0  0  0  0  0  0  0
    0.9320   18.5650   43.2020 C   0  0  0  0  0  0  0  0  0  0  0  0
    2.1370   18.6500   41.0230 C   0  0  0  0  0  0  0  0  0  0  0  0
    0.8320   15.1670   39.6080 C   0  0  0  0  0  0  0  0  0  0  0  0
   -0.3010   19.9730   44.3510 N   0  0  0  0  0  0  0  0  0  0  0  0
    5.0120   16.0470   36.5470 N   0  0  0  0  0  4  0  0  0  0  0  0
    1.6520   17.9990   42.1190 C   0  0  0  0  0  0  0  0  0  0  0  0
    3.0320   17.3460   37.1680 C   0  0  0  0  0  0  0  0  0  0  0  0
    0.5440   19.9720   43.2930 C   0  0  0  0  0  0  0  0  0  0  0  0
    1.8760   15.5770   38.6150 C   0  0  0  0  0  0  0  0  0  0  0  0
    0.3090   17.9290   44.2590 C   0  0  0  0  0  0  0  0  0  0  0  0
    3.6740   19.1550   38.8940 C   0  0  0  0  0  0  0  0  0  0  0  0
    0.4910   16.5670   44.6160 C   0  0  0  0  0  0  0  0  0  0  0  0
    4.0600   17.0690   36.0980 C   0  0  0  0  0  0  0  0  0  0  0  0
    1.8872   20.2598   38.5006 H   0  0  0  0  0  0  0  0  0  0  0  0
    3.2243   21.2104   39.2480 H   0  0  0  0  0  0  0  0  0  0  0  0
    3.9490   15.8171   38.3593 H   0  0  0  0  0  0  0  0  0  0  0  0
    3.0569   17.1497   39.2743 H   0  0  0  0  0  0  0  0  0  0  0  0
    2.9310   19.3478   37.0940 H   0  0  0  0  0  0  0  0  0  0  0  0
    4.5380   18.5467   37.3326 H   0  0  0  0  0  0  0  0  0  0  0  0
    0.5434   22.0377   42.8820 H   0  0  0  0  0  0  0  0  0  0  0  0
   -0.9833   15.0695   38.4207 H   0  0  0  0  0  0  0  0  0  0  0  0
   -0.3510   13.5327   38.6294 H   0  0  0  0  0  0  0  0  0  0  0  0
    1.3993   21.9517   40.7031 H   0  0  0  0  0  0  0  0  0  0  0  0
    2.6543   17.9933   40.3080 H   0  0  0  0  0  0  0  0  0  0  0  0
    0.3586   16.0136   40.1268 H   0  0  0  0  0  0  0  0  0  0  0  0
    1.1208   14.5543   40.4747 H   0  0  0  0  0  0  0  0  0  0  0  0
    5.0322   16.0253   37.5766 H   0  0  0  0  0  0  0  0  0  0  0  0
    4.7207   15.1259   36.1898 H   0  0  0  0  0  0  0  0  0  0  0  0
    5.9514   16.2723   36.1898 H   0  0  0  0  0  0  0  0  0  0  0  0
    1.8398   16.9163   42.1684 H   0  0  0  0  0  0  0  0  0  0  0  0
    2.0055   17.2129   36.7958 H   0  0  0  0  0  0  0  0  0  0  0  0
    2.7472   15.6835   39.2780 H   0  0  0  0  0  0  0  0  0  0  0  0
    3.5194   18.3152   39.5875 H   0  0  0  0  0  0  0  0  0  0  0  0
    4.6806   19.5911   38.9753 H   0  0  0  0  0  0  0  0  0  0  0  0
    3.5500   16.7138   35.1904 H   0  0  0  0  0  0  0  0  0  0  0  0
    4.6107   17.9976   35.8872 H   0  0  0  0  0  0  0  0  0  0  0  0
  1  4  1  0
  2  7  1  0
  2 19  1  0
  4 12  1  0
  4  8  2  0
  5 21  1  0
  6 18  2  0
  7 13  1  0
  8  6  1  0
 11 18  1  0
 11 20  2  0
 12 16  2  0
 14 10  2  0
 16 11  1  0
 17 23  1  0
 17  5  1  0
 17  3  1  0
 18 14  1  0
 19  3  1  0
 19 13  1  0
 20 22  1  0
 20 10  1  0
 21  1  1  0
 22  9  3  0
 23 15  1  0
  1 24  1  0
  1 25  1  0
  3 26  1  0
  3 27  1  0
  5 28  1  0
  5 29  1  0
  6 30  1  0
  7 31  1  0
  7 32  1  0
  8 33  1  0
 12 34  1  0
 13 35  1  0
 13 36  1  0
 15 37  1  0
 15 38  1  0
 15 39  1  0
 16 40  1  0
 17 41  1  0
 19 42  1  0
 21 43  1  0
 21 44  1  0
 23 45  1  0
 23 46  1  0
M  CHG  2   5   1  15   1
M  END
>  <mol_id>  (7) 
2026-09-18-5lvo-s0-n100-0009

>  <rmsd_to_ref>  (7) 


$$$$

     RDKit          3D

 52 55  0  0  0  0  0  0  0  0999 V2000
   -0.0980   16.2500   43.1670 N   0  0  0  0  0  0  0  0  0  0  0  0
    3.4930   20.1440   40.3900 C   0  0  0  0  0  0  0  0  0  0  0  0
    3.7630   19.6370   36.8680 N   0  0  0  0  0  0  0  0  0  0  0  0
    2.1610   16.8690   41.6770 F   0  0  0  0  0  0  0  0  0  0  0  0
    1.4460   17.8290   42.2900 C   0  0  0  0  0  0  0  0  0  0  0  0
    3.7730   18.4840   38.6800 N   0  0  0  0  0  0  0  0  0  0  0  0
    3.5360   13.9010   35.4890 C   0  0  0  0  0  0  0  0  0  0  0  0
    3.4690   17.1950   36.6760 C   0  0  0  0  0  0  0  0  0  0  0  0
   -0.2910   15.1730   44.0640 C   0  0  0  0  0  0  0  0  0  0  0  0
    3.3980   14.8080   36.4540 N   0  0  0  0  0  0  0  0  0  0  0  0
    0.2190   18.6040   44.2010 C   0  0  0  0  0  0  0  0  0  0  0  0
    2.6830   13.0330   35.5470 N   0  0  0  0  0  0  0  0  0  0  0  0
   -0.6490   15.5660   45.5300 C   0  0  0  0  0  0  0  0  0  0  0  0
    3.7350   18.4910   37.3840 N   0  0  0  0  0  0  0  0  0  0  0  0
    2.4130   19.2690   40.7880 O   0  0  0  0  0  0  0  0  0  0  0  0
   -1.2020   14.0370   43.6100 C   0  0  0  0  0  0  0  0  0  0  0  0
   -1.2830   16.9950   45.7760 C   0  0  0  0  0  0  0  0  0  0  0  0
    1.8520   13.3020   36.5460 N   0  0  0  0  0  0  0  0  0  0  0  0
    3.7750   20.5140   37.8880 C   0  0  0  0  0  0  0  0  0  0  0  0
    0.4340   19.8660   43.8870 N   0  0  0  0  0  0  0  0  0  0  0  0
    2.1450   14.5120   36.9650 C   0  0  0  0  0  0  0  0  0  0  0  0
    1.1180   20.1320   42.7400 C   0  0  0  0  0  0  0  0  0  0  0  0
   -0.3400   18.2220   45.6380 C   0  0  0  0  0  0  0  0  0  0  0  0
    3.7940   19.7510   38.9640 C   0  0  0  0  0  0  0  0  0  0  0  0
    4.2130   15.9240   36.8940 C   0  0  0  0  0  0  0  0  0  0  0  0
    1.6160   19.1490   41.9620 C   0  0  0  0  0  0  0  0  0  0  0  0
    0.5280   17.5530   43.3420 C   0  0  0  0  0  0  0  0  0  0  0  0
   -0.4666   16.0822   42.2199 H   0  0  0  0  0  0  0  0  0  0  0  0
    3.1802   21.1971   40.4450 H   0  0  0  0  0  0  0  0  0  0  0  0
    4.3719   20.0470   41.0443 H   0  0  0  0  0  0  0  0  0  0  0  0
    4.5262   13.4313   35.5835 H   0  0  0  0  0  0  0  0  0  0  0  0
    3.4275   14.4166   34.5234 H   0  0  0  0  0  0  0  0  0  0  0  0
    3.5834   17.4194   35.6052 H   0  0  0  0  0  0  0  0  0  0  0  0
    2.4974   16.9289   37.1178 H   0  0  0  0  0  0  0  0  0  0  0  0
    0.7342   14.7744   44.0514 H   0  0  0  0  0  0  0  0  0  0  0  0
    2.1586   13.0059   34.6609 H   0  0  0  0  0  0  0  0  0  0  0  0
   -1.3657   14.8201   45.9041 H   0  0  0  0  0  0  0  0  0  0  0  0
    0.3183   15.5979   46.0528 H   0  0  0  0  0  0  0  0  0  0  0  0
   -1.6141   13.5231   44.4910 H   0  0  0  0  0  0  0  0  0  0  0  0
   -2.0251   14.4462   43.0058 H   0  0  0  0  0  0  0  0  0  0  0  0
   -0.6238   13.3224   43.0058 H   0  0  0  0  0  0  0  0  0  0  0  0
   -2.1014   17.1232   45.0523 H   0  0  0  0  0  0  0  0  0  0  0  0
   -1.5915   16.9910   46.8319 H   0  0  0  0  0  0  0  0  0  0  0  0
    0.8769   13.2670   36.2159 H   0  0  0  0  0  0  0  0  0  0  0  0
    3.7701   21.6128   37.8367 H   0  0  0  0  0  0  0  0  0  0  0  0
    2.1659   14.5396   38.0645 H   0  0  0  0  0  0  0  0  0  0  0  0
    1.3942   15.2433   36.6310 H   0  0  0  0  0  0  0  0  0  0  0  0
    1.2689   21.1792   42.4390 H   0  0  0  0  0  0  0  0  0  0  0  0
    0.5307   18.0339   46.2834 H   0  0  0  0  0  0  0  0  0  0  0  0
   -0.9767   19.0768   45.9099 H   0  0  0  0  0  0  0  0  0  0  0  0
    5.1501   15.9438   36.3182 H   0  0  0  0  0  0  0  0  0  0  0  0
    4.4436   15.8117   37.9637 H   0  0  0  0  0  0  0  0  0  0  0  0
  1 27  1  0
  1  9  1  0
  2 15  1  0
  3 14  1  0
  3 19  2  0
  4  5  1  0
  5 27  2  0
  6 24  2  0
  7 12  1  0
  7 10  1  0
  8 25  1  0
  8 14  1  0
  9 16  1  0
  9 13  1  0
 10 25  1  0
 10 21  1  0
 11 23  1  0
 12 18  1  0
 13 17  1  0
 14  6  1  0
 15 26  1  0
 18 21  1  0
 19 24  1  0
 20 11  2  0
 22 20  1  0
 23 17  1  0
 24  2  1  0
 26  5  1  0
 26 22  2  0
 27 11  1  0
  1 28  1  0
  2 29  1  0
  2 30  1  0
  7 31  1  0
  7 32  1  0
  8 33  1  0
  8 34  1  0
  9 35  1  0
 12 36  1  0
 13 37  1  0
 13 38  1  0
 16 39  1  0
 16 40  1  0
 16 41  1  0
 17 42  1  0
 17 43  1  0
 18 44  1  0
 19 45  1  0
 21 46  1  0
 21 47  1  0
 22 48  1  0
 23 49  1  0
 23 50  1  0
 25 51  1  0
 25 52  1  0
M  END
>  <mol_id>  (8) 
2026-09-18-5lvo-s0-n100-0010

>  <rmsd_to_ref>  (8) 


$$$$

     RDKit          3D

 61 62  0  0  0  0  0  0  0  0999 V2000
   -0.3410   15.9300   43.8270 C   0  0  0  0  0  0  0  0  0  0  0  0
    5.4580   17.3890   34.7400 O   0  0  0  0  0  0  0  0  0  0  0  0
    0.4750   17.0190   40.6180 C   0  0  0  0  0  0  0  0  0  0  0  0
    0.0610   18.3240   44.7680 C   0  0  0  0  0  0  0  0  0  0  0  0
    3.9620   18.5680   36.1290 C   0  0  0  0  0  0  0  0  0  0  0  0
    4.8280   18.6210   34.8810 C   0  0  0  0  0  0  0  0  0  0  0  0
    1.6910   13.7690   35.4750 O   0  0  0  0  0  0  0  0  0  0  0  0
    2.6790   18.0320   40.7600 C   0  0  0  0  0  0  0  0  0  0  0  0
    2.7530   15.7290   36.2900 C   0  0  0  0  0  0  0  0  0  0  0  0
    3.4450   20.8790   35.9580 O   0  0  0  0  0  0  0  0  0  0  0  0
    2.8210   15.3410   42.8900 C   0  0  0  0  0  0  0  0  0  0  0  0
   -0.6050   18.1850   45.9330 N   0  0  0  0  0  4  0  0  0  0  0  0
    3.3570   17.1530   39.6660 C   0  0  0  0  0  0  0  0  0  0  0  0
    1.1310   17.9120   42.8530 C   0  0  0  0  0  0  0  0  0  0  0  0
    1.8200   15.3110   38.7590 C   0  0  0  0  0  0  0  0  0  0  0  0
    0.0440   20.7340   44.6660 O   0  0  0  0  0  0  0  0  0  0  0  0
    1.9200   15.9330   41.9520 O   0  0  0  0  0  0  0  0  0  0  0  0
    1.7680   17.3060   41.6130 C   0  0  0  0  0  0  0  0  0  0  0  0
    0.4130   17.2650   43.7720 C   0  0  0  0  0  0  0  0  0  0  0  0
    0.3640   19.5750   44.1870 C   0  0  0  0  0  0  0  0  0  0  0  0
    4.5350   20.2230   37.8090 O   0  0  0  0  0  1  0  0  0  0  0  0
   -1.0310   16.9790   46.5990 C   0  0  0  0  0  0  0  0  0  0  0  0
   -1.7750   15.9340   43.3320 C   0  0  0  0  0  0  0  0  0  0  0  0
    4.1930   17.7020   37.1370 O   0  0  0  0  0  0  0  0  0  0  0  0
    2.7470   16.3430   38.5610 C   0  0  0  0  0  0  0  0  0  0  0  0
    1.4620   14.3900   37.7950 C   0  0  0  0  0  0  0  0  0  0  0  0
    3.1770   16.5880   37.3380 C   0  0  0  0  0  0  0  0  0  0  0  0
    4.0240   20.0360   36.6750 C   0  0  0  0  0  0  0  0  0  0  0  0
    1.6150   20.7710   42.1660 Cl  0  0  0  0  0  0  0  0  0  0  0  0
    1.0770   19.3690   43.0420 C   0  0  0  0  0  0  0  0  0  0  0  0
    1.8620   14.6650   36.5590 C   0  0  0  0  0  0  0  0  0  0  0  0
    0.2195   15.2058   43.2176 H   0  0  0  0  0  0  0  0  0  0  0  0
   -0.4060   15.6798   44.8962 H   0  0  0  0  0  0  0  0  0  0  0  0
    5.6505   17.0125   35.6351 H   0  0  0  0  0  0  0  0  0  0  0  0
   -0.4193   16.8205   41.2269 H   0  0  0  0  0  0  0  0  0  0  0  0
    0.2982   17.8998   39.9832 H   0  0  0  0  0  0  0  0  0  0  0  0
    0.6875   16.1462   39.9832 H   0  0  0  0  0  0  0  0  0  0  0  0
    2.9979   18.1612   35.7899 H   0  0  0  0  0  0  0  0  0  0  0  0
    5.5816   19.4157   34.9835 H   0  0  0  0  0  0  0  0  0  0  0  0
    4.2099   18.8365   33.9970 H   0  0  0  0  0  0  0  0  0  0  0  0
    1.0858   12.9909   35.5667 H   0  0  0  0  0  0  0  0  0  0  0  0
    2.1189   18.8360   40.2601 H   0  0  0  0  0  0  0  0  0  0  0  0
    3.4834   18.4151   41.4051 H   0  0  0  0  0  0  0  0  0  0  0  0
    3.1190   15.8920   35.2655 H   0  0  0  0  0  0  0  0  0  0  0  0
    2.4833   15.5629   43.9131 H   0  0  0  0  0  0  0  0  0  0  0  0
    2.8435   14.2516   42.7395 H   0  0  0  0  0  0  0  0  0  0  0  0
    3.8298   15.7528   42.7395 H   0  0  0  0  0  0  0  0  0  0  0  0
   -0.0110   18.6631   46.6255 H   0  0  0  0  0  0  0  0  0  0  0  0
   -1.5290   18.5059   45.6103 H   0  0  0  0  0  0  0  0  0  0  0  0
    4.0341   17.8471   39.1466 H   0  0  0  0  0  0  0  0  0  0  0  0
    3.6468   16.3139   40.3156 H   0  0  0  0  0  0  0  0  0  0  0  0
    1.3461   15.2293   39.7483 H   0  0  0  0  0  0  0  0  0  0  0  0
    0.0543   20.6965   45.6552 H   0  0  0  0  0  0  0  0  0  0  0  0
    1.3108   19.6053   44.7461 H   0  0  0  0  0  0  0  0  0  0  0  0
   -0.9798   17.1240   47.6882 H   0  0  0  0  0  0  0  0  0  0  0  0
   -2.0659   16.7457   46.3084 H   0  0  0  0  0  0  0  0  0  0  0  0
   -0.3722   16.1474   46.3084 H   0  0  0  0  0  0  0  0  0  0  0  0
   -2.4600   15.9359   44.1927 H   0  0  0  0  0  0  0  0  0  0  0  0
   -1.9499   16.8326   42.7222 H   0  0  0  0  0  0  0  0  0  0  0  0
   -1.9549   15.0364   42.7222 H   0  0  0  0  0  0  0  0  0  0  0  0
    0.8826   13.4864   38.0353 H   0  0  0  0  0  0  0  0  0  0  0  0
  2  6  1  0
  4 12  1  0
  5  6  1  0
  5 28  1  0
  5 24  1  0
  7 31  1  0
  8 18  1  0
  9 31  2  0
  9 27  1  0
 10 28  2  0
 12 22  1  0
 13  8  1  0
 14 30  2  0
 14 19  1  0
 17 11  1  0
 18  3  1  0
 18 17  1  0
 18 14  1  0
 19  1  1  0
 19  4  2  0
 20 16  1  0
 20  4  1  0
 23  1  1  0
 24 27  1  0
 25 15  1  0
 25 13  1  0
 26 15  2  0
 27 25  2  0
 28 21  1  0
 29 30  1  0
 30 20  1  0
 31 26  1  0
  1 32  1  0
  1 33  1  0
  2 34  1  0
  3 35  1  0
  3 36  1  0
  3 37  1  0
  5 38  1  0
  6 39  1  0
  6 40  1  0
  7 41  1  0
  8 42  1  0
  8 43  1  0
  9 44  1  0
 11 45  1  0
 11 46  1  0
 11 47  1  0
 12 48  1  0
 12 49  1  0
 13 50  1  0
 13 51  1  0
 15 52  1  0
 16 53  1  0
 20 54  1  0
 22 55  1  0
 22 56  1  0
 22 57  1  0
 23 58  1  0
 23 59  1  0
 23 60  1  0
 26 61  1  0
M  CHG  2  12   1  21  -1
M  END
>  <mol_id>  (9) 
2026-09-18-5lvo-s0-n100-0011

>  <rmsd_to_ref>  (9) 


$$$$

     RDKit          3D

 48 50  0  0  0  0  0  0  0  0999 V2000
   -0.4300   17.0220   43.3010 C   0  0  0  0  0  0  0  0  0  0  0  0
    0.2690   14.3240   39.7600 C   0  0  0  0  0  0  0  0  0  0  0  0
    1.1530   14.7350   38.8140 C   0  0  0  0  0  0  0  0  0  0  0  0
    3.9960   18.3800   37.4150 C   0  0  0  0  0  0  0  0  0  0  0  0
    1.8700   15.9050   39.0820 C   0  0  0  0  0  0  0  0  0  0  0  0
    3.1280   18.4740   39.4920 O   0  0  0  0  0  0  0  0  0  0  0  0
    0.6330   16.9200   42.3970 C   0  0  0  0  0  0  0  0  0  0  0  0
    4.3730   17.8150   36.1450 O   0  0  0  0  0  0  0  0  0  0  0  0
    3.7360   19.7960   37.5330 C   0  0  0  0  0  0  0  0  0  0  0  0
    3.6880   16.6500   35.8880 C   0  0  0  0  0  0  0  0  0  0  0  0
   -0.7310   18.0730   44.2820 C   0  0  0  0  0  0  0  0  0  0  0  0
    0.7750   16.0760   41.2390 C   0  0  0  0  0  0  0  0  0  0  0  0
    3.5170   19.8940   39.0830 N   0  0  0  0  0  0  0  0  0  0  0  0
    1.3440   18.4400   45.3320 F   0  0  0  0  0  0  0  0  0  0  0  0
   -1.4130   15.9080   43.4980 C   0  0  0  0  0  0  0  0  0  0  0  0
    2.8490   16.5220   38.0910 C   0  0  0  0  0  0  0  0  0  0  0  0
   -1.9960   16.1150   44.7500 O   0  0  0  0  0  0  0  0  0  0  0  0
    2.5580   16.9510   36.7760 C   0  0  0  0  0  0  0  0  0  0  0  0
    1.7000   16.5100   40.2610 C   0  0  0  0  0  0  0  0  0  0  0  0
   -0.1810   20.2880   44.9610 F   0  0  0  0  0  0  0  0  0  0  0  0
    0.9890   19.4340   43.2660 F   0  0  0  0  0  0  0  0  0  0  0  0
    0.3780   19.0480   44.4500 C   0  0  0  0  0  0  0  0  0  0  0  0
    4.9770   16.9690   39.3970 C   0  0  0  0  0  0  0  0  0  0  0  0
    3.5040   20.6890   36.8410 O   0  0  0  0  0  0  0  0  0  0  0  0
    0.1270   14.8880   41.0250 C   0  0  0  0  0  0  0  0  0  0  0  0
    3.8020   17.5190   38.6620 C   0  0  0  0  0  0  0  0  0  0  0  0
   -1.0650   17.4419   42.5070 H   0  0  0  0  0  0  0  0  0  0  0  0
   -0.3869   13.4782   39.5064 H   0  0  0  0  0  0  0  0  0  0  0  0
    1.2981   14.1729   37.8797 H   0  0  0  0  0  0  0  0  0  0  0  0
    5.0559   18.5549   37.6518 H   0  0  0  0  0  0  0  0  0  0  0  0
    0.7529   17.9405   42.0043 H   0  0  0  0  0  0  0  0  0  0  0  0
    1.3381   16.3907   43.0548 H   0  0  0  0  0  0  0  0  0  0  0  0
    3.3888   16.5545   34.8338 H   0  0  0  0  0  0  0  0  0  0  0  0
    4.2219   15.7023   36.0518 H   0  0  0  0  0  0  0  0  0  0  0  0
   -1.6276   18.6164   43.9490 H   0  0  0  0  0  0  0  0  0  0  0  0
   -0.8852   17.5807   45.2535 H   0  0  0  0  0  0  0  0  0  0  0  0
    3.6132   20.7236   39.6858 H   0  0  0  0  0  0  0  0  0  0  0  0
   -2.1813   15.9347   42.7112 H   0  0  0  0  0  0  0  0  0  0  0  0
   -0.9198   14.9262   43.4446 H   0  0  0  0  0  0  0  0  0  0  0  0
    3.2260   15.5052   37.9067 H   0  0  0  0  0  0  0  0  0  0  0  0
   -1.3452   15.8839   45.4593 H   0  0  0  0  0  0  0  0  0  0  0  0
    2.3757   18.0358   36.7787 H   0  0  0  0  0  0  0  0  0  0  0  0
    1.6635   16.4233   36.4136 H   0  0  0  0  0  0  0  0  0  0  0  0
    2.3138   17.3953   40.4836 H   0  0  0  0  0  0  0  0  0  0  0  0
    4.8029   17.0505   40.4801 H   0  0  0  0  0  0  0  0  0  0  0  0
    5.1167   15.9119   39.1266 H   0  0  0  0  0  0  0  0  0  0  0  0
    5.8782   17.5388   39.1266 H   0  0  0  0  0  0  0  0  0  0  0  0
   -0.4733   14.4056   41.8105 H   0  0  0  0  0  0  0  0  0  0  0  0
  1  7  1  0
  1 15  1  0
  1 11  1  0
  2 25  2  0
  3  5  2  0
  3  2  1  0
  4  8  1  0
  4  9  1  0
  4 26  1  0
  5 19  1  0
  9 13  1  0
 10  8  1  0
 10 18  1  0
 11 22  1  0
 12  7  1  0
 13  6  1  0
 15 17  1  0
 16 26  1  0
 16  5  1  0
 18 16  1  0
 19 12  2  0
 21 22  1  0
 22 20  1  0
 22 14  1  0
 24  9  2  0
 25 12  1  0
 26 23  1  0
 26  6  1  0
  1 27  1  0
  2 28  1  0
  3 29  1  0
  4 30  1  0
  7 31  1  0
  7 32  1  0
 10 33  1  0
 10 34  1  0
 11 35  1  0
 11 36  1  0
 13 37  1  0
 15 38  1  0
 15 39  1  0
 16 40  1  0
 17 41  1  0
 18 42  1  0
 18 43  1  0
 19 44  1  0
 23 45  1  0
 23 46  1  0
 23 47  1  0
 25 48  1  0
M  END
>  <mol_id>  (10) 
2026-09-18-5lvo-s0-n100-0012

>  <rmsd_to_ref>  (10) 


$$$$

     RDKit          3D

 51 51  0  0  0  0  0  0  0  0999 V2000
    2.0610   20.0940   41.6570 C   0  0  0  0  0  0  0  0  0  0  0  0
    3.4300   17.0770   39.3450 C   0  0  0  0  0  0  0  0  0  0  0  0
    3.7470   19.4390   38.9210 C   0  0  0  0  0  0  0  0  0  0  0  0
   -0.5330   17.9930   46.3960 O   0  0  0  0  0  0  0  0  0  0  0  0
    3.7440   16.2260   37.1270 C   0  0  0  0  0  0  0  0  0  0  0  0
    0.8520   19.8040   43.9470 C   0  0  0  0  0  0  0  0  0  0  0  0
    2.9550   17.2990   40.5450 C   0  0  0  0  0  0  0  0  0  0  0  0
    0.3110   21.0200   43.6420 O   0  0  0  0  0  0  0  0  0  0  0  0
   -0.4800   17.8510   45.2180 C   0  0  0  0  0  0  0  0  0  0  0  0
    1.2600   17.9990   42.1210 C   0  0  0  0  0  0  0  0  0  0  0  0
   -0.2460   19.0640   44.4880 N   0  0  0  0  0  0  0  0  0  0  0  0
   -0.7090   16.5120   44.5340 C   0  0  0  0  0  0  0  0  0  0  0  0
    1.4040   19.2350   42.5620 C   0  0  0  0  0  0  0  0  0  0  0  0
    3.7990   20.3990   37.9460 O   0  0  0  0  0  0  0  0  0  0  0  0
    3.7290   17.8400   37.1000 C   0  0  0  0  0  0  0  0  0  0  0  0
    2.8390   16.7820   36.6030 C   0  0  0  0  0  0  0  0  0  0  0  0
    3.5670   14.7490   39.3130 C   0  0  0  0  0  0  0  0  0  0  0  0
    3.6090   18.2040   38.5050 C   0  0  0  0  0  0  0  0  0  0  0  0
    4.2300   15.9120   38.5900 C   0  0  0  0  0  0  0  0  0  0  0  0
    4.6390   15.1880   36.2330 C   0  0  0  0  0  0  0  0  0  0  0  0
    2.2900   17.5130   41.3530 C   0  0  0  0  0  0  0  0  0  0  0  0
    5.6990   15.9180   38.7680 C   0  0  0  0  0  0  0  0  0  0  0  0
    2.6362   20.8460   42.2170 H   0  0  0  0  0  0  0  0  0  0  0  0
    2.7431   19.5074   41.0240 H   0  0  0  0  0  0  0  0  0  0  0  0
    1.3163   20.5987   41.0240 H   0  0  0  0  0  0  0  0  0  0  0  0
    2.6769   16.3959   39.7680 H   0  0  0  0  0  0  0  0  0  0  0  0
    3.8169   19.6895   39.9898 H   0  0  0  0  0  0  0  0  0  0  0  0
    3.4787   17.2799   37.2972 H   0  0  0  0  0  0  0  0  0  0  0  0
    1.6811   19.7871   44.6697 H   0  0  0  0  0  0  0  0  0  0  0  0
    0.0955   21.5044   44.4781 H   0  0  0  0  0  0  0  0  0  0  0  0
    1.1508   17.3398   42.9948 H   0  0  0  0  0  0  0  0  0  0  0  0
    0.3799   18.0185   41.4614 H   0  0  0  0  0  0  0  0  0  0  0  0
   -1.1355   19.5465   44.2960 H   0  0  0  0  0  0  0  0  0  0  0  0
   -0.8428   15.7295   45.2954 H   0  0  0  0  0  0  0  0  0  0  0  0
   -1.6102   16.5705   43.9060 H   0  0  0  0  0  0  0  0  0  0  0  0
    0.1604   16.2677   43.9060 H   0  0  0  0  0  0  0  0  0  0  0  0
    2.3725   18.9633   43.0072 H   0  0  0  0  0  0  0  0  0  0  0  0
    3.9024   21.3517   38.1944 H   0  0  0  0  0  0  0  0  0  0  0  0
    3.5322   18.7445   36.5057 H   0  0  0  0  0  0  0  0  0  0  0  0
    4.7439   17.4279   36.9991 H   0  0  0  0  0  0  0  0  0  0  0  0
    1.8482   16.6912   37.0720 H   0  0  0  0  0  0  0  0  0  0  0  0
    2.4438   16.6404   35.5862 H   0  0  0  0  0  0  0  0  0  0  0  0
    3.6513   14.8969   40.3998 H   0  0  0  0  0  0  0  0  0  0  0  0
    2.5049   14.6995   39.0310 H   0  0  0  0  0  0  0  0  0  0  0  0
    4.0654   13.8098   39.0310 H   0  0  0  0  0  0  0  0  0  0  0  0
    5.2095   14.5263   36.9013 H   0  0  0  0  0  0  0  0  0  0  0  0
    3.9743   14.5835   35.5984 H   0  0  0  0  0  0  0  0  0  0  0  0
    5.3348   15.7565   35.5984 H   0  0  0  0  0  0  0  0  0  0  0  0
    5.9382   15.9190   39.8417 H   0  0  0  0  0  0  0  0  0  0  0  0
    6.1290   15.0216   38.2973 H   0  0  0  0  0  0  0  0  0  0  0  0
    6.1217   16.8179   38.2973 H   0  0  0  0  0  0  0  0  0  0  0  0
  2  7  1  0
  5 20  1  0
  5 19  1  0
  6  8  1  0
  6 11  1  0
  7 21  3  0
  9  4  2  0
 10 13  1  0
 11  9  1  0
 12  9  1  0
 13  1  1  0
 13  6  1  0
 14  3  1  0
 15 18  1  0
 16 15  1  0
 16  5  1  0
 18  3  2  3
 18  2  1  0
 19 22  1  0
 19 17  1  0
 19  2  1  0
 21 10  1  0
  1 23  1  0
  1 24  1  0
  1 25  1  0
  2 26  1  0
  3 27  1  0
  5 28  1  0
  6 29  1  0
  8 30  1  0
 10 31  1  0
 10 32  1  0
 11 33  1  0
 12 34  1  0
 12 35  1  0
 12 36  1  0
 13 37  1  0
 14 38  1  0
 15 39  1  0
 15 40  1  0
 16 41  1  0
 16 42  1  0
 17 43  1  0
 17 44  1  0
 17 45  1  0
 20 46  1  0
 20 47  1  0
 20 48  1  0
 22 49  1  0
 22 50  1  0
 22 51  1  0
M  END
>  <mol_id>  (11) 
2026-09-18-5lvo-s0-n100-0013

>  <rmsd_to_ref>  (11) 


$$$$

     RDKit          3D

 32 32  0  0  0  0  0  0  0  0999 V2000
    1.0540   14.8980   37.5700 O   0  0  0  0  0  0  0  0  0  0  0  0
    0.3110   20.9900   43.4250 N   0  0  0  0  0  0  0  0  0  0  0  0
    0.6710   18.8820   44.1740 C   0  0  0  0  0  0  0  0  0  0  0  0
    0.9850   20.7870   42.3910 C   0  0  0  0  0  0  0  0  0  0  0  0
    0.7850   15.4360   38.6380 C   0  0  0  0  0  0  0  0  0  0  0  0
    2.2430   17.1560   37.6390 C   0  0  0  0  0  0  0  0  0  0  0  0
    1.2530   18.5160   43.0160 C   0  0  0  0  0  0  0  0  0  0  0  0
    1.5660   19.5470   42.0910 C   0  0  0  0  0  0  0  0  0  0  0  0
    1.5290   17.1960   42.6960 N   0  0  0  0  0  0  0  0  0  0  0  0
    3.4850   17.5960   37.7060 C   0  0  0  0  0  0  0  0  0  0  0  0
    3.9430   17.7940   36.3710 O   0  0  0  0  0  0  0  0  0  0  0  0
    1.9640   16.7680   41.5050 C   0  0  0  0  0  0  0  0  0  0  0  0
    0.1220   20.1170   44.3740 C   0  0  0  0  0  0  0  0  0  0  0  0
    2.7820   15.8170   41.4250 O   0  0  0  0  0  0  0  0  0  0  0  0
    1.3640   16.7850   38.8200 C   0  0  0  0  0  0  0  0  0  0  0  0
   -0.1880   14.8080   39.6130 C   0  0  0  0  0  0  0  0  0  0  0  0
    1.3850   17.3200   40.2950 N   0  0  0  0  0  0  0  0  0  0  0  0
    0.6360   18.1529   44.9969 H   0  0  0  0  0  0  0  0  0  0  0  0
    1.1282   21.6187   41.6855 H   0  0  0  0  0  0  0  0  0  0  0  0
    1.6882   17.9387   37.1009 H   0  0  0  0  0  0  0  0  0  0  0  0
    2.4202   16.1565   37.2152 H   0  0  0  0  0  0  0  0  0  0  0  0
    2.2097   19.3863   41.2136 H   0  0  0  0  0  0  0  0  0  0  0  0
    1.3884   16.4895   43.4322 H   0  0  0  0  0  0  0  0  0  0  0  0
    3.5172   18.5465   38.2588 H   0  0  0  0  0  0  0  0  0  0  0  0
    4.1245   16.8712   38.2310 H   0  0  0  0  0  0  0  0  0  0  0  0
    4.8516   18.1868   36.3887 H   0  0  0  0  0  0  0  0  0  0  0  0
   -0.4467   20.3604   45.2836 H   0  0  0  0  0  0  0  0  0  0  0  0
    0.7906   17.7171   38.7085 H   0  0  0  0  0  0  0  0  0  0  0  0
    0.1375   15.0181   40.6425 H   0  0  0  0  0  0  0  0  0  0  0  0
   -1.1913   15.2294   39.4525 H   0  0  0  0  0  0  0  0  0  0  0  0
   -0.2172   13.7202   39.4525 H   0  0  0  0  0  0  0  0  0  0  0  0
    0.9033   18.2208   40.4271 H   0  0  0  0  0  0  0  0  0  0  0  0
  1  5  2  0
  2 13  2  0
  3 13  1  0
  4  2  1  0
  5 15  1  0
  5 16  1  0
  6 10  1  0
  7  3  2  0
  8  4  2  0
  8  7  1  0
  9  7  1  0
 11 10  1  0
 12  9  1  0
 14 12  2  0
 15  6  1  0
 15 17  1  0
 17 12  1  0
  3 18  1  0
  4 19  1  0
  6 20  1  0
  6 21  1  0
  8 22  1  0
  9 23  1  0
 10 24  1  0
 10 25  1  0
 11 26  1  0
 13 27  1  0
 15 28  1  0
 16 29  1  0
 16 30  1  0
 16 31  1  0
 17 32  1  0
M  END
>  <mol_id>  (12) 
2026-09-18-5lvo-s0-n100-0014

>  <rmsd_to_ref>  (12) 


$$$$

     RDKit          3D

 45 47  0  0  0  0  0  0  0  0999 V2000
    1.5600   19.1290   42.0070 C   0  0  0  0  0  0  0  0  0  0  0  0
    1.0190   20.4000   42.3400 C   0  0  0  0  0  0  0  0  0  0  0  0
    2.2290   19.8570   39.8090 O   0  0  0  0  0  0  0  0  0  0  0  0
    5.6000   15.2040   37.9520 O   0  0  0  0  0  0  0  0  0  0  0  0
    1.4260   18.0690   42.8510 C   0  0  0  0  0  0  0  0  0  0  0  0
    4.3410   15.3350   37.8020 C   0  0  0  0  0  0  0  0  0  0  0  0
    3.4990   15.3130   38.9860 C   0  0  0  0  0  0  0  0  0  0  0  0
    1.6990   15.2750   37.4910 C   0  0  0  0  0  0  0  0  0  0  0  0
    3.1620   16.7390   39.1490 C   0  0  0  0  0  0  0  0  0  0  0  0
    2.3460   12.8680   37.7660 O   0  0  0  0  0  0  0  0  0  0  0  0
    3.9130   16.0570   36.7850 C   0  0  0  0  0  0  0  0  0  0  0  0
    4.6810   15.9950   35.5260 N   0  0  0  0  0  4  0  0  0  0  0  0
    1.1220   13.7110   37.8930 S   0  0  0  0  0  4  0  0  0  0  0  0
   -0.6830   19.6900   45.4440 O   0  0  0  0  0  0  0  0  0  0  0  0
    0.4770   13.7890   39.3040 O   0  0  0  0  0  0  0  0  0  0  0  0
    2.1940   18.9500   40.6090 C   0  0  0  0  0  0  0  0  0  0  0  0
    0.2760   20.4510   43.5980 C   0  0  0  0  0  0  0  0  0  0  0  0
    2.1450   15.6930   38.8070 C   0  0  0  0  0  0  0  0  0  0  0  0
    2.4990   16.2950   36.5800 C   0  0  0  0  0  0  0  0  0  0  0  0
    0.0860   19.4140   44.3690 C   0  0  0  0  0  0  0  0  0  0  0  0
    5.1760   14.6480   35.3490 C   0  0  0  0  0  0  0  0  0  0  0  0
    0.6830   18.2140   44.0510 C   0  0  0  0  0  0  0  0  0  0  0  0
    0.3200   12.7660   37.1500 O   0  0  0  0  0  0  0  0  0  0  0  0
    2.7060   17.6340   40.2670 N   0  0  0  0  0  0  0  0  0  0  0  0
    1.1499   21.2828   41.6969 H   0  0  0  0  0  0  0  0  0  0  0  0
    1.8920   17.1038   42.6034 H   0  0  0  0  0  0  0  0  0  0  0  0
    3.9097   14.4630   39.5506 H   0  0  0  0  0  0  0  0  0  0  0  0
    0.9917   15.2456   36.6491 H   0  0  0  0  0  0  0  0  0  0  0  0
    3.7671   17.5981   38.8237 H   0  0  0  0  0  0  0  0  0  0  0  0
    2.6822   12.6364   38.6679 H   0  0  0  0  0  0  0  0  0  0  0  0
    4.2031   16.9965   37.2782 H   0  0  0  0  0  0  0  0  0  0  0  0
    4.0707   16.2464   34.7353 H   0  0  0  0  0  0  0  0  0  0  0  0
    5.4700   16.6560   35.5640 H   0  0  0  0  0  0  0  0  0  0  0  0
   -0.8933   18.9774   46.0983 H   0  0  0  0  0  0  0  0  0  0  0  0
    1.1817   13.7038   39.9941 H   0  0  0  0  0  0  0  0  0  0  0  0
   -0.1466   21.4166   43.9128 H   0  0  0  0  0  0  0  0  0  0  0  0
    1.1345   15.5849   39.2279 H   0  0  0  0  0  0  0  0  0  0  0  0
    2.2482   17.3274   36.8649 H   0  0  0  0  0  0  0  0  0  0  0  0
    2.2351   16.1534   35.5216 H   0  0  0  0  0  0  0  0  0  0  0  0
    5.3453   14.1873   36.3334 H   0  0  0  0  0  0  0  0  0  0  0  0
    4.4366   14.0562   34.7895 H   0  0  0  0  0  0  0  0  0  0  0  0
    6.1227   14.6758   34.7895 H   0  0  0  0  0  0  0  0  0  0  0  0
    0.5826   17.3585   44.7351 H   0  0  0  0  0  0  0  0  0  0  0  0
   -0.1737   12.1843   37.7809 H   0  0  0  0  0  0  0  0  0  0  0  0
    2.7904   17.0993   41.1433 H   0  0  0  0  0  0  0  0  0  0  0  0
  1  2  2  0
  1  5  1  0
  2 17  1  0
  3 16  2  0
  5 22  2  0
  6  4  2  0
  7  6  1  0
  7  9  1  0
  8 13  1  0
  8 18  1  0
  9 24  1  0
 10 13  1  0
 11 12  1  0
 11  6  1  0
 13 15  1  0
 16  1  1  0
 17 20  2  0
 18  7  1  0
 18  9  1  0
 19 11  1  0
 19  8  1  0
 20 14  1  0
 21 12  1  0
 22 20  1  0
 23 13  1  0
 24 16  1  0
  2 25  1  0
  5 26  1  0
  7 27  1  0
  8 28  1  0
  9 29  1  0
 10 30  1  0
 11 31  1  0
 12 32  1  0
 12 33  1  0
 14 34  1  0
 15 35  1  0
 17 36  1  0
 18 37  1  0
 19 38  1  0
 19 39  1  0
 21 40  1  0
 21 41  1  0
 21 42  1  0
 22 43  1  0
 23 44  1  0
 24 45  1  0
M  CHG  1  12   1
M  END
>  <mol_id>  (13) 
2026-09-18-5lvo-s0-n100-0015

>  <rmsd_to_ref>  (13) 


$$$$

     RDKit          3D

 54 57  0  0  0  0  0  0  0  0999 V2000
    0.7300   18.1320   43.8130 C   0  0  0  0  0  0  0  0  0  0  0  0
    2.9370   18.1910   38.8140 C   0  0  0  0  0  0  0  0  0  0  0  0
   -0.1230   19.0210   44.5210 C   0  0  0  0  0  0  0  0  0  0  0  0
    4.3530   13.9660   36.4490 O   0  0  0  0  0  0  0  0  0  0  0  0
    0.8220   20.1710   43.0870 N   0  0  0  0  0  0  0  0  0  0  0  0
    4.7490   17.0480   35.9520 C   0  0  0  0  0  0  0  0  0  0  0  0
    3.9160   17.7990   36.7760 C   0  0  0  0  0  0  0  0  0  0  0  0
    3.0930   17.2750   37.7160 C   0  0  0  0  0  0  0  0  0  0  0  0
   -0.7290   16.8740   44.8770 C   0  0  0  0  0  0  0  0  0  0  0  0
   -1.7920   16.8900   43.7580 C   0  0  0  0  0  0  0  0  0  0  0  0
    3.3170   19.5780   38.0920 C   0  0  0  0  0  0  0  0  0  0  0  0
    3.3210   14.7930   36.2150 S   0  0  0  0  0  4  0  0  0  0  0  0
    4.0680   15.9740   35.2950 O   0  0  0  0  0  0  0  0  0  0  0  0
    1.2010   21.4120   42.3170 C   0  0  0  0  0  0  0  0  0  0  0  0
    0.6690   16.7660   44.3430 C   0  0  0  0  0  0  0  0  0  0  0  0
    2.3170   19.0430   40.8700 N   0  0  0  0  0  0  0  0  0  0  0  0
   -0.1480   20.2100   44.0320 N   0  0  0  0  0  0  0  0  0  0  0  0
    3.7930   19.0000   37.0450 N   0  0  0  0  0  0  0  0  0  0  0  0
   -1.0330   15.8750   45.9460 C   0  0  0  0  0  0  0  0  0  0  0  0
    3.2630   18.1450   40.0590 C   0  0  0  0  0  0  0  0  0  0  0  0
    2.6390   15.9280   37.4580 C   0  0  0  0  0  0  0  0  0  0  0  0
    3.9610   20.9420   38.3100 C   0  0  0  0  0  0  0  0  0  0  0  0
    2.9350   16.7030   40.3510 C   0  0  0  0  0  0  0  0  0  0  0  0
   -0.7900   18.3150   45.4660 O   0  0  0  0  0  0  0  0  0  0  0  0
    2.2000   18.4820   42.0180 N   0  0  0  0  0  0  0  0  0  0  0  0
    1.3020   18.9270   42.9190 C   0  0  0  0  0  0  0  0  0  0  0  0
    2.0220   14.3820   35.5570 O   0  0  0  0  0  0  0  0  0  0  0  0
    4.4797   13.8645   37.4256 H   0  0  0  0  0  0  0  0  0  0  0  0
    5.1758   17.7125   35.1863 H   0  0  0  0  0  0  0  0  0  0  0  0
    5.5265   16.6023   36.5898 H   0  0  0  0  0  0  0  0  0  0  0  0
   -2.7963   16.9051   44.2065 H   0  0  0  0  0  0  0  0  0  0  0  0
   -1.6551   17.7862   43.1350 H   0  0  0  0  0  0  0  0  0  0  0  0
   -1.6821   15.9901   43.1350 H   0  0  0  0  0  0  0  0  0  0  0  0
    2.4778   20.2056   38.4265 H   0  0  0  0  0  0  0  0  0  0  0  0
    1.4477   22.2197   43.0218 H   0  0  0  0  0  0  0  0  0  0  0  0
    2.0748   21.1982   41.6839 H   0  0  0  0  0  0  0  0  0  0  0  0
    0.3568   21.7228   41.6839 H   0  0  0  0  0  0  0  0  0  0  0  0
    0.7677   16.0003   43.5594 H   0  0  0  0  0  0  0  0  0  0  0  0
    1.4564   16.4636   45.0491 H   0  0  0  0  0  0  0  0  0  0  0  0
    1.3991   19.1073   40.4071 H   0  0  0  0  0  0  0  0  0  0  0  0
   -0.8916   16.3396   46.9330 H   0  0  0  0  0  0  0  0  0  0  0  0
   -2.0748   15.5365   45.8460 H   0  0  0  0  0  0  0  0  0  0  0  0
   -0.3563   15.0135   45.8460 H   0  0  0  0  0  0  0  0  0  0  0  0
    4.2903   18.4629   40.2906 H   0  0  0  0  0  0  0  0  0  0  0  0
    1.5730   16.0262   37.2052 H   0  0  0  0  0  0  0  0  0  0  0  0
    2.9877   15.4328   38.3763 H   0  0  0  0  0  0  0  0  0  0  0  0
    4.0526   21.1360   39.3889 H   0  0  0  0  0  0  0  0  0  0  0  0
    4.9598   20.9538   37.8492 H   0  0  0  0  0  0  0  0  0  0  0  0
    3.3354   21.7207   37.8492 H   0  0  0  0  0  0  0  0  0  0  0  0
    2.8998   16.5481   41.4395 H   0  0  0  0  0  0  0  0  0  0  0  0
    1.9572   16.4535   39.9133 H   0  0  0  0  0  0  0  0  0  0  0  0
    3.7087   16.0551   39.9133 H   0  0  0  0  0  0  0  0  0  0  0  0
    2.8012   17.6798   42.2544 H   0  0  0  0  0  0  0  0  0  0  0  0
    1.3517   14.1699   36.2540 H   0  0  0  0  0  0  0  0  0  0  0  0
  1 15  1  0
  1  3  1  0
  2 20  1  0
  3 24  1  0
  5 17  1  0
  6  7  1  0
  7 18  2  0
  7  8  1  0
  8  2  2  0
  9 24  1  0
  9 19  1  0
 10  9  1  0
 11 22  1  0
 11  2  1  0
 12  4  1  0
 12 21  1  0
 13  6  1  0
 13 12  1  0
 14  5  1  0
 15  9  1  0
 16 25  1  0
 17  3  2  0
 18 11  1  0
 20 23  1  0
 20 16  1  0
 21  8  1  0
 25 26  1  0
 26  5  1  0
 26  1  2  0
 27 12  1  0
  4 28  1  0
  6 29  1  0
  6 30  1  0
 10 31  1  0
 10 32  1  0
 10 33  1  0
 11 34  1  0
 14 35  1  0
 14 36  1  0
 14 37  1  0
 15 38  1  0
 15 39  1  0
 16 40  1  0
 19 41  1  0
 19 42  1  0
 19 43  1  0
 20 44  1  0
 21 45  1  0
 21 46  1  0
 22 47  1  0
 22 48  1  0
 22 49  1  0
 23 50  1  0
 23 51  1  0
 23 52  1  0
 25 53  1  0
 27 54  1  0
M  END
>  <mol_id>  (14) 
2026-09-18-5lvo-s0-n100-0016

>  <rmsd_to_ref>  (14) 


$$$$

     RDKit          3D

 88 93  0  0  0  0  0  0  0  0999 V2000
   -0.6390   15.2740   43.8210 C   0  0  0  0  0  0  0  0  0  0  0  0
    1.7520   19.2740   41.7730 C   0  0  0  0  0  0  0  0  0  0  0  0
    0.6990   21.2050   42.7120 C   0  0  0  0  0  0  0  0  0  0  0  0
    1.1080   13.4630   38.3600 C   0  0  0  0  0  0  0  0  0  0  0  0
   -0.0310   19.9170   45.2330 O   0  0  0  0  0  0  0  0  0  0  0  0
    1.3490   17.3940   43.5030 C   0  0  0  0  0  0  0  0  0  0  0  0
    1.6880   19.3150   40.1870 C   0  0  0  0  0  0  0  0  0  0  0  0
    1.7550   12.7250   40.8560 N   0  0  0  0  0  0  0  0  0  0  0  0
    2.0830   12.6190   39.2960 C   0  0  0  0  0  0  0  0  0  0  0  0
    2.3620   15.4760   37.7750 C   0  0  0  0  0  0  0  0  0  0  0  0
    5.3350   23.2330   37.1690 C   0  0  0  0  0  0  0  0  0  0  0  0
    4.7500   22.1000   37.3410 C   0  0  0  0  0  0  0  0  0  0  0  0
    2.0000   20.7920   42.2120 C   0  0  0  0  0  0  0  0  0  0  0  0
    5.4080   14.4090   40.2240 C   0  0  0  0  0  0  0  0  0  0  0  0
    0.7630   14.8260   43.7280 C   0  0  0  0  0  0  0  0  0  0  0  0
    3.9210   20.4180   38.6910 C   0  0  0  0  0  0  0  0  0  0  0  0
    0.2560   19.9340   43.2870 O   0  0  0  0  0  0  0  0  0  0  0  0
    1.1060   13.9370   41.2600 C   0  0  0  0  0  0  0  0  0  0  0  0
    2.7710   21.6320   37.3720 C   0  0  0  0  0  0  0  0  0  0  0  0
    1.9190   18.1800   42.5220 C   0  0  0  0  0  0  0  0  0  0  0  0
    1.4090   14.8920   38.3760 C   0  0  0  0  0  0  0  0  0  0  0  0
    4.8840   22.9000   36.2690 C   0  0  0  0  0  0  0  0  0  0  0  0
    3.1870   19.1830   37.1350 C   0  0  0  0  0  0  0  0  0  0  0  0
    2.4010   11.8210   41.7530 C   0  0  0  0  0  0  0  0  0  0  0  0
    5.2190   21.2490   38.0950 C   0  0  0  0  0  0  0  0  0  0  0  0
    0.4910   18.0000   44.4040 N   0  0  0  0  0  0  0  0  0  0  0  0
   -0.1830   13.4470   39.1340 O   0  0  0  0  0  0  0  0  0  0  0  0
    1.0840   13.7070   42.8270 C   0  0  0  0  0  0  0  0  0  0  0  0
    1.8240   16.0480   43.6440 C   0  0  0  0  0  0  0  0  0  0  0  0
    2.7420   20.1560   38.0650 C   0  0  0  0  0  0  0  0  0  0  0  0
    5.1310   15.4600   39.1720 C   0  0  0  0  0  0  0  0  0  0  0  0
    0.0450   14.3850   40.1910 C   0  0  0  0  0  0  0  0  0  0  0  0
    3.8750   16.0680   39.5580 C   0  0  0  0  0  0  0  0  0  0  0  0
    0.2160   19.2960   44.3810 C   0  0  0  0  0  0  0  0  0  0  0  0
    2.4620   17.9690   38.2790 C   0  0  0  0  0  0  0  0  0  0  0  0
    3.7890   21.9110   37.0520 O   0  0  0  0  0  0  0  0  0  0  0  0
    1.6260   18.2720   39.5100 C   0  0  0  0  0  0  0  0  0  0  0  0
    3.1660   16.6670   38.3600 N   0  0  0  0  0  0  0  0  0  0  0  0
    0.6490   15.3880   39.4140 O   0  0  0  0  0  0  0  0  0  0  0  0
   -0.9253   15.3655   44.8791 H   0  0  0  0  0  0  0  0  0  0  0  0
   -0.7453   16.2509   43.3266 H   0  0  0  0  0  0  0  0  0  0  0  0
   -1.2921   14.5398   43.3266 H   0  0  0  0  0  0  0  0  0  0  0  0
    0.0356   21.5443   41.9028 H   0  0  0  0  0  0  0  0  0  0  0  0
    0.7099   22.0582   43.4062 H   0  0  0  0  0  0  0  0  0  0  0  0
    1.1444   13.0601   37.3371 H   0  0  0  0  0  0  0  0  0  0  0  0
    1.6987   20.2881   39.6742 H   0  0  0  0  0  0  0  0  0  0  0  0
    2.0135   11.5616   39.0008 H   0  0  0  0  0  0  0  0  0  0  0  0
    3.0910   13.0372   39.1578 H   0  0  0  0  0  0  0  0  0  0  0  0
    1.9362   15.8418   36.8290 H   0  0  0  0  0  0  0  0  0  0  0  0
    3.1272   14.6859   37.7866 H   0  0  0  0  0  0  0  0  0  0  0  0
    4.9155   24.1193   37.6675 H   0  0  0  0  0  0  0  0  0  0  0  0
    6.3661   23.5509   37.3831 H   0  0  0  0  0  0  0  0  0  0  0  0
    2.7647   20.8556   43.0001 H   0  0  0  0  0  0  0  0  0  0  0  0
    2.3701   21.4252   41.3922 H   0  0  0  0  0  0  0  0  0  0  0  0
    5.2913   14.8517   41.2242 H   0  0  0  0  0  0  0  0  0  0  0  0
    4.6986   13.5766   40.1064 H   0  0  0  0  0  0  0  0  0  0  0  0
    6.4355   14.0344   40.1064 H   0  0  0  0  0  0  0  0  0  0  0  0
    0.8899   14.3409   44.7071 H   0  0  0  0  0  0  0  0  0  0  0  0
    4.3211   19.4291   38.9595 H   0  0  0  0  0  0  0  0  0  0  0  0
    3.5643   21.1612   39.4192 H   0  0  0  0  0  0  0  0  0  0  0  0
    1.4548   14.9795   41.2200 H   0  0  0  0  0  0  0  0  0  0  0  0
    2.1096   21.6266   36.4931 H   0  0  0  0  0  0  0  0  0  0  0  0
    2.4308   22.3676   38.1157 H   0  0  0  0  0  0  0  0  0  0  0  0
    2.0724   17.4272   41.7347 H   0  0  0  0  0  0  0  0  0  0  0  0
    2.4553   18.7657   43.2831 H   0  0  0  0  0  0  0  0  0  0  0  0
    1.4314   15.4515   37.4292 H   0  0  0  0  0  0  0  0  0  0  0  0
    4.0036   23.4305   35.8773 H   0  0  0  0  0  0  0  0  0  0  0  0
    5.2598   22.7407   35.2476 H   0  0  0  0  0  0  0  0  0  0  0  0
    2.7115   19.2325   36.1443 H   0  0  0  0  0  0  0  0  0  0  0  0
    4.2283   19.1248   36.7853 H   0  0  0  0  0  0  0  0  0  0  0  0
    2.1881   12.1189   42.7903 H   0  0  0  0  0  0  0  0  0  0  0  0
    2.0255   10.8017   41.5799 H   0  0  0  0  0  0  0  0  0  0  0  0
    3.4870   11.8460   41.5799 H   0  0  0  0  0  0  0  0  0  0  0  0
    5.8869   20.5723   37.5418 H   0  0  0  0  0  0  0  0  0  0  0  0
    5.8155   21.7032   38.8999 H   0  0  0  0  0  0  0  0  0  0  0  0
    0.3424   12.9184   43.0224 H   0  0  0  0  0  0  0  0  0  0  0  0
    2.1339   13.4817   43.0656 H   0  0  0  0  0  0  0  0  0  0  0  0
    2.4740   15.8471   42.7796 H   0  0  0  0  0  0  0  0  0  0  0  0
    2.2957   16.0460   44.6377 H   0  0  0  0  0  0  0  0  0  0  0  0
    1.8077   19.8353   38.5490 H   0  0  0  0  0  0  0  0  0  0  0  0
    5.0449   14.9965   38.1781 H   0  0  0  0  0  0  0  0  0  0  0  0
    5.9421   16.2005   39.1097 H   0  0  0  0  0  0  0  0  0  0  0  0
   -0.8608   14.6020   40.7762 H   0  0  0  0  0  0  0  0  0  0  0  0
    3.2292   15.3013   40.0109 H   0  0  0  0  0  0  0  0  0  0  0  0
    4.0840   16.8730   40.2779 H   0  0  0  0  0  0  0  0  0  0  0  0
    1.5746   18.0002   37.6298 H   0  0  0  0  0  0  0  0  0  0  0  0
    0.5803   18.2042   39.1753 H   0  0  0  0  0  0  0  0  0  0  0  0
    2.0619   17.5544   40.2207 H   0  0  0  0  0  0  0  0  0  0  0  0
  2 13  1  0
  2 20  1  0
  3 17  1  0
  4 21  1  0
  4 27  1  0
  4  9  1  0
  6 29  1  0
  6 26  2  0
  7  2  2  0
  8 18  1  0
  8 24  1  0
  9  8  1  0
 10 38  1  0
 11 12  1  0
 12 25  1  0
 13  3  1  0
 15  1  1  0
 17 34  1  0
 18 28  1  0
 19 30  1  0
 20  6  1  0
 21 10  1  0
 21 39  1  0
 22 11  1  0
 22 12  1  0
 25 16  1  0
 28 15  1  0
 29 15  1  0
 30 23  1  0
 30 16  1  0
 31 33  1  0
 31 14  1  0
 32 27  1  0
 32 18  1  0
 34 26  1  0
 34  5  2  0
 35 23  1  0
 35 38  1  0
 35 37  1  0
 36 12  1  0
 36 19  1  0
 37  7  1  0
 38 33  1  0
 39 32  1  0
  1 40  1  0
  1 41  1  0
  1 42  1  0
  3 43  1  0
  3 44  1  0
  4 45  1  0
  7 46  1  0
  9 47  1  0
  9 48  1  0
 10 49  1  0
 10 50  1  0
 11 51  1  0
 11 52  1  0
 13 53  1  0
 13 54  1  0
 14 55  1  0
 14 56  1  0
 14 57  1  0
 15 58  1  0
 16 59  1  0
 16 60  1  0
 18 61  1  0
 19 62  1  0
 19 63  1  0
 20 64  1  0
 20 65  1  0
 21 66  1  0
 22 67  1  0
 22 68  1  0
 23 69  1  0
 23 70  1  0
 24 71  1  0
 24 72  1  0
 24 73  1  0
 25 74  1  0
 25 75  1  0
 28 76  1  0
 28 77  1  0
 29 78  1  0
 29 79  1  0
 30 80  1  0
 31 81  1  0
 31 82  1  0
 32 83  1  0
 33 84  1  0
 33 85  1  0
 35 86  1  0
 37 87  1  0
 37 88  1  0
M  END
>  <mol_id>  (15) 
2026-09-18-5lvo-s0-n100-0017

>  <rmsd_to_ref>  (15) 


$$$$

     RDKit          3D

 35 35  0  0  0  0  0  0  0  0999 V2000
    0.6070   21.1980   42.2360 C   0  0  0  0  0  0  0  0  0  0  0  0
    4.0250   18.2060   37.2630 O   0  0  0  0  0  0  0  0  0  0  0  0
   -0.1180   19.3790   44.9310 C   0  0  0  0  0  0  0  0  0  0  0  0
    1.9790   15.5430   40.4530 N   0  0  0  0  0  4  0  0  0  0  0  0
   -0.2390   20.2920   43.9870 N   0  0  0  0  0  4  0  0  0  0  0  0
    1.8300   16.3110   39.3010 C   0  0  0  0  0  0  0  0  0  0  0  0
    3.0670   18.9630   39.2390 N   0  0  0  0  0  0  0  0  0  0  0  0
    0.3910   18.1280   44.7780 C   0  0  0  0  0  0  0  0  0  0  0  0
    1.9120   18.6170   41.3740 C   0  0  0  0  0  0  0  0  0  0  0  0
    1.0450   17.8600   43.5660 C   0  0  0  0  0  0  0  0  0  0  0  0
    3.4080   17.8810   38.3290 C   0  0  0  0  0  0  0  0  0  0  0  0
    1.5360   16.5360   43.3880 C   0  0  0  0  0  0  0  0  0  0  0  0
    0.6420   20.0670   42.8630 C   0  0  0  0  0  0  0  0  0  0  0  0
    3.2870   16.6510   38.6150 C   0  0  0  0  0  0  0  0  0  0  0  0
    1.1780   18.7980   42.4530 C   0  0  0  0  0  0  0  0  0  0  0  0
    2.8670   18.5870   40.4410 C   0  0  0  0  0  0  0  0  0  0  0  0
    1.1937   21.3351   41.3157 H   0  0  0  0  0  0  0  0  0  0  0  0
   -0.0095   22.0226   42.6232 H   0  0  0  0  0  0  0  0  0  0  0  0
   -0.4618   19.6564   45.9384 H   0  0  0  0  0  0  0  0  0  0  0  0
    1.8627   16.1423   41.2826 H   0  0  0  0  0  0  0  0  0  0  0  0
    1.2666   14.7991   40.4643 H   0  0  0  0  0  0  0  0  0  0  0  0
    2.9178   15.1195   40.4643 H   0  0  0  0  0  0  0  0  0  0  0  0
   -1.2114   20.2854   43.6476 H   0  0  0  0  0  0  0  0  0  0  0  0
    0.0189   21.1986   44.4022 H   0  0  0  0  0  0  0  0  0  0  0  0
    1.2144   15.7561   38.5778 H   0  0  0  0  0  0  0  0  0  0  0  0
    1.3468   17.2599   39.5769 H   0  0  0  0  0  0  0  0  0  0  0  0
    2.9936   19.9457   38.9393 H   0  0  0  0  0  0  0  0  0  0  0  0
    0.2951   17.3647   45.5642 H   0  0  0  0  0  0  0  0  0  0  0  0
    0.0865   17.5653   43.1139 H   0  0  0  0  0  0  0  0  0  0  0  0
    1.7076   16.0733   44.3711 H   0  0  0  0  0  0  0  0  0  0  0  0
    0.7978   15.9434   42.8277 H   0  0  0  0  0  0  0  0  0  0  0  0
    2.4820   16.5680   42.8277 H   0  0  0  0  0  0  0  0  0  0  0  0
    3.3900   16.0612   37.6922 H   0  0  0  0  0  0  0  0  0  0  0  0
    4.0704   16.3957   39.3437 H   0  0  0  0  0  0  0  0  0  0  0  0
    3.7610   18.0789   40.8316 H   0  0  0  0  0  0  0  0  0  0  0  0
  1 13  2  3
  2 11  2  0
  5  3  1  0
  6  4  1  0
  7 16  1  0
  8  3  2  0
  9 15  2  0
 10 12  1  0
 10  8  1  0
 11 14  1  0
 11  7  1  0
 13  5  1  0
 14  6  1  0
 15 13  1  0
 15 10  1  0
 16  9  2  0
  1 17  1  0
  1 18  1  0
  3 19  1  0
  4 20  1  0
  4 21  1  0
  4 22  1  0
  5 23  1  0
  5 24  1  0
  6 25  1  0
  6 26  1  0
  7 27  1  0
  8 28  1  0
 10 29  1  0
 12 30  1  0
 12 31  1  0
 12 32  1  0
 14 33  1  0
 14 34  1  0
 16 35  1  0
M  CHG  2   4   1   5   1
M  END
>  <mol_id>  (16) 
2026-09-18-5lvo-s0-n100-0018

>  <rmsd_to_ref>  (16) 


$$$$

     RDKit          3D

 47 47  0  0  0  0  0  0  0  0999 V2000
    3.5460   16.4860   37.4190 C   0  0  0  0  0  0  0  0  0  0  0  0
   -0.2890   17.2520   45.5360 C   0  0  0  0  0  0  0  0  0  0  0  0
   -0.9120   15.9830   45.0970 C   0  0  0  0  0  0  0  0  0  0  0  0
    3.8870   18.5650   36.1900 O   0  0  0  0  0  0  0  0  0  0  0  0
    2.9130   19.3280   41.5060 C   0  0  0  0  0  0  0  0  0  0  0  0
    3.1780   18.6220   40.2370 C   0  0  0  0  0  0  0  0  0  0  0  0
    0.2290   19.5810   44.2280 C   0  0  0  0  0  0  0  0  0  0  0  0
    1.8690   14.0490   35.6210 N   0  0  0  0  0  4  0  0  0  0  0  0
   -0.2440   20.2370   44.8780 O   0  0  0  0  0  0  0  0  0  0  0  0
    2.7240   15.7490   36.5430 C   0  0  0  0  0  0  0  0  0  0  0  0
   -0.3620   18.0290   44.2440 C   0  0  0  0  0  0  0  0  0  0  0  0
    3.9270   19.2160   39.2630 N   0  0  0  0  0  0  0  0  0  0  0  0
    3.2750   17.9610   37.3410 C   0  0  0  0  0  0  0  0  0  0  0  0
    1.2580   21.0500   42.7400 O   0  0  0  0  0  0  0  0  0  0  0  0
    3.2580   14.5220   35.8510 C   0  0  0  0  0  0  0  0  0  0  0  0
    4.7580   16.1030   37.4610 O   0  0  0  0  0  0  0  0  0  0  0  0
   -1.4170   16.1310   43.7210 C   0  0  0  0  0  0  0  0  0  0  0  0
    1.1450   19.9160   42.9010 C   0  0  0  0  0  0  0  0  0  0  0  0
   -0.6760   17.2980   43.2060 O   0  0  0  0  0  0  0  0  0  0  0  0
    3.5170   19.2180   38.1480 C   0  0  0  0  0  0  0  0  0  0  0  0
    1.7640   18.9260   42.1790 C   0  0  0  0  0  0  0  0  0  0  0  0
    3.5480   20.3200   37.9640 O   0  0  0  0  0  0  0  0  0  0  0  0
    3.2426   16.2326   38.4455 H   0  0  0  0  0  0  0  0  0  0  0  0
   -0.8656   17.7356   46.3382 H   0  0  0  0  0  0  0  0  0  0  0  0
    0.7189   17.1534   45.9654 H   0  0  0  0  0  0  0  0  0  0  0  0
   -0.1633   15.1777   45.1276 H   0  0  0  0  0  0  0  0  0  0  0  0
   -1.7473   15.7346   45.7682 H   0  0  0  0  0  0  0  0  0  0  0  0
    4.5598   19.2290   36.4842 H   0  0  0  0  0  0  0  0  0  0  0  0
    2.8199   20.4015   41.2851 H   0  0  0  0  0  0  0  0  0  0  0  0
    3.7558   19.0875   42.1707 H   0  0  0  0  0  0  0  0  0  0  0  0
    3.6865   17.6822   40.4981 H   0  0  0  0  0  0  0  0  0  0  0  0
    2.1811   18.5511   39.7775 H   0  0  0  0  0  0  0  0  0  0  0  0
    1.4056   13.8912   36.5272 H   0  0  0  0  0  0  0  0  0  0  0  0
    1.3480   14.7600   35.0881 H   0  0  0  0  0  0  0  0  0  0  0  0
    1.8902   13.1678   35.0881 H   0  0  0  0  0  0  0  0  0  0  0  0
    1.8489   15.4271   37.1265 H   0  0  0  0  0  0  0  0  0  0  0  0
    2.5535   16.4496   35.7123 H   0  0  0  0  0  0  0  0  0  0  0  0
   -1.1768   18.7202   43.9826 H   0  0  0  0  0  0  0  0  0  0  0  0
    4.8309   19.6544   39.4904 H   0  0  0  0  0  0  0  0  0  0  0  0
    2.2719   17.6091   37.6236 H   0  0  0  0  0  0  0  0  0  0  0  0
    3.8550   13.8642   36.4998 H   0  0  0  0  0  0  0  0  0  0  0  0
    3.9605   14.6179   35.0100 H   0  0  0  0  0  0  0  0  0  0  0  0
    5.0431   16.0129   38.4048 H   0  0  0  0  0  0  0  0  0  0  0  0
   -1.2004   15.2329   43.1239 H   0  0  0  0  0  0  0  0  0  0  0  0
   -2.5082   16.2628   43.6769 H   0  0  0  0  0  0  0  0  0  0  0  0
    1.0477   18.5450   41.4362 H   0  0  0  0  0  0  0  0  0  0  0  0
    2.0810   18.1638   42.9060 H   0  0  0  0  0  0  0  0  0  0  0  0
  1 16  1  0
  3  2  1  0
  5 21  1  0
  6  5  1  0
  7  9  2  0
  8 15  1  0
 10  1  1  0
 11  7  1  0
 11  2  1  0
 12  6  1  0
 13  4  1  0
 13  1  1  0
 13 20  1  0
 14 18  2  0
 15 10  1  0
 17  3  1  0
 18  7  1  0
 19 17  1  0
 19 11  1  0
 20 12  1  0
 21 18  1  0
 22 20  2  0
  1 23  1  0
  2 24  1  0
  2 25  1  0
  3 26  1  0
  3 27  1  0
  4 28  1  0
  5 29  1  0
  5 30  1  0
  6 31  1  0
  6 32  1  0
  8 33  1  0
  8 34  1  0
  8 35  1  0
 10 36  1  0
 10 37  1  0
 11 38  1  0
 12 39  1  0
 13 40  1  0
 15 41  1  0
 15 42  1  0
 16 43  1  0
 17 44  1  0
 17 45  1  0
 21 46  1  0
 21 47  1  0
M  CHG  1   8   1
M  END
>  <mol_id>  (17) 
2026-09-18-5lvo-s0-n100-0019

>  <rmsd_to_ref>  (17) 


$$$$

     RDKit          3D

 44 45  0  0  0  0  0  0  0  0999 V2000
    4.0620   19.2790   37.4330 O   0  0  0  0  0  0  0  0  0  0  0  0
    3.0480   16.8100   39.8300 O   0  0  0  0  0  0  0  0  0  0  0  0
    2.1370   14.7560   36.0870 O   0  0  0  0  0  0  0  0  0  0  0  0
    3.7900   15.8660   39.3300 C   0  0  0  0  0  0  0  0  0  0  0  0
    1.3570   20.5870   41.7820 C   0  0  0  0  0  0  0  0  0  0  0  0
   -1.2750   17.9860   43.5000 O   0  0  0  0  0  0  0  0  0  0  0  0
    3.7230   16.8910   35.8370 O   0  0  0  0  0  0  0  0  0  0  0  0
    1.0210   19.1690   43.4660 C   0  0  0  0  0  0  0  0  0  0  0  0
    3.7600   16.9380   37.1960 C   0  0  0  0  0  0  0  0  0  0  0  0
   -0.5100   18.9670   45.4610 C   0  0  0  0  0  0  0  0  0  0  0  0
    2.7190   14.5980   37.1270 C   0  0  0  0  0  0  0  0  0  0  0  0
    1.8800   14.1240   37.8450 O   0  0  0  0  0  1  0  0  0  0  0  0
   -0.0230   18.2710   44.2220 C   0  0  0  0  0  0  0  0  0  0  0  0
    2.0110   18.9940   41.8640 S   0  0  0  0  0  4  0  0  0  0  0  0
    0.6490   16.8780   44.4430 C   0  0  0  0  0  0  0  0  0  0  0  0
    3.7360   15.6100   37.8230 C   0  0  0  0  0  0  0  0  0  0  0  0
    3.2820   18.1450   39.4050 C   0  0  0  0  0  0  0  0  0  0  0  0
    0.3740   20.4790   42.9910 C   0  0  0  0  0  0  0  0  0  0  0  0
    3.3160   18.2630   37.9130 C   0  0  0  0  0  0  0  0  0  0  0  0
    2.2040   19.0250   40.0520 C   0  0  0  0  0  0  0  0  0  0  0  0
    5.2020   16.4330   39.5310 O   0  0  0  0  0  0  0  0  0  0  0  0
    4.4411   19.7953   38.1878 H   0  0  0  0  0  0  0  0  0  0  0  0
    3.4719   14.9266   39.8057 H   0  0  0  0  0  0  0  0  0  0  0  0
    2.1235   21.3608   41.9357 H   0  0  0  0  0  0  0  0  0  0  0  0
    0.9097   20.8770   40.8198 H   0  0  0  0  0  0  0  0  0  0  0  0
   -2.0015   17.8206   44.1518 H   0  0  0  0  0  0  0  0  0  0  0  0
    3.1372   16.1469   35.5484 H   0  0  0  0  0  0  0  0  0  0  0  0
    1.7094   18.9382   44.2924 H   0  0  0  0  0  0  0  0  0  0  0  0
    4.7597   17.2294   37.5504 H   0  0  0  0  0  0  0  0  0  0  0  0
   -0.1385   18.4360   46.3499 H   0  0  0  0  0  0  0  0  0  0  0  0
   -0.1382   20.0022   45.4702 H   0  0  0  0  0  0  0  0  0  0  0  0
   -1.6099   18.9724   45.4702 H   0  0  0  0  0  0  0  0  0  0  0  0
    2.8384   17.9209   42.0662 H   0  0  0  0  0  0  0  0  0  0  0  0
    0.7430   16.6832   45.5215 H   0  0  0  0  0  0  0  0  0  0  0  0
    0.0296   16.0948   43.9815 H   0  0  0  0  0  0  0  0  0  0  0  0
    1.6475   16.8752   43.9815 H   0  0  0  0  0  0  0  0  0  0  0  0
    4.6059   14.9616   37.6421 H   0  0  0  0  0  0  0  0  0  0  0  0
    4.2768   18.4838   39.7299 H   0  0  0  0  0  0  0  0  0  0  0  0
    0.4681   21.3047   43.7117 H   0  0  0  0  0  0  0  0  0  0  0  0
   -0.7104   20.5104   42.8093 H   0  0  0  0  0  0  0  0  0  0  0  0
    2.2646   18.4817   37.6748 H   0  0  0  0  0  0  0  0  0  0  0  0
    1.2387   18.7231   39.6195 H   0  0  0  0  0  0  0  0  0  0  0  0
    2.5375   20.0514   39.8390 H   0  0  0  0  0  0  0  0  0  0  0  0
    5.3922   16.5094   40.4996 H   0  0  0  0  0  0  0  0  0  0  0  0
  3 11  2  0
  4 21  1  0
  4  2  1  0
  5 14  1  0
  5 18  1  0
  6 13  1  0
  8 13  1  0
  9  7  1  0
  9 16  1  0
  9 19  1  0
 11 12  1  0
 13 15  1  0
 13 10  1  0
 14 20  1  0
 14  8  1  0
 16 11  1  0
 16  4  1  0
 17  2  1  0
 17 20  1  0
 18  8  1  0
 19  1  1  0
 19 17  1  0
  1 22  1  0
  4 23  1  0
  5 24  1  0
  5 25  1  0
  6 26  1  0
  7 27  1  0
  8 28  1  0
  9 29  1  0
 10 30  1  0
 10 31  1  0
 10 32  1  0
 14 33  1  0
 15 34  1  0
 15 35  1  0
 15 36  1  0
 16 37  1  0
 17 38  1  0
 18 39  1  0
 18 40  1  0
 19 41  1  0
 20 42  1  0
 20 43  1  0
 21 44  1  0
M  CHG  1  12  -1
M  END
>  <mol_id>  (18) 
2026-09-18-5lvo-s0-n100-0020

>  <rmsd_to_ref>  (18) 


$$$$

     RDKit          3D

 62 67  0  0  0  0  0  0  0  0999 V2000
    5.1620   15.2620   34.9950 C   0  0  0  0  0  0  0  0  0  0  0  0
    1.5300   15.4940   43.6460 C   0  0  0  0  0  0  0  0  0  0  0  0
    1.4050   15.6610   37.9340 C   0  0  0  0  0  0  0  0  0  0  0  0
    3.9840   19.6680   37.2300 C   0  0  0  0  0  0  0  0  0  0  0  0
    1.3540   21.6400   41.9750 C   0  0  0  0  0  0  0  0  0  0  0  0
    4.7180   20.2470   37.9970 O   0  0  0  0  0  1  0  0  0  0  0  0
    3.2120   17.1560   39.5390 C   0  0  0  0  0  0  0  0  0  0  0  0
    2.4980   15.5480   37.3120 C   0  0  0  0  0  0  0  0  0  0  0  0
    1.5410   19.1050   42.1760 C   0  0  0  0  0  0  0  0  0  0  0  0
    2.0740   16.8250   41.7740 C   0  0  0  0  0  0  0  0  0  0  0  0
   -0.2120   19.2130   44.8860 C   0  0  0  0  0  0  0  0  0  0  0  0
    3.5270   14.9650   36.8730 C   0  0  0  0  0  0  0  0  0  0  0  0
    4.2370   15.8590   35.9380 C   0  0  0  0  0  0  0  0  0  0  0  0
    0.3080   16.1740   44.2750 C   0  0  0  0  0  0  0  0  0  0  0  0
    3.2320   20.2500   36.4030 O   0  0  0  0  0  0  0  0  0  0  0  0
    2.9140   17.7010   38.2930 N   0  0  0  0  0  0  0  0  0  0  0  0
   -1.1760   18.9810   43.8850 F   0  0  0  0  0  0  0  0  0  0  0  0
    1.2150   17.7290   42.6470 C   0  0  0  0  0  0  0  0  0  0  0  0
    1.0020   17.3340   43.8990 C   0  0  0  0  0  0  0  0  0  0  0  0
    2.3310   15.6530   42.6030 C   0  0  0  0  0  0  0  0  0  0  0  0
   -0.6480   18.3320   45.9940 F   0  0  0  0  0  0  0  0  0  0  0  0
    6.1790   15.8410   35.6330 O   0  0  0  0  0  0  0  0  0  0  0  0
   -0.1460   15.7900   37.9570 C   0  0  0  0  0  0  0  0  0  0  0  0
    3.9390   18.1120   37.2950 C   0  0  0  0  0  0  0  0  0  0  0  0
    0.9140   18.5240   44.5900 O   0  0  0  0  0  0  0  0  0  0  0  0
    2.2460   18.8410   40.9390 C   0  0  0  0  0  0  0  0  0  0  0  0
    2.4130   17.5350   40.7540 C   0  0  0  0  0  0  0  0  0  0  0  0
    4.1520   16.3840   39.6910 O   0  0  0  0  0  0  0  0  0  0  0  0
    0.4550   20.6340   44.2380 S   0  0  0  0  0  0  0  0  0  0  0  0
    4.4030   17.2600   36.0450 N   0  0  0  0  0  4  0  0  0  0  0  0
    2.1720   16.7990   37.3780 C   0  0  0  0  0  0  0  0  0  0  0  0
    1.0740   20.3660   42.7820 C   0  0  0  0  0  0  0  0  0  0  0  0
    5.0293   15.6028   33.9576 H   0  0  0  0  0  0  0  0  0  0  0  0
    5.1580   14.1760   34.8202 H   0  0  0  0  0  0  0  0  0  0  0  0
    1.8491   14.4549   43.8147 H   0  0  0  0  0  0  0  0  0  0  0  0
    1.0524   14.9670   38.7112 H   0  0  0  0  0  0  0  0  0  0  0  0
    1.5381   22.4775   42.6640 H   0  0  0  0  0  0  0  0  0  0  0  0
    2.2396   21.4853   41.3411 H   0  0  0  0  0  0  0  0  0  0  0  0
    0.4852   21.8709   41.3411 H   0  0  0  0  0  0  0  0  0  0  0  0
    2.9613   15.6162   38.3073 H   0  0  0  0  0  0  0  0  0  0  0  0
    0.5893   19.1421   41.6257 H   0  0  0  0  0  0  0  0  0  0  0  0
    2.3462   16.0810   41.0109 H   0  0  0  0  0  0  0  0  0  0  0  0
    4.1907   14.7106   37.7125 H   0  0  0  0  0  0  0  0  0  0  0  0
    3.2314   14.0448   36.3477 H   0  0  0  0  0  0  0  0  0  0  0  0
    3.1665   15.9662   35.7089 H   0  0  0  0  0  0  0  0  0  0  0  0
   -0.6511   16.0029   43.7642 H   0  0  0  0  0  0  0  0  0  0  0  0
   -0.0648   15.9716   45.2899 H   0  0  0  0  0  0  0  0  0  0  0  0
    0.1203   17.6721   42.5559 H   0  0  0  0  0  0  0  0  0  0  0  0
    3.3624   15.7256   42.9784 H   0  0  0  0  0  0  0  0  0  0  0  0
    2.1493   14.7840   41.9535 H   0  0  0  0  0  0  0  0  0  0  0  0
    6.0425   15.7633   36.6105 H   0  0  0  0  0  0  0  0  0  0  0  0
   -0.4961   15.8191   38.9994 H   0  0  0  0  0  0  0  0  0  0  0  0
   -0.4446   16.7161   37.4439 H   0  0  0  0  0  0  0  0  0  0  0  0
   -0.5934   14.9260   37.4439 H   0  0  0  0  0  0  0  0  0  0  0  0
    4.8538   17.6524   37.6974 H   0  0  0  0  0  0  0  0  0  0  0  0
    1.6656   19.2517   40.0997 H   0  0  0  0  0  0  0  0  0  0  0  0
    3.2365   19.3164   40.9924 H   0  0  0  0  0  0  0  0  0  0  0  0
    1.8075   16.7771   40.2353 H   0  0  0  0  0  0  0  0  0  0  0  0
    5.4146   17.4294   35.9514 H   0  0  0  0  0  0  0  0  0  0  0  0
    3.7439   17.5912   35.3261 H   0  0  0  0  0  0  0  0  0  0  0  0
    1.9989   17.6328   36.6817 H   0  0  0  0  0  0  0  0  0  0  0  0
    0.1070   20.2541   42.2698 H   0  0  0  0  0  0  0  0  0  0  0  0
  1 22  1  0
  2 20  1  0
  2 19  1  0
  2 14  1  0
  3 23  1  0
  4 24  1  0
  4  6  1  0
  5 32  1  0
  7 28  2  0
  7 27  1  0
  8 12  1  0
  8 31  1  0
  8  3  1  0
  9 26  1  0
  9 18  1  0
  9 32  1  0
 10 20  1  0
 10 18  1  0
 11 21  1  0
 13  1  1  0
 13 30  1  0
 13 12  1  0
 15  4  2  0
 16  7  1  0
 17 11  1  0
 18 19  1  0
 19 14  1  0
 19 25  1  0
 24 16  1  0
 25 11  1  0
 27 26  1  0
 27 10  1  0
 29 11  1  0
 30 24  1  0
 31  3  1  0
 31 16  1  0
 32 29  1  0
  1 33  1  0
  1 34  1  0
  2 35  1  0
  3 36  1  0
  5 37  1  0
  5 38  1  0
  5 39  1  0
  8 40  1  0
  9 41  1  0
 10 42  1  0
 12 43  1  0
 12 44  1  0
 13 45  1  0
 14 46  1  0
 14 47  1  0
 18 48  1  0
 20 49  1  0
 20 50  1  0
 22 51  1  0
 23 52  1  0
 23 53  1  0
 23 54  1  0
 24 55  1  0
 26 56  1  0
 26 57  1  0
 27 58  1  0
 30 59  1  0
 30 60  1  0
 31 61  1  0
 32 62  1  0
M  CHG  2   6  -1  30   1
M  END
>  <mol_id>  (19) 
2026-09-18-5lvo-s0-n100-0021

>  <rmsd_to_ref>  (19) 


$$$$

     RDKit          3D

 57 60  0  0  0  0  0  0  0  0999 V2000
    3.6270   17.6150   37.4070 C   0  0  0  0  0  0  0  0  0  0  0  0
    3.5820   19.8880   36.7630 C   0  0  0  0  0  0  0  0  0  0  0  0
    3.2840   16.1810   37.3590 C   0  0  0  0  0  0  0  0  0  0  0  0
    1.9500   14.3840   36.6950 C   0  0  0  0  0  0  0  0  0  0  0  0
    2.8660   15.4030   36.3780 C   0  0  0  0  0  0  0  0  0  0  0  0
    0.6210   20.9310   42.6230 C   0  0  0  0  0  0  0  0  0  0  0  0
   -1.5670   15.6830   46.0520 C   0  0  0  0  0  0  0  0  0  0  0  0
   -0.4770   17.8500   46.0440 C   0  0  0  0  0  0  0  0  0  0  0  0
    4.1730   18.1520   35.1500 O   0  0  0  0  0  0  0  0  0  0  0  0
    0.5280   13.2990   38.3820 O   0  0  0  0  0  0  0  0  0  0  0  0
    0.9450   15.4360   40.2020 C   0  0  0  0  0  0  0  0  0  0  0  0
    3.2110   20.7450   35.6990 O   0  0  0  0  0  0  0  0  0  0  0  0
    1.1200   18.2510   42.7720 N   0  0  0  0  0  0  0  0  0  0  0  0
    1.7320   20.2690   41.8980 C   0  0  0  0  0  0  0  0  0  0  0  0
    3.6360   17.9970   38.7880 N   0  0  0  0  0  0  0  0  0  0  0  0
   -0.1850   17.6870   44.7290 C   0  0  0  0  0  0  0  0  0  0  0  0
   -1.1850   15.5450   44.6800 C   0  0  0  0  0  0  0  0  0  0  0  0
   -1.1000   16.8160   46.7550 C   0  0  0  0  0  0  0  0  0  0  0  0
    3.7590   18.5400   36.3540 C   0  0  0  0  0  0  0  0  0  0  0  0
    2.1070   20.5720   40.9520 C   0  0  0  0  0  0  0  0  0  0  0  0
    0.2760   18.7590   43.6900 C   0  0  0  0  0  0  0  0  0  0  0  0
    3.4980   19.3620   39.0920 C   0  0  0  0  0  0  0  0  0  0  0  0
    2.1400   18.8180   42.1090 C   0  0  0  0  0  0  0  0  0  0  0  0
    2.8510   15.9010   38.6840 N   0  0  0  0  0  0  0  0  0  0  0  0
    1.7710   15.2030   38.9430 C   0  0  0  0  0  0  0  0  0  0  0  0
   -0.1060   12.5210   37.4550 C   0  0  0  0  0  0  0  0  0  0  0  0
    0.0070   20.0320   43.5640 N   0  0  0  0  0  0  0  0  0  0  0  0
    3.4110   19.8930   40.4890 O   0  0  0  0  0  0  0  0  0  0  0  0
   -2.2240   14.7700   46.4990 F   0  0  0  0  0  0  0  0  0  0  0  0
    3.4830   20.2590   38.1020 C   0  0  0  0  0  0  0  0  0  0  0  0
    1.3860   14.2670   37.9770 C   0  0  0  0  0  0  0  0  0  0  0  0
   -0.4630   16.5060   43.9960 C   0  0  0  0  0  0  0  0  0  0  0  0
    4.2571   17.8452   36.5352 H   0  0  0  0  0  0  0  0  0  0  0  0
    1.6671   13.6585   35.9181 H   0  0  0  0  0  0  0  0  0  0  0  0
    3.2221   15.5468   35.3472 H   0  0  0  0  0  0  0  0  0  0  0  0
   -0.1355   21.2617   41.8961 H   0  0  0  0  0  0  0  0  0  0  0  0
    1.0281   21.7904   43.1759 H   0  0  0  0  0  0  0  0  0  0  0  0
   -0.2249   18.7929   46.5513 H   0  0  0  0  0  0  0  0  0  0  0  0
    4.8917   17.4784   35.2494 H   0  0  0  0  0  0  0  0  0  0  0  0
    1.5710   15.2594   41.0891 H   0  0  0  0  0  0  0  0  0  0  0  0
    0.5777   16.4728   40.2129 H   0  0  0  0  0  0  0  0  0  0  0  0
    0.0900   14.7440   40.2129 H   0  0  0  0  0  0  0  0  0  0  0  0
    3.2990   20.4375   34.7621 H   0  0  0  0  0  0  0  0  0  0  0  0
    2.1157   20.9326   42.6869 H   0  0  0  0  0  0  0  0  0  0  0  0
   -1.4797   14.6309   44.1437 H   0  0  0  0  0  0  0  0  0  0  0  0
   -1.2239   16.8854   47.8458 H   0  0  0  0  0  0  0  0  0  0  0  0
    3.1256   18.5339   35.4547 H   0  0  0  0  0  0  0  0  0  0  0  0
    1.3326   20.3599   40.2001 H   0  0  0  0  0  0  0  0  0  0  0  0
    2.3522   21.6389   41.0599 H   0  0  0  0  0  0  0  0  0  0  0  0
    2.2950   18.3178   41.1417 H   0  0  0  0  0  0  0  0  0  0  0  0
    3.0845   18.7369   42.6670 H   0  0  0  0  0  0  0  0  0  0  0  0
   -0.7207   11.7667   37.9681 H   0  0  0  0  0  0  0  0  0  0  0  0
   -0.7501   13.1523   36.8253 H   0  0  0  0  0  0  0  0  0  0  0  0
    0.6424   12.0176   36.8253 H   0  0  0  0  0  0  0  0  0  0  0  0
   -0.7069   20.4260   44.1933 H   0  0  0  0  0  0  0  0  0  0  0  0
    3.3894   21.3260   38.3526 H   0  0  0  0  0  0  0  0  0  0  0  0
   -0.1285   16.3641   42.9577 H   0  0  0  0  0  0  0  0  0  0  0  0
  1  3  1  0
  1 15  1  0
  2 30  2  0
  3 24  1  0
  4 31  2  0
  5  4  1  0
  5  3  2  0
  6 27  1  0
  7 29  1  0
  7 18  2  0
  8 18  1  0
 12  2  1  0
 13 21  2  0
 14 20  1  0
 14 23  1  0
 14  6  1  0
 15 22  2  0
 16  8  2  0
 17  7  1  0
 19  9  1  0
 19  2  1  0
 19  1  1  0
 21 16  1  0
 22 28  1  0
 23 13  1  0
 24 25  2  0
 25 11  1  0
 26 10  1  0
 27 21  1  0
 28 20  1  0
 30 22  1  0
 31 10  1  0
 31 25  1  0
 32 17  2  0
 32 16  1  0
  1 33  1  0
  4 34  1  0
  5 35  1  0
  6 36  1  0
  6 37  1  0
  8 38  1  0
  9 39  1  0
 11 40  1  0
 11 41  1  0
 11 42  1  0
 12 43  1  0
 14 44  1  0
 17 45  1  0
 18 46  1  0
 19 47  1  0
 20 48  1  0
 20 49  1  0
 23 50  1  0
 23 51  1  0
 26 52  1  0
 26 53  1  0
 26 54  1  0
 27 55  1  0
 30 56  1  0
 32 57  1  0
M  END
>  <mol_id>  (20) 
2026-09-18-5lvo-s0-n100-0022

>  <rmsd_to_ref>  (20) 


$$$$

     RDKit          3D

 38 39  0  0  0  0  0  0  0  0999 V2000
    0.1360   15.3820   40.2740 C   0  0  0  0  0  0  0  0  0  0  0  0
   -0.0560   15.6920   43.9680 N   0  0  0  0  0  0  0  0  0  0  0  0
    1.5500   19.4060   43.3310 C   0  0  0  0  0  0  0  0  0  0  0  0
    0.8890   17.1450   42.3160 C   0  0  0  0  0  0  0  0  0  0  0  0
   -1.3220   15.1860   44.4480 C   0  0  0  0  0  0  0  0  0  0  0  0
    4.3750   17.4560   35.0230 O   0  0  0  0  0  0  0  0  0  0  0  0
    0.8760   16.5540   39.9270 C   0  0  0  0  0  0  0  0  0  0  0  0
    0.2710   15.8190   42.5690 C   0  0  0  0  0  0  0  0  0  0  0  0
    4.1110   18.5210   37.0760 C   0  0  0  0  0  0  0  0  0  0  0  0
    1.7710   18.5690   40.4600 O   0  0  0  0  0  0  0  0  0  0  0  0
    3.0950   20.4030   39.9820 C   0  0  0  0  0  0  0  0  0  0  0  0
    4.0130   19.7490   37.7360 C   0  0  0  0  0  0  0  0  0  0  0  0
    4.0030   18.5880   35.7510 N   0  0  0  0  0  0  0  0  0  0  0  0
    1.1450   17.5070   40.9690 C   0  0  0  0  0  0  0  0  0  0  0  0
    2.2410   19.6920   40.9600 C   0  0  0  0  0  0  0  0  0  0  0  0
    3.4910   19.8530   38.8910 C   0  0  0  0  0  0  0  0  0  0  0  0
   -0.2610   14.4440   39.2890 N   0  0  0  0  0  0  0  0  0  0  0  0
    4.2650   17.3970   37.6690 O   0  0  0  0  0  0  0  0  0  0  0  0
   -0.0890   15.0260   41.5700 N   0  0  0  0  0  0  0  0  0  0  0  0
    1.0810   18.1070   43.4810 C   0  0  0  0  0  0  0  0  0  0  0  0
    2.1620   19.9450   42.3280 C   0  0  0  0  0  0  0  0  0  0  0  0
    4.2880   20.9440   37.1070 N   0  0  0  0  0  4  0  0  0  0  0  0
    0.6500   15.9770   44.6617 H   0  0  0  0  0  0  0  0  0  0  0  0
    1.3755   20.0717   44.1891 H   0  0  0  0  0  0  0  0  0  0  0  0
   -1.3233   15.1855   45.5480 H   0  0  0  0  0  0  0  0  0  0  0  0
   -2.1364   15.8277   44.0806 H   0  0  0  0  0  0  0  0  0  0  0  0
   -1.4697   14.1597   44.0806 H   0  0  0  0  0  0  0  0  0  0  0  0
    4.6148   16.7262   35.6474 H   0  0  0  0  0  0  0  0  0  0  0  0
    1.2276   16.7212   38.8982 H   0  0  0  0  0  0  0  0  0  0  0  0
    3.4008   21.4375   40.1970 H   0  0  0  0  0  0  0  0  0  0  0  0
    3.6596   19.4387   35.2826 H   0  0  0  0  0  0  0  0  0  0  0  0
   -0.1180   14.6538   38.2908 H   0  0  0  0  0  0  0  0  0  0  0  0
   -0.6926   13.5524   39.5712 H   0  0  0  0  0  0  0  0  0  0  0  0
    0.8356   17.7549   44.4938 H   0  0  0  0  0  0  0  0  0  0  0  0
    2.7669   20.8138   42.6268 H   0  0  0  0  0  0  0  0  0  0  0  0
    4.4559   21.6736   37.8144 H   0  0  0  0  0  0  0  0  0  0  0  0
    5.1264   20.8371   36.5183 H   0  0  0  0  0  0  0  0  0  0  0  0
    3.4872   21.2143   36.5183 H   0  0  0  0  0  0  0  0  0  0  0  0
  1 19  2  0
  2  5  1  0
  3 20  2  0
  4  8  2  0
  4 20  1  0
  6 13  1  0
  7  1  1  0
  7 14  2  0
  8  2  1  0
  9 18  2  0
  9 12  1  0
 10 15  1  0
 10 14  1  0
 11 15  1  0
 12 16  2  0
 13  9  1  0
 14  4  1  0
 15 21  2  0
 16 11  2  0
 17  1  1  0
 19  8  1  0
 21  3  1  0
 22 12  1  0
  2 23  1  0
  3 24  1  0
  5 25  1  0
  5 26  1  0
  5 27  1  0
  6 28  1  0
  7 29  1  0
 11 30  1  0
 13 31  1  0
 17 32  1  0
 17 33  1  0
 20 34  1  0
 21 35  1  0
 22 36  1  0
 22 37  1  0
 22 38  1  0
M  CHG  1  22   1
M  END
>  <mol_id>  (21) 
2026-09-18-5lvo-s0-n100-0023

>  <rmsd_to_ref>  (21) 


$$$$

     RDKit          3D

 46 47  0  0  0  0  0  0  0  0999 V2000
    4.1850   17.6040   38.7870 N   0  0  0  0  0  0  0  0  0  0  0  0
    1.5400   19.9920   41.1270 C   0  0  0  0  0  0  0  0  0  0  0  0
    0.1750   19.1160   45.0800 N   0  0  0  0  0  0  0  0  0  0  0  0
   -0.1370   13.2250   37.9540 C   0  0  0  0  0  0  0  0  0  0  0  0
   -0.3060   17.9600   45.6820 C   0  0  0  0  0  0  0  0  0  0  0  0
    0.5110   19.5780   43.9870 C   0  0  0  0  0  0  0  0  0  0  0  0
    1.6510   18.8510   41.9360 C   0  0  0  0  0  0  0  0  0  0  0  0
    4.5990   15.0930   36.6830 C   0  0  0  0  0  0  0  0  0  0  0  0
    0.2430   21.3760   42.5320 C   0  0  0  0  0  0  0  0  0  0  0  0
    3.9440   16.5900   38.4210 C   0  0  0  0  0  0  0  0  0  0  0  0
    2.5710   20.1770   40.1570 O   0  0  0  0  0  0  0  0  0  0  0  0
    0.0870   20.8460   43.6510 N   0  0  0  0  0  0  0  0  0  0  0  0
    2.4840   14.3550   38.2900 C   0  0  0  0  0  0  0  0  0  0  0  0
    3.9270   18.7800   39.0640 C   0  0  0  0  0  0  0  0  0  0  0  0
    3.7270   19.9290   37.7460 S   0  0  0  0  0  0  0  0  0  0  0  0
    5.0800   15.7910   37.8370 C   0  0  0  0  0  0  0  0  0  0  0  0
    3.4370   19.2700   40.1500 N   0  0  0  0  0  0  0  0  0  0  0  0
    0.8340   14.3160   37.7550 C   0  0  0  0  0  0  0  0  0  0  0  0
    1.1020   18.7340   43.2010 C   0  0  0  0  0  0  0  0  0  0  0  0
    2.6520   15.8240   38.5440 C   0  0  0  0  0  0  0  0  0  0  0  0
    3.2160   14.5350   36.9360 C   0  0  0  0  0  0  0  0  0  0  0  0
    0.8690   21.1200   41.4310 C   0  0  0  0  0  0  0  0  0  0  0  0
    5.1811   17.5248   39.0369 H   0  0  0  0  0  0  0  0  0  0  0  0
    0.6171   19.5244   40.7533 H   0  0  0  0  0  0  0  0  0  0  0  0
    0.2923   19.8432   45.8000 H   0  0  0  0  0  0  0  0  0  0  0  0
   -0.2855   13.0582   39.0311 H   0  0  0  0  0  0  0  0  0  0  0  0
   -1.0960   13.4984   37.4897 H   0  0  0  0  0  0  0  0  0  0  0  0
    0.2458   12.3042   37.4897 H   0  0  0  0  0  0  0  0  0  0  0  0
   -0.2603   18.0698   46.7756 H   0  0  0  0  0  0  0  0  0  0  0  0
   -1.3485   17.7925   45.3735 H   0  0  0  0  0  0  0  0  0  0  0  0
    0.3100   17.1024   45.3735 H   0  0  0  0  0  0  0  0  0  0  0  0
    2.2117   17.9923   41.5383 H   0  0  0  0  0  0  0  0  0  0  0  0
    5.2852   14.2658   36.4488 H   0  0  0  0  0  0  0  0  0  0  0  0
    4.5485   15.7964   35.8388 H   0  0  0  0  0  0  0  0  0  0  0  0
   -0.3058   22.3269   42.4639 H   0  0  0  0  0  0  0  0  0  0  0  0
    2.7493   13.5787   39.0228 H   0  0  0  0  0  0  0  0  0  0  0  0
    5.4467   15.0688   38.5813 H   0  0  0  0  0  0  0  0  0  0  0  0
    5.9058   16.4608   37.5551 H   0  0  0  0  0  0  0  0  0  0  0  0
    3.7710   18.9008   41.0517 H   0  0  0  0  0  0  0  0  0  0  0  0
    0.3661   15.1992   38.2143 H   0  0  0  0  0  0  0  0  0  0  0  0
    1.0013   14.2088   36.6731 H   0  0  0  0  0  0  0  0  0  0  0  0
    1.1836   17.7219   43.6240 H   0  0  0  0  0  0  0  0  0  0  0  0
    1.7576   16.3891   38.8451 H   0  0  0  0  0  0  0  0  0  0  0  0
    2.5467   15.1754   36.3428 H   0  0  0  0  0  0  0  0  0  0  0  0
    3.4271   13.4765   36.7240 H   0  0  0  0  0  0  0  0  0  0  0  0
    0.8523   21.9055   40.6611 H   0  0  0  0  0  0  0  0  0  0  0  0
  1 14  1  0
  2 11  1  0
  2 22  1  0
  2  7  1  0
  3  5  1  0
  6  3  1  0
  7 19  2  0
  8 21  1  0
  8 16  1  0
  9 12  1  0
 10 20  2  0
 10  1  1  0
 12  6  2  0
 13 18  1  0
 13 20  1  0
 14 17  1  0
 15 14  2  0
 16 10  1  0
 17 11  1  0
 18  4  1  0
 19  6  1  0
 21 13  1  0
 22  9  2  0
  1 23  1  0
  2 24  1  0
  3 25  1  0
  4 26  1  0
  4 27  1  0
  4 28  1  0
  5 29  1  0
  5 30  1  0
  5 31  1  0
  7 32  1  0
  8 33  1  0
  8 34  1  0
  9 35  1  0
 13 36  1  0
 16 37  1  0
 16 38  1  0
 17 39  1  0
 18 40  1  0
 18 41  1  0
 19 42  1  0
 20 43  1  0
 21 44  1  0
 21 45  1  0
 22 46  1  0
M  END
>  <mol_id>  (22) 
2026-09-18-5lvo-s0-n100-0024

>  <rmsd_to_ref>  (22) 


$$$$

     RDKit          3D

 84 87  0  0  0  0  0  0  0  0999 V2000
    4.6780   16.1440   39.3340 N   0  0  0  0  0  0  0  0  0  0  0  0
    0.2640   21.4770   42.4140 C   0  0  0  0  0  0  0  0  0  0  0  0
    1.1890   20.7920   41.9830 C   0  0  0  0  0  0  0  0  0  0  0  0
    3.1350   21.6650   34.2880 N   0  0  0  0  0  0  0  0  0  0  0  0
   -0.4930   19.8180   43.7440 N   0  0  0  0  0  0  0  0  0  0  0  0
   -2.2820   14.8060   46.6440 C   0  0  0  0  0  0  0  0  0  0  0  0
   -0.8760   14.5250   44.0380 C   0  0  0  0  0  0  0  0  0  0  0  0
    2.0320   14.6020   37.4910 C   0  0  0  0  0  0  0  0  0  0  0  0
    3.4470   19.7220   38.5230 C   0  0  0  0  0  0  0  0  0  0  0  0
    5.2350   13.8700   39.3190 N   0  0  0  0  0  0  0  0  0  0  0  0
    4.5960   20.7860   38.4840 C   0  0  0  0  0  0  0  0  0  0  0  0
    6.2800   22.4380   37.8830 C   0  0  0  0  0  0  0  0  0  0  0  0
   -0.6320   15.8200   44.4550 C   0  0  0  0  0  0  0  0  0  0  0  0
    2.8290   20.0970   37.2110 C   0  0  0  0  0  0  0  0  0  0  0  0
    0.5160   18.9190   43.4970 C   0  0  0  0  0  0  0  0  0  0  0  0
    1.1610   13.4520   37.0150 C   0  0  0  0  0  0  0  0  0  0  0  0
   -0.0050   13.5840   41.7130 N   0  0  0  0  0  0  0  0  0  0  0  0
   -0.5590   21.0350   43.2700 N   0  0  0  0  0  0  0  0  0  0  0  0
    0.2440   14.1280   39.3320 C   0  0  0  0  0  0  0  0  0  0  0  0
   -0.8160   17.9150   45.4250 N   0  0  0  0  0  0  0  0  0  0  0  0
   -2.2360   13.8600   45.8970 C   0  0  0  0  0  0  0  0  0  0  0  0
    1.3400   19.4950   42.1810 C   0  0  0  0  0  0  0  0  0  0  0  0
    0.1290   14.6200   40.8040 C   0  0  0  0  0  0  0  0  0  0  0  0
    0.0360   18.5230   46.1130 O   0  0  0  0  0  0  0  0  0  0  0  0
   -0.4430   13.7210   42.8890 C   0  0  0  0  0  0  0  0  0  0  0  0
    3.4660   21.6840   35.4570 C   0  0  0  0  0  0  0  0  0  0  0  0
    4.0630   18.3800   38.6690 C   0  0  0  0  0  0  0  0  0  0  0  0
    5.9830   15.2480   37.7980 O   0  0  0  0  0  0  0  0  0  0  0  0
    5.0570   21.6770   37.3980 C   0  0  0  0  0  0  0  0  0  0  0  0
    2.4890   17.7460   41.2710 C   0  0  0  0  0  0  0  0  0  0  0  0
   -1.0980   16.5210   45.4930 C   0  0  0  0  0  0  0  0  0  0  0  0
   -1.7880   15.9250   46.5780 C   0  0  0  0  0  0  0  0  0  0  0  0
    1.1340   14.3750   38.2340 C   0  0  0  0  0  0  0  0  0  0  0  0
    2.8080   16.8600   40.2210 C   0  0  0  0  0  0  0  0  0  0  0  0
    2.3640   19.7760   39.6510 C   0  0  0  0  0  0  0  0  0  0  0  0
    0.1090   15.8150   41.1330 O   0  0  0  0  0  0  0  0  0  0  0  0
    4.7150   22.0220   36.1630 C   0  0  0  0  0  0  0  0  0  0  0  0
    3.7500   17.1970   39.3030 C   0  0  0  0  0  0  0  0  0  0  0  0
    5.3730   15.0220   38.7510 C   0  0  0  0  0  0  0  0  0  0  0  0
    2.5150   20.9270   36.4720 N   0  0  0  0  0  0  0  0  0  0  0  0
   -1.7230   13.6000   44.8370 C   0  0  0  0  0  0  0  0  0  0  0  0
    2.2340   19.0250   41.0310 C   0  0  0  0  0  0  0  0  0  0  0  0
    5.0768   16.2053   40.2817 H   0  0  0  0  0  0  0  0  0  0  0  0
    0.1469   22.5066   42.0448 H   0  0  0  0  0  0  0  0  0  0  0  0
    1.9558   21.3023   41.3816 H   0  0  0  0  0  0  0  0  0  0  0  0
    2.1782   21.3859   34.0281 H   0  0  0  0  0  0  0  0  0  0  0  0
   -2.8776   14.6316   47.5522 H   0  0  0  0  0  0  0  0  0  0  0  0
    2.0212   15.5432   36.9218 H   0  0  0  0  0  0  0  0  0  0  0  0
    3.1168   14.6770   37.6571 H   0  0  0  0  0  0  0  0  0  0  0  0
    4.6640   13.7813   40.1717 H   0  0  0  0  0  0  0  0  0  0  0  0
    5.6959   13.0402   38.9192 H   0  0  0  0  0  0  0  0  0  0  0  0
    4.3429   21.4768   39.3017 H   0  0  0  0  0  0  0  0  0  0  0  0
    5.4351   20.0760   38.4406 H   0  0  0  0  0  0  0  0  0  0  0  0
    6.2941   22.4467   38.9829 H   0  0  0  0  0  0  0  0  0  0  0  0
    7.1900   21.9464   37.5086 H   0  0  0  0  0  0  0  0  0  0  0  0
    6.2410   23.4716   37.5086 H   0  0  0  0  0  0  0  0  0  0  0  0
    0.0730   16.3735   43.8174 H   0  0  0  0  0  0  0  0  0  0  0  0
    3.4710   19.5047   36.5424 H   0  0  0  0  0  0  0  0  0  0  0  0
    1.8540   20.1913   37.7115 H   0  0  0  0  0  0  0  0  0  0  0  0
    1.1866   18.8508   44.3663 H   0  0  0  0  0  0  0  0  0  0  0  0
    0.1166   17.9115   43.3090 H   0  0  0  0  0  0  0  0  0  0  0  0
    0.4508   13.5619   36.1822 H   0  0  0  0  0  0  0  0  0  0  0  0
    1.2267   12.3848   36.7568 H   0  0  0  0  0  0  0  0  0  0  0  0
    0.3043   13.0358   39.4484 H   0  0  0  0  0  0  0  0  0  0  0  0
   -0.5475   14.7923   38.9550 H   0  0  0  0  0  0  0  0  0  0  0  0
   -1.3603   18.4722   44.7511 H   0  0  0  0  0  0  0  0  0  0  0  0
   -2.8153   13.0094   46.2854 H   0  0  0  0  0  0  0  0  0  0  0  0
    2.2156   19.6939   42.8163 H   0  0  0  0  0  0  0  0  0  0  0  0
   -0.1569   18.3854   47.0742 H   0  0  0  0  0  0  0  0  0  0  0  0
   -0.5654   12.6856   43.2395 H   0  0  0  0  0  0  0  0  0  0  0  0
    5.0196   18.3114   38.1304 H   0  0  0  0  0  0  0  0  0  0  0  0
    1.5959   17.3364   41.7656 H   0  0  0  0  0  0  0  0  0  0  0  0
    3.4267   17.7895   41.8445 H   0  0  0  0  0  0  0  0  0  0  0  0
   -1.0730   15.9610   47.4132 H   0  0  0  0  0  0  0  0  0  0  0  0
   -2.7184   16.5087   46.5177 H   0  0  0  0  0  0  0  0  0  0  0  0
    0.9448   15.0949   39.0439 H   0  0  0  0  0  0  0  0  0  0  0  0
    3.1437   15.9229   40.6891 H   0  0  0  0  0  0  0  0  0  0  0  0
    1.8815   16.8307   39.6288 H   0  0  0  0  0  0  0  0  0  0  0  0
    2.3391   20.8389   39.9332 H   0  0  0  0  0  0  0  0  0  0  0  0
    1.6034   19.1860   39.1186 H   0  0  0  0  0  0  0  0  0  0  0  0
    5.4443   22.6271   35.6044 H   0  0  0  0  0  0  0  0  0  0  0  0
    1.5221   21.2009   36.4732 H   0  0  0  0  0  0  0  0  0  0  0  0
   -1.8961   12.5942   44.4267 H   0  0  0  0  0  0  0  0  0  0  0  0
    3.1716   19.5737   40.8583 H   0  0  0  0  0  0  0  0  0  0  0  0
  2 18  1  0
  3  2  2  0
  4 26  2  3
  7 13  1  0
  7 41  2  0
  8 33  1  0
  9 14  1  0
  9 27  1  0
  9 35  1  0
 11  9  1  0
 13 31  2  0
 15  5  1  0
 16  8  1  0
 16 33  1  0
 17 25  2  3
 18  5  2  0
 19 23  1  0
 20 31  1  0
 20 24  1  0
 21  6  2  0
 22  3  1  0
 22 15  1  0
 23 36  2  0
 23 17  1  0
 25  7  1  0
 26 37  1  0
 26 40  1  0
 27 38  2  0
 28 39  2  0
 29 12  1  0
 29 11  1  0
 31 32  1  0
 32  6  1  0
 33 19  1  0
 34 30  1  0
 37 29  2  0
 38  1  1  0
 38 34  1  0
 39 10  1  0
 39  1  1  0
 40 14  1  0
 41 21  1  0
 42 35  1  0
 42 30  1  0
 42 22  1  0
  1 43  1  0
  2 44  1  0
  3 45  1  0
  4 46  1  0
  6 47  1  0
  8 48  1  0
  8 49  1  0
 10 50  1  0
 10 51  1  0
 11 52  1  0
 11 53  1  0
 12 54  1  0
 12 55  1  0
 12 56  1  0
 13 57  1  0
 14 58  1  0
 14 59  1  0
 15 60  1  0
 15 61  1  0
 16 62  1  0
 16 63  1  0
 19 64  1  0
 19 65  1  0
 20 66  1  0
 21 67  1  0
 22 68  1  0
 24 69  1  0
 25 70  1  0
 27 71  1  0
 30 72  1  0
 30 73  1  0
 32 74  1  0
 32 75  1  0
 33 76  1  0
 34 77  1  0
 34 78  1  0
 35 79  1  0
 35 80  1  0
 37 81  1  0
 40 82  1  0
 41 83  1  0
 42 84  1  0
M  END
>  <mol_id>  (23) 
2026-09-18-5lvo-s0-n100-0025

>  <rmsd_to_ref>  (23) 


$$$$

     RDKit          3D

 31 33  0  0  0  0  0  0  0  0999 V2000
    1.2990   18.0260   42.5810 C   0  0  0  0  0  0  0  0  0  0  0  0
   -0.2100   17.7550   44.6410 C   0  0  0  0  0  0  0  0  0  0  0  0
    2.0960   17.4180   40.1900 C   0  0  0  0  0  0  0  0  0  0  0  0
    1.8520   16.5860   38.2060 O   0  0  0  0  0  0  0  0  0  0  0  0
    2.1650   16.3890   39.7440 C   0  0  0  0  0  0  0  0  0  0  0  0
    2.7760   18.5330   39.4890 C   0  0  0  0  0  0  0  0  0  0  0  0
    0.5990   20.2940   43.1620 C   0  0  0  0  0  0  0  0  0  0  0  0
    2.8590   19.8110   40.1670 C   0  0  0  0  0  0  0  0  0  0  0  0
    1.3830   19.4660   42.4030 C   0  0  0  0  0  0  0  0  0  0  0  0
    2.9370   16.7190   36.2960 O   0  0  0  0  0  0  0  0  0  0  0  0
    3.3880   18.1550   38.1110 C   0  0  0  0  0  0  0  0  0  0  0  0
   -0.6420   18.9320   45.0310 N   0  0  0  0  0  4  0  0  0  0  0  0
    2.7570   17.1830   37.4150 C   0  0  0  0  0  0  0  0  0  0  0  0
    2.2240   17.2980   41.6830 C   0  0  0  0  0  0  0  0  0  0  0  0
   -0.1490   19.9460   44.2930 C   0  0  0  0  0  0  0  0  0  0  0  0
    2.1760   20.1020   41.3820 C   0  0  0  0  0  0  0  0  0  0  0  0
    0.5610   17.3890   43.5820 C   0  0  0  0  0  0  0  0  0  0  0  0
   -0.5268   16.9195   45.2825 H   0  0  0  0  0  0  0  0  0  0  0  0
    1.4262   15.7174   40.2057 H   0  0  0  0  0  0  0  0  0  0  0  0
    3.1524   15.9331   39.9090 H   0  0  0  0  0  0  0  0  0  0  0  0
    0.5520   21.3474   42.8486 H   0  0  0  0  0  0  0  0  0  0  0  0
    3.4830   20.5984   39.7191 H   0  0  0  0  0  0  0  0  0  0  0  0
    0.5254   19.4310   41.7151 H   0  0  0  0  0  0  0  0  0  0  0  0
    3.3934   19.0617   37.4882 H   0  0  0  0  0  0  0  0  0  0  0  0
    4.3849   17.7491   38.3377 H   0  0  0  0  0  0  0  0  0  0  0  0
   -1.6695   18.9442   44.9603 H   0  0  0  0  0  0  0  0  0  0  0  0
   -0.3209   19.0721   45.9996 H   0  0  0  0  0  0  0  0  0  0  0  0
    3.0128   16.6630   42.1126 H   0  0  0  0  0  0  0  0  0  0  0  0
   -0.4622   20.8829   44.7769 H   0  0  0  0  0  0  0  0  0  0  0  0
    2.2929   21.1693   41.6211 H   0  0  0  0  0  0  0  0  0  0  0  0
    0.6194   16.2946   43.4881 H   0  0  0  0  0  0  0  0  0  0  0  0
  1 17  1  0
  2 12  1  0
  3 14  1  0
  4  5  1  0
  5  3  1  0
  6  8  1  0
  6  3  2  0
  7 15  2  0
  8 16  2  0
  9 16  1  0
  9  1  1  0
  9  7  1  0
 10 13  2  0
 11  6  1  0
 13 11  1  0
 13  4  1  0
 14  1  2  0
 15 12  1  0
 17  2  2  0
  2 18  1  0
  5 19  1  0
  5 20  1  0
  7 21  1  0
  8 22  1  0
  9 23  1  0
 11 24  1  0
 11 25  1  0
 12 26  1  0
 12 27  1  0
 14 28  1  0
 15 29  1  0
 16 30  1  0
 17 31  1  0
M  CHG  1  12   1
M  END
>  <mol_id>  (24) 
2026-09-18-5lvo-s0-n100-0026

>  <rmsd_to_ref>  (24) 


$$$$

     RDKit          3D

 40 38  0  0  0  0  0  0  0  0999 V2000
    2.8240   18.3160   40.7520 C   0  0  0  0  0  0  0  0  0  0  0  0
    4.0350   21.3150   37.2370 O   0  0  0  0  0  1  0  0  0  0  0  0
   -0.6860   14.4580   38.8420 N   0  0  0  0  0  4  0  0  0  0  0  0
    1.0400   15.3440   42.3760 C   0  0  0  0  0  0  0  0  0  0  0  0
    0.5100   14.6540   41.0400 C   0  0  0  0  0  0  0  0  0  0  0  0
    3.8630   19.1520   36.8470 O   0  0  0  0  0  0  0  0  0  0  0  0
    1.9870   20.1450   42.5350 C   0  0  0  0  0  0  0  0  0  0  0  0
    0.3480   15.1160   39.6090 C   0  0  0  0  0  0  0  0  0  0  0  0
    1.7480   17.2630   41.1190 C   0  0  0  0  0  0  0  0  0  0  0  0
    3.5560   19.8840   38.9600 N   0  0  0  0  0  0  0  0  0  0  0  0
    2.1800   16.2280   42.1290 C   0  0  0  0  0  0  0  0  0  0  0  0
    1.8370   19.8570   41.1750 C   0  0  0  0  0  0  0  0  0  0  0  0
    3.4420   17.4810   39.2020 O   0  0  0  0  0  0  0  0  0  0  0  0
    3.8340   20.2620   37.5780 C   0  0  0  0  0  0  0  0  0  0  0  0
   -0.8510   14.4770   41.2240 O   0  0  0  0  0  0  0  0  0  0  0  0
    3.6670   18.5920   39.4780 C   0  0  0  0  0  0  0  0  0  0  0  0
    2.3049   19.2713   40.9190 H   0  0  0  0  0  0  0  0  0  0  0  0
    3.6379   17.8371   41.3161 H   0  0  0  0  0  0  0  0  0  0  0  0
   -1.3662   14.0252   39.4831 H   0  0  0  0  0  0  0  0  0  0  0  0
   -1.1657   15.1495   38.2483 H   0  0  0  0  0  0  0  0  0  0  0  0
   -0.2627   13.7305   38.2483 H   0  0  0  0  0  0  0  0  0  0  0  0
    0.2235   15.9343   42.8174 H   0  0  0  0  0  0  0  0  0  0  0  0
    1.3729   14.5473   43.0575 H   0  0  0  0  0  0  0  0  0  0  0  0
    1.3662   13.9640   41.0121 H   0  0  0  0  0  0  0  0  0  0  0  0
    1.5604   19.3259   43.1325 H   0  0  0  0  0  0  0  0  0  0  0  0
    3.0559   20.2530   42.7712 H   0  0  0  0  0  0  0  0  0  0  0  0
    1.4627   21.0827   42.7712 H   0  0  0  0  0  0  0  0  0  0  0  0
    1.3053   14.9524   39.0925 H   0  0  0  0  0  0  0  0  0  0  0  0
    0.0437   16.1712   39.6715 H   0  0  0  0  0  0  0  0  0  0  0  0
    0.8767   17.7952   41.5285 H   0  0  0  0  0  0  0  0  0  0  0  0
    1.5307   16.7126   40.1917 H   0  0  0  0  0  0  0  0  0  0  0  0
    3.2541   20.6290   39.6040 H   0  0  0  0  0  0  0  0  0  0  0  0
    3.0254   15.6470   41.7318 H   0  0  0  0  0  0  0  0  0  0  0  0
    2.5016   16.7120   43.0630 H   0  0  0  0  0  0  0  0  0  0  0  0
    1.3317   18.8868   41.0592 H   0  0  0  0  0  0  0  0  0  0  0  0
    1.2341   20.6437   40.6979 H   0  0  0  0  0  0  0  0  0  0  0  0
    2.8272   19.8139   40.6979 H   0  0  0  0  0  0  0  0  0  0  0  0
    3.3345   16.9503   40.0308 H   0  0  0  0  0  0  0  0  0  0  0  0
   -1.0523   14.4508   42.1930 H   0  0  0  0  0  0  0  0  0  0  0  0
    4.7011   18.8518   39.2077 H   0  0  0  0  0  0  0  0  0  0  0  0
  1  9  1  0
  2 14  1  0
  3  8  1  0
  5 15  1  0
  5  4  1  0
  6 14  2  0
  8  5  1  0
  9 11  1  0
 10 16  1  0
 11  4  1  0
 12  7  1  0
 14 10  1  0
 16 13  1  0
 16  1  1  0
  1 17  1  0
  1 18  1  0
  3 19  1  0
  3 20  1  0
  3 21  1  0
  4 22  1  0
  4 23  1  0
  5 24  1  0
  7 25  1  0
  7 26  1  0
  7 27  1  0
  8 28  1  0
  8 29  1  0
  9 30  1  0
  9 31  1  0
 10 32  1  0
 11 33  1  0
 11 34  1  0
 12 35  1  0
 12 36  1  0
 12 37  1  0
 13 38  1  0
 15 39  1  0
 16 40  1  0
M  CHG  2   2  -1   3   1
M  END
>  <mol_id>  (25) 
2026-09-18-5lvo-s0-n100-0027

>  <rmsd_to_ref>  (25) 


$$$$

     RDKit          3D

 69 72  0  0  0  0  0  0  0  0999 V2000
   -1.5170   15.9800   46.0550 C   0  0  0  0  0  0  0  0  0  0  0  0
    4.8530   18.5240   34.4680 N   0  0  0  0  0  0  0  0  0  0  0  0
   -1.2340   16.5360   44.7510 C   0  0  0  0  0  0  0  0  0  0  0  0
    1.9270   19.4230   41.6250 C   0  0  0  0  0  0  0  0  0  0  0  0
    3.3650   16.5930   38.0990 C   0  0  0  0  0  0  0  0  0  0  0  0
    4.6710   20.8940   37.5210 O   0  0  0  0  0  0  0  0  0  0  0  0
    3.1840   17.9650   39.6280 C   0  0  0  0  0  0  0  0  0  0  0  0
    1.3530   19.3660   43.1550 C   0  0  0  0  0  0  0  0  0  0  0  0
    1.6090   17.8530   43.2890 O   0  0  0  0  0  0  0  0  0  0  0  0
   -1.9090   15.6280   47.4450 C   0  0  0  0  0  0  0  0  0  0  0  0
   -0.4060   17.5700   44.3400 C   0  0  0  0  0  0  0  0  0  0  0  0
   -1.7560   15.3120   44.6850 C   0  0  0  0  0  0  0  0  0  0  0  0
    1.9730   18.1680   41.0670 O   0  0  0  0  0  0  0  0  0  0  0  0
   -1.7180   14.3640   43.6460 C   0  0  0  0  0  0  0  0  0  0  0  0
    3.2260   16.8420   36.7470 C   0  0  0  0  0  0  0  0  0  0  0  0
    3.4020   20.6820   38.0480 C   0  0  0  0  0  0  0  0  0  0  0  0
    2.7190   17.3240   40.5820 C   0  0  0  0  0  0  0  0  0  0  0  0
    4.3080   18.6530   38.7080 O   0  0  0  0  0  0  0  0  0  0  0  0
    3.2120   15.4690   39.1740 C   0  0  0  0  0  0  0  0  0  0  0  0
    3.8810   15.8820   35.8750 C   0  0  0  0  0  0  0  0  0  0  0  0
   -1.3840   16.9850   47.2350 C   0  0  0  0  0  0  0  0  0  0  0  0
    3.1430   19.3470   38.6030 C   0  0  0  0  0  0  0  0  0  0  0  0
    4.0330   19.1810   35.4000 N   0  0  0  0  0  0  0  0  0  0  0  0
    3.9650   18.2380   36.2250 C   0  0  0  0  0  0  0  0  0  0  0  0
   -0.2250   18.9350   45.0500 C   0  0  0  0  0  0  0  0  0  0  0  0
    6.2630   18.0120   34.9660 O   0  0  0  0  0  0  0  0  0  0  0  0
   -1.2990   15.1170   42.4470 O   0  0  0  0  0  0  0  0  0  0  0  0
   -0.0020   21.1050   44.1230 O   0  0  0  0  0  0  0  0  0  0  0  0
    0.0260   19.7890   43.4600 C   0  0  0  0  0  0  0  0  0  0  0  0
    3.0480   21.6960   38.0580 O   0  0  0  0  0  1  0  0  0  0  0  0
    0.3790   17.0750   43.2080 C   0  0  0  0  0  0  0  0  0  0  0  0
    3.0150   15.7110   40.3800 C   0  0  0  0  0  0  0  0  0  0  0  0
    5.0199   19.1777   33.6898 H   0  0  0  0  0  0  0  0  0  0  0  0
   -1.2471   17.3149   43.9744 H   0  0  0  0  0  0  0  0  0  0  0  0
    1.2690   20.0622   41.0180 H   0  0  0  0  0  0  0  0  0  0  0  0
    2.9478   19.8321   41.6497 H   0  0  0  0  0  0  0  0  0  0  0  0
    2.7065   17.3679   38.5183 H   0  0  0  0  0  0  0  0  0  0  0  0
    4.4354   16.3708   37.9773 H   0  0  0  0  0  0  0  0  0  0  0  0
    2.8046   17.0634   40.1312 H   0  0  0  0  0  0  0  0  0  0  0  0
    1.8084   20.0827   43.8542 H   0  0  0  0  0  0  0  0  0  0  0  0
   -2.9732   15.4922   47.6881 H   0  0  0  0  0  0  0  0  0  0  0  0
   -1.6345   14.8071   48.1238 H   0  0  0  0  0  0  0  0  0  0  0  0
   -1.1856   17.9188   43.6468 H   0  0  0  0  0  0  0  0  0  0  0  0
   -2.4494   14.4927   44.4444 H   0  0  0  0  0  0  0  0  0  0  0  0
   -0.9923   13.5698   43.8754 H   0  0  0  0  0  0  0  0  0  0  0  0
   -2.6920   13.8733   43.5026 H   0  0  0  0  0  0  0  0  0  0  0  0
    2.1283   16.8440   36.6759 H   0  0  0  0  0  0  0  0  0  0  0  0
    2.8273   16.8653   41.5759 H   0  0  0  0  0  0  0  0  0  0  0  0
    2.3652   14.8481   38.8462 H   0  0  0  0  0  0  0  0  0  0  0  0
    4.2258   15.0427   39.1956 H   0  0  0  0  0  0  0  0  0  0  0  0
    4.3971   15.1256   36.4845 H   0  0  0  0  0  0  0  0  0  0  0  0
    3.1290   15.3906   35.2402 H   0  0  0  0  0  0  0  0  0  0  0  0
    4.6128   16.4030   35.2402 H   0  0  0  0  0  0  0  0  0  0  0  0
   -0.3903   17.2595   47.6188 H   0  0  0  0  0  0  0  0  0  0  0  0
   -1.7402   18.0051   47.4412 H   0  0  0  0  0  0  0  0  0  0  0  0
    2.1488   19.7274   38.3256 H   0  0  0  0  0  0  0  0  0  0  0  0
    4.4788   20.0210   35.7957 H   0  0  0  0  0  0  0  0  0  0  0  0
    4.9928   17.8578   36.1297 H   0  0  0  0  0  0  0  0  0  0  0  0
    3.2331   18.8206   36.8036 H   0  0  0  0  0  0  0  0  0  0  0  0
   -1.1183   19.2713   45.5967 H   0  0  0  0  0  0  0  0  0  0  0  0
    0.5289   19.0367   45.8445 H   0  0  0  0  0  0  0  0  0  0  0  0
    6.2810   18.0055   35.9558 H   0  0  0  0  0  0  0  0  0  0  0  0
   -0.8368   15.9476   42.7238 H   0  0  0  0  0  0  0  0  0  0  0  0
    0.0007   20.9799   45.1051 H   0  0  0  0  0  0  0  0  0  0  0  0
   -0.6009   19.6857   42.5621 H   0  0  0  0  0  0  0  0  0  0  0  0
    0.5852   15.9995   43.3114 H   0  0  0  0  0  0  0  0  0  0  0  0
   -0.1383   17.1856   42.2435 H   0  0  0  0  0  0  0  0  0  0  0  0
    3.9052   15.4269   40.9603 H   0  0  0  0  0  0  0  0  0  0  0  0
    2.1466   15.1341   40.7307 H   0  0  0  0  0  0  0  0  0  0  0  0
  1 21  1  0
  1 10  1  0
  2 26  1  0
  2 23  1  0
  3  1  1  0
  5 19  1  0
  6 16  2  0
  7 17  1  0
  8  4  1  0
  8  9  1  0
  8 29  1  0
 11 31  1  0
 11  3  1  0
 11 25  1  0
 12 14  1  0
 12  3  1  0
 12  1  1  0
 13  4  1  0
 15 20  1  0
 15  5  1  0
 16 30  1  0
 17 32  1  0
 17 13  1  0
 18  7  1  0
 19 32  1  0
 21 10  1  0
 22 16  1  0
 22 18  1  0
 22  7  1  0
 23 24  1  0
 24 15  1  0
 27 14  1  0
 29 28  1  0
 29 25  1  0
 31  9  1  0
  2 33  1  0
  3 34  1  0
  4 35  1  0
  4 36  1  0
  5 37  1  0
  5 38  1  0
  7 39  1  0
  8 40  1  0
 10 41  1  0
 10 42  1  0
 11 43  1  0
 12 44  1  0
 14 45  1  0
 14 46  1  0
 15 47  1  0
 17 48  1  0
 19 49  1  0
 19 50  1  0
 20 51  1  0
 20 52  1  0
 20 53  1  0
 21 54  1  0
 21 55  1  0
 22 56  1  0
 23 57  1  0
 24 58  1  0
 24 59  1  0
 25 60  1  0
 25 61  1  0
 26 62  1  0
 27 63  1  0
 28 64  1  0
 29 65  1  0
 31 66  1  0
 31 67  1  0
 32 68  1  0
 32 69  1  0
M  CHG  1  30  -1
M  END
>  <mol_id>  (26) 
2026-09-18-5lvo-s0-n100-0028

>  <rmsd_to_ref>  (26) 


$$$$

     RDKit          3D

 61 63  0  0  0  0  0  0  0  0999 V2000
    2.4640   13.0510   41.6080 S   0  0  0  0  0  0  0  0  0  0  0  0
    3.9520   17.6320   36.5550 C   0  0  0  0  0  0  0  0  0  0  0  0
    5.1890   14.8940   36.4130 S   0  0  0  0  0  0  0  0  0  0  0  0
    2.1760   18.3010   41.0560 C   0  0  0  0  0  0  0  0  0  0  0  0
    0.7390   14.5640   40.6880 C   0  0  0  0  0  0  0  0  0  0  0  0
    2.5370   19.3450   41.2990 C   0  0  0  0  0  0  0  0  0  0  0  0
    1.2020   20.7260   42.7510 C   0  0  0  0  0  0  0  0  0  0  0  0
    6.6350   15.9430   34.4560 N   0  0  0  0  0  4  0  0  0  0  0  0
    1.9470   16.0170   41.6320 C   0  0  0  0  0  0  0  0  0  0  0  0
    2.8630   18.0380   39.7280 C   0  0  0  0  0  0  0  0  0  0  0  0
    2.7700   20.1690   38.6160 O   0  0  0  0  0  0  0  0  0  0  0  0
    0.6960   19.6890   43.5450 C   0  0  0  0  0  0  0  0  0  0  0  0
    0.8770   15.4110   41.2360 O   0  0  0  0  0  0  0  0  0  0  0  0
    2.9450   18.9440   38.5900 C   0  0  0  0  0  0  0  0  0  0  0  0
    2.9350   15.5370   42.5700 C   0  0  0  0  0  0  0  0  0  0  0  0
    6.0070   16.2710   35.7800 C   0  0  0  0  0  0  0  0  0  0  0  0
   -0.9110   16.0210   43.0160 Cl  0  0  0  0  0  0  0  0  0  0  0  0
    0.7610   18.3300   43.2710 C   0  0  0  0  0  0  0  0  0  0  0  0
    4.0500   16.1350   36.3990 C   0  0  0  0  0  0  0  0  0  0  0  0
    1.7020   13.5730   40.1530 C   0  0  0  0  0  0  0  0  0  0  0  0
    5.9710   14.7880   33.8860 C   0  0  0  0  0  0  0  0  0  0  0  0
    0.1980   20.0220   44.7100 C   0  0  0  0  0  0  0  0  0  0  0  0
   -0.5020   14.3200   39.6450 O   0  0  0  0  0  0  0  0  0  0  0  0
    3.2900   18.3780   37.4080 C   0  0  0  0  0  0  0  0  0  0  0  0
   -0.4900   19.1110   45.4350 C   0  0  0  0  0  0  0  0  0  0  0  0
    2.0940   20.6810   41.6820 C   0  0  0  0  0  0  0  0  0  0  0  0
   -0.7610   17.8490   44.9240 C   0  0  0  0  0  0  0  0  0  0  0  0
    1.4240   17.2890   41.8990 C   0  0  0  0  0  0  0  0  0  0  0  0
    3.7500   16.7830   39.4840 C   0  0  0  0  0  0  0  0  0  0  0  0
    4.2340   18.1640   35.5300 O   0  0  0  0  0  0  0  0  0  0  0  0
   -0.2250   17.4310   43.7170 C   0  0  0  0  0  0  0  0  0  0  0  0
    3.7720   14.3980   41.8790 C   0  0  0  0  0  0  0  0  0  0  0  0
    3.6337   19.3576   41.2150 H   0  0  0  0  0  0  0  0  0  0  0  0
    0.8390   21.7311   43.0118 H   0  0  0  0  0  0  0  0  0  0  0  0
    6.5356   16.7465   33.8192 H   0  0  0  0  0  0  0  0  0  0  0  0
    7.6351   15.7360   34.5895 H   0  0  0  0  0  0  0  0  0  0  0  0
    2.7052   15.8609   40.8505 H   0  0  0  0  0  0  0  0  0  0  0  0
    1.9799   17.4812   39.3814 H   0  0  0  0  0  0  0  0  0  0  0  0
    2.8487   20.6981   37.7829 H   0  0  0  0  0  0  0  0  0  0  0  0
    1.6863   19.5585   44.0056 H   0  0  0  0  0  0  0  0  0  0  0  0
    3.6016   16.3623   42.8607 H   0  0  0  0  0  0  0  0  0  0  0  0
    2.4391   15.1453   43.4704 H   0  0  0  0  0  0  0  0  0  0  0  0
    6.7909   16.5832   36.4857 H   0  0  0  0  0  0  0  0  0  0  0  0
    5.2802   17.0845   35.6388 H   0  0  0  0  0  0  0  0  0  0  0  0
    3.5922   15.9932   35.4089 H   0  0  0  0  0  0  0  0  0  0  0  0
    3.7891   15.9651   37.4540 H   0  0  0  0  0  0  0  0  0  0  0  0
    1.1894   12.7436   39.6437 H   0  0  0  0  0  0  0  0  0  0  0  0
    2.3914   13.9701   39.3934 H   0  0  0  0  0  0  0  0  0  0  0  0
    5.5997   14.1421   34.6953 H   0  0  0  0  0  0  0  0  0  0  0  0
    5.1260   15.1202   33.2650 H   0  0  0  0  0  0  0  0  0  0  0  0
    6.6833   14.2249   33.2650 H   0  0  0  0  0  0  0  0  0  0  0  0
    0.3393   21.0415   45.0981 H   0  0  0  0  0  0  0  0  0  0  0  0
   -0.8399   19.3738   46.4442 H   0  0  0  0  0  0  0  0  0  0  0  0
    2.4395   21.5878   41.1639 H   0  0  0  0  0  0  0  0  0  0  0  0
   -1.4142   17.1675   45.4887 H   0  0  0  0  0  0  0  0  0  0  0  0
    4.0529   16.3545   40.4508 H   0  0  0  0  0  0  0  0  0  0  0  0
    3.1786   16.0353   38.9144 H   0  0  0  0  0  0  0  0  0  0  0  0
    4.6455   17.0721   38.9144 H   0  0  0  0  0  0  0  0  0  0  0  0
    4.7337   17.6664   34.8351 H   0  0  0  0  0  0  0  0  0  0  0  0
    4.5806   14.0430   42.5348 H   0  0  0  0  0  0  0  0  0  0  0  0
    4.2756   14.7178   40.9548 H   0  0  0  0  0  0  0  0  0  0  0  0
  1 32  1  0
  2 24  2  0
  4  6  2  0
  4 28  1  0
  5 13  1  0
  6 26  1  0
  8 16  1  0
  9 28  1  0
  9 15  1  0
 10 29  1  0
 10  4  1  0
 12  7  1  0
 12 22  1  0
 13  9  1  0
 14 11  1  0
 14 10  1  0
 16  3  1  0
 17 31  1  0
 18 12  1  0
 18 31  1  0
 19  3  1  0
 19  2  1  0
 20  5  1  0
 20  1  1  0
 21  8  1  0
 22 25  2  0
 23  5  2  0
 24 14  2  0
 26  7  2  0
 27 25  1  0
 28 18  2  0
 30  2  1  0
 31 27  2  0
 32 15  1  0
  6 33  1  0
  7 34  1  0
  8 35  1  0
  8 36  1  0
  9 37  1  0
 10 38  1  0
 11 39  1  0
 12 40  1  0
 15 41  1  0
 15 42  1  0
 16 43  1  0
 16 44  1  0
 19 45  1  0
 19 46  1  0
 20 47  1  0
 20 48  1  0
 21 49  1  0
 21 50  1  0
 21 51  1  0
 22 52  1  0
 25 53  1  0
 26 54  1  0
 27 55  1  0
 29 56  1  0
 29 57  1  0
 29 58  1  0
 30 59  1  0
 32 60  1  0
 32 61  1  0
M  CHG  1   8   1
M  END
>  <mol_id>  (27) 
2026-09-18-5lvo-s0-n100-0029

>  <rmsd_to_ref>  (27) 


$$$$

     RDKit          3D

 58 61  0  0  0  0  0  0  0  0999 V2000
    2.3420   20.0720   39.2060 C   0  0  0  0  0  0  0  0  0  0  0  0
    4.9170   16.4560   35.6200 O   0  0  0  0  0  0  0  0  0  0  0  0
    4.6460   21.9070   37.7830 O   0  0  0  0  0  1  0  0  0  0  0  0
    2.8910   15.4880   38.5090 O   0  0  0  0  0  0  0  0  0  0  0  0
    4.2580   15.3600   39.0890 O   0  0  0  0  0  0  0  0  0  0  0  0
    5.8480   14.8000   37.3400 O   0  0  0  0  0  0  0  0  0  0  0  0
    3.2610   19.7450   39.9290 C   0  0  0  0  0  0  0  0  0  0  0  0
    3.0960   17.8320   38.4210 N   0  0  0  0  0  0  0  0  0  0  0  0
   -1.8390   15.1170   42.9580 C   0  0  0  0  0  0  0  0  0  0  0  0
    0.0320   17.2370   44.5210 C   0  0  0  0  0  0  0  0  0  0  0  0
    3.1690   13.6990   36.6210 C   0  0  0  0  0  0  0  0  0  0  0  0
    3.8330   18.3350   39.2310 C   0  0  0  0  0  0  0  0  0  0  0  0
    0.4170   21.0200   43.3330 O   0  0  0  0  0  0  0  0  0  0  0  0
    1.2040   18.9180   40.1460 C   0  0  0  0  0  0  0  0  0  0  0  0
    5.4090   20.4370   38.4630 O   0  0  0  0  0  1  0  0  0  0  0  0
   -1.2780   16.5650   46.9170 C   0  0  0  0  0  0  0  0  0  0  0  0
    1.7700   19.3060   41.6250 C   0  0  0  0  0  0  0  0  0  0  0  0
    3.4650   20.6330   37.5390 O   0  0  0  0  0  0  0  0  0  0  0  0
    0.4110   19.8560   43.8730 C   0  0  0  0  0  0  0  0  0  0  0  0
   -0.2370   19.5260   45.0540 N   0  0  0  0  0  0  0  0  0  0  0  0
    2.5750   14.0610   35.3380 O   0  0  0  0  0  0  0  0  0  0  0  0
    1.9590   17.7280   39.2340 C   0  0  0  0  0  0  0  0  0  0  0  0
    3.8790   15.9540   36.4950 C   0  0  0  0  0  0  0  0  0  0  0  0
    0.9420   17.7980   43.3510 C   0  0  0  0  0  0  0  0  0  0  0  0
   -1.0140   15.6020   45.9260 C   0  0  0  0  0  0  0  0  0  0  0  0
    4.5360   14.4910   36.8580 C   0  0  0  0  0  0  0  0  0  0  0  0
   -0.9650   17.8750   46.5920 C   0  0  0  0  0  0  0  0  0  0  0  0
    2.9900   19.6860   41.4170 O   0  0  0  0  0  0  0  0  0  0  0  0
   -0.6250   15.1100   43.5890 O   0  0  0  0  0  0  0  0  0  0  0  0
    1.1080   18.9010   42.9120 C   0  0  0  0  0  0  0  0  0  0  0  0
   -0.4770   15.9240   44.7580 C   0  0  0  0  0  0  0  0  0  0  0  0
    4.3770   20.8510   38.1120 C   0  0  0  0  0  0  0  0  0  0  0  0
    3.8300   16.4220   37.9970 C   0  0  0  0  0  0  0  0  0  0  0  0
   -0.3680   18.2690   45.4360 C   0  0  0  0  0  0  0  0  0  0  0  0
    2.0670   21.1345   39.2801 H   0  0  0  0  0  0  0  0  0  0  0  0
    2.4364   19.9963   38.1127 H   0  0  0  0  0  0  0  0  0  0  0  0
    5.6616   16.8161   36.1640 H   0  0  0  0  0  0  0  0  0  0  0  0
    5.8445   14.7992   38.3300 H   0  0  0  0  0  0  0  0  0  0  0  0
    4.0269   20.5337   39.9668 H   0  0  0  0  0  0  0  0  0  0  0  0
   -2.6426   15.1216   43.7091 H   0  0  0  0  0  0  0  0  0  0  0  0
   -1.9200   16.0156   42.3288 H   0  0  0  0  0  0  0  0  0  0  0  0
   -1.9304   14.2194   42.3288 H   0  0  0  0  0  0  0  0  0  0  0  0
    3.3722   12.6180   36.6320 H   0  0  0  0  0  0  0  0  0  0  0  0
    2.4644   13.9648   37.4228 H   0  0  0  0  0  0  0  0  0  0  0  0
    4.0079   17.6035   40.0337 H   0  0  0  0  0  0  0  0  0  0  0  0
    4.7470   18.6113   38.6849 H   0  0  0  0  0  0  0  0  0  0  0  0
    0.1150   18.8056   40.2529 H   0  0  0  0  0  0  0  0  0  0  0  0
   -1.7077   16.2939   47.8926 H   0  0  0  0  0  0  0  0  0  0  0  0
    1.2668   20.0017   42.3126 H   0  0  0  0  0  0  0  0  0  0  0  0
   -0.6236   20.2762   45.6445 H   0  0  0  0  0  0  0  0  0  0  0  0
    1.7400   14.5699   35.4928 H   0  0  0  0  0  0  0  0  0  0  0  0
    1.1723   17.3593   38.5593 H   0  0  0  0  0  0  0  0  0  0  0  0
    2.4087   17.1585   40.0606 H   0  0  0  0  0  0  0  0  0  0  0  0
    2.9242   16.1700   35.9932 H   0  0  0  0  0  0  0  0  0  0  0  0
    1.5370   17.0248   42.8430 H   0  0  0  0  0  0  0  0  0  0  0  0
   -1.2610   14.5491   46.1268 H   0  0  0  0  0  0  0  0  0  0  0  0
    5.0695   13.5304   36.9090 H   0  0  0  0  0  0  0  0  0  0  0  0
   -1.2188   18.6552   47.3248 H   0  0  0  0  0  0  0  0  0  0  0  0
  3 32  1  0
  4  5  1  0
  7  1  1  0
  7 28  1  0
  8 33  1  0
  8 12  1  0
  8 22  1  0
  9 29  1  0
 10 31  2  0
 10 34  1  0
 11 26  1  0
 12  7  1  0
 13 19  2  0
 14  1  1  0
 14 17  1  0
 17 30  1  0
 18 32  2  0
 19 20  1  0
 20 34  1  0
 21 11  1  0
 22 14  1  0
 23  2  1  0
 23 26  1  0
 23 33  1  0
 24 10  1  0
 25 16  2  0
 26  6  1  0
 27 16  1  0
 28 17  1  0
 29 31  1  0
 30 24  2  0
 30 19  1  0
 31 25  1  0
 32 15  1  0
 33  4  1  0
 33  5  1  0
 34 27  2  0
  1 35  1  0
  1 36  1  0
  2 37  1  0
  6 38  1  0
  7 39  1  0
  9 40  1  0
  9 41  1  0
  9 42  1  0
 11 43  1  0
 11 44  1  0
 12 45  1  0
 12 46  1  0
 14 47  1  0
 16 48  1  0
 17 49  1  0
 20 50  1  0
 21 51  1  0
 22 52  1  0
 22 53  1  0
 23 54  1  0
 24 55  1  0
 25 56  1  0
 26 57  1  0
 27 58  1  0
M  CHG  2   3  -1  15  -1
M  END
>  <mol_id>  (28) 
2026-09-18-5lvo-s0-n100-0030

>  <rmsd_to_ref>  (28) 


$$$$

     RDKit          3D

 56 59  0  0  0  0  0  0  0  0999 V2000
    0.2460   20.8070   43.5650 C   0  0  0  0  0  0  0  0  0  0  0  0
    5.0230   15.6820   36.4840 O   0  0  0  0  0  0  0  0  0  0  0  0
    4.2710   15.9620   37.6610 S   0  0  0  0  0  6  0  0  0  0  0  0
   -0.1900   18.6820   44.6050 C   0  0  0  0  0  0  0  0  0  0  0  0
    1.3320   21.2020   41.3600 Cl  0  0  0  0  0  0  0  0  0  0  0  0
    4.2080   18.3010   35.5380 O   0  0  0  0  0  0  0  0  0  0  0  0
    3.8480   19.8500   37.0870 C   0  0  0  0  0  0  0  0  0  0  0  0
    3.6230   17.5030   37.5820 C   0  0  0  0  0  0  0  0  0  0  0  0
    2.7090   17.7580   38.5950 C   0  0  0  0  0  0  0  0  0  0  0  0
    0.4070   14.2590   38.9800 C   0  0  0  0  0  0  0  0  0  0  0  0
   -0.3130   20.0680   44.6310 C   0  0  0  0  0  0  0  0  0  0  0  0
   -0.4020   14.4970   38.1330 O   0  0  0  0  0  0  0  0  0  0  0  0
    2.1170   16.4960   42.2000 C   0  0  0  0  0  0  0  0  0  0  0  0
    0.2000   16.3040   43.8600 C   0  0  0  0  0  0  0  0  0  0  0  0
   -1.3670   15.9530   43.8060 C   0  0  0  0  0  0  0  0  0  0  0  0
    3.8860   18.5500   36.6660 C   0  0  0  0  0  0  0  0  0  0  0  0
    2.8440   19.1670   39.2790 C   0  0  0  0  0  0  0  0  0  0  0  0
    2.3070   16.9960   40.8870 C   0  0  0  0  0  0  0  0  0  0  0  0
    1.1960   14.9130   44.3100 C   0  0  0  0  0  0  0  0  0  0  0  0
    0.4630   15.1370   40.1740 C   0  0  0  0  0  0  0  0  0  0  0  0
   -0.5690   18.0430   45.9900 Cl  0  0  0  0  0  0  0  0  0  0  0  0
    1.2220   13.3270   38.9730 O   0  0  0  0  0  1  0  0  0  0  0  0
    0.9120   15.8820   42.1620 C   0  0  0  0  0  0  0  0  0  0  0  0
    2.3220   15.3380   37.4450 S   0  0  0  0  0  0  0  0  0  0  0  0
    1.7550   16.6550   38.6720 C   0  0  0  0  0  0  0  0  0  0  0  0
    0.4290   17.9310   43.5230 C   0  0  0  0  0  0  0  0  0  0  0  0
    0.8050   20.2050   42.6250 C   0  0  0  0  0  0  0  0  0  0  0  0
    3.4460   20.1150   38.5080 C   0  0  0  0  0  0  0  0  0  0  0  0
    5.2650   16.1140   39.0450 O   0  0  0  0  0  0  0  0  0  0  0  0
    1.0250   14.4520   42.6680 C   0  0  0  0  0  0  0  0  0  0  0  0
    1.7700   16.0790   39.9760 N   0  0  0  0  0  0  0  0  0  0  0  0
    0.9300   18.8990   42.4760 C   0  0  0  0  0  0  0  0  0  0  0  0
    0.1892   21.9055   43.5631 H   0  0  0  0  0  0  0  0  0  0  0  0
    4.1039   20.6751   36.4060 H   0  0  0  0  0  0  0  0  0  0  0  0
    2.8205   17.1320   36.9275 H   0  0  0  0  0  0  0  0  0  0  0  0
    2.0554   18.2731   37.8756 H   0  0  0  0  0  0  0  0  0  0  0  0
   -0.8313   20.5740   45.4589 H   0  0  0  0  0  0  0  0  0  0  0  0
    2.9097   15.7793   42.4608 H   0  0  0  0  0  0  0  0  0  0  0  0
    2.1551   17.2919   42.9583 H   0  0  0  0  0  0  0  0  0  0  0  0
   -1.7586   15.8653   44.8302 H   0  0  0  0  0  0  0  0  0  0  0  0
   -1.9039   16.7531   43.2754 H   0  0  0  0  0  0  0  0  0  0  0  0
   -1.5113   15.0003   43.2754 H   0  0  0  0  0  0  0  0  0  0  0  0
    1.8350   19.5225   39.5349 H   0  0  0  0  0  0  0  0  0  0  0  0
    3.4874   19.0261   40.1600 H   0  0  0  0  0  0  0  0  0  0  0  0
    1.7961   17.9645   40.7821 H   0  0  0  0  0  0  0  0  0  0  0  0
    3.3803   17.1352   40.6904 H   0  0  0  0  0  0  0  0  0  0  0  0
    2.2222   15.1537   44.6246 H   0  0  0  0  0  0  0  0  0  0  0  0
    0.9512   14.2458   45.1496 H   0  0  0  0  0  0  0  0  0  0  0  0
   -0.4460   15.7531   40.2383 H   0  0  0  0  0  0  0  0  0  0  0  0
    0.5260   14.5507   41.1026 H   0  0  0  0  0  0  0  0  0  0  0  0
    0.4548   16.0864   41.1826 H   0  0  0  0  0  0  0  0  0  0  0  0
    0.7413   17.0194   38.4493 H   0  0  0  0  0  0  0  0  0  0  0  0
    3.6437   21.1066   38.9411 H   0  0  0  0  0  0  0  0  0  0  0  0
    0.1215   13.8538   42.4788 H   0  0  0  0  0  0  0  0  0  0  0  0
    1.7984   13.8056   42.2275 H   0  0  0  0  0  0  0  0  0  0  0  0
    1.4104   18.5060   41.5678 H   0  0  0  0  0  0  0  0  0  0  0  0
  1 11  2  0
  2  3  2  0
  3 29  2  0
  4 11  1  0
  4 21  1  0
  5 27  1  0
  6 16  2  0
  7 28  2  0
  8 16  1  0
  8  3  1  0
  8  9  1  0
  9 25  1  0
  9 17  1  0
 10 20  1  0
 12 10  2  0
 14 15  1  0
 14 19  1  0
 16  7  1  0
 18 13  1  0
 22 10  1  0
 23 13  1  0
 23 30  1  0
 23 14  1  0
 24  3  1  0
 24 25  1  0
 25 31  1  0
 26 14  1  0
 26  4  2  0
 27  1  1  0
 28 17  1  0
 30 19  1  0
 31 20  1  0
 31 18  1  0
 32 27  2  0
 32 26  1  0
  1 33  1  0
  7 34  1  0
  8 35  1  0
  9 36  1  0
 11 37  1  0
 13 38  1  0
 13 39  1  0
 15 40  1  0
 15 41  1  0
 15 42  1  0
 17 43  1  0
 17 44  1  0
 18 45  1  0
 18 46  1  0
 19 47  1  0
 19 48  1  0
 20 49  1  0
 20 50  1  0
 23 51  1  0
 25 52  1  0
 28 53  1  0
 30 54  1  0
 30 55  1  0
 32 56  1  0
M  CHG  1  22  -1
M  END
>  <mol_id>  (29) 
2026-09-18-5lvo-s0-n100-0031

>  <rmsd_to_ref>  (29) 


$$$$

     RDKit          3D

 41 42  0  0  0  0  0  0  0  0999 V2000
    1.2990   14.6240   37.6610 C   0  0  0  0  0  0  0  0  0  0  0  0
    2.4350   18.8790   40.3720 C   0  0  0  0  0  0  0  0  0  0  0  0
    0.6350   17.9030   43.4980 C   0  0  0  0  0  0  0  0  0  0  0  0
    1.7040   16.7910   38.9790 C   0  0  0  0  0  0  0  0  0  0  0  0
    3.4310   18.8420   38.3060 O   0  0  0  0  0  0  0  0  0  0  0  0
   -0.8510   15.9390   43.2140 C   0  0  0  0  0  0  0  0  0  0  0  0
    1.7420   19.2780   41.6100 C   0  0  0  0  0  0  0  0  0  0  0  0
    0.6180   20.5230   43.4200 C   0  0  0  0  0  0  0  0  0  0  0  0
    1.6670   16.9480   41.4670 O   0  0  0  0  0  0  0  0  0  0  0  0
    1.3560   20.5730   42.1760 C   0  0  0  0  0  0  0  0  0  0  0  0
    4.7620   18.9730   40.0850 O   0  0  0  0  0  1  0  0  0  0  0  0
    3.6810   18.9120   39.5210 C   0  0  0  0  0  0  0  0  0  0  0  0
    0.3550   19.3070   44.0390 C   0  0  0  0  0  0  0  0  0  0  0  0
   -0.8230   14.4510   43.4920 C   0  0  0  0  0  0  0  0  0  0  0  0
   -0.2400   19.2600   45.2140 O   0  0  0  0  0  0  0  0  0  0  0  0
    1.3390   18.0240   42.2390 C   0  0  0  0  0  0  0  0  0  0  0  0
    2.3130   17.3360   40.2510 C   0  0  0  0  0  0  0  0  0  0  0  0
   -0.0070   15.1000   37.6010 N   0  0  0  0  0  4  0  0  0  0  0  0
    2.3240   15.5210   38.3600 C   0  0  0  0  0  0  0  0  0  0  0  0
    0.3110   16.4990   44.0090 C   0  0  0  0  0  0  0  0  0  0  0  0
    1.6439   14.4647   36.6287 H   0  0  0  0  0  0  0  0  0  0  0  0
    1.2473   13.7113   38.2728 H   0  0  0  0  0  0  0  0  0  0  0  0
    2.0444   19.8686   40.0923 H   0  0  0  0  0  0  0  0  0  0  0  0
    0.6482   16.5679   39.1924 H   0  0  0  0  0  0  0  0  0  0  0  0
    1.8871   17.5763   38.2308 H   0  0  0  0  0  0  0  0  0  0  0  0
   -0.7173   16.1359   42.1400 H   0  0  0  0  0  0  0  0  0  0  0  0
   -1.8096   16.3980   43.4973 H   0  0  0  0  0  0  0  0  0  0  0  0
    0.2618   21.4566   43.8799 H   0  0  0  0  0  0  0  0  0  0  0  0
    1.6112   21.5242   41.6860 H   0  0  0  0  0  0  0  0  0  0  0  0
   -0.8198   14.2810   44.5788 H   0  0  0  0  0  0  0  0  0  0  0  0
   -1.7124   13.9785   43.0496 H   0  0  0  0  0  0  0  0  0  0  0  0
    0.0836   14.0123   43.0496 H   0  0  0  0  0  0  0  0  0  0  0  0
   -0.4802   20.0992   45.6811 H   0  0  0  0  0  0  0  0  0  0  0  0
    3.3047   16.8731   40.1403 H   0  0  0  0  0  0  0  0  0  0  0  0
   -0.3686   15.2318   38.5564 H   0  0  0  0  0  0  0  0  0  0  0  0
   -0.0216   16.0004   37.1011 H   0  0  0  0  0  0  0  0  0  0  0  0
   -0.5976   14.4201   37.1011 H   0  0  0  0  0  0  0  0  0  0  0  0
    2.8056   14.9416   39.1615 H   0  0  0  0  0  0  0  0  0  0  0  0
    3.0434   15.8497   37.5955 H   0  0  0  0  0  0  0  0  0  0  0  0
    1.1899   15.8495   43.8842 H   0  0  0  0  0  0  0  0  0  0  0  0
    0.0434   16.5447   45.0750 H   0  0  0  0  0  0  0  0  0  0  0  0
  1 19  1  0
  2 12  1  0
  2  7  1  0
  3 20  1  0
  3 13  1  0
  5 12  2  0
  6 14  1  0
  6 20  1  0
  7 10  2  0
  7 16  1  0
  8 13  2  0
  9 16  1  0
 10  8  1  0
 12 11  1  0
 13 15  1  0
 16  3  2  0
 17  4  1  0
 17  2  1  0
 17  9  1  0
 18  1  1  0
 19  4  1  0
  1 21  1  0
  1 22  1  0
  2 23  1  0
  4 24  1  0
  4 25  1  0
  6 26  1  0
  6 27  1  0
  8 28  1  0
 10 29  1  0
 14 30  1  0
 14 31  1  0
 14 32  1  0
 15 33  1  0
 17 34  1  0
 18 35  1  0
 18 36  1  0
 18 37  1  0
 19 38  1  0
 19 39  1  0
 20 40  1  0
 20 41  1  0
M  CHG  2  11  -1  18   1
M  END
>  <mol_id>  (30) 
2026-09-18-5lvo-s0-n100-0032

>  <rmsd_to_ref>  (30) 


$$$$

     RDKit          3D

 55 59  0  0  0  0  0  0  0  0999 V2000
    3.7870   16.8820   35.6560 N   0  0  0  0  0  0  0  0  0  0  0  0
    2.2450   17.3450   41.5660 C   0  0  0  0  0  0  0  0  0  0  0  0
    3.5490   17.7750   41.2620 O   0  0  0  0  0  0  0  0  0  0  0  0
    3.6140   15.5780   37.4730 O   0  0  0  0  0  0  0  0  0  0  0  0
    3.9420   17.2110   39.0780 O   0  0  0  0  0  0  0  0  0  0  0  0
    0.7680   11.8500   37.1030 C   0  0  0  0  0  0  0  0  0  0  0  0
    0.3670   20.4810   42.9000 C   0  0  0  0  0  0  0  0  0  0  0  0
    1.8640   12.5600   37.8790 C   0  0  0  0  0  0  0  0  0  0  0  0
    2.6240   19.5220   39.8340 C   0  0  0  0  0  0  0  0  0  0  0  0
    0.7840   13.7850   41.1880 N   0  0  0  0  0  4  0  0  0  0  0  0
    4.0450   18.7100   36.9990 C   0  0  0  0  0  0  0  0  0  0  0  0
   -0.5080   18.4460   43.7710 C   0  0  0  0  0  0  0  0  0  0  0  0
    1.8860   11.6570   40.1530 C   0  0  0  0  0  0  0  0  0  0  0  0
    3.7920   18.5490   39.6500 C   0  0  0  0  0  0  0  0  0  0  0  0
    2.0900   15.8570   41.2290 C   0  0  0  0  0  0  0  0  0  0  0  0
    1.7240   13.2540   40.2260 C   0  0  0  0  0  0  0  0  0  0  0  0
    3.5220   17.8670   38.0360 C   0  0  0  0  0  0  0  0  0  0  0  0
   -0.0100   15.8400   43.0260 S   0  0  0  0  0  0  0  0  0  0  0  0
   -0.2900   12.0370   37.9060 F   0  0  0  0  0  0  0  0  0  0  0  0
    3.7730   18.1650   35.5990 C   0  0  0  0  0  0  0  0  0  0  0  0
    1.2870   19.7520   42.1180 C   0  0  0  0  0  0  0  0  0  0  0  0
   -0.4700   19.8690   43.8920 N   0  0  0  0  0  0  0  0  0  0  0  0
    2.2190   20.3530   41.1470 C   0  0  0  0  0  0  0  0  0  0  0  0
    2.4110   11.3900   38.7240 N   0  0  0  0  0  4  0  0  0  0  0  0
    1.0800   15.1450   41.8350 C   0  0  0  0  0  0  0  0  0  0  0  0
    0.2300   17.5860   43.1360 C   0  0  0  0  0  0  0  0  0  0  0  0
    3.5980   16.4430   36.7370 C   0  0  0  0  0  0  0  0  0  0  0  0
    1.3000   18.1510   42.3210 C   0  0  0  0  0  0  0  0  0  0  0  0
    0.2170   21.8820   42.7940 N   0  0  0  0  0  0  0  0  0  0  0  0
    3.9489   16.2870   34.8310 H   0  0  0  0  0  0  0  0  0  0  0  0
    0.6106   12.3107   36.1166 H   0  0  0  0  0  0  0  0  0  0  0  0
    0.9846   10.7940   36.8839 H   0  0  0  0  0  0  0  0  0  0  0  0
    2.6335   12.9727   37.2100 H   0  0  0  0  0  0  0  0  0  0  0  0
    1.5245   13.4284   38.4627 H   0  0  0  0  0  0  0  0  0  0  0  0
    1.7291   18.9290   39.5945 H   0  0  0  0  0  0  0  0  0  0  0  0
    3.0080   20.3545   39.2261 H   0  0  0  0  0  0  0  0  0  0  0  0
    0.7091   13.0965   41.9504 H   0  0  0  0  0  0  0  0  0  0  0  0
   -0.0704   13.9509   40.6372 H   0  0  0  0  0  0  0  0  0  0  0  0
    3.5802   19.7032   37.0858 H   0  0  0  0  0  0  0  0  0  0  0  0
    5.1362   18.7569   37.1296 H   0  0  0  0  0  0  0  0  0  0  0  0
   -1.3331   17.9826   44.3317 H   0  0  0  0  0  0  0  0  0  0  0  0
    2.6069   11.3039   40.9051 H   0  0  0  0  0  0  0  0  0  0  0  0
    0.9429   11.1296   40.3591 H   0  0  0  0  0  0  0  0  0  0  0  0
    2.7721   15.3687   40.5175 H   0  0  0  0  0  0  0  0  0  0  0  0
    2.7121   13.6752   40.4633 H   0  0  0  0  0  0  0  0  0  0  0  0
    1.3146   13.5399   39.2459 H   0  0  0  0  0  0  0  0  0  0  0  0
    4.5520   18.5150   34.9057 H   0  0  0  0  0  0  0  0  0  0  0  0
    2.7955   18.5177   35.2383 H   0  0  0  0  0  0  0  0  0  0  0  0
    0.5308   19.6455   41.3263 H   0  0  0  0  0  0  0  0  0  0  0  0
    3.1508   20.5723   41.6889 H   0  0  0  0  0  0  0  0  0  0  0  0
    1.6639   21.2158   40.7503 H   0  0  0  0  0  0  0  0  0  0  0  0
    2.0573   10.4899   38.3696 H   0  0  0  0  0  0  0  0  0  0  0  0
    3.4389   11.3336   38.6913 H   0  0  0  0  0  0  0  0  0  0  0  0
    0.7765   22.4095   42.1087 H   0  0  0  0  0  0  0  0  0  0  0  0
   -0.4518   22.3758   43.4021 H   0  0  0  0  0  0  0  0  0  0  0  0
  1 27  1  0
  2 28  2  0
  3  2  1  0
  5 14  1  0
  6  8  1  0
  6 19  1  0
  7 22  2  0
  8 24  1  0
  9 23  1  0
 10 25  1  0
 12 22  1  0
 13 16  1  0
 14  9  1  0
 14  3  1  0
 15  2  1  0
 15 25  2  0
 16 10  1  0
 17 11  1  0
 17  5  1  0
 17 14  1  0
 18 26  1  0
 20  1  1  0
 20 11  1  0
 21 23  1  0
 21 28  1  0
 21  7  1  0
 24 13  1  0
 25 18  1  0
 26 12  2  0
 27  4  2  0
 27 17  1  0
 28 26  1  0
 29  7  1  0
  1 30  1  0
  6 31  1  0
  6 32  1  0
  8 33  1  0
  8 34  1  0
  9 35  1  0
  9 36  1  0
 10 37  1  0
 10 38  1  0
 11 39  1  0
 11 40  1  0
 12 41  1  0
 13 42  1  0
 13 43  1  0
 15 44  1  0
 16 45  1  0
 16 46  1  0
 20 47  1  0
 20 48  1  0
 21 49  1  0
 23 50  1  0
 23 51  1  0
 24 52  1  0
 24 53  1  0
 29 54  1  0
 29 55  1  0
M  CHG  2  10   1  24   1
M  END
>  <mol_id>  (31) 
2026-09-18-5lvo-s0-n100-0033

>  <rmsd_to_ref>  (31) 


$$$$

     RDKit          3D

 78 83  0  0  0  0  0  0  0  0999 V2000
   -0.5120   18.2910   45.6400 C   0  0  0  0  0  0  0  0  0  0  0  0
    1.5680   21.1170   42.1540 C   0  0  0  0  0  0  0  0  0  0  0  0
    0.6590   20.2730   42.9650 N   0  0  0  0  0  0  0  0  0  0  0  0
    2.5530   21.4260   37.3550 C   0  0  0  0  0  0  0  0  0  0  0  0
    0.1330   18.4090   44.4580 C   0  0  0  0  0  0  0  0  0  0  0  0
    0.3070   20.6900   44.9130 O   0  0  0  0  0  0  0  0  0  0  0  0
    5.5110   14.9670   39.2380 O   0  0  0  0  0  0  0  0  0  0  0  0
    2.6410   18.8600   41.7370 C   0  0  0  0  0  0  0  0  0  0  0  0
   -1.3710   13.5580   45.2590 C   0  0  0  0  0  0  0  0  0  0  0  0
    1.3390   13.5120   41.8650 C   0  0  0  0  0  0  0  0  0  0  0  0
    3.6560   21.2310   36.4370 C   0  0  0  0  0  0  0  0  0  0  0  0
    3.6590   22.3830   37.9450 C   0  0  0  0  0  0  0  0  0  0  0  0
    3.2800   18.0430   38.0080 C   0  0  0  0  0  0  0  0  0  0  0  0
    4.7840   15.7520   36.8770 O   0  0  0  0  0  0  0  0  0  0  0  0
    2.8130   15.6870   40.9600 C   0  0  0  0  0  0  0  0  0  0  0  0
    3.4990   17.0000   40.5930 C   0  0  0  0  0  0  0  0  0  0  0  0
    1.3160   14.3930   42.7830 O   0  0  0  0  0  0  0  0  0  0  0  0
    1.3920   19.5860   41.8060 C   0  0  0  0  0  0  0  0  0  0  0  0
    0.4760   17.1990   43.7780 C   0  0  0  0  0  0  0  0  0  0  0  0
   -0.1200   13.6990   37.5710 N   0  0  0  0  0  0  0  0  0  0  0  0
    0.0720   15.9040   44.2900 C   0  0  0  0  0  0  0  0  0  0  0  0
    4.2090   20.3100   37.4750 C   0  0  0  0  0  0  0  0  0  0  0  0
    3.2460   20.6360   35.2350 O   0  0  0  0  0  0  0  0  0  0  0  0
    1.2510   13.8710   40.3240 C   0  0  0  0  0  0  0  0  0  0  0  0
   -0.8570   15.9330   45.4220 C   0  0  0  0  0  0  0  0  0  0  0  0
    0.2950   14.5500   43.7040 C   0  0  0  0  0  0  0  0  0  0  0  0
    2.1980   17.8020   37.3920 O   0  0  0  0  0  0  0  0  0  0  0  0
    3.7710   17.0780   39.0610 C   0  0  0  0  0  0  0  0  0  0  0  0
    0.9430   12.6600   39.5710 N   0  0  0  0  0  0  0  0  0  0  0  0
    3.5920   13.2720   38.0410 O   0  0  0  0  0  0  0  0  0  0  0  0
    4.1120   19.0360   37.3860 N   0  0  0  0  0  0  0  0  0  0  0  0
    2.3620   14.6950   39.8480 C   0  0  0  0  0  0  0  0  0  0  0  0
   -1.5660   14.7770   45.8860 C   0  0  0  0  0  0  0  0  0  0  0  0
    0.4120   19.9140   44.1330 C   0  0  0  0  0  0  0  0  0  0  0  0
    3.0860   14.5070   38.5220 C   0  0  0  0  0  0  0  0  0  0  0  0
   -1.0830   17.1230   46.1020 C   0  0  0  0  0  0  0  0  0  0  0  0
    0.2790   12.5340   38.2780 C   0  0  0  0  0  0  0  0  0  0  0  0
    4.4730   15.7070   38.4280 P   0  0  0  0  0  5  0  0  0  0  0  0
    4.3960   21.2280   38.6130 C   0  0  0  0  0  0  0  0  0  0  0  0
   -0.4590   13.4910   44.1680 C   0  0  0  0  0  0  0  0  0  0  0  0
    4.0470   22.6350   36.4420 C   0  0  0  0  0  0  0  0  0  0  0  0
   -0.5866   19.1855   46.2758 H   0  0  0  0  0  0  0  0  0  0  0  0
    1.1539   21.8845   41.4836 H   0  0  0  0  0  0  0  0  0  0  0  0
    2.4247   21.7711   42.3738 H   0  0  0  0  0  0  0  0  0  0  0  0
    2.2645   20.5628   37.9727 H   0  0  0  0  0  0  0  0  0  0  0  0
    1.5187   21.6953   37.0950 H   0  0  0  0  0  0  0  0  0  0  0  0
    5.3302   15.0959   40.2028 H   0  0  0  0  0  0  0  0  0  0  0  0
    3.0004   18.6511   42.7554 H   0  0  0  0  0  0  0  0  0  0  0  0
    2.4849   17.9119   41.2016 H   0  0  0  0  0  0  0  0  0  0  0  0
    3.3876   19.4649   41.2016 H   0  0  0  0  0  0  0  0  0  0  0  0
   -1.9095   12.6602   45.5968 H   0  0  0  0  0  0  0  0  0  0  0  0
    2.2832   12.9629   41.9951 H   0  0  0  0  0  0  0  0  0  0  0  0
    0.3796   12.9990   42.0273 H   0  0  0  0  0  0  0  0  0  0  0  0
    3.6378   23.2669   38.5994 H   0  0  0  0  0  0  0  0  0  0  0  0
    3.5105   15.1373   41.6091 H   0  0  0  0  0  0  0  0  0  0  0  0
    1.8600   16.0189   41.3977 H   0  0  0  0  0  0  0  0  0  0  0  0
    2.8509   17.8389   40.8865 H   0  0  0  0  0  0  0  0  0  0  0  0
    4.4613   17.0530   41.1232 H   0  0  0  0  0  0  0  0  0  0  0  0
    1.0000   18.8645   41.0741 H   0  0  0  0  0  0  0  0  0  0  0  0
    1.0588   17.2516   42.8466 H   0  0  0  0  0  0  0  0  0  0  0  0
   -0.5889   13.6121   36.6580 H   0  0  0  0  0  0  0  0  0  0  0  0
    0.0595   14.6310   37.9711 H   0  0  0  0  0  0  0  0  0  0  0  0
    5.0818   19.6408   37.4540 H   0  0  0  0  0  0  0  0  0  0  0  0
    2.6956   19.8373   35.4331 H   0  0  0  0  0  0  0  0  0  0  0  0
    0.4109   14.5573   40.1419 H   0  0  0  0  0  0  0  0  0  0  0  0
    4.0961   18.0534   39.4519 H   0  0  0  0  0  0  0  0  0  0  0  0
    3.8297   12.6919   38.8072 H   0  0  0  0  0  0  0  0  0  0  0  0
    4.7824   18.6314   36.7168 H   0  0  0  0  0  0  0  0  0  0  0  0
    1.6471   15.4416   39.4719 H   0  0  0  0  0  0  0  0  0  0  0  0
   -2.2608   14.8577   46.7350 H   0  0  0  0  0  0  0  0  0  0  0  0
    2.2143   14.6352   37.8635 H   0  0  0  0  0  0  0  0  0  0  0  0
   -1.7134   17.1341   47.0034 H   0  0  0  0  0  0  0  0  0  0  0  0
    0.0878   11.5382   37.8516 H   0  0  0  0  0  0  0  0  0  0  0  0
    5.4531   21.4512   38.8195 H   0  0  0  0  0  0  0  0  0  0  0  0
    4.0554   20.8999   39.6061 H   0  0  0  0  0  0  0  0  0  0  0  0
   -0.3468   12.5235   43.6568 H   0  0  0  0  0  0  0  0  0  0  0  0
    5.1043   22.8556   36.2335 H   0  0  0  0  0  0  0  0  0  0  0  0
    3.6629   23.4296   35.7854 H   0  0  0  0  0  0  0  0  0  0  0  0
  1 36  2  0
  2  3  1  0
  3 34  1  0
  4 12  1  0
  5  1  1  0
  9 33  2  0
 10 17  1  0
 11 23  1  0
 11 41  1  0
 11  4  1  0
 11 22  1  0
 12 41  1  0
 12 39  1  0
 16 15  1  0
 17 26  1  0
 18  8  1  0
 18  2  1  0
 18  3  1  0
 19 21  1  0
 19  5  2  0
 20 37  1  0
 21 25  2  0
 22 31  1  0
 22 39  1  0
 24 10  1  0
 25 33  1  0
 25 36  1  0
 26 40  2  0
 26 21  1  0
 27 13  2  0
 28 13  1  0
 28 16  1  0
 29 24  1  0
 31 13  1  0
 32 24  1  0
 32 15  1  0
 34  5  1  0
 34  6  2  0
 35 30  1  0
 35 32  1  0
 37 29  2  3
 38 14  2  0
 38 35  1  0
 38 28  1  0
 38  7  1  0
 40  9  1  0
  1 42  1  0
  2 43  1  0
  2 44  1  0
  4 45  1  0
  4 46  1  0
  7 47  1  0
  8 48  1  0
  8 49  1  0
  8 50  1  0
  9 51  1  0
 10 52  1  0
 10 53  1  0
 12 54  1  0
 15 55  1  0
 15 56  1  0
 16 57  1  0
 16 58  1  0
 18 59  1  0
 19 60  1  0
 20 61  1  0
 20 62  1  0
 22 63  1  0
 23 64  1  0
 24 65  1  0
 28 66  1  0
 30 67  1  0
 31 68  1  0
 32 69  1  0
 33 70  1  0
 35 71  1  0
 36 72  1  0
 37 73  1  0
 39 74  1  0
 39 75  1  0
 40 76  1  0
 41 77  1  0
 41 78  1  0
M  END
>  <mol_id>  (32) 
2026-09-18-5lvo-s0-n100-0034

>  <rmsd_to_ref>  (32) 


$$$$

     RDKit          3D

 38 39  0  0  0  0  0  0  0  0999 V2000
    5.4360   15.8650   38.9550 C   0  0  0  0  0  0  0  0  0  0  0  0
    3.9250   18.5590   37.5100 C   0  0  0  0  0  0  0  0  0  0  0  0
    0.9040   13.9440   41.2350 C   0  0  0  0  0  0  0  0  0  0  0  0
    1.5550   17.5530   41.8970 C   0  0  0  0  0  0  0  0  0  0  0  0
    0.8130   17.9370   43.0650 C   0  0  0  0  0  0  0  0  0  0  0  0
    3.2010   19.9820   39.2760 C   0  0  0  0  0  0  0  0  0  0  0  0
    4.2810   18.3940   36.2210 O   0  0  0  0  0  0  0  0  0  0  0  0
   -0.3270   15.3750   40.3810 O   0  0  0  0  0  0  0  0  0  0  0  0
   -0.1730   17.0550   43.5290 C   0  0  0  0  0  0  0  0  0  0  0  0
   -1.0680   17.3710   44.8310 Cl  0  0  0  0  0  0  0  0  0  0  0  0
    2.9260   17.5850   39.4030 C   0  0  0  0  0  0  0  0  0  0  0  0
    0.8070   20.3190   42.7910 C   0  0  0  0  0  0  0  0  0  0  0  0
    1.0000   19.1540   43.6140 O   0  0  0  0  0  0  0  0  0  0  0  0
    1.4320   16.4550   41.0890 C   0  0  0  0  0  0  0  0  0  0  0  0
    2.7400   18.8670   40.0080 C   0  0  0  0  0  0  0  0  0  0  0  0
    0.3080   15.4710   41.4690 C   0  0  0  0  0  0  0  0  0  0  0  0
    2.1760   16.4950   39.9580 O   0  0  0  0  0  0  0  0  0  0  0  0
   -0.6440   15.8980   42.7520 C   0  0  0  0  0  0  0  0  0  0  0  0
    4.4340   16.3210   38.0180 O   0  0  0  0  0  0  0  0  0  0  0  0
    3.7130   19.8260   38.0160 C   0  0  0  0  0  0  0  0  0  0  0  0
    3.7310   17.4480   38.3130 C   0  0  0  0  0  0  0  0  0  0  0  0
    5.0783   16.0278   39.9824 H   0  0  0  0  0  0  0  0  0  0  0  0
    5.6240   14.7927   38.7978 H   0  0  0  0  0  0  0  0  0  0  0  0
    6.3681   16.4276   38.7978 H   0  0  0  0  0  0  0  0  0  0  0  0
    1.0893   13.4693   42.2099 H   0  0  0  0  0  0  0  0  0  0  0  0
    0.1727   13.3476   40.6698 H   0  0  0  0  0  0  0  0  0  0  0  0
    1.8460   14.0007   40.6698 H   0  0  0  0  0  0  0  0  0  0  0  0
    2.3504   18.2543   41.6045 H   0  0  0  0  0  0  0  0  0  0  0  0
    3.1484   20.9861   39.7222 H   0  0  0  0  0  0  0  0  0  0  0  0
    4.4321   17.4839   35.8618 H   0  0  0  0  0  0  0  0  0  0  0  0
   -1.2876   15.2298   40.5713 H   0  0  0  0  0  0  0  0  0  0  0  0
    0.6609   21.2008   43.4322 H   0  0  0  0  0  0  0  0  0  0  0  0
    1.6924   20.4701   42.1559 H   0  0  0  0  0  0  0  0  0  0  0  0
   -0.0798   20.1765   42.1559 H   0  0  0  0  0  0  0  0  0  0  0  0
    2.2625   18.9784   40.9927 H   0  0  0  0  0  0  0  0  0  0  0  0
   -1.6471   16.1333   42.3669 H   0  0  0  0  0  0  0  0  0  0  0  0
   -0.6254   15.0414   43.4419 H   0  0  0  0  0  0  0  0  0  0  0  0
    3.9553   20.7095   37.4071 H   0  0  0  0  0  0  0  0  0  0  0  0
  2 20  2  0
  2 21  1  0
  4  5  1  0
  5  9  2  0
  5 13  1  0
  6 15  2  0
  7  2  1  0
  8 16  1  0
  9 10  1  0
 11 17  1  0
 11 15  1  0
 12 13  1  0
 14 16  1  0
 14  4  2  0
 16  3  1  0
 16 18  1  0
 17 14  1  0
 18  9  1  0
 19 21  1  0
 19  1  1  0
 20  6  1  0
 21 11  2  0
  1 22  1  0
  1 23  1  0
  1 24  1  0
  3 25  1  0
  3 26  1  0
  3 27  1  0
  4 28  1  0
  6 29  1  0
  7 30  1  0
  8 31  1  0
 12 32  1  0
 12 33  1  0
 12 34  1  0
 15 35  1  0
 18 36  1  0
 18 37  1  0
 20 38  1  0
M  END
>  <mol_id>  (33) 
2026-09-18-5lvo-s0-n100-0035

>  <rmsd_to_ref>  (33) 


$$$$

     RDKit          3D

 48 48  0  0  0  0  0  0  0  0999 V2000
    0.0320   15.5790   40.4610 C   0  0  0  0  0  0  0  0  0  0  0  0
   -0.9020   18.5310   44.4700 N   0  0  0  0  0  0  0  0  0  0  0  0
    0.7700   18.9980   42.9470 C   0  0  0  0  0  0  0  0  0  0  0  0
    1.5360   14.4240   38.8210 C   0  0  0  0  0  0  0  0  0  0  0  0
    0.2490   14.3290   39.5950 C   0  0  0  0  0  0  0  0  0  0  0  0
    3.8650   19.3980   37.7750 S   0  0  0  0  0  0  0  0  0  0  0  0
   -0.0960   19.5000   43.9370 C   0  0  0  0  0  0  0  0  0  0  0  0
    1.4020   19.9240   42.0570 C   0  0  0  0  0  0  0  0  0  0  0  0
    0.7330   17.6300   43.1100 C   0  0  0  0  0  0  0  0  0  0  0  0
    0.8750   14.7150   42.6520 C   0  0  0  0  0  0  0  0  0  0  0  0
    0.8270   15.4780   41.4710 O   0  0  0  0  0  0  0  0  0  0  0  0
    3.5580   18.4640   39.0470 C   0  0  0  0  0  0  0  0  0  0  0  0
    2.1350   19.5680   40.9470 C   0  0  0  0  0  0  0  0  0  0  0  0
    3.5450   15.9950   38.6040 C   0  0  0  0  0  0  0  0  0  0  0  0
    1.0110   21.2230   42.0910 O   0  0  0  0  0  0  0  0  0  0  0  0
    2.6060   16.2570   37.5170 C   0  0  0  0  0  0  0  0  0  0  0  0
    2.7700   14.9250   39.4220 C   0  0  0  0  0  0  0  0  0  0  0  0
    1.8870   14.7290   43.5750 C   0  0  0  0  0  0  0  0  0  0  0  0
    4.1150   17.1900   39.1880 O   0  0  0  0  0  0  0  0  0  0  0  0
   -0.0880   20.6480   44.3120 O   0  0  0  0  0  0  0  0  0  0  0  0
   -0.4760   17.2770   43.9650 C   0  0  0  0  0  0  0  0  0  0  0  0
    4.7170   15.4250   40.1710 O   0  0  0  0  0  0  0  0  0  0  0  0
    1.2720   15.4860   37.6920 C   0  0  0  0  0  0  0  0  0  0  0  0
    5.1710   14.1960   40.2100 C   0  0  0  0  0  0  0  0  0  0  0  0
    2.6150   18.9580   40.0020 C   0  0  0  0  0  0  0  0  0  0  0  0
   -1.0120   15.6245   40.8045 H   0  0  0  0  0  0  0  0  0  0  0  0
    0.2379   16.4952   39.8882 H   0  0  0  0  0  0  0  0  0  0  0  0
   -1.6823   18.6859   45.1242 H   0  0  0  0  0  0  0  0  0  0  0  0
    1.7337   13.3666   38.5912 H   0  0  0  0  0  0  0  0  0  0  0  0
   -0.5887   14.2311   38.8888 H   0  0  0  0  0  0  0  0  0  0  0  0
    0.3020   13.4509   40.2554 H   0  0  0  0  0  0  0  0  0  0  0  0
    0.6481   17.1417   42.1280 H   0  0  0  0  0  0  0  0  0  0  0  0
    1.6549   17.2842   43.6005 H   0  0  0  0  0  0  0  0  0  0  0  0
    0.0238   14.0476   42.8521 H   0  0  0  0  0  0  0  0  0  0  0  0
    4.5325   15.5769   38.3590 H   0  0  0  0  0  0  0  0  0  0  0  0
    1.4328   21.8829   41.4854 H   0  0  0  0  0  0  0  0  0  0  0  0
    3.0696   15.9506   36.5677 H   0  0  0  0  0  0  0  0  0  0  0  0
    2.3759   17.3327   37.5234 H   0  0  0  0  0  0  0  0  0  0  0  0
    2.5137   15.3675   40.3959 H   0  0  0  0  0  0  0  0  0  0  0  0
    3.4422   14.0564   39.4828 H   0  0  0  0  0  0  0  0  0  0  0  0
    1.8253   14.0904   44.4685 H   0  0  0  0  0  0  0  0  0  0  0  0
    2.7613   15.3789   43.4227 H   0  0  0  0  0  0  0  0  0  0  0  0
   -1.2646   16.8096   43.3569 H   0  0  0  0  0  0  0  0  0  0  0  0
   -0.2422   16.5525   44.7590 H   0  0  0  0  0  0  0  0  0  0  0  0
    0.4686   16.1741   37.9937 H   0  0  0  0  0  0  0  0  0  0  0  0
    0.9542   15.0086   36.7534 H   0  0  0  0  0  0  0  0  0  0  0  0
    5.3517   13.7069   41.1786 H   0  0  0  0  0  0  0  0  0  0  0  0
    5.3713   13.6537   39.2742 H   0  0  0  0  0  0  0  0  0  0  0  0
  1 11  1  0
  3  9  1  0
  3  7  1  0
  4 17  1  0
  4  5  1  0
  5  1  1  0
  6 12  2  0
  7 20  2  0
  7  2  1  0
  8 15  1  0
  8  3  2  3
  9 21  1  0
 10 18  2  3
 11 10  1  0
 12 19  1  0
 12 25  1  0
 13  8  1  0
 14 19  1  0
 14 17  1  0
 16 23  1  0
 16 14  1  0
 21  2  1  0
 22 24  2  0
 23  4  1  0
 25 13  3  0
  1 26  1  0
  1 27  1  0
  2 28  1  0
  4 29  1  0
  5 30  1  0
  5 31  1  0
  9 32  1  0
  9 33  1  0
 10 34  1  0
 14 35  1  0
 15 36  1  0
 16 37  1  0
 16 38  1  0
 17 39  1  0
 17 40  1  0
 18 41  1  0
 18 42  1  0
 21 43  1  0
 21 44  1  0
 23 45  1  0
 23 46  1  0
 24 47  1  0
 24 48  1  0
M  END
>  <mol_id>  (34) 
2026-09-18-5lvo-s0-n100-0036

>  <rmsd_to_ref>  (34) 


$$$$

     RDKit          3D

 82 88  0  0  0  0  0  0  0  0999 V2000
    4.3940   16.2830   37.6200 O   0  0  0  0  0  0  0  0  0  0  0  0
   -0.4070   16.0730   44.2210 C   0  0  0  0  0  0  0  0  0  0  0  0
    0.9540   19.4340   43.1780 C   0  0  0  0  0  0  0  0  0  0  0  0
    4.7870   15.6750   39.7080 O   0  0  0  0  0  0  0  0  0  0  0  0
    1.4020   15.9560   42.0160 C   0  0  0  0  0  0  0  0  0  0  0  0
    2.2560   15.2890   39.6450 C   0  0  0  0  0  0  0  0  0  0  0  0
    4.3030   18.1380   38.3990 C   0  0  0  0  0  0  0  0  0  0  0  0
    1.6140   18.4220   42.2650 C   0  0  0  0  0  0  0  0  0  0  0  0
    2.1360   13.7470   36.7430 C   0  0  0  0  0  0  0  0  0  0  0  0
    3.2090   20.2790   38.5680 C   0  0  0  0  0  0  0  0  0  0  0  0
    0.2770   15.4640   37.7880 C   0  0  0  0  0  0  0  0  0  0  0  0
    2.7500   18.6010   37.7680 C   0  0  0  0  0  0  0  0  0  0  0  0
    3.7260   21.1120   37.5780 C   0  0  0  0  0  0  0  0  0  0  0  0
    0.8080   17.1080   42.2990 C   0  0  0  0  0  0  0  0  0  0  0  0
   -0.7800   15.0740   46.5490 C   0  0  0  0  0  0  0  0  0  0  0  0
    2.6040   21.2490   35.3940 O   0  0  0  0  0  0  0  0  0  0  0  0
   -0.8560   16.3040   45.7030 C   0  0  0  0  0  0  0  0  0  0  0  0
    4.1850   18.6600   37.0180 O   0  0  0  0  0  0  0  0  0  0  0  0
    0.0190   15.0210   42.0760 C   0  0  0  0  0  0  0  0  0  0  0  0
    2.8740   20.8050   36.4250 C   0  0  0  0  0  0  0  0  0  0  0  0
    2.7360   13.9000   35.3400 C   0  0  0  0  0  0  0  0  0  0  0  0
    2.5910   14.5760   38.2660 C   0  0  0  0  0  0  0  0  0  0  0  0
    2.2250   14.9220   41.1340 C   0  0  0  0  0  0  0  0  0  0  0  0
   -0.3380   14.7760   43.5420 C   0  0  0  0  0  0  0  0  0  0  0  0
    0.2140   12.8440   37.8150 C   0  0  0  0  0  0  0  0  0  0  0  0
   -0.0240   17.1820   43.4680 C   0  0  0  0  0  0  0  0  0  0  0  0
    2.8880   20.3630   39.8210 C   0  0  0  0  0  0  0  0  0  0  0  0
    4.0610   16.6610   38.9160 S   0  0  0  0  0  6  0  0  0  0  0  0
    0.1270   18.6050   44.0280 C   0  0  0  0  0  0  0  0  0  0  0  0
    2.5950   18.6940   41.4770 N   0  0  0  0  0  4  0  0  0  0  0  0
    4.9970   21.2360   37.6080 O   0  0  0  0  0  0  0  0  0  0  0  0
    1.6770   15.1780   37.1720 C   0  0  0  0  0  0  0  0  0  0  0  0
   -0.7420   14.9650   41.2230 O   0  0  0  0  0  0  0  0  0  0  0  0
   -0.5550   18.9490   45.2310 N   0  0  0  0  0  4  0  0  0  0  0  0
   -0.3570   14.1970   38.3160 N   0  0  0  0  0  0  0  0  0  0  0  0
    2.4620   19.9030   40.9190 C   0  0  0  0  0  0  0  0  0  0  0  0
    2.5150   16.7380   39.6790 C   0  0  0  0  0  0  0  0  0  0  0  0
    1.1150   12.6900   36.7760 C   0  0  0  0  0  0  0  0  0  0  0  0
   -0.7110   17.8680   46.1080 C   0  0  0  0  0  0  0  0  0  0  0  0
   -1.4482   16.1925   43.8869 H   0  0  0  0  0  0  0  0  0  0  0  0
    0.3435   20.1468   42.6043 H   0  0  0  0  0  0  0  0  0  0  0  0
    1.6728   20.0513   43.7369 H   0  0  0  0  0  0  0  0  0  0  0  0
    2.3428   16.3809   42.3958 H   0  0  0  0  0  0  0  0  0  0  0  0
    1.4289   14.6214   39.3618 H   0  0  0  0  0  0  0  0  0  0  0  0
    5.1187   18.3656   39.1011 H   0  0  0  0  0  0  0  0  0  0  0  0
    2.7012   18.2707   42.1940 H   0  0  0  0  0  0  0  0  0  0  0  0
   -0.3744   15.8955   37.0137 H   0  0  0  0  0  0  0  0  0  0  0  0
    0.4017   16.1663   38.6254 H   0  0  0  0  0  0  0  0  0  0  0  0
    1.7140   18.2692   37.6049 H   0  0  0  0  0  0  0  0  0  0  0  0
    3.6600   22.2070   37.6588 H   0  0  0  0  0  0  0  0  0  0  0  0
    0.1922   17.0524   41.3892 H   0  0  0  0  0  0  0  0  0  0  0  0
   -0.7976   15.3581   47.6115 H   0  0  0  0  0  0  0  0  0  0  0  0
   -1.6397   14.4240   46.3290 H   0  0  0  0  0  0  0  0  0  0  0  0
    0.1532   14.5348   46.3290 H   0  0  0  0  0  0  0  0  0  0  0  0
   -1.9076   16.3193   46.0254 H   0  0  0  0  0  0  0  0  0  0  0  0
    2.3253   19.8666   36.5934 H   0  0  0  0  0  0  0  0  0  0  0  0
    3.7988   14.1710   35.4233 H   0  0  0  0  0  0  0  0  0  0  0  0
    2.6417   12.9491   34.7952 H   0  0  0  0  0  0  0  0  0  0  0  0
    2.1978   14.6897   34.7952 H   0  0  0  0  0  0  0  0  0  0  0  0
    3.4740   14.2618   38.8418 H   0  0  0  0  0  0  0  0  0  0  0  0
    3.2591   14.8890   41.5076 H   0  0  0  0  0  0  0  0  0  0  0  0
    1.7235   13.9468   41.2201 H   0  0  0  0  0  0  0  0  0  0  0  0
    0.4339   14.1499   44.0133 H   0  0  0  0  0  0  0  0  0  0  0  0
   -1.3054   14.2575   43.6153 H   0  0  0  0  0  0  0  0  0  0  0  0
   -0.1254   11.9321   38.3280 H   0  0  0  0  0  0  0  0  0  0  0  0
   -1.0778   16.9751   43.2300 H   0  0  0  0  0  0  0  0  0  0  0  0
    3.1068   21.4137   40.0619 H   0  0  0  0  0  0  0  0  0  0  0  0
   -0.7653   18.9203   43.4674 H   0  0  0  0  0  0  0  0  0  0  0  0
    3.4724   18.6700   42.0159 H   0  0  0  0  0  0  0  0  0  0  0  0
    2.6050   17.9922   40.7232 H   0  0  0  0  0  0  0  0  0  0  0  0
    5.3035   21.2659   38.5489 H   0  0  0  0  0  0  0  0  0  0  0  0
    1.6891   16.0626   36.5183 H   0  0  0  0  0  0  0  0  0  0  0  0
   -0.0187   19.6853   45.7118 H   0  0  0  0  0  0  0  0  0  0  0  0
   -1.4987   19.2661   44.9667 H   0  0  0  0  0  0  0  0  0  0  0  0
    2.8815   20.5873   41.6712 H   0  0  0  0  0  0  0  0  0  0  0  0
    1.4088   19.7968   40.6197 H   0  0  0  0  0  0  0  0  0  0  0  0
    1.7816   17.3148   39.0965 H   0  0  0  0  0  0  0  0  0  0  0  0
    2.4626   17.2349   40.6590 H   0  0  0  0  0  0  0  0  0  0  0  0
    0.5612   12.7071   35.8257 H   0  0  0  0  0  0  0  0  0  0  0  0
    1.6353   11.7330   36.9293 H   0  0  0  0  0  0  0  0  0  0  0  0
   -1.6188   18.0981   46.6851 H   0  0  0  0  0  0  0  0  0  0  0  0
    0.2967   17.8470   46.5485 H   0  0  0  0  0  0  0  0  0  0  0  0
  1 28  2  0
  2 24  1  0
  2 17  1  0
  3 29  1  0
  5 23  1  0
  5 19  1  0
  5 14  1  0
  6 37  1  0
  6 23  1  0
  7 18  1  0
  7 28  1  0
  8 14  1  0
  8  3  1  0
  9 21  1  0
  9 38  1  0
  9 32  1  0
  9 22  1  0
 10 27  2  0
 11 35  1  0
 12 18  1  0
 12  7  1  0
 12 10  1  0
 13 31  1  0
 13 10  1  0
 14 26  1  0
 16 20  2  0
 17 39  1  0
 17 15  1  0
 19 24  1  0
 20 13  1  0
 22  6  1  0
 25 35  2  0
 26 29  1  0
 26  2  1  0
 27 36  1  0
 28 37  1  0
 28  4  2  0
 29 34  1  0
 30  8  1  0
 32 11  1  0
 32 22  1  0
 33 19  2  0
 34 39  1  0
 36 30  1  0
 38 25  1  0
  2 40  1  0
  3 41  1  0
  3 42  1  0
  5 43  1  0
  6 44  1  0
  7 45  1  0
  8 46  1  0
 11 47  1  0
 11 48  1  0
 12 49  1  0
 13 50  1  0
 14 51  1  0
 15 52  1  0
 15 53  1  0
 15 54  1  0
 17 55  1  0
 20 56  1  0
 21 57  1  0
 21 58  1  0
 21 59  1  0
 22 60  1  0
 23 61  1  0
 23 62  1  0
 24 63  1  0
 24 64  1  0
 25 65  1  0
 26 66  1  0
 27 67  1  0
 29 68  1  0
 30 69  1  0
 30 70  1  0
 31 71  1  0
 32 72  1  0
 34 73  1  0
 34 74  1  0
 36 75  1  0
 36 76  1  0
 37 77  1  0
 37 78  1  0
 38 79  1  0
 38 80  1  0
 39 81  1  0
 39 82  1  0
M  CHG  2  30   1  34   1
M  END
>  <mol_id>  (35) 
2026-09-18-5lvo-s0-n100-0037

>  <rmsd_to_ref>  (35) 


$$$$

     RDKit          3D

 34 34  0  0  0  0  0  0  0  0999 V2000
    1.7430   17.7210   42.0070 C   0  0  0  0  0  0  0  0  0  0  0  0
    1.5020   18.9780   42.5560 C   0  0  0  0  0  0  0  0  0  0  0  0
    2.1420   18.1210   39.6650 C   0  0  0  0  0  0  0  0  0  0  0  0
    1.8980   16.8050   42.9790 N   0  0  0  0  0  0  0  0  0  0  0  0
    3.8920   18.6620   39.8750 S   0  0  0  0  0  0  0  0  0  0  0  0
    1.4100   20.3720   41.8840 C   0  0  0  0  0  0  0  0  0  0  0  0
    0.5840   21.1780   42.7590 O   0  0  0  0  0  0  0  0  0  0  0  0
    1.3970   15.6820   40.1960 C   0  0  0  0  0  0  0  0  0  0  0  0
    1.3770   18.8000   43.8980 C   0  0  0  0  0  0  0  0  0  0  0  0
   -0.4190   13.8900   39.0680 N   0  0  0  0  0  4  0  0  0  0  0  0
    0.7140   15.2470   37.8430 C   0  0  0  0  0  0  0  0  0  0  0  0
    0.2260   15.2450   39.2840 C   0  0  0  0  0  0  0  0  0  0  0  0
    1.7330   16.2360   37.5170 O   0  0  0  0  0  0  0  0  0  0  0  0
    1.7770   17.1810   40.6700 C   0  0  0  0  0  0  0  0  0  0  0  0
    1.6370   17.4480   44.0670 C   0  0  0  0  0  0  0  0  0  0  0  0
    1.4827   18.9986   39.7362 H   0  0  0  0  0  0  0  0  0  0  0  0
    2.0380   17.6413   38.6806 H   0  0  0  0  0  0  0  0  0  0  0  0
    2.1645   15.8152   42.8781 H   0  0  0  0  0  0  0  0  0  0  0  0
    4.1849   18.7525   41.2103 H   0  0  0  0  0  0  0  0  0  0  0  0
    2.4113   20.8166   41.7856 H   0  0  0  0  0  0  0  0  0  0  0  0
    0.9839   20.3063   40.8720 H   0  0  0  0  0  0  0  0  0  0  0  0
    0.7994   20.9678   43.7021 H   0  0  0  0  0  0  0  0  0  0  0  0
    2.2999   15.3119   39.6883 H   0  0  0  0  0  0  0  0  0  0  0  0
    1.0194   15.2931   41.1532 H   0  0  0  0  0  0  0  0  0  0  0  0
    1.1292   19.5482   44.6653 H   0  0  0  0  0  0  0  0  0  0  0  0
   -0.6245   13.4582   39.9803 H   0  0  0  0  0  0  0  0  0  0  0  0
   -1.2947   14.0071   38.5385 H   0  0  0  0  0  0  0  0  0  0  0  0
    0.2240   13.2842   38.5385 H   0  0  0  0  0  0  0  0  0  0  0  0
    1.1291   14.2516   37.6265 H   0  0  0  0  0  0  0  0  0  0  0  0
   -0.1623   15.5106   37.2326 H   0  0  0  0  0  0  0  0  0  0  0  0
   -0.4749   15.9005   39.8216 H   0  0  0  0  0  0  0  0  0  0  0  0
    2.1137   16.6055   38.3529 H   0  0  0  0  0  0  0  0  0  0  0  0
    2.8305   16.8815   40.7725 H   0  0  0  0  0  0  0  0  0  0  0  0
    1.6219   16.9611   45.0532 H   0  0  0  0  0  0  0  0  0  0  0  0
  1  2  2  0
  1  4  1  0
  2  9  1  0
  3  5  1  0
  4 15  1  0
  6  2  1  0
  6  7  1  0
  8 14  1  0
  9 15  2  0
 11 12  1  0
 12 10  1  0
 12  8  1  0
 13 11  1  0
 14  3  1  0
 14  1  1  0
  3 16  1  0
  3 17  1  0
  4 18  1  0
  5 19  1  0
  6 20  1  0
  6 21  1  0
  7 22  1  0
  8 23  1  0
  8 24  1  0
  9 25  1  0
 10 26  1  0
 10 27  1  0
 10 28  1  0
 11 29  1  0
 11 30  1  0
 12 31  1  0
 13 32  1  0
 14 33  1  0
 15 34  1  0
M  CHG  1  10   1
M  END
>  <mol_id>  (36) 
2026-09-18-5lvo-s0-n100-0038

>  <rmsd_to_ref>  (36) 


$$$$

     RDKit          3D

 38 40  0  0  0  0  0  0  0  0999 V2000
    1.9410   15.4500   36.9800 C   0  0  0  0  0  0  0  0  0  0  0  0
    0.0680   18.7510   44.2650 C   0  0  0  0  0  0  0  0  0  0  0  0
    3.9210   16.7770   38.2860 N   0  0  0  0  0  0  0  0  0  0  0  0
    1.0920   20.4630   42.9220 C   0  0  0  0  0  0  0  0  0  0  0  0
   -0.2270   17.4100   44.4120 N   0  0  0  0  0  0  0  0  0  0  0  0
    4.5230   18.7090   39.1700 O   0  0  0  0  0  0  0  0  0  0  0  0
    1.9620   18.6300   40.9050 C   0  0  0  0  0  0  0  0  0  0  0  0
    1.2250   18.1860   42.0880 C   0  0  0  0  0  0  0  0  0  0  0  0
    1.6960   16.5650   39.1330 C   0  0  0  0  0  0  0  0  0  0  0  0
    1.7500   20.9180   41.7070 C   0  0  0  0  0  0  0  0  0  0  0  0
    2.7600   15.9470   38.2570 N   0  0  0  0  0  0  0  0  0  0  0  0
    0.9190   16.7160   42.2790 C   0  0  0  0  0  0  0  0  0  0  0  0
    0.8150   19.1080   43.0400 C   0  0  0  0  0  0  0  0  0  0  0  0
    2.4420   17.7150   39.7730 C   0  0  0  0  0  0  0  0  0  0  0  0
    2.1470   20.0290   40.8060 C   0  0  0  0  0  0  0  0  0  0  0  0
    3.7060   17.7960   39.1810 C   0  0  0  0  0  0  0  0  0  0  0  0
    0.1710   14.1560   37.5220 O   0  0  0  0  0  0  0  0  0  0  0  0
   -0.0190   16.4420   43.3510 C   0  0  0  0  0  0  0  0  0  0  0  0
   -1.0370   17.0640   45.6080 C   0  0  0  0  0  0  0  0  0  0  0  0
   -0.3960   19.5730   44.9560 O   0  0  0  0  0  0  0  0  0  0  0  0
    1.5650   14.0690   37.1600 C   0  0  0  0  0  0  0  0  0  0  0  0
    2.5685   15.5455   36.0816 H   0  0  0  0  0  0  0  0  0  0  0  0
    1.0365   16.0647   36.8613 H   0  0  0  0  0  0  0  0  0  0  0  0
    4.7760   16.6354   37.7294 H   0  0  0  0  0  0  0  0  0  0  0  0
    0.8228   21.1695   43.7210 H   0  0  0  0  0  0  0  0  0  0  0  0
    0.6487   16.2580   39.2702 H   0  0  0  0  0  0  0  0  0  0  0  0
    1.9172   21.9918   41.5366 H   0  0  0  0  0  0  0  0  0  0  0  0
    0.4959   16.3263   41.3414 H   0  0  0  0  0  0  0  0  0  0  0  0
    1.8657   16.2273   42.5525 H   0  0  0  0  0  0  0  0  0  0  0  0
    2.6607   20.4098   39.9110 H   0  0  0  0  0  0  0  0  0  0  0  0
    0.0859   14.1613   38.5083 H   0  0  0  0  0  0  0  0  0  0  0  0
   -0.9985   16.2768   42.8784 H   0  0  0  0  0  0  0  0  0  0  0  0
    0.4458   15.5946   43.8763 H   0  0  0  0  0  0  0  0  0  0  0  0
   -0.4690   17.3066   46.5182 H   0  0  0  0  0  0  0  0  0  0  0  0
   -1.9737   17.6405   45.5957 H   0  0  0  0  0  0  0  0  0  0  0  0
   -1.2681   15.9886   45.5957 H   0  0  0  0  0  0  0  0  0  0  0  0
    1.6966   13.4989   36.2285 H   0  0  0  0  0  0  0  0  0  0  0  0
    2.1761   13.5481   37.9118 H   0  0  0  0  0  0  0  0  0  0  0  0
  1 21  1  0
  1 11  1  0
  2  5  1  0
  2 20  2  0
  3 16  1  0
  4 13  2  0
  5 19  1  0
  6 16  2  0
  7  8  2  0
  8 12  1  0
  8 13  1  0
  9 14  2  0
 10  4  1  0
 11  3  1  0
 11  9  1  0
 12 18  1  0
 13  2  1  0
 14  7  1  0
 15  7  1  0
 15 10  2  0
 16 14  1  0
 18  5  1  0
 21 17  1  0
  1 22  1  0
  1 23  1  0
  3 24  1  0
  4 25  1  0
  9 26  1  0
 10 27  1  0
 12 28  1  0
 12 29  1  0
 15 30  1  0
 17 31  1  0
 18 32  1  0
 18 33  1  0
 19 34  1  0
 19 35  1  0
 19 36  1  0
 21 37  1  0
 21 38  1  0
M  END
>  <mol_id>  (37) 
2026-09-18-5lvo-s0-n100-0039

>  <rmsd_to_ref>  (37) 


$$$$

     RDKit          3D

 48 51  0  0  0  0  0  0  0  0999 V2000
    3.7530   15.8070   37.5300 C   0  0  0  0  0  0  0  0  0  0  0  0
    0.1620   19.5670   44.3280 N   0  0  0  0  0  0  0  0  0  0  0  0
    0.0000   15.4610   43.7550 C   0  0  0  0  0  0  0  0  0  0  0  0
    2.0500   16.8730   40.8130 C   0  0  0  0  0  0  0  0  0  0  0  0
   -1.5880   15.2670   45.2010 O   0  0  0  0  0  0  0  0  0  0  0  0
    4.8560   15.5900   38.3740 C   0  0  0  0  0  0  0  0  0  0  0  0
    4.0640   19.5220   36.8060 N   0  0  0  0  0  0  0  0  0  0  0  0
    3.9620   13.8960   35.6060 C   0  0  0  0  0  0  0  0  0  0  0  0
    3.1930   19.1440   39.0230 C   0  0  0  0  0  0  0  0  0  0  0  0
    1.4670   19.2380   42.5790 N   0  0  0  0  0  0  0  0  0  0  0  0
    3.0490   17.8160   38.7590 C   0  0  0  0  0  0  0  0  0  0  0  0
    2.5060   17.0020   39.7280 C   0  0  0  0  0  0  0  0  0  0  0  0
    1.2960   16.7950   42.0410 C   0  0  0  0  0  0  0  0  0  0  0  0
    4.3570   17.6460   35.3630 O   0  0  0  0  0  0  0  0  0  0  0  0
    3.9020   18.0890   36.4880 C   0  0  0  0  0  0  0  0  0  0  0  0
    0.6080   15.5830   42.5900 C   0  0  0  0  0  0  0  0  0  0  0  0
    3.9080   19.9020   38.0770 C   0  0  0  0  0  0  0  0  0  0  0  0
   -0.5610   17.4060   44.9590 C   0  0  0  0  0  0  0  0  0  0  0  0
    0.1680   18.1690   44.0630 C   0  0  0  0  0  0  0  0  0  0  0  0
   -0.7150   16.0830   44.6900 C   0  0  0  0  0  0  0  0  0  0  0  0
    2.2680   19.9340   39.7820 C   0  0  0  0  0  0  0  0  0  0  0  0
    3.4740   17.2840   37.4410 C   0  0  0  0  0  0  0  0  0  0  0  0
    5.4070   14.5730   37.5170 N   0  0  0  0  0  0  0  0  0  0  0  0
    4.4210   14.8370   36.5970 N   0  0  0  0  0  0  0  0  0  0  0  0
    0.9820   20.1670   43.3590 C   0  0  0  0  0  0  0  0  0  0  0  0
    1.6300   20.6190   40.0920 O   0  0  0  0  0  0  0  0  0  0  0  0
    0.9900   17.9570   42.8540 C   0  0  0  0  0  0  0  0  0  0  0  0
    2.6722   15.6197   37.6125 H   0  0  0  0  0  0  0  0  0  0  0  0
    0.8389   15.1003   44.3683 H   0  0  0  0  0  0  0  0  0  0  0  0
   -0.9244   15.1488   43.2470 H   0  0  0  0  0  0  0  0  0  0  0  0
   -2.2001   15.5797   45.9135 H   0  0  0  0  0  0  0  0  0  0  0  0
    5.5055   16.4714   38.4801 H   0  0  0  0  0  0  0  0  0  0  0  0
    4.6745   15.3501   39.4321 H   0  0  0  0  0  0  0  0  0  0  0  0
    4.2902   20.2070   36.0708 H   0  0  0  0  0  0  0  0  0  0  0  0
    3.5327   13.0159   36.1071 H   0  0  0  0  0  0  0  0  0  0  0  0
    3.1943   14.3708   34.9773 H   0  0  0  0  0  0  0  0  0  0  0  0
    4.8088   13.5833   34.9773 H   0  0  0  0  0  0  0  0  0  0  0  0
    4.0543   17.6266   39.1633 H   0  0  0  0  0  0  0  0  0  0  0  0
    2.4869   15.9958   39.2840 H   0  0  0  0  0  0  0  0  0  0  0  0
   -0.1621   15.3358   41.8445 H   0  0  0  0  0  0  0  0  0  0  0  0
    1.4930   14.9623   42.7938 H   0  0  0  0  0  0  0  0  0  0  0  0
    4.9229   20.0164   38.4855 H   0  0  0  0  0  0  0  0  0  0  0  0
    3.2577   20.7820   37.9645 H   0  0  0  0  0  0  0  0  0  0  0  0
   -1.0018   17.8566   45.8605 H   0  0  0  0  0  0  0  0  0  0  0  0
    1.0626   18.0535   44.6925 H   0  0  0  0  0  0  0  0  0  0  0  0
    2.6996   17.3253   36.6609 H   0  0  0  0  0  0  0  0  0  0  0  0
    6.3610   14.7721   37.1835 H   0  0  0  0  0  0  0  0  0  0  0  0
    1.1834   21.2448   43.2709 H   0  0  0  0  0  0  0  0  0  0  0  0
  1  6  1  0
  3 20  1  0
  4 13  2  0
  7 17  1  0
  8 24  1  0
  9 21  2  0
 10 27  2  0
 10 25  1  0
 11  9  1  0
 11 12  1  0
 12  4  2  0
 13 16  1  0
 13 27  1  0
 14 15  2  0
 15  7  1  0
 16  3  1  0
 17  9  1  0
 19  2  1  0
 19 18  1  0
 20 18  2  0
 20  5  1  0
 21 26  2  0
 22 15  1  0
 22  1  1  0
 22 11  1  0
 23  6  1  0
 24 23  1  0
 24  1  1  0
 25  2  2  0
 27 19  1  0
  1 28  1  0
  3 29  1  0
  3 30  1  0
  5 31  1  0
  6 32  1  0
  6 33  1  0
  7 34  1  0
  8 35  1  0
  8 36  1  0
  8 37  1  0
 11 38  1  0
 12 39  1  0
 16 40  1  0
 16 41  1  0
 17 42  1  0
 17 43  1  0
 18 44  1  0
 19 45  1  0
 22 46  1  0
 23 47  1  0
 25 48  1  0
M  END
>  <mol_id>  (38) 
2026-09-18-5lvo-s0-n100-0040

>  <rmsd_to_ref>  (38) 


$$$$

     RDKit          3D

 49 51  0  0  0  0  0  0  0  0999 V2000
    5.3600   15.9040   38.0370 O   0  0  0  0  0  0  0  0  0  0  0  0
    3.7100   18.7840   38.0470 N   0  0  0  0  0  4  0  0  0  0  0  0
    1.2470   15.1200   38.1690 C   0  0  0  0  0  0  0  0  0  0  0  0
    3.0880   18.3460   40.4910 N   0  0  0  0  0  4  0  0  0  0  0  0
    4.8270   20.6490   37.8460 O   0  0  0  0  0  0  0  0  0  0  0  0
    2.1200   16.6110   39.4950 C   0  0  0  0  0  0  0  0  0  0  0  0
    3.1660   16.5590   38.4390 C   0  0  0  0  0  0  0  0  0  0  0  0
    0.5030   19.8530   44.6560 C   0  0  0  0  0  0  0  0  0  0  0  0
    3.7410   22.2930   37.7390 F   0  0  0  0  0  0  0  0  0  0  0  0
    0.8810   18.8190   43.6650 C   0  0  0  0  0  0  0  0  0  0  0  0
    1.6330   18.8290   42.6500 N   0  0  0  0  0  0  0  0  0  0  0  0
   -0.4930   17.2370   44.7330 C   0  0  0  0  0  0  0  0  0  0  0  0
    4.1770   16.1820   37.4830 O   0  0  0  0  0  0  0  0  0  0  0  0
    0.3420   17.4800   43.7520 C   0  0  0  0  0  0  0  0  0  0  0  0
    3.8600   17.9660   39.1220 C   0  0  0  0  0  0  0  0  0  0  0  0
    3.9930   20.0840   38.4780 C   0  0  0  0  0  0  0  0  0  0  0  0
    0.7650   16.8510   42.7070 C   0  0  0  0  0  0  0  0  0  0  0  0
   -0.3650   19.4600   45.7060 C   0  0  0  0  0  0  0  0  0  0  0  0
    0.5060   15.5740   42.3350 C   0  0  0  0  0  0  0  0  0  0  0  0
    2.1360   15.8410   39.3790 C   0  0  0  0  0  0  0  0  0  0  0  0
   -0.8600   18.1400   45.7650 C   0  0  0  0  0  0  0  0  0  0  0  0
    1.5650   17.6780   42.0920 C   0  0  0  0  0  0  0  0  0  0  0  0
    3.3710   21.0840   37.7290 C   0  0  0  0  0  0  0  0  0  0  0  0
    2.2860   17.3040   40.8460 C   0  0  0  0  0  0  0  0  0  0  0  0
    0.0660   15.1400   37.7670 O   0  0  0  0  0  0  0  0  0  0  0  0
    5.2754   15.9239   39.0232 H   0  0  0  0  0  0  0  0  0  0  0  0
    4.3635   18.5092   37.2998 H   0  0  0  0  0  0  0  0  0  0  0  0
    2.7536   18.7225   37.6697 H   0  0  0  0  0  0  0  0  0  0  0  0
    1.8676   14.4451   37.5612 H   0  0  0  0  0  0  0  0  0  0  0  0
    3.7747   18.5244   41.2377 H   0  0  0  0  0  0  0  0  0  0  0  0
    2.5193   19.1929   40.3487 H   0  0  0  0  0  0  0  0  0  0  0  0
    1.2126   17.2322   39.4672 H   0  0  0  0  0  0  0  0  0  0  0  0
    2.5364   17.0576   37.6873 H   0  0  0  0  0  0  0  0  0  0  0  0
    3.8785   16.2778   39.2285 H   0  0  0  0  0  0  0  0  0  0  0  0
    0.8802   20.8835   44.5804 H   0  0  0  0  0  0  0  0  0  0  0  0
   -0.9531   16.2382   44.7589 H   0  0  0  0  0  0  0  0  0  0  0  0
    3.5145   16.9661   38.8206 H   0  0  0  0  0  0  0  0  0  0  0  0
    4.9259   18.0512   39.3800 H   0  0  0  0  0  0  0  0  0  0  0  0
    3.9512   19.8784   39.5578 H   0  0  0  0  0  0  0  0  0  0  0  0
    0.1770   19.6365   46.6468 H   0  0  0  0  0  0  0  0  0  0  0  0
   -1.2695   20.0572   45.5183 H   0  0  0  0  0  0  0  0  0  0  0  0
    0.3793   14.9494   43.2316 H   0  0  0  0  0  0  0  0  0  0  0  0
   -0.4160   15.5465   41.7357 H   0  0  0  0  0  0  0  0  0  0  0  0
    1.3444   15.1894   41.7357 H   0  0  0  0  0  0  0  0  0  0  0  0
    1.8073   15.3792   40.3217 H   0  0  0  0  0  0  0  0  0  0  0  0
    3.1696   15.6764   39.0404 H   0  0  0  0  0  0  0  0  0  0  0  0
   -1.5135   17.8189   46.5895 H   0  0  0  0  0  0  0  0  0  0  0  0
    2.3386   21.1119   37.3503 H   0  0  0  0  0  0  0  0  0  0  0  0
    2.2939   16.3387   41.3733 H   0  0  0  0  0  0  0  0  0  0  0  0
  2 15  1  0
  3 20  1  0
  5 16  1  0
  6  7  1  0
  6 24  1  0
  8 18  1  0
 10 14  1  0
 10  8  2  0
 11 10  1  0
 12 21  2  0
 13  1  1  0
 13  7  1  0
 14 12  1  0
 15  4  1  0
 16  2  1  0
 17 14  2  0
 18 21  1  0
 19 17  1  0
 20  6  1  0
 22 11  2  0
 22 17  1  0
 23  9  1  0
 23  5  1  0
 23 16  1  0
 24  4  1  0
 24 22  1  0
 25  3  2  0
  1 26  1  0
  2 27  1  0
  2 28  1  0
  3 29  1  0
  4 30  1  0
  4 31  1  0
  6 32  1  0
  7 33  1  0
  7 34  1  0
  8 35  1  0
 12 36  1  0
 15 37  1  0
 15 38  1  0
 16 39  1  0
 18 40  1  0
 18 41  1  0
 19 42  1  0
 19 43  1  0
 19 44  1  0
 20 45  1  0
 20 46  1  0
 21 47  1  0
 23 48  1  0
 24 49  1  0
M  CHG  2   2   1   4   1
M  END
>  <mol_id>  (39) 
2026-09-18-5lvo-s0-n100-0041

>  <rmsd_to_ref>  (39) 


$$$$

     RDKit          3D

 44 45  0  0  0  0  0  0  0  0999 V2000
    0.8470   18.0820   43.6380 C   0  0  0  0  0  0  0  0  0  0  0  0
    2.7380   19.1930   40.5000 C   0  0  0  0  0  0  0  0  0  0  0  0
    2.2790   12.5260   35.0590 N   0  0  0  0  0  4  0  0  0  0  0  0
    1.3310   15.6620   43.9980 C   0  0  0  0  0  0  0  0  0  0  0  0
    4.3050   13.9510   35.9370 C   0  0  0  0  0  0  0  0  0  0  0  0
    0.6500   16.8550   44.3330 C   0  0  0  0  0  0  0  0  0  0  0  0
    1.9470   15.5760   36.5450 C   0  0  0  0  0  0  0  0  0  0  0  0
    1.8090   14.1740   36.4640 N   0  0  0  0  0  4  0  0  0  0  0  0
    3.2690   16.1630   36.6750 C   0  0  0  0  0  0  0  0  0  0  0  0
   -0.3650   16.5380   45.2840 O   0  0  0  0  0  0  0  0  0  0  0  0
    1.8110   19.1980   41.6940 C   0  0  0  0  0  0  0  0  0  0  0  0
    2.8460   13.7510   35.5220 C   0  0  0  0  0  0  0  0  0  0  0  0
    2.9590   17.2660   37.1310 N   0  0  0  0  0  0  0  0  0  0  0  0
    1.6420   18.0200   42.4970 C   0  0  0  0  0  0  0  0  0  0  0  0
   -0.1970   21.5440   43.4290 O   0  0  0  0  0  0  0  0  0  0  0  0
    3.9260   19.5370   40.6090 O   0  0  0  0  0  1  0  0  0  0  0  0
    4.4600   15.4610   36.4960 C   0  0  0  0  0  0  0  0  0  0  0  0
    2.3270   16.8150   42.0710 C   0  0  0  0  0  0  0  0  0  0  0  0
    0.3690   20.4070   43.1770 C   0  0  0  0  0  0  0  0  0  0  0  0
    2.0960   15.7020   42.8400 C   0  0  0  0  0  0  0  0  0  0  0  0
    1.1760   20.4120   42.0270 C   0  0  0  0  0  0  0  0  0  0  0  0
    2.2310   18.6270   39.4820 O   0  0  0  0  0  0  0  0  0  0  0  0
    2.7430   18.2370   37.3160 O   0  0  0  0  0  0  0  0  0  0  0  0
    0.1760   19.2480   43.9740 C   0  0  0  0  0  0  0  0  0  0  0  0
    2.0102   11.9454   35.8662 H   0  0  0  0  0  0  0  0  0  0  0  0
    1.4456   12.7275   34.4883 H   0  0  0  0  0  0  0  0  0  0  0  0
    2.9720   12.0210   34.4883 H   0  0  0  0  0  0  0  0  0  0  0  0
    1.2590   14.7562   44.6179 H   0  0  0  0  0  0  0  0  0  0  0  0
    4.9641   13.8044   35.0686 H   0  0  0  0  0  0  0  0  0  0  0  0
    4.5858   13.2241   36.7134 H   0  0  0  0  0  0  0  0  0  0  0  0
    1.3652   15.9037   37.4191 H   0  0  0  0  0  0  0  0  0  0  0  0
    1.6084   15.9239   35.5579 H   0  0  0  0  0  0  0  0  0  0  0  0
    1.9580   13.7407   37.3865 H   0  0  0  0  0  0  0  0  0  0  0  0
    0.8667   13.8928   36.1575 H   0  0  0  0  0  0  0  0  0  0  0  0
   -0.3915   15.6394   45.6987 H   0  0  0  0  0  0  0  0  0  0  0  0
    3.0691   14.3933   34.6573 H   0  0  0  0  0  0  0  0  0  0  0  0
    2.7653   16.9328   38.0862 H   0  0  0  0  0  0  0  0  0  0  0  0
   -0.0284   22.3221   42.8405 H   0  0  0  0  0  0  0  0  0  0  0  0
    5.4411   15.9049   36.7202 H   0  0  0  0  0  0  0  0  0  0  0  0
    2.9870   16.7944   41.1912 H   0  0  0  0  0  0  0  0  0  0  0  0
    2.5572   14.7594   42.5102 H   0  0  0  0  0  0  0  0  0  0  0  0
    1.3060   21.3179   41.4168 H   0  0  0  0  0  0  0  0  0  0  0  0
    2.7096   18.3871   38.2940 H   0  0  0  0  0  0  0  0  0  0  0  0
   -0.4956   19.2746   44.8448 H   0  0  0  0  0  0  0  0  0  0  0  0
  1 24  2  0
  1  6  1  0
  2 16  1  0
  2 11  1  0
  4  6  2  0
  5 17  1  0
  6 10  1  0
  7  9  1  0
  8  7  1  0
  9 13  1  0
 11 21  1  0
 11 14  2  0
 12  3  1  0
 12  5  1  0
 12  8  1  0
 13 23  1  0
 14  1  1  0
 17  9  2  0
 18 14  1  0
 18 20  2  0
 19 15  1  0
 19 24  1  0
 20  4  1  0
 21 19  2  0
 22  2  2  0
  3 25  1  0
  3 26  1  0
  3 27  1  0
  4 28  1  0
  5 29  1  0
  5 30  1  0
  7 31  1  0
  7 32  1  0
  8 33  1  0
  8 34  1  0
 10 35  1  0
 12 36  1  0
 13 37  1  0
 15 38  1  0
 17 39  1  0
 18 40  1  0
 20 41  1  0
 21 42  1  0
 23 43  1  0
 24 44  1  0
M  CHG  3   3   1   8   1  16  -1
M  END
>  <mol_id>  (40) 
2026-09-18-5lvo-s0-n100-0042

>  <rmsd_to_ref>  (40) 


$$$$

     RDKit          3D

 58 60  0  0  0  0  0  0  0  0999 V2000
    3.0800   22.7610   36.8050 C   0  0  0  0  0  0  0  0  0  0  0  0
    3.1350   21.8220   34.7240 N   0  0  0  0  0  0  0  0  0  0  0  0
    2.9150   14.0250   38.6640 C   0  0  0  0  0  0  0  0  0  0  0  0
   -3.3830   12.8300   44.1160 F   0  0  0  0  0  0  0  0  0  0  0  0
    1.5660   15.9820   39.5940 C   0  0  0  0  0  0  0  0  0  0  0  0
    1.6740   16.9690   40.9030 C   0  0  0  0  0  0  0  0  0  0  0  0
    3.8190   18.3840   38.9440 C   0  0  0  0  0  0  0  0  0  0  0  0
    0.3310   19.5160   44.5480 C   0  0  0  0  0  0  0  0  0  0  0  0
   -0.9890   12.6660   44.0620 F   0  0  0  0  0  0  0  0  0  0  0  0
   -0.1290   15.3890   44.9590 O   0  0  0  0  0  0  0  0  0  0  0  0
    4.5420   19.2890   38.2520 C   0  0  0  0  0  0  0  0  0  0  0  0
    2.0190   18.0770   40.2600 O   0  0  0  0  0  0  0  0  0  0  0  0
    1.8060   15.0070   43.4250 O   0  0  0  0  0  0  0  0  0  0  0  0
    0.9240   17.3110   43.5820 C   0  0  0  0  0  0  0  0  0  0  0  0
    2.6300   18.8430   39.4840 C   0  0  0  0  0  0  0  0  0  0  0  0
    2.8310   15.1910   39.6240 C   0  0  0  0  0  0  0  0  0  0  0  0
    2.5290   22.0520   35.5980 C   0  0  0  0  0  0  0  0  0  0  0  0
   -0.3070   14.7820   44.1090 C   0  0  0  0  0  0  0  0  0  0  0  0
    4.1340   20.5860   38.0530 C   0  0  0  0  0  0  0  0  0  0  0  0
    2.4680   22.2330   38.0320 O   0  0  0  0  0  0  0  0  0  0  0  0
    0.2670   15.1260   39.4180 C   0  0  0  0  0  0  0  0  0  0  0  0
    2.0610   20.0830   39.1110 C   0  0  0  0  0  0  0  0  0  0  0  0
    1.5850   19.3880   42.5330 C   0  0  0  0  0  0  0  0  0  0  0  0
    1.0280   20.0210   43.5000 N   0  0  0  0  0  0  0  0  0  0  0  0
   -1.9310   13.6850   44.2040 C   0  0  0  0  0  0  0  0  0  0  0  0
    1.3840   17.8940   42.3040 C   0  0  0  0  0  0  0  0  0  0  0  0
    2.2400   20.1930   41.9430 O   0  0  0  0  0  0  0  0  0  0  0  0
    2.8430   20.9600   38.4680 C   0  0  0  0  0  0  0  0  0  0  0  0
    0.4400   13.9460   38.5440 C   0  0  0  0  0  0  0  0  0  0  0  0
   -2.1710   14.4800   43.1040 F   0  0  0  0  0  0  0  0  0  0  0  0
    0.8110   15.4890   43.9120 C   0  0  0  0  0  0  0  0  0  0  0  0
    1.6730   13.3190   38.5180 O   0  0  0  0  0  0  0  0  0  0  0  0
    0.3130   18.0740   44.5730 C   0  0  0  0  0  0  0  0  0  0  0  0
   -1.9820   14.1370   45.4610 F   0  0  0  0  0  0  0  0  0  0  0  0
    2.8621   23.8362   36.7248 H   0  0  0  0  0  0  0  0  0  0  0  0
    4.1670   22.5983   36.8495 H   0  0  0  0  0  0  0  0  0  0  0  0
    2.7148   21.3346   33.9198 H   0  0  0  0  0  0  0  0  0  0  0  0
    3.2181   14.4060   37.6776 H   0  0  0  0  0  0  0  0  0  0  0  0
    3.6468   13.3151   39.0768 H   0  0  0  0  0  0  0  0  0  0  0  0
    1.4582   16.5950   38.6870 H   0  0  0  0  0  0  0  0  0  0  0  0
    1.6447   16.0222   41.4621 H   0  0  0  0  0  0  0  0  0  0  0  0
    4.1543   17.3441   39.0713 H   0  0  0  0  0  0  0  0  0  0  0  0
   -0.1693   20.1419   45.3016 H   0  0  0  0  0  0  0  0  0  0  0  0
    5.5057   18.9729   37.8261 H   0  0  0  0  0  0  0  0  0  0  0  0
    2.4164   14.7113   44.1462 H   0  0  0  0  0  0  0  0  0  0  0  0
    2.9551   14.7958   40.6430 H   0  0  0  0  0  0  0  0  0  0  0  0
    3.6208   15.8885   39.3082 H   0  0  0  0  0  0  0  0  0  0  0  0
    1.4702   21.7539   35.5990 H   0  0  0  0  0  0  0  0  0  0  0  0
   -0.2157   13.6918   44.2240 H   0  0  0  0  0  0  0  0  0  0  0  0
   -1.2056   14.6907   43.4811 H   0  0  0  0  0  0  0  0  0  0  0  0
    4.8041   21.3178   37.5782 H   0  0  0  0  0  0  0  0  0  0  0  0
   -0.0551   14.7775   40.4104 H   0  0  0  0  0  0  0  0  0  0  0  0
   -0.4790   15.7741   38.9349 H   0  0  0  0  0  0  0  0  0  0  0  0
    1.0116   20.3192   39.3412 H   0  0  0  0  0  0  0  0  0  0  0  0
    2.4131   17.7036   42.6427 H   0  0  0  0  0  0  0  0  0  0  0  0
   -0.2992   13.1957   38.8612 H   0  0  0  0  0  0  0  0  0  0  0  0
    0.3191   14.3448   37.5260 H   0  0  0  0  0  0  0  0  0  0  0  0
   -0.1993   17.5615   45.4006 H   0  0  0  0  0  0  0  0  0  0  0  0
  1 20  1  0
  2 17  2  3
  3 16  1  0
  4 25  1  0
  5 16  1  0
  5  6  1  0
  6 12  1  0
  7 15  2  0
  8 33  1  0
  9 25  1  0
 11  7  1  0
 14 31  1  0
 14 33  2  0
 15 12  1  0
 17  1  1  0
 18 10  1  0
 19 11  2  0
 19 28  1  0
 20 28  1  0
 21  5  1  0
 22 15  1  0
 23 24  1  0
 24  8  2  0
 25 34  1  0
 26  6  1  0
 26 23  1  0
 26 14  1  0
 27 23  2  0
 28 22  2  0
 29 21  1  0
 30 25  1  0
 31 13  1  0
 31 18  1  0
 31 10  1  0
 32 29  1  0
 32  3  1  0
  1 35  1  0
  1 36  1  0
  2 37  1  0
  3 38  1  0
  3 39  1  0
  5 40  1  0
  6 41  1  0
  7 42  1  0
  8 43  1  0
 11 44  1  0
 13 45  1  0
 16 46  1  0
 16 47  1  0
 17 48  1  0
 18 49  1  0
 18 50  1  0
 19 51  1  0
 21 52  1  0
 21 53  1  0
 22 54  1  0
 26 55  1  0
 29 56  1  0
 29 57  1  0
 33 58  1  0
M  END
>  <mol_id>  (41) 
2026-09-18-5lvo-s0-n100-0043

>  <rmsd_to_ref>  (41) 


$$$$

     RDKit          3D

 49 52  0  0  0  0  0  0  0  0999 V2000
    0.7190   20.1400   42.9740 C   0  0  0  0  0  0  0  0  0  0  0  0
    3.1900   16.2060   36.8480 C   0  0  0  0  0  0  0  0  0  0  0  0
    0.0370   19.9510   44.1900 N   0  0  0  0  0  0  0  0  0  0  0  0
    1.0230   21.4020   42.3170 C   0  0  0  0  0  0  0  0  0  0  0  0
    0.3350   17.5840   43.8290 C   0  0  0  0  0  0  0  0  0  0  0  0
    3.6000   17.9810   38.3970 C   0  0  0  0  0  0  0  0  0  0  0  0
    2.4710   17.9250   39.1600 C   0  0  0  0  0  0  0  0  0  0  0  0
    1.7010   15.3540   38.3740 C   0  0  0  0  0  0  0  0  0  0  0  0
   -0.0800   18.6220   44.5920 C   0  0  0  0  0  0  0  0  0  0  0  0
    4.2110   15.4950   37.5730 C   0  0  0  0  0  0  0  0  0  0  0  0
    2.6110   15.5230   39.5230 C   0  0  0  0  0  0  0  0  0  0  0  0
    1.2880   19.0570   42.2490 C   0  0  0  0  0  0  0  0  0  0  0  0
    1.5700   20.9700   40.9580 C   0  0  0  0  0  0  0  0  0  0  0  0
    4.0670   15.5770   39.0050 C   0  0  0  0  0  0  0  0  0  0  0  0
    2.6690   16.8640   40.1830 C   0  0  0  0  0  0  0  0  0  0  0  0
    2.1120   19.5770   41.2290 C   0  0  0  0  0  0  0  0  0  0  0  0
   -0.7760   18.3700   45.8080 N   0  0  0  0  0  0  0  0  0  0  0  0
    1.7270   16.0620   37.2990 C   0  0  0  0  0  0  0  0  0  0  0  0
    1.0520   17.8250   42.6460 C   0  0  0  0  0  0  0  0  0  0  0  0
    4.6040   16.9620   39.0930 C   0  0  0  0  0  0  0  0  0  0  0  0
    3.4930   17.7080   36.8950 C   0  0  0  0  0  0  0  0  0  0  0  0
    3.2437   15.7352   35.8553 H   0  0  0  0  0  0  0  0  0  0  0  0
    0.1161   22.0135   42.2001 H   0  0  0  0  0  0  0  0  0  0  0  0
    1.7294   22.0238   42.8866 H   0  0  0  0  0  0  0  0  0  0  0  0
    0.1106   16.5517   44.1356 H   0  0  0  0  0  0  0  0  0  0  0  0
    3.9257   19.0315   38.3781 H   0  0  0  0  0  0  0  0  0  0  0  0
    2.3034   18.8940   39.6528 H   0  0  0  0  0  0  0  0  0  0  0  0
    1.5944   17.6989   38.5351 H   0  0  0  0  0  0  0  0  0  0  0  0
    1.8373   14.3139   38.0430 H   0  0  0  0  0  0  0  0  0  0  0  0
    0.7566   15.7029   38.8172 H   0  0  0  0  0  0  0  0  0  0  0  0
    4.1714   14.4355   37.2799 H   0  0  0  0  0  0  0  0  0  0  0  0
    5.1727   15.9646   37.3187 H   0  0  0  0  0  0  0  0  0  0  0  0
    2.2535   14.7198   40.1842 H   0  0  0  0  0  0  0  0  0  0  0  0
    2.3700   21.6460   40.6218 H   0  0  0  0  0  0  0  0  0  0  0  0
    0.8117   20.9905   40.1614 H   0  0  0  0  0  0  0  0  0  0  0  0
    4.5319   14.7658   39.5845 H   0  0  0  0  0  0  0  0  0  0  0  0
    3.6500   16.9950   40.6630 H   0  0  0  0  0  0  0  0  0  0  0  0
    1.8780   16.9343   40.9442 H   0  0  0  0  0  0  0  0  0  0  0  0
    2.0474   18.9542   40.3246 H   0  0  0  0  0  0  0  0  0  0  0  0
    3.1718   19.5959   41.5232 H   0  0  0  0  0  0  0  0  0  0  0  0
   -0.8883   17.4037   46.1464 H   0  0  0  0  0  0  0  0  0  0  0  0
   -1.1673   19.1540   46.3494 H   0  0  0  0  0  0  0  0  0  0  0  0
    1.3002   17.0560   37.4984 H   0  0  0  0  0  0  0  0  0  0  0  0
    1.1348   15.5742   36.5108 H   0  0  0  0  0  0  0  0  0  0  0  0
    1.4188   16.9783   42.0472 H   0  0  0  0  0  0  0  0  0  0  0  0
    5.5789   17.0075   38.5855 H   0  0  0  0  0  0  0  0  0  0  0  0
    4.7208   17.2370   40.1516 H   0  0  0  0  0  0  0  0  0  0  0  0
    4.4380   17.9386   36.3813 H   0  0  0  0  0  0  0  0  0  0  0  0
    2.7326   18.3233   36.3919 H   0  0  0  0  0  0  0  0  0  0  0  0
  1  3  2  0
  2 21  1  0
  2 18  1  0
  2 10  1  0
  3  9  1  0
  4  1  1  0
  5  9  2  0
  6 21  1  0
  6 20  1  0
  6  7  1  0
  7 15  1  0
  9 17  1  0
 11  8  1  0
 11 15  1  0
 12 19  2  0
 12  1  1  0
 13 16  1  0
 13  4  1  0
 14 10  1  0
 14 20  1  0
 14 11  1  0
 16 12  1  0
 18  8  1  0
 19  5  1  0
  2 22  1  0
  4 23  1  0
  4 24  1  0
  5 25  1  0
  6 26  1  0
  7 27  1  0
  7 28  1  0
  8 29  1  0
  8 30  1  0
 10 31  1  0
 10 32  1  0
 11 33  1  0
 13 34  1  0
 13 35  1  0
 14 36  1  0
 15 37  1  0
 15 38  1  0
 16 39  1  0
 16 40  1  0
 17 41  1  0
 17 42  1  0
 18 43  1  0
 18 44  1  0
 19 45  1  0
 20 46  1  0
 20 47  1  0
 21 48  1  0
 21 49  1  0
M  END
>  <mol_id>  (42) 
2026-09-18-5lvo-s0-n100-0044

>  <rmsd_to_ref>  (42) 


$$$$

     RDKit          3D

 64 67  0  0  0  0  0  0  0  0999 V2000
    4.1550   18.6460   36.5620 O   0  0  0  0  0  0  0  0  0  0  0  0
    0.6160   19.1930   43.4990 C   0  0  0  0  0  0  0  0  0  0  0  0
    0.3540   14.2670   38.4050 C   0  0  0  0  0  0  0  0  0  0  0  0
    5.5000   15.3760   38.0060 C   0  0  0  0  0  0  0  0  0  0  0  0
    0.9810   13.0710   39.1840 C   0  0  0  0  0  0  0  0  0  0  0  0
    3.5480   21.8980   37.8360 C   0  0  0  0  0  0  0  0  0  0  0  0
    2.5190   17.6720   40.7760 N   0  0  0  0  0  0  0  0  0  0  0  0
    1.4350   20.0550   41.7090 N   0  0  0  0  0  0  0  0  0  0  0  0
    3.4170   17.3930   36.3370 C   0  0  0  0  0  0  0  0  0  0  0  0
    1.3640   13.4540   40.4690 C   0  0  0  0  0  0  0  0  0  0  0  0
    3.2250   16.7650   37.5140 C   0  0  0  0  0  0  0  0  0  0  0  0
   -0.5330   17.6680   46.1830 O   0  0  0  0  0  0  0  0  0  0  0  0
    2.9210   16.8350   39.8300 C   0  0  0  0  0  0  0  0  0  0  0  0
    3.2880   19.2340   38.7370 C   0  0  0  0  0  0  0  0  0  0  0  0
    2.0910   15.7300   39.6640 N   0  0  0  0  0  0  0  0  0  0  0  0
    3.5120   20.8100   37.0060 N   0  0  0  0  0  4  0  0  0  0  0  0
    1.6670   17.5700   41.7170 C   0  0  0  0  0  0  0  0  0  0  0  0
    4.5090   15.9520   37.4240 C   0  0  0  0  0  0  0  0  0  0  0  0
    0.2560   18.0840   44.2790 C   0  0  0  0  0  0  0  0  0  0  0  0
    3.4910   19.5900   37.4530 C   0  0  0  0  0  0  0  0  0  0  0  0
   -0.4040   18.6650   45.3150 C   0  0  0  0  0  0  0  0  0  0  0  0
    1.0720   15.4660   38.6010 C   0  0  0  0  0  0  0  0  0  0  0  0
    0.0520   13.8680   37.0690 O   0  0  0  0  0  0  0  0  0  0  0  0
    3.1410   17.8640   38.7190 C   0  0  0  0  0  0  0  0  0  0  0  0
    0.3260   16.6610   43.5450 C   0  0  0  0  0  0  0  0  0  0  0  0
    2.6110   14.3530   40.4900 C   0  0  0  0  0  0  0  0  0  0  0  0
    0.7700   20.9610   42.8880 C   0  0  0  0  0  0  0  0  0  0  0  0
    1.2640   18.8510   42.3510 C   0  0  0  0  0  0  0  0  0  0  0  0
    1.0330   16.5180   42.5320 C   0  0  0  0  0  0  0  0  0  0  0  0
    0.3230   20.4030   43.7780 N   0  0  0  0  0  0  0  0  0  0  0  0
   -0.6256   14.5433   38.8223 H   0  0  0  0  0  0  0  0  0  0  0  0
    6.2600   14.8518   37.4080 H   0  0  0  0  0  0  0  0  0  0  0  0
    5.5880   15.4074   39.1020 H   0  0  0  0  0  0  0  0  0  0  0  0
    0.2398   12.2614   39.2564 H   0  0  0  0  0  0  0  0  0  0  0  0
    1.8744   12.7300   38.6403 H   0  0  0  0  0  0  0  0  0  0  0  0
    3.5368   21.5610   38.8830 H   0  0  0  0  0  0  0  0  0  0  0  0
    4.4657   22.4740   37.6460 H   0  0  0  0  0  0  0  0  0  0  0  0
    2.6704   22.5334   37.6460 H   0  0  0  0  0  0  0  0  0  0  0  0
    2.9897   18.5876   40.7435 H   0  0  0  0  0  0  0  0  0  0  0  0
    2.4427   17.6189   35.8791 H   0  0  0  0  0  0  0  0  0  0  0  0
    3.9967   16.7425   35.6656 H   0  0  0  0  0  0  0  0  0  0  0  0
    0.5307   14.0022   40.9327 H   0  0  0  0  0  0  0  0  0  0  0  0
    1.6150   12.5362   41.0210 H   0  0  0  0  0  0  0  0  0  0  0  0
    2.3154   16.1762   37.7033 H   0  0  0  0  0  0  0  0  0  0  0  0
   -0.4868   18.0252   47.1051 H   0  0  0  0  0  0  0  0  0  0  0  0
    3.8234   16.2260   39.9872 H   0  0  0  0  0  0  0  0  0  0  0  0
    4.1507   19.5202   39.3565 H   0  0  0  0  0  0  0  0  0  0  0  0
    2.4067   19.7340   39.1653 H   0  0  0  0  0  0  0  0  0  0  0  0
    2.6650   20.9179   36.4299 H   0  0  0  0  0  0  0  0  0  0  0  0
    4.4392   20.8548   36.5597 H   0  0  0  0  0  0  0  0  0  0  0  0
    4.6612   15.7716   36.3496 H   0  0  0  0  0  0  0  0  0  0  0  0
    2.3950   19.4969   37.4613 H   0  0  0  0  0  0  0  0  0  0  0  0
    0.1829   19.4901   45.7448 H   0  0  0  0  0  0  0  0  0  0  0  0
   -1.3654   19.1114   45.0211 H   0  0  0  0  0  0  0  0  0  0  0  0
    1.5977   15.6428   37.6511 H   0  0  0  0  0  0  0  0  0  0  0  0
    0.2572   16.1081   38.9668 H   0  0  0  0  0  0  0  0  0  0  0  0
   -0.5454   13.0788   37.0874 H   0  0  0  0  0  0  0  0  0  0  0  0
    4.2192   17.7459   38.9019 H   0  0  0  0  0  0  0  0  0  0  0  0
   -0.2513   15.8108   43.9373 H   0  0  0  0  0  0  0  0  0  0  0  0
    2.9065   14.5971   41.5211 H   0  0  0  0  0  0  0  0  0  0  0  0
    3.4962   13.8816   40.0380 H   0  0  0  0  0  0  0  0  0  0  0  0
    1.5528   21.6302   43.2744 H   0  0  0  0  0  0  0  0  0  0  0  0
   -0.0808   21.4710   42.4125 H   0  0  0  0  0  0  0  0  0  0  0  0
    1.2060   15.4821   42.2049 H   0  0  0  0  0  0  0  0  0  0  0  0
  1 20  1  0
  2 30  2  0
  2 19  1  0
  3 23  1  0
  3 22  1  0
  3  5  1  0
  5 10  1  0
  7 17  1  0
  8 28  2  0
  8 27  1  0
  9  1  1  0
  9 11  1  0
 10 26  1  0
 11 18  1  0
 11 24  1  0
 13  7  1  0
 15 13  1  0
 15 26  1  0
 16  6  1  0
 17 28  1  0
 17 29  2  0
 18  4  2  3
 19 21  1  0
 20 16  1  0
 20 14  1  0
 21 12  1  0
 22 15  1  0
 24 14  1  0
 24 13  1  0
 25 19  2  0
 27 30  1  0
 28  2  1  0
 29 25  1  0
  3 31  1  0
  4 32  1  0
  4 33  1  0
  5 34  1  0
  5 35  1  0
  6 36  1  0
  6 37  1  0
  6 38  1  0
  7 39  1  0
  9 40  1  0
  9 41  1  0
 10 42  1  0
 10 43  1  0
 11 44  1  0
 12 45  1  0
 13 46  1  0
 14 47  1  0
 14 48  1  0
 16 49  1  0
 16 50  1  0
 18 51  1  0
 20 52  1  0
 21 53  1  0
 21 54  1  0
 22 55  1  0
 22 56  1  0
 23 57  1  0
 24 58  1  0
 25 59  1  0
 26 60  1  0
 26 61  1  0
 27 62  1  0
 27 63  1  0
 29 64  1  0
M  CHG  1  16   1
M  END
>  <mol_id>  (43) 
2026-09-18-5lvo-s0-n100-0045

>  <rmsd_to_ref>  (43) 


$$$$

     RDKit          3D

 85 87  0  0  0  0  0  0  0  0999 V2000
    2.2200   20.3970   40.4480 C   0  0  0  0  0  0  0  0  0  0  0  0
    0.1720   19.7640   44.6920 S   0  0  0  0  0  0  0  0  0  0  0  0
    3.4370   17.1980   36.4930 C   0  0  0  0  0  0  0  0  0  0  0  0
    1.8540   12.9010   39.3370 C   0  0  0  0  0  0  0  0  0  0  0  0
    3.8190   13.3100   41.0750 C   0  0  0  0  0  0  0  0  0  0  0  0
    1.4720   13.6940   41.5520 C   0  0  0  0  0  0  0  0  0  0  0  0
    0.0980   16.1140   44.4230 C   0  0  0  0  0  0  0  0  0  0  0  0
    2.8650   16.4430   37.6640 C   0  0  0  0  0  0  0  0  0  0  0  0
   -0.8490   14.2180   44.7180 C   0  0  0  0  0  0  0  0  0  0  0  0
    0.9940   12.6740   40.2770 N   0  0  0  0  0  4  0  0  0  0  0  0
   -1.4770   16.0890   46.1250 C   0  0  0  0  0  0  0  0  0  0  0  0
    3.5640   19.3130   37.8650 C   0  0  0  0  0  0  0  0  0  0  0  0
    2.2300   14.5990   36.3850 C   0  0  0  0  0  0  0  0  0  0  0  0
    3.9460   18.4590   38.8680 C   0  0  0  0  0  0  0  0  0  0  0  0
   -0.7990   15.5660   44.9900 C   0  0  0  0  0  0  0  0  0  0  0  0
   -0.1110   13.2900   43.7480 C   0  0  0  0  0  0  0  0  0  0  0  0
    1.7340   13.1840   36.7820 C   0  0  0  0  0  0  0  0  0  0  0  0
    0.2270   14.1630   42.3290 C   0  0  0  0  0  0  0  0  0  0  0  0
    2.7840   20.8940   39.5280 O   0  0  0  0  0  0  0  0  0  0  0  0
    3.1710   15.1350   37.2210 N   0  0  0  0  0  0  0  0  0  0  0  0
    0.2200   18.2170   44.4280 C   0  0  0  0  0  0  0  0  0  0  0  0
    2.3030   19.1930   41.0290 C   0  0  0  0  0  0  0  0  0  0  0  0
    4.3180   14.5230   37.5310 C   0  0  0  0  0  0  0  0  0  0  0  0
   -2.1000   13.4680   45.0750 O   0  0  0  0  0  0  0  0  0  0  0  0
    2.7030   14.2530   41.2600 C   0  0  0  0  0  0  0  0  0  0  0  0
   -0.9920   17.5250   46.6300 C   0  0  0  0  0  0  0  0  0  0  0  0
    4.4760   20.4810   37.5840 O   0  0  0  0  0  0  0  0  0  0  0  0
    0.6960   20.5930   42.3060 C   0  0  0  0  0  0  0  0  0  0  0  0
    1.2640   19.3660   42.1170 C   0  0  0  0  0  0  0  0  0  0  0  0
    3.3240   12.4240   39.9700 C   0  0  0  0  0  0  0  0  0  0  0  0
    0.9930   13.1800   38.1280 C   0  0  0  0  0  0  0  0  0  0  0  0
    3.5020   18.6100   36.5620 C   0  0  0  0  0  0  0  0  0  0  0  0
    5.1010   15.3520   38.3740 C   0  0  0  0  0  0  0  0  0  0  0  0
    1.3330   21.2250   41.3820 C   0  0  0  0  0  0  0  0  0  0  0  0
    3.2690   17.1100   39.0380 C   0  0  0  0  0  0  0  0  0  0  0  0
    1.2300   17.8610   42.8750 N   0  0  0  0  0  0  0  0  0  0  0  0
   -0.4260   18.3510   45.5170 C   0  0  0  0  0  0  0  0  0  0  0  0
    2.8258   16.9444   35.6143 H   0  0  0  0  0  0  0  0  0  0  0  0
    4.4904   16.8830   36.4605 H   0  0  0  0  0  0  0  0  0  0  0  0
    4.7382   13.8368   40.7791 H   0  0  0  0  0  0  0  0  0  0  0  0
    4.0813   12.7598   41.9907 H   0  0  0  0  0  0  0  0  0  0  0  0
    1.9017   13.4586   42.5369 H   0  0  0  0  0  0  0  0  0  0  0  0
    0.2520   17.1954   44.5532 H   0  0  0  0  0  0  0  0  0  0  0  0
    0.7702   15.5374   43.7706 H   0  0  0  0  0  0  0  0  0  0  0  0
    1.8002   16.4446   37.9402 H   0  0  0  0  0  0  0  0  0  0  0  0
    0.0336   14.5700   45.2722 H   0  0  0  0  0  0  0  0  0  0  0  0
    0.0414   12.9073   39.9623 H   0  0  0  0  0  0  0  0  0  0  0  0
    0.9736   11.6829   40.5565 H   0  0  0  0  0  0  0  0  0  0  0  0
   -1.3438   15.3781   46.9538 H   0  0  0  0  0  0  0  0  0  0  0  0
   -2.5225   16.2227   45.8104 H   0  0  0  0  0  0  0  0  0  0  0  0
    2.6011   19.6823   38.2477 H   0  0  0  0  0  0  0  0  0  0  0  0
    2.6641   14.5384   35.3761 H   0  0  0  0  0  0  0  0  0  0  0  0
    1.3532   15.2608   36.4427 H   0  0  0  0  0  0  0  0  0  0  0  0
    5.0166   18.2564   38.7173 H   0  0  0  0  0  0  0  0  0  0  0  0
    3.6464   18.9999   39.7778 H   0  0  0  0  0  0  0  0  0  0  0  0
    0.8281   12.9447   44.2051 H   0  0  0  0  0  0  0  0  0  0  0  0
   -0.7326   12.4129   43.5149 H   0  0  0  0  0  0  0  0  0  0  0  0
    1.0511   12.8171   36.0016 H   0  0  0  0  0  0  0  0  0  0  0  0
    2.6164   12.5350   36.8827 H   0  0  0  0  0  0  0  0  0  0  0  0
    0.3753   15.2174   42.6052 H   0  0  0  0  0  0  0  0  0  0  0  0
   -0.6303   14.0010   41.6591 H   0  0  0  0  0  0  0  0  0  0  0  0
    2.9403   18.3299   40.7865 H   0  0  0  0  0  0  0  0  0  0  0  0
    4.0976   13.5795   38.0517 H   0  0  0  0  0  0  0  0  0  0  0  0
    4.8780   14.3187   36.6065 H   0  0  0  0  0  0  0  0  0  0  0  0
   -2.1846   13.4173   46.0601 H   0  0  0  0  0  0  0  0  0  0  0  0
    2.9687   14.9292   42.0859 H   0  0  0  0  0  0  0  0  0  0  0  0
    2.5760   14.7523   40.2881 H   0  0  0  0  0  0  0  0  0  0  0  0
   -1.8509   18.0568   47.0652 H   0  0  0  0  0  0  0  0  0  0  0  0
   -0.1983   17.3718   47.3760 H   0  0  0  0  0  0  0  0  0  0  0  0
    4.7826   20.8736   38.4396 H   0  0  0  0  0  0  0  0  0  0  0  0
   -0.0660   20.9345   43.0221 H   0  0  0  0  0  0  0  0  0  0  0  0
    3.2176   11.4027   40.3646 H   0  0  0  0  0  0  0  0  0  0  0  0
    4.0603   12.4835   39.1550 H   0  0  0  0  0  0  0  0  0  0  0  0
   -0.0882   13.3671   38.2056 H   0  0  0  0  0  0  0  0  0  0  0  0
    4.4016   18.9083   36.0037 H   0  0  0  0  0  0  0  0  0  0  0  0
    2.5195   18.9144   36.1720 H   0  0  0  0  0  0  0  0  0  0  0  0
    4.8801   15.1182   39.4259 H   0  0  0  0  0  0  0  0  0  0  0  0
    6.1681   15.1737   38.1750 H   0  0  0  0  0  0  0  0  0  0  0  0
    4.8622   16.4072   38.1750 H   0  0  0  0  0  0  0  0  0  0  0  0
    1.2434   22.3155   41.2684 H   0  0  0  0  0  0  0  0  0  0  0  0
    2.3595   17.2480   39.6412 H   0  0  0  0  0  0  0  0  0  0  0  0
    3.9903   16.4400   39.5288 H   0  0  0  0  0  0  0  0  0  0  0  0
    1.6529   16.9732   42.5684 H   0  0  0  0  0  0  0  0  0  0  0  0
    0.2268   19.0413   46.0713 H   0  0  0  0  0  0  0  0  0  0  0  0
   -1.3923   18.3903   44.9928 H   0  0  0  0  0  0  0  0  0  0  0  0
  1 22  1  0
  1 34  1  0
  3 32  1  0
  3  8  1  0
  4 30  1  0
  4 10  1  0
  5 25  1  0
  6 18  1  0
  7 15  2  3
  8 20  1  0
  8 35  1  0
  9 15  1  0
  9 24  1  0
 10  6  1  0
 11 26  1  0
 12 27  1  0
 12 14  1  0
 13 17  1  0
 13 20  1  0
 14 35  1  0
 15 11  1  0
 16  9  1  0
 17 31  1  0
 18 16  1  0
 19  1  2  0
 20 23  1  0
 21  2  2  0
 21 37  1  0
 22 29  2  0
 23 33  1  0
 25  6  1  0
 29 28  1  0
 29 36  1  0
 30  5  1  0
 31  4  2  3
 32 12  1  0
 34 28  2  0
 36 21  1  0
 37 26  1  0
  3 38  1  0
  3 39  1  0
  5 40  1  0
  5 41  1  0
  6 42  1  0
  7 43  1  0
  7 44  1  0
  8 45  1  0
  9 46  1  0
 10 47  1  0
 10 48  1  0
 11 49  1  0
 11 50  1  0
 12 51  1  0
 13 52  1  0
 13 53  1  0
 14 54  1  0
 14 55  1  0
 16 56  1  0
 16 57  1  0
 17 58  1  0
 17 59  1  0
 18 60  1  0
 18 61  1  0
 22 62  1  0
 23 63  1  0
 23 64  1  0
 24 65  1  0
 25 66  1  0
 25 67  1  0
 26 68  1  0
 26 69  1  0
 27 70  1  0
 28 71  1  0
 30 72  1  0
 30 73  1  0
 31 74  1  0
 32 75  1  0
 32 76  1  0
 33 77  1  0
 33 78  1  0
 33 79  1  0
 34 80  1  0
 35 81  1  0
 35 82  1  0
 36 83  1  0
 37 84  1  0
 37 85  1  0
M  CHG  1  10   1
M  END
>  <mol_id>  (44) 
2026-09-18-5lvo-s0-n100-0046

>  <rmsd_to_ref>  (44) 


$$$$

     RDKit          3D

 44 46  0  0  0  0  0  0  0  0999 V2000
    3.9130   13.5680   37.6230 O   0  0  0  0  0  0  0  0  0  0  0  0
    2.8070   18.0290   39.7590 C   0  0  0  0  0  0  0  0  0  0  0  0
    1.9880   19.9820   41.2710 C   0  0  0  0  0  0  0  0  0  0  0  0
    0.9380   18.1890   43.1960 C   0  0  0  0  0  0  0  0  0  0  0  0
    3.3130   14.6140   38.1170 C   0  0  0  0  0  0  0  0  0  0  0  0
   -0.5840   19.1580   45.3740 C   0  0  0  0  0  0  0  0  0  0  0  0
    0.4490   17.2670   44.2220 C   0  0  0  0  0  0  0  0  0  0  0  0
   -0.7230   16.8650   46.5210 C   0  0  0  0  0  0  0  0  0  0  0  0
    5.9700   14.5600   39.8600 N   0  0  0  0  0  4  0  0  0  0  0  0
    2.1810   18.5390   41.0560 C   0  0  0  0  0  0  0  0  0  0  0  0
   -0.2720   17.7800   45.3610 C   0  0  0  0  0  0  0  0  0  0  0  0
    0.1880   13.2930   37.1340 N   0  0  0  0  0  0  0  0  0  0  0  0
    3.1010   18.9010   38.7660 N   0  0  0  0  0  0  0  0  0  0  0  0
    3.8570   20.6560   37.7900 O   0  0  0  0  0  1  0  0  0  0  0  0
    0.6850   19.6280   43.3680 C   0  0  0  0  0  0  0  0  0  0  0  0
    5.5220   15.7480   39.1670 C   0  0  0  0  0  0  0  0  0  0  0  0
   -0.1170   20.0570   44.3910 N   0  0  0  0  0  0  0  0  0  0  0  0
    2.9790   16.5080   39.3190 C   0  0  0  0  0  0  0  0  0  0  0  0
    1.9550   14.8480   38.0090 N   0  0  0  0  0  0  0  0  0  0  0  0
    1.0300   14.0370   37.4470 C   0  0  0  0  0  0  0  0  0  0  0  0
    1.7100   15.9700   38.6820 C   0  0  0  0  0  0  0  0  0  0  0  0
    3.9850   15.7230   38.8460 C   0  0  0  0  0  0  0  0  0  0  0  0
    1.2480   20.5560   42.3550 C   0  0  0  0  0  0  0  0  0  0  0  0
    1.6710   17.7170   42.0040 C   0  0  0  0  0  0  0  0  0  0  0  0
    0.5490   16.3980   38.9960 O   0  0  0  0  0  0  0  0  0  0  0  0
    3.6060   19.4400   37.7150 C   0  0  0  0  0  0  0  0  0  0  0  0
    3.8150   18.8510   36.6770 O   0  0  0  0  0  0  0  0  0  0  0  0
    3.3151   17.8914   40.7249 H   0  0  0  0  0  0  0  0  0  0  0  0
    2.4458   20.6707   40.5457 H   0  0  0  0  0  0  0  0  0  0  0  0
   -1.2178   19.5468   46.1846 H   0  0  0  0  0  0  0  0  0  0  0  0
    0.6307   16.1865   44.1248 H   0  0  0  0  0  0  0  0  0  0  0  0
   -0.4857   17.3464   47.4812 H   0  0  0  0  0  0  0  0  0  0  0  0
   -1.8078   16.6956   46.4539 H   0  0  0  0  0  0  0  0  0  0  0  0
   -0.1966   15.9015   46.4539 H   0  0  0  0  0  0  0  0  0  0  0  0
    5.9122   14.7133   40.8769 H   0  0  0  0  0  0  0  0  0  0  0  0
    5.3715   13.7636   39.5983 H   0  0  0  0  0  0  0  0  0  0  0  0
    6.9453   14.3571   39.5983 H   0  0  0  0  0  0  0  0  0  0  0  0
    2.4919   19.6781   39.0592 H   0  0  0  0  0  0  0  0  0  0  0  0
    5.7350   16.6239   39.7975 H   0  0  0  0  0  0  0  0  0  0  0  0
    6.0595   15.7943   38.2084 H   0  0  0  0  0  0  0  0  0  0  0  0
    3.4016   16.4587   40.3334 H   0  0  0  0  0  0  0  0  0  0  0  0
    4.8537   16.3483   38.5925 H   0  0  0  0  0  0  0  0  0  0  0  0
    1.1024   21.6435   42.4339 H   0  0  0  0  0  0  0  0  0  0  0  0
    1.8111   16.6332   41.8786 H   0  0  0  0  0  0  0  0  0  0  0  0
  1  5  2  0
  2 13  1  0
  2 10  1  0
  3 23  2  0
  4 15  2  0
  4  7  1  0
  5 22  1  0
  7 11  2  0
 10  3  1  0
 10 24  2  0
 11  6  1  0
 11  8  1  0
 12 20  3  0
 15 17  1  0
 16  9  1  0
 17  6  2  0
 18  2  1  0
 19  5  1  0
 19 21  1  0
 20 19  1  0
 21 25  2  0
 21 18  1  0
 22 16  1  0
 22 18  1  0
 23 15  1  0
 24  4  1  0
 26 14  1  0
 26 13  1  0
 27 26  2  0
  2 28  1  0
  3 29  1  0
  6 30  1  0
  7 31  1  0
  8 32  1  0
  8 33  1  0
  8 34  1  0
  9 35  1  0
  9 36  1  0
  9 37  1  0
 13 38  1  0
 16 39  1  0
 16 40  1  0
 18 41  1  0
 22 42  1  0
 23 43  1  0
 24 44  1  0
M  CHG  2   9   1  14  -1
M  END
>  <mol_id>  (45) 
2026-09-18-5lvo-s0-n100-0047

>  <rmsd_to_ref>  (45) 


$$$$

     RDKit          3D

 69 74  0  0  0  0  0  0  0  0999 V2000
   -1.2140   15.9590   43.2620 C   0  0  0  0  0  0  0  0  0  0  0  0
    2.7720   20.4170   39.1060 C   0  0  0  0  0  0  0  0  0  0  0  0
    5.2640   16.2430   35.1960 N   0  0  0  0  0  0  0  0  0  0  0  0
    0.8490   14.5910   43.8500 C   0  0  0  0  0  0  0  0  0  0  0  0
   -1.5050   16.4010   44.7010 C   0  0  0  0  0  0  0  0  0  0  0  0
    1.4380   15.4730   37.6250 C   0  0  0  0  0  0  0  0  0  0  0  0
    1.8680   19.6030   41.3950 C   0  0  0  0  0  0  0  0  0  0  0  0
    3.3960   16.4620   36.3390 C   0  0  0  0  0  0  0  0  0  0  0  0
    3.8100   19.5810   38.4280 C   0  0  0  0  0  0  0  0  0  0  0  0
    0.2040   19.8880   43.6990 C   0  0  0  0  0  0  0  0  0  0  0  0
    0.9260   16.0450   43.8490 N   0  0  0  0  0  0  0  0  0  0  0  0
    3.2700   17.7580   36.2400 O   0  0  0  0  0  0  0  0  0  0  0  0
    2.9040   19.5730   40.3480 C   0  0  0  0  0  0  0  0  0  0  0  0
    4.6330   15.8940   36.1500 N   0  0  0  0  0  0  0  0  0  0  0  0
    1.9800   16.3650   43.0940 C   0  0  0  0  0  0  0  0  0  0  0  0
    0.4440   21.0400   42.7850 C   0  0  0  0  0  0  0  0  0  0  0  0
    0.5590   18.6040   43.2380 C   0  0  0  0  0  0  0  0  0  0  0  0
    2.0750   16.2580   38.9170 N   0  0  0  0  0  0  0  0  0  0  0  0
    5.3100   14.9050   37.0080 C   0  0  0  0  0  0  0  0  0  0  0  0
   -0.3660   20.1540   44.8010 O   0  0  0  0  0  0  0  0  0  0  0  0
    3.2090   17.3470   38.8060 C   0  0  0  0  0  0  0  0  0  0  0  0
   -0.5530   13.8160   44.2380 C   0  0  0  0  0  0  0  0  0  0  0  0
    4.6890   16.8600   39.1900 C   0  0  0  0  0  0  0  0  0  0  0  0
   -1.5720   14.3990   43.2200 C   0  0  0  0  0  0  0  0  0  0  0  0
    2.3080   15.4420   36.3730 C   0  0  0  0  0  0  0  0  0  0  0  0
    1.2500   20.8660   41.6340 C   0  0  0  0  0  0  0  0  0  0  0  0
    2.8120   15.7960   43.6730 O   0  0  0  0  0  0  0  0  0  0  0  0
    1.4860   18.3840   42.1930 C   0  0  0  0  0  0  0  0  0  0  0  0
    2.0790   17.1610   42.0990 N   0  0  0  0  0  0  0  0  0  0  0  0
    6.2130   16.5240   34.4560 O   0  0  0  0  0  0  0  0  0  0  0  0
    0.4630   14.7560   39.9960 C   0  0  0  0  0  0  0  0  0  0  0  0
    2.0310   15.1660   39.9660 C   0  0  0  0  0  0  0  0  0  0  0  0
   -0.2400   17.0970   43.8760 C   0  0  0  0  0  0  0  0  0  0  0  0
    3.6790   18.2860   39.6660 C   0  0  0  0  0  0  0  0  0  0  0  0
   -1.3726   15.9447   42.1736 H   0  0  0  0  0  0  0  0  0  0  0  0
    1.7793   20.3701   38.6345 H   0  0  0  0  0  0  0  0  0  0  0  0
    2.8856   21.5098   39.1607 H   0  0  0  0  0  0  0  0  0  0  0  0
    4.8332   15.5700   34.5461 H   0  0  0  0  0  0  0  0  0  0  0  0
    1.6091   14.2379   44.5624 H   0  0  0  0  0  0  0  0  0  0  0  0
    0.9776   14.3410   42.7865 H   0  0  0  0  0  0  0  0  0  0  0  0
   -2.4066   16.9914   44.9213 H   0  0  0  0  0  0  0  0  0  0  0  0
   -1.6071   15.8804   45.6646 H   0  0  0  0  0  0  0  0  0  0  0  0
    1.2411   14.4332   37.9251 H   0  0  0  0  0  0  0  0  0  0  0  0
    0.5351   16.0369   37.3478 H   0  0  0  0  0  0  0  0  0  0  0  0
    3.5214   19.2549   37.4179 H   0  0  0  0  0  0  0  0  0  0  0  0
    4.7956   20.0198   38.2133 H   0  0  0  0  0  0  0  0  0  0  0  0
    3.4487   19.9120   41.2415 H   0  0  0  0  0  0  0  0  0  0  0  0
   -0.0029   22.0211   43.0034 H   0  0  0  0  0  0  0  0  0  0  0  0
    1.3775   18.5668   43.9719 H   0  0  0  0  0  0  0  0  0  0  0  0
    5.1374   15.1571   38.0647 H   0  0  0  0  0  0  0  0  0  0  0  0
    4.9078   13.9026   36.7998 H   0  0  0  0  0  0  0  0  0  0  0  0
    6.3900   14.9172   36.7998 H   0  0  0  0  0  0  0  0  0  0  0  0
    2.6757   17.6409   37.8899 H   0  0  0  0  0  0  0  0  0  0  0  0
   -0.4499   12.7279   44.1142 H   0  0  0  0  0  0  0  0  0  0  0  0
   -0.8543   13.9662   45.2852 H   0  0  0  0  0  0  0  0  0  0  0  0
    4.8672   16.0166   39.8733 H   0  0  0  0  0  0  0  0  0  0  0  0
    5.6538   16.6227   38.7180 H   0  0  0  0  0  0  0  0  0  0  0  0
   -2.6084   14.2164   43.5404 H   0  0  0  0  0  0  0  0  0  0  0  0
   -1.5073   13.9523   42.2169 H   0  0  0  0  0  0  0  0  0  0  0  0
    1.6580   15.6065   35.5010 H   0  0  0  0  0  0  0  0  0  0  0  0
    2.8048   14.4606   36.3667 H   0  0  0  0  0  0  0  0  0  0  0  0
    1.3983   21.6980   40.9299 H   0  0  0  0  0  0  0  0  0  0  0  0
    2.5927   16.8856   41.2498 H   0  0  0  0  0  0  0  0  0  0  0  0
    7.0023   16.7577   35.0059 H   0  0  0  0  0  0  0  0  0  0  0  0
    0.1269   14.6681   41.0397 H   0  0  0  0  0  0  0  0  0  0  0  0
   -0.1282   15.5298   39.4843 H   0  0  0  0  0  0  0  0  0  0  0  0
    0.3262   13.7919   39.4843 H   0  0  0  0  0  0  0  0  0  0  0  0
    2.6582   14.3109   39.6737 H   0  0  0  0  0  0  0  0  0  0  0  0
    2.4146   15.4885   40.9452 H   0  0  0  0  0  0  0  0  0  0  0  0
  1 24  1  0
  1 33  1  0
  1  5  1  0
  2 13  1  0
  3 14  1  0
  4 22  1  0
  6 18  1  0
  7 26  1  0
  7 28  2  0
  8 25  1  0
  9  2  1  0
 10 20  2  0
 11  4  1  0
 11 33  1  0
 12  8  2  0
 13  7  1  0
 14  8  1  0
 14 19  1  0
 15 27  2  0
 15 11  1  0
 16 10  1  0
 17 28  1  0
 17 10  1  0
 17 33  1  0
 18 32  1  0
 21 18  1  0
 21 23  1  0
 21 34  1  0
 23 34  1  0
 24 22  1  0
 25  6  1  0
 26 16  2  0
 29 28  1  0
 29 15  1  0
 30  3  1  0
 32 31  1  0
 33  5  1  0
 34  9  1  0
 34 13  1  0
  1 35  1  0
  2 36  1  0
  2 37  1  0
  3 38  1  0
  4 39  1  0
  4 40  1  0
  5 41  1  0
  5 42  1  0
  6 43  1  0
  6 44  1  0
  9 45  1  0
  9 46  1  0
 13 47  1  0
 16 48  1  0
 17 49  1  0
 19 50  1  0
 19 51  1  0
 19 52  1  0
 21 53  1  0
 22 54  1  0
 22 55  1  0
 23 56  1  0
 23 57  1  0
 24 58  1  0
 24 59  1  0
 25 60  1  0
 25 61  1  0
 26 62  1  0
 29 63  1  0
 30 64  1  0
 31 65  1  0
 31 66  1  0
 31 67  1  0
 32 68  1  0
 32 69  1  0
M  END
>  <mol_id>  (46) 
2026-09-18-5lvo-s0-n100-0048

>  <rmsd_to_ref>  (46) 


$$$$

     RDKit          3D

 32 34  0  0  0  0  0  0  0  0999 V2000
    0.6680   14.0440   37.0130 C   0  0  0  0  0  0  0  0  0  0  0  0
    0.6290   14.0360   39.3780 C   0  0  0  0  0  0  0  0  0  0  0  0
    2.9420   18.5990   40.2960 C   0  0  0  0  0  0  0  0  0  0  0  0
    2.5170   17.3340   38.1670 C   0  0  0  0  0  0  0  0  0  0  0  0
    1.1020   21.4540   41.5000 S   0  0  0  0  0  0  0  0  0  0  0  0
    4.0210   17.3970   38.3770 O   0  0  0  0  0  0  0  0  0  0  0  0
    2.4020   17.0370   42.2170 N   0  0  0  0  0  0  0  0  0  0  0  0
   -0.3860   19.4090   44.7580 C   0  0  0  0  0  0  0  0  0  0  0  0
    1.0330   18.0320   43.6430 C   0  0  0  0  0  0  0  0  0  0  0  0
    2.0040   18.0720   39.3110 N   0  0  0  0  0  4  0  0  0  0  0  0
    0.2170   18.2010   44.7380 N   0  0  0  0  0  0  0  0  0  0  0  0
    0.3710   13.3910   38.1820 N   0  0  0  0  0  0  0  0  0  0  0  0
    2.2500   18.3020   41.7250 C   0  0  0  0  0  0  0  0  0  0  0  0
   -0.1450   20.3900   43.8800 N   0  0  0  0  0  0  0  0  0  0  0  0
    1.6340   16.0140   38.3170 C   0  0  0  0  0  0  0  0  0  0  0  0
    1.6740   15.0680   39.3600 N   0  0  0  0  0  0  0  0  0  0  0  0
    0.7410   20.2300   42.7610 C   0  0  0  0  0  0  0  0  0  0  0  0
    1.2540   18.9170   42.6870 C   0  0  0  0  0  0  0  0  0  0  0  0
    1.7590   16.7770   43.3070 N   0  0  0  0  0  0  0  0  0  0  0  0
    0.9940   15.4850   37.0100 C   0  0  0  0  0  0  0  0  0  0  0  0
    0.6634   13.4870   36.0644 H   0  0  0  0  0  0  0  0  0  0  0  0
    0.0786   13.7882   40.2976 H   0  0  0  0  0  0  0  0  0  0  0  0
    3.0874   19.6799   40.1531 H   0  0  0  0  0  0  0  0  0  0  0  0
    3.9362   18.1359   40.2119 H   0  0  0  0  0  0  0  0  0  0  0  0
    2.4304   17.6235   37.1093 H   0  0  0  0  0  0  0  0  0  0  0  0
    4.2187   17.4053   39.3470 H   0  0  0  0  0  0  0  0  0  0  0  0
   -1.1255   19.5998   45.5497 H   0  0  0  0  0  0  0  0  0  0  0  0
    1.4755   18.8741   38.9393 H   0  0  0  0  0  0  0  0  0  0  0  0
    1.4668   17.3675   39.8364 H   0  0  0  0  0  0  0  0  0  0  0  0
    0.6708   19.5868   42.0380 H   0  0  0  0  0  0  0  0  0  0  0  0
    1.7506   15.8905   43.8314 H   0  0  0  0  0  0  0  0  0  0  0  0
    0.7968   16.1337   36.1438 H   0  0  0  0  0  0  0  0  0  0  0  0
  1 12  2  0
  3 13  1  0
  4 15  1  0
  4  6  1  0
  4 10  1  0
  5 17  2  0
  7 19  1  0
  9 11  2  0
 10  3  1  0
 11  8  1  0
 12  2  1  0
 13  7  2  0
 14  8  2  0
 15 16  1  0
 16  2  2  0
 17 14  1  0
 18 13  1  0
 18 17  1  0
 18  9  1  0
 19  9  1  0
 20  1  1  0
 20 15  2  0
  1 21  1  0
  2 22  1  0
  3 23  1  0
  3 24  1  0
  4 25  1  0
  6 26  1  0
  8 27  1  0
 10 28  1  0
 10 29  1  0
 18 30  1  0
 19 31  1  0
 20 32  1  0
M  CHG  1  10   1
M  END
>  <mol_id>  (47) 
2026-09-18-5lvo-s0-n100-0049

>  <rmsd_to_ref>  (47) 


$$$$

     RDKit          3D

 48 50  0  0  0  0  0  0  0  0999 V2000
    3.3980   17.5610   36.5150 C   0  0  0  0  0  0  0  0  0  0  0  0
    1.8690   16.9520   38.4010 O   0  0  0  0  0  0  0  0  0  0  0  0
    4.3240   19.6940   36.6420 O   0  0  0  0  0  0  0  0  0  0  0  0
    2.0520   20.6390   41.5030 C   0  0  0  0  0  0  0  0  0  0  0  0
   -0.4460   20.1500   44.3540 N   0  0  0  0  0  0  0  0  0  0  0  0
    2.6810   19.6760   40.7180 C   0  0  0  0  0  0  0  0  0  0  0  0
   -0.0590   18.0400   43.3830 C   0  0  0  0  0  0  0  0  0  0  0  0
    3.5720   18.8490   37.4120 C   0  0  0  0  0  0  0  0  0  0  0  0
    3.8580   18.3110   38.8280 C   0  0  0  0  0  0  0  0  0  0  0  0
   -0.6820   18.8310   44.2670 C   0  0  0  0  0  0  0  0  0  0  0  0
    1.1320   20.0390   42.5150 C   0  0  0  0  0  0  0  0  0  0  0  0
    3.0910   16.5280   37.6790 C   0  0  0  0  0  0  0  0  0  0  0  0
    0.8740   15.3370   37.1900 O   0  0  0  0  0  0  0  0  0  0  0  0
    1.0050   16.1970   42.2550 C   0  0  0  0  0  0  0  0  0  0  0  0
    3.3240   18.8040   40.0660 C   0  0  0  0  0  0  0  0  0  0  0  0
   -0.1720   16.6040   43.0980 C   0  0  0  0  0  0  0  0  0  0  0  0
    0.9220   18.6100   42.4860 C   0  0  0  0  0  0  0  0  0  0  0  0
    1.5190   14.9450   42.1030 C   0  0  0  0  0  0  0  0  0  0  0  0
    0.9920   15.7160   38.5390 C   0  0  0  0  0  0  0  0  0  0  0  0
    5.2830   16.5280   39.0370 C   0  0  0  0  0  0  0  0  0  0  0  0
    3.9120   16.7760   38.8420 C   0  0  0  0  0  0  0  0  0  0  0  0
    0.4140   20.7760   43.4330 C   0  0  0  0  0  0  0  0  0  0  0  0
    1.5410   17.4450   41.8310 O   0  0  0  0  0  0  0  0  0  0  0  0
    2.5604   17.6545   35.8081 H   0  0  0  0  0  0  0  0  0  0  0  0
    4.2426   17.3116   35.8559 H   0  0  0  0  0  0  0  0  0  0  0  0
    4.8545   20.2901   37.2279 H   0  0  0  0  0  0  0  0  0  0  0  0
    1.4703   21.3038   40.8475 H   0  0  0  0  0  0  0  0  0  0  0  0
    2.8335   21.1903   42.0465 H   0  0  0  0  0  0  0  0  0  0  0  0
    1.8081   19.0108   40.7926 H   0  0  0  0  0  0  0  0  0  0  0  0
    3.1565   20.4706   40.1243 H   0  0  0  0  0  0  0  0  0  0  0  0
    2.7701   19.5510   37.6842 H   0  0  0  0  0  0  0  0  0  0  0  0
    4.8036   18.8666   38.9132 H   0  0  0  0  0  0  0  0  0  0  0  0
   -1.4175   18.3811   44.9500 H   0  0  0  0  0  0  0  0  0  0  0  0
    3.1470   15.5468   37.1849 H   0  0  0  0  0  0  0  0  0  0  0  0
    0.5801   14.3931   37.1369 H   0  0  0  0  0  0  0  0  0  0  0  0
    2.7320   17.9213   40.3494 H   0  0  0  0  0  0  0  0  0  0  0  0
    4.2298   19.4165   40.1856 H   0  0  0  0  0  0  0  0  0  0  0  0
   -1.1066   16.4052   42.5530 H   0  0  0  0  0  0  0  0  0  0  0  0
   -0.1829   16.0306   44.0366 H   0  0  0  0  0  0  0  0  0  0  0  0
    2.3901   14.7835   41.4510 H   0  0  0  0  0  0  0  0  0  0  0  0
    1.0631   14.0953   42.6322 H   0  0  0  0  0  0  0  0  0  0  0  0
    1.4816   14.9351   39.1394 H   0  0  0  0  0  0  0  0  0  0  0  0
    0.0350   15.8868   39.0537 H   0  0  0  0  0  0  0  0  0  0  0  0
    5.4989   16.4890   40.1149 H   0  0  0  0  0  0  0  0  0  0  0  0
    5.5512   15.5668   38.5743 H   0  0  0  0  0  0  0  0  0  0  0  0
    5.8709   17.3344   38.5743 H   0  0  0  0  0  0  0  0  0  0  0  0
    3.5073   16.0659   39.5782 H   0  0  0  0  0  0  0  0  0  0  0  0
    0.5152   21.8713   43.4455 H   0  0  0  0  0  0  0  0  0  0  0  0
  1  8  1  0
  1 12  1  0
  2 19  1  0
  4 11  1  0
  6  4  1  0
  7 10  1  0
  8  3  1  0
  8  9  1  0
  9 21  1  0
  9 15  1  0
 10  5  2  0
 11 22  2  0
 12  2  1  0
 12 21  1  0
 13 19  1  0
 14 16  1  0
 15  6  1  0
 16  7  1  0
 17 11  1  0
 17  7  2  0
 18 14  2  3
 21 20  1  0
 22  5  1  0
 23 14  1  0
 23 17  1  0
  1 24  1  0
  1 25  1  0
  3 26  1  0
  4 27  1  0
  4 28  1  0
  6 29  1  0
  6 30  1  0
  8 31  1  0
  9 32  1  0
 10 33  1  0
 12 34  1  0
 13 35  1  0
 15 36  1  0
 15 37  1  0
 16 38  1  0
 16 39  1  0
 18 40  1  0
 18 41  1  0
 19 42  1  0
 19 43  1  0
 20 44  1  0
 20 45  1  0
 20 46  1  0
 21 47  1  0
 22 48  1  0
M  END
>  <mol_id>  (48) 
2026-09-18-5lvo-s0-n100-0050

>  <rmsd_to_ref>  (48) 


$$$$

     RDKit          3D

 60 63  0  0  0  0  0  0  0  0999 V2000
    3.1440   14.2920   40.7730 C   0  0  0  0  0  0  0  0  0  0  0  0
    1.2810   13.1610   38.8110 C   0  0  0  0  0  0  0  0  0  0  0  0
   -1.1730   15.3560   42.8790 C   0  0  0  0  0  0  0  0  0  0  0  0
    3.7620   19.4440   37.4460 C   0  0  0  0  0  0  0  0  0  0  0  0
    1.1370   20.0220   43.1220 O   0  0  0  0  0  0  0  0  0  0  0  0
    1.9540   13.9130   42.7280 O   0  0  0  0  0  0  0  0  0  0  0  0
    4.3110   14.8690   41.4000 O   0  0  0  0  0  0  0  0  0  0  0  0
    0.7930   13.2460   36.4440 O   0  0  0  0  0  0  0  0  0  0  0  0
    1.8440   18.2910   41.7610 C   0  0  0  0  0  0  0  0  0  0  0  0
    2.5320   21.1830   38.7570 C   0  0  0  0  0  0  0  0  0  0  0  0
    3.8000   18.5910   38.6530 C   0  0  0  0  0  0  0  0  0  0  0  0
    0.0070   15.3610   43.6040 C   0  0  0  0  0  0  0  0  0  0  0  0
   -1.0680   15.9110   44.1360 C   0  0  0  0  0  0  0  0  0  0  0  0
    2.5710   15.5600   38.6920 C   0  0  0  0  0  0  0  0  0  0  0  0
    1.9380   20.7740   41.0950 C   0  0  0  0  0  0  0  0  0  0  0  0
    2.6600   13.1680   41.6990 C   0  0  0  0  0  0  0  0  0  0  0  0
    2.5260   20.3410   39.8110 C   0  0  0  0  0  0  0  0  0  0  0  0
    3.1220   20.7450   37.5220 C   0  0  0  0  0  0  0  0  0  0  0  0
    1.4420   13.8240   37.4230 C   0  0  0  0  0  0  0  0  0  0  0  0
    2.7250   17.9820   40.7150 C   0  0  0  0  0  0  0  0  0  0  0  0
    3.0030   21.3640   36.3250 O   0  0  0  0  0  0  0  0  0  0  0  0
    1.1070   16.0960   43.0800 N   0  0  0  0  0  0  0  0  0  0  0  0
    0.9320   14.2390   39.8590 C   0  0  0  0  0  0  0  0  0  0  0  0
    1.0340   17.3980   42.6300 C   0  0  0  0  0  0  0  0  0  0  0  0
    4.1580   18.9510   36.3130 O   0  0  0  0  0  0  0  0  0  0  0  0
    3.0780   18.9290   39.8130 C   0  0  0  0  0  0  0  0  0  0  0  0
    1.7040   19.7660   42.0730 C   0  0  0  0  0  0  0  0  0  0  0  0
    1.4350   15.3050   37.6600 C   0  0  0  0  0  0  0  0  0  0  0  0
    2.3300   15.2460   43.1070 C   0  0  0  0  0  0  0  0  0  0  0  0
    2.0740   14.9490   39.9540 N   0  0  0  0  0  0  0  0  0  0  0  0
    2.2226   12.6670   39.0928 H   0  0  0  0  0  0  0  0  0  0  0  0
    0.4736   12.4151   38.7695 H   0  0  0  0  0  0  0  0  0  0  0  0
   -1.2864   15.9982   41.9932 H   0  0  0  0  0  0  0  0  0  0  0  0
   -1.8056   14.5969   42.3958 H   0  0  0  0  0  0  0  0  0  0  0  0
    0.1081   12.6361   36.8169 H   0  0  0  0  0  0  0  0  0  0  0  0
    2.6822   18.2206   42.4699 H   0  0  0  0  0  0  0  0  0  0  0  0
    2.0927   22.1879   38.8415 H   0  0  0  0  0  0  0  0  0  0  0  0
    4.4054   17.6726   38.6443 H   0  0  0  0  0  0  0  0  0  0  0  0
    0.7198   14.6194   43.9937 H   0  0  0  0  0  0  0  0  0  0  0  0
   -1.1191   17.0033   44.2556 H   0  0  0  0  0  0  0  0  0  0  0  0
   -1.6111   15.7749   45.0829 H   0  0  0  0  0  0  0  0  0  0  0  0
    2.7416   16.6387   38.8234 H   0  0  0  0  0  0  0  0  0  0  0  0
    3.5315   15.1311   38.3703 H   0  0  0  0  0  0  0  0  0  0  0  0
    0.9721   21.2513   40.8731 H   0  0  0  0  0  0  0  0  0  0  0  0
    2.6917   21.4374   41.5442 H   0  0  0  0  0  0  0  0  0  0  0  0
    1.9861   12.4769   41.1715 H   0  0  0  0  0  0  0  0  0  0  0  0
    3.4688   12.5309   42.0863 H   0  0  0  0  0  0  0  0  0  0  0  0
    2.4081   13.6367   36.9314 H   0  0  0  0  0  0  0  0  0  0  0  0
    3.6562   17.6276   41.1811 H   0  0  0  0  0  0  0  0  0  0  0  0
    2.1504   17.2651   40.1101 H   0  0  0  0  0  0  0  0  0  0  0  0
    2.5798   22.2573   36.2696 H   0  0  0  0  0  0  0  0  0  0  0  0
    0.1006   14.8714   39.5142 H   0  0  0  0  0  0  0  0  0  0  0  0
    0.6011   13.8187   40.8202 H   0  0  0  0  0  0  0  0  0  0  0  0
    0.9851   17.9677   43.5697 H   0  0  0  0  0  0  0  0  0  0  0  0
    0.3020   17.1666   41.8422 H   0  0  0  0  0  0  0  0  0  0  0  0
    4.5922   18.0617   36.2848 H   0  0  0  0  0  0  0  0  0  0  0  0
    1.6362   15.8462   36.7237 H   0  0  0  0  0  0  0  0  0  0  0  0
    0.4599   15.6573   38.0275 H   0  0  0  0  0  0  0  0  0  0  0  0
    2.7572   15.2391   44.1206 H   0  0  0  0  0  0  0  0  0  0  0  0
    3.0851   15.6417   42.4118 H   0  0  0  0  0  0  0  0  0  0  0  0
  1  7  2  0
  1 16  1  0
  2 23  1  0
  3 12  1  0
  3 13  1  0
  4 18  2  0
  4 11  1  0
  6 29  1  0
  9 27  1  0
  9 24  1  0
 10 17  2  0
 11 26  2  0
 12 13  1  0
 14 30  1  0
 15 27  1  0
 16  6  1  0
 17 26  1  0
 17 15  1  0
 18 10  1  0
 19  8  1  0
 19 28  1  0
 19  2  1  0
 20  9  1  0
 21 18  1  0
 22 29  1  0
 22 12  1  0
 23 30  1  0
 24 22  1  0
 25  4  1  0
 26 20  1  0
 27  5  2  0
 28 14  1  0
 30  1  1  0
  2 31  1  0
  2 32  1  0
  3 33  1  0
  3 34  1  0
  8 35  1  0
  9 36  1  0
 10 37  1  0
 11 38  1  0
 12 39  1  0
 13 40  1  0
 13 41  1  0
 14 42  1  0
 14 43  1  0
 15 44  1  0
 15 45  1  0
 16 46  1  0
 16 47  1  0
 19 48  1  0
 20 49  1  0
 20 50  1  0
 21 51  1  0
 23 52  1  0
 23 53  1  0
 24 54  1  0
 24 55  1  0
 25 56  1  0
 28 57  1  0
 28 58  1  0
 29 59  1  0
 29 60  1  0
M  END
>  <mol_id>  (49) 
2026-09-18-5lvo-s0-n100-0052

>  <rmsd_to_ref>  (49) 


$$$$

     RDKit          3D

 46 49  0  0  0  0  0  0  0  0999 V2000
    0.2950   17.0920   44.1070 S   0  0  0  0  0  0  0  0  0  0  0  0
    2.3440   18.6670   41.4420 C   0  0  0  0  0  0  0  0  0  0  0  0
    5.1620   16.7760   39.2210 C   0  0  0  0  0  0  0  0  0  0  0  0
    4.1000   19.6840   38.8720 O   0  0  0  0  0  0  0  0  0  0  0  0
    2.8450   15.7810   38.6220 C   0  0  0  0  0  0  0  0  0  0  0  0
    4.6800   16.0030   38.3090 C   0  0  0  0  0  0  0  0  0  0  0  0
    1.9240   17.4790   38.8050 C   0  0  0  0  0  0  0  0  0  0  0  0
    0.2630   20.1730   43.9710 C   0  0  0  0  0  0  0  0  0  0  0  0
    2.3980   17.2130   41.6270 C   0  0  0  0  0  0  0  0  0  0  0  0
    3.1570   17.8220   39.0350 N   0  0  0  0  0  0  0  0  0  0  0  0
   -0.4740   19.3720   44.7270 N   0  0  0  0  0  0  0  0  0  0  0  0
    2.0720   15.9360   38.8000 C   0  0  0  0  0  0  0  0  0  0  0  0
    1.1810   20.4170   42.9310 N   0  0  0  0  0  0  0  0  0  0  0  0
   -0.5270   18.0100   44.9800 C   0  0  0  0  0  0  0  0  0  0  0  0
    2.7580   20.5760   40.8290 O   0  0  0  0  0  0  0  0  0  0  0  0
    3.3470   19.0120   39.4750 C   0  0  0  0  0  0  0  0  0  0  0  0
    2.7960   19.5010   40.5560 C   0  0  0  0  0  0  0  0  0  0  0  0
    3.7910   16.8260   39.0630 C   0  0  0  0  0  0  0  0  0  0  0  0
    1.1260   12.7740   36.8100 C   0  0  0  0  0  0  0  0  0  0  0  0
    1.9740   13.9980   36.8580 C   0  0  0  0  0  0  0  0  0  0  0  0
    1.0820   17.8970   43.1080 C   0  0  0  0  0  0  0  0  0  0  0  0
    1.5190   19.1630   42.5420 C   0  0  0  0  0  0  0  0  0  0  0  0
    0.8320   13.8950   37.6380 C   0  0  0  0  0  0  0  0  0  0  0  0
    5.5814   16.3312   40.1355 H   0  0  0  0  0  0  0  0  0  0  0  0
    5.9468   17.5468   39.2135 H   0  0  0  0  0  0  0  0  0  0  0  0
    2.7261   16.2958   37.6572 H   0  0  0  0  0  0  0  0  0  0  0  0
    5.3101   15.4601   37.5891 H   0  0  0  0  0  0  0  0  0  0  0  0
    1.2490   17.8220   39.6029 H   0  0  0  0  0  0  0  0  0  0  0  0
    1.4866   17.9060   37.8905 H   0  0  0  0  0  0  0  0  0  0  0  0
    0.0403   21.1768   44.3619 H   0  0  0  0  0  0  0  0  0  0  0  0
    2.4066   16.9802   42.7021 H   0  0  0  0  0  0  0  0  0  0  0  0
    1.5164   16.7508   41.1588 H   0  0  0  0  0  0  0  0  0  0  0  0
    3.3115   16.8175   41.1588 H   0  0  0  0  0  0  0  0  0  0  0  0
    1.4107   15.4930   38.0407 H   0  0  0  0  0  0  0  0  0  0  0  0
    1.7933   15.5059   39.7733 H   0  0  0  0  0  0  0  0  0  0  0  0
    1.5116   21.3192   42.5601 H   0  0  0  0  0  0  0  0  0  0  0  0
   -1.5778   17.7001   44.8815 H   0  0  0  0  0  0  0  0  0  0  0  0
   -0.0875   17.9005   45.9824 H   0  0  0  0  0  0  0  0  0  0  0  0
    0.5095   12.5557   35.9255 H   0  0  0  0  0  0  0  0  0  0  0  0
    1.2773   11.6943   36.9559 H   0  0  0  0  0  0  0  0  0  0  0  0
    2.9682   13.9628   37.3274 H   0  0  0  0  0  0  0  0  0  0  0  0
    2.3528   14.7169   36.1166 H   0  0  0  0  0  0  0  0  0  0  0  0
    2.0742   17.4671   43.3100 H   0  0  0  0  0  0  0  0  0  0  0  0
    0.1719   17.9706   42.4946 H   0  0  0  0  0  0  0  0  0  0  0  0
   -0.0392   14.5243   37.4032 H   0  0  0  0  0  0  0  0  0  0  0  0
    0.6430   14.0068   38.7159 H   0  0  0  0  0  0  0  0  0  0  0  0
  1 14  1  0
  2  9  1  0
  2 22  2  3
  4 16  2  0
  5 12  1  0
  5 18  1  0
  6  5  1  0
  6 18  1  0
  6  3  1  0
  7 10  1  0
  8 11  2  0
 10 18  1  0
 10 16  1  0
 11 14  1  0
 12  7  1  0
 13  8  1  0
 16 17  1  0
 17 15  2  0
 17  2  1  0
 18  3  1  0
 19 20  1  0
 19 23  1  0
 20 23  1  0
 21  1  1  0
 22 13  1  0
 22 21  1  0
  3 24  1  0
  3 25  1  0
  5 26  1  0
  6 27  1  0
  7 28  1  0
  7 29  1  0
  8 30  1  0
  9 31  1  0
  9 32  1  0
  9 33  1  0
 12 34  1  0
 12 35  1  0
 13 36  1  0
 14 37  1  0
 14 38  1  0
 19 39  1  0
 19 40  1  0
 20 41  1  0
 20 42  1  0
 21 43  1  0
 21 44  1  0
 23 45  1  0
 23 46  1  0
M  END
>  <mol_id>  (50) 
2026-09-18-5lvo-s0-n100-0053

>  <rmsd_to_ref>  (50) 


$$$$

     RDKit          3D

 58 59  0  0  0  0  0  0  0  0999 V2000
    0.2010   16.9720   44.3860 C   0  0  0  0  0  0  0  0  0  0  0  0
    4.0170   19.9230   37.5690 C   0  0  0  0  0  0  0  0  0  0  0  0
    1.8840   18.5870   41.7810 C   0  0  0  0  0  0  0  0  0  0  0  0
    3.3870   19.4870   40.2870 C   0  0  0  0  0  0  0  0  0  0  0  0
    1.4650   12.6240   35.7190 O   0  0  0  0  0  0  0  0  0  0  0  0
    3.8290   20.2700   36.3180 N   0  0  0  0  0  0  0  0  0  0  0  0
    0.2110   19.6100   43.5590 C   0  0  0  0  0  0  0  0  0  0  0  0
    2.9350   17.0460   40.1220 C   0  0  0  0  0  0  0  0  0  0  0  0
    4.5670   20.7490   38.3420 O   0  0  0  0  0  0  0  0  0  0  0  0
    0.0510   20.8680   43.0910 N   0  0  0  0  0  4  0  0  0  0  0  0
    1.7520   14.5960   37.6690 C   0  0  0  0  0  0  0  0  0  0  0  0
    2.2840   17.0750   41.2900 C   0  0  0  0  0  0  0  0  0  0  0  0
    3.2420   17.7240   37.0620 C   0  0  0  0  0  0  0  0  0  0  0  0
    2.6130   19.6230   41.3930 C   0  0  0  0  0  0  0  0  0  0  0  0
    2.4200   18.1100   36.2520 O   0  0  0  0  0  0  0  0  0  0  0  0
    3.2910   18.4060   39.5070 C   0  0  0  0  0  0  0  0  0  0  0  0
   -0.9390   17.2910   46.3770 C   0  0  0  0  0  0  0  0  0  0  0  0
   -0.4160   19.2660   44.7500 C   0  0  0  0  0  0  0  0  0  0  0  0
    3.5670   16.3850   37.1900 N   0  0  0  0  0  0  0  0  0  0  0  0
    3.5520   18.6830   38.1140 C   0  0  0  0  0  0  0  0  0  0  0  0
    0.9280   18.6550   42.7340 C   0  0  0  0  0  0  0  0  0  0  0  0
   -0.3470   17.9900   45.2140 C   0  0  0  0  0  0  0  0  0  0  0  0
    2.4210   15.4820   36.8580 O   0  0  0  0  0  0  0  0  0  0  0  0
    4.7180   15.7070   37.4410 C   0  0  0  0  0  0  0  0  0  0  0  0
    4.7220   14.3500   37.1830 C   0  0  0  0  0  0  0  0  0  0  0  0
    2.3500   13.1060   35.9380 C   0  0  0  0  0  0  0  0  0  0  0  0
    3.6160   13.6320   36.6780 N   0  0  0  0  0  4  0  0  0  0  0  0
    0.4150   17.4320   43.1120 C   0  0  0  0  0  0  0  0  0  0  0  0
    1.1584   16.6387   44.8129 H   0  0  0  0  0  0  0  0  0  0  0  0
   -0.5140   16.1374   44.3399 H   0  0  0  0  0  0  0  0  0  0  0  0
    4.1050   20.2791   40.0282 H   0  0  0  0  0  0  0  0  0  0  0  0
    1.0077   12.3750   36.5610 H   0  0  0  0  0  0  0  0  0  0  0  0
    4.1840   21.1742   35.9754 H   0  0  0  0  0  0  0  0  0  0  0  0
    3.3264   19.6383   35.6783 H   0  0  0  0  0  0  0  0  0  0  0  0
    3.8728   16.4918   40.2749 H   0  0  0  0  0  0  0  0  0  0  0  0
    2.2398   16.5760   39.4108 H   0  0  0  0  0  0  0  0  0  0  0  0
   -0.0321   21.5210   43.8832 H   0  0  0  0  0  0  0  0  0  0  0  0
    0.8658   21.1269   42.5166 H   0  0  0  0  0  0  0  0  0  0  0  0
   -0.8027   20.9147   42.5166 H   0  0  0  0  0  0  0  0  0  0  0  0
    1.9422   14.8479   38.7227 H   0  0  0  0  0  0  0  0  0  0  0  0
    0.6725   14.6568   37.4666 H   0  0  0  0  0  0  0  0  0  0  0  0
    2.1060   13.5744   37.4666 H   0  0  0  0  0  0  0  0  0  0  0  0
    1.3601   16.4867   41.1879 H   0  0  0  0  0  0  0  0  0  0  0  0
    2.9634   16.6587   42.0484 H   0  0  0  0  0  0  0  0  0  0  0  0
    2.5913   20.5694   41.9533 H   0  0  0  0  0  0  0  0  0  0  0  0
   -0.5591   17.7396   47.3067 H   0  0  0  0  0  0  0  0  0  0  0  0
   -2.0343   17.3875   46.3442 H   0  0  0  0  0  0  0  0  0  0  0  0
   -0.6635   16.2266   46.3442 H   0  0  0  0  0  0  0  0  0  0  0  0
   -0.9695   20.0277   45.3188 H   0  0  0  0  0  0  0  0  0  0  0  0
   -0.1015   18.9283   45.7330 H   0  0  0  0  0  0  0  0  0  0  0  0
    5.6096   16.2179   37.8334 H   0  0  0  0  0  0  0  0  0  0  0  0
    5.6482   13.7917   37.3843 H   0  0  0  0  0  0  0  0  0  0  0  0
    2.9080   12.6639   35.0995 H   0  0  0  0  0  0  0  0  0  0  0  0
    1.7618   13.7833   36.5746 H   0  0  0  0  0  0  0  0  0  0  0  0
    3.2115   13.4756   37.6122 H   0  0  0  0  0  0  0  0  0  0  0  0
    4.1014   13.6102   35.7698 H   0  0  0  0  0  0  0  0  0  0  0  0
   -0.5701   17.3787   42.6255 H   0  0  0  0  0  0  0  0  0  0  0  0
    1.2725   16.7974   42.8437 H   0  0  0  0  0  0  0  0  0  0  0  0
  1 22  1  0
  2 20  1  0
  2  9  2  0
  3 21  2  3
  4 14  2  0
  5 26  1  0
  6  2  1  0
  7 18  2  0
  8 12  1  0
 10  7  1  0
 12  3  1  0
 13 19  1  0
 13 20  1  0
 14  3  1  0
 15 13  2  0
 16  8  1  0
 16  4  1  0
 18 22  1  0
 19 24  1  0
 20 16  2  3
 21 28  1  0
 21  7  1  0
 22 17  1  0
 23 19  1  0
 23 11  1  0
 25 24  2  3
 26 27  1  0
 27 25  1  0
 28  1  1  0
  1 29  1  0
  1 30  1  0
  4 31  1  0
  5 32  1  0
  6 33  1  0
  6 34  1  0
  8 35  1  0
  8 36  1  0
 10 37  1  0
 10 38  1  0
 10 39  1  0
 11 40  1  0
 11 41  1  0
 11 42  1  0
 12 43  1  0
 12 44  1  0
 14 45  1  0
 17 46  1  0
 17 47  1  0
 17 48  1  0
 18 49  1  0
 22 50  1  0
 24 51  1  0
 25 52  1  0
 26 53  1  0
 26 54  1  0
 27 55  1  0
 27 56  1  0
 28 57  1  0
 28 58  1  0
M  CHG  2  10   1  27   1
M  END
>  <mol_id>  (51) 
2026-09-18-5lvo-s0-n100-0054

>  <rmsd_to_ref>  (51) 


$$$$

     RDKit          3D

 50 50  0  0  0  0  0  0  0  0999 V2000
    1.1190   17.4780   43.0820 C   0  0  0  0  0  0  0  0  0  0  0  0
    3.9800   17.4700   37.3940 C   0  0  0  0  0  0  0  0  0  0  0  0
    2.3540   15.2820   36.5520 O   0  0  0  0  0  0  0  0  0  0  0  0
    1.5990   19.5810   41.8000 C   0  0  0  0  0  0  0  0  0  0  0  0
    2.4570   17.8760   40.4170 C   0  0  0  0  0  0  0  0  0  0  0  0
    1.7040   18.1440   41.9670 C   0  0  0  0  0  0  0  0  0  0  0  0
    2.7920   16.5910   39.4250 C   0  0  0  0  0  0  0  0  0  0  0  0
    3.2710   18.4590   37.4100 N   0  0  0  0  0  0  0  0  0  0  0  0
    5.2910   15.7800   38.5930 O   0  0  0  0  0  0  0  0  0  0  0  0
    0.9520   21.5590   42.6650 N   0  0  0  0  0  4  0  0  0  0  0  0
    3.9930   20.5740   37.9760 O   0  0  0  0  0  1  0  0  0  0  0  0
    0.2640   19.6650   43.8860 C   0  0  0  0  0  0  0  0  0  0  0  0
    3.5210   20.1110   35.9550 O   0  0  0  0  0  0  0  0  0  0  0  0
    0.2260   15.1560   42.7690 C   0  0  0  0  0  0  0  0  0  0  0  0
    3.6060   19.7170   37.0820 C   0  0  0  0  0  0  0  0  0  0  0  0
    3.1100   18.9340   40.3520 O   0  0  0  0  0  0  0  0  0  0  0  0
    4.2230   16.8510   38.7810 C   0  0  0  0  0  0  0  0  0  0  0  0
    1.6490   14.7480   37.6960 P   0  0  0  0  0  5  0  0  0  0  0  0
    1.8210   15.7740   38.9630 O   0  0  0  0  0  0  0  0  0  0  0  0
    0.9790   20.2990   42.7560 C   0  0  0  0  0  0  0  0  0  0  0  0
    1.3280   16.0170   43.4640 C   0  0  0  0  0  0  0  0  0  0  0  0
   -0.3750   20.3370   44.7220 O   0  0  0  0  0  0  0  0  0  0  0  0
    0.2570   18.2640   43.9140 C   0  0  0  0  0  0  0  0  0  0  0  0
    2.7160   15.4080   43.2600 C   0  0  0  0  0  0  0  0  0  0  0  0
    2.1540   13.1480   38.0980 O   0  0  0  0  0  0  0  0  0  0  0  0
    0.1220   14.6610   37.5510 N   0  0  0  0  0  0  0  0  0  0  0  0
    0.2580   17.1922   42.4599 H   0  0  0  0  0  0  0  0  0  0  0  0
    3.5018   16.7121   36.7561 H   0  0  0  0  0  0  0  0  0  0  0  0
    4.9611   17.7883   37.0116 H   0  0  0  0  0  0  0  0  0  0  0  0
    2.0174   20.0745   40.9104 H   0  0  0  0  0  0  0  0  0  0  0  0
    0.7127   18.0181   41.5072 H   0  0  0  0  0  0  0  0  0  0  0  0
    2.8565   15.5877   39.8714 H   0  0  0  0  0  0  0  0  0  0  0  0
    2.2969   18.3134   37.7114 H   0  0  0  0  0  0  0  0  0  0  0  0
    5.6035   15.4666   39.4785 H   0  0  0  0  0  0  0  0  0  0  0  0
    0.9432   21.9713   43.6088 H   0  0  0  0  0  0  0  0  0  0  0  0
    1.7862   21.8844   42.1560 H   0  0  0  0  0  0  0  0  0  0  0  0
    0.1046   21.8484   42.1560 H   0  0  0  0  0  0  0  0  0  0  0  0
   -0.3964   14.6697   43.5345 H   0  0  0  0  0  0  0  0  0  0  0  0
   -0.4039   15.8037   42.1415 H   0  0  0  0  0  0  0  0  0  0  0  0
    0.7021   14.3882   42.1415 H   0  0  0  0  0  0  0  0  0  0  0  0
    4.6834   17.4492   39.5811 H   0  0  0  0  0  0  0  0  0  0  0  0
    1.2423   16.0054   44.5606 H   0  0  0  0  0  0  0  0  0  0  0  0
   -0.7702   17.9575   43.6673 H   0  0  0  0  0  0  0  0  0  0  0  0
    0.6552   18.0540   44.9177 H   0  0  0  0  0  0  0  0  0  0  0  0
    3.1754   15.2064   44.2389 H   0  0  0  0  0  0  0  0  0  0  0  0
    2.6246   14.4673   42.6972 H   0  0  0  0  0  0  0  0  0  0  0  0
    3.3463   16.1122   42.6972 H   0  0  0  0  0  0  0  0  0  0  0  0
    2.1851   13.0494   39.0826 H   0  0  0  0  0  0  0  0  0  0  0  0
   -0.3107   14.6363   38.4854 H   0  0  0  0  0  0  0  0  0  0  0  0
   -0.2213   15.4838   37.0352 H   0  0  0  0  0  0  0  0  0  0  0  0
  1 21  1  0
  1 23  1  0
  2  8  1  0
  2 17  1  0
  4  6  1  0
  4 20  2  0
  6  5  1  0
  6  1  1  0
  7 19  1  0
  7  5  1  0
 10 20  1  0
 12 23  1  0
 12 22  2  0
 13 15  2  0
 14 21  1  0
 15  8  1  0
 15 11  1  0
 16  5  2  0
 17  9  1  0
 17  7  1  0
 18  3  2  0
 18 25  1  0
 18 19  1  0
 20 12  1  0
 24 21  1  0
 26 18  1  0
  1 27  1  0
  2 28  1  0
  2 29  1  0
  4 30  1  0
  6 31  1  0
  7 32  1  0
  8 33  1  0
  9 34  1  0
 10 35  1  0
 10 36  1  0
 10 37  1  0
 14 38  1  0
 14 39  1  0
 14 40  1  0
 17 41  1  0
 21 42  1  0
 23 43  1  0
 23 44  1  0
 24 45  1  0
 24 46  1  0
 24 47  1  0
 25 48  1  0
 26 49  1  0
 26 50  1  0
M  CHG  2  10   1  11  -1
M  END
>  <mol_id>  (52) 
2026-09-18-5lvo-s0-n100-0055

>  <rmsd_to_ref>  (52) 


$$$$

     RDKit          3D

 35 34  0  0  0  0  0  0  0  0999 V2000
    1.3280   18.8200   43.3740 C   0  0  0  0  0  0  0  0  0  0  0  0
    0.6390   21.7290   42.2490 O   0  0  0  0  0  0  0  0  0  0  0  0
    1.6560   18.4170   41.0370 N   0  0  0  0  0  4  0  0  0  0  0  0
    1.5500   17.6160   43.4490 O   0  0  0  0  0  0  0  0  0  0  0  0
    1.1950   15.8540   39.0850 C   0  0  0  0  0  0  0  0  0  0  0  0
   -0.2010   14.0290   38.6530 N   0  0  0  0  0  0  0  0  0  0  0  0
    4.5130   17.4270   38.3620 O   0  0  0  0  0  0  0  0  0  0  0  0
    0.1380   14.9170   39.5080 C   0  0  0  0  0  0  0  0  0  0  0  0
    1.1310   19.7390   44.1590 O   0  0  0  0  0  1  0  0  0  0  0  0
    1.3100   20.6800   41.3690 C   0  0  0  0  0  0  0  0  0  0  0  0
    2.5240   18.4800   38.8760 N   0  0  0  0  0  0  0  0  0  0  0  0
    2.0840   16.2780   40.2190 C   0  0  0  0  0  0  0  0  0  0  0  0
    3.6040   18.2880   38.1560 C   0  0  0  0  0  0  0  0  0  0  0  0
    2.5730   17.7030   40.0730 C   0  0  0  0  0  0  0  0  0  0  0  0
    3.8530   19.0510   37.0560 N   0  0  0  0  0  0  0  0  0  0  0  0
    1.8570   19.4740   41.9160 C   0  0  0  0  0  0  0  0  0  0  0  0
   -0.3200   14.8910   37.5280 O   0  0  0  0  0  0  0  0  0  0  0  0
    0.7840   21.5022   43.2017 H   0  0  0  0  0  0  0  0  0  0  0  0
    1.3135   17.6606   41.6465 H   0  0  0  0  0  0  0  0  0  0  0  0
    1.1463   18.9595   40.3250 H   0  0  0  0  0  0  0  0  0  0  0  0
    1.8129   15.3640   38.3181 H   0  0  0  0  0  0  0  0  0  0  0  0
    0.7014   16.7566   38.6954 H   0  0  0  0  0  0  0  0  0  0  0  0
    0.5270   13.3121   38.5225 H   0  0  0  0  0  0  0  0  0  0  0  0
    0.4912   14.3970   40.4107 H   0  0  0  0  0  0  0  0  0  0  0  0
   -0.7589   15.5342   39.6647 H   0  0  0  0  0  0  0  0  0  0  0  0
    0.5573   20.3701   40.6292 H   0  0  0  0  0  0  0  0  0  0  0  0
    2.2103   21.2081   41.0218 H   0  0  0  0  0  0  0  0  0  0  0  0
    1.7482   19.1048   38.6140 H   0  0  0  0  0  0  0  0  0  0  0  0
    1.5199   16.1936   41.1596 H   0  0  0  0  0  0  0  0  0  0  0  0
    2.9660   15.6207   40.2149 H   0  0  0  0  0  0  0  0  0  0  0  0
    3.6634   17.6176   40.1899 H   0  0  0  0  0  0  0  0  0  0  0  0
    3.1891   19.7885   36.7797 H   0  0  0  0  0  0  0  0  0  0  0  0
    4.7052   18.8907   36.5002 H   0  0  0  0  0  0  0  0  0  0  0  0
    2.8761   19.8469   42.0957 H   0  0  0  0  0  0  0  0  0  0  0  0
   -0.4486   15.8224   37.8380 H   0  0  0  0  0  0  0  0  0  0  0  0
  1  4  2  0
  1  9  1  0
  3 16  1  0
  5  8  1  0
  5 12  1  0
  6  8  1  0
 10  2  1  0
 11 14  1  0
 13  7  2  0
 13 11  1  0
 14 12  1  0
 14  3  1  0
 15 13  1  0
 16 10  1  0
 16  1  1  0
 17  6  1  0
  2 18  1  0
  3 19  1  0
  3 20  1  0
  5 21  1  0
  5 22  1  0
  6 23  1  0
  8 24  1  0
  8 25  1  0
 10 26  1  0
 10 27  1  0
 11 28  1  0
 12 29  1  0
 12 30  1  0
 14 31  1  0
 15 32  1  0
 15 33  1  0
 16 34  1  0
 17 35  1  0
M  CHG  2   3   1   9  -1
M  END
>  <mol_id>  (53) 
2026-09-18-5lvo-s0-n100-0056

>  <rmsd_to_ref>  (53) 


$$$$

     RDKit          3D

 46 47  0  0  0  0  0  0  0  0999 V2000
    1.3150   16.5370   39.9590 C   0  0  0  0  0  0  0  0  0  0  0  0
    2.6000   21.1660   39.0700 C   0  0  0  0  0  0  0  0  0  0  0  0
    3.8980   17.5750   37.4610 C   0  0  0  0  0  0  0  0  0  0  0  0
    2.0720   17.9770   42.6140 C   0  0  0  0  0  0  0  0  0  0  0  0
    2.3940   16.4430   38.9720 C   0  0  0  0  0  0  0  0  0  0  0  0
   -0.0380   19.4090   44.3950 C   0  0  0  0  0  0  0  0  0  0  0  0
    0.1940   20.7100   44.3220 O   0  0  0  0  0  0  0  0  0  0  0  0
    0.2000   18.3810   44.0140 C   0  0  0  0  0  0  0  0  0  0  0  0
   -0.0780   15.1320   38.7800 C   0  0  0  0  0  0  0  0  0  0  0  0
    0.7470   17.5910   43.0320 C   0  0  0  0  0  0  0  0  0  0  0  0
    2.9760   19.9630   38.4230 C   0  0  0  0  0  0  0  0  0  0  0  0
   -0.3200   18.4580   45.1700 N   0  0  0  0  0  0  0  0  0  0  0  0
    4.1380   18.5920   36.6560 C   0  0  0  0  0  0  0  0  0  0  0  0
    0.0380   16.4140   42.6420 C   0  0  0  0  0  0  0  0  0  0  0  0
    2.5860   18.8470   39.0450 N   0  0  0  0  0  0  0  0  0  0  0  0
    4.7600   18.5000   35.4370 O   0  0  0  0  0  0  0  0  0  0  0  0
   -0.0120   15.3430   42.1940 O   0  0  0  0  0  0  0  0  0  0  0  0
    3.7100   19.9510   37.1700 C   0  0  0  0  0  0  0  0  0  0  0  0
    2.9400   17.5800   38.5230 C   0  0  0  0  0  0  0  0  0  0  0  0
    0.1990   15.5340   40.2310 C   0  0  0  0  0  0  0  0  0  0  0  0
   -0.6610   14.3920   40.1040 C   0  0  0  0  0  0  0  0  0  0  0  0
    4.6670   16.2350   37.2100 C   0  0  0  0  0  0  0  0  0  0  0  0
    0.7931   17.4733   39.7120 H   0  0  0  0  0  0  0  0  0  0  0  0
    1.9097   16.3733   40.8698 H   0  0  0  0  0  0  0  0  0  0  0  0
    2.6440   21.0253   40.1601 H   0  0  0  0  0  0  0  0  0  0  0  0
    3.2893   21.9713   38.7761 H   0  0  0  0  0  0  0  0  0  0  0  0
    1.5748   21.4354   38.7761 H   0  0  0  0  0  0  0  0  0  0  0  0
    2.6975   18.1592   43.5003 H   0  0  0  0  0  0  0  0  0  0  0  0
    2.5158   17.1708   42.0114 H   0  0  0  0  0  0  0  0  0  0  0  0
    2.0134   18.8954   42.0114 H   0  0  0  0  0  0  0  0  0  0  0  0
    3.2015   15.8504   39.4267 H   0  0  0  0  0  0  0  0  0  0  0  0
    1.9156   16.0011   38.0855 H   0  0  0  0  0  0  0  0  0  0  0  0
    1.1721   18.4157   44.5276 H   0  0  0  0  0  0  0  0  0  0  0  0
    0.7021   14.6596   38.1649 H   0  0  0  0  0  0  0  0  0  0  0  0
   -0.4796   15.6024   37.8704 H   0  0  0  0  0  0  0  0  0  0  0  0
    0.3133   18.2469   42.2628 H   0  0  0  0  0  0  0  0  0  0  0  0
   -0.6840   18.0587   46.0469 H   0  0  0  0  0  0  0  0  0  0  0  0
   -1.0070   16.6391   42.9013 H   0  0  0  0  0  0  0  0  0  0  0  0
    5.0439   17.6167   35.0915 H   0  0  0  0  0  0  0  0  0  0  0  0
    3.9423   20.8775   36.6244 H   0  0  0  0  0  0  0  0  0  0  0  0
    0.2405   15.8782   41.2749 H   0  0  0  0  0  0  0  0  0  0  0  0
   -1.7283   14.4752   40.3567 H   0  0  0  0  0  0  0  0  0  0  0  0
   -0.6514   13.3618   40.4896 H   0  0  0  0  0  0  0  0  0  0  0  0
    4.9299   15.7769   38.1749 H   0  0  0  0  0  0  0  0  0  0  0  0
    4.0268   15.5462   36.6394 H   0  0  0  0  0  0  0  0  0  0  0  0
    5.5847   16.4403   36.6394 H   0  0  0  0  0  0  0  0  0  0  0  0
  1 20  1  0
  3 19  2  0
  5  1  1  0
  6 12  1  0
  7  6  2  0
  8 10  1  0
  8  6  1  0
  8 12  1  0
  9 21  1  0
  9 20  1  0
 10  4  1  0
 11 15  2  0
 11  2  1  0
 13 18  2  0
 13  3  1  0
 14 10  1  0
 16 13  1  0
 17 14  2  0
 18 11  1  0
 19  5  1  0
 19 15  1  0
 21 20  1  0
 22  3  1  0
  1 23  1  0
  1 24  1  0
  2 25  1  0
  2 26  1  0
  2 27  1  0
  4 28  1  0
  4 29  1  0
  4 30  1  0
  5 31  1  0
  5 32  1  0
  8 33  1  0
  9 34  1  0
  9 35  1  0
 10 36  1  0
 12 37  1  0
 14 38  1  0
 16 39  1  0
 18 40  1  0
 20 41  1  0
 21 42  1  0
 21 43  1  0
 22 44  1  0
 22 45  1  0
 22 46  1  0
M  END
>  <mol_id>  (54) 
2026-09-18-5lvo-s0-n100-0057

>  <rmsd_to_ref>  (54) 


$$$$

     RDKit          3D

 47 47  0  0  0  0  0  0  0  0999 V2000
   -0.5550   15.4590   43.6650 N   0  0  0  0  0  0  0  0  0  0  0  0
    4.1040   16.2050   36.1060 O   0  0  0  0  0  0  0  0  0  0  0  0
   -0.4080   16.9440   43.9060 C   0  0  0  0  0  0  0  0  0  0  0  0
    2.4320   18.3060   40.9880 C   0  0  0  0  0  0  0  0  0  0  0  0
    3.5080   18.7400   36.9350 C   0  0  0  0  0  0  0  0  0  0  0  0
    0.9690   18.8220   42.9540 C   0  0  0  0  0  0  0  0  0  0  0  0
    3.6040   17.3270   39.0430 C   0  0  0  0  0  0  0  0  0  0  0  0
    2.6870   16.2980   36.6980 C   0  0  0  0  0  0  0  0  0  0  0  0
    1.8430   19.3250   41.9290 C   0  0  0  0  0  0  0  0  0  0  0  0
    3.3050   18.4180   39.9850 N   0  0  0  0  0  0  0  0  0  0  0  0
   -1.8550   17.4410   44.0050 N   0  0  0  0  0  4  0  0  0  0  0  0
   -1.5240   13.3020   43.7760 C   0  0  0  0  0  0  0  0  0  0  0  0
    2.9830   17.5210   37.5970 C   0  0  0  0  0  0  0  0  0  0  0  0
    2.1390   20.8050   42.0750 C   0  0  0  0  0  0  0  0  0  0  0  0
    0.5570   17.5000   42.9370 C   0  0  0  0  0  0  0  0  0  0  0  0
   -1.9170   14.9260   45.3720 O   0  0  0  0  0  0  0  0  0  0  0  0
    4.3750   16.5280   39.3770 O   0  0  0  0  0  0  0  0  0  0  0  0
    1.0770   14.5930   36.6910 O   0  0  0  0  0  0  0  0  0  0  0  0
    3.3650   20.0210   37.8310 C   0  0  0  0  0  0  0  0  0  0  0  0
    2.1550   14.9730   37.1320 C   0  0  0  0  0  0  0  0  0  0  0  0
   -1.3520   14.6470   44.3460 C   0  0  0  0  0  0  0  0  0  0  0  0
    1.9180   17.0220   41.0700 C   0  0  0  0  0  0  0  0  0  0  0  0
    3.9450   18.8460   35.8090 O   0  0  0  0  0  0  0  0  0  0  0  0
    4.4670   20.7770   37.8510 O   0  0  0  0  0  0  0  0  0  0  0  0
    1.0350   16.5900   42.0440 C   0  0  0  0  0  0  0  0  0  0  0  0
    0.0099   15.0440   42.9103 H   0  0  0  0  0  0  0  0  0  0  0  0
    4.7663   16.1615   36.8405 H   0  0  0  0  0  0  0  0  0  0  0  0
    0.0703   17.2917   44.8336 H   0  0  0  0  0  0  0  0  0  0  0  0
    0.6256   19.4914   43.7565 H   0  0  0  0  0  0  0  0  0  0  0  0
    1.7763   16.4877   36.1109 H   0  0  0  0  0  0  0  0  0  0  0  0
    3.7957   19.3154   39.8635 H   0  0  0  0  0  0  0  0  0  0  0  0
   -2.1197   17.5319   44.9962 H   0  0  0  0  0  0  0  0  0  0  0  0
   -1.9355   18.3579   43.5426 H   0  0  0  0  0  0  0  0  0  0  0  0
   -2.4819   16.7671   43.5426 H   0  0  0  0  0  0  0  0  0  0  0  0
   -1.6179   12.5681   44.5900 H   0  0  0  0  0  0  0  0  0  0  0  0
   -2.4323   13.2800   43.1559 H   0  0  0  0  0  0  0  0  0  0  0  0
   -0.6505   13.0521   43.1559 H   0  0  0  0  0  0  0  0  0  0  0  0
    1.9200   17.6961   37.8190 H   0  0  0  0  0  0  0  0  0  0  0  0
    2.1910   21.0650   43.1426 H   0  0  0  0  0  0  0  0  0  0  0  0
    3.1011   21.0357   41.5942 H   0  0  0  0  0  0  0  0  0  0  0  0
    1.3397   21.3880   41.5942 H   0  0  0  0  0  0  0  0  0  0  0  0
    2.5327   20.6270   37.4437 H   0  0  0  0  0  0  0  0  0  0  0  0
    3.1847   19.6800   38.8611 H   0  0  0  0  0  0  0  0  0  0  0  0
    2.7220   14.3472   37.8369 H   0  0  0  0  0  0  0  0  0  0  0  0
    2.2340   16.2950   40.3074 H   0  0  0  0  0  0  0  0  0  0  0  0
    4.7276   20.9558   38.7892 H   0  0  0  0  0  0  0  0  0  0  0  0
    0.7263   15.5355   42.0956 H   0  0  0  0  0  0  0  0  0  0  0  0
  1  3  1  0
  1 21  1  0
  3 11  1  0
  4 22  2  0
  4  9  1  0
  5 19  1  0
  7 17  2  0
  7 10  1  0
  8  2  1  0
  8 20  1  0
  8 13  1  0
  9 14  1  0
  9  6  2  0
 10  4  1  0
 12 21  1  0
 13  5  1  0
 13  7  1  0
 15  6  1  0
 15  3  1  0
 18 20  2  0
 19 24  1  0
 21 16  2  0
 22 25  1  0
 23  5  2  0
 25 15  2  0
  1 26  1  0
  2 27  1  0
  3 28  1  0
  6 29  1  0
  8 30  1  0
 10 31  1  0
 11 32  1  0
 11 33  1  0
 11 34  1  0
 12 35  1  0
 12 36  1  0
 12 37  1  0
 13 38  1  0
 14 39  1  0
 14 40  1  0
 14 41  1  0
 19 42  1  0
 19 43  1  0
 20 44  1  0
 22 45  1  0
 24 46  1  0
 25 47  1  0
M  CHG  1  11   1
M  END
>  <mol_id>  (55) 
2026-09-18-5lvo-s0-n100-0058

>  <rmsd_to_ref>  (55) 


$$$$

     RDKit          3D

 28 28  0  0  0  0  0  0  0  0999 V2000
    2.3250   18.4940   40.8390 C   0  0  0  0  0  0  0  0  0  0  0  0
    0.4810   18.7400   44.2130 C   0  0  0  0  0  0  0  0  0  0  0  0
    3.9550   16.7870   35.7840 O   0  0  0  0  0  0  0  0  0  0  0  0
    3.4620   17.9540   38.3950 S   0  0  0  0  0  6  0  0  0  0  0  0
    3.0500   16.5330   36.3850 C   0  0  0  0  0  0  0  0  0  0  0  0
    1.7140   18.1630   42.0300 C   0  0  0  0  0  0  0  0  0  0  0  0
    4.7920   17.1030   38.3830 O   0  0  0  0  0  0  0  0  0  0  0  0
    2.3070   15.2420   36.2480 N   0  0  0  0  0  0  0  0  0  0  0  0
    2.3370   19.7980   40.5170 C   0  0  0  0  0  0  0  0  0  0  0  0
    1.1040   20.4030   42.4810 C   0  0  0  0  0  0  0  0  0  0  0  0
   -0.0700   19.6940   44.9090 O   0  0  0  0  0  1  0  0  0  0  0  0
    2.9160   17.6370   39.9340 N   0  0  0  0  0  0  0  0  0  0  0  0
    1.1060   19.0870   42.8850 C   0  0  0  0  0  0  0  0  0  0  0  0
    3.6250   19.2610   37.9340 O   0  0  0  0  0  0  0  0  0  0  0  0
    2.4010   17.0990   37.3330 C   0  0  0  0  0  0  0  0  0  0  0  0
    0.4230   17.5320   44.5010 O   0  0  0  0  0  0  0  0  0  0  0  0
    1.7110   20.7420   41.2780 C   0  0  0  0  0  0  0  0  0  0  0  0
    1.6540   16.9290   42.4370 N   0  0  0  0  0  0  0  0  0  0  0  0
    1.4766   15.0614   36.8300 H   0  0  0  0  0  0  0  0  0  0  0  0
    2.6258   14.5336   35.5716 H   0  0  0  0  0  0  0  0  0  0  0  0
    2.8698   20.1159   39.6086 H   0  0  0  0  0  0  0  0  0  0  0  0
    0.6281   21.1760   43.1024 H   0  0  0  0  0  0  0  0  0  0  0  0
    3.0359   16.6660   40.2559 H   0  0  0  0  0  0  0  0  0  0  0  0
    1.6793   17.8075   36.9003 H   0  0  0  0  0  0  0  0  0  0  0  0
    1.8822   16.3209   37.9121 H   0  0  0  0  0  0  0  0  0  0  0  0
    1.6866   21.7866   40.9340 H   0  0  0  0  0  0  0  0  0  0  0  0
    1.1930   16.7031   43.3299 H   0  0  0  0  0  0  0  0  0  0  0  0
    2.0675   16.1778   41.8664 H   0  0  0  0  0  0  0  0  0  0  0  0
  1  6  2  0
  2 16  2  0
  2 11  1  0
  3  5  2  0
  4 12  1  0
  5 15  1  0
  6 18  1  0
  6 13  1  0
  7  4  2  0
  8  5  1  0
  9  1  1  0
  9 17  2  0
 10 13  2  0
 12  1  1  0
 13  2  1  0
 14  4  2  0
 15  4  1  0
 17 10  1  0
  8 19  1  0
  8 20  1  0
  9 21  1  0
 10 22  1  0
 12 23  1  0
 15 24  1  0
 15 25  1  0
 17 26  1  0
 18 27  1  0
 18 28  1  0
M  CHG  1  11  -1
M  END
>  <mol_id>  (56) 
2026-09-18-5lvo-s0-n100-0059

>  <rmsd_to_ref>  (56) 


$$$$

     RDKit          3D

 45 48  0  0  0  0  0  0  0  0999 V2000
    1.3920   15.5890   39.1170 C   0  0  0  0  0  0  0  0  0  0  0  0
   -1.1210   17.4800   46.1900 N   0  0  0  0  0  0  0  0  0  0  0  0
    0.9000   17.2730   42.5770 C   0  0  0  0  0  0  0  0  0  0  0  0
    2.6440   17.9050   40.6880 S   0  0  0  0  0  0  0  0  0  0  0  0
    0.1840   16.3140   44.6350 N   0  0  0  0  0  0  0  0  0  0  0  0
    4.1850   17.5340   37.0100 O   0  0  0  0  0  0  0  0  0  0  0  0
    3.4500   17.0830   39.4080 C   0  0  0  0  0  0  0  0  0  0  0  0
   -0.2650   17.4620   45.0890 C   0  0  0  0  0  0  0  0  0  0  0  0
    2.1100   14.8590   37.0530 C   0  0  0  0  0  0  0  0  0  0  0  0
   -0.1920   14.1690   37.8220 O   0  0  0  0  0  0  0  0  0  0  0  0
    4.0330   20.2600   39.2280 N   0  0  0  0  0  0  0  0  0  0  0  0
    1.5390   16.9480   41.2900 C   0  0  0  0  0  0  0  0  0  0  0  0
    1.3200   19.9650   42.5570 S   0  0  0  0  0  0  0  0  0  0  0  0
    3.2210   14.7880   37.9590 C   0  0  0  0  0  0  0  0  0  0  0  0
   -0.3750   19.9260   44.6050 N   0  0  0  0  0  0  0  0  0  0  0  0
    0.9280   15.9620   40.4040 N   0  0  0  0  0  0  0  0  0  0  0  0
    2.1620   14.1970   35.8740 O   0  0  0  0  0  0  0  0  0  0  0  0
    0.4050   16.2650   43.3680 C   0  0  0  0  0  0  0  0  0  0  0  0
   -0.0250   18.6430   44.3550 C   0  0  0  0  0  0  0  0  0  0  0  0
    4.6900   14.7610   37.8280 N   0  0  0  0  0  4  0  0  0  0  0  0
    2.6680   16.1300   38.5400 C   0  0  0  0  0  0  0  0  0  0  0  0
    3.7580   19.9440   36.9420 O   0  0  0  0  0  0  0  0  0  0  0  0
    0.7320   18.5180   43.1310 C   0  0  0  0  0  0  0  0  0  0  0  0
    0.2620   20.6700   43.6040 C   0  0  0  0  0  0  0  0  0  0  0  0
    3.8850   19.4790   38.1320 C   0  0  0  0  0  0  0  0  0  0  0  0
    0.8960   14.7190   37.9150 C   0  0  0  0  0  0  0  0  0  0  0  0
    3.8370   18.1470   38.2290 N   0  0  0  0  0  0  0  0  0  0  0  0
   -1.4768   18.3766   46.5511 H   0  0  0  0  0  0  0  0  0  0  0  0
   -1.3974   16.5967   46.6419 H   0  0  0  0  0  0  0  0  0  0  0  0
    4.6655   16.6877   37.1916 H   0  0  0  0  0  0  0  0  0  0  0  0
    4.2313   16.5660   39.9845 H   0  0  0  0  0  0  0  0  0  0  0  0
    2.1090   15.8302   36.5365 H   0  0  0  0  0  0  0  0  0  0  0  0
    4.1305   19.8288   40.1583 H   0  0  0  0  0  0  0  0  0  0  0  0
    4.0480   21.2854   39.1315 H   0  0  0  0  0  0  0  0  0  0  0  0
    2.2325   16.2679   41.8062 H   0  0  0  0  0  0  0  0  0  0  0  0
    3.3714   13.7734   38.3564 H   0  0  0  0  0  0  0  0  0  0  0  0
   -0.9767   20.2775   45.3635 H   0  0  0  0  0  0  0  0  0  0  0  0
    2.2384   13.2248   36.0445 H   0  0  0  0  0  0  0  0  0  0  0  0
    0.1727   15.3147   42.8650 H   0  0  0  0  0  0  0  0  0  0  0  0
    5.1181   14.7531   38.7648 H   0  0  0  0  0  0  0  0  0  0  0  0
    4.9734   13.9147   37.3139 H   0  0  0  0  0  0  0  0  0  0  0  0
    5.0043   15.5964   37.3139 H   0  0  0  0  0  0  0  0  0  0  0  0
    2.6383   16.9063   37.7613 H   0  0  0  0  0  0  0  0  0  0  0  0
    0.8170   21.4699   44.1160 H   0  0  0  0  0  0  0  0  0  0  0  0
   -0.5739   20.9504   42.9463 H   0  0  0  0  0  0  0  0  0  0  0  0
  1 16  2  0
  3 23  1  0
  3 18  2  0
  4 12  1  0
  5  8  2  0
  6 27  1  0
  7 27  1  0
  7  4  1  0
  8  2  1  0
  9 17  1  0
  9 26  1  0
  9 14  1  0
 10 26  2  0
 12  3  1  0
 13 23  1  0
 13 24  1  0
 14 20  1  0
 14 21  1  0
 16 12  1  0
 18  5  1  0
 19 15  1  0
 19  8  1  0
 21  1  1  0
 21  7  1  0
 22 25  2  0
 23 19  2  0
 24 15  1  0
 25 27  1  0
 25 11  1  0
 26  1  1  0
  2 28  1  0
  2 29  1  0
  6 30  1  0
  7 31  1  0
  9 32  1  0
 11 33  1  0
 11 34  1  0
 12 35  1  0
 14 36  1  0
 15 37  1  0
 17 38  1  0
 18 39  1  0
 20 40  1  0
 20 41  1  0
 20 42  1  0
 21 43  1  0
 24 44  1  0
 24 45  1  0
M  CHG  1  20   1
M  END
>  <mol_id>  (57) 
2026-09-18-5lvo-s0-n100-0060

>  <rmsd_to_ref>  (57) 


$$$$

     RDKit          3D

 27 28  0  0  0  0  0  0  0  0999 V2000
    1.6360   15.0040   37.1490 C   0  0  0  0  0  0  0  0  0  0  0  0
    1.2420   18.8700   43.3070 N   0  0  0  0  0  0  0  0  0  0  0  0
    0.7870   15.9340   39.5450 C   0  0  0  0  0  0  0  0  0  0  0  0
    2.0400   16.1890   39.1860 C   0  0  0  0  0  0  0  0  0  0  0  0
    2.4780   15.7370   37.9630 C   0  0  0  0  0  0  0  0  0  0  0  0
    2.9920   16.9720   39.9380 N   0  0  0  0  0  0  0  0  0  0  0  0
    1.0530   21.3720   41.2210 C   0  0  0  0  0  0  0  0  0  0  0  0
    1.4170   19.3740   42.2590 C   0  0  0  0  0  0  0  0  0  0  0  0
    0.8840   20.6320   42.3490 C   0  0  0  0  0  0  0  0  0  0  0  0
    2.0580   18.8710   41.1340 C   0  0  0  0  0  0  0  0  0  0  0  0
    0.4280   14.5010   37.5850 C   0  0  0  0  0  0  0  0  0  0  0  0
    2.6510   16.7240   42.1600 O   0  0  0  0  0  0  0  0  0  0  0  0
    1.6570   20.8360   40.1210 C   0  0  0  0  0  0  0  0  0  0  0  0
   -0.0870   15.1280   38.8220 C   0  0  0  0  0  0  0  0  0  0  0  0
    2.1560   19.5980   39.9820 N   0  0  0  0  0  0  0  0  0  0  0  0
    2.5750   17.4880   41.0870 C   0  0  0  0  0  0  0  0  0  0  0  0
    1.9418   14.8136   36.1097 H   0  0  0  0  0  0  0  0  0  0  0  0
    1.5651   17.9066   43.4755 H   0  0  0  0  0  0  0  0  0  0  0  0
    0.7657   19.3920   44.0564 H   0  0  0  0  0  0  0  0  0  0  0  0
    0.4158   16.3898   40.4748 H   0  0  0  0  0  0  0  0  0  0  0  0
    3.5029   15.9600   37.6316 H   0  0  0  0  0  0  0  0  0  0  0  0
    3.9523   17.1233   39.5975 H   0  0  0  0  0  0  0  0  0  0  0  0
    0.6993   22.4132   41.1948 H   0  0  0  0  0  0  0  0  0  0  0  0
    0.3695   21.0072   43.2460 H   0  0  0  0  0  0  0  0  0  0  0  0
   -0.1085   13.6994   37.0563 H   0  0  0  0  0  0  0  0  0  0  0  0
    1.7452   21.4961   39.2455 H   0  0  0  0  0  0  0  0  0  0  0  0
   -1.1216   14.9633   39.1575 H   0  0  0  0  0  0  0  0  0  0  0  0
  1 11  2  0
  1  5  1  0
  4  3  1  0
  4  6  1  0
  5  4  2  0
  6 16  1  0
  7  9  2  0
  8  9  1  0
  8  2  1  0
 10  8  2  0
 11 14  1  0
 13  7  1  0
 14  3  2  0
 15 13  2  0
 15 10  1  0
 16 10  1  0
 16 12  2  0
  1 17  1  0
  2 18  1  0
  2 19  1  0
  3 20  1  0
  5 21  1  0
  6 22  1  0
  7 23  1  0
  9 24  1  0
 11 25  1  0
 13 26  1  0
 14 27  1  0
M  END
>  <mol_id>  (58) 
2026-09-18-5lvo-s0-n100-0061

>  <rmsd_to_ref>  (58) 


$$$$

     RDKit          3D

 44 47  0  0  0  0  0  0  0  0999 V2000
    0.2620   20.5690   43.3110 N   0  0  0  0  0  0  0  0  0  0  0  0
    4.3190   18.4290   35.4300 O   0  0  0  0  0  0  0  0  0  0  0  0
    3.8030   18.7170   38.2750 C   0  0  0  0  0  0  0  0  0  0  0  0
    1.5410   15.2360   37.3920 C   0  0  0  0  0  0  0  0  0  0  0  0
    0.4860   21.4790   42.3070 C   0  0  0  0  0  0  0  0  0  0  0  0
    0.2190   15.6310   41.3720 C   0  0  0  0  0  0  0  0  0  0  0  0
    1.6950   19.6270   41.7530 C   0  0  0  0  0  0  0  0  0  0  0  0
    4.2330   17.2610   35.9780 N   0  0  0  0  0  0  0  0  0  0  0  0
   -1.3200   17.1080   44.5450 C   0  0  0  0  0  0  0  0  0  0  0  0
    0.1350   14.7030   42.6240 C   0  0  0  0  0  0  0  0  0  0  0  0
    1.4450   15.7270   38.7560 C   0  0  0  0  0  0  0  0  0  0  0  0
   -0.2060   17.9010   44.2860 C   0  0  0  0  0  0  0  0  0  0  0  0
    4.1750   19.8540   38.3010 N   0  0  0  0  0  0  0  0  0  0  0  0
    2.2700   16.8030   39.0760 C   0  0  0  0  0  0  0  0  0  0  0  0
   -0.4320   14.7690   40.3730 O   0  0  0  0  0  0  0  0  0  0  0  0
   -0.9940   17.5150   45.9320 C   0  0  0  0  0  0  0  0  0  0  0  0
    1.1150   16.6960   41.3390 N   0  0  0  0  0  0  0  0  0  0  0  0
    3.2520   16.8440   36.8360 C   0  0  0  0  0  0  0  0  0  0  0  0
   -1.2580   14.3460   42.7520 O   0  0  0  0  0  0  0  0  0  0  0  0
    2.4410   15.8150   36.5000 C   0  0  0  0  0  0  0  0  0  0  0  0
    2.6720   18.5450   41.0830 C   0  0  0  0  0  0  0  0  0  0  0  0
    2.1100   17.2640   40.5570 C   0  0  0  0  0  0  0  0  0  0  0  0
    1.4690   20.8970   41.3670 C   0  0  0  0  0  0  0  0  0  0  0  0
    0.8810   18.1680   43.4350 C   0  0  0  0  0  0  0  0  0  0  0  0
    3.0850   17.4590   38.0810 C   0  0  0  0  0  0  0  0  0  0  0  0
   -0.2400   18.6460   45.4510 O   0  0  0  0  0  0  0  0  0  0  0  0
    0.9280   19.4240   42.8380 N   0  0  0  0  0  0  0  0  0  0  0  0
    4.3700   19.1216   36.1356 H   0  0  0  0  0  0  0  0  0  0  0  0
    0.9009   14.4043   37.0625 H   0  0  0  0  0  0  0  0  0  0  0  0
    0.0158   22.4694   42.2173 H   0  0  0  0  0  0  0  0  0  0  0  0
    4.9716   16.5812   35.7472 H   0  0  0  0  0  0  0  0  0  0  0  0
   -2.2774   17.4744   44.1461 H   0  0  0  0  0  0  0  0  0  0  0  0
   -1.4522   16.0706   44.2038 H   0  0  0  0  0  0  0  0  0  0  0  0
    0.7497   13.8029   42.4763 H   0  0  0  0  0  0  0  0  0  0  0  0
    0.5105   15.2051   43.5278 H   0  0  0  0  0  0  0  0  0  0  0  0
    0.7623   15.2765   39.4915 H   0  0  0  0  0  0  0  0  0  0  0  0
   -1.3291   17.1840   46.9261 H   0  0  0  0  0  0  0  0  0  0  0  0
   -1.4962   14.2849   43.7110 H   0  0  0  0  0  0  0  0  0  0  0  0
    2.4945   15.4172   35.4758 H   0  0  0  0  0  0  0  0  0  0  0  0
    3.1704   19.0447   40.2393 H   0  0  0  0  0  0  0  0  0  0  0  0
    3.3072   18.2208   41.9205 H   0  0  0  0  0  0  0  0  0  0  0  0
    1.9308   21.4083   40.5095 H   0  0  0  0  0  0  0  0  0  0  0  0
    1.8010   18.0479   44.0258 H   0  0  0  0  0  0  0  0  0  0  0  0
    0.7673   17.4613   42.5998 H   0  0  0  0  0  0  0  0  0  0  0  0
  2  8  1  0
  3 13  3  0
  4 11  2  0
  5  1  2  0
  6 10  1  0
  7 27  1  0
  8 18  1  0
 10 19  1  0
 11 14  1  0
 12 24  1  0
 12  9  1  0
 12 26  1  0
 12 16  1  0
 14 22  1  0
 15  6  2  0
 16  9  1  0
 17  6  1  0
 18 25  1  0
 20 18  2  0
 20  4  1  0
 21  7  1  0
 22 21  1  0
 22 17  2  3
 23  7  2  0
 23  5  1  0
 25  3  1  0
 25 14  2  0
 26 16  1  0
 27  1  1  0
 27 24  1  0
  2 28  1  0
  4 29  1  0
  5 30  1  0
  8 31  1  0
  9 32  1  0
  9 33  1  0
 10 34  1  0
 10 35  1  0
 11 36  1  0
 16 37  1  0
 19 38  1  0
 20 39  1  0
 21 40  1  0
 21 41  1  0
 23 42  1  0
 24 43  1  0
 24 44  1  0
M  END
>  <mol_id>  (59) 
2026-09-18-5lvo-s0-n100-0062

>  <rmsd_to_ref>  (59) 


$$$$

     RDKit          3D

 58 59  0  0  0  0  0  0  0  0999 V2000
    1.8070   16.2820   41.6160 C   0  0  0  0  0  0  0  0  0  0  0  0
    7.0690   14.6530   35.6960 C   0  0  0  0  0  0  0  0  0  0  0  0
    0.4780   17.9500   43.4030 C   0  0  0  0  0  0  0  0  0  0  0  0
    1.9800   17.0430   40.5610 C   0  0  0  0  0  0  0  0  0  0  0  0
    3.5800   15.7890   37.8860 S   0  0  0  0  0  0  0  0  0  0  0  0
    3.5480   18.6890   39.2410 C   0  0  0  0  0  0  0  0  0  0  0  0
    2.0340   20.8240   41.0740 O   0  0  0  0  0  0  0  0  0  0  0  0
    3.6510   17.5410   38.2090 N   0  0  0  0  0  0  0  0  0  0  0  0
    0.1450   20.2440   43.8030 C   0  0  0  0  0  0  0  0  0  0  0  0
    2.3240   18.4190   40.1250 C   0  0  0  0  0  0  0  0  0  0  0  0
    1.4870   19.8900   41.8490 C   0  0  0  0  0  0  0  0  0  0  0  0
    0.9090   17.0900   42.7190 N   0  0  0  0  0  0  0  0  0  0  0  0
   -0.7420   18.6200   45.3790 C   0  0  0  0  0  0  0  0  0  0  0  0
    3.2270   19.9150   38.5820 O   0  0  0  0  0  0  0  0  0  0  0  0
   -0.4480   19.8820   45.0260 N   0  0  0  0  0  0  0  0  0  0  0  0
    1.7010   13.6840   37.4950 C   0  0  0  0  0  0  0  0  0  0  0  0
    2.3480   14.9060   36.7720 C   0  0  0  0  0  0  0  0  0  0  0  0
   -0.1610   17.4500   44.5980 C   0  0  0  0  0  0  0  0  0  0  0  0
    0.1880   13.6150   37.2530 N   0  0  0  0  0  4  0  0  0  0  0  0
    2.8880   17.4080   37.2200 C   0  0  0  0  0  0  0  0  0  0  0  0
    5.0800   14.3300   34.0730 O   0  0  0  0  0  0  0  0  0  0  0  0
    5.1430   16.4310   35.6690 N   0  0  0  0  0  0  0  0  0  0  0  0
    4.0810   17.4810   36.0570 C   0  0  0  0  0  0  0  0  0  0  0  0
    2.2650   18.8690   41.6220 C   0  0  0  0  0  0  0  0  0  0  0  0
    0.6380   19.3670   42.9540 C   0  0  0  0  0  0  0  0  0  0  0  0
    6.0460   15.2970   34.7460 P   0  0  0  0  0  5  0  0  0  0  0  0
    6.7760   16.0960   33.6160 O   0  0  0  0  0  0  0  0  0  0  0  0
    2.7848   16.0288   42.0516 H   0  0  0  0  0  0  0  0  0  0  0  0
    1.2894   15.3564   41.3238 H   0  0  0  0  0  0  0  0  0  0  0  0
    6.7707   14.8408   36.7380 H   0  0  0  0  0  0  0  0  0  0  0  0
    7.1056   13.5686   35.5149 H   0  0  0  0  0  0  0  0  0  0  0  0
    8.0626   15.0888   35.5149 H   0  0  0  0  0  0  0  0  0  0  0  0
    2.7482   16.4668   40.0244 H   0  0  0  0  0  0  0  0  0  0  0  0
    0.9063   17.2802   40.5310 H   0  0  0  0  0  0  0  0  0  0  0  0
    4.4992   18.7485   39.7902 H   0  0  0  0  0  0  0  0  0  0  0  0
    2.4442   21.5244   41.6408 H   0  0  0  0  0  0  0  0  0  0  0  0
    0.1994   21.3115   43.5434 H   0  0  0  0  0  0  0  0  0  0  0  0
    1.7273   18.9425   39.3635 H   0  0  0  0  0  0  0  0  0  0  0  0
    0.7056   20.6638   41.8738 H   0  0  0  0  0  0  0  0  0  0  0  0
    0.3037   16.3173   43.0311 H   0  0  0  0  0  0  0  0  0  0  0  0
   -1.4053   18.4312   46.2360 H   0  0  0  0  0  0  0  0  0  0  0  0
    3.0438   20.6148   39.2579 H   0  0  0  0  0  0  0  0  0  0  0  0
    2.1645   12.7606   37.1176 H   0  0  0  0  0  0  0  0  0  0  0  0
    1.8697   13.7976   38.5760 H   0  0  0  0  0  0  0  0  0  0  0  0
    2.8698   14.5532   35.8702 H   0  0  0  0  0  0  0  0  0  0  0  0
    1.5494   15.6151   36.5085 H   0  0  0  0  0  0  0  0  0  0  0  0
   -0.2185   16.3927   44.8959 H   0  0  0  0  0  0  0  0  0  0  0  0
   -0.3037   13.5926   38.1578 H   0  0  0  0  0  0  0  0  0  0  0  0
   -0.1125   14.4432   36.7194 H   0  0  0  0  0  0  0  0  0  0  0  0
   -0.0358   12.7629   36.7194 H   0  0  0  0  0  0  0  0  0  0  0  0
    2.3562   16.4451   37.2216 H   0  0  0  0  0  0  0  0  0  0  0  0
    2.0587   18.1250   37.1297 H   0  0  0  0  0  0  0  0  0  0  0  0
    4.5794   13.8289   34.7646 H   0  0  0  0  0  0  0  0  0  0  0  0
    5.9534   17.0086   35.9346 H   0  0  0  0  0  0  0  0  0  0  0  0
    4.6675   18.3715   36.3271 H   0  0  0  0  0  0  0  0  0  0  0  0
    3.4345   17.3720   35.1737 H   0  0  0  0  0  0  0  0  0  0  0  0
    1.9028   18.0210   42.2217 H   0  0  0  0  0  0  0  0  0  0  0  0
    3.2830   19.1845   41.8943 H   0  0  0  0  0  0  0  0  0  0  0  0
  1 12  1  0
  3 18  1  0
  4  1  1  0
  5  8  1  0
  6 14  1  0
  8  6  1  0
  9 15  2  0
 10  6  1  0
 10  4  1  0
 10 24  1  0
 11  7  1  0
 11 25  1  0
 12  3  1  0
 15 13  1  0
 17 16  1  0
 17  5  1  0
 18 13  2  0
 19 16  1  0
 20  8  1  0
 21 26  1  0
 22 23  1  0
 23 20  1  0
 24 11  1  0
 25  3  2  0
 25  9  1  0
 26 22  1  0
 26  2  1  0
 27 26  2  0
  1 28  1  0
  1 29  1  0
  2 30  1  0
  2 31  1  0
  2 32  1  0
  4 33  1  0
  4 34  1  0
  6 35  1  0
  7 36  1  0
  9 37  1  0
 10 38  1  0
 11 39  1  0
 12 40  1  0
 13 41  1  0
 14 42  1  0
 16 43  1  0
 16 44  1  0
 17 45  1  0
 17 46  1  0
 18 47  1  0
 19 48  1  0
 19 49  1  0
 19 50  1  0
 20 51  1  0
 20 52  1  0
 21 53  1  0
 22 54  1  0
 23 55  1  0
 23 56  1  0
 24 57  1  0
 24 58  1  0
M  CHG  1  19   1
M  END
>  <mol_id>  (60) 
2026-09-18-5lvo-s0-n100-0063

>  <rmsd_to_ref>  (60) 


$$$$

     RDKit          3D

 72 75  0  0  0  0  0  0  0  0999 V2000
    3.1200   15.3020   36.6990 C   0  0  0  0  0  0  0  0  0  0  0  0
    3.2940   17.5620   37.9100 C   0  0  0  0  0  0  0  0  0  0  0  0
   -1.6540   13.0510   45.2400 C   0  0  0  0  0  0  0  0  0  0  0  0
    1.1140   17.1780   40.2890 C   0  0  0  0  0  0  0  0  0  0  0  0
    1.9150   15.2120   37.2360 C   0  0  0  0  0  0  0  0  0  0  0  0
    3.1430   18.5850   38.9400 C   0  0  0  0  0  0  0  0  0  0  0  0
    5.4550   14.8160   38.9800 C   0  0  0  0  0  0  0  0  0  0  0  0
    3.9760   19.2770   36.5030 C   0  0  0  0  0  0  0  0  0  0  0  0
    0.4780   16.7460   42.7820 C   0  0  0  0  0  0  0  0  0  0  0  0
    0.4550   14.9750   40.0200 C   0  0  0  0  0  0  0  0  0  0  0  0
   -1.8260   14.4570   45.5820 C   0  0  0  0  0  0  0  0  0  0  0  0
   -0.0080   14.5490   43.8350 C   0  0  0  0  0  0  0  0  0  0  0  0
    0.6910   16.1060   39.3230 C   0  0  0  0  0  0  0  0  0  0  0  0
    6.1460   15.6900   39.5520 O   0  0  0  0  0  0  0  0  0  0  0  0
    4.8070   14.0190   39.7410 N   0  0  0  0  0  0  0  0  0  0  0  0
    3.8190   20.2550   37.4130 C   0  0  0  0  0  0  0  0  0  0  0  0
   -0.9470   15.2570   44.7250 N   0  0  0  0  0  0  0  0  0  0  0  0
    5.8690   15.6080   36.7090 O   0  0  0  0  0  0  0  0  0  0  0  0
    3.7400   17.9510   36.7190 N   0  0  0  0  0  0  0  0  0  0  0  0
    2.9870   16.0460   37.9680 C   0  0  0  0  0  0  0  0  0  0  0  0
    3.3020   19.8760   38.6340 C   0  0  0  0  0  0  0  0  0  0  0  0
    0.0550   17.4580   44.0930 C   0  0  0  0  0  0  0  0  0  0  0  0
    0.1300   15.4030   42.5950 C   0  0  0  0  0  0  0  0  0  0  0  0
    5.3880   14.7970   37.6280 C   0  0  0  0  0  0  0  0  0  0  0  0
   -0.6770   12.4300   46.1890 N   0  0  0  0  0  4  0  0  0  0  0  0
   -0.5740   16.5800   45.1210 C   0  0  0  0  0  0  0  0  0  0  0  0
    1.7880   18.8250   41.9990 C   0  0  0  0  0  0  0  0  0  0  0  0
    1.4780   19.8740   40.8460 C   0  0  0  0  0  0  0  0  0  0  0  0
    1.7670   21.0210   41.5230 O   0  0  0  0  0  0  0  0  0  0  0  0
    0.0050   14.7870   41.3470 C   0  0  0  0  0  0  0  0  0  0  0  0
    2.7580   20.9950   39.3830 C   0  0  0  0  0  0  0  0  0  0  0  0
    2.1450   20.8050   40.4210 C   0  0  0  0  0  0  0  0  0  0  0  0
    1.1160   17.5480   41.7810 C   0  0  0  0  0  0  0  0  0  0  0  0
    3.7579   14.4062   36.6733 H   0  0  0  0  0  0  0  0  0  0  0  0
    3.4596   15.6072   35.6982 H   0  0  0  0  0  0  0  0  0  0  0  0
   -2.6213   12.5327   45.3162 H   0  0  0  0  0  0  0  0  0  0  0  0
   -1.2757   12.9644   44.2107 H   0  0  0  0  0  0  0  0  0  0  0  0
    1.5956   17.9901   39.7245 H   0  0  0  0  0  0  0  0  0  0  0  0
    1.0642   15.7174   36.7556 H   0  0  0  0  0  0  0  0  0  0  0  0
    1.2624   14.3749   37.5247 H   0  0  0  0  0  0  0  0  0  0  0  0
    2.8975   18.2923   39.9715 H   0  0  0  0  0  0  0  0  0  0  0  0
    4.3235   19.5709   35.5016 H   0  0  0  0  0  0  0  0  0  0  0  0
    1.4147   14.4385   39.9872 H   0  0  0  0  0  0  0  0  0  0  0  0
   -0.4819   14.6955   39.5159 H   0  0  0  0  0  0  0  0  0  0  0  0
   -2.8727   14.7529   45.4184 H   0  0  0  0  0  0  0  0  0  0  0  0
   -1.5708   14.6207   46.6394 H   0  0  0  0  0  0  0  0  0  0  0  0
    0.9687   14.4325   44.3275 H   0  0  0  0  0  0  0  0  0  0  0  0
   -0.3752   13.5421   43.5873 H   0  0  0  0  0  0  0  0  0  0  0  0
    1.4913   15.9302   38.5891 H   0  0  0  0  0  0  0  0  0  0  0  0
   -0.2179   16.4168   38.7870 H   0  0  0  0  0  0  0  0  0  0  0  0
    4.2204   13.2783   39.3309 H   0  0  0  0  0  0  0  0  0  0  0  0
    4.8715   14.1175   40.7642 H   0  0  0  0  0  0  0  0  0  0  0  0
    4.0881   21.2991   37.1953 H   0  0  0  0  0  0  0  0  0  0  0  0
    6.3219   16.3716   37.1471 H   0  0  0  0  0  0  0  0  0  0  0  0
    3.2993   16.0958   39.0216 H   0  0  0  0  0  0  0  0  0  0  0  0
    0.2082   18.5354   44.2534 H   0  0  0  0  0  0  0  0  0  0  0  0
    1.1933   15.1231   42.6267 H   0  0  0  0  0  0  0  0  0  0  0  0
    4.3072   14.7877   37.4235 H   0  0  0  0  0  0  0  0  0  0  0  0
    6.1231   13.9923   37.4794 H   0  0  0  0  0  0  0  0  0  0  0  0
   -0.9725   12.6178   47.1577 H   0  0  0  0  0  0  0  0  0  0  0  0
   -0.6443   11.4127   46.0312 H   0  0  0  0  0  0  0  0  0  0  0  0
    0.2580   12.8322   46.0312 H   0  0  0  0  0  0  0  0  0  0  0  0
   -1.4844   17.0867   45.4737 H   0  0  0  0  0  0  0  0  0  0  0  0
    0.2091   16.4336   45.8795 H   0  0  0  0  0  0  0  0  0  0  0  0
    2.8736   18.6516   42.0370 H   0  0  0  0  0  0  0  0  0  0  0  0
    1.4150   19.2445   42.9450 H   0  0  0  0  0  0  0  0  0  0  0  0
    0.8232   19.2256   40.2453 H   0  0  0  0  0  0  0  0  0  0  0  0
   -1.0867   14.7714   41.2132 H   0  0  0  0  0  0  0  0  0  0  0  0
    0.7832   14.0421   41.5694 H   0  0  0  0  0  0  0  0  0  0  0  0
    3.6062   21.6493   39.6329 H   0  0  0  0  0  0  0  0  0  0  0  0
    1.9856   21.3928   38.7083 H   0  0  0  0  0  0  0  0  0  0  0  0
    1.2436   21.2445   39.9691 H   0  0  0  0  0  0  0  0  0  0  0  0
  1  5  1  0
  1 20  1  0
  2 20  1  0
  2  6  2  0
  3 11  1  0
  3 25  1  0
  4 33  2  0
  5 20  1  0
  7 14  2  0
  7 15  1  0
  8 19  2  0
  8 16  1  0
  9 22  2  0
 10 30  1  0
 12 17  1  0
 13 10  1  0
 13  4  1  0
 16 21  2  0
 17 26  1  0
 17 11  1  0
 18 24  1  0
 19  2  1  0
 21  6  1  0
 21 31  1  0
 22 26  1  0
 23 30  1  0
 23  9  1  0
 23 12  1  0
 24  7  1  0
 28 29  1  0
 28 27  1  0
 32 31  1  0
 32 28  1  0
 32 29  1  0
 33 27  1  0
 33  9  1  0
  1 34  1  0
  1 35  1  0
  3 36  1  0
  3 37  1  0
  4 38  1  0
  5 39  1  0
  5 40  1  0
  6 41  1  0
  8 42  1  0
 10 43  1  0
 10 44  1  0
 11 45  1  0
 11 46  1  0
 12 47  1  0
 12 48  1  0
 13 49  1  0
 13 50  1  0
 15 51  1  0
 15 52  1  0
 16 53  1  0
 18 54  1  0
 20 55  1  0
 22 56  1  0
 23 57  1  0
 24 58  1  0
 24 59  1  0
 25 60  1  0
 25 61  1  0
 25 62  1  0
 26 63  1  0
 26 64  1  0
 27 65  1  0
 27 66  1  0
 28 67  1  0
 30 68  1  0
 30 69  1  0
 31 70  1  0
 31 71  1  0
 32 72  1  0
M  CHG  1  25   1
M  END
>  <mol_id>  (61) 
2026-09-18-5lvo-s0-n100-0064

>  <rmsd_to_ref>  (61) 


$$$$

     RDKit          3D

 36 38  0  0  0  0  0  0  0  0999 V2000
    0.6900   17.9910   43.1400 C   0  0  0  0  0  0  0  0  0  0  0  0
    0.2210   19.3310   43.6090 C   0  0  0  0  0  0  0  0  0  0  0  0
    0.3200   16.6710   43.8470 C   0  0  0  0  0  0  0  0  0  0  0  0
    1.5650   17.9570   42.0760 C   0  0  0  0  0  0  0  0  0  0  0  0
    4.9180   15.2870   38.2760 C   0  0  0  0  0  0  0  0  0  0  0  0
    5.5620   15.6090   37.2350 O   0  0  0  0  0  0  0  0  0  0  0  0
   -0.9410   17.9200   45.3410 C   0  0  0  0  0  0  0  0  0  0  0  0
    2.2010   15.4010   37.3900 C   0  0  0  0  0  0  0  0  0  0  0  0
    1.8440   16.1430   40.0980 C   0  0  0  0  0  0  0  0  0  0  0  0
    3.0480   16.2220   39.4470 C   0  0  0  0  0  0  0  0  0  0  0  0
    0.8620   15.4250   37.8800 C   0  0  0  0  0  0  0  0  0  0  0  0
    4.7490   16.1940   36.1410 O   0  0  0  0  0  0  0  0  0  0  0  0
   -1.0080   16.9030   44.1100 C   0  0  0  0  0  0  0  0  0  0  0  0
   -0.7940   19.2010   44.6610 N   0  0  0  0  0  0  0  0  0  0  0  0
    0.6220   15.7890   39.2550 C   0  0  0  0  0  0  0  0  0  0  0  0
    5.6020   14.9250   39.3110 O   0  0  0  0  0  0  0  0  0  0  0  0
    3.3220   15.5950   38.2370 C   0  0  0  0  0  0  0  0  0  0  0  0
    1.7550   16.6740   41.4060 O   0  0  0  0  0  0  0  0  0  0  0  0
    1.7080   20.3990   41.9830 C   0  0  0  0  0  0  0  0  0  0  0  0
    2.1520   19.2190   41.4830 C   0  0  0  0  0  0  0  0  0  0  0  0
    0.7590   20.4910   43.0820 C   0  0  0  0  0  0  0  0  0  0  0  0
    0.4593   15.8020   43.1872 H   0  0  0  0  0  0  0  0  0  0  0  0
    0.9314   16.4320   44.7297 H   0  0  0  0  0  0  0  0  0  0  0  0
   -1.8640   17.8872   45.9385 H   0  0  0  0  0  0  0  0  0  0  0  0
   -0.1354   17.7005   46.0572 H   0  0  0  0  0  0  0  0  0  0  0  0
    2.3704   15.2259   36.3173 H   0  0  0  0  0  0  0  0  0  0  0  0
    3.8470   16.8188   39.9111 H   0  0  0  0  0  0  0  0  0  0  0  0
    0.0222   15.1690   37.2173 H   0  0  0  0  0  0  0  0  0  0  0  0
    4.0093   16.7262   36.5279 H   0  0  0  0  0  0  0  0  0  0  0  0
   -1.5115   17.3583   43.2445 H   0  0  0  0  0  0  0  0  0  0  0  0
   -1.5798   15.9884   44.3259 H   0  0  0  0  0  0  0  0  0  0  0  0
   -1.3918   20.0006   44.9143 H   0  0  0  0  0  0  0  0  0  0  0  0
   -0.3940   15.8104   39.6761 H   0  0  0  0  0  0  0  0  0  0  0  0
    2.0835   21.3314   41.5361 H   0  0  0  0  0  0  0  0  0  0  0  0
    2.9052   19.1812   40.6822 H   0  0  0  0  0  0  0  0  0  0  0  0
    0.4727   21.4720   43.4891 H   0  0  0  0  0  0  0  0  0  0  0  0
  1  2  2  0
  1  3  1  0
  2 14  1  0
  3 13  1  0
  4  1  1  0
  5 16  2  0
  6  5  1  0
  8 11  2  0
  8 17  1  0
  9 18  1  0
 10  9  1  0
 11 15  1  0
 12  6  1  0
 13  7  1  0
 14  7  1  0
 15  9  2  0
 17  5  1  0
 17 10  2  0
 18  4  1  0
 19 21  2  0
 20 19  1  0
 20  4  2  0
 21  2  1  0
  3 22  1  0
  3 23  1  0
  7 24  1  0
  7 25  1  0
  8 26  1  0
 10 27  1  0
 11 28  1  0
 12 29  1  0
 13 30  1  0
 13 31  1  0
 14 32  1  0
 15 33  1  0
 19 34  1  0
 20 35  1  0
 21 36  1  0
M  END
>  <mol_id>  (62) 
2026-09-18-5lvo-s0-n100-0065

>  <rmsd_to_ref>  (62) 


$$$$

     RDKit          3D

 56 57  0  0  0  0  0  0  0  0999 V2000
   -1.5600   16.5670   44.8240 C   0  0  0  0  0  0  0  0  0  0  0  0
    2.9090   16.8380   37.9470 C   0  0  0  0  0  0  0  0  0  0  0  0
    0.0610   19.8870   44.8390 O   0  0  0  0  0  0  0  0  0  0  0  0
    2.1490   20.3390   42.3750 O   0  0  0  0  0  0  0  0  0  0  0  0
    5.8850   13.4150   37.1330 O   0  0  0  0  0  0  0  0  0  0  0  0
    3.9440   21.3450   37.6930 O   0  0  0  0  0  1  0  0  0  0  0  0
    1.8290   16.9250   41.8290 N   0  0  0  0  0  0  0  0  0  0  0  0
    3.5850   19.2360   38.4330 C   0  0  0  0  0  0  0  0  0  0  0  0
    5.9720   15.4410   36.4260 O   0  0  0  0  0  0  0  0  0  0  0  0
   -0.1340   18.6550   44.4850 C   0  0  0  0  0  0  0  0  0  0  0  0
    3.0630   14.4640   36.8270 C   0  0  0  0  0  0  0  0  0  0  0  0
    6.1310   15.2760   38.7680 O   0  0  0  0  0  0  0  0  0  0  0  0
    2.6450   14.0680   41.8120 C   0  0  0  0  0  0  0  0  0  0  0  0
    4.0080   14.5850   37.8700 O   0  0  0  0  0  0  0  0  0  0  0  0
    5.4820   14.7560   37.5490 P   0  0  0  0  0  5  0  0  0  0  0  0
    1.6610   14.7930   37.3280 C   0  0  0  0  0  0  0  0  0  0  0  0
    2.8230   18.9450   40.7370 N   0  0  0  0  0  0  0  0  0  0  0  0
   -2.5570   15.9810   45.7420 N   0  0  0  0  0  0  0  0  0  0  0  0
    1.4660   18.1300   42.4980 C   0  0  0  0  0  0  0  0  0  0  0  0
    0.2140   16.5500   43.3640 C   0  0  0  0  0  0  0  0  0  0  0  0
    3.7340   17.7350   38.1040 C   0  0  0  0  0  0  0  0  0  0  0  0
    3.2450   19.7270   39.6970 C   0  0  0  0  0  0  0  0  0  0  0  0
    1.7480   14.5040   42.9950 C   0  0  0  0  0  0  0  0  0  0  0  0
    3.5450   19.7330   36.2920 O   0  0  0  0  0  0  0  0  0  0  0  0
    3.6960   20.1340   37.3410 C   0  0  0  0  0  0  0  0  0  0  0  0
    2.1930   19.2330   41.8570 C   0  0  0  0  0  0  0  0  0  0  0  0
    1.2410   15.9100   42.7060 N   0  0  0  0  0  0  0  0  0  0  0  0
    1.8480   16.2340   37.3200 C   0  0  0  0  0  0  0  0  0  0  0  0
   -1.1170   17.9240   45.0890 N   0  0  0  0  0  0  0  0  0  0  0  0
    3.4540   15.4130   35.8580 O   0  0  0  0  0  0  0  0  0  0  0  0
    0.5250   17.8750   43.5240 C   0  0  0  0  0  0  0  0  0  0  0  0
   -0.9800   15.9050   43.8550 N   0  0  0  0  0  0  0  0  0  0  0  0
    3.6201   16.0032   37.8607 H   0  0  0  0  0  0  0  0  0  0  0  0
    2.1837   17.4623   38.4895 H   0  0  0  0  0  0  0  0  0  0  0  0
    6.0525   12.8575   37.9338 H   0  0  0  0  0  0  0  0  0  0  0  0
    2.3642   16.8007   40.9578 H   0  0  0  0  0  0  0  0  0  0  0  0
    2.5193   19.1890   38.1646 H   0  0  0  0  0  0  0  0  0  0  0  0
    3.0352   13.4397   36.4268 H   0  0  0  0  0  0  0  0  0  0  0  0
    5.6744   14.9102   39.5666 H   0  0  0  0  0  0  0  0  0  0  0  0
    3.5707   13.6181   42.2001 H   0  0  0  0  0  0  0  0  0  0  0  0
    2.1084   13.3302   41.1974 H   0  0  0  0  0  0  0  0  0  0  0  0
    2.8936   14.9458   41.1974 H   0  0  0  0  0  0  0  0  0  0  0  0
    0.8715   14.4605   36.6380 H   0  0  0  0  0  0  0  0  0  0  0  0
    1.3369   14.3284   38.2709 H   0  0  0  0  0  0  0  0  0  0  0  0
   -2.8969   15.0209   45.5884 H   0  0  0  0  0  0  0  0  0  0  0  0
   -2.9126   16.5323   46.5360 H   0  0  0  0  0  0  0  0  0  0  0  0
    0.7287   16.3153   44.3074 H   0  0  0  0  0  0  0  0  0  0  0  0
    4.3743   17.3565   38.9144 H   0  0  0  0  0  0  0  0  0  0  0  0
    3.9748   17.8670   37.0388 H   0  0  0  0  0  0  0  0  0  0  0  0
    3.3217   20.8112   39.8660 H   0  0  0  0  0  0  0  0  0  0  0  0
    0.8977   13.8132   43.0934 H   0  0  0  0  0  0  0  0  0  0  0  0
    2.3198   14.4890   43.9346 H   0  0  0  0  0  0  0  0  0  0  0  0
    1.9080   16.5297   36.2622 H   0  0  0  0  0  0  0  0  0  0  0  0
    0.9978   16.5780   37.9274 H   0  0  0  0  0  0  0  0  0  0  0  0
    3.7895   16.2273   36.3102 H   0  0  0  0  0  0  0  0  0  0  0  0
   -1.3390   15.0149   43.4812 H   0  0  0  0  0  0  0  0  0  0  0  0
  1 29  2  0
  1 18  1  0
  2 21  1  0
  5 15  1  0
  7 19  1  0
  7 27  1  0
  8 21  1  0
  8 22  1  0
  9 15  2  0
 10  3  2  0
 10 29  1  0
 11 30  1  0
 11 16  1  0
 11 14  1  0
 13 23  1  0
 15 14  1  0
 15 12  1  0
 17 26  1  0
 19 31  2  0
 20 31  1  0
 20 32  1  0
 22 17  2  3
 24 25  2  0
 25  6  1  0
 25  8  1  0
 26  4  2  0
 26 19  1  0
 27 23  1  0
 27 20  1  0
 28 16  1  0
 28  2  1  0
 31 10  1  0
 32  1  1  0
  2 33  1  0
  2 34  1  0
  5 35  1  0
  7 36  1  0
  8 37  1  0
 11 38  1  0
 12 39  1  0
 13 40  1  0
 13 41  1  0
 13 42  1  0
 16 43  1  0
 16 44  1  0
 18 45  1  0
 18 46  1  0
 20 47  1  0
 21 48  1  0
 21 49  1  0
 22 50  1  0
 23 51  1  0
 23 52  1  0
 28 53  1  0
 28 54  1  0
 30 55  1  0
 32 56  1  0
M  CHG  1   6  -1
M  END
>  <mol_id>  (63) 
2026-09-18-5lvo-s0-n100-0066

>  <rmsd_to_ref>  (63) 


$$$$

     RDKit          3D

 53 52  0  0  0  0  0  0  0  0999 V2000
    1.8720   19.5510   41.3300 C   0  0  0  0  0  0  0  0  0  0  0  0
   -0.8510   17.4610   44.0960 O   0  0  0  0  0  0  0  0  0  0  0  0
   -2.1950   17.3310   43.7630 C   0  0  0  0  0  0  0  0  0  0  0  0
    1.5440   18.3190   41.2720 N   0  0  0  0  0  0  0  0  0  0  0  0
    3.2320   15.0300   36.8010 C   0  0  0  0  0  0  0  0  0  0  0  0
    6.1400   15.5910   37.5860 O   0  0  0  0  0  0  0  0  0  0  0  0
   -0.0270   20.8100   43.5880 N   0  0  0  0  0  0  0  0  0  0  0  0
    0.4770   15.4440   40.9750 C   0  0  0  0  0  0  0  0  0  0  0  0
    0.1220   15.2330   42.4800 C   0  0  0  0  0  0  0  0  0  0  0  0
    4.9900   15.9690   34.9440 O   0  0  0  0  0  0  0  0  0  0  0  0
    0.0950   19.6320   44.2240 C   0  0  0  0  0  0  0  0  0  0  0  0
    4.0920   16.0780   36.3510 O   0  0  0  0  0  0  0  0  0  0  0  0
    0.9440   17.5760   42.5780 C   0  0  0  0  0  0  0  0  0  0  0  0
    3.7740   16.8460   40.0700 C   0  0  0  0  0  0  0  0  0  0  0  0
   -0.1240   18.3700   43.3250 C   0  0  0  0  0  0  0  0  0  0  0  0
    2.2110   15.0010   35.9420 O   0  0  0  0  0  0  0  0  0  0  0  0
    2.4380   20.1140   42.3760 O   0  0  0  0  0  0  0  0  0  0  0  0
    0.3570   19.6170   45.3820 O   0  0  0  0  0  0  0  0  0  0  0  0
    5.8720   15.0570   39.3780 O   0  0  0  0  0  1  0  0  0  0  0  0
    2.0680   20.2030   39.9670 C   0  0  0  0  0  0  0  0  0  0  0  0
    5.0890   15.6710   38.4150 C   0  0  0  0  0  0  0  0  0  0  0  0
    0.4310   15.5990   39.6100 C   0  0  0  0  0  0  0  0  0  0  0  0
    2.7540   15.4130   38.2310 C   0  0  0  0  0  0  0  0  0  0  0  0
    1.5530   15.0130   38.4590 C   0  0  0  0  0  0  0  0  0  0  0  0
    0.4450   16.2860   42.1480 C   0  0  0  0  0  0  0  0  0  0  0  0
    3.5950   15.6770   39.2750 C   0  0  0  0  0  0  0  0  0  0  0  0
   -2.7965   17.2728   44.6821 H   0  0  0  0  0  0  0  0  0  0  0  0
   -2.5122   18.2027   43.1717 H   0  0  0  0  0  0  0  0  0  0  0  0
   -2.3393   16.4147   43.1717 H   0  0  0  0  0  0  0  0  0  0  0  0
    1.6615   17.7967   40.3921 H   0  0  0  0  0  0  0  0  0  0  0  0
    3.7163   14.0432   36.8416 H   0  0  0  0  0  0  0  0  0  0  0  0
   -0.2541   20.8319   42.5836 H   0  0  0  0  0  0  0  0  0  0  0  0
    0.1066   21.6907   44.1051 H   0  0  0  0  0  0  0  0  0  0  0  0
    1.4214   14.8969   41.1116 H   0  0  0  0  0  0  0  0  0  0  0  0
   -0.5884   15.1808   41.0502 H   0  0  0  0  0  0  0  0  0  0  0  0
   -0.1365   15.0432   43.5322 H   0  0  0  0  0  0  0  0  0  0  0  0
    0.0716   14.4159   41.7452 H   0  0  0  0  0  0  0  0  0  0  0  0
    5.9466   15.8529   35.1712 H   0  0  0  0  0  0  0  0  0  0  0  0
    1.7527   17.4693   43.3160 H   0  0  0  0  0  0  0  0  0  0  0  0
    3.7325   16.5749   41.1353 H   0  0  0  0  0  0  0  0  0  0  0  0
    4.7516   17.2968   39.8442 H   0  0  0  0  0  0  0  0  0  0  0  0
    2.9760   17.5687   39.8442 H   0  0  0  0  0  0  0  0  0  0  0  0
   -0.5623   18.8713   42.4495 H   0  0  0  0  0  0  0  0  0  0  0  0
    1.3580   14.9768   36.4439 H   0  0  0  0  0  0  0  0  0  0  0  0
    2.3823   21.2484   40.1024 H   0  0  0  0  0  0  0  0  0  0  0  0
    2.8417   19.6571   39.4073 H   0  0  0  0  0  0  0  0  0  0  0  0
    1.1215   20.1742   39.4073 H   0  0  0  0  0  0  0  0  0  0  0  0
   -0.5335   15.1635   39.3097 H   0  0  0  0  0  0  0  0  0  0  0  0
    0.6673   16.6717   39.5503 H   0  0  0  0  0  0  0  0  0  0  0  0
    2.7871   16.5105   38.1643 H   0  0  0  0  0  0  0  0  0  0  0  0
    1.0386   15.1228   37.4929 H   0  0  0  0  0  0  0  0  0  0  0  0
    1.7940   14.0562   38.9452 H   0  0  0  0  0  0  0  0  0  0  0  0
    3.1862   15.0004   40.0399 H   0  0  0  0  0  0  0  0  0  0  0  0
  1 17  2  0
  3  2  1  0
  4  1  1  0
  5 16  1  0
  5 23  1  0
  6 21  2  0
  7 11  1  0
  8 25  1  0
 10 12  1  0
 11 18  2  0
 12  5  1  0
 13  4  1  0
 13 15  1  0
 15  2  1  0
 15 11  1  0
 20  1  1  0
 21 26  1  0
 21 19  1  0
 22  8  1  0
 23 24  1  0
 23 26  1  0
 24 22  1  0
 25  9  2  3
 25 13  1  0
 26 14  1  0
  3 27  1  0
  3 28  1  0
  3 29  1  0
  4 30  1  0
  5 31  1  0
  7 32  1  0
  7 33  1  0
  8 34  1  0
  8 35  1  0
  9 36  1  0
  9 37  1  0
 10 38  1  0
 13 39  1  0
 14 40  1  0
 14 41  1  0
 14 42  1  0
 15 43  1  0
 16 44  1  0
 20 45  1  0
 20 46  1  0
 20 47  1  0
 22 48  1  0
 22 49  1  0
 23 50  1  0
 24 51  1  0
 24 52  1  0
 26 53  1  0
M  CHG  1  19  -1
M  END
>  <mol_id>  (64) 
2026-09-18-5lvo-s0-n100-0067

>  <rmsd_to_ref>  (64) 


$$$$

     RDKit          3D

 37 37  0  0  0  0  0  0  0  0999 V2000
    1.2490   19.8070   42.2140 C   0  0  0  0  0  0  0  0  0  0  0  0
    1.8260   19.2420   38.9770 O   0  0  0  0  0  0  0  0  0  0  0  0
    4.3210   19.0230   39.5960 O   0  0  0  0  0  0  0  0  0  0  0  0
    4.5240   16.9550   38.1990 O   0  0  0  0  0  0  0  0  0  0  0  0
    1.3920   18.4930   41.6150 C   0  0  0  0  0  0  0  0  0  0  0  0
    2.6830   17.9840   41.0580 C   0  0  0  0  0  0  0  0  0  0  0  0
    1.0180   17.3370   42.7540 C   0  0  0  0  0  0  0  0  0  0  0  0
    0.3130   20.0210   43.4550 C   0  0  0  0  0  0  0  0  0  0  0  0
    0.5670   17.0940   44.9250 C   0  0  0  0  0  0  0  0  0  0  0  0
    0.4550   16.0950   42.3140 C   0  0  0  0  0  0  0  0  0  0  0  0
    1.6260   20.9140   41.4520 C   0  0  0  0  0  0  0  0  0  0  0  0
    0.7610   17.8240   43.8890 C   0  0  0  0  0  0  0  0  0  0  0  0
    0.3550   19.1850   44.1550 C   0  0  0  0  0  0  0  0  0  0  0  0
   -0.0080   19.0880   45.3550 C   0  0  0  0  0  0  0  0  0  0  0  0
    3.0060   18.4570   39.4270 P   0  0  0  0  0  5  0  0  0  0  0  0
    3.6330   17.7610   37.9670 C   0  0  0  0  0  0  0  0  0  0  0  0
    3.0760   17.9940   36.8050 N   0  0  0  0  0  0  0  0  0  0  0  0
    2.1316   19.7140   42.8639 H   0  0  0  0  0  0  0  0  0  0  0  0
    4.5215   19.1093   40.5616 H   0  0  0  0  0  0  0  0  0  0  0  0
    0.7409   18.6485   40.7422 H   0  0  0  0  0  0  0  0  0  0  0  0
    3.5004   18.3592   41.6913 H   0  0  0  0  0  0  0  0  0  0  0  0
    2.6065   16.8867   41.0526 H   0  0  0  0  0  0  0  0  0  0  0  0
    1.9513   16.8017   42.9830 H   0  0  0  0  0  0  0  0  0  0  0  0
    0.6242   20.9368   43.9789 H   0  0  0  0  0  0  0  0  0  0  0  0
   -0.7206   20.0998   43.0870 H   0  0  0  0  0  0  0  0  0  0  0  0
    0.3455   17.5633   45.8949 H   0  0  0  0  0  0  0  0  0  0  0  0
    0.6220   15.9984   44.8439 H   0  0  0  0  0  0  0  0  0  0  0  0
    0.1794   15.4871   43.1884 H   0  0  0  0  0  0  0  0  0  0  0  0
   -0.4414   16.2930   41.7079 H   0  0  0  0  0  0  0  0  0  0  0  0
    1.1947   15.5514   41.7079 H   0  0  0  0  0  0  0  0  0  0  0  0
    1.9076   21.7408   42.1207 H   0  0  0  0  0  0  0  0  0  0  0  0
    2.4840   20.6473   40.8174 H   0  0  0  0  0  0  0  0  0  0  0  0
    0.7836   21.2264   40.8174 H   0  0  0  0  0  0  0  0  0  0  0  0
    0.1238   18.1384   45.8944 H   0  0  0  0  0  0  0  0  0  0  0  0
   -0.4573   19.9527   45.8653 H   0  0  0  0  0  0  0  0  0  0  0  0
    2.3297   18.6992   36.7238 H   0  0  0  0  0  0  0  0  0  0  0  0
    3.3842   17.4720   35.9722 H   0  0  0  0  0  0  0  0  0  0  0  0
  1 11  1  0
  1  8  1  0
  5  6  1  0
  5  1  1  0
  5  7  1  0
  7 10  1  0
  7 12  1  0
  8 13  1  0
 12 13  1  0
 12  9  2  3
 13 14  2  3
 15  2  2  0
 15  3  1  0
 15  6  1  0
 16  4  2  0
 16 15  1  0
 17 16  1  0
  1 18  1  0
  3 19  1  0
  5 20  1  0
  6 21  1  0
  6 22  1  0
  7 23  1  0
  8 24  1  0
  8 25  1  0
  9 26  1  0
  9 27  1  0
 10 28  1  0
 10 29  1  0
 10 30  1  0
 11 31  1  0
 11 32  1  0
 11 33  1  0
 14 34  1  0
 14 35  1  0
 17 36  1  0
 17 37  1  0
M  END
>  <mol_id>  (65) 
2026-09-18-5lvo-s0-n100-0068

>  <rmsd_to_ref>  (65) 


$$$$

     RDKit          3D

 35 35  0  0  0  0  0  0  0  0999 V2000
    1.6790   18.3000   41.7040 N   0  0  0  0  0  0  0  0  0  0  0  0
    1.0890   14.7290   40.4250 N   0  0  0  0  0  4  0  0  0  0  0  0
    0.9070   17.3490   42.0740 N   0  0  0  0  0  0  0  0  0  0  0  0
    2.4430   14.3660   37.9860 O   0  0  0  0  0  0  0  0  0  0  0  0
    2.2560   19.5540   40.0390 C   0  0  0  0  0  0  0  0  0  0  0  0
    0.6080   13.7550   37.0290 O   0  0  0  0  0  0  0  0  0  0  0  0
    0.4160   17.7050   43.2930 C   0  0  0  0  0  0  0  0  0  0  0  0
    3.8080   19.5560   38.5190 C   0  0  0  0  0  0  0  0  0  0  0  0
    1.6960   19.4260   42.7400 N   0  0  0  0  0  0  0  0  0  0  0  0
    4.3410   20.2700   37.6670 N   0  0  0  0  0  0  0  0  0  0  0  0
    0.8410   19.0580   43.6190 C   0  0  0  0  0  0  0  0  0  0  0  0
    0.4760   19.7540   44.6700 N   0  0  0  0  0  0  0  0  0  0  0  0
    0.5950   15.7140   38.2850 C   0  0  0  0  0  0  0  0  0  0  0  0
    2.8980   20.2690   39.1470 N   0  0  0  0  0  0  0  0  0  0  0  0
    2.4550   18.3610   40.5530 C   0  0  0  0  0  0  0  0  0  0  0  0
    4.0210   18.2970   38.9070 C   0  0  0  0  0  0  0  0  0  0  0  0
    3.3630   17.6970   39.8950 C   0  0  0  0  0  0  0  0  0  0  0  0
    1.4220   14.7910   37.4990 C   0  0  0  0  0  0  0  0  0  0  0  0
    0.4350   15.7150   39.5930 C   0  0  0  0  0  0  0  0  0  0  0  0
    0.9355   14.9605   41.4168 H   0  0  0  0  0  0  0  0  0  0  0  0
    0.6978   13.7974   40.2253 H   0  0  0  0  0  0  0  0  0  0  0  0
    2.0995   14.7271   40.2253 H   0  0  0  0  0  0  0  0  0  0  0  0
    2.3745   14.3945   38.9732 H   0  0  0  0  0  0  0  0  0  0  0  0
    1.3647   20.0579   40.4411 H   0  0  0  0  0  0  0  0  0  0  0  0
    0.2222   13.2640   37.7972 H   0  0  0  0  0  0  0  0  0  0  0  0
   -0.2081   17.0659   43.9349 H   0  0  0  0  0  0  0  0  0  0  0  0
    4.0139   21.2366   37.5272 H   0  0  0  0  0  0  0  0  0  0  0  0
    5.1134   19.8999   37.0949 H   0  0  0  0  0  0  0  0  0  0  0  0
    0.8377   20.7087   44.8065 H   0  0  0  0  0  0  0  0  0  0  0  0
   -0.1722   19.3456   45.3584 H   0  0  0  0  0  0  0  0  0  0  0  0
    0.0509   16.4871   37.7226 H   0  0  0  0  0  0  0  0  0  0  0  0
    4.7905   17.7180   38.3753 H   0  0  0  0  0  0  0  0  0  0  0  0
    3.5830   16.6508   40.1541 H   0  0  0  0  0  0  0  0  0  0  0  0
    1.8264   15.4146   36.6881 H   0  0  0  0  0  0  0  0  0  0  0  0
   -0.2060   16.4776   40.0594 H   0  0  0  0  0  0  0  0  0  0  0  0
  1  3  1  0
  1  9  1  0
  3  7  2  0
  5 15  2  0
  6 18  1  0
  7 11  1  0
  8 16  1  0
  8 14  2  0
  9 11  2  0
 10  8  1  0
 11 12  1  0
 13 19  2  3
 14  5  1  0
 15  1  1  0
 16 17  2  0
 17 15  1  0
 18  4  1  0
 18 13  1  0
 19  2  1  0
  2 20  1  0
  2 21  1  0
  2 22  1  0
  4 23  1  0
  5 24  1  0
  6 25  1  0
  7 26  1  0
 10 27  1  0
 10 28  1  0
 12 29  1  0
 12 30  1  0
 13 31  1  0
 16 32  1  0
 17 33  1  0
 18 34  1  0
 19 35  1  0
M  CHG  1   2   1
M  END
>  <mol_id>  (66) 
2026-09-18-5lvo-s0-n100-0069

>  <rmsd_to_ref>  (66) 


$$$$

     RDKit          3D

 52 54  0  0  0  0  0  0  0  0999 V2000
    1.3990   15.7110   38.8430 C   0  0  0  0  0  0  0  0  0  0  0  0
    1.2550   16.4960   42.4440 O   0  0  0  0  0  0  0  0  0  0  0  0
   -0.2240   19.3470   44.6820 C   0  0  0  0  0  0  0  0  0  0  0  0
    1.0820   18.7660   42.6840 C   0  0  0  0  0  0  0  0  0  0  0  0
    0.7360   17.4170   42.9760 C   0  0  0  0  0  0  0  0  0  0  0  0
    2.6090   18.1380   39.8510 C   0  0  0  0  0  0  0  0  0  0  0  0
    1.6920   15.3290   36.3370 C   0  0  0  0  0  0  0  0  0  0  0  0
    3.1800   15.9900   38.7360 C   0  0  0  0  0  0  0  0  0  0  0  0
    2.0360   19.3820   41.7720 C   0  0  0  0  0  0  0  0  0  0  0  0
   -0.3340   17.1600   44.0460 C   0  0  0  0  0  0  0  0  0  0  0  0
    0.6470   21.1790   42.7330 S   0  0  0  0  0  0  0  0  0  0  0  0
    3.9660   19.5910   36.3050 O   0  0  0  0  0  0  0  0  0  0  0  0
   -0.4390   20.3730   45.4650 O   0  0  0  0  0  0  0  0  0  0  0  0
    4.1840   16.0800   36.6720 S   0  0  0  0  0  4  0  0  0  0  0  0
    4.0200   19.8460   37.7270 C   0  0  0  0  0  0  0  0  0  0  0  0
   -0.8050   18.0700   44.9010 C   0  0  0  0  0  0  0  0  0  0  0  0
    2.4330   20.6630   39.5850 C   0  0  0  0  0  0  0  0  0  0  0  0
    3.7150   16.9350   37.9190 N   0  0  0  0  0  0  0  0  0  0  0  0
    3.9260   18.1810   39.6550 C   0  0  0  0  0  0  0  0  0  0  0  0
    2.1300   19.4280   40.4540 N   0  0  0  0  0  0  0  0  0  0  0  0
    3.2400   20.7560   38.5810 C   0  0  0  0  0  0  0  0  0  0  0  0
    5.5400   15.6460   37.0330 O   0  0  0  0  0  0  0  0  0  0  0  0
    4.6270   18.1500   38.3130 C   0  0  0  0  0  0  0  0  0  0  0  0
    3.0390   15.0390   36.0100 O   0  0  0  0  0  0  0  0  0  0  0  0
    2.9690   19.7290   42.3040 O   0  0  0  0  0  0  0  0  0  0  0  0
    0.5740   19.7510   43.4470 C   0  0  0  0  0  0  0  0  0  0  0  0
    1.0700   14.6680   37.7450 C   0  0  0  0  0  0  0  0  0  0  0  0
   -0.8560   15.9390   44.1340 F   0  0  0  0  0  0  0  0  0  0  0  0
    4.4950   16.8400   35.6170 O   0  0  0  0  0  0  0  0  0  0  0  0
    1.1312   15.3200   39.8357 H   0  0  0  0  0  0  0  0  0  0  0  0
    0.8331   16.6433   38.6993 H   0  0  0  0  0  0  0  0  0  0  0  0
    0.3130   18.7931   41.8979 H   0  0  0  0  0  0  0  0  0  0  0  0
    2.3703   17.3081   40.5324 H   0  0  0  0  0  0  0  0  0  0  0  0
    2.1077   17.9869   38.8836 H   0  0  0  0  0  0  0  0  0  0  0  0
    1.0682   14.9728   35.5039 H   0  0  0  0  0  0  0  0  0  0  0  0
    1.6769   16.4151   36.5108 H   0  0  0  0  0  0  0  0  0  0  0  0
    3.5139   16.2390   39.7541 H   0  0  0  0  0  0  0  0  0  0  0  0
    3.5312   15.0576   38.2699 H   0  0  0  0  0  0  0  0  0  0  0  0
   -1.1188   17.4439   43.3294 H   0  0  0  0  0  0  0  0  0  0  0  0
    3.7635   18.6346   36.1487 H   0  0  0  0  0  0  0  0  0  0  0  0
   -0.0100   21.2435   45.2693 H   0  0  0  0  0  0  0  0  0  0  0  0
    4.5376   20.7964   37.9240 H   0  0  0  0  0  0  0  0  0  0  0  0
   -1.5518   17.8569   45.6800 H   0  0  0  0  0  0  0  0  0  0  0  0
    1.8933   21.5830   39.8537 H   0  0  0  0  0  0  0  0  0  0  0  0
    4.2584   19.1145   40.1326 H   0  0  0  0  0  0  0  0  0  0  0  0
    4.2050   17.1874   40.0356 H   0  0  0  0  0  0  0  0  0  0  0  0
    3.3841   21.8046   38.2816 H   0  0  0  0  0  0  0  0  0  0  0  0
    5.6262   15.6184   38.0189 H   0  0  0  0  0  0  0  0  0  0  0  0
    5.6915   18.0395   38.0588 H   0  0  0  0  0  0  0  0  0  0  0  0
   -0.0171   14.5236   37.6594 H   0  0  0  0  0  0  0  0  0  0  0  0
    1.4975   13.6790   37.9667 H   0  0  0  0  0  0  0  0  0  0  0  0
    4.8507   17.7093   35.9299 H   0  0  0  0  0  0  0  0  0  0  0  0
  2  5  2  0
  3 16  2  0
  3 13  1  0
  4  9  1  0
  4  5  1  0
  4 26  1  0
  5 10  1  0
  6 20  1  0
  7 27  1  0
  8  1  1  0
  9 25  2  0
 10 28  1  0
 10 16  1  0
 11 26  2  0
 14 22  1  0
 14 18  1  0
 15 12  1  0
 15 23  1  0
 15 21  1  0
 17 20  1  0
 18 23  1  0
 18  8  1  0
 19  6  1  0
 20  9  1  0
 21 17  2  0
 23 19  1  0
 24  7  1  0
 24 14  1  0
 26  3  1  0
 27  1  1  0
 29 14  1  0
  1 30  1  0
  1 31  1  0
  4 32  1  0
  6 33  1  0
  6 34  1  0
  7 35  1  0
  7 36  1  0
  8 37  1  0
  8 38  1  0
 10 39  1  0
 12 40  1  0
 13 41  1  0
 15 42  1  0
 16 43  1  0
 17 44  1  0
 19 45  1  0
 19 46  1  0
 21 47  1  0
 22 48  1  0
 23 49  1  0
 27 50  1  0
 27 51  1  0
 29 52  1  0
M  END
>  <mol_id>  (67) 
2026-09-18-5lvo-s0-n100-0070

>  <rmsd_to_ref>  (67) 


$$$$

     RDKit          3D

 38 40  0  0  0  0  0  0  0  0999 V2000
    1.0240   14.6930   37.6290 C   0  0  0  0  0  0  0  0  0  0  0  0
    3.2870   17.7310   37.1750 C   0  0  0  0  0  0  0  0  0  0  0  0
   -0.5610   17.3630   44.7250 F   0  0  0  0  0  0  0  0  0  0  0  0
    1.2410   19.5690   42.6280 N   0  0  0  0  0  0  0  0  0  0  0  0
    2.5310   18.5870   39.6910 C   0  0  0  0  0  0  0  0  0  0  0  0
    2.0740   17.2990   39.2440 C   0  0  0  0  0  0  0  0  0  0  0  0
    3.3000   19.4480   38.8760 C   0  0  0  0  0  0  0  0  0  0  0  0
   -0.5320   15.6970   42.4160 C   0  0  0  0  0  0  0  0  0  0  0  0
    0.3420   19.1140   43.5380 C   0  0  0  0  0  0  0  0  0  0  0  0
    3.8980   20.9960   39.4000 S   0  0  0  0  0  0  0  0  0  0  0  0
    4.5580   20.1320   36.9630 C   0  0  0  0  0  0  0  0  0  0  0  0
    1.4640   20.3130   41.8520 N   0  0  0  0  0  0  0  0  0  0  0  0
    3.7040   19.0780   37.5530 C   0  0  0  0  0  0  0  0  0  0  0  0
    1.9150   15.6950   37.2840 C   0  0  0  0  0  0  0  0  0  0  0  0
   -0.3550   14.8180   41.2670 C   0  0  0  0  0  0  0  0  0  0  0  0
    1.2950   16.3890   40.0650 C   0  0  0  0  0  0  0  0  0  0  0  0
    4.5630   21.2550   37.8050 C   0  0  0  0  0  0  0  0  0  0  0  0
    0.4110   14.3190   38.8600 C   0  0  0  0  0  0  0  0  0  0  0  0
    0.3930   16.7060   42.7190 C   0  0  0  0  0  0  0  0  0  0  0  0
   -0.4800   19.8680   44.0960 O   0  0  0  0  0  0  0  0  0  0  0  0
    2.4330   16.9010   37.9050 C   0  0  0  0  0  0  0  0  0  0  0  0
    0.5000   15.1820   40.0130 C   0  0  0  0  0  0  0  0  0  0  0  0
    1.6260   17.4260   44.4060 F   0  0  0  0  0  0  0  0  0  0  0  0
    0.4180   17.5820   43.9640 C   0  0  0  0  0  0  0  0  0  0  0  0
    0.7297   14.0568   36.7813 H   0  0  0  0  0  0  0  0  0  0  0  0
    3.6815   17.3331   36.2284 H   0  0  0  0  0  0  0  0  0  0  0  0
    2.2716   18.9153   40.7083 H   0  0  0  0  0  0  0  0  0  0  0  0
   -1.4130   15.5655   43.0613 H   0  0  0  0  0  0  0  0  0  0  0  0
    5.1044   20.0486   36.0119 H   0  0  0  0  0  0  0  0  0  0  0  0
    2.3677   20.2873   41.3584 H   0  0  0  0  0  0  0  0  0  0  0  0
    2.3397   15.5368   36.2817 H   0  0  0  0  0  0  0  0  0  0  0  0
    0.0808   13.8901   41.6658 H   0  0  0  0  0  0  0  0  0  0  0  0
   -1.3682   14.8269   40.8389 H   0  0  0  0  0  0  0  0  0  0  0  0
    1.3180   16.7485   41.1044 H   0  0  0  0  0  0  0  0  0  0  0  0
    4.9579   22.2300   37.4833 H   0  0  0  0  0  0  0  0  0  0  0  0
   -0.1337   13.3660   38.9317 H   0  0  0  0  0  0  0  0  0  0  0  0
    1.1859   16.8839   41.9776 H   0  0  0  0  0  0  0  0  0  0  0  0
    3.3004   16.3365   38.2778 H   0  0  0  0  0  0  0  0  0  0  0  0
  1 18  1  0
  2 13  2  0
  4  9  1  0
  6  5  1  0
  6 16  2  0
  7 10  1  0
  7  5  2  0
  8 19  2  3
  9 24  1  0
  9 20  2  0
 11 13  1  0
 11 17  2  0
 12  4  2  3
 13  7  1  0
 14  1  2  0
 14 21  1  0
 15  8  1  0
 17 10  1  0
 18 22  2  0
 19 24  1  0
 21  2  1  0
 21  6  1  0
 22 16  1  0
 22 15  1  0
 24 23  1  0
 24  3  1  0
  1 25  1  0
  2 26  1  0
  5 27  1  0
  8 28  1  0
 11 29  1  0
 12 30  1  0
 14 31  1  0
 15 32  1  0
 15 33  1  0
 16 34  1  0
 17 35  1  0
 18 36  1  0
 19 37  1  0
 21 38  1  0
M  END
>  <mol_id>  (68) 
2026-09-18-5lvo-s0-n100-0071

>  <rmsd_to_ref>  (68) 


$$$$

     RDKit          3D

 39 40  0  0  0  0  0  0  0  0999 V2000
   -0.1290   20.3590   44.1890 C   0  0  0  0  0  0  0  0  0  0  0  0
    2.6600   19.7880   40.7570 C   0  0  0  0  0  0  0  0  0  0  0  0
    1.1940   15.8270   39.2040 C   0  0  0  0  0  0  0  0  0  0  0  0
    0.6490   20.2800   43.0480 C   0  0  0  0  0  0  0  0  0  0  0  0
    3.6320   16.9190   39.5840 C   0  0  0  0  0  0  0  0  0  0  0  0
    4.0800   18.2800   36.5560 O   0  0  0  0  0  0  0  0  0  0  0  0
    3.6710   18.3020   37.6520 C   0  0  0  0  0  0  0  0  0  0  0  0
    0.9390   17.8710   43.4330 C   0  0  0  0  0  0  0  0  0  0  0  0
    4.8160   20.8230   37.8260 N   0  0  0  0  0  4  0  0  0  0  0  0
    2.7650   17.7560   38.7190 C   0  0  0  0  0  0  0  0  0  0  0  0
   -0.1390   17.0130   45.3890 N   0  0  0  0  0  0  0  0  0  0  0  0
   -0.3690   14.9650   37.8160 O   0  0  0  0  0  1  0  0  0  0  0  0
    1.1440   19.0270   42.6700 C   0  0  0  0  0  0  0  0  0  0  0  0
    1.9760   18.7960   41.4610 C   0  0  0  0  0  0  0  0  0  0  0  0
    0.8530   15.2210   37.9040 C   0  0  0  0  0  0  0  0  0  0  0  0
    0.1500   18.0840   44.5950 C   0  0  0  0  0  0  0  0  0  0  0  0
    3.6910   19.8770   38.2190 C   0  0  0  0  0  0  0  0  0  0  0  0
    1.4600   16.2890   43.1310 Cl  0  0  0  0  0  0  0  0  0  0  0  0
   -0.3150   19.3300   44.9470 N   0  0  0  0  0  0  0  0  0  0  0  0
    3.7920   19.7750   39.7300 C   0  0  0  0  0  0  0  0  0  0  0  0
    2.3560   16.4450   38.7250 N   0  0  0  0  0  0  0  0  0  0  0  0
    1.6140   14.9660   36.8380 O   0  0  0  0  0  0  0  0  0  0  0  0
   -0.5986   21.3172   44.4560 H   0  0  0  0  0  0  0  0  0  0  0  0
    2.3067   20.8026   40.9932 H   0  0  0  0  0  0  0  0  0  0  0  0
    0.4382   16.5429   39.5592 H   0  0  0  0  0  0  0  0  0  0  0  0
    1.2802   15.1657   40.0788 H   0  0  0  0  0  0  0  0  0  0  0  0
    0.8726   21.1782   42.4537 H   0  0  0  0  0  0  0  0  0  0  0  0
    4.6548   16.6533   39.2785 H   0  0  0  0  0  0  0  0  0  0  0  0
    3.9680   16.8978   40.6312 H   0  0  0  0  0  0  0  0  0  0  0  0
    5.2618   21.1979   38.6755 H   0  0  0  0  0  0  0  0  0  0  0  0
    5.5151   20.3121   37.2682 H   0  0  0  0  0  0  0  0  0  0  0  0
    4.4326   21.5994   37.2682 H   0  0  0  0  0  0  0  0  0  0  0  0
    2.0963   18.6245   38.8112 H   0  0  0  0  0  0  0  0  0  0  0  0
   -0.7092   17.1398   46.2374 H   0  0  0  0  0  0  0  0  0  0  0  0
    0.2129   16.0775   45.1401 H   0  0  0  0  0  0  0  0  0  0  0  0
    2.0593   17.7630   41.0922 H   0  0  0  0  0  0  0  0  0  0  0  0
    2.7894   20.3156   37.7665 H   0  0  0  0  0  0  0  0  0  0  0  0
    4.3179   18.8256   39.9092 H   0  0  0  0  0  0  0  0  0  0  0  0
    4.2088   20.7724   39.9336 H   0  0  0  0  0  0  0  0  0  0  0  0
  1 19  2  0
  2 14  2  3
  4  1  1  0
  6  7  2  0
  7 17  1  0
  8 16  2  0
 10  7  1  0
 10 21  1  0
 10  5  1  0
 12 15  1  0
 13  4  2  0
 13  8  1  0
 14 13  1  0
 15  3  1  0
 16 19  1  0
 16 11  1  0
 17  9  1  0
 17 20  1  0
 18  8  1  0
 20  2  1  0
 21  3  1  0
 21  5  1  0
 22 15  2  0
  1 23  1  0
  2 24  1  0
  3 25  1  0
  3 26  1  0
  4 27  1  0
  5 28  1  0
  5 29  1  0
  9 30  1  0
  9 31  1  0
  9 32  1  0
 10 33  1  0
 11 34  1  0
 11 35  1  0
 14 36  1  0
 17 37  1  0
 20 38  1  0
 20 39  1  0
M  CHG  2   9   1  12  -1
M  END
>  <mol_id>  (69) 
2026-09-18-5lvo-s0-n100-0072

>  <rmsd_to_ref>  (69) 


$$$$

     RDKit          3D

 39 39  0  0  0  0  0  0  0  0999 V2000
    1.7240   18.3720   40.7090 N   0  0  0  0  0  4  0  0  0  0  0  0
    2.9170   16.0660   37.7440 C   0  0  0  0  0  0  0  0  0  0  0  0
    1.7870   16.8640   42.7040 S   0  0  0  0  0  0  0  0  0  0  0  0
    1.1270   19.5520   42.8430 C   0  0  0  0  0  0  0  0  0  0  0  0
    3.5860   17.1040   36.7740 C   0  0  0  0  0  0  0  0  0  0  0  0
    2.0160   18.5720   42.1460 C   0  0  0  0  0  0  0  0  0  0  0  0
    1.7130   15.4170   37.0480 C   0  0  0  0  0  0  0  0  0  0  0  0
    2.5980   19.0040   39.7320 C   0  0  0  0  0  0  0  0  0  0  0  0
    3.4960   18.4800   37.4950 C   0  0  0  0  0  0  0  0  0  0  0  0
    0.2260   15.5970   44.6000 C   0  0  0  0  0  0  0  0  0  0  0  0
    0.7170   16.9120   44.0120 C   0  0  0  0  0  0  0  0  0  0  0  0
    2.5910   18.4540   38.4830 N   0  0  0  0  0  0  0  0  0  0  0  0
    0.2600   18.1450   44.5670 C   0  0  0  0  0  0  0  0  0  0  0  0
    0.6160   15.0650   38.0560 C   0  0  0  0  0  0  0  0  0  0  0  0
    4.1850   19.4630   37.2470 O   0  0  0  0  0  0  0  0  0  0  0  0
    0.3550   19.2710   43.9230 N   0  0  0  0  0  0  0  0  0  0  0  0
    3.5090   20.1040   40.1740 C   0  0  0  0  0  0  0  0  0  0  0  0
    1.7507   17.3579   40.5308 H   0  0  0  0  0  0  0  0  0  0  0  0
    0.8128   18.8312   40.5689 H   0  0  0  0  0  0  0  0  0  0  0  0
    3.6487   15.2892   38.0109 H   0  0  0  0  0  0  0  0  0  0  0  0
    2.5796   16.5809   38.6556 H   0  0  0  0  0  0  0  0  0  0  0  0
    1.0966   20.5790   42.4502 H   0  0  0  0  0  0  0  0  0  0  0  0
    3.0449   17.1373   35.8169 H   0  0  0  0  0  0  0  0  0  0  0  0
    4.6281   16.8332   36.5487 H   0  0  0  0  0  0  0  0  0  0  0  0
    2.9967   19.0236   42.3563 H   0  0  0  0  0  0  0  0  0  0  0  0
    1.3063   16.1191   36.3053 H   0  0  0  0  0  0  0  0  0  0  0  0
    2.0496   14.4900   36.5609 H   0  0  0  0  0  0  0  0  0  0  0  0
    3.3818   18.2652   39.9552 H   0  0  0  0  0  0  0  0  0  0  0  0
    0.2479   15.6556   45.6982 H   0  0  0  0  0  0  0  0  0  0  0  0
   -0.8038   15.4066   44.2634 H   0  0  0  0  0  0  0  0  0  0  0  0
    0.8790   14.7783   44.2634 H   0  0  0  0  0  0  0  0  0  0  0  0
    1.7367   17.9237   38.2596 H   0  0  0  0  0  0  0  0  0  0  0  0
   -0.1871   18.1429   45.5720 H   0  0  0  0  0  0  0  0  0  0  0  0
    1.0035   15.1893   39.0780 H   0  0  0  0  0  0  0  0  0  0  0  0
   -0.2463   15.7316   37.9072 H   0  0  0  0  0  0  0  0  0  0  0  0
    0.3025   14.0212   37.9072 H   0  0  0  0  0  0  0  0  0  0  0  0
    3.5369   20.1376   41.2731 H   0  0  0  0  0  0  0  0  0  0  0  0
    4.5219   19.9190   39.7870 H   0  0  0  0  0  0  0  0  0  0  0  0
    3.1385   21.0647   39.7870 H   0  0  0  0  0  0  0  0  0  0  0  0
  3 11  1  0
  4 16  2  0
  5  9  1  0
  5  2  1  0
  6  1  1  0
  6  3  1  0
  6  4  1  0
  7  2  1  0
  7 14  1  0
  8 17  1  0
  8  1  1  0
  9 12  1  0
 11 13  2  0
 11 10  1  0
 12  8  1  0
 15  9  2  0
 16 13  1  0
  1 18  1  0
  1 19  1  0
  2 20  1  0
  2 21  1  0
  4 22  1  0
  5 23  1  0
  5 24  1  0
  6 25  1  0
  7 26  1  0
  7 27  1  0
  8 28  1  0
 10 29  1  0
 10 30  1  0
 10 31  1  0
 12 32  1  0
 13 33  1  0
 14 34  1  0
 14 35  1  0
 14 36  1  0
 17 37  1  0
 17 38  1  0
 17 39  1  0
M  CHG  1   1   1
M  END
>  <mol_id>  (70) 
2026-09-18-5lvo-s0-n100-0073

>  <rmsd_to_ref>  (70) 


$$$$

     RDKit          3D

 37 39  0  0  0  0  0  0  0  0999 V2000
   -1.0770   15.6030   45.8300 C   0  0  0  0  0  0  0  0  0  0  0  0
    2.0800   17.7250   38.6070 C   0  0  0  0  0  0  0  0  0  0  0  0
    3.8680   19.6570   36.5590 O   0  0  0  0  0  0  0  0  0  0  0  0
    3.3010   20.2770   38.5000 O   0  0  0  0  0  1  0  0  0  0  0  0
    4.7540   16.2660   37.3520 O   0  0  0  0  0  1  0  0  0  0  0  0
   -0.8090   15.1670   43.3580 C   0  0  0  0  0  0  0  0  0  0  0  0
    3.5860   19.4320   37.6600 C   0  0  0  0  0  0  0  0  0  0  0  0
    2.2110   17.0730   39.9320 C   0  0  0  0  0  0  0  0  0  0  0  0
   -1.1990   14.6610   44.6640 C   0  0  0  0  0  0  0  0  0  0  0  0
    3.5220   18.0150   38.0660 C   0  0  0  0  0  0  0  0  0  0  0  0
   -0.3350   19.9610   44.6560 N   0  0  0  0  0  0  0  0  0  0  0  0
    2.8660   16.4400   36.3470 O   0  0  0  0  0  0  0  0  0  0  0  0
    3.7140   16.8760   37.1470 C   0  0  0  0  0  0  0  0  0  0  0  0
    0.6700   16.7820   42.1990 N   0  0  0  0  0  0  0  0  0  0  0  0
    0.8660   19.0750   42.9510 C   0  0  0  0  0  0  0  0  0  0  0  0
   -1.0210   14.4950   42.1730 O   0  0  0  0  0  0  0  0  0  0  0  0
   -0.2530   17.3930   44.4150 C   0  0  0  0  0  0  0  0  0  0  0  0
   -0.1240   16.5100   43.2800 C   0  0  0  0  0  0  0  0  0  0  0  0
    0.1340   21.0740   43.8910 N   0  0  0  0  0  0  0  0  0  0  0  0
    2.2940   18.2410   40.9910 C   0  0  0  0  0  0  0  0  0  0  0  0
    1.2860   18.0090   42.0420 C   0  0  0  0  0  0  0  0  0  0  0  0
    0.0480   18.7950   44.0700 C   0  0  0  0  0  0  0  0  0  0  0  0
    0.9820   20.5190   42.9470 C   0  0  0  0  0  0  0  0  0  0  0  0
   -0.6220   16.9040   45.7130 C   0  0  0  0  0  0  0  0  0  0  0  0
   -1.3644   15.2386   46.8273 H   0  0  0  0  0  0  0  0  0  0  0  0
    1.5482   17.0573   37.9132 H   0  0  0  0  0  0  0  0  0  0  0  0
    1.5096   18.6613   38.6963 H   0  0  0  0  0  0  0  0  0  0  0  0
    1.3357   16.4378   40.1327 H   0  0  0  0  0  0  0  0  0  0  0  0
    3.1013   16.4284   39.9754 H   0  0  0  0  0  0  0  0  0  0  0  0
   -1.5677   13.6328   44.7938 H   0  0  0  0  0  0  0  0  0  0  0  0
    4.4062   18.0106   38.7204 H   0  0  0  0  0  0  0  0  0  0  0  0
   -0.7299   14.8976   41.3167 H   0  0  0  0  0  0  0  0  0  0  0  0
    3.2977   18.2605   41.4406 H   0  0  0  0  0  0  0  0  0  0  0  0
    2.1008   19.2047   40.4971 H   0  0  0  0  0  0  0  0  0  0  0  0
   -0.8436   18.8281   43.4265 H   0  0  0  0  0  0  0  0  0  0  0  0
    1.6492   21.0934   42.2875 H   0  0  0  0  0  0  0  0  0  0  0  0
   -0.5444   17.5520   46.5985 H   0  0  0  0  0  0  0  0  0  0  0  0
  2  8  1  0
  3  7  2  0
  6  9  1  0
  7 10  1  0
  7  4  1  0
  8 20  1  0
  9  1  2  0
 10  2  1  0
 12 13  2  0
 13  5  1  0
 13 10  1  0
 14 18  1  0
 16  6  1  0
 17 24  2  0
 18  6  2  0
 18 17  1  0
 19 11  2  0
 20 21  1  0
 21 14  2  0
 21 15  1  0
 22 15  1  0
 22 17  1  0
 22 11  1  0
 23 15  2  0
 23 19  1  0
 24  1  1  0
  1 25  1  0
  2 26  1  0
  2 27  1  0
  8 28  1  0
  8 29  1  0
  9 30  1  0
 10 31  1  0
 16 32  1  0
 20 33  1  0
 20 34  1  0
 22 35  1  0
 23 36  1  0
 24 37  1  0
M  CHG  2   4  -1   5  -1
M  END
>  <mol_id>  (71) 
2026-09-18-5lvo-s0-n100-0074

>  <rmsd_to_ref>  (71) 


$$$$

     RDKit          3D

 39 42  0  0  0  0  0  0  0  0999 V2000
    2.1140   20.0580   41.9340 C   0  0  0  0  0  0  0  0  0  0  0  0
   -0.1710   17.7290   44.6220 C   0  0  0  0  0  0  0  0  0  0  0  0
    1.0410   15.0540   37.5960 C   0  0  0  0  0  0  0  0  0  0  0  0
    0.0740   20.3340   44.7090 O   0  0  0  0  0  0  0  0  0  0  0  0
    1.0830   17.8700   42.3240 C   0  0  0  0  0  0  0  0  0  0  0  0
    1.4510   20.6610   42.9010 C   0  0  0  0  0  0  0  0  0  0  0  0
    0.6900   19.8620   43.7990 C   0  0  0  0  0  0  0  0  0  0  0  0
    2.5980   16.6390   36.6600 C   0  0  0  0  0  0  0  0  0  0  0  0
    3.6180   18.2440   38.0710 N   0  0  0  0  0  0  0  0  0  0  0  0
    4.1200   19.8880   38.2320 C   0  0  0  0  0  0  0  0  0  0  0  0
    3.7740   18.4650   35.7440 O   0  0  0  0  0  0  0  0  0  0  0  0
   -0.7060   17.7230   45.7890 C   0  0  0  0  0  0  0  0  0  0  0  0
    3.2950   17.8440   36.7080 C   0  0  0  0  0  0  0  0  0  0  0  0
    1.9520   18.6720   41.6240 C   0  0  0  0  0  0  0  0  0  0  0  0
    1.2370   13.9430   37.1010 O   0  0  0  0  0  0  0  0  0  0  0  0
   -0.1300   15.6270   37.6310 N   0  0  0  0  0  0  0  0  0  0  0  0
    2.2290   15.9960   38.0990 C   0  0  0  0  0  0  0  0  0  0  0  0
    0.7920   16.4210   41.9510 C   0  0  0  0  0  0  0  0  0  0  0  0
    2.6890   18.0380   40.6230 C   0  0  0  0  0  0  0  0  0  0  0  0
    0.5370   18.4750   43.5460 C   0  0  0  0  0  0  0  0  0  0  0  0
    1.9110   16.6030   39.7230 S   0  0  0  0  0  4  0  0  0  0  0  0
    3.5370   18.8050   39.4090 C   0  0  0  0  0  0  0  0  0  0  0  0
    1.4870   15.7770   40.7210 C   0  0  0  0  0  0  0  0  0  0  0  0
    2.8250   20.6490   41.3380 H   0  0  0  0  0  0  0  0  0  0  0  0
   -0.2925   16.7053   44.2382 H   0  0  0  0  0  0  0  0  0  0  0  0
    1.4854   21.7550   43.0108 H   0  0  0  0  0  0  0  0  0  0  0  0
    1.6589   16.8111   36.1137 H   0  0  0  0  0  0  0  0  0  0  0  0
    3.2684   15.9190   36.1678 H   0  0  0  0  0  0  0  0  0  0  0  0
    5.1817   20.1723   38.1874 H   0  0  0  0  0  0  0  0  0  0  0  0
    3.8733   20.8766   37.8175 H   0  0  0  0  0  0  0  0  0  0  0  0
   -1.1543   16.7993   46.1838 H   0  0  0  0  0  0  0  0  0  0  0  0
   -0.7162   18.6415   46.3941 H   0  0  0  0  0  0  0  0  0  0  0  0
   -0.2351   16.5583   38.0582 H   0  0  0  0  0  0  0  0  0  0  0  0
   -0.9498   15.1482   37.2315 H   0  0  0  0  0  0  0  0  0  0  0  0
    3.2281   15.7780   38.5044 H   0  0  0  0  0  0  0  0  0  0  0  0
    0.0877   15.8300   42.5549 H   0  0  0  0  0  0  0  0  0  0  0  0
    1.4843   18.2753   44.0682 H   0  0  0  0  0  0  0  0  0  0  0  0
    3.6695   19.0571   40.4715 H   0  0  0  0  0  0  0  0  0  0  0  0
    1.6326   14.6886   40.6570 H   0  0  0  0  0  0  0  0  0  0  0  0
  1  6  2  0
  2 12  2  3
  3 16  1  0
  5 20  1  0
  6  7  1  0
  7  4  2  0
  8 13  1  0
  8 17  1  0
  9 10  1  0
  9 22  1  0
 11 13  2  0
 13  9  1  0
 14  1  1  0
 14  5  2  0
 15  3  2  0
 17  3  1  0
 17 21  1  0
 18  5  1  0
 19 14  1  0
 20  7  1  0
 20  2  1  0
 21 19  2  0
 21 23  1  0
 22 10  1  0
 22 19  1  0
 23 18  2  0
  1 24  1  0
  2 25  1  0
  6 26  1  0
  8 27  1  0
  8 28  1  0
 10 29  1  0
 10 30  1  0
 12 31  1  0
 12 32  1  0
 16 33  1  0
 16 34  1  0
 17 35  1  0
 18 36  1  0
 20 37  1  0
 22 38  1  0
 23 39  1  0
M  END
>  <mol_id>  (72) 
2026-09-18-5lvo-s0-n100-0075

>  <rmsd_to_ref>  (72) 


$$$$

     RDKit          3D

 62 64  0  0  0  0  0  0  0  0999 V2000
    3.1620   18.7420   40.7850 O   0  0  0  0  0  0  0  0  0  0  0  0
    3.5660   19.8550   36.4440 O   0  0  0  0  0  0  0  0  0  0  0  0
   -1.2810   15.4850   44.6440 C   0  0  0  0  0  0  0  0  0  0  0  0
    3.0400   18.0120   37.8430 C   0  0  0  0  0  0  0  0  0  0  0  0
   -0.4100   17.6340   44.9430 C   0  0  0  0  0  0  0  0  0  0  0  0
    6.1710   15.2770   38.5590 O   0  0  0  0  0  0  0  0  0  0  0  0
    1.1750   18.7570   43.7210 O   0  0  0  0  0  0  0  0  0  0  0  0
    2.4940   20.5890   42.3170 O   0  0  0  0  0  0  0  0  0  0  0  0
    2.8720   21.6750   37.7920 C   0  0  0  0  0  0  0  0  0  0  0  0
   -1.1990   16.6850   45.4110 C   0  0  0  0  0  0  0  0  0  0  0  0
    4.9680   15.0560   39.3160 N   0  0  0  0  0  0  0  0  0  0  0  0
   -0.4150   15.3260   43.5600 C   0  0  0  0  0  0  0  0  0  0  0  0
    1.2370   13.7100   37.6340 C   0  0  0  0  0  0  0  0  0  0  0  0
    3.0240   17.4270   40.2610 C   0  0  0  0  0  0  0  0  0  0  0  0
    2.4900   19.4020   41.7560 C   0  0  0  0  0  0  0  0  0  0  0  0
    2.4100   15.6590   36.8250 O   0  0  0  0  0  0  0  0  0  0  0  0
    3.7000   17.1880   38.8720 C   0  0  0  0  0  0  0  0  0  0  0  0
    3.6490   19.3450   37.9140 C   0  0  0  0  0  0  0  0  0  0  0  0
    1.7350   20.4270   39.5930 O   0  0  0  0  0  0  0  0  0  0  0  0
    3.6600   21.1800   36.5990 C   0  0  0  0  0  0  0  0  0  0  0  0
    0.4440   17.5280   43.8020 C   0  0  0  0  0  0  0  0  0  0  0  0
    4.7600   13.7520   39.3260 C   0  0  0  0  0  0  0  0  0  0  0  0
    4.0450   15.7250   38.4850 C   0  0  0  0  0  0  0  0  0  0  0  0
    0.3770   12.5540   37.2260 C   0  0  0  0  0  0  0  0  0  0  0  0
    0.4210   16.4090   42.9380 C   0  0  0  0  0  0  0  0  0  0  0  0
   -0.2560   18.8750   45.6120 O   0  0  0  0  0  0  0  0  0  0  0  0
    2.7620   20.3690   38.5870 C   0  0  0  0  0  0  0  0  0  0  0  0
    2.3950   14.4870   37.3010 C   0  0  0  0  0  0  0  0  0  0  0  0
    1.5770   18.5270   42.3560 C   0  0  0  0  0  0  0  0  0  0  0  0
    3.5470   15.2560   37.1920 C   0  0  0  0  0  0  0  0  0  0  0  0
   -2.1050   14.6690   44.9840 O   0  0  0  0  0  0  0  0  0  0  0  0
    3.2009   17.5745   36.8466 H   0  0  0  0  0  0  0  0  0  0  0  0
    1.9547   18.0638   38.0145 H   0  0  0  0  0  0  0  0  0  0  0  0
    6.9301   15.4165   39.1790 H   0  0  0  0  0  0  0  0  0  0  0  0
    1.8844   22.0609   37.4992 H   0  0  0  0  0  0  0  0  0  0  0  0
    3.3274   22.5156   38.3360 H   0  0  0  0  0  0  0  0  0  0  0  0
   -1.7649   16.8130   46.3455 H   0  0  0  0  0  0  0  0  0  0  0  0
   -0.3380   14.3195   43.1230 H   0  0  0  0  0  0  0  0  0  0  0  0
    0.4790   14.5059   37.6780 H   0  0  0  0  0  0  0  0  0  0  0  0
    1.8507   13.0454   38.2599 H   0  0  0  0  0  0  0  0  0  0  0  0
    3.4699   16.7254   40.9814 H   0  0  0  0  0  0  0  0  0  0  0  0
    1.9460   17.2726   40.1057 H   0  0  0  0  0  0  0  0  0  0  0  0
    4.7343   17.5508   38.9643 H   0  0  0  0  0  0  0  0  0  0  0  0
    4.6224   19.2566   38.4187 H   0  0  0  0  0  0  0  0  0  0  0  0
    2.1510   20.4035   40.4910 H   0  0  0  0  0  0  0  0  0  0  0  0
    4.7182   21.4458   36.7389 H   0  0  0  0  0  0  0  0  0  0  0  0
    3.2425   21.6550   35.6989 H   0  0  0  0  0  0  0  0  0  0  0  0
    1.2354   17.0990   44.4342 H   0  0  0  0  0  0  0  0  0  0  0  0
    4.7035   13.3977   40.3658 H   0  0  0  0  0  0  0  0  0  0  0  0
    3.8147   13.5275   38.8102 H   0  0  0  0  0  0  0  0  0  0  0  0
    5.5886   13.2446   38.8102 H   0  0  0  0  0  0  0  0  0  0  0  0
    3.4843   14.8206   38.7636 H   0  0  0  0  0  0  0  0  0  0  0  0
   -0.0022   12.0442   38.1240 H   0  0  0  0  0  0  0  0  0  0  0  0
   -0.4699   12.9204   36.6272 H   0  0  0  0  0  0  0  0  0  0  0  0
    0.9714   11.8482   36.6272 H   0  0  0  0  0  0  0  0  0  0  0  0
    0.9328   16.3419   41.9666 H   0  0  0  0  0  0  0  0  0  0  0  0
    0.3430   19.5684   45.2372 H   0  0  0  0  0  0  0  0  0  0  0  0
    2.9392   19.6833   39.4286 H   0  0  0  0  0  0  0  0  0  0  0  0
    2.3570   13.4173   37.5547 H   0  0  0  0  0  0  0  0  0  0  0  0
    0.6631   18.5471   41.7442 H   0  0  0  0  0  0  0  0  0  0  0  0
    2.1211   17.5720   42.4011 H   0  0  0  0  0  0  0  0  0  0  0  0
    4.5360   15.1943   36.7145 H   0  0  0  0  0  0  0  0  0  0  0  0
  1 15  1  0
  2 20  1  0
  2 18  1  0
  3 31  2  0
  3 10  1  0
  5 10  2  0
  5 26  1  0
  6 11  1  0
  9 27  1  0
 11 22  1  0
 12  3  1  0
 14  1  1  0
 15  8  2  0
 15 29  1  0
 16 30  1  0
 16 28  1  0
 17  4  1  0
 17 14  1  0
 18  4  1  0
 18 27  1  0
 20  9  1  0
 21  7  1  0
 21  5  1  0
 23 17  1  0
 23 11  1  0
 24 13  1  0
 25 12  2  0
 25 21  1  0
 27 19  1  0
 28 13  1  0
 29  7  1  0
 30 28  1  0
 30 23  1  0
  4 32  1  0
  4 33  1  0
  6 34  1  0
  9 35  1  0
  9 36  1  0
 10 37  1  0
 12 38  1  0
 13 39  1  0
 13 40  1  0
 14 41  1  0
 14 42  1  0
 17 43  1  0
 18 44  1  0
 19 45  1  0
 20 46  1  0
 20 47  1  0
 21 48  1  0
 22 49  1  0
 22 50  1  0
 22 51  1  0
 23 52  1  0
 24 53  1  0
 24 54  1  0
 24 55  1  0
 25 56  1  0
 26 57  1  0
 27 58  1  0
 28 59  1  0
 29 60  1  0
 29 61  1  0
 30 62  1  0
M  END
>  <mol_id>  (73) 
2026-09-18-5lvo-s0-n100-0076

>  <rmsd_to_ref>  (73) 


$$$$

     RDKit          3D

 64 67  0  0  0  0  0  0  0  0999 V2000
   -0.0960   17.3560   46.1000 C   0  0  0  0  0  0  0  0  0  0  0  0
    3.5600   18.5350   37.2470 C   0  0  0  0  0  0  0  0  0  0  0  0
    3.7270   20.6640   36.0660 C   0  0  0  0  0  0  0  0  0  0  0  0
    5.2910   14.7650   37.5210 O   0  0  0  0  0  0  0  0  0  0  0  0
    1.9390   14.4650   39.1090 C   0  0  0  0  0  0  0  0  0  0  0  0
    1.4170   16.9810   42.7110 C   0  0  0  0  0  0  0  0  0  0  0  0
    1.4420   19.4850   41.9380 C   0  0  0  0  0  0  0  0  0  0  0  0
   -0.7200   19.7560   45.2310 N   0  0  0  0  0  0  0  0  0  0  0  0
   -0.1760   18.2990   45.1170 C   0  0  0  0  0  0  0  0  0  0  0  0
    3.3580   18.5060   39.6440 N   0  0  0  0  0  0  0  0  0  0  0  0
   -0.1630   20.1060   44.0340 C   0  0  0  0  0  0  0  0  0  0  0  0
   -0.0820   15.4320   37.8270 C   0  0  0  0  0  0  0  0  0  0  0  0
    5.2330   14.3630   39.9540 O   0  0  0  0  0  0  0  0  0  0  0  0
    0.2970   18.8170   43.9440 C   0  0  0  0  0  0  0  0  0  0  0  0
    2.1720   16.6200   41.7350 C   0  0  0  0  0  0  0  0  0  0  0  0
    6.2770   16.3420   39.0580 O   0  0  0  0  0  0  0  0  0  0  0  0
    2.3650   12.3780   40.3920 N   0  0  0  0  0  0  0  0  0  0  0  0
    0.0920   21.0790   43.1610 C   0  0  0  0  0  0  0  0  0  0  0  0
    1.0560   18.3740   42.9010 C   0  0  0  0  0  0  0  0  0  0  0  0
    3.7570   16.2900   38.8770 C   0  0  0  0  0  0  0  0  0  0  0  0
    0.9400   20.7260   42.1550 C   0  0  0  0  0  0  0  0  0  0  0  0
    3.6210   19.2370   36.0570 C   0  0  0  0  0  0  0  0  0  0  0  0
    5.1750   15.3190   38.8820 P   0  0  0  0  0  5  0  0  0  0  0  0
   -0.0970   13.0670   38.6570 N   0  0  0  0  0  4  0  0  0  0  0  0
    1.7740   16.7760   40.2470 C   0  0  0  0  0  0  0  0  0  0  0  0
    3.4240   19.2500   38.3850 C   0  0  0  0  0  0  0  0  0  0  0  0
    0.3680   14.4890   38.9080 C   0  0  0  0  0  0  0  0  0  0  0  0
    3.6980   21.3120   37.2700 C   0  0  0  0  0  0  0  0  0  0  0  0
    2.3230   13.5040   40.2010 C   0  0  0  0  0  0  0  0  0  0  0  0
    2.8860   15.5170   38.5210 N   0  0  0  0  0  4  0  0  0  0  0  0
    3.6320   20.6630   38.4590 C   0  0  0  0  0  0  0  0  0  0  0  0
    2.9760   17.3200   39.4830 C   0  0  0  0  0  0  0  0  0  0  0  0
    0.3137   16.3603   45.8749 H   0  0  0  0  0  0  0  0  0  0  0  0
   -0.4412   17.5916   47.1175 H   0  0  0  0  0  0  0  0  0  0  0  0
    3.6199   17.4368   37.2661 H   0  0  0  0  0  0  0  0  0  0  0  0
    3.8294   21.2267   35.1264 H   0  0  0  0  0  0  0  0  0  0  0  0
    2.4536   14.1930   38.1756 H   0  0  0  0  0  0  0  0  0  0  0  0
    1.0389   16.2228   43.4126 H   0  0  0  0  0  0  0  0  0  0  0  0
    2.1110   19.2875   41.0874 H   0  0  0  0  0  0  0  0  0  0  0  0
    3.5982   18.9101   40.5605 H   0  0  0  0  0  0  0  0  0  0  0  0
   -0.5129   16.3350   38.2841 H   0  0  0  0  0  0  0  0  0  0  0  0
    0.7794   15.7123   37.2030 H   0  0  0  0  0  0  0  0  0  0  0  0
   -0.8418   14.9387   37.2030 H   0  0  0  0  0  0  0  0  0  0  0  0
    5.2042   14.8383   40.8220 H   0  0  0  0  0  0  0  0  0  0  0  0
    3.1101   17.1816   41.8563 H   0  0  0  0  0  0  0  0  0  0  0  0
    2.1616   15.5258   41.8475 H   0  0  0  0  0  0  0  0  0  0  0  0
    6.4377   16.4912   40.0234 H   0  0  0  0  0  0  0  0  0  0  0  0
    2.6959   12.0216   41.3000 H   0  0  0  0  0  0  0  0  0  0  0  0
   -0.3459   22.0845   43.2453 H   0  0  0  0  0  0  0  0  0  0  0  0
    4.4836   17.0848   38.6526 H   0  0  0  0  0  0  0  0  0  0  0  0
    1.2449   21.5187   41.4560 H   0  0  0  0  0  0  0  0  0  0  0  0
    3.5879   18.6962   35.0997 H   0  0  0  0  0  0  0  0  0  0  0  0
   -0.2522   12.5925   39.5579 H   0  0  0  0  0  0  0  0  0  0  0  0
   -0.9766   13.0829   38.1213 H   0  0  0  0  0  0  0  0  0  0  0  0
    0.6221   12.5601   38.1213 H   0  0  0  0  0  0  0  0  0  0  0  0
    1.4835   15.7981   39.8354 H   0  0  0  0  0  0  0  0  0  0  0  0
    0.9223   17.4659   40.1534 H   0  0  0  0  0  0  0  0  0  0  0  0
   -0.0984   14.8821   39.8234 H   0  0  0  0  0  0  0  0  0  0  0  0
    3.7297   22.4115   37.2742 H   0  0  0  0  0  0  0  0  0  0  0  0
    2.6699   14.0542   41.0881 H   0  0  0  0  0  0  0  0  0  0  0  0
    2.2209   16.1565   38.0631 H   0  0  0  0  0  0  0  0  0  0  0  0
    3.5717   14.8050   38.2316 H   0  0  0  0  0  0  0  0  0  0  0  0
    3.7321   21.1900   39.4194 H   0  0  0  0  0  0  0  0  0  0  0  0
    2.7031   17.9044   38.5919 H   0  0  0  0  0  0  0  0  0  0  0  0
  2 26  2  0
  3 28  1  0
  4 23  2  0
  5 29  1  0
  6 19  2  3
  7 21  2  0
  7 19  1  0
  9  8  1  0
  9  1  2  3
 11  8  1  0
 14 19  1  0
 14 11  1  0
 14  9  1  0
 14  8  1  0
 15  6  1  0
 18 11  2  0
 20 30  1  0
 20 23  1  0
 20 32  1  0
 21 18  1  0
 22  3  2  0
 22  2  1  0
 23 16  1  0
 23 13  1  0
 24 27  1  0
 25 15  1  0
 26 31  1  0
 26 10  1  0
 27 12  1  0
 27  5  1  0
 28 31  2  0
 29 17  2  3
 30  5  1  0
 32 10  1  0
 32 25  1  0
  1 33  1  0
  1 34  1  0
  2 35  1  0
  3 36  1  0
  5 37  1  0
  6 38  1  0
  7 39  1  0
 10 40  1  0
 12 41  1  0
 12 42  1  0
 12 43  1  0
 13 44  1  0
 15 45  1  0
 15 46  1  0
 16 47  1  0
 17 48  1  0
 18 49  1  0
 20 50  1  0
 21 51  1  0
 22 52  1  0
 24 53  1  0
 24 54  1  0
 24 55  1  0
 25 56  1  0
 25 57  1  0
 27 58  1  0
 28 59  1  0
 29 60  1  0
 30 61  1  0
 30 62  1  0
 31 63  1  0
 32 64  1  0
M  CHG  2  24   1  30   1
M  END
>  <mol_id>  (74) 
2026-09-18-5lvo-s0-n100-0077

>  <rmsd_to_ref>  (74) 


$$$$

     RDKit          3D

 32 32  0  0  0  0  0  0  0  0999 V2000
    2.3580   17.8200   41.7280 C   0  0  0  0  0  0  0  0  0  0  0  0
    1.2530   18.7730   43.6190 C   0  0  0  0  0  0  0  0  0  0  0  0
    4.1460   16.9300   35.9900 C   0  0  0  0  0  0  0  0  0  0  0  0
    0.0700   19.6580   44.0770 C   0  0  0  0  0  0  0  0  0  0  0  0
    1.1690   15.6350   40.8590 O   0  0  0  0  0  0  0  0  0  0  0  0
    3.8280   19.2210   36.1550 N   0  0  0  0  0  0  0  0  0  0  0  0
   -0.0140   20.7610   43.4420 O   0  0  0  0  0  0  0  0  0  0  0  0
    3.7430   17.8440   39.5690 C   0  0  0  0  0  0  0  0  0  0  0  0
    3.8690   18.1030   38.1370 N   0  0  0  0  0  0  0  0  0  0  0  0
    3.7280   20.2510   38.1200 O   0  0  0  0  0  0  0  0  0  0  0  0
    1.0320   17.8370   42.4480 C   0  0  0  0  0  0  0  0  0  0  0  0
    2.1260   16.0890   39.8680 C   0  0  0  0  0  0  0  0  0  0  0  0
   -0.7170   19.2730   44.8730 O   0  0  0  0  0  1  0  0  0  0  0  0
    2.4340   17.5620   40.2320 C   0  0  0  0  0  0  0  0  0  0  0  0
    4.0010   16.8450   37.4040 C   0  0  0  0  0  0  0  0  0  0  0  0
    3.7620   19.2560   37.4550 C   0  0  0  0  0  0  0  0  0  0  0  0
    4.0880   18.1490   35.3700 C   0  0  0  0  0  0  0  0  0  0  0  0
    2.8194   18.8037   41.8994 H   0  0  0  0  0  0  0  0  0  0  0  0
    2.8515   16.9328   42.1515 H   0  0  0  0  0  0  0  0  0  0  0  0
    2.0790   19.4467   43.3474 H   0  0  0  0  0  0  0  0  0  0  0  0
    1.4413   18.1046   44.4721 H   0  0  0  0  0  0  0  0  0  0  0  0
    4.3044   16.0173   35.3967 H   0  0  0  0  0  0  0  0  0  0  0  0
    1.5274   15.8050   41.7660 H   0  0  0  0  0  0  0  0  0  0  0  0
    4.3821   16.9732   39.7770 H   0  0  0  0  0  0  0  0  0  0  0  0
    3.9983   18.8260   39.9939 H   0  0  0  0  0  0  0  0  0  0  0  0
    0.2364   18.2171   41.7903 H   0  0  0  0  0  0  0  0  0  0  0  0
    0.7143   16.8333   42.7668 H   0  0  0  0  0  0  0  0  0  0  0  0
    1.6933   16.0252   38.8587 H   0  0  0  0  0  0  0  0  0  0  0  0
    3.0359   15.4708   39.8672 H   0  0  0  0  0  0  0  0  0  0  0  0
    1.6805   18.2744   39.8651 H   0  0  0  0  0  0  0  0  0  0  0  0
    3.9888   15.8748   37.9223 H   0  0  0  0  0  0  0  0  0  0  0  0
    4.2451   18.2526   34.2862 H   0  0  0  0  0  0  0  0  0  0  0  0
  1 11  1  0
  2  4  1  0
  3 15  2  0
  4 13  1  0
  6 16  1  0
  7  4  2  0
  9  8  1  0
 11  2  1  0
 12 14  1  0
 12  5  1  0
 14  8  1  0
 14  1  1  0
 15  9  1  0
 16 10  2  0
 16  9  1  0
 17  3  1  0
 17  6  2  0
  1 18  1  0
  1 19  1  0
  2 20  1  0
  2 21  1  0
  3 22  1  0
  5 23  1  0
  8 24  1  0
  8 25  1  0
 11 26  1  0
 11 27  1  0
 12 28  1  0
 12 29  1  0
 14 30  1  0
 15 31  1  0
 17 32  1  0
M  CHG  1  13  -1
M  END
>  <mol_id>  (75) 
2026-09-18-5lvo-s0-n100-0078

>  <rmsd_to_ref>  (75) 


$$$$

     RDKit          3D

 42 43  0  0  0  0  0  0  0  0999 V2000
   -1.1540   16.3200   43.9190 C   0  0  0  0  0  0  0  0  0  0  0  0
    3.3640   16.3720   36.0810 C   0  0  0  0  0  0  0  0  0  0  0  0
   -0.0180   20.7520   44.1050 O   0  0  0  0  0  0  0  0  0  0  0  0
   -0.1400   18.4820   43.9790 C   0  0  0  0  0  0  0  0  0  0  0  0
    1.0250   19.8720   42.4000 N   0  0  0  0  0  0  0  0  0  0  0  0
   -0.6970   17.4090   46.0650 C   0  0  0  0  0  0  0  0  0  0  0  0
    3.4180   17.8330   36.5480 C   0  0  0  0  0  0  0  0  0  0  0  0
    3.6400   18.8000   38.7340 C   0  0  0  0  0  0  0  0  0  0  0  0
    1.9510   18.9410   42.0750 C   0  0  0  0  0  0  0  0  0  0  0  0
    0.2720   19.7580   43.4720 C   0  0  0  0  0  0  0  0  0  0  0  0
    1.8690   15.9990   37.8060 C   0  0  0  0  0  0  0  0  0  0  0  0
    3.0060   16.4600   38.5300 C   0  0  0  0  0  0  0  0  0  0  0  0
   -0.6640   17.3910   43.2690 C   0  0  0  0  0  0  0  0  0  0  0  0
    3.3900   18.4960   40.1110 C   0  0  0  0  0  0  0  0  0  0  0  0
    4.1490   19.7860   38.3820 O   0  0  0  0  0  0  0  0  0  0  0  0
   -0.1650   18.3950   45.3120 C   0  0  0  0  0  0  0  0  0  0  0  0
    3.4150   17.7160   37.9790 N   0  0  0  0  0  0  0  0  0  0  0  0
    1.9860   18.5890   40.5670 C   0  0  0  0  0  0  0  0  0  0  0  0
   -1.2330   16.3750   45.3390 C   0  0  0  0  0  0  0  0  0  0  0  0
    2.1000   15.6170   36.3450 C   0  0  0  0  0  0  0  0  0  0  0  0
   -1.4843   15.4268   43.3685 H   0  0  0  0  0  0  0  0  0  0  0  0
    4.1820   15.8338   36.5822 H   0  0  0  0  0  0  0  0  0  0  0  0
    3.4415   16.4213   34.9848 H   0  0  0  0  0  0  0  0  0  0  0  0
    0.9063   20.6937   41.7904 H   0  0  0  0  0  0  0  0  0  0  0  0
   -0.7006   17.4323   47.1647 H   0  0  0  0  0  0  0  0  0  0  0  0
    4.3346   18.3275   36.1938 H   0  0  0  0  0  0  0  0  0  0  0  0
    2.5876   18.4422   36.1615 H   0  0  0  0  0  0  0  0  0  0  0  0
    2.9414   19.3220   42.3646 H   0  0  0  0  0  0  0  0  0  0  0  0
    1.6790   18.0199   42.6112 H   0  0  0  0  0  0  0  0  0  0  0  0
    1.4791   15.1114   38.3258 H   0  0  0  0  0  0  0  0  0  0  0  0
    1.1762   16.8530   37.7775 H   0  0  0  0  0  0  0  0  0  0  0  0
    2.7441   16.5875   39.5907 H   0  0  0  0  0  0  0  0  0  0  0  0
    3.8246   15.7293   38.4525 H   0  0  0  0  0  0  0  0  0  0  0  0
   -0.6742   17.4117   42.1692 H   0  0  0  0  0  0  0  0  0  0  0  0
    3.7320   17.4664   40.2926 H   0  0  0  0  0  0  0  0  0  0  0  0
    3.9307   19.2665   40.6802 H   0  0  0  0  0  0  0  0  0  0  0  0
    0.3034   19.2252   45.8609 H   0  0  0  0  0  0  0  0  0  0  0  0
    1.4669   19.3730   39.9961 H   0  0  0  0  0  0  0  0  0  0  0  0
    1.4851   17.6230   40.4059 H   0  0  0  0  0  0  0  0  0  0  0  0
   -1.7419   15.5595   45.8738 H   0  0  0  0  0  0  0  0  0  0  0  0
    1.2777   15.9571   35.6983 H   0  0  0  0  0  0  0  0  0  0  0  0
    2.1546   14.5358   36.1499 H   0  0  0  0  0  0  0  0  0  0  0  0
  1 19  2  0
  2 20  1  0
  2  7  1  0
  4 16  1  0
  5 10  1  0
  7 17  1  0
  8 14  1  0
  9  5  1  0
 10  4  1  0
 10  3  2  0
 11 12  1  0
 13  1  1  0
 13  4  2  0
 14 18  1  0
 15  8  2  0
 16  6  2  0
 17 12  1  0
 17  8  1  0
 18  9  1  0
 19  6  1  0
 20 11  1  0
  1 21  1  0
  2 22  1  0
  2 23  1  0
  5 24  1  0
  6 25  1  0
  7 26  1  0
  7 27  1  0
  9 28  1  0
  9 29  1  0
 11 30  1  0
 11 31  1  0
 12 32  1  0
 12 33  1  0
 13 34  1  0
 14 35  1  0
 14 36  1  0
 16 37  1  0
 18 38  1  0
 18 39  1  0
 19 40  1  0
 20 41  1  0
 20 42  1  0
M  END
>  <mol_id>  (76) 
2026-09-18-5lvo-s0-n100-0079

>  <rmsd_to_ref>  (76) 


$$$$

     RDKit          3D

 51 57  0  0  0  0  0  0  0  0999 V2000
    2.4710   19.0440   41.3190 C   0  0  0  0  0  0  0  0  0  0  0  0
    1.6040   16.5900   40.7170 C   0  0  0  0  0  0  0  0  0  0  0  0
    2.9440   18.1440   39.1710 C   0  0  0  0  0  0  0  0  0  0  0  0
    1.5190   15.3980   37.4030 C   0  0  0  0  0  0  0  0  0  0  0  0
   -0.2260   20.7240   43.9920 N   0  0  0  0  0  0  0  0  0  0  0  0
    1.0280   20.6870   41.9300 C   0  0  0  0  0  0  0  0  0  0  0  0
    0.8010   18.7080   43.2660 C   0  0  0  0  0  0  0  0  0  0  0  0
    0.0800   19.4480   44.2470 C   0  0  0  0  0  0  0  0  0  0  0  0
    2.6620   17.2920   40.1320 N   0  0  0  0  0  0  0  0  0  0  0  0
    2.7880   15.3320   38.4520 C   0  0  0  0  0  0  0  0  0  0  0  0
    4.2040   15.6460   40.3100 O   0  0  0  0  0  0  0  0  0  0  0  0
    1.3540   19.4270   42.2160 C   0  0  0  0  0  0  0  0  0  0  0  0
   -0.3020   18.8890   45.4970 C   0  0  0  0  0  0  0  0  0  0  0  0
    0.2340   21.2900   42.9170 C   0  0  0  0  0  0  0  0  0  0  0  0
    1.4810   16.2240   42.4290 S   0  0  0  0  0  0  0  0  0  0  0  0
    4.6860   17.3010   35.8470 N   0  0  0  0  0  4  0  0  0  0  0  0
    0.8040   17.2770   43.5770 C   0  0  0  0  0  0  0  0  0  0  0  0
    0.3340   16.7230   44.7390 C   0  0  0  0  0  0  0  0  0  0  0  0
    3.5980   17.6100   37.8750 C   0  0  0  0  0  0  0  0  0  0  0  0
    3.9110   16.0760   37.8040 C   0  0  0  0  0  0  0  0  0  0  0  0
    2.9130   16.0120   39.8930 C   0  0  0  0  0  0  0  0  0  0  0  0
   -0.1950   17.5510   45.7330 C   0  0  0  0  0  0  0  0  0  0  0  0
    0.1250   15.0250   37.4040 O   0  0  0  0  0  0  0  0  0  0  0  0
    1.0530   14.0150   36.9560 C   0  0  0  0  0  0  0  0  0  0  0  0
    2.5910   19.4690   39.8010 C   0  0  0  0  0  0  0  0  0  0  0  0
    4.2410   15.8840   36.3400 C   0  0  0  0  0  0  0  0  0  0  0  0
    3.8260   18.2800   36.5450 C   0  0  0  0  0  0  0  0  0  0  0  0
    3.3824   19.4231   41.8044 H   0  0  0  0  0  0  0  0  0  0  0  0
    2.2839   17.9653   41.2126 H   0  0  0  0  0  0  0  0  0  0  0  0
    0.5056   16.6319   40.6739 H   0  0  0  0  0  0  0  0  0  0  0  0
    3.9712   18.2357   39.5537 H   0  0  0  0  0  0  0  0  0  0  0  0
    1.9275   16.3800   37.1222 H   0  0  0  0  0  0  0  0  0  0  0  0
    1.3490   21.2023   41.0127 H   0  0  0  0  0  0  0  0  0  0  0  0
    2.7214   14.2504   38.6412 H   0  0  0  0  0  0  0  0  0  0  0  0
    4.2407   15.6356   41.2993 H   0  0  0  0  0  0  0  0  0  0  0  0
   -0.6907   19.5478   46.2875 H   0  0  0  0  0  0  0  0  0  0  0  0
   -0.0250   22.3483   42.7654 H   0  0  0  0  0  0  0  0  0  0  0  0
    5.6751   17.4650   36.0829 H   0  0  0  0  0  0  0  0  0  0  0  0
    4.5913   17.3855   34.8249 H   0  0  0  0  0  0  0  0  0  0  0  0
    0.3728   15.6339   44.8884 H   0  0  0  0  0  0  0  0  0  0  0  0
    3.9548   18.5489   38.3235 H   0  0  0  0  0  0  0  0  0  0  0  0
    4.7600   15.6657   38.3703 H   0  0  0  0  0  0  0  0  0  0  0  0
   -0.5211   17.1277   46.6945 H   0  0  0  0  0  0  0  0  0  0  0  0
    1.0949   13.7313   35.8940 H   0  0  0  0  0  0  0  0  0  0  0  0
    1.2839   12.9763   37.2350 H   0  0  0  0  0  0  0  0  0  0  0  0
    3.3852   20.2149   39.6498 H   0  0  0  0  0  0  0  0  0  0  0  0
    1.6916   19.9481   39.3869 H   0  0  0  0  0  0  0  0  0  0  0  0
    3.3563   15.5396   35.7844 H   0  0  0  0  0  0  0  0  0  0  0  0
    5.0208   15.1240   36.1842 H   0  0  0  0  0  0  0  0  0  0  0  0
    4.3385   19.2456   36.6673 H   0  0  0  0  0  0  0  0  0  0  0  0
    2.8977   18.5173   36.0047 H   0  0  0  0  0  0  0  0  0  0  0  0
  1 12  1  0
  2 15  1  0
  3 25  1  0
  3  9  1  0
  4 24  1  0
  4 23  1  0
  4 10  1  0
  5  8  1  0
  6 12  2  0
  6 14  1  0
  7 17  2  0
  7  8  1  0
  8 13  2  0
  9  2  1  0
 10 21  1  0
 12  7  1  0
 13 22  1  0
 14  5  2  0
 15 17  1  0
 16 26  1  0
 16 27  1  0
 17 18  1  0
 18 22  2  0
 19  3  1  0
 20 19  1  0
 20 10  1  0
 21  9  1  0
 21 11  1  0
 21  2  1  0
 24 23  1  0
 25  1  1  0
 26 20  1  0
 27 19  1  0
  1 28  1  0
  1 29  1  0
  2 30  1  0
  3 31  1  0
  4 32  1  0
  6 33  1  0
 10 34  1  0
 11 35  1  0
 13 36  1  0
 14 37  1  0
 16 38  1  0
 16 39  1  0
 18 40  1  0
 19 41  1  0
 20 42  1  0
 22 43  1  0
 24 44  1  0
 24 45  1  0
 25 46  1  0
 25 47  1  0
 26 48  1  0
 26 49  1  0
 27 50  1  0
 27 51  1  0
M  CHG  1  16   1
M  END
>  <mol_id>  (77) 
2026-09-18-5lvo-s0-n100-0080

>  <rmsd_to_ref>  (77) 


$$$$

     RDKit          3D

 64 67  0  0  0  0  0  0  0  0999 V2000
    0.9760   15.9490   36.8840 C   0  0  0  0  0  0  0  0  0  0  0  0
   -0.2270   19.9000   44.2890 N   0  0  0  0  0  0  0  0  0  0  0  0
    0.6040   17.7010   43.9210 N   0  0  0  0  0  0  0  0  0  0  0  0
    2.2500   15.1590   38.9770 C   0  0  0  0  0  0  0  0  0  0  0  0
    1.1800   19.6110   42.2450 S   0  0  0  0  0  0  0  0  0  0  0  0
   -0.7460   18.1270   45.8650 N   0  0  0  0  0  0  0  0  0  0  0  0
    1.5590   16.4660   42.3530 C   0  0  0  0  0  0  0  0  0  0  0  0
    2.5050   16.4510   41.2950 O   0  0  0  0  0  0  0  0  0  0  0  0
    1.1950   17.9790   42.8150 C   0  0  0  0  0  0  0  0  0  0  0  0
    2.8060   17.1710   38.1120 O   0  0  0  0  0  0  0  0  0  0  0  0
    1.1990   14.3080   39.2190 C   0  0  0  0  0  0  0  0  0  0  0  0
   -0.1010   18.6140   44.6430 C   0  0  0  0  0  0  0  0  0  0  0  0
    3.0480   18.3320   37.6650 C   0  0  0  0  0  0  0  0  0  0  0  0
   -0.3240   15.4690   37.4440 C   0  0  0  0  0  0  0  0  0  0  0  0
    3.0500   14.4750   42.3570 C   0  0  0  0  0  0  0  0  0  0  0  0
    3.1030   19.3620   39.9690 O   0  0  0  0  0  0  0  0  0  0  0  0
    0.2410   15.8940   41.9440 C   0  0  0  0  0  0  0  0  0  0  0  0
    3.4450   15.4410   41.2070 C   0  0  0  0  0  0  0  0  0  0  0  0
    0.3510   21.8710   43.1220 N   0  0  0  0  0  4  0  0  0  0  0  0
    2.2380   15.4170   43.2960 C   0  0  0  0  0  0  0  0  0  0  0  0
    0.4410   20.4770   43.3080 C   0  0  0  0  0  0  0  0  0  0  0  0
    2.3150   15.9370   37.6070 C   0  0  0  0  0  0  0  0  0  0  0  0
    3.2690   19.4190   38.6650 C   0  0  0  0  0  0  0  0  0  0  0  0
    6.0840   14.8940   39.7710 O   0  0  0  0  0  0  0  0  0  0  0  0
    4.2710   21.9140   38.5060 C   0  0  0  0  0  0  0  0  0  0  0  0
    3.6290   20.2820   36.3470 S   0  0  0  0  0  0  0  0  0  0  0  0
    3.5640   14.9440   39.7880 C   0  0  0  0  0  0  0  0  0  0  0  0
    3.7010   20.6550   38.0750 C   0  0  0  0  0  0  0  0  0  0  0  0
   -0.1900   14.9030   38.8890 C   0  0  0  0  0  0  0  0  0  0  0  0
    3.1700   18.6940   36.4450 N   0  0  0  0  0  0  0  0  0  0  0  0
    5.0580   15.0400   37.6430 O   0  0  0  0  0  0  0  0  0  0  0  0
    4.9550   15.5460   38.9920 S   0  0  0  0  0  4  0  0  0  0  0  0
    1.1346   15.3558   35.9713 H   0  0  0  0  0  0  0  0  0  0  0  0
    0.7836   17.0318   36.8590 H   0  0  0  0  0  0  0  0  0  0  0  0
    1.8615   16.0205   39.5399 H   0  0  0  0  0  0  0  0  0  0  0  0
   -0.6504   17.1387   46.1390 H   0  0  0  0  0  0  0  0  0  0  0  0
   -1.2950   18.7729   46.4501 H   0  0  0  0  0  0  0  0  0  0  0  0
    1.3403   13.4037   38.6089 H   0  0  0  0  0  0  0  0  0  0  0  0
    1.2042   14.0998   40.2991 H   0  0  0  0  0  0  0  0  0  0  0  0
   -1.0311   16.3115   37.4613 H   0  0  0  0  0  0  0  0  0  0  0  0
   -0.6782   14.6502   36.8005 H   0  0  0  0  0  0  0  0  0  0  0  0
    3.9385   14.0715   42.8647 H   0  0  0  0  0  0  0  0  0  0  0  0
    2.4918   13.5879   42.0231 H   0  0  0  0  0  0  0  0  0  0  0  0
    3.2852   20.1595   40.5265 H   0  0  0  0  0  0  0  0  0  0  0  0
   -0.3430   15.6406   42.8411 H   0  0  0  0  0  0  0  0  0  0  0  0
   -0.3098   16.6340   41.3449 H   0  0  0  0  0  0  0  0  0  0  0  0
    0.4053   14.9862   41.3449 H   0  0  0  0  0  0  0  0  0  0  0  0
    4.4975   15.7130   41.3752 H   0  0  0  0  0  0  0  0  0  0  0  0
    0.3208   22.3385   44.0393 H   0  0  0  0  0  0  0  0  0  0  0  0
    1.1724   22.2009   42.5954 H   0  0  0  0  0  0  0  0  0  0  0  0
   -0.5060   22.0925   42.5954 H   0  0  0  0  0  0  0  0  0  0  0  0
    2.9081   15.9188   44.0096 H   0  0  0  0  0  0  0  0  0  0  0  0
    1.4962   14.8613   43.8884 H   0  0  0  0  0  0  0  0  0  0  0  0
    1.3232   20.5142   43.9640 H   0  0  0  0  0  0  0  0  0  0  0  0
    2.9361   15.5237   36.7986 H   0  0  0  0  0  0  0  0  0  0  0  0
    5.9147   14.9918   40.7415 H   0  0  0  0  0  0  0  0  0  0  0  0
    4.2880   21.9516   39.6052 H   0  0  0  0  0  0  0  0  0  0  0  0
    5.2972   22.0031   38.1201 H   0  0  0  0  0  0  0  0  0  0  0  0
    3.6608   22.7440   38.1201 H   0  0  0  0  0  0  0  0  0  0  0  0
    3.7092   13.8552   39.8469 H   0  0  0  0  0  0  0  0  0  0  0  0
   -0.3910   15.7198   39.5978 H   0  0  0  0  0  0  0  0  0  0  0  0
   -0.9113   14.0764   38.9691 H   0  0  0  0  0  0  0  0  0  0  0  0
    5.2554   14.0702   37.6685 H   0  0  0  0  0  0  0  0  0  0  0  0
    4.9524   16.9150   38.9388 H   0  0  0  0  0  0  0  0  0  0  0  0
  1 14  1  0
  1 22  1  0
  2 12  2  0
  3 12  1  0
  4 11  1  0
  4 27  1  0
  5  9  1  0
  5 21  1  0
  7 17  1  0
  7  9  1  0
  7 20  1  0
  8  7  1  0
  9  3  2  0
 12  6  1  0
 13 10  1  0
 13 23  1  0
 14 29  1  0
 15 20  1  0
 18 27  1  0
 18  8  1  0
 18 15  1  0
 21 19  1  0
 21  2  1  0
 22 10  1  0
 22  4  1  0
 23 16  1  0
 26 30  1  0
 26 28  1  0
 27 32  1  0
 28 25  1  0
 28 23  2  0
 29 11  1  0
 30 13  2  0
 31 32  1  0
 32 24  1  0
  1 33  1  0
  1 34  1  0
  4 35  1  0
  6 36  1  0
  6 37  1  0
 11 38  1  0
 11 39  1  0
 14 40  1  0
 14 41  1  0
 15 42  1  0
 15 43  1  0
 16 44  1  0
 17 45  1  0
 17 46  1  0
 17 47  1  0
 18 48  1  0
 19 49  1  0
 19 50  1  0
 19 51  1  0
 20 52  1  0
 20 53  1  0
 21 54  1  0
 22 55  1  0
 24 56  1  0
 25 57  1  0
 25 58  1  0
 25 59  1  0
 27 60  1  0
 29 61  1  0
 29 62  1  0
 31 63  1  0
 32 64  1  0
M  CHG  1  19   1
M  END
>  <mol_id>  (78) 
2026-09-18-5lvo-s0-n100-0081

>  <rmsd_to_ref>  (78) 


$$$$

     RDKit          3D

 50 52  0  0  0  0  0  0  0  0999 V2000
    1.0250   14.2030   37.4110 C   0  0  0  0  0  0  0  0  0  0  0  0
    5.6510   13.2550   36.3900 O   0  0  0  0  0  0  0  0  0  0  0  0
    3.2370   15.3270   40.4170 C   0  0  0  0  0  0  0  0  0  0  0  0
    0.0330   21.4550   43.5050 N   0  0  0  0  0  0  0  0  0  0  0  0
    4.2170   15.1670   36.2500 N   0  0  0  0  0  0  0  0  0  0  0  0
    0.8300   19.3360   42.9330 C   0  0  0  0  0  0  0  0  0  0  0  0
    5.3460   14.4290   34.3460 O   0  0  0  0  0  0  0  0  0  0  0  0
    4.2840   17.7030   39.9530 O   0  0  0  0  0  0  0  0  0  0  0  0
    2.0190   17.6190   40.7000 C   0  0  0  0  0  0  0  0  0  0  0  0
    4.6740   13.8080   35.5090 S   0  0  0  0  0  6  0  0  0  0  0  0
    2.3260   18.8420   41.0570 C   0  0  0  0  0  0  0  0  0  0  0  0
    0.0760   17.1630   42.3810 C   0  0  0  0  0  0  0  0  0  0  0  0
    0.0180   20.3740   44.0010 C   0  0  0  0  0  0  0  0  0  0  0  0
    0.5540   15.3290   40.9020 C   0  0  0  0  0  0  0  0  0  0  0  0
    3.3320   12.8550   35.1090 C   0  0  0  0  0  0  0  0  0  0  0  0
    1.0430   16.7960   41.2710 C   0  0  0  0  0  0  0  0  0  0  0  0
    1.9090   14.4640   40.6300 C   0  0  0  0  0  0  0  0  0  0  0  0
    0.3030   18.1170   43.1770 N   0  0  0  0  0  4  0  0  0  0  0  0
    1.8660   13.0860   37.9670 O   0  0  0  0  0  0  0  0  0  0  0  0
    3.3980   17.6250   37.3180 O   0  0  0  0  0  0  0  0  0  0  0  0
    3.4410   15.2170   37.4260 C   0  0  0  0  0  0  0  0  0  0  0  0
    1.6000   19.8640   41.8610 C   0  0  0  0  0  0  0  0  0  0  0  0
    3.0220   16.4910   38.1510 C   0  0  0  0  0  0  0  0  0  0  0  0
    3.1880   16.8200   39.7460 C   0  0  0  0  0  0  0  0  0  0  0  0
   -0.5280   19.8840   44.9100 O   0  0  0  0  0  0  0  0  0  0  0  0
    1.7650   21.1360   41.6050 F   0  0  0  0  0  0  0  0  0  0  0  0
    1.9510   15.5510   37.5660 C   0  0  0  0  0  0  0  0  0  0  0  0
    0.7864   14.0175   36.3533 H   0  0  0  0  0  0  0  0  0  0  0  0
    0.0646   14.2988   37.9387 H   0  0  0  0  0  0  0  0  0  0  0  0
    3.6912   15.4483   41.4115 H   0  0  0  0  0  0  0  0  0  0  0  0
    3.7789   14.7440   39.6578 H   0  0  0  0  0  0  0  0  0  0  0  0
   -0.4097   22.2496   43.9883 H   0  0  0  0  0  0  0  0  0  0  0  0
    0.4887   21.5965   42.5922 H   0  0  0  0  0  0  0  0  0  0  0  0
    5.0896   15.6665   36.4735 H   0  0  0  0  0  0  0  0  0  0  0  0
    4.4325   17.8226   40.9245 H   0  0  0  0  0  0  0  0  0  0  0  0
    3.3081   19.1781   40.6931 H   0  0  0  0  0  0  0  0  0  0  0  0
   -0.8503   16.5810   42.4959 H   0  0  0  0  0  0  0  0  0  0  0  0
   -0.0168   14.8945   41.7359 H   0  0  0  0  0  0  0  0  0  0  0  0
   -0.1075   15.3320   40.0231 H   0  0  0  0  0  0  0  0  0  0  0  0
    2.8418   12.5069   36.0302 H   0  0  0  0  0  0  0  0  0  0  0  0
    2.6213   13.4519   34.5185 H   0  0  0  0  0  0  0  0  0  0  0  0
    3.6614   11.9873   34.5185 H   0  0  0  0  0  0  0  0  0  0  0  0
    1.7494   13.8569   39.7267 H   0  0  0  0  0  0  0  0  0  0  0  0
    2.0764   13.8661   41.5380 H   0  0  0  0  0  0  0  0  0  0  0  0
    0.9264   17.7098   43.8887 H   0  0  0  0  0  0  0  0  0  0  0  0
   -0.6729   18.4136   43.3206 H   0  0  0  0  0  0  0  0  0  0  0  0
    1.8430   13.1166   38.9563 H   0  0  0  0  0  0  0  0  0  0  0  0
    3.6512   18.3887   37.8949 H   0  0  0  0  0  0  0  0  0  0  0  0
    4.0478   14.3296   37.6590 H   0  0  0  0  0  0  0  0  0  0  0  0
    0.9390   15.9437   37.3880 H   0  0  0  0  0  0  0  0  0  0  0  0
  1 19  1  0
  3 17  1  0
  4 13  1  0
  6 18  1  0
  6 13  1  0
  7 10  2  0
  9 11  2  0
  9 16  1  0
 10  5  1  0
 10  2  2  0
 11 22  1  0
 12 18  1  0
 13 25  2  0
 14 16  1  0
 15 10  1  0
 16 12  2  0
 17 14  1  0
 21  5  1  0
 21 27  1  0
 21 23  1  0
 22  6  2  0
 23 20  1  0
 23 24  1  0
 24  8  1  0
 24  3  1  0
 24  9  1  0
 26 22  1  0
 27  1  1  0
 27 23  1  0
  1 28  1  0
  1 29  1  0
  3 30  1  0
  3 31  1  0
  4 32  1  0
  4 33  1  0
  5 34  1  0
  8 35  1  0
 11 36  1  0
 12 37  1  0
 14 38  1  0
 14 39  1  0
 15 40  1  0
 15 41  1  0
 15 42  1  0
 17 43  1  0
 17 44  1  0
 18 45  1  0
 18 46  1  0
 19 47  1  0
 20 48  1  0
 21 49  1  0
 27 50  1  0
M  CHG  1  18   1
M  END
>  <mol_id>  (79) 
2026-09-18-5lvo-s0-n100-0082

>  <rmsd_to_ref>  (79) 


$$$$

     RDKit          3D

 75 78  0  0  0  0  0  0  0  0999 V2000
    1.8870   21.4130   39.9240 N   0  0  0  0  0  0  0  0  0  0  0  0
    0.0390   20.2040   44.3820 C   0  0  0  0  0  0  0  0  0  0  0  0
    4.7910   17.7340   35.9410 O   0  0  0  0  0  0  0  0  0  0  0  0
    3.5180   15.8680   36.0310 F   0  0  0  0  0  0  0  0  0  0  0  0
    3.9890   17.0170   36.4370 C   0  0  0  0  0  0  0  0  0  0  0  0
    0.6520   16.3010   44.7800 C   0  0  0  0  0  0  0  0  0  0  0  0
    2.8810   16.2480   38.5020 N   0  0  0  0  0  0  0  0  0  0  0  0
    0.6110   17.0340   43.4670 C   0  0  0  0  0  0  0  0  0  0  0  0
    1.3660   15.3460   37.4850 C   0  0  0  0  0  0  0  0  0  0  0  0
    0.9030   13.4200   36.8040 C   0  0  0  0  0  0  0  0  0  0  0  0
    2.7350   15.1220   37.7930 C   0  0  0  0  0  0  0  0  0  0  0  0
    3.0470   19.4360   39.1330 C   0  0  0  0  0  0  0  0  0  0  0  0
    1.8490   14.2900   37.7990 C   0  0  0  0  0  0  0  0  0  0  0  0
   -0.5360   21.0740   45.1700 N   0  0  0  0  0  0  0  0  0  0  0  0
   -0.4970   15.1310   42.3950 C   0  0  0  0  0  0  0  0  0  0  0  0
    0.6230   20.4950   43.0380 N   0  0  0  0  0  0  0  0  0  0  0  0
    1.0910   19.4190   42.6630 C   0  0  0  0  0  0  0  0  0  0  0  0
    3.2760   17.3950   37.6770 C   0  0  0  0  0  0  0  0  0  0  0  0
    2.7820   18.8780   40.3770 C   0  0  0  0  0  0  0  0  0  0  0  0
    3.0150   14.4480   40.5600 S   0  0  0  0  0  4  0  0  0  0  0  0
    0.1480   14.2790   43.4810 C   0  0  0  0  0  0  0  0  0  0  0  0
    1.7470   19.5090   41.3070 C   0  0  0  0  0  0  0  0  0  0  0  0
    2.7490   20.8280   38.9980 C   0  0  0  0  0  0  0  0  0  0  0  0
    1.7130   12.3380   36.1600 C   0  0  0  0  0  0  0  0  0  0  0  0
    0.1660   19.0000   44.7440 N   0  0  0  0  0  0  0  0  0  0  0  0
    1.3980   14.2950   40.4460 O   0  0  0  0  0  0  0  0  0  0  0  0
    1.2220   14.9670   44.2990 C   0  0  0  0  0  0  0  0  0  0  0  0
    3.7580   18.6510   38.1470 N   0  0  0  0  0  4  0  0  0  0  0  0
    3.6310   12.9760   39.9830 O   0  0  0  0  0  0  0  0  0  0  0  0
    3.2590   21.4650   38.0930 O   0  0  0  0  0  0  0  0  0  0  0  0
   -0.3190   12.9660   37.3370 N   0  0  0  0  0  4  0  0  0  0  0  0
    1.4040   20.8760   40.9560 C   0  0  0  0  0  0  0  0  0  0  0  0
    0.1080   16.4760   42.3270 C   0  0  0  0  0  0  0  0  0  0  0  0
    3.2880   16.1830   39.9690 C   0  0  0  0  0  0  0  0  0  0  0  0
    0.6170   18.4680   43.5870 N   0  0  0  0  0  0  0  0  0  0  0  0
    3.3810   14.5330   42.0130 O   0  0  0  0  0  0  0  0  0  0  0  0
    1.3153   16.7940   45.5059 H   0  0  0  0  0  0  0  0  0  0  0  0
   -0.3077   16.2376   45.3138 H   0  0  0  0  0  0  0  0  0  0  0  0
    1.6076   16.7367   43.1085 H   0  0  0  0  0  0  0  0  0  0  0  0
    0.7140   15.8973   38.1784 H   0  0  0  0  0  0  0  0  0  0  0  0
    0.7812   15.7506   36.6458 H   0  0  0  0  0  0  0  0  0  0  0  0
    0.5517   14.1214   36.0329 H   0  0  0  0  0  0  0  0  0  0  0  0
    3.7936   14.9119   37.5805 H   0  0  0  0  0  0  0  0  0  0  0  0
    2.3887   19.2271   38.2768 H   0  0  0  0  0  0  0  0  0  0  0  0
    2.0526   13.4684   38.5014 H   0  0  0  0  0  0  0  0  0  0  0  0
   -0.6365   22.0539   44.8691 H   0  0  0  0  0  0  0  0  0  0  0  0
   -0.8887   20.7797   46.0919 H   0  0  0  0  0  0  0  0  0  0  0  0
   -0.3654   14.6311   41.4241 H   0  0  0  0  0  0  0  0  0  0  0  0
   -1.5639   15.2460   42.6368 H   0  0  0  0  0  0  0  0  0  0  0  0
    1.8922   18.6862   42.4867 H   0  0  0  0  0  0  0  0  0  0  0  0
    2.2223   17.6933   37.5737 H   0  0  0  0  0  0  0  0  0  0  0  0
    2.4528   17.8444   40.1947 H   0  0  0  0  0  0  0  0  0  0  0  0
    3.7263   19.0281   40.9209 H   0  0  0  0  0  0  0  0  0  0  0  0
   -0.6445   13.9512   44.1698 H   0  0  0  0  0  0  0  0  0  0  0  0
    0.6507   13.4525   42.9573 H   0  0  0  0  0  0  0  0  0  0  0  0
    1.7317   18.4149   41.1944 H   0  0  0  0  0  0  0  0  0  0  0  0
    2.1787   11.7159   36.9385 H   0  0  0  0  0  0  0  0  0  0  0  0
    1.0587   11.7133   35.5342 H   0  0  0  0  0  0  0  0  0  0  0  0
    2.4967   12.7898   35.5342 H   0  0  0  0  0  0  0  0  0  0  0  0
   -0.0198   18.5549   45.6541 H   0  0  0  0  0  0  0  0  0  0  0  0
    1.0052   14.2578   41.3540 H   0  0  0  0  0  0  0  0  0  0  0  0
    1.4941   14.3421   45.1624 H   0  0  0  0  0  0  0  0  0  0  0  0
    2.1256   15.1287   43.6928 H   0  0  0  0  0  0  0  0  0  0  0  0
    3.8502   19.2516   37.3153 H   0  0  0  0  0  0  0  0  0  0  0  0
    4.6023   18.3724   38.6671 H   0  0  0  0  0  0  0  0  0  0  0  0
    3.8733   12.3969   40.7485 H   0  0  0  0  0  0  0  0  0  0  0  0
   -0.2724   12.9833   38.3658 H   0  0  0  0  0  0  0  0  0  0  0  0
   -1.0820   13.5797   37.0175 H   0  0  0  0  0  0  0  0  0  0  0  0
   -0.4963   12.0030   37.0175 H   0  0  0  0  0  0  0  0  0  0  0  0
    0.7164   21.4473   41.5970 H   0  0  0  0  0  0  0  0  0  0  0  0
    0.9344   16.4215   41.6031 H   0  0  0  0  0  0  0  0  0  0  0  0
   -0.7349   17.1313   42.0623 H   0  0  0  0  0  0  0  0  0  0  0  0
    4.3496   16.4510   40.0745 H   0  0  0  0  0  0  0  0  0  0  0  0
    2.6899   16.8889   40.5640 H   0  0  0  0  0  0  0  0  0  0  0  0
    2.5812   14.3473   42.5662 H   0  0  0  0  0  0  0  0  0  0  0  0
  1 32  2  0
  2 25  1  0
  2 14  1  0
  3  5  2  0
  4  5  1  0
  7 34  1  0
  8  6  1  0
  9 11  1  0
  9 13  1  0
 10 24  1  0
 10 31  1  0
 11 13  1  0
 11  7  1  0
 12 28  1  0
 12 19  1  0
 13 10  1  0
 15 21  1  0
 16  2  2  0
 17 16  1  0
 17 35  1  0
 18  5  1  0
 18 28  1  0
 18  7  1  0
 20 36  1  0
 21 27  1  0
 22 19  1  0
 22 17  1  0
 23 12  1  0
 23  1  1  0
 26 20  1  0
 27  6  1  0
 29 20  1  0
 30 23  2  0
 32 22  1  0
 33 15  1  0
 33  8  1  0
 34 20  1  0
 35  8  1  0
 35 25  1  0
  6 37  1  0
  6 38  1  0
  8 39  1  0
  9 40  1  0
  9 41  1  0
 10 42  1  0
 11 43  1  0
 12 44  1  0
 13 45  1  0
 14 46  1  0
 14 47  1  0
 15 48  1  0
 15 49  1  0
 17 50  1  0
 18 51  1  0
 19 52  1  0
 19 53  1  0
 21 54  1  0
 21 55  1  0
 22 56  1  0
 24 57  1  0
 24 58  1  0
 24 59  1  0
 25 60  1  0
 26 61  1  0
 27 62  1  0
 27 63  1  0
 28 64  1  0
 28 65  1  0
 29 66  1  0
 31 67  1  0
 31 68  1  0
 31 69  1  0
 32 70  1  0
 33 71  1  0
 33 72  1  0
 34 73  1  0
 34 74  1  0
 36 75  1  0
M  CHG  2  28   1  31   1
M  END
>  <mol_id>  (80) 
2026-09-18-5lvo-s0-n100-0083

>  <rmsd_to_ref>  (80) 


$$$$

     RDKit          3D

 56 60  0  0  0  0  0  0  0  0999 V2000
    3.3860   18.1420   36.7390 O   0  0  0  0  0  0  0  0  0  0  0  0
    0.6920   16.3620   44.8100 C   0  0  0  0  0  0  0  0  0  0  0  0
   -0.2210   17.1630   45.5810 C   0  0  0  0  0  0  0  0  0  0  0  0
    2.9250   14.8940   39.6900 C   0  0  0  0  0  0  0  0  0  0  0  0
   -0.3300   13.4250   37.4940 O   0  0  0  0  0  0  0  0  0  0  0  0
    1.2360   20.1410   41.8090 C   0  0  0  0  0  0  0  0  0  0  0  0
    2.6760   18.9170   40.1000 C   0  0  0  0  0  0  0  0  0  0  0  0
    0.3920   20.8860   42.7150 C   0  0  0  0  0  0  0  0  0  0  0  0
   -0.0890   20.4040   43.8780 N   0  0  0  0  0  0  0  0  0  0  0  0
    1.8830   14.2430   40.5710 C   0  0  0  0  0  0  0  0  0  0  0  0
    1.3190   14.8500   37.7620 C   0  0  0  0  0  0  0  0  0  0  0  0
    2.9510   15.0750   38.1410 C   0  0  0  0  0  0  0  0  0  0  0  0
    1.8280   20.3910   40.2690 S   0  0  0  0  0  0  0  0  0  0  0  0
    1.3220   16.9500   43.7530 C   0  0  0  0  0  0  0  0  0  0  0  0
    1.0100   18.2740   43.3520 C   0  0  0  0  0  0  0  0  0  0  0  0
   -0.3860   18.5160   45.2970 C   0  0  0  0  0  0  0  0  0  0  0  0
    4.0970   16.9600   37.2780 C   0  0  0  0  0  0  0  0  0  0  0  0
    3.6550   17.2820   38.6600 C   0  0  0  0  0  0  0  0  0  0  0  0
    1.6550   12.9640   39.9820 O   0  0  0  0  0  0  0  0  0  0  0  0
   -1.2390   19.2570   46.2010 O   0  0  0  0  0  0  0  0  0  0  0  0
    3.5530   15.8320   36.6730 C   0  0  0  0  0  0  0  0  0  0  0  0
    3.0490   16.3350   39.1140 N   0  0  0  0  0  0  0  0  0  0  0  0
    4.3950   19.9500   38.5390 C   0  0  0  0  0  0  0  0  0  0  0  0
    0.1250   14.4050   38.4270 C   0  0  0  0  0  0  0  0  0  0  0  0
    4.3260   14.8670   35.9610 O   0  0  0  0  0  0  0  0  0  0  0  0
    4.2500   14.4990   40.3640 C   0  0  0  0  0  0  0  0  0  0  0  0
    3.4100   18.6130   38.8220 C   0  0  0  0  0  0  0  0  0  0  0  0
    2.3260   18.1490   41.1920 C   0  0  0  0  0  0  0  0  0  0  0  0
    0.1850   19.0670   44.1760 C   0  0  0  0  0  0  0  0  0  0  0  0
    1.5200   18.7800   42.1630 C   0  0  0  0  0  0  0  0  0  0  0  0
    3.0525   18.6965   37.4883 H   0  0  0  0  0  0  0  0  0  0  0  0
    0.8762   15.3080   45.0651 H   0  0  0  0  0  0  0  0  0  0  0  0
   -0.7927   16.7033   46.4006 H   0  0  0  0  0  0  0  0  0  0  0  0
   -0.6921   12.6452   37.9848 H   0  0  0  0  0  0  0  0  0  0  0  0
    0.1241   21.9159   42.4366 H   0  0  0  0  0  0  0  0  0  0  0  0
    2.2580   14.1347   41.5994 H   0  0  0  0  0  0  0  0  0  0  0  0
    0.9617   14.8406   40.6353 H   0  0  0  0  0  0  0  0  0  0  0  0
    1.3753   14.1609   36.9064 H   0  0  0  0  0  0  0  0  0  0  0  0
    1.0725   15.9152   37.8826 H   0  0  0  0  0  0  0  0  0  0  0  0
    2.0877   16.3859   43.2003 H   0  0  0  0  0  0  0  0  0  0  0  0
    5.1741   16.7722   37.1574 H   0  0  0  0  0  0  0  0  0  0  0  0
    4.3790   17.3221   39.4871 H   0  0  0  0  0  0  0  0  0  0  0  0
    1.5346   12.2887   40.6958 H   0  0  0  0  0  0  0  0  0  0  0  0
   -1.3963   20.2232   46.0530 H   0  0  0  0  0  0  0  0  0  0  0  0
    2.9132   16.1526   35.8376 H   0  0  0  0  0  0  0  0  0  0  0  0
    4.7127   20.3813   39.4998 H   0  0  0  0  0  0  0  0  0  0  0  0
    5.2808   19.6382   37.9662 H   0  0  0  0  0  0  0  0  0  0  0  0
    3.8346   20.7036   37.9662 H   0  0  0  0  0  0  0  0  0  0  0  0
   -0.6024   15.2211   38.5487 H   0  0  0  0  0  0  0  0  0  0  0  0
    0.2771   14.0333   39.4511 H   0  0  0  0  0  0  0  0  0  0  0  0
    4.7960   14.2803   36.6052 H   0  0  0  0  0  0  0  0  0  0  0  0
    4.1304   14.5347   41.4569 H   0  0  0  0  0  0  0  0  0  0  0  0
    4.5270   13.4792   40.0586 H   0  0  0  0  0  0  0  0  0  0  0  0
    5.0402   15.2006   40.0586 H   0  0  0  0  0  0  0  0  0  0  0  0
    2.9247   18.5794   37.8354 H   0  0  0  0  0  0  0  0  0  0  0  0
    2.6563   17.1053   41.2991 H   0  0  0  0  0  0  0  0  0  0  0  0
  2  3  2  0
  4 26  1  0
  4 10  1  0
  5 24  1  0
  6 30  2  0
  6  8  1  0
  7 13  1  0
  7 28  2  0
  8  9  2  0
  9 29  1  0
 11 24  1  0
 12 11  1  0
 12 22  1  0
 12  4  1  0
 13  6  1  0
 14  2  1  0
 15 14  2  0
 15 29  1  0
 16  3  1  0
 16 20  1  0
 17  1  1  0
 17 18  1  0
 18 27  1  0
 18 22  1  0
 19 10  1  0
 21 25  1  0
 21 17  1  0
 21 12  1  0
 22  4  1  0
 23 27  1  0
 27  7  1  0
 28 30  1  0
 29 16  2  0
 30 15  1  0
  1 31  1  0
  2 32  1  0
  3 33  1  0
  5 34  1  0
  8 35  1  0
 10 36  1  0
 10 37  1  0
 11 38  1  0
 11 39  1  0
 14 40  1  0
 17 41  1  0
 18 42  1  0
 19 43  1  0
 20 44  1  0
 21 45  1  0
 23 46  1  0
 23 47  1  0
 23 48  1  0
 24 49  1  0
 24 50  1  0
 25 51  1  0
 26 52  1  0
 26 53  1  0
 26 54  1  0
 27 55  1  0
 28 56  1  0
M  END
>  <mol_id>  (81) 
2026-09-18-5lvo-s0-n100-0084

>  <rmsd_to_ref>  (81) 


$$$$

     RDKit          3D

 50 50  0  0  0  0  0  0  0  0999 V2000
    1.5450   20.2220   41.4840 C   0  0  0  0  0  0  0  0  0  0  0  0
    3.9060   15.8870   38.2750 C   0  0  0  0  0  0  0  0  0  0  0  0
    1.0190   21.2620   41.6540 N   0  0  0  0  0  0  0  0  0  0  0  0
    1.2500   19.4840   42.5580 C   0  0  0  0  0  0  0  0  0  0  0  0
   -0.1960   19.8450   44.4500 O   0  0  0  0  0  0  0  0  0  0  0  0
    1.5070   18.4260   43.0150 C   0  0  0  0  0  0  0  0  0  0  0  0
    0.1720   21.3790   42.6640 N   0  0  0  0  0  0  0  0  0  0  0  0
    3.6610   13.8570   39.7120 C   0  0  0  0  0  0  0  0  0  0  0  0
    3.5520   17.1830   38.7850 N   0  0  0  0  0  0  0  0  0  0  0  0
    1.7350   17.3170   42.6240 C   0  0  0  0  0  0  0  0  0  0  0  0
    2.7060   15.4710   37.3470 C   0  0  0  0  0  0  0  0  0  0  0  0
    0.3590   20.2240   43.3370 C   0  0  0  0  0  0  0  0  0  0  0  0
    3.8960   13.1980   40.8280 N   0  0  0  0  0  0  0  0  0  0  0  0
    3.8440   18.3410   37.8710 C   0  0  0  0  0  0  0  0  0  0  0  0
   -0.1590   15.8210   43.7950 C   0  0  0  0  0  0  0  0  0  0  0  0
    2.3300   17.0160   41.3540 C   0  0  0  0  0  0  0  0  0  0  0  0
    3.6020   18.2980   36.6270 O   0  0  0  0  0  0  0  0  0  0  0  0
    4.5020   15.0590   39.4700 C   0  0  0  0  0  0  0  0  0  0  0  0
    2.4530   15.1320   43.2840 C   0  0  0  0  0  0  0  0  0  0  0  0
    1.9620   14.3180   37.9200 C   0  0  0  0  0  0  0  0  0  0  0  0
    4.1860   19.4210   38.3340 O   0  0  0  0  0  1  0  0  0  0  0  0
    2.9070   13.4090   38.7020 C   0  0  0  0  0  0  0  0  0  0  0  0
    1.4980   16.2090   43.3280 C   0  0  0  0  0  0  0  0  0  0  0  0
    2.1539   19.9203   40.6190 H   0  0  0  0  0  0  0  0  0  0  0  0
    4.7431   15.7402   37.5767 H   0  0  0  0  0  0  0  0  0  0  0  0
    0.3959   19.0449   42.0216 H   0  0  0  0  0  0  0  0  0  0  0  0
    2.4071   18.6473   43.6074 H   0  0  0  0  0  0  0  0  0  0  0  0
    0.4562   18.1984   43.2474 H   0  0  0  0  0  0  0  0  0  0  0  0
   -0.4685   22.1557   42.8817 H   0  0  0  0  0  0  0  0  0  0  0  0
    3.1267   17.3103   39.7144 H   0  0  0  0  0  0  0  0  0  0  0  0
    2.7343   17.3611   43.0817 H   0  0  0  0  0  0  0  0  0  0  0  0
    3.0970   15.1906   36.3578 H   0  0  0  0  0  0  0  0  0  0  0  0
    2.0172   16.3244   37.2623 H   0  0  0  0  0  0  0  0  0  0  0  0
    3.3473   12.3562   41.0543 H   0  0  0  0  0  0  0  0  0  0  0  0
   -0.2361   15.8030   44.8921 H   0  0  0  0  0  0  0  0  0  0  0  0
   -0.8417   16.5836   43.3920 H   0  0  0  0  0  0  0  0  0  0  0  0
   -0.4321   14.8346   43.3920 H   0  0  0  0  0  0  0  0  0  0  0  0
    3.3014   16.5246   41.5115 H   0  0  0  0  0  0  0  0  0  0  0  0
    1.6670   16.3449   40.7883 H   0  0  0  0  0  0  0  0  0  0  0  0
    2.4779   17.9477   40.7883 H   0  0  0  0  0  0  0  0  0  0  0  0
    5.5269   14.7451   39.2228 H   0  0  0  0  0  0  0  0  0  0  0  0
    4.5166   15.6831   40.3757 H   0  0  0  0  0  0  0  0  0  0  0  0
    2.7172   14.8341   44.3094 H   0  0  0  0  0  0  0  0  0  0  0  0
    2.0136   14.2738   42.7545 H   0  0  0  0  0  0  0  0  0  0  0  0
    3.3576   15.4655   42.7545 H   0  0  0  0  0  0  0  0  0  0  0  0
    1.1781   14.6921   38.5949 H   0  0  0  0  0  0  0  0  0  0  0  0
    1.5111   13.7414   37.0989 H   0  0  0  0  0  0  0  0  0  0  0  0
    2.2826   12.6054   39.1196 H   0  0  0  0  0  0  0  0  0  0  0  0
    3.6659   13.1656   37.9438 H   0  0  0  0  0  0  0  0  0  0  0  0
    1.8168   16.6544   44.2819 H   0  0  0  0  0  0  0  0  0  0  0  0
  1  3  2  0
  1  4  1  0
  2  9  1  0
  2 18  1  0
  3  7  1  0
  4  6  1  0
  4 12  1  0
  7 12  1  0
  8 13  2  3
 10 16  1  0
 10  6  1  0
 10 23  1  0
 11 20  1  0
 11  2  1  0
 12  5  2  0
 14 21  1  0
 14  9  1  0
 17 14  2  0
 18  8  1  0
 19 23  1  0
 20 22  1  0
 22  8  1  0
 23 15  1  0
  1 24  1  0
  2 25  1  0
  4 26  1  0
  6 27  1  0
  6 28  1  0
  7 29  1  0
  9 30  1  0
 10 31  1  0
 11 32  1  0
 11 33  1  0
 13 34  1  0
 15 35  1  0
 15 36  1  0
 15 37  1  0
 16 38  1  0
 16 39  1  0
 16 40  1  0
 18 41  1  0
 18 42  1  0
 19 43  1  0
 19 44  1  0
 19 45  1  0
 20 46  1  0
 20 47  1  0
 22 48  1  0
 22 49  1  0
 23 50  1  0
M  CHG  1  21  -1
M  END
>  <mol_id>  (82) 
2026-09-18-5lvo-s0-n100-0085

>  <rmsd_to_ref>  (82) 


$$$$

     RDKit          3D

 56 56  0  0  0  0  0  0  0  0999 V2000
    2.3980   15.3430   36.5840 C   0  0  0  0  0  0  0  0  0  0  0  0
   -0.6810   18.0070   45.3090 N   0  0  0  0  0  0  0  0  0  0  0  0
    2.8590   19.7650   38.5510 O   0  0  0  0  0  1  0  0  0  0  0  0
    4.6870   18.6830   38.4030 O   0  0  0  0  0  0  0  0  0  0  0  0
    0.5080   20.5720   43.3100 C   0  0  0  0  0  0  0  0  0  0  0  0
    1.1310   15.4070   41.4980 C   0  0  0  0  0  0  0  0  0  0  0  0
    2.1030   17.8180   41.4120 C   0  0  0  0  0  0  0  0  0  0  0  0
   -0.0810   19.8990   44.2930 N   0  0  0  0  0  0  0  0  0  0  0  0
    1.1760   20.0090   42.2910 C   0  0  0  0  0  0  0  0  0  0  0  0
    4.4910   14.4450   35.3760 C   0  0  0  0  0  0  0  0  0  0  0  0
    0.6610   17.9110   43.3600 N   0  0  0  0  0  0  0  0  0  0  0  0
    4.6030   16.6650   36.4090 C   0  0  0  0  0  0  0  0  0  0  0  0
    0.0020   18.5970   44.3050 C   0  0  0  0  0  0  0  0  0  0  0  0
    3.1960   16.5190   36.9430 N   0  0  0  0  0  0  0  0  0  0  0  0
    2.9550   18.5000   40.8180 O   0  0  0  0  0  0  0  0  0  0  0  0
    1.5560   14.2470   40.9610 C   0  0  0  0  0  0  0  0  0  0  0  0
    5.2530   15.3160   36.3140 C   0  0  0  0  0  0  0  0  0  0  0  0
    3.4750   18.7170   38.2520 C   0  0  0  0  0  0  0  0  0  0  0  0
    2.6570   17.5920   37.7780 C   0  0  0  0  0  0  0  0  0  0  0  0
    1.6840   20.9280   41.2970 C   0  0  0  0  0  0  0  0  0  0  0  0
    0.9170   15.2470   36.8530 C   0  0  0  0  0  0  0  0  0  0  0  0
    1.2490   18.5480   42.4400 C   0  0  0  0  0  0  0  0  0  0  0  0
    3.0880   14.2410   35.9550 C   0  0  0  0  0  0  0  0  0  0  0  0
    2.0490   16.5240   41.4660 N   0  0  0  0  0  0  0  0  0  0  0  0
    2.4260   14.2610   39.7040 C   0  0  0  0  0  0  0  0  0  0  0  0
    3.2930   14.3900   41.8510 C   0  0  0  0  0  0  0  0  0  0  0  0
    2.1903   15.7848   35.5983 H   0  0  0  0  0  0  0  0  0  0  0  0
   -0.6760   16.9812   45.4021 H   0  0  0  0  0  0  0  0  0  0  0  0
   -1.2071   18.5826   45.9819 H   0  0  0  0  0  0  0  0  0  0  0  0
    0.4434   21.6699   43.3331 H   0  0  0  0  0  0  0  0  0  0  0  0
    0.2224   15.7094   40.9566 H   0  0  0  0  0  0  0  0  0  0  0  0
    0.9855   15.1892   42.5664 H   0  0  0  0  0  0  0  0  0  0  0  0
    4.9974   13.4739   35.2732 H   0  0  0  0  0  0  0  0  0  0  0  0
    4.4304   14.9136   34.3826 H   0  0  0  0  0  0  0  0  0  0  0  0
    4.5687   17.1250   35.4104 H   0  0  0  0  0  0  0  0  0  0  0  0
    5.1859   17.3019   37.0906 H   0  0  0  0  0  0  0  0  0  0  0  0
    0.7084   13.5463   40.9378 H   0  0  0  0  0  0  0  0  0  0  0  0
    5.2707   14.8498   37.3102 H   0  0  0  0  0  0  0  0  0  0  0  0
    6.2799   15.4370   35.9388 H   0  0  0  0  0  0  0  0  0  0  0  0
    1.8300   18.0371   37.2053 H   0  0  0  0  0  0  0  0  0  0  0  0
    2.4454   17.0591   38.7167 H   0  0  0  0  0  0  0  0  0  0  0  0
    2.1577   21.7850   41.7981 H   0  0  0  0  0  0  0  0  0  0  0  0
    2.4264   20.4146   40.6683 H   0  0  0  0  0  0  0  0  0  0  0  0
    0.8543   21.2836   40.6683 H   0  0  0  0  0  0  0  0  0  0  0  0
    0.7415   15.2356   37.9389 H   0  0  0  0  0  0  0  0  0  0  0  0
    0.4066   16.1139   36.4082 H   0  0  0  0  0  0  0  0  0  0  0  0
    0.5228   14.3214   36.4082 H   0  0  0  0  0  0  0  0  0  0  0  0
    2.4499   13.8980   35.1272 H   0  0  0  0  0  0  0  0  0  0  0  0
    3.2576   13.5416   36.7869 H   0  0  0  0  0  0  0  0  0  0  0  0
    3.0111   16.1576   41.4977 H   0  0  0  0  0  0  0  0  0  0  0  0
    3.4873   14.2781   39.9928 H   0  0  0  0  0  0  0  0  0  0  0  0
    2.2228   13.3595   39.1074 H   0  0  0  0  0  0  0  0  0  0  0  0
    2.1939   15.1555   39.1074 H   0  0  0  0  0  0  0  0  0  0  0  0
    3.1484   14.3781   42.9414 H   0  0  0  0  0  0  0  0  0  0  0  0
    3.9272   13.5410   41.5559 H   0  0  0  0  0  0  0  0  0  0  0  0
    3.7798   15.3313   41.5559 H   0  0  0  0  0  0  0  0  0  0  0  0
  1 21  1  0
  1 14  1  0
  5  8  2  0
  7 24  1  0
  7 22  1  0
  8 13  1  0
  9 22  2  0
  9  5  1  0
 10 23  1  0
 10 17  1  0
 11 13  2  0
 12 14  1  0
 13  2  1  0
 14 19  1  0
 15  7  2  0
 16  6  1  0
 16 26  1  0
 17 12  1  0
 18  4  2  0
 18  3  1  0
 19 18  1  0
 20  9  1  0
 22 11  1  0
 23  1  1  0
 24  6  1  0
 25 16  1  0
  1 27  1  0
  2 28  1  0
  2 29  1  0
  5 30  1  0
  6 31  1  0
  6 32  1  0
 10 33  1  0
 10 34  1  0
 12 35  1  0
 12 36  1  0
 16 37  1  0
 17 38  1  0
 17 39  1  0
 19 40  1  0
 19 41  1  0
 20 42  1  0
 20 43  1  0
 20 44  1  0
 21 45  1  0
 21 46  1  0
 21 47  1  0
 23 48  1  0
 23 49  1  0
 24 50  1  0
 25 51  1  0
 25 52  1  0
 25 53  1  0
 26 54  1  0
 26 55  1  0
 26 56  1  0
M  CHG  1   3  -1
M  END
>  <mol_id>  (83) 
2026-09-18-5lvo-s0-n100-0086

>  <rmsd_to_ref>  (83) 


$$$$

     RDKit          3D

 56 59  0  0  0  0  0  0  0  0999 V2000
    0.4040   14.8740   37.9340 C   0  0  0  0  0  0  0  0  0  0  0  0
    3.6850   19.5650   37.1110 C   0  0  0  0  0  0  0  0  0  0  0  0
    2.2710   18.0570   39.9330 N   0  0  0  0  0  0  0  0  0  0  0  0
    3.3260   19.3050   38.4020 C   0  0  0  0  0  0  0  0  0  0  0  0
    0.0260   17.6080   45.8840 O   0  0  0  0  0  0  0  0  0  0  0  0
    1.7200   15.9710   37.9340 C   0  0  0  0  0  0  0  0  0  0  0  0
    3.2900   17.9740   36.3180 S   0  0  0  0  0  0  0  0  0  0  0  0
    2.8850   18.0900   38.6960 N   0  0  0  0  0  0  0  0  0  0  0  0
    2.7230   17.1640   37.7600 C   0  0  0  0  0  0  0  0  0  0  0  0
    0.1640   19.5490   43.9200 C   0  0  0  0  0  0  0  0  0  0  0  0
    1.7840   19.5850   41.7260 C   0  0  0  0  0  0  0  0  0  0  0  0
    3.1990   20.4920   39.6120 S   0  0  0  0  0  0  0  0  0  0  0  0
    2.9750   14.5440   40.1800 C   0  0  0  0  0  0  0  0  0  0  0  0
   -1.5990   17.2850   44.0550 C   0  0  0  0  0  0  0  0  0  0  0  0
    3.5880   14.5500   38.8470 C   0  0  0  0  0  0  0  0  0  0  0  0
    1.3210   20.8620   42.1910 C   0  0  0  0  0  0  0  0  0  0  0  0
    2.7270   14.7720   37.6080 C   0  0  0  0  0  0  0  0  0  0  0  0
    0.9070   16.6120   43.8610 C   0  0  0  0  0  0  0  0  0  0  0  0
    0.8400   18.3540   43.5000 C   0  0  0  0  0  0  0  0  0  0  0  0
    0.4120   20.7490   43.2660 C   0  0  0  0  0  0  0  0  0  0  0  0
    4.7490   13.3240   41.1900 O   0  0  0  0  0  1  0  0  0  0  0  0
    1.5830   18.4110   42.3760 C   0  0  0  0  0  0  0  0  0  0  0  0
    2.6950   12.2810   41.0460 O   0  0  0  0  0  0  0  0  0  0  0  0
    3.5580   13.3880   40.9230 C   0  0  0  0  0  0  0  0  0  0  0  0
    4.0570   20.6660   36.5020 N   0  0  0  0  0  4  0  0  0  0  0  0
   -0.6350   15.3220   45.3380 C   0  0  0  0  0  0  0  0  0  0  0  0
    1.5920   13.7550   37.3430 C   0  0  0  0  0  0  0  0  0  0  0  0
    2.3750   19.3210   40.4850 C   0  0  0  0  0  0  0  0  0  0  0  0
   -0.3260   16.7060   44.7120 C   0  0  0  0  0  0  0  0  0  0  0  0
   -0.0173   14.6395   38.9227 H   0  0  0  0  0  0  0  0  0  0  0  0
   -0.5557   15.0692   37.4331 H   0  0  0  0  0  0  0  0  0  0  0  0
   -0.1592   17.1335   46.7329 H   0  0  0  0  0  0  0  0  0  0  0  0
    1.0819   16.7724   38.3349 H   0  0  0  0  0  0  0  0  0  0  0  0
    3.2006   16.1733   37.7803 H   0  0  0  0  0  0  0  0  0  0  0  0
   -0.5484   19.5143   44.7574 H   0  0  0  0  0  0  0  0  0  0  0  0
    1.8847   14.4267   40.0939 H   0  0  0  0  0  0  0  0  0  0  0  0
    3.1721   15.4892   40.7071 H   0  0  0  0  0  0  0  0  0  0  0  0
   -2.3025   17.6050   44.8378 H   0  0  0  0  0  0  0  0  0  0  0  0
   -1.3285   18.1487   43.4298 H   0  0  0  0  0  0  0  0  0  0  0  0
   -2.0722   16.5136   43.4298 H   0  0  0  0  0  0  0  0  0  0  0  0
    4.3476   15.3456   38.8514 H   0  0  0  0  0  0  0  0  0  0  0  0
    3.9376   13.5140   38.7271 H   0  0  0  0  0  0  0  0  0  0  0  0
    1.6390   21.8219   41.7580 H   0  0  0  0  0  0  0  0  0  0  0  0
    3.4819   14.8224   36.8095 H   0  0  0  0  0  0  0  0  0  0  0  0
    1.8070   16.3078   44.4155 H   0  0  0  0  0  0  0  0  0  0  0  0
    0.9458   15.8855   43.0360 H   0  0  0  0  0  0  0  0  0  0  0  0
   -0.1228   21.6504   43.5998 H   0  0  0  0  0  0  0  0  0  0  0  0
    2.0340   17.4896   41.9791 H   0  0  0  0  0  0  0  0  0  0  0  0
    4.2986   21.3811   37.2028 H   0  0  0  0  0  0  0  0  0  0  0  0
    4.8789   20.4714   35.9126 H   0  0  0  0  0  0  0  0  0  0  0  0
    3.2855   21.0098   35.9126 H   0  0  0  0  0  0  0  0  0  0  0  0
   -0.6168   15.4034   46.4348 H   0  0  0  0  0  0  0  0  0  0  0  0
   -1.6303   14.9859   45.0117 H   0  0  0  0  0  0  0  0  0  0  0  0
    0.1228   14.5945   45.0117 H   0  0  0  0  0  0  0  0  0  0  0  0
    1.4677   13.4941   36.2816 H   0  0  0  0  0  0  0  0  0  0  0  0
    1.6524   12.7443   37.7730 H   0  0  0  0  0  0  0  0  0  0  0  0
  2  4  2  0
  3 28  2  0
  4  8  1  0
  4 12  1  0
  6  1  1  0
  7  2  1  0
  8  3  1  0
  9  7  1  0
  9  6  1  0
  9  8  1  0
 11 16  1  0
 11 22  2  0
 12 28  1  0
 13 24  1  0
 14 29  1  0
 15 13  1  0
 16 20  2  0
 17  6  1  0
 17 15  1  0
 18 29  1  0
 19 18  1  0
 19 10  2  0
 20 10  1  0
 22 19  1  0
 24 23  2  0
 24 21  1  0
 25  2  1  0
 27 17  1  0
 27  1  1  0
 28 11  1  0
 29 26  1  0
 29  5  1  0
  1 30  1  0
  1 31  1  0
  5 32  1  0
  6 33  1  0
  9 34  1  0
 10 35  1  0
 13 36  1  0
 13 37  1  0
 14 38  1  0
 14 39  1  0
 14 40  1  0
 15 41  1  0
 15 42  1  0
 16 43  1  0
 17 44  1  0
 18 45  1  0
 18 46  1  0
 20 47  1  0
 22 48  1  0
 25 49  1  0
 25 50  1  0
 25 51  1  0
 26 52  1  0
 26 53  1  0
 26 54  1  0
 27 55  1  0
 27 56  1  0
M  CHG  2  21  -1  25   1
M  END
>  <mol_id>  (84) 
2026-09-18-5lvo-s0-n100-0087

>  <rmsd_to_ref>  (84) 


$$$$

     RDKit          3D

 34 35  0  0  0  0  0  0  0  0999 V2000
    1.8500   17.3820   41.7670 C   0  0  0  0  0  0  0  0  0  0  0  0
    0.3970   16.5330   44.3210 N   0  0  0  0  0  0  0  0  0  0  0  0
    2.7370   17.9360   40.7150 C   0  0  0  0  0  0  0  0  0  0  0  0
    2.5200   17.7630   36.3660 O   0  0  0  0  0  0  0  0  0  0  0  0
    1.2390   19.6570   42.4220 C   0  0  0  0  0  0  0  0  0  0  0  0
    3.6380   15.9260   37.5540 C   0  0  0  0  0  0  0  0  0  0  0  0
    2.1410   20.1570   41.4610 C   0  0  0  0  0  0  0  0  0  0  0  0
    0.5570   17.8060   44.0100 C   0  0  0  0  0  0  0  0  0  0  0  0
    4.0800   17.0450   38.4550 C   0  0  0  0  0  0  0  0  0  0  0  0
    0.1130   18.7950   44.8980 C   0  0  0  0  0  0  0  0  0  0  0  0
    1.2200   18.2260   42.7060 C   0  0  0  0  0  0  0  0  0  0  0  0
    3.4450   16.9390   39.8790 C   0  0  0  0  0  0  0  0  0  0  0  0
    0.4090   20.3800   43.2500 C   0  0  0  0  0  0  0  0  0  0  0  0
    2.8550   19.3190   40.6410 C   0  0  0  0  0  0  0  0  0  0  0  0
    1.3180   15.8870   36.4860 N   0  0  0  0  0  0  0  0  0  0  0  0
    2.4150   16.6050   36.7430 C   0  0  0  0  0  0  0  0  0  0  0  0
    0.1640   21.6320   42.8880 N   0  0  0  0  0  0  0  0  0  0  0  0
   -0.0370   20.0500   44.4430 N   0  0  0  0  0  0  0  0  0  0  0  0
    1.6807   16.2962   41.8159 H   0  0  0  0  0  0  0  0  0  0  0  0
    0.7206   15.8001   43.6737 H   0  0  0  0  0  0  0  0  0  0  0  0
   -0.0515   16.2727   45.2110 H   0  0  0  0  0  0  0  0  0  0  0  0
    4.4459   15.6186   36.8738 H   0  0  0  0  0  0  0  0  0  0  0  0
    3.3561   15.0095   38.0931 H   0  0  0  0  0  0  0  0  0  0  0  0
    2.2759   21.2445   41.3659 H   0  0  0  0  0  0  0  0  0  0  0  0
    5.1752   17.0110   38.5516 H   0  0  0  0  0  0  0  0  0  0  0  0
    3.7481   17.9927   38.0059 H   0  0  0  0  0  0  0  0  0  0  0  0
   -0.1083   18.5485   45.9469 H   0  0  0  0  0  0  0  0  0  0  0  0
    2.7188   16.1187   39.7803 H   0  0  0  0  0  0  0  0  0  0  0  0
    4.3897   16.9453   40.4425 H   0  0  0  0  0  0  0  0  0  0  0  0
    3.5425   19.7559   39.9018 H   0  0  0  0  0  0  0  0  0  0  0  0
    1.2517   14.9128   36.8136 H   0  0  0  0  0  0  0  0  0  0  0  0
    0.5386   16.3077   35.9602 H   0  0  0  0  0  0  0  0  0  0  0  0
   -0.4492   22.2245   43.4657 H   0  0  0  0  0  0  0  0  0  0  0  0
    0.5870   22.0119   42.0291 H   0  0  0  0  0  0  0  0  0  0  0  0
  1 11  2  0
  3  1  1  0
  4 16  2  0
  5 11  1  0
  5 13  1  0
  6  9  1  0
  7  5  2  0
  8  2  1  0
  8 10  2  0
  9 12  1  0
 11  8  1  0
 12  3  1  0
 13 18  2  0
 14  3  2  0
 14  7  1  0
 15 16  1  0
 16  6  1  0
 17 13  1  0
 18 10  1  0
  1 19  1  0
  2 20  1  0
  2 21  1  0
  6 22  1  0
  6 23  1  0
  7 24  1  0
  9 25  1  0
  9 26  1  0
 10 27  1  0
 12 28  1  0
 12 29  1  0
 14 30  1  0
 15 31  1  0
 15 32  1  0
 17 33  1  0
 17 34  1  0
M  END
>  <mol_id>  (85) 
2026-09-18-5lvo-s0-n100-0088

>  <rmsd_to_ref>  (85) 


$$$$

     RDKit          3D

 79 81  0  0  0  0  0  0  0  0999 V2000
    2.0830   17.0010   37.9660 C   0  0  0  0  0  0  0  0  0  0  0  0
    2.4980   15.9970   37.0890 C   0  0  0  0  0  0  0  0  0  0  0  0
    0.1030   19.1330   44.6830 C   0  0  0  0  0  0  0  0  0  0  0  0
   -2.2620   15.0660   43.6880 C   0  0  0  0  0  0  0  0  0  0  0  0
    0.3570   13.7140   40.2860 O   0  0  0  0  0  0  0  0  0  0  0  0
   -0.5990   16.7670   44.3650 C   0  0  0  0  0  0  0  0  0  0  0  0
    3.7770   16.4420   36.2870 C   0  0  0  0  0  0  0  0  0  0  0  0
    1.1450   19.1700   42.6470 C   0  0  0  0  0  0  0  0  0  0  0  0
    0.7660   18.6350   43.6030 N   0  0  0  0  0  0  0  0  0  0  0  0
    1.2420   15.1020   37.4580 O   0  0  0  0  0  0  0  0  0  0  0  0
    3.7520   15.2210   37.1010 C   0  0  0  0  0  0  0  0  0  0  0  0
   -1.1920   14.1820   43.3010 N   0  0  0  0  0  0  0  0  0  0  0  0
    5.5430   21.1410   37.9940 C   0  0  0  0  0  0  0  0  0  0  0  0
    3.3390   19.6220   35.2140 O   0  0  0  0  0  0  0  0  0  0  0  0
    0.8590   15.4070   38.6830 C   0  0  0  0  0  0  0  0  0  0  0  0
    5.1720   14.5840   36.7170 C   0  0  0  0  0  0  0  0  0  0  0  0
    3.1350   19.1460   37.6020 C   0  0  0  0  0  0  0  0  0  0  0  0
    6.0180   22.3230   39.0300 C   0  0  0  0  0  0  0  0  0  0  0  0
    2.1640   17.1490   41.9920 O   0  0  0  0  0  0  0  0  0  0  0  0
    1.3410   17.8010   42.5310 C   0  0  0  0  0  0  0  0  0  0  0  0
    0.0220   14.4950   43.4840 C   0  0  0  0  0  0  0  0  0  0  0  0
    0.3150   15.6710   44.0960 C   0  0  0  0  0  0  0  0  0  0  0  0
   -1.9730   16.1350   44.3960 C   0  0  0  0  0  0  0  0  0  0  0  0
    1.0160   20.3670   41.9260 C   0  0  0  0  0  0  0  0  0  0  0  0
   -0.4030   17.9080   45.5470 C   0  0  0  0  0  0  0  0  0  0  0  0
   -0.0730   20.3120   44.8740 O   0  0  0  0  0  0  0  0  0  0  0  0
    1.4080   16.2260   39.2540 C   0  0  0  0  0  0  0  0  0  0  0  0
    3.1090   18.0160   38.2440 C   0  0  0  0  0  0  0  0  0  0  0  0
    3.4820   19.9200   36.2320 C   0  0  0  0  0  0  0  0  0  0  0  0
    1.5000   15.8650   44.5490 O   0  0  0  0  0  0  0  0  0  0  0  0
   -0.1510   14.7170   39.4570 C   0  0  0  0  0  0  0  0  0  0  0  0
    3.8670   21.2200   36.1200 N   0  0  0  0  0  0  0  0  0  0  0  0
    4.6070   21.9860   37.0750 C   0  0  0  0  0  0  0  0  0  0  0  0
    6.4650   15.3910   36.9250 O   0  0  0  0  0  0  0  0  0  0  0  0
    3.2400   21.8600   35.1330 C   0  0  0  0  0  0  0  0  0  0  0  0
    1.8220   20.6510   40.8100 C   0  0  0  0  0  0  0  0  0  0  0  0
    1.3180   17.6525   37.5184 H   0  0  0  0  0  0  0  0  0  0  0  0
   -2.9763   14.4714   44.2764 H   0  0  0  0  0  0  0  0  0  0  0  0
   -2.6329   15.4697   42.7343 H   0  0  0  0  0  0  0  0  0  0  0  0
    0.2267   13.9712   41.2331 H   0  0  0  0  0  0  0  0  0  0  0  0
   -0.3633   17.4761   43.5578 H   0  0  0  0  0  0  0  0  0  0  0  0
    3.7948   16.3777   35.1890 H   0  0  0  0  0  0  0  0  0  0  0  0
    4.4032   17.3450   36.2362 H   0  0  0  0  0  0  0  0  0  0  0  0
    1.5846   20.1120   42.2871 H   0  0  0  0  0  0  0  0  0  0  0  0
    3.7059   14.3774   37.8055 H   0  0  0  0  0  0  0  0  0  0  0  0
    6.3909   20.7139   37.4384 H   0  0  0  0  0  0  0  0  0  0  0  0
    5.0786   20.2601   38.4612 H   0  0  0  0  0  0  0  0  0  0  0  0
    1.5558   14.6580   39.0873 H   0  0  0  0  0  0  0  0  0  0  0  0
    5.2757   13.6624   37.3085 H   0  0  0  0  0  0  0  0  0  0  0  0
    5.1133   14.4831   35.6232 H   0  0  0  0  0  0  0  0  0  0  0  0
    2.0794   19.4365   37.7088 H   0  0  0  0  0  0  0  0  0  0  0  0
    4.1645   19.3142   37.9512 H   0  0  0  0  0  0  0  0  0  0  0  0
    5.8801   21.9798   40.0659 H   0  0  0  0  0  0  0  0  0  0  0  0
    7.0794   22.5556   38.8591 H   0  0  0  0  0  0  0  0  0  0  0  0
    5.4127   23.2254   38.8591 H   0  0  0  0  0  0  0  0  0  0  0  0
    2.7282   16.7020   42.6717 H   0  0  0  0  0  0  0  0  0  0  0  0
    1.1706   16.7765   42.1684 H   0  0  0  0  0  0  0  0  0  0  0  0
    0.8273   13.8234   43.1517 H   0  0  0  0  0  0  0  0  0  0  0  0
   -2.6790   16.9161   44.0773 H   0  0  0  0  0  0  0  0  0  0  0  0
   -2.0296   15.7533   45.4261 H   0  0  0  0  0  0  0  0  0  0  0  0
   -0.0249   20.4036   41.5723 H   0  0  0  0  0  0  0  0  0  0  0  0
    1.3568   21.1161   42.6558 H   0  0  0  0  0  0  0  0  0  0  0  0
    0.3462   17.5982   46.2904 H   0  0  0  0  0  0  0  0  0  0  0  0
   -1.3045   18.1092   46.1443 H   0  0  0  0  0  0  0  0  0  0  0  0
    2.1669   15.8185   39.9381 H   0  0  0  0  0  0  0  0  0  0  0  0
    0.7881   16.8472   39.9172 H   0  0  0  0  0  0  0  0  0  0  0  0
    3.0171   18.2668   39.3111 H   0  0  0  0  0  0  0  0  0  0  0  0
    4.0298   17.5243   37.8970 H   0  0  0  0  0  0  0  0  0  0  0  0
   -0.6701   15.4556   40.0855 H   0  0  0  0  0  0  0  0  0  0  0  0
   -0.8236   14.2262   38.7381 H   0  0  0  0  0  0  0  0  0  0  0  0
    5.2263   22.7121   36.5279 H   0  0  0  0  0  0  0  0  0  0  0  0
    3.8676   22.4636   37.7347 H   0  0  0  0  0  0  0  0  0  0  0  0
    6.6353   15.4973   37.8944 H   0  0  0  0  0  0  0  0  0  0  0  0
    2.5301   22.5846   35.5586 H   0  0  0  0  0  0  0  0  0  0  0  0
    3.9778   22.3903   34.5130 H   0  0  0  0  0  0  0  0  0  0  0  0
    2.6947   21.1332   34.5130 H   0  0  0  0  0  0  0  0  0  0  0  0
    2.8089   20.9987   41.1494 H   0  0  0  0  0  0  0  0  0  0  0  0
    1.9424   19.7412   40.2036 H   0  0  0  0  0  0  0  0  0  0  0  0
    1.3455   21.4354   40.2036 H   0  0  0  0  0  0  0  0  0  0  0  0
  1 28  1  0
  1 27  1  0
  2  7  1  0
  2 11  1  0
  2 10  1  0
  2  1  1  0
  3 26  2  0
  3 25  1  0
  4 23  1  0
  6 23  1  0
  6 25  1  0
  7 11  1  0
  8 24  1  0
  8  9  1  0
  9  3  1  0
 10 15  1  0
 11 16  1  0
 12 21  2  0
 12  4  1  0
 13 18  1  0
 14 29  2  0
 15 27  1  0
 15 31  1  0
 16 34  1  0
 17 28  1  0
 20 19  1  0
 20  8  1  0
 20  9  1  0
 21 22  1  0
 22  6  1  0
 22 30  2  0
 29 17  1  0
 31  5  1  0
 32 29  1  0
 32 33  1  0
 33 13  1  0
 35 32  1  0
 36 24  1  0
  1 37  1  0
  4 38  1  0
  4 39  1  0
  5 40  1  0
  6 41  1  0
  7 42  1  0
  7 43  1  0
  8 44  1  0
 11 45  1  0
 13 46  1  0
 13 47  1  0
 15 48  1  0
 16 49  1  0
 16 50  1  0
 17 51  1  0
 17 52  1  0
 18 53  1  0
 18 54  1  0
 18 55  1  0
 19 56  1  0
 20 57  1  0
 21 58  1  0
 23 59  1  0
 23 60  1  0
 24 61  1  0
 24 62  1  0
 25 63  1  0
 25 64  1  0
 27 65  1  0
 27 66  1  0
 28 67  1  0
 28 68  1  0
 31 69  1  0
 31 70  1  0
 33 71  1  0
 33 72  1  0
 34 73  1  0
 35 74  1  0
 35 75  1  0
 35 76  1  0
 36 77  1  0
 36 78  1  0
 36 79  1  0
M  END
>  <mol_id>  (86) 
2026-09-18-5lvo-s0-n100-0089

>  <rmsd_to_ref>  (86) 


$$$$

     RDKit          3D

 78 81  0  0  0  0  0  0  0  0999 V2000
    1.4530   20.4540   41.3800 C   0  0  0  0  0  0  0  0  0  0  0  0
   -1.9340   14.0110   44.2610 C   0  0  0  0  0  0  0  0  0  0  0  0
    6.3700   15.1440   36.5040 C   0  0  0  0  0  0  0  0  0  0  0  0
    2.9660   14.2450   41.2210 O   0  0  0  0  0  0  0  0  0  0  0  0
    3.8650   21.7340   36.9080 N   0  0  0  0  0  0  0  0  0  0  0  0
    2.8220   14.6020   40.0310 C   0  0  0  0  0  0  0  0  0  0  0  0
    1.2420   18.2740   42.2980 C   0  0  0  0  0  0  0  0  0  0  0  0
    3.2740   20.7170   36.2850 O   0  0  0  0  0  0  0  0  0  0  0  0
   -0.1290   17.6560   44.4860 C   0  0  0  0  0  0  0  0  0  0  0  0
    1.8260   21.3790   38.9500 O   0  0  0  0  0  0  0  0  0  0  0  0
    2.4740   18.6970   39.8790 C   0  0  0  0  0  0  0  0  0  0  0  0
    4.0250   14.2950   36.7720 C   0  0  0  0  0  0  0  0  0  0  0  0
    0.8890   21.3960   41.2920 O   0  0  0  0  0  0  0  0  0  0  0  0
    2.6440   13.4970   39.0660 C   0  0  0  0  0  0  0  0  0  0  0  0
    2.1160   17.5870   42.0110 N   0  0  0  0  0  4  0  0  0  0  0  0
    2.6780   17.1950   40.6030 C   0  0  0  0  0  0  0  0  0  0  0  0
    0.4550   20.2100   43.7100 C   0  0  0  0  0  0  0  0  0  0  0  0
    0.7140   17.7500   43.3970 C   0  0  0  0  0  0  0  0  0  0  0  0
    2.9030   13.8150   37.4360 C   0  0  0  0  0  0  0  0  0  0  0  0
    4.9540   15.0600   37.2960 N   0  0  0  0  0  0  0  0  0  0  0  0
    4.3640   21.5810   38.0880 C   0  0  0  0  0  0  0  0  0  0  0  0
    3.7120   15.7590   39.5340 C   0  0  0  0  0  0  0  0  0  0  0  0
    5.6860   16.6740   38.8910 O   0  0  0  0  0  0  0  0  0  0  0  0
    3.8060   20.5270   38.9770 C   0  0  0  0  0  0  0  0  0  0  0  0
   -0.1450   19.9080   44.8450 N   0  0  0  0  0  0  0  0  0  0  0  0
   -2.0790   13.8000   45.6650 C   0  0  0  0  0  0  0  0  0  0  0  0
   -1.2060   14.6460   46.5930 C   0  0  0  0  0  0  0  0  0  0  0  0
    3.7410   16.6360   40.6190 O   0  0  0  0  0  0  0  0  0  0  0  0
    1.0200   19.6400   42.6380 C   0  0  0  0  0  0  0  0  0  0  0  0
   -0.5940   15.8790   46.1400 C   0  0  0  0  0  0  0  0  0  0  0  0
    4.8330   15.8750   38.5240 C   0  0  0  0  0  0  0  0  0  0  0  0
   -0.4900   18.7080   45.3020 C   0  0  0  0  0  0  0  0  0  0  0  0
   -0.6050   16.0510   44.6770 C   0  0  0  0  0  0  0  0  0  0  0  0
    2.2990   19.7650   40.4480 C   0  0  0  0  0  0  0  0  0  0  0  0
   -1.4300   15.2520   43.7730 C   0  0  0  0  0  0  0  0  0  0  0  0
    2.7700   20.8530   39.6390 N   0  0  0  0  0  0  0  0  0  0  0  0
   -1.2578   13.2265   43.8906 H   0  0  0  0  0  0  0  0  0  0  0  0
   -2.9717   13.9997   43.8962 H   0  0  0  0  0  0  0  0  0  0  0  0
    7.1943   15.1929   37.2308 H   0  0  0  0  0  0  0  0  0  0  0  0
    6.4904   14.2514   35.8725 H   0  0  0  0  0  0  0  0  0  0  0  0
    6.3841   16.0446   35.8725 H   0  0  0  0  0  0  0  0  0  0  0  0
    3.1624   22.4837   36.9802 H   0  0  0  0  0  0  0  0  0  0  0  0
    0.9713   18.3192   41.2328 H   0  0  0  0  0  0  0  0  0  0  0  0
    2.9080   20.0871   36.9554 H   0  0  0  0  0  0  0  0  0  0  0  0
   -1.0108   17.8425   43.8554 H   0  0  0  0  0  0  0  0  0  0  0  0
    1.1446   21.7587   39.5596 H   0  0  0  0  0  0  0  0  0  0  0  0
    1.6014   18.5792   39.2197 H   0  0  0  0  0  0  0  0  0  0  0  0
    3.4965   18.8573   39.5064 H   0  0  0  0  0  0  0  0  0  0  0  0
    3.6343   14.8599   35.9128 H   0  0  0  0  0  0  0  0  0  0  0  0
    4.5917   13.3598   36.6524 H   0  0  0  0  0  0  0  0  0  0  0  0
    3.3394   12.6956   39.3562 H   0  0  0  0  0  0  0  0  0  0  0  0
    1.5737   13.2510   39.1285 H   0  0  0  0  0  0  0  0  0  0  0  0
    2.9259   17.9970   42.4977 H   0  0  0  0  0  0  0  0  0  0  0  0
    1.6548   16.6908   42.2233 H   0  0  0  0  0  0  0  0  0  0  0  0
    2.1971   16.3880   40.0308 H   0  0  0  0  0  0  0  0  0  0  0  0
    0.5102   21.3040   43.6096 H   0  0  0  0  0  0  0  0  0  0  0  0
    0.4627   16.7722   42.9603 H   0  0  0  0  0  0  0  0  0  0  0  0
    1.2937   18.4886   43.9700 H   0  0  0  0  0  0  0  0  0  0  0  0
    2.1144   14.5375   37.1790 H   0  0  0  0  0  0  0  0  0  0  0  0
    2.9845   12.7695   37.1040 H   0  0  0  0  0  0  0  0  0  0  0  0
    5.4339   21.3605   37.9592 H   0  0  0  0  0  0  0  0  0  0  0  0
    4.1136   22.5199   38.6035 H   0  0  0  0  0  0  0  0  0  0  0  0
    3.2826   15.8643   38.5268 H   0  0  0  0  0  0  0  0  0  0  0  0
    3.5479   19.6597   38.3515 H   0  0  0  0  0  0  0  0  0  0  0  0
    4.5865   20.3227   39.7247 H   0  0  0  0  0  0  0  0  0  0  0  0
   -3.1290   14.0021   45.9233 H   0  0  0  0  0  0  0  0  0  0  0  0
   -1.7487   12.7641   45.8315 H   0  0  0  0  0  0  0  0  0  0  0  0
   -1.8353   14.9104   47.4556 H   0  0  0  0  0  0  0  0  0  0  0  0
   -0.3344   13.9952   46.7565 H   0  0  0  0  0  0  0  0  0  0  0  0
   -0.0039   19.5722   42.2417 H   0  0  0  0  0  0  0  0  0  0  0  0
   -1.1383   16.7216   46.5915 H   0  0  0  0  0  0  0  0  0  0  0  0
    0.4613   15.8426   46.4483 H   0  0  0  0  0  0  0  0  0  0  0  0
   -1.5831   18.6885   45.4231 H   0  0  0  0  0  0  0  0  0  0  0  0
    0.0522   18.5678   46.2487 H   0  0  0  0  0  0  0  0  0  0  0  0
    0.0285   15.3838   44.0740 H   0  0  0  0  0  0  0  0  0  0  0  0
    2.5402   19.0213   41.2218 H   0  0  0  0  0  0  0  0  0  0  0  0
   -0.8238   15.0331   42.8816 H   0  0  0  0  0  0  0  0  0  0  0  0
   -2.3252   15.8663   43.5962 H   0  0  0  0  0  0  0  0  0  0  0  0
  1 29  1  0
  2 26  1  0
  3 20  1  0
  5 21  1  0
  6  4  2  0
  7 29  1  0
  7 18  1  0
  8  5  1  0
  9 33  1  0
  9 32  1  0
 10 36  1  0
 11 34  1  0
 11 16  1  0
 12 20  1  0
 12 19  1  0
 13  1  2  0
 14  6  1  0
 15  7  1  0
 16 28  1  0
 16 15  1  0
 17 25  2  0
 18  9  1  0
 19 14  1  0
 20 31  1  0
 21 24  1  0
 22  6  1  0
 22 28  1  0
 24 36  1  0
 25 32  1  0
 26 27  1  0
 29 17  1  0
 30 27  1  0
 31 23  2  0
 31 22  1  0
 33 30  1  0
 34 36  1  0
 34  1  1  0
 35  2  1  0
 35 33  1  0
  2 37  1  0
  2 38  1  0
  3 39  1  0
  3 40  1  0
  3 41  1  0
  5 42  1  0
  7 43  1  0
  8 44  1  0
  9 45  1  0
 10 46  1  0
 11 47  1  0
 11 48  1  0
 12 49  1  0
 12 50  1  0
 14 51  1  0
 14 52  1  0
 15 53  1  0
 15 54  1  0
 16 55  1  0
 17 56  1  0
 18 57  1  0
 18 58  1  0
 19 59  1  0
 19 60  1  0
 21 61  1  0
 21 62  1  0
 22 63  1  0
 24 64  1  0
 24 65  1  0
 26 66  1  0
 26 67  1  0
 27 68  1  0
 27 69  1  0
 29 70  1  0
 30 71  1  0
 30 72  1  0
 32 73  1  0
 32 74  1  0
 33 75  1  0
 34 76  1  0
 35 77  1  0
 35 78  1  0
M  CHG  1  15   1
M  END
>  <mol_id>  (87) 
2026-09-18-5lvo-s0-n100-0090

>  <rmsd_to_ref>  (87) 


$$$$

     RDKit          3D

 57 59  0  0  0  0  0  0  0  0999 V2000
    0.4120   18.2370   43.5740 C   0  0  0  0  0  0  0  0  0  0  0  0
    3.1650   19.5010   39.7870 N   0  0  0  0  0  0  0  0  0  0  0  0
    4.0180   21.2080   37.3600 C   0  0  0  0  0  0  0  0  0  0  0  0
   -1.2560   16.6480   43.7060 C   0  0  0  0  0  0  0  0  0  0  0  0
    3.1960   18.0610   37.9580 C   0  0  0  0  0  0  0  0  0  0  0  0
   -0.5880   19.9660   44.9010 O   0  0  0  0  0  0  0  0  0  0  0  0
    1.8220   16.3550   38.8370 C   0  0  0  0  0  0  0  0  0  0  0  0
   -0.2820   14.8880   44.5470 C   0  0  0  0  0  0  0  0  0  0  0  0
    1.7610   18.9270   41.6060 C   0  0  0  0  0  0  0  0  0  0  0  0
    4.5180   20.1740   38.0040 O   0  0  0  0  0  0  0  0  0  0  0  0
    0.7740   20.6900   43.1340 C   0  0  0  0  0  0  0  0  0  0  0  0
    1.4970   20.2920   41.9270 C   0  0  0  0  0  0  0  0  0  0  0  0
    0.0520   13.4460   37.1860 N   0  0  0  0  0  4  0  0  0  0  0  0
    4.1880   18.3890   35.6920 O   0  0  0  0  0  0  0  0  0  0  0  0
    2.4930   18.6860   40.4270 C   0  0  0  0  0  0  0  0  0  0  0  0
    2.5990   17.4810   40.1240 N   0  0  0  0  0  0  0  0  0  0  0  0
    3.0340   17.1840   38.9550 N   0  0  0  0  0  0  0  0  0  0  0  0
    0.2110   19.6310   43.8990 C   0  0  0  0  0  0  0  0  0  0  0  0
    3.2170   17.7440   36.5150 C   0  0  0  0  0  0  0  0  0  0  0  0
    1.0620   15.6770   40.0230 C   0  0  0  0  0  0  0  0  0  0  0  0
   -0.2730   17.3610   44.2350 N   0  0  0  0  0  0  0  0  0  0  0  0
    1.1990   17.9070   42.4990 C   0  0  0  0  0  0  0  0  0  0  0  0
    0.7270   14.3770   38.0540 C   0  0  0  0  0  0  0  0  0  0  0  0
    0.2290   14.5990   39.3470 C   0  0  0  0  0  0  0  0  0  0  0  0
    1.8890   15.3940   37.4720 S   0  0  0  0  0  0  0  0  0  0  0  0
    3.6760   19.2120   38.6020 C   0  0  0  0  0  0  0  0  0  0  0  0
    0.1890   16.2440   44.9680 C   0  0  0  0  0  0  0  0  0  0  0  0
    3.6580   21.9526   38.0853 H   0  0  0  0  0  0  0  0  0  0  0  0
    4.7977   21.6586   36.7284 H   0  0  0  0  0  0  0  0  0  0  0  0
    3.1806   20.8766   36.7284 H   0  0  0  0  0  0  0  0  0  0  0  0
   -1.8634   16.2074   44.5104 H   0  0  0  0  0  0  0  0  0  0  0  0
   -1.8878   17.2993   43.0842 H   0  0  0  0  0  0  0  0  0  0  0  0
   -0.8331   15.8452   43.0842 H   0  0  0  0  0  0  0  0  0  0  0  0
    2.4147   18.2275   37.2018 H   0  0  0  0  0  0  0  0  0  0  0  0
   -0.7272   20.9201   45.1254 H   0  0  0  0  0  0  0  0  0  0  0  0
    1.1129   17.1949   38.7961 H   0  0  0  0  0  0  0  0  0  0  0  0
   -0.4932   14.2799   45.4390 H   0  0  0  0  0  0  0  0  0  0  0  0
   -1.1980   14.9882   43.9462 H   0  0  0  0  0  0  0  0  0  0  0  0
    0.4989   14.3988   43.9462 H   0  0  0  0  0  0  0  0  0  0  0  0
    0.6717   21.7438   43.4322 H   0  0  0  0  0  0  0  0  0  0  0  0
    1.8510   21.0749   41.2401 H   0  0  0  0  0  0  0  0  0  0  0  0
   -0.4523   12.7505   37.7542 H   0  0  0  0  0  0  0  0  0  0  0  0
   -0.6180   13.9546   36.5916 H   0  0  0  0  0  0  0  0  0  0  0  0
    0.7437   12.9673   36.5916 H   0  0  0  0  0  0  0  0  0  0  0  0
    4.8610   18.8360   36.2642 H   0  0  0  0  0  0  0  0  0  0  0  0
    1.8591   19.4701   39.9873 H   0  0  0  0  0  0  0  0  0  0  0  0
    3.2393   17.0503   40.8061 H   0  0  0  0  0  0  0  0  0  0  0  0
    3.3809   16.6602   36.4226 H   0  0  0  0  0  0  0  0  0  0  0  0
    2.2533   18.1207   36.1416 H   0  0  0  0  0  0  0  0  0  0  0  0
    1.7689   15.2345   40.7403 H   0  0  0  0  0  0  0  0  0  0  0  0
    0.4526   16.3874   40.6009 H   0  0  0  0  0  0  0  0  0  0  0  0
    1.4148   16.8467   42.3010 H   0  0  0  0  0  0  0  0  0  0  0  0
    1.4624   13.5858   38.2619 H   0  0  0  0  0  0  0  0  0  0  0  0
   -0.8192   14.9272   39.2867 H   0  0  0  0  0  0  0  0  0  0  0  0
    0.2841   13.6680   39.9302 H   0  0  0  0  0  0  0  0  0  0  0  0
   -0.1196   16.3880   46.0140 H   0  0  0  0  0  0  0  0  0  0  0  0
    1.2744   16.2268   44.7903 H   0  0  0  0  0  0  0  0  0  0  0  0
  1 18  2  0
  1 21  1  0
  2 15  1  0
  3 10  1  0
  4 21  1  0
  5 19  1  0
  5 26  1  0
  5 17  1  0
  7 17  1  0
  7 20  1  0
  8 27  1  0
  9 12  1  0
  9 22  2  0
 10 26  1  0
 11 18  1  0
 12 11  2  0
 14 19  1  0
 15  9  1  0
 16 15  1  0
 17 16  1  0
 18  6  1  0
 21 27  1  0
 22  1  1  0
 23 13  1  0
 23 24  1  0
 24 20  1  0
 25 23  1  0
 25  7  1  0
 26  2  2  0
  3 28  1  0
  3 29  1  0
  3 30  1  0
  4 31  1  0
  4 32  1  0
  4 33  1  0
  5 34  1  0
  6 35  1  0
  7 36  1  0
  8 37  1  0
  8 38  1  0
  8 39  1  0
 11 40  1  0
 12 41  1  0
 13 42  1  0
 13 43  1  0
 13 44  1  0
 14 45  1  0
 15 46  1  0
 16 47  1  0
 19 48  1  0
 19 49  1  0
 20 50  1  0
 20 51  1  0
 22 52  1  0
 23 53  1  0
 24 54  1  0
 24 55  1  0
 27 56  1  0
 27 57  1  0
M  CHG  1  13   1
M  END
>  <mol_id>  (88) 
2026-09-18-5lvo-s0-n100-0092

>  <rmsd_to_ref>  (88) 


$$$$

     RDKit          3D

 45 47  0  0  0  0  0  0  0  0999 V2000
    3.2910   19.7120   39.0790 C   0  0  0  0  0  0  0  0  0  0  0  0
    1.3330   20.3810   42.2220 C   0  0  0  0  0  0  0  0  0  0  0  0
    2.6260   19.5800   40.4020 C   0  0  0  0  0  0  0  0  0  0  0  0
   -0.5200   18.4270   45.8000 O   0  0  0  0  0  0  0  0  0  0  0  0
    0.3810   15.1730   38.6830 C   0  0  0  0  0  0  0  0  0  0  0  0
    0.6210   21.3000   42.8910 O   0  0  0  0  0  0  0  0  0  0  0  0
    2.2870   15.7220   37.4080 C   0  0  0  0  0  0  0  0  0  0  0  0
    3.6420   17.5840   38.1930 C   0  0  0  0  0  0  0  0  0  0  0  0
    0.2450   14.4150   37.4200 N   0  0  0  0  0  0  0  0  0  0  0  0
    2.0060   20.6260   41.1340 C   0  0  0  0  0  0  0  0  0  0  0  0
    0.0120   19.4040   44.9950 N   0  0  0  0  0  0  0  0  0  0  0  0
    3.2920   16.6490   37.1410 C   0  0  0  0  0  0  0  0  0  0  0  0
    2.4910   18.3320   40.9740 C   0  0  0  0  0  0  0  0  0  0  0  0
    1.3240   15.0090   36.7450 N   0  0  0  0  0  0  0  0  0  0  0  0
    2.9990   18.7290   38.0530 N   0  0  0  0  0  4  0  0  0  0  0  0
   -0.6570   17.2010   45.1130 C   0  0  0  0  0  0  0  0  0  0  0  0
    2.1330   15.1740   39.1190 S   0  0  0  0  0  0  0  0  0  0  0  0
    4.6080   16.9050   39.0390 C   0  0  0  0  0  0  0  0  0  0  0  0
    1.1080   19.1190   42.7730 C   0  0  0  0  0  0  0  0  0  0  0  0
    1.8380   18.1200   42.1730 C   0  0  0  0  0  0  0  0  0  0  0  0
    5.3010   16.1600   38.3620 O   0  0  0  0  0  0  0  0  0  0  0  0
    0.3210   18.7590   43.8890 C   0  0  0  0  0  0  0  0  0  0  0  0
    4.2750   17.0270   36.1240 O   0  0  0  0  0  0  0  0  0  0  0  0
   -0.1600   17.4320   43.9780 C   0  0  0  0  0  0  0  0  0  0  0  0
    3.0132   20.6961   38.6734 H   0  0  0  0  0  0  0  0  0  0  0  0
    4.3580   19.5603   39.2993 H   0  0  0  0  0  0  0  0  0  0  0  0
   -0.2050   14.6888   39.4781 H   0  0  0  0  0  0  0  0  0  0  0  0
    0.0077   16.2008   38.5637 H   0  0  0  0  0  0  0  0  0  0  0  0
    0.6681   22.2525   42.6251 H   0  0  0  0  0  0  0  0  0  0  0  0
    2.9913   14.9009   37.2084 H   0  0  0  0  0  0  0  0  0  0  0  0
    4.4612   17.9759   37.5722 H   0  0  0  0  0  0  0  0  0  0  0  0
    0.3735   13.4017   37.5531 H   0  0  0  0  0  0  0  0  0  0  0  0
    2.0954   21.6623   40.7761 H   0  0  0  0  0  0  0  0  0  0  0  0
    4.0315   15.9817   37.6078 H   0  0  0  0  0  0  0  0  0  0  0  0
    2.9231   17.4658   40.4515 H   0  0  0  0  0  0  0  0  0  0  0  0
    0.9133   15.6521   36.0531 H   0  0  0  0  0  0  0  0  0  0  0  0
    3.2539   19.1316   37.1398 H   0  0  0  0  0  0  0  0  0  0  0  0
    1.9950   18.5128   38.1316 H   0  0  0  0  0  0  0  0  0  0  0  0
   -1.0956   16.2623   45.4825 H   0  0  0  0  0  0  0  0  0  0  0  0
    5.2484   17.6506   39.5329 H   0  0  0  0  0  0  0  0  0  0  0  0
    4.0738   16.3139   39.7974 H   0  0  0  0  0  0  0  0  0  0  0  0
    1.9033   17.1341   42.6564 H   0  0  0  0  0  0  0  0  0  0  0  0
    5.8403   15.5803   38.9563 H   0  0  0  0  0  0  0  0  0  0  0  0
    5.1017   17.3449   36.5662 H   0  0  0  0  0  0  0  0  0  0  0  0
   -0.1072   16.6964   43.1619 H   0  0  0  0  0  0  0  0  0  0  0  0
  1  3  1  0
  2 19  2  0
  2  6  1  0
  3 13  1  0
  3 10  2  0
  5 17  1  0
  7 12  1  0
  7 17  1  0
  8 18  1  0
  9  5  1  0
 10  2  1  0
 11  4  1  0
 12 23  1  0
 12  8  1  0
 13 20  2  0
 14  7  1  0
 14  9  1  0
 15  8  1  0
 15  1  1  0
 16  4  1  0
 19 22  1  0
 20 19  1  0
 21 18  1  0
 22 24  1  0
 22 11  2  0
 24 16  2  0
  1 25  1  0
  1 26  1  0
  5 27  1  0
  5 28  1  0
  6 29  1  0
  7 30  1  0
  8 31  1  0
  9 32  1  0
 10 33  1  0
 12 34  1  0
 13 35  1  0
 14 36  1  0
 15 37  1  0
 15 38  1  0
 16 39  1  0
 18 40  1  0
 18 41  1  0
 20 42  1  0
 21 43  1  0
 23 44  1  0
 24 45  1  0
M  CHG  1  15   1
M  END
>  <mol_id>  (89) 
2026-09-18-5lvo-s0-n100-0093

>  <rmsd_to_ref>  (89) 


$$$$

     RDKit          3D

 47 50  0  0  0  0  0  0  0  0999 V2000
    3.2820   17.0500   37.2420 C   0  0  0  0  0  0  0  0  0  0  0  0
   -0.5390   17.9110   44.6550 C   0  0  0  0  0  0  0  0  0  0  0  0
    0.1940   19.2040   44.2930 C   0  0  0  0  0  0  0  0  0  0  0  0
    3.8800   17.4260   36.1490 C   0  0  0  0  0  0  0  0  0  0  0  0
    3.5140   19.1340   38.2440 C   0  0  0  0  0  0  0  0  0  0  0  0
    1.0820   15.3530   38.5390 N   0  0  0  0  0  0  0  0  0  0  0  0
    3.8980   13.6490   41.5090 O   0  0  0  0  0  1  0  0  0  0  0  0
    4.6570   15.0120   39.8940 O   0  0  0  0  0  0  0  0  0  0  0  0
    3.6340   14.3750   40.6220 C   0  0  0  0  0  0  0  0  0  0  0  0
    0.7950   17.7140   42.4900 C   0  0  0  0  0  0  0  0  0  0  0  0
   -0.6840   14.4880   42.4170 C   0  0  0  0  0  0  0  0  0  0  0  0
    2.2800   14.9630   40.2430 C   0  0  0  0  0  0  0  0  0  0  0  0
   -0.0240   20.2880   44.7520 O   0  0  0  0  0  0  0  0  0  0  0  0
    1.1760   14.2720   37.8620 O   0  0  0  0  0  0  0  0  0  0  0  0
    2.1610   15.9830   39.2010 C   0  0  0  0  0  0  0  0  0  0  0  0
   -0.5960   15.7370   43.2540 O   0  0  0  0  0  0  0  0  0  0  0  0
    3.0200   17.8250   38.4030 C   0  0  0  0  0  0  0  0  0  0  0  0
    0.1200   16.9550   43.7350 C   0  0  0  0  0  0  0  0  0  0  0  0
    1.3210   16.7630   41.5140 C   0  0  0  0  0  0  0  0  0  0  0  0
    1.0630   19.0010   43.1170 N   0  0  0  0  0  0  0  0  0  0  0  0
    4.0990   19.5510   37.1200 C   0  0  0  0  0  0  0  0  0  0  0  0
    4.3670   18.7480   36.0490 C   0  0  0  0  0  0  0  0  0  0  0  0
    0.2920   14.4920   41.5490 N   0  0  0  0  0  4  0  0  0  0  0  0
    4.5890   20.7940   36.9050 F   0  0  0  0  0  0  0  0  0  0  0  0
   -0.5350   17.6960   46.0920 O   0  0  0  0  0  0  0  0  0  0  0  0
    2.2110   17.5200   40.0420 S   0  0  0  0  0  4  0  0  0  0  0  0
    1.3290   15.2810   41.4590 C   0  0  0  0  0  0  0  0  0  0  0  0
    2.9378   16.0056   37.2701 H   0  0  0  0  0  0  0  0  0  0  0  0
   -1.6264   17.8501   44.5009 H   0  0  0  0  0  0  0  0  0  0  0  0
    4.0047   16.7224   35.3127 H   0  0  0  0  0  0  0  0  0  0  0  0
    3.4134   19.8413   39.0804 H   0  0  0  0  0  0  0  0  0  0  0  0
    0.7100   16.0568   37.8854 H   0  0  0  0  0  0  0  0  0  0  0  0
    0.5681   18.1528   41.5071 H   0  0  0  0  0  0  0  0  0  0  0  0
   -0.5991   13.6027   43.0643 H   0  0  0  0  0  0  0  0  0  0  0  0
   -1.6502   14.4579   41.8920 H   0  0  0  0  0  0  0  0  0  0  0  0
    1.9255   14.0701   39.7072 H   0  0  0  0  0  0  0  0  0  0  0  0
    1.2431   13.5009   38.4792 H   0  0  0  0  0  0  0  0  0  0  0  0
    2.8720   16.2724   38.4131 H   0  0  0  0  0  0  0  0  0  0  0  0
    0.8536   16.5164   44.4274 H   0  0  0  0  0  0  0  0  0  0  0  0
    0.3710   16.8049   40.9611 H   0  0  0  0  0  0  0  0  0  0  0  0
    1.7643   19.6782   42.7847 H   0  0  0  0  0  0  0  0  0  0  0  0
    4.9232   19.1055   35.1699 H   0  0  0  0  0  0  0  0  0  0  0  0
    0.6988   13.5486   41.6229 H   0  0  0  0  0  0  0  0  0  0  0  0
   -0.2370   14.8691   40.7497 H   0  0  0  0  0  0  0  0  0  0  0  0
   -0.5513   18.5701   46.5565 H   0  0  0  0  0  0  0  0  0  0  0  0
    3.4261   17.1863   40.5797 H   0  0  0  0  0  0  0  0  0  0  0  0
    1.6283   14.9855   42.4754 H   0  0  0  0  0  0  0  0  0  0  0  0
  1 17  2  0
  2 25  1  0
  3  2  1  0
  3 13  2  0
  4  1  1  0
  5 17  1  0
  8  9  2  0
  9  7  1  0
 10 20  1  0
 10 18  1  0
 11 16  1  0
 12  9  1  0
 12 27  1  0
 14  6  1  0
 15  6  1  0
 15 26  1  0
 15 12  1  0
 17 26  1  0
 18 16  1  0
 18  2  1  0
 19 10  1  0
 20  3  1  0
 21  5  2  0
 22  4  2  0
 22 21  1  0
 23 11  1  0
 24 21  1  0
 26 19  1  0
 27 19  1  0
 27 23  1  0
  1 28  1  0
  2 29  1  0
  4 30  1  0
  5 31  1  0
  6 32  1  0
 10 33  1  0
 11 34  1  0
 11 35  1  0
 12 36  1  0
 14 37  1  0
 15 38  1  0
 18 39  1  0
 19 40  1  0
 20 41  1  0
 22 42  1  0
 23 43  1  0
 23 44  1  0
 25 45  1  0
 26 46  1  0
 27 47  1  0
M  CHG  2   7  -1  23   1
M  END
>  <mol_id>  (90) 
2026-09-18-5lvo-s0-n100-0094

>  <rmsd_to_ref>  (90) 


$$$$

     RDKit          3D

 34 36  0  0  0  0  0  0  0  0999 V2000
    3.4980   17.0760   38.3840 S   0  0  0  0  0  6  0  0  0  0  0  0
    3.9960   17.1430   37.0680 O   0  0  0  0  0  0  0  0  0  0  0  0
    4.5650   16.7850   39.4500 O   0  0  0  0  0  0  0  0  0  0  0  0
    0.0040   19.6740   44.7010 C   0  0  0  0  0  0  0  0  0  0  0  0
    0.6270   18.4370   44.1250 C   0  0  0  0  0  0  0  0  0  0  0  0
    0.2220   15.0760   37.7510 C   0  0  0  0  0  0  0  0  0  0  0  0
    2.3260   16.0200   38.5630 C   0  0  0  0  0  0  0  0  0  0  0  0
    2.0370   15.4240   39.7910 C   0  0  0  0  0  0  0  0  0  0  0  0
    2.3230   19.1560   40.8540 C   0  0  0  0  0  0  0  0  0  0  0  0
    1.3960   15.8850   37.5180 C   0  0  0  0  0  0  0  0  0  0  0  0
    2.9630   18.5030   38.6260 N   0  0  0  0  0  0  0  0  0  0  0  0
    1.8640   20.5250   40.7120 C   0  0  0  0  0  0  0  0  0  0  0  0
    0.9380   14.6210   39.9530 C   0  0  0  0  0  0  0  0  0  0  0  0
    3.4560   18.9280   39.8640 C   0  0  0  0  0  0  0  0  0  0  0  0
    1.0340   21.0600   41.6440 C   0  0  0  0  0  0  0  0  0  0  0  0
    1.1330   18.9740   42.8170 C   0  0  0  0  0  0  0  0  0  0  0  0
    0.1290   14.3080   38.8610 C   0  0  0  0  0  0  0  0  0  0  0  0
    1.9570   18.4160   41.9170 C   0  0  0  0  0  0  0  0  0  0  0  0
   -0.1090   20.7500   43.7740 N   0  0  0  0  0  0  0  0  0  0  0  0
    0.6480   20.2960   42.7100 C   0  0  0  0  0  0  0  0  0  0  0  0
   -0.3351   19.7441   45.7451 H   0  0  0  0  0  0  0  0  0  0  0  0
    0.6943   17.4218   44.5432 H   0  0  0  0  0  0  0  0  0  0  0  0
   -0.6013   15.0845   37.0215 H   0  0  0  0  0  0  0  0  0  0  0  0
    2.7048   15.6022   40.6467 H   0  0  0  0  0  0  0  0  0  0  0  0
    1.5575   16.3814   36.5498 H   0  0  0  0  0  0  0  0  0  0  0  0
    3.2913   19.1336   37.8807 H   0  0  0  0  0  0  0  0  0  0  0  0
    2.1877   21.1283   39.8511 H   0  0  0  0  0  0  0  0  0  0  0  0
    0.6932   14.2219   40.9484 H   0  0  0  0  0  0  0  0  0  0  0  0
    4.1339   18.1596   40.2641 H   0  0  0  0  0  0  0  0  0  0  0  0
    3.9916   19.8779   39.7201 H   0  0  0  0  0  0  0  0  0  0  0  0
    0.6766   22.0954   41.5426 H   0  0  0  0  0  0  0  0  0  0  0  0
   -0.5676   13.4576   38.9011 H   0  0  0  0  0  0  0  0  0  0  0  0
    1.4590   17.5138   41.5322 H   0  0  0  0  0  0  0  0  0  0  0  0
    2.8929   18.2447   42.4691 H   0  0  0  0  0  0  0  0  0  0  0  0
  1  7  1  0
  1 11  1  0
  1  3  2  0
  2  1  2  0
  5  4  1  0
  6 17  2  0
  7  8  1  0
  8 13  2  0
  9 18  1  0
 10  6  1  0
 10  7  2  0
 11 14  1  0
 12  9  2  0
 12 15  1  0
 14  9  1  0
 15 20  2  0
 16  5  2  0
 17 13  1  0
 18 16  1  0
 19  4  2  0
 20 16  1  0
 20 19  1  0
  4 21  1  0
  5 22  1  0
  6 23  1  0
  8 24  1  0
 10 25  1  0
 11 26  1  0
 12 27  1  0
 13 28  1  0
 14 29  1  0
 14 30  1  0
 15 31  1  0
 17 32  1  0
 18 33  1  0
 18 34  1  0
M  END
>  <mol_id>  (91) 
2026-09-18-5lvo-s0-n100-0095

>  <rmsd_to_ref>  (91) 


$$$$

     RDKit          3D

 43 45  0  0  0  0  0  0  0  0999 V2000
    0.6830   20.0740   42.9710 C   0  0  0  0  0  0  0  0  0  0  0  0
    0.0720   20.8410   43.8130 N   0  0  0  0  0  0  0  0  0  0  0  0
    1.5630   18.8820   41.1970 N   0  0  0  0  0  0  0  0  0  0  0  0
    3.8490   16.7760   40.5760 C   0  0  0  0  0  0  0  0  0  0  0  0
    1.1390   18.0390   42.6130 C   0  0  0  0  0  0  0  0  0  0  0  0
    1.4950   21.2200   40.9380 N   0  0  0  0  0  4  0  0  0  0  0  0
    2.0450   18.4190   40.0010 C   0  0  0  0  0  0  0  0  0  0  0  0
    0.1880   18.6730   44.8420 C   0  0  0  0  0  0  0  0  0  0  0  0
    2.6590   16.6570   38.2640 C   0  0  0  0  0  0  0  0  0  0  0  0
    4.5880   15.0750   38.8510 C   0  0  0  0  0  0  0  0  0  0  0  0
    3.1410   18.2470   36.4900 O   0  0  0  0  0  0  0  0  0  0  0  0
    1.0740   16.2910   37.8560 C   0  0  0  0  0  0  0  0  0  0  0  0
    2.5210   16.9490   39.8320 C   0  0  0  0  0  0  0  0  0  0  0  0
    4.2680   15.3410   40.3760 C   0  0  0  0  0  0  0  0  0  0  0  0
   -0.2460   19.9740   44.8270 N   0  0  0  0  0  0  0  0  0  0  0  0
    1.1750   20.1640   41.7050 C   0  0  0  0  0  0  0  0  0  0  0  0
    3.4220   17.6820   37.5010 C   0  0  0  0  0  0  0  0  0  0  0  0
    0.7290   18.8160   43.5970 C   0  0  0  0  0  0  0  0  0  0  0  0
    1.5400   16.7560   42.8120 N   0  0  0  0  0  4  0  0  0  0  0  0
    3.3150   15.3040   37.9460 C   0  0  0  0  0  0  0  0  0  0  0  0
    4.6084   17.4550   40.1609 H   0  0  0  0  0  0  0  0  0  0  0  0
    3.7402   17.0135   41.6445 H   0  0  0  0  0  0  0  0  0  0  0  0
    0.2183   17.4859   42.3754 H   0  0  0  0  0  0  0  0  0  0  0  0
    1.7375   22.0202   41.5394 H   0  0  0  0  0  0  0  0  0  0  0  0
    2.3012   20.9807   40.3433 H   0  0  0  0  0  0  0  0  0  0  0  0
    0.6915   21.4685   40.3433 H   0  0  0  0  0  0  0  0  0  0  0  0
    1.2438   18.5726   39.2631 H   0  0  0  0  0  0  0  0  0  0  0  0
    2.9812   18.9853   39.8880 H   0  0  0  0  0  0  0  0  0  0  0  0
    0.1253   17.8470   45.5658 H   0  0  0  0  0  0  0  0  0  0  0  0
    5.3848   15.7610   38.5277 H   0  0  0  0  0  0  0  0  0  0  0  0
    4.9060   14.0276   38.7419 H   0  0  0  0  0  0  0  0  0  0  0  0
    0.4816   16.1542   38.7727 H   0  0  0  0  0  0  0  0  0  0  0  0
    0.6483   17.1145   37.2638 H   0  0  0  0  0  0  0  0  0  0  0  0
    1.0525   15.3642   37.2638 H   0  0  0  0  0  0  0  0  0  0  0  0
    1.8058   16.2298   40.2578 H   0  0  0  0  0  0  0  0  0  0  0  0
    3.4531   14.6760   40.6979 H   0  0  0  0  0  0  0  0  0  0  0  0
    5.1708   15.1435   40.9727 H   0  0  0  0  0  0  0  0  0  0  0  0
    4.3930   17.9604   37.9364 H   0  0  0  0  0  0  0  0  0  0  0  0
    1.5989   16.5676   43.8229 H   0  0  0  0  0  0  0  0  0  0  0  0
    0.8598   16.1131   42.3820 H   0  0  0  0  0  0  0  0  0  0  0  0
    2.4652   16.6148   42.3820 H   0  0  0  0  0  0  0  0  0  0  0  0
    2.5897   14.4983   38.1324 H   0  0  0  0  0  0  0  0  0  0  0  0
    3.6259   15.3009   36.8908 H   0  0  0  0  0  0  0  0  0  0  0  0
  1 18  1  0
  1  2  1  0
  2 15  2  0
  3 16  1  0
  3  5  1  0
  5 19  1  0
  5 18  1  0
  6 16  1  0
  7  3  1  0
  9 12  1  0
  9 13  1  0
 10 14  1  0
 11 17  2  0
 13  7  1  0
 13  4  1  0
 14  4  1  0
 15  8  1  0
 16  1  2  0
 17  9  1  0
 18  8  2  0
 20  9  1  0
 20 10  1  0
  4 21  1  0
  4 22  1  0
  5 23  1  0
  6 24  1  0
  6 25  1  0
  6 26  1  0
  7 27  1  0
  7 28  1  0
  8 29  1  0
 10 30  1  0
 10 31  1  0
 12 32  1  0
 12 33  1  0
 12 34  1  0
 13 35  1  0
 14 36  1  0
 14 37  1  0
 17 38  1  0
 19 39  1  0
 19 40  1  0
 19 41  1  0
 20 42  1  0
 20 43  1  0
M  CHG  2   6   1  19   1
M  END
>  <mol_id>  (92) 
2026-09-18-5lvo-s0-n100-0096

>  <rmsd_to_ref>  (92) 


$$$$

     RDKit          3D

 27 27  0  0  0  0  0  0  0  0999 V2000
    1.2320   19.7310   42.7860 C   0  0  0  0  0  0  0  0  0  0  0  0
    1.7770   17.6560   39.5280 S   0  0  0  0  0  0  0  0  0  0  0  0
   -0.3240   14.8850   43.9100 N   0  0  0  0  0  0  0  0  0  0  0  0
    2.9500   18.2450   38.5130 C   0  0  0  0  0  0  0  0  0  0  0  0
    1.2350   17.3530   42.3330 N   0  0  0  0  0  0  0  0  0  0  0  0
    3.6820   19.2670   39.0550 C   0  0  0  0  0  0  0  0  0  0  0  0
    0.4160   19.6700   43.8120 N   0  0  0  0  0  0  0  0  0  0  0  0
   -0.0420   18.3810   44.0550 C   0  0  0  0  0  0  0  0  0  0  0  0
    0.4140   17.6000   43.3250 C   0  0  0  0  0  0  0  0  0  0  0  0
    0.2060   15.8040   43.5910 C   0  0  0  0  0  0  0  0  0  0  0  0
    2.1810   18.8400   40.7450 C   0  0  0  0  0  0  0  0  0  0  0  0
    3.4310   19.1730   40.5560 O   0  0  0  0  0  0  0  0  0  0  0  0
    4.5820   17.8770   35.2540 N   0  0  0  0  0  4  0  0  0  0  0  0
    3.2220   17.5750   37.2620 O   0  0  0  0  0  0  0  0  0  0  0  0
    4.3260   16.6520   35.9520 C   0  0  0  0  0  0  0  0  0  0  0  0
    1.5570   18.5400   41.9760 C   0  0  0  0  0  0  0  0  0  0  0  0
    1.6869   20.6971   42.5219 H   0  0  0  0  0  0  0  0  0  0  0  0
    4.7515   19.1381   38.8322 H   0  0  0  0  0  0  0  0  0  0  0  0
    3.3931   20.2466   38.6464 H   0  0  0  0  0  0  0  0  0  0  0  0
   -0.7577   18.1275   44.8510 H   0  0  0  0  0  0  0  0  0  0  0  0
    1.7345   19.8442   40.6981 H   0  0  0  0  0  0  0  0  0  0  0  0
    4.7401   18.6335   35.9349 H   0  0  0  0  0  0  0  0  0  0  0  0
    5.4182   17.7670   34.6627 H   0  0  0  0  0  0  0  0  0  0  0  0
    3.7717   18.1110   34.6627 H   0  0  0  0  0  0  0  0  0  0  0  0
    4.3638   16.8330   37.0363 H   0  0  0  0  0  0  0  0  0  0  0  0
    3.3297   16.2750   35.6777 H   0  0  0  0  0  0  0  0  0  0  0  0
    5.0880   15.9076   35.6777 H   0  0  0  0  0  0  0  0  0  0  0  0
  1  7  2  0
  2 11  1  0
  4  6  1  0
  4  2  1  0
  5  9  1  0
  6 12  1  0
  7  8  1  0
  9 10  1  0
  9  8  2  0
 10  3  3  0
 11 16  1  0
 12 11  1  0
 13 15  1  0
 14  4  2  0
 16  5  2  0
 16  1  1  0
  1 17  1  0
  6 18  1  0
  6 19  1  0
  8 20  1  0
 11 21  1  0
 13 22  1  0
 13 23  1  0
 13 24  1  0
 15 25  1  0
 15 26  1  0
 15 27  1  0
M  CHG  1  13   1
M  END
>  <mol_id>  (93) 
2026-09-18-5lvo-s0-n100-0098

>  <rmsd_to_ref>  (93) 


$$$$

     RDKit          3D

 45 45  0  0  0  0  0  0  0  0999 V2000
    2.8390   19.6430   39.0310 S   0  0  0  0  0  0  0  0  0  0  0  0
    4.2130   18.1850   37.6730 N   0  0  0  0  0  4  0  0  0  0  0  0
    1.1580   18.2820   42.0400 N   0  0  0  0  0  4  0  0  0  0  0  0
   -0.5110   19.5790   44.9790 O   0  0  0  0  0  0  0  0  0  0  0  0
   -0.1810   14.9940   41.2030 C   0  0  0  0  0  0  0  0  0  0  0  0
    3.4990   20.2380   36.4110 N   0  0  0  0  0  4  0  0  0  0  0  0
    0.3730   15.4870   38.7330 C   0  0  0  0  0  0  0  0  0  0  0  0
   -0.2160   18.7380   43.9160 C   0  0  0  0  0  0  0  0  0  0  0  0
    3.7630   17.5530   38.8830 C   0  0  0  0  0  0  0  0  0  0  0  0
    3.5430   19.3790   37.5630 C   0  0  0  0  0  0  0  0  0  0  0  0
    0.4640   16.0450   40.1860 C   0  0  0  0  0  0  0  0  0  0  0  0
    1.9400   20.8220   42.0100 O   0  0  0  0  0  0  0  0  0  0  0  0
    2.0080   18.0310   40.8890 C   0  0  0  0  0  0  0  0  0  0  0  0
    1.2130   20.5700   42.9270 C   0  0  0  0  0  0  0  0  0  0  0  0
    2.9850   18.4450   39.7840 C   0  0  0  0  0  0  0  0  0  0  0  0
    1.8050   16.4810   40.6750 C   0  0  0  0  0  0  0  0  0  0  0  0
    1.1070   19.0510   43.0860 C   0  0  0  0  0  0  0  0  0  0  0  0
    5.2281   18.3533   37.7196 H   0  0  0  0  0  0  0  0  0  0  0  0
    4.0262   17.5852   36.8568 H   0  0  0  0  0  0  0  0  0  0  0  0
    1.1156   17.3474   42.4708 H   0  0  0  0  0  0  0  0  0  0  0  0
    0.5271   18.8924   41.5012 H   0  0  0  0  0  0  0  0  0  0  0  0
   -0.3444   19.1041   45.8316 H   0  0  0  0  0  0  0  0  0  0  0  0
    0.0162   15.3153   42.2364 H   0  0  0  0  0  0  0  0  0  0  0  0
   -1.2670   14.9415   41.0362 H   0  0  0  0  0  0  0  0  0  0  0  0
    0.2640   14.0019   41.0362 H   0  0  0  0  0  0  0  0  0  0  0  0
    3.4487   21.2202   36.7169 H   0  0  0  0  0  0  0  0  0  0  0  0
    4.3483   20.0976   35.8454 H   0  0  0  0  0  0  0  0  0  0  0  0
    2.6685   20.0116   35.8454 H   0  0  0  0  0  0  0  0  0  0  0  0
    0.1960   14.4019   38.7674 H   0  0  0  0  0  0  0  0  0  0  0  0
   -0.4571   15.9773   38.2033 H   0  0  0  0  0  0  0  0  0  0  0  0
    1.3158   15.6882   38.2033 H   0  0  0  0  0  0  0  0  0  0  0  0
   -0.1215   17.7181   44.3172 H   0  0  0  0  0  0  0  0  0  0  0  0
   -1.0400   18.8836   43.2019 H   0  0  0  0  0  0  0  0  0  0  0  0
    3.1264   16.6985   38.6097 H   0  0  0  0  0  0  0  0  0  0  0  0
    4.6647   17.2528   39.4370 H   0  0  0  0  0  0  0  0  0  0  0  0
    2.6523   18.8457   37.1994 H   0  0  0  0  0  0  0  0  0  0  0  0
   -0.1041   16.9861   40.1444 H   0  0  0  0  0  0  0  0  0  0  0  0
    2.8160   21.1256   42.3572 H   0  0  0  0  0  0  0  0  0  0  0  0
    1.1601   18.2346   40.2184 H   0  0  0  0  0  0  0  0  0  0  0  0
    1.6202   21.0085   43.8500 H   0  0  0  0  0  0  0  0  0  0  0  0
    0.2154   20.9907   42.7327 H   0  0  0  0  0  0  0  0  0  0  0  0
    3.4957   18.5101   40.7561 H   0  0  0  0  0  0  0  0  0  0  0  0
    1.9865   15.9841   41.6395 H   0  0  0  0  0  0  0  0  0  0  0  0
    2.5096   16.2031   39.8773 H   0  0  0  0  0  0  0  0  0  0  0  0
    2.0474   18.7856   43.5911 H   0  0  0  0  0  0  0  0  0  0  0  0
  1 15  1  0
  2  9  1  0
  3 17  1  0
  7 11  1  0
  8  4  1  0
  9 15  1  0
 10  6  1  0
 10  2  1  0
 10  1  1  0
 11 16  1  0
 11  5  1  0
 12 14  1  0
 13 16  1  0
 13  3  1  0
 14 17  1  0
 15 13  1  0
 17  8  1  0
  2 18  1  0
  2 19  1  0
  3 20  1  0
  3 21  1  0
  4 22  1  0
  5 23  1  0
  5 24  1  0
  5 25  1  0
  6 26  1  0
  6 27  1  0
  6 28  1  0
  7 29  1  0
  7 30  1  0
  7 31  1  0
  8 32  1  0
  8 33  1  0
  9 34  1  0
  9 35  1  0
 10 36  1  0
 11 37  1  0
 12 38  1  0
 13 39  1  0
 14 40  1  0
 14 41  1  0
 15 42  1  0
 16 43  1  0
 16 44  1  0
 17 45  1  0
M  CHG  3   2   1   3   1   6   1
M  END
>  <mol_id>  (94) 
2026-09-18-5lvo-s0-n100-0099

>  <rmsd_to_ref>  (94) 


$$$$

     RDKit          3D

 35 36  0  0  0  0  0  0  0  0999 V2000
    2.6880   16.7730   38.1450 C   0  0  0  0  0  0  0  0  0  0  0  0
    2.8910   16.4060   36.8720 C   0  0  0  0  0  0  0  0  0  0  0  0
    1.1430   19.4060   42.7590 C   0  0  0  0  0  0  0  0  0  0  0  0
    0.2570   18.1500   44.4670 C   0  0  0  0  0  0  0  0  0  0  0  0
    1.7100   16.1420   38.9300 C   0  0  0  0  0  0  0  0  0  0  0  0
   -0.2300   20.4650   44.1300 C   0  0  0  0  0  0  0  0  0  0  0  0
   -0.2640   14.7000   39.1130 N   0  0  0  0  0  0  0  0  0  0  0  0
    3.2100   18.3160   40.2050 N   0  0  0  0  0  0  0  0  0  0  0  0
    0.9810   18.1840   43.3570 C   0  0  0  0  0  0  0  0  0  0  0  0
    3.7720   19.0320   38.1960 O   0  0  0  0  0  0  0  0  0  0  0  0
   -0.3440   19.2470   44.9100 C   0  0  0  0  0  0  0  0  0  0  0  0
    4.9990   17.2900   39.0690 O   0  0  0  0  0  0  0  0  0  0  0  0
    1.0880   14.7290   37.0500 C   0  0  0  0  0  0  0  0  0  0  0  0
    2.1380   19.4530   41.9960 C   0  0  0  0  0  0  0  0  0  0  0  0
    2.0570   15.3010   36.3080 C   0  0  0  0  0  0  0  0  0  0  0  0
    0.4290   20.6080   42.9960 C   0  0  0  0  0  0  0  0  0  0  0  0
    0.8740   15.1820   38.3830 C   0  0  0  0  0  0  0  0  0  0  0  0
    2.1110   19.1860   40.6130 C   0  0  0  0  0  0  0  0  0  0  0  0
    3.7080   17.9030   38.8920 S   0  0  0  0  0  6  0  0  0  0  0  0
    1.2740   16.3630   42.7330 Cl  0  0  0  0  0  0  0  0  0  0  0  0
    3.6534   16.9062   36.2567 H   0  0  0  0  0  0  0  0  0  0  0  0
    0.1539   17.2071   45.0240 H   0  0  0  0  0  0  0  0  0  0  0  0
    1.6063   16.4127   39.9911 H   0  0  0  0  0  0  0  0  0  0  0  0
   -0.7428   21.3557   44.5221 H   0  0  0  0  0  0  0  0  0  0  0  0
   -0.4301   15.0199   40.0779 H   0  0  0  0  0  0  0  0  0  0  0  0
   -0.9145   14.0342   38.6720 H   0  0  0  0  0  0  0  0  0  0  0  0
    4.0337   18.7459   40.6495 H   0  0  0  0  0  0  0  0  0  0  0  0
   -0.9167   19.2332   45.8491 H   0  0  0  0  0  0  0  0  0  0  0  0
    0.4697   13.9216   36.6307 H   0  0  0  0  0  0  0  0  0  0  0  0
    2.5304   20.4764   42.0891 H   0  0  0  0  0  0  0  0  0  0  0  0
    2.7032   18.5801   42.3546 H   0  0  0  0  0  0  0  0  0  0  0  0
    2.2354   14.9522   35.2801 H   0  0  0  0  0  0  0  0  0  0  0  0
    0.4252   21.4989   42.3508 H   0  0  0  0  0  0  0  0  0  0  0  0
    2.1882   20.1370   40.0656 H   0  0  0  0  0  0  0  0  0  0  0  0
    1.1660   18.6719   40.3834 H   0  0  0  0  0  0  0  0  0  0  0  0
  1 19  1  0
  1  5  1  0
  2  1  2  0
  3 16  1  0
  3  9  2  0
  4 11  2  0
  6 11  1  0
  8 18  1  0
  9  4  1  0
 10 19  2  0
 13 17  1  0
 14  3  1  0
 15  2  1  0
 15 13  2  0
 16  6  2  0
 17  5  2  0
 17  7  1  0
 18 14  1  0
 19 12  2  0
 19  8  1  0
 20  9  1  0
  2 21  1  0
  4 22  1  0
  5 23  1  0
  6 24  1  0
  7 25  1  0
  7 26  1  0
  8 27  1  0
 11 28  1  0
 13 29  1  0
 14 30  1  0
 14 31  1  0
 15 32  1  0
 16 33  1  0
 18 34  1  0
 18 35  1  0
M  END
>  <mol_id>  (95) 
2026-09-18-5lvo-s0-n100-0100

>  <rmsd_to_ref>  (95) 


$$$$
