6tgu.A
     RDKit          3D

 32 34  0  0  0  0  0  0  0  0999 V2000
    3.2704   20.0816   36.9100 C   0  0  0  0  0  0  0  0  0  0  0  0
    2.7239   19.8375   38.3194 C   0  0  0  0  0  0  0  0  0  0  0  0
    1.9745   20.8172   38.9669 C   0  0  0  0  0  0  0  0  0  0  0  0
    1.3019   20.5646   40.1670 C   0  0  0  0  0  0  0  0  0  0  0  0
    1.5079   19.3565   40.8488 C   0  0  0  0  0  0  0  0  0  0  0  0
    0.4444   17.8615   42.6087 C   0  0  0  0  0  0  0  0  0  0  0  0
    0.4288   15.6073   42.9153 C   0  0  0  0  0  0  0  0  0  0  0  0
    0.8553   14.2304   42.6635 C   0  0  0  0  0  0  0  0  0  0  0  0
    0.2328   13.1351   43.2790 C   0  0  0  0  0  0  0  0  0  0  0  0
    0.6322   11.8319   42.9995 C   0  0  0  0  0  0  0  0  0  0  0  0
    1.6306   11.6302   42.0652 C   0  0  0  0  0  0  0  0  0  0  0  0
    2.2690   12.6840   41.4288 C   0  0  0  0  0  0  0  0  0  0  0  0
    1.8629   13.9810   41.7304 C   0  0  0  0  0  0  0  0  0  0  0  0
   -0.5843   15.9508   43.7709 C   0  0  0  0  0  0  0  0  0  0  0  0
    2.2504   18.3557   40.2060 C   0  0  0  0  0  0  0  0  0  0  0  0
    2.8437   18.6148   38.9691 C   0  0  0  0  0  0  0  0  0  0  0  0
    0.7803   19.0569   42.0413 N   0  0  0  0  0  0  0  0  0  0  0  0
    0.9791   16.6716   42.1626 N   0  0  0  0  0  0  0  0  0  0  0  0
    2.8674   21.1275   36.3211 O   0  0  0  0  0  0  0  0  0  0  0  0
    4.0035   19.1925   36.4244 O   0  0  0  0  0  0  0  0  0  0  0  0
    3.4800   17.5959   38.3007 O   0  0  0  0  0  0  0  0  0  0  0  0
   -0.9334   17.6347   43.6687 S   0  0  0  0  0  0  0  0  0  0  0  0
    2.1103   10.0114   41.6767 Cl  0  0  0  0  0  0  0  0  0  0  0  0
    1.9097   21.8205   38.5206 H   0  0  0  0  0  0  0  0  0  0  0  0
    0.6099   21.3151   40.5769 H   0  0  0  0  0  0  0  0  0  0  0  0
   -0.5845   13.3089   43.9944 H   0  0  0  0  0  0  0  0  0  0  0  0
    0.1628   10.9792   43.5119 H   0  0  0  0  0  0  0  0  0  0  0  0
    3.0758   12.4998   40.7041 H   0  0  0  0  0  0  0  0  0  0  0  0
    2.3468   14.8280   41.2221 H   0  0  0  0  0  0  0  0  0  0  0  0
   -1.1055   15.2454   44.4348 H   0  0  0  0  0  0  0  0  0  0  0  0
    2.3653   17.3677   40.6757 H   0  0  0  0  0  0  0  0  0  0  0  0
    0.4535   19.8836   42.5615 H   0  0  0  0  0  0  0  0  0  0  0  0
  1  2  1  0
  1 19  1  0
  1 20  2  0
  2  3  1  0
  2 16  2  0
  3  4  2  0
  4  5  1  0
  5 15  2  0
  5 17  1  0
  6 17  1  0
  6 18  2  0
  6 22  1  0
  7  8  1  0
  7 14  2  0
  7 18  1  0
  8  9  1  0
  8 13  2  0
  9 10  2  0
 10 11  1  0
 11 12  2  0
 11 23  1  0
 12 13  1  0
 14 22  1  0
 15 16  1  0
 16 21  1  0
  3 24  1  0
  4 25  1  0
  9 26  1  0
 10 27  1  0
 12 28  1  0
 13 29  1  0
 14 30  1  0
 15 31  1  0
 17 32  1  0
M  CHG  2  19  -1  21  -1
M  END
>  <mol_id>  (1) 
2026-08-23-6tgu-s0-n100-r9-0001

>  <rmsd_to_ref>  (1) 
0.0

$$$$
6tgu.A
     RDKit          3D

 32 34  0  0  0  0  0  0  0  0999 V2000
    3.2254   20.5395   37.0614 C   0  0  0  0  0  0  0  0  0  0  0  0
    2.6772   20.1384   38.3743 C   0  0  0  0  0  0  0  0  0  0  0  0
    2.0496   21.0632   39.1726 C   0  0  0  0  0  0  0  0  0  0  0  0
    1.5225   20.6987   40.4224 C   0  0  0  0  0  0  0  0  0  0  0  0
    1.6507   19.3646   40.8382 C   0  0  0  0  0  0  0  0  0  0  0  0
    0.7905   17.5583   42.3519 C   0  0  0  0  0  0  0  0  0  0  0  0
    0.3869   15.3660   42.6412 C   0  0  0  0  0  0  0  0  0  0  0  0
    0.9052   13.9872   42.5634 C   0  0  0  0  0  0  0  0  0  0  0  0
    0.0894   12.9261   42.9119 C   0  0  0  0  0  0  0  0  0  0  0  0
    0.5211   11.6105   42.8594 C   0  0  0  0  0  0  0  0  0  0  0  0
    1.8046   11.3291   42.4487 C   0  0  0  0  0  0  0  0  0  0  0  0
    2.6112   12.3818   42.1034 C   0  0  0  0  0  0  0  0  0  0  0  0
    2.1760   13.6857   42.1577 C   0  0  0  0  0  0  0  0  0  0  0  0
   -0.9278   15.6266   43.0654 C   0  0  0  0  0  0  0  0  0  0  0  0
    2.2792   18.4217   40.0473 C   0  0  0  0  0  0  0  0  0  0  0  0
    2.7839   18.8251   38.8258 C   0  0  0  0  0  0  0  0  0  0  0  0
    1.1302   18.9512   42.1254 N   0  0  0  0  0  0  0  0  0  0  0  0
    1.0485   16.4531   42.3432 N   0  0  0  0  0  0  0  0  0  0  0  0
    3.8557   19.5571   36.2948 O   0  0  0  0  0  0  0  0  0  0  0  0
    3.1136   21.7413   36.6689 O   0  0  0  0  0  0  0  0  0  0  0  0
    3.4226   17.8432   38.0383 O   0  0  0  0  0  0  0  0  0  0  0  0
   -1.0323   17.4845   42.9723 S   0  0  0  0  0  0  0  0  0  0  0  0
    2.3718    9.6676   42.3714 Cl  0  0  0  0  0  0  0  0  0  0  0  0
    1.9333   22.1165   38.8673 H   0  0  0  0  0  0  0  0  0  0  0  0
    1.0223   21.4435   41.0508 H   0  0  0  0  0  0  0  0  0  0  0  0
   -0.9432   13.0964   43.2457 H   0  0  0  0  0  0  0  0  0  0  0  0
   -0.1836   10.8250   43.1555 H   0  0  0  0  0  0  0  0  0  0  0  0
    3.6460   12.2457   41.7623 H   0  0  0  0  0  0  0  0  0  0  0  0
    2.8166   14.5109   41.8851 H   0  0  0  0  0  0  0  0  0  0  0  0
   -1.7338   15.0087   43.3803 H   0  0  0  0  0  0  0  0  0  0  0  0
    2.4008   17.3769   40.3384 H   0  0  0  0  0  0  0  0  0  0  0  0
    0.9990   19.6696   42.8995 H   0  0  0  0  0  0  0  0  0  0  0  0
  1  2  1  0
  1 19  1  0
  1 20  2  0
  2  3  1  0
  2 16  2  0
  3  4  2  0
  4  5  1  0
  5 15  2  0
  5 17  1  0
  6 17  1  0
  6 18  2  0
  6 22  1  0
  7  8  1  0
  7 14  2  0
  7 18  1  0
  8  9  1  0
  8 13  2  0
  9 10  2  0
 10 11  1  0
 11 12  2  0
 11 23  1  0
 12 13  1  0
 14 22  1  0
 15 16  1  0
 16 21  1  0
  3 24  1  0
  4 25  1  0
  9 26  1  0
 10 27  1  0
 12 28  1  0
 13 29  1  0
 14 30  1  0
 15 31  1  0
 17 32  1  0
M  CHG  2  19  -1  21  -1
M  END
>  <mol_id>  (2) 
2026-08-23-6tgu-s0-n100-r9-0002

>  <rmsd_to_ref>  (2) 
0.5000000000020418

$$$$
6tgu.A
     RDKit          3D

 32 34  0  0  0  0  0  0  0  0999 V2000
    3.7840   20.0488   37.1399 C   0  0  0  0  0  0  0  0  0  0  0  0
    3.1287   19.8295   38.5063 C   0  0  0  0  0  0  0  0  0  0  0  0
    2.4693   20.8741   39.1503 C   0  0  0  0  0  0  0  0  0  0  0  0
    1.7005   20.6691   40.3006 C   0  0  0  0  0  0  0  0  0  0  0  0
    1.7142   19.4230   40.9439 C   0  0  0  0  0  0  0  0  0  0  0  0
    0.3707   18.0171   42.5816 C   0  0  0  0  0  0  0  0  0  0  0  0
    0.0576   15.7740   42.7965 C   0  0  0  0  0  0  0  0  0  0  0  0
    0.3243   14.3633   42.5137 C   0  0  0  0  0  0  0  0  0  0  0  0
   -0.4647   13.3357   43.0498 C   0  0  0  0  0  0  0  0  0  0  0  0
   -0.2141   12.0024   42.7408 C   0  0  0  0  0  0  0  0  0  0  0  0
    0.8054   11.7072   41.8554 C   0  0  0  0  0  0  0  0  0  0  0  0
    1.6062   12.6924   41.2976 C   0  0  0  0  0  0  0  0  0  0  0  0
    1.3468   14.0196   41.6280 C   0  0  0  0  0  0  0  0  0  0  0  0
   -0.9542   16.2143   43.6083 C   0  0  0  0  0  0  0  0  0  0  0  0
    2.3637   18.3582   40.3033 C   0  0  0  0  0  0  0  0  0  0  0  0
    3.0571   18.5808   39.1122 C   0  0  0  0  0  0  0  0  0  0  0  0
    0.8854   19.1786   42.0817 N   0  0  0  0  0  0  0  0  0  0  0  0
    0.7794   16.7846   42.1183 N   0  0  0  0  0  0  0  0  0  0  0  0
    3.5496   21.1559   36.5721 O   0  0  0  0  0  0  0  0  0  0  0  0
    4.4288   19.0908   36.6601 O   0  0  0  0  0  0  0  0  0  0  0  0
    3.6007   17.5123   38.4395 O   0  0  0  0  0  0  0  0  0  0  0  0
   -1.0851   17.9312   43.5544 S   0  0  0  0  0  0  0  0  0  0  0  0
    1.1029   10.0544   41.4294 Cl  0  0  0  0  0  0  0  0  0  0  0  0
    2.5561   21.8916   38.7416 H   0  0  0  0  0  0  0  0  0  0  0  0
    1.0838   21.4870   40.7016 H   0  0  0  0  0  0  0  0  0  0  0  0
   -1.2953   13.5876   43.7256 H   0  0  0  0  0  0  0  0  0  0  0  0
   -0.8153   11.1993   43.1921 H   0  0  0  0  0  0  0  0  0  0  0  0
    2.4255   12.4317   40.6115 H   0  0  0  0  0  0  0  0  0  0  0  0
    1.9614   14.8151   41.1813 H   0  0  0  0  0  0  0  0  0  0  0  0
   -1.5974   15.5588   44.2138 H   0  0  0  0  0  0  0  0  0  0  0  0
    2.3271   17.3487   40.7387 H   0  0  0  0  0  0  0  0  0  0  0  0
    0.6333   20.0224   42.6159 H   0  0  0  0  0  0  0  0  0  0  0  0
  1  2  1  0
  1 19  1  0
  1 20  2  0
  2  3  1  0
  2 16  2  0
  3  4  2  0
  4  5  1  0
  5 15  2  0
  5 17  1  0
  6 17  1  0
  6 18  2  0
  6 22  1  0
  7  8  1  0
  7 14  2  0
  7 18  1  0
  8  9  1  0
  8 13  2  0
  9 10  2  0
 10 11  1  0
 11 12  2  0
 11 23  1  0
 12 13  1  0
 14 22  1  0
 15 16  1  0
 16 21  1  0
  3 24  1  0
  4 25  1  0
  9 26  1  0
 10 27  1  0
 12 28  1  0
 13 29  1  0
 14 30  1  0
 15 31  1  0
 17 32  1  0
M  CHG  2  19  -1  21  -1
M  END
>  <mol_id>  (3) 
2026-08-23-6tgu-s0-n100-r9-0003

>  <rmsd_to_ref>  (3) 
0.5459183673485869

$$$$
6tgu.A
     RDKit          3D

 32 34  0  0  0  0  0  0  0  0999 V2000
    3.0924   20.5451   37.3407 C   0  0  0  0  0  0  0  0  0  0  0  0
    2.4247   20.1776   38.5886 C   0  0  0  0  0  0  0  0  0  0  0  0
    1.8638   21.1302   39.3983 C   0  0  0  0  0  0  0  0  0  0  0  0
    1.2516   20.7330   40.5542 C   0  0  0  0  0  0  0  0  0  0  0  0
    1.1723   19.3919   40.9478 C   0  0  0  0  0  0  0  0  0  0  0  0
    0.4589   17.6835   42.5303 C   0  0  0  0  0  0  0  0  0  0  0  0
    0.5027   15.4564   42.8744 C   0  0  0  0  0  0  0  0  0  0  0  0
    0.9472   14.1472   42.3381 C   0  0  0  0  0  0  0  0  0  0  0  0
    1.6321   14.0202   41.1538 C   0  0  0  0  0  0  0  0  0  0  0  0
    2.0348   12.7895   40.6765 C   0  0  0  0  0  0  0  0  0  0  0  0
    1.7552   11.6423   41.3869 C   0  0  0  0  0  0  0  0  0  0  0  0
    1.0723   11.7439   42.5723 C   0  0  0  0  0  0  0  0  0  0  0  0
    0.6780   12.9871   43.0326 C   0  0  0  0  0  0  0  0  0  0  0  0
   -0.1607   15.5988   44.0179 C   0  0  0  0  0  0  0  0  0  0  0  0
    1.7538   18.4874   40.0927 C   0  0  0  0  0  0  0  0  0  0  0  0
    2.3835   18.8452   38.9135 C   0  0  0  0  0  0  0  0  0  0  0  0
    0.5246   19.0534   42.1550 N   0  0  0  0  0  0  0  0  0  0  0  0
    0.7278   16.5969   42.2615 N   0  0  0  0  0  0  0  0  0  0  0  0
    3.1519   21.8944   36.9803 O   0  0  0  0  0  0  0  0  0  0  0  0
    3.5918   19.6408   36.6305 O   0  0  0  0  0  0  0  0  0  0  0  0
    2.9526   17.8760   38.0926 O   0  0  0  0  0  0  0  0  0  0  0  0
   -0.4506   17.3527   44.1974 S   0  0  0  0  0  0  0  0  0  0  0  0
    2.2647   10.0723   40.7853 Cl  0  0  0  0  0  0  0  0  0  0  0  0
    1.8906   22.1945   39.1497 H   0  0  0  0  0  0  0  0  0  0  0  0
    0.8047   21.4889   41.1999 H   0  0  0  0  0  0  0  0  0  0  0  0
    1.8569   14.9318   40.5848 H   0  0  0  0  0  0  0  0  0  0  0  0
    2.5732   12.7077   39.7422 H   0  0  0  0  0  0  0  0  0  0  0  0
    0.8203   10.8692   43.1824 H   0  0  0  0  0  0  0  0  0  0  0  0
    0.1343   13.0448   43.9809 H   0  0  0  0  0  0  0  0  0  0  0  0
   -0.5237   14.8166   44.8063 H   0  0  0  0  0  0  0  0  0  0  0  0
    1.7379   17.4337   40.3201 H   0  0  0  0  0  0  0  0  0  0  0  0
    0.1206   19.8365   42.7198 H   0  0  0  0  0  0  0  0  0  0  0  0
  1  2  1  0
  1 19  1  0
  1 20  2  0
  2  3  1  0
  2 16  2  0
  3  4  2  0
  4  5  1  0
  5 15  2  0
  5 17  1  0
  6 17  1  0
  6 18  2  0
  6 22  1  0
  7  8  1  0
  7 14  2  0
  7 18  1  0
  8  9  1  0
  8 13  2  0
  9 10  2  0
 10 11  1  0
 11 12  2  0
 11 23  1  0
 12 13  1  0
 14 22  1  0
 15 16  1  0
 16 21  1  0
  3 24  1  0
  4 25  1  0
  9 26  1  0
 10 27  1  0
 12 28  1  0
 13 29  1  0
 14 30  1  0
 15 31  1  0
 17 32  1  0
M  CHG  2  19  -1  21  -1
M  END
>  <mol_id>  (4) 
2026-08-23-6tgu-s0-n100-r9-0004

>  <rmsd_to_ref>  (4) 
0.5918367346984524

$$$$
6tgu.A
     RDKit          3D

 32 34  0  0  0  0  0  0  0  0999 V2000
    3.2624   20.7750   37.5086 C   0  0  0  0  0  0  0  0  0  0  0  0
    2.6699   20.3149   38.8435 C   0  0  0  0  0  0  0  0  0  0  0  0
    1.8774   21.1756   39.5997 C   0  0  0  0  0  0  0  0  0  0  0  0
    1.1668   20.7365   40.7216 C   0  0  0  0  0  0  0  0  0  0  0  0
    1.3725   19.4432   41.2235 C   0  0  0  0  0  0  0  0  0  0  0  0
    0.2763   17.6863   42.6983 C   0  0  0  0  0  0  0  0  0  0  0  0
    0.2957   15.4116   42.6652 C   0  0  0  0  0  0  0  0  0  0  0  0
    0.7593   14.0943   42.2282 C   0  0  0  0  0  0  0  0  0  0  0  0
    0.1373   12.9102   42.6490 C   0  0  0  0  0  0  0  0  0  0  0  0
    0.5733   11.6695   42.1946 C   0  0  0  0  0  0  0  0  0  0  0  0
    1.6091   11.6246   41.2805 C   0  0  0  0  0  0  0  0  0  0  0  0
    2.2485   12.7710   40.8335 C   0  0  0  0  0  0  0  0  0  0  0  0
    1.8052   14.0022   41.3086 C   0  0  0  0  0  0  0  0  0  0  0  0
   -0.7548   15.6083   43.5221 C   0  0  0  0  0  0  0  0  0  0  0  0
    2.1583   18.5609   40.4686 C   0  0  0  0  0  0  0  0  0  0  0  0
    2.7910   19.0107   39.3082 C   0  0  0  0  0  0  0  0  0  0  0  0
    0.6081   18.9580   42.3288 N   0  0  0  0  0  0  0  0  0  0  0  0
    0.8512   16.5845   42.1014 N   0  0  0  0  0  0  0  0  0  0  0  0
    2.8598   21.8911   37.0666 O   0  0  0  0  0  0  0  0  0  0  0  0
    4.0308   19.9795   36.9252 O   0  0  0  0  0  0  0  0  0  0  0  0
    3.4720   18.1127   38.5210 O   0  0  0  0  0  0  0  0  0  0  0  0
   -1.1344   17.2832   43.6580 S   0  0  0  0  0  0  0  0  0  0  0  0
    2.1357   10.0893   40.6745 Cl  0  0  0  0  0  0  0  0  0  0  0  0
    1.8084   22.2332   39.3055 H   0  0  0  0  0  0  0  0  0  0  0  0
    0.4451   21.4069   41.2111 H   0  0  0  0  0  0  0  0  0  0  0  0
   -0.7090   12.9630   43.3497 H   0  0  0  0  0  0  0  0  0  0  0  0
    0.1030   10.7429   42.5555 H   0  0  0  0  0  0  0  0  0  0  0  0
    3.0848   12.7092   40.1216 H   0  0  0  0  0  0  0  0  0  0  0  0
    2.2899   14.9227   40.9513 H   0  0  0  0  0  0  0  0  0  0  0  0
   -1.2853   14.8039   44.0527 H   0  0  0  0  0  0  0  0  0  0  0  0
    2.2762   17.5155   40.7901 H   0  0  0  0  0  0  0  0  0  0  0  0
    0.2457   19.6927   42.9530 H   0  0  0  0  0  0  0  0  0  0  0  0
  1  2  1  0
  1 19  1  0
  1 20  2  0
  2  3  1  0
  2 16  2  0
  3  4  2  0
  4  5  1  0
  5 15  2  0
  5 17  1  0
  6 17  1  0
  6 18  2  0
  6 22  1  0
  7  8  1  0
  7 14  2  0
  7 18  1  0
  8  9  1  0
  8 13  2  0
  9 10  2  0
 10 11  1  0
 11 12  2  0
 11 23  1  0
 12 13  1  0
 14 22  1  0
 15 16  1  0
 16 21  1  0
  3 24  1  0
  4 25  1  0
  9 26  1  0
 10 27  1  0
 12 28  1  0
 13 29  1  0
 14 30  1  0
 15 31  1  0
 17 32  1  0
M  CHG  2  19  -1  21  -1
M  END
>  <mol_id>  (5) 
2026-08-23-6tgu-s0-n100-r9-0005

>  <rmsd_to_ref>  (5) 
0.6377551020464404

$$$$
6tgu.A
     RDKit          3D

 32 34  0  0  0  0  0  0  0  0999 V2000
    3.2423   20.6262   37.5168 C   0  0  0  0  0  0  0  0  0  0  0  0
    2.4138   20.2027   38.6448 C   0  0  0  0  0  0  0  0  0  0  0  0
    1.6551   21.1049   39.3435 C   0  0  0  0  0  0  0  0  0  0  0  0
    0.8982   20.6565   40.3898 C   0  0  0  0  0  0  0  0  0  0  0  0
    0.8643   19.3124   40.7797 C   0  0  0  0  0  0  0  0  0  0  0  0
    0.0443   17.5479   42.2446 C   0  0  0  0  0  0  0  0  0  0  0  0
    0.2104   15.3308   42.6148 C   0  0  0  0  0  0  0  0  0  0  0  0
    0.8391   14.0632   42.1709 C   0  0  0  0  0  0  0  0  0  0  0  0
    1.7141   13.9950   41.1137 C   0  0  0  0  0  0  0  0  0  0  0  0
    2.2858   12.8020   40.7204 C   0  0  0  0  0  0  0  0  0  0  0  0
    1.9882   11.6342   41.3886 C   0  0  0  0  0  0  0  0  0  0  0  0
    1.1171   11.6772   42.4475 C   0  0  0  0  0  0  0  0  0  0  0  0
    0.5554   12.8834   42.8252 C   0  0  0  0  0  0  0  0  0  0  0  0
   -0.6380   15.4162   43.6350 C   0  0  0  0  0  0  0  0  0  0  0  0
    1.6467   18.4601   40.0389 C   0  0  0  0  0  0  0  0  0  0  0  0
    2.4276   18.8706   38.9728 C   0  0  0  0  0  0  0  0  0  0  0  0
    0.0596   18.9196   41.8704 N   0  0  0  0  0  0  0  0  0  0  0  0
    0.4393   16.4873   42.0341 N   0  0  0  0  0  0  0  0  0  0  0  0
    3.2508   21.9768   37.1564 O   0  0  0  0  0  0  0  0  0  0  0  0
    3.9206   19.7670   36.9058 O   0  0  0  0  0  0  0  0  0  0  0  0
    3.1975   17.9526   38.2644 O   0  0  0  0  0  0  0  0  0  0  0  0
   -1.0928   17.1405   43.7470 S   0  0  0  0  0  0  0  0  0  0  0  0
    2.7122   10.1121   40.8935 Cl  0  0  0  0  0  0  0  0  0  0  0  0
    1.6362   22.1684   39.0912 H   0  0  0  0  0  0  0  0  0  0  0  0
    0.2939   21.3722   40.9472 H   0  0  0  0  0  0  0  0  0  0  0  0
    1.9539   14.9232   40.5787 H   0  0  0  0  0  0  0  0  0  0  0  0
    2.9727   12.7664   39.8859 H   0  0  0  0  0  0  0  0  0  0  0  0
    0.8410   10.7836   43.0183 H   0  0  0  0  0  0  0  0  0  0  0  0
   -0.1371   12.8945   43.6729 H   0  0  0  0  0  0  0  0  0  0  0  0
   -1.0595   14.6052   44.3629 H   0  0  0  0  0  0  0  0  0  0  0  0
    1.6789   17.4079   40.2719 H   0  0  0  0  0  0  0  0  0  0  0  0
   -0.4917   19.6661   42.3545 H   0  0  0  0  0  0  0  0  0  0  0  0
  1  2  1  0
  1 19  1  0
  1 20  2  0
  2  3  1  0
  2 16  2  0
  3  4  2  0
  4  5  1  0
  5 15  2  0
  5 17  1  0
  6 17  1  0
  6 18  2  0
  6 22  1  0
  7  8  1  0
  7 14  2  0
  7 18  1  0
  8  9  1  0
  8 13  2  0
  9 10  2  0
 10 11  1  0
 11 12  2  0
 11 23  1  0
 12 13  1  0
 14 22  1  0
 15 16  1  0
 16 21  1  0
  3 24  1  0
  4 25  1  0
  9 26  1  0
 10 27  1  0
 12 28  1  0
 13 29  1  0
 14 30  1  0
 15 31  1  0
 17 32  1  0
M  CHG  2  19  -1  21  -1
M  END
>  <mol_id>  (6) 
2026-08-23-6tgu-s0-n100-r9-0006

>  <rmsd_to_ref>  (6) 
0.6836734693938518

$$$$
6tgu.A
     RDKit          3D

 32 34  0  0  0  0  0  0  0  0999 V2000
    3.8697   19.3579   36.7166 C   0  0  0  0  0  0  0  0  0  0  0  0
    3.2511   19.3586   38.1173 C   0  0  0  0  0  0  0  0  0  0  0  0
    2.5878   20.4859   38.5969 C   0  0  0  0  0  0  0  0  0  0  0  0
    1.8502   20.4633   39.7852 C   0  0  0  0  0  0  0  0  0  0  0  0
    1.9024   19.3414   40.6251 C   0  0  0  0  0  0  0  0  0  0  0  0
    0.6246   18.2071   42.5076 C   0  0  0  0  0  0  0  0  0  0  0  0
    0.3585   16.0264   43.0987 C   0  0  0  0  0  0  0  0  0  0  0  0
    0.6448   14.5924   43.0461 C   0  0  0  0  0  0  0  0  0  0  0  0
   -0.1120   13.6565   43.7654 C   0  0  0  0  0  0  0  0  0  0  0  0
    0.1561   12.2942   43.6746 C   0  0  0  0  0  0  0  0  0  0  0  0
    1.1597   11.8711   42.8236 C   0  0  0  0  0  0  0  0  0  0  0  0
    1.9286   12.7617   42.0897 C   0  0  0  0  0  0  0  0  0  0  0  0
    1.6524   14.1215   42.2028 C   0  0  0  0  0  0  0  0  0  0  0  0
   -0.6418   16.5804   43.8529 C   0  0  0  0  0  0  0  0  0  0  0  0
    2.5564   18.1946   40.1525 C   0  0  0  0  0  0  0  0  0  0  0  0
    3.2172   18.2268   38.9230 C   0  0  0  0  0  0  0  0  0  0  0  0
    1.1055   19.2770   41.8091 N   0  0  0  0  0  0  0  0  0  0  0  0
    1.0451   16.9209   42.2439 N   0  0  0  0  0  0  0  0  0  0  0  0
    3.6013   20.3520   35.9799 O   0  0  0  0  0  0  0  0  0  0  0  0
    4.5208   18.3430   36.3850 O   0  0  0  0  0  0  0  0  0  0  0  0
    3.7646   17.0695   38.4222 O   0  0  0  0  0  0  0  0  0  0  0  0
   -0.8060   18.2626   43.5194 S   0  0  0  0  0  0  0  0  0  0  0  0
    1.4779   10.1751   42.6691 Cl  0  0  0  0  0  0  0  0  0  0  0  0
    2.6458   21.4227   38.0234 H   0  0  0  0  0  0  0  0  0  0  0  0
    1.2280   21.3273   40.0615 H   0  0  0  0  0  0  0  0  0  0  0  0
   -0.9309   14.0049   44.4120 H   0  0  0  0  0  0  0  0  0  0  0  0
   -0.4191   11.5684   44.2682 H   0  0  0  0  0  0  0  0  0  0  0  0
    2.7362   12.4028   41.4347 H   0  0  0  0  0  0  0  0  0  0  0  0
    2.2413   14.8407   41.6146 H   0  0  0  0  0  0  0  0  0  0  0  0
   -1.2582   16.0252   44.5753 H   0  0  0  0  0  0  0  0  0  0  0  0
    2.5490   17.2709   40.7497 H   0  0  0  0  0  0  0  0  0  0  0  0
    0.8504   20.1939   42.2028 H   0  0  0  0  0  0  0  0  0  0  0  0
  1  2  1  0
  1 19  1  0
  1 20  2  0
  2  3  1  0
  2 16  2  0
  3  4  2  0
  4  5  1  0
  5 15  2  0
  5 17  1  0
  6 17  1  0
  6 18  2  0
  6 22  1  0
  7  8  1  0
  7 14  2  0
  7 18  1  0
  8  9  1  0
  8 13  2  0
  9 10  2  0
 10 11  1  0
 11 12  2  0
 11 23  1  0
 12 13  1  0
 14 22  1  0
 15 16  1  0
 16 21  1  0
  3 24  1  0
  4 25  1  0
  9 26  1  0
 10 27  1  0
 12 28  1  0
 13 29  1  0
 14 30  1  0
 15 31  1  0
 17 32  1  0
M  CHG  2  19  -1  21  -1
M  END
>  <mol_id>  (7) 
2026-08-23-6tgu-s0-n100-r9-0007

>  <rmsd_to_ref>  (7) 
0.729591836740355

$$$$
6tgu.A
     RDKit          3D

 32 34  0  0  0  0  0  0  0  0999 V2000
    4.3655   20.2514   37.6982 C   0  0  0  0  0  0  0  0  0  0  0  0
    3.3475   19.9401   38.7007 C   0  0  0  0  0  0  0  0  0  0  0  0
    2.5827   20.9283   39.2630 C   0  0  0  0  0  0  0  0  0  0  0  0
    1.6448   20.5832   40.1957 C   0  0  0  0  0  0  0  0  0  0  0  0
    1.4310   19.2608   40.6025 C   0  0  0  0  0  0  0  0  0  0  0  0
    0.2489   17.6248   41.9656 C   0  0  0  0  0  0  0  0  0  0  0  0
    0.1544   15.4150   42.3992 C   0  0  0  0  0  0  0  0  0  0  0  0
    0.7206   14.0828   42.0769 C   0  0  0  0  0  0  0  0  0  0  0  0
    1.7287   13.9029   41.1609 C   0  0  0  0  0  0  0  0  0  0  0  0
    2.2385   12.6517   40.8789 C   0  0  0  0  0  0  0  0  0  0  0  0
    1.7410   11.5373   41.5189 C   0  0  0  0  0  0  0  0  0  0  0  0
    0.7342   11.6920   42.4377 C   0  0  0  0  0  0  0  0  0  0  0  0
    0.2377   12.9548   42.7054 C   0  0  0  0  0  0  0  0  0  0  0  0
   -0.8206   15.6086   43.2822 C   0  0  0  0  0  0  0  0  0  0  0  0
    2.2298   18.3188   40.0011 C   0  0  0  0  0  0  0  0  0  0  0  0
    3.1908   18.6234   39.0531 C   0  0  0  0  0  0  0  0  0  0  0  0
    0.4447   18.9768   41.5710 N   0  0  0  0  0  0  0  0  0  0  0  0
    0.5704   16.5271   41.8359 N   0  0  0  0  0  0  0  0  0  0  0  0
    4.5506   21.5834   37.3168 O   0  0  0  0  0  0  0  0  0  0  0  0
    5.0425   19.3159   37.2100 O   0  0  0  0  0  0  0  0  0  0  0  0
    3.9666   17.6182   38.4831 O   0  0  0  0  0  0  0  0  0  0  0  0
   -1.1255   17.3691   43.2928 S   0  0  0  0  0  0  0  0  0  0  0  0
    2.3851    9.9417   41.1649 Cl  0  0  0  0  0  0  0  0  0  0  0  0
    2.6987   21.9805   38.9900 H   0  0  0  0  0  0  0  0  0  0  0  0
    1.0352   21.3675   40.6445 H   0  0  0  0  0  0  0  0  0  0  0  0
    2.1278   14.7882   40.6488 H   0  0  0  0  0  0  0  0  0  0  0  0
    3.0322   12.5281   40.1548 H   0  0  0  0  0  0  0  0  0  0  0  0
    0.2973   10.8454   42.9791 H   0  0  0  0  0  0  0  0  0  0  0  0
   -0.5656   13.0550   43.4422 H   0  0  0  0  0  0  0  0  0  0  0  0
   -1.4158   14.8624   43.9562 H   0  0  0  0  0  0  0  0  0  0  0  0
    2.1308   17.2761   40.2567 H   0  0  0  0  0  0  0  0  0  0  0  0
   -0.0993   19.7846   41.9545 H   0  0  0  0  0  0  0  0  0  0  0  0
  1  2  1  0
  1 19  1  0
  1 20  2  0
  2  3  1  0
  2 16  2  0
  3  4  2  0
  4  5  1  0
  5 15  2  0
  5 17  1  0
  6 17  1  0
  6 18  2  0
  6 22  1  0
  7  8  1  0
  7 14  2  0
  7 18  1  0
  8  9  1  0
  8 13  2  0
  9 10  2  0
 10 11  1  0
 11 12  2  0
 11 23  1  0
 12 13  1  0
 14 22  1  0
 15 16  1  0
 16 21  1  0
  3 24  1  0
  4 25  1  0
  9 26  1  0
 10 27  1  0
 12 28  1  0
 13 29  1  0
 14 30  1  0
 15 31  1  0
 17 32  1  0
M  CHG  2  19  -1  21  -1
M  END
>  <mol_id>  (8) 
2026-08-23-6tgu-s0-n100-r9-0008

>  <rmsd_to_ref>  (8) 
0.7755102040867579

$$$$
6tgu.A
     RDKit          3D

 32 34  0  0  0  0  0  0  0  0999 V2000
    3.8902   19.1532   36.4579 C   0  0  0  0  0  0  0  0  0  0  0  0
    3.2829   19.1897   37.8630 C   0  0  0  0  0  0  0  0  0  0  0  0
    2.6386   20.3349   38.3256 C   0  0  0  0  0  0  0  0  0  0  0  0
    1.9104   20.3455   39.5198 C   0  0  0  0  0  0  0  0  0  0  0  0
    1.9543   19.2396   40.3811 C   0  0  0  0  0  0  0  0  0  0  0  0
    0.6766   18.1596   42.2953 C   0  0  0  0  0  0  0  0  0  0  0  0
    0.3861   15.9946   42.9311 C   0  0  0  0  0  0  0  0  0  0  0  0
    0.6527   14.5561   42.9044 C   0  0  0  0  0  0  0  0  0  0  0  0
   -0.1107   13.6447   43.6478 C   0  0  0  0  0  0  0  0  0  0  0  0
    0.1385   12.2774   43.5816 C   0  0  0  0  0  0  0  0  0  0  0  0
    1.1294   11.8243   42.7313 C   0  0  0  0  0  0  0  0  0  0  0  0
    1.9042   12.6899   41.9741 C   0  0  0  0  0  0  0  0  0  0  0  0
    1.6472   14.0553   42.0627 C   0  0  0  0  0  0  0  0  0  0  0  0
   -0.6006   16.5767   43.6820 C   0  0  0  0  0  0  0  0  0  0  0  0
    2.5891   18.0751   39.9260 C   0  0  0  0  0  0  0  0  0  0  0  0
    3.2403   18.0743   38.6910 C   0  0  0  0  0  0  0  0  0  0  0  0
    1.1662   19.2091   41.5723 N   0  0  0  0  0  0  0  0  0  0  0  0
    1.0777   16.8629   42.0536 N   0  0  0  0  0  0  0  0  0  0  0  0
    3.6292   20.1364   35.7039 O   0  0  0  0  0  0  0  0  0  0  0  0
    4.5249   18.1234   36.1412 O   0  0  0  0  0  0  0  0  0  0  0  0
    3.7682   16.9002   38.2088 O   0  0  0  0  0  0  0  0  0  0  0  0
   -0.7450   18.2541   43.3169 S   0  0  0  0  0  0  0  0  0  0  0  0
    1.4237   10.1214   42.6076 Cl  0  0  0  0  0  0  0  0  0  0  0  0
    2.7046   21.2595   37.7334 H   0  0  0  0  0  0  0  0  0  0  0  0
    1.3020   21.2231   39.7839 H   0  0  0  0  0  0  0  0  0  0  0  0
   -0.9196   14.0167   44.2937 H   0  0  0  0  0  0  0  0  0  0  0  0
   -0.4416   11.5712   44.1938 H   0  0  0  0  0  0  0  0  0  0  0  0
    2.7017   12.3075   41.3200 H   0  0  0  0  0  0  0  0  0  0  0  0
    2.2409   14.7548   41.4560 H   0  0  0  0  0  0  0  0  0  0  0  0
   -1.2185   16.0441   44.4199 H   0  0  0  0  0  0  0  0  0  0  0  0
    2.5741   17.1633   40.5412 H   0  0  0  0  0  0  0  0  0  0  0  0
    0.9265   20.1369   41.9499 H   0  0  0  0  0  0  0  0  0  0  0  0
  1  2  1  0
  1 19  1  0
  1 20  2  0
  2  3  1  0
  2 16  2  0
  3  4  2  0
  4  5  1  0
  5 15  2  0
  5 17  1  0
  6 17  1  0
  6 18  2  0
  6 22  1  0
  7  8  1  0
  7 14  2  0
  7 18  1  0
  8  9  1  0
  8 13  2  0
  9 10  2  0
 10 11  1  0
 11 12  2  0
 11 23  1  0
 12 13  1  0
 14 22  1  0
 15 16  1  0
 16 21  1  0
  3 24  1  0
  4 25  1  0
  9 26  1  0
 10 27  1  0
 12 28  1  0
 13 29  1  0
 14 30  1  0
 15 31  1  0
 17 32  1  0
M  CHG  2  19  -1  21  -1
M  END
>  <mol_id>  (9) 
2026-08-23-6tgu-s0-n100-r9-0009

>  <rmsd_to_ref>  (9) 
0.8214285714360529

$$$$
6tgu.A
     RDKit          3D

 32 34  0  0  0  0  0  0  0  0999 V2000
    3.9821   19.9964   37.7318 C   0  0  0  0  0  0  0  0  0  0  0  0
    3.1578   19.7717   38.9185 C   0  0  0  0  0  0  0  0  0  0  0  0
    2.7401   20.8181   39.6985 C   0  0  0  0  0  0  0  0  0  0  0  0
    1.9710   20.5531   40.7971 C   0  0  0  0  0  0  0  0  0  0  0  0
    1.5906   19.2559   41.1612 C   0  0  0  0  0  0  0  0  0  0  0  0
    0.4234   17.7276   42.6556 C   0  0  0  0  0  0  0  0  0  0  0  0
   -0.0128   15.5380   42.9651 C   0  0  0  0  0  0  0  0  0  0  0  0
    0.1975   14.1661   42.4429 C   0  0  0  0  0  0  0  0  0  0  0  0
    0.9333   13.9031   41.3128 C   0  0  0  0  0  0  0  0  0  0  0  0
    1.1141   12.6164   40.8474 C   0  0  0  0  0  0  0  0  0  0  0  0
    0.5526   11.5497   41.5151 C   0  0  0  0  0  0  0  0  0  0  0  0
   -0.1864   11.7875   42.6461 C   0  0  0  0  0  0  0  0  0  0  0  0
   -0.3551   13.0847   43.0953 C   0  0  0  0  0  0  0  0  0  0  0  0
   -0.7213   15.8118   44.0565 C   0  0  0  0  0  0  0  0  0  0  0  0
    2.0419   18.2526   40.3384 C   0  0  0  0  0  0  0  0  0  0  0  0
    2.8217   18.4754   39.2172 C   0  0  0  0  0  0  0  0  0  0  0  0
    0.7949   19.0557   42.3093 N   0  0  0  0  0  0  0  0  0  0  0  0
    0.4865   16.6092   42.3903 N   0  0  0  0  0  0  0  0  0  0  0  0
    4.3423   21.3055   37.3995 O   0  0  0  0  0  0  0  0  0  0  0  0
    4.3418   19.0097   37.0471 O   0  0  0  0  0  0  0  0  0  0  0  0
    3.2450   17.4111   38.4264 O   0  0  0  0  0  0  0  0  0  0  0  0
   -0.6625   17.5879   44.2423 S   0  0  0  0  0  0  0  0  0  0  0  0
    0.7786    9.9093   40.9285 Cl  0  0  0  0  0  0  0  0  0  0  0  0
    3.0017   21.8547   39.4703 H   0  0  0  0  0  0  0  0  0  0  0  0
    1.6375   21.3837   41.4190 H   0  0  0  0  0  0  0  0  0  0  0  0
    1.3824   14.7501   40.7779 H   0  0  0  0  0  0  0  0  0  0  0  0
    1.6965   12.4273   39.9560 H   0  0  0  0  0  0  0  0  0  0  0  0
   -0.6577   10.9821   43.2205 H   0  0  0  0  0  0  0  0  0  0  0  0
   -0.9487   13.2513   43.9999 H   0  0  0  0  0  0  0  0  0  0  0  0
   -1.2962   15.1194   44.8016 H   0  0  0  0  0  0  0  0  0  0  0  0
    1.7947   17.2240   40.5464 H   0  0  0  0  0  0  0  0  0  0  0  0
    0.5151   19.9043   42.8543 H   0  0  0  0  0  0  0  0  0  0  0  0
  1  2  1  0
  1 19  1  0
  1 20  2  0
  2  3  1  0
  2 16  2  0
  3  4  2  0
  4  5  1  0
  5 15  2  0
  5 17  1  0
  6 17  1  0
  6 18  2  0
  6 22  1  0
  7  8  1  0
  7 14  2  0
  7 18  1  0
  8  9  1  0
  8 13  2  0
  9 10  2  0
 10 11  1  0
 11 12  2  0
 11 23  1  0
 12 13  1  0
 14 22  1  0
 15 16  1  0
 16 21  1  0
  3 24  1  0
  4 25  1  0
  9 26  1  0
 10 27  1  0
 12 28  1  0
 13 29  1  0
 14 30  1  0
 15 31  1  0
 17 32  1  0
M  CHG  2  19  -1  21  -1
M  END
>  <mol_id>  (10) 
2026-08-23-6tgu-s0-n100-r9-0010

>  <rmsd_to_ref>  (10) 
0.8673469387781559

$$$$
6tgu.A
     RDKit          3D

 32 34  0  0  0  0  0  0  0  0999 V2000
    3.7075   19.1649   36.2314 C   0  0  0  0  0  0  0  0  0  0  0  0
    3.1274   19.2436   37.6463 C   0  0  0  0  0  0  0  0  0  0  0  0
    2.4913   20.4021   38.0865 C   0  0  0  0  0  0  0  0  0  0  0  0
    1.7863   20.4486   39.2936 C   0  0  0  0  0  0  0  0  0  0  0  0
    1.8478   19.3692   40.1869 C   0  0  0  0  0  0  0  0  0  0  0  0
    0.6082   18.3473   42.1573 C   0  0  0  0  0  0  0  0  0  0  0  0
    0.3318   16.2025   42.8636 C   0  0  0  0  0  0  0  0  0  0  0  0
    0.5989   14.7638   42.8752 C   0  0  0  0  0  0  0  0  0  0  0  0
   -0.1492   13.8752   43.6604 C   0  0  0  0  0  0  0  0  0  0  0  0
    0.0996   12.5066   43.6307 C   0  0  0  0  0  0  0  0  0  0  0  0
    1.0743   12.0281   42.7755 C   0  0  0  0  0  0  0  0  0  0  0  0
    1.8337   12.8707   41.9776 C   0  0  0  0  0  0  0  0  0  0  0  0
    1.5773   14.2380   42.0299 C   0  0  0  0  0  0  0  0  0  0  0  0
   -0.6407   16.8068   43.6156 C   0  0  0  0  0  0  0  0  0  0  0  0
    2.4746   18.1917   39.7550 C   0  0  0  0  0  0  0  0  0  0  0  0
    3.1018   18.1537   38.5083 C   0  0  0  0  0  0  0  0  0  0  0  0
    1.0828   19.3745   41.3935 N   0  0  0  0  0  0  0  0  0  0  0  0
    1.0056   17.0440   41.9471 N   0  0  0  0  0  0  0  0  0  0  0  0
    3.4312   20.1247   35.4533 O   0  0  0  0  0  0  0  0  0  0  0  0
    4.3368   18.1260   35.9337 O   0  0  0  0  0  0  0  0  0  0  0  0
    3.6212   16.9657   38.0515 O   0  0  0  0  0  0  0  0  0  0  0  0
   -0.7935   18.4724   43.2028 S   0  0  0  0  0  0  0  0  0  0  0  0
    1.3675   10.3224   42.6975 Cl  0  0  0  0  0  0  0  0  0  0  0  0
    2.5451   21.3085   37.4654 H   0  0  0  0  0  0  0  0  0  0  0  0
    1.1825   21.3336   39.5429 H   0  0  0  0  0  0  0  0  0  0  0  0
   -0.9458   14.2663   44.3103 H   0  0  0  0  0  0  0  0  0  0  0  0
   -0.4680   11.8191   44.2751 H   0  0  0  0  0  0  0  0  0  0  0  0
    2.6187   12.4688   41.3201 H   0  0  0  0  0  0  0  0  0  0  0  0
    2.1586   14.9190   41.3910 H   0  0  0  0  0  0  0  0  0  0  0  0
   -1.2438   16.2965   44.3810 H   0  0  0  0  0  0  0  0  0  0  0  0
    2.4722   17.2989   40.3976 H   0  0  0  0  0  0  0  0  0  0  0  0
    0.8498   20.3133   41.7476 H   0  0  0  0  0  0  0  0  0  0  0  0
  1  2  1  0
  1 19  1  0
  1 20  2  0
  2  3  1  0
  2 16  2  0
  3  4  2  0
  4  5  1  0
  5 15  2  0
  5 17  1  0
  6 17  1  0
  6 18  2  0
  6 22  1  0
  7  8  1  0
  7 14  2  0
  7 18  1  0
  8  9  1  0
  8 13  2  0
  9 10  2  0
 10 11  1  0
 11 12  2  0
 11 23  1  0
 12 13  1  0
 14 22  1  0
 15 16  1  0
 16 21  1  0
  3 24  1  0
  4 25  1  0
  9 26  1  0
 10 27  1  0
 12 28  1  0
 13 29  1  0
 14 30  1  0
 15 31  1  0
 17 32  1  0
M  CHG  2  19  -1  21  -1
M  END
>  <mol_id>  (11) 
2026-08-23-6tgu-s0-n100-r9-0011

>  <rmsd_to_ref>  (11) 
0.9132653061316715

$$$$
6tgu.A
     RDKit          3D

 32 34  0  0  0  0  0  0  0  0999 V2000
    2.8006   21.0907   37.6525 C   0  0  0  0  0  0  0  0  0  0  0  0
    2.3787   20.4694   38.9257 C   0  0  0  0  0  0  0  0  0  0  0  0
    1.9330   21.2525   39.9623 C   0  0  0  0  0  0  0  0  0  0  0  0
    1.5277   20.6783   41.1783 C   0  0  0  0  0  0  0  0  0  0  0  0
    1.5873   19.2827   41.3107 C   0  0  0  0  0  0  0  0  0  0  0  0
    0.7579   17.2666   42.5524 C   0  0  0  0  0  0  0  0  0  0  0  0
    0.2016   15.0903   42.4688 C   0  0  0  0  0  0  0  0  0  0  0  0
    0.5848   13.7256   42.0607 C   0  0  0  0  0  0  0  0  0  0  0  0
   -0.2735   12.6690   42.3056 C   0  0  0  0  0  0  0  0  0  0  0  0
    0.0326   11.3664   41.9457 C   0  0  0  0  0  0  0  0  0  0  0  0
    1.2289   11.0937   41.3217 C   0  0  0  0  0  0  0  0  0  0  0  0
    2.0777   12.1420   41.0795 C   0  0  0  0  0  0  0  0  0  0  0  0
    1.7675   13.4331   41.4393 C   0  0  0  0  0  0  0  0  0  0  0  0
   -1.0259   15.3418   43.1061 C   0  0  0  0  0  0  0  0  0  0  0  0
    2.0331   18.4802   40.2778 C   0  0  0  0  0  0  0  0  0  0  0  0
    2.4230   19.0882   39.0997 C   0  0  0  0  0  0  0  0  0  0  0  0
    1.1886   18.6527   42.5530 N   0  0  0  0  0  0  0  0  0  0  0  0
    0.9156   16.1717   42.2985 N   0  0  0  0  0  0  0  0  0  0  0  0
    3.2477   20.2447   36.6354 O   0  0  0  0  0  0  0  0  0  0  0  0
    2.7484   22.3514   37.5153 O   0  0  0  0  0  0  0  0  0  0  0  0
    2.8760   18.2463   38.0612 O   0  0  0  0  0  0  0  0  0  0  0  0
   -0.9781   17.1835   43.3844 S   0  0  0  0  0  0  0  0  0  0  0  0
    1.6358    9.4495   40.8536 Cl  0  0  0  0  0  0  0  0  0  0  0  0
    1.8738   22.3508   39.8820 H   0  0  0  0  0  0  0  0  0  0  0  0
    1.1722   21.3117   41.9983 H   0  0  0  0  0  0  0  0  0  0  0  0
   -1.2405   12.8329   42.8003 H   0  0  0  0  0  0  0  0  0  0  0  0
   -0.6981   10.5829   42.1776 H   0  0  0  0  0  0  0  0  0  0  0  0
    3.0491   12.0129   40.5840 H   0  0  0  0  0  0  0  0  0  0  0  0
    2.4409   14.2546   41.2466 H   0  0  0  0  0  0  0  0  0  0  0  0
   -1.8398   14.7248   43.4017 H   0  0  0  0  0  0  0  0  0  0  0  0
    2.0967   17.3928   40.3452 H   0  0  0  0  0  0  0  0  0  0  0  0
    1.2132   19.2081   43.4604 H   0  0  0  0  0  0  0  0  0  0  0  0
  1  2  1  0
  1 19  1  0
  1 20  2  0
  2  3  1  0
  2 16  2  0
  3  4  2  0
  4  5  1  0
  5 15  2  0
  5 17  1  0
  6 17  1  0
  6 18  2  0
  6 22  1  0
  7  8  1  0
  7 14  2  0
  7 18  1  0
  8  9  1  0
  8 13  2  0
  9 10  2  0
 10 11  1  0
 11 12  2  0
 11 23  1  0
 12 13  1  0
 14 22  1  0
 15 16  1  0
 16 21  1  0
  3 24  1  0
  4 25  1  0
  9 26  1  0
 10 27  1  0
 12 28  1  0
 13 29  1  0
 14 30  1  0
 15 31  1  0
 17 32  1  0
M  CHG  2  19  -1  21  -1
M  END
>  <mol_id>  (12) 
2026-08-23-6tgu-s0-n100-r9-0012

>  <rmsd_to_ref>  (12) 
0.9591836734776388

$$$$
6tgu.A
     RDKit          3D

 32 34  0  0  0  0  0  0  0  0999 V2000
    2.5146   20.8691   37.4944 C   0  0  0  0  0  0  0  0  0  0  0  0
    2.0331   20.2904   38.8278 C   0  0  0  0  0  0  0  0  0  0  0  0
    1.1558   21.0104   39.6356 C   0  0  0  0  0  0  0  0  0  0  0  0
    0.5475   20.4431   40.7602 C   0  0  0  0  0  0  0  0  0  0  0  0
    0.9428   19.1749   41.2100 C   0  0  0  0  0  0  0  0  0  0  0  0
    0.1429   17.2390   42.6508 C   0  0  0  0  0  0  0  0  0  0  0  0
    0.4698   14.9906   42.5362 C   0  0  0  0  0  0  0  0  0  0  0  0
    1.0936   13.7634   42.0400 C   0  0  0  0  0  0  0  0  0  0  0  0
    0.6519   12.4927   42.4352 C   0  0  0  0  0  0  0  0  0  0  0  0
    1.2374   11.3382   41.9251 C   0  0  0  0  0  0  0  0  0  0  0  0
    2.2399   11.4642   40.9819 C   0  0  0  0  0  0  0  0  0  0  0  0
    2.7032   12.7008   40.5587 C   0  0  0  0  0  0  0  0  0  0  0  0
    2.1124   13.8442   41.0893 C   0  0  0  0  0  0  0  0  0  0  0  0
   -0.5697   15.0147   43.4279 C   0  0  0  0  0  0  0  0  0  0  0  0
    1.8165   18.4326   40.4028 C   0  0  0  0  0  0  0  0  0  0  0  0
    2.3448   19.0011   39.2423 C   0  0  0  0  0  0  0  0  0  0  0  0
    0.2871   18.5551   42.3178 N   0  0  0  0  0  0  0  0  0  0  0  0
    0.8426   16.2456   41.9995 N   0  0  0  0  0  0  0  0  0  0  0  0
    1.9504   21.9331   37.1036 O   0  0  0  0  0  0  0  0  0  0  0  0
    3.3648   20.2049   36.8622 O   0  0  0  0  0  0  0  0  0  0  0  0
    3.1158   18.2299   38.4053 O   0  0  0  0  0  0  0  0  0  0  0  0
   -1.1685   16.6168   43.6338 S   0  0  0  0  0  0  0  0  0  0  0  0
    2.9503   10.0352   40.3074 Cl  0  0  0  0  0  0  0  0  0  0  0  0
    0.9345   22.0575   39.3813 H   0  0  0  0  0  0  0  0  0  0  0  0
   -0.2424   20.9928   41.2930 H   0  0  0  0  0  0  0  0  0  0  0  0
   -0.1709   12.4072   43.1603 H   0  0  0  0  0  0  0  0  0  0  0  0
    0.9090   10.3451   42.2656 H   0  0  0  0  0  0  0  0  0  0  0  0
    3.5170   12.7763   39.8224 H   0  0  0  0  0  0  0  0  0  0  0  0
    2.4560   14.8332   40.7519 H   0  0  0  0  0  0  0  0  0  0  0  0
   -0.9689   14.1290   43.9439 H   0  0  0  0  0  0  0  0  0  0  0  0
    2.0854   17.4035   40.6836 H   0  0  0  0  0  0  0  0  0  0  0  0
   -0.1515   19.2133   42.9775 H   0  0  0  0  0  0  0  0  0  0  0  0
  1  2  1  0
  1 19  1  0
  1 20  2  0
  2  3  1  0
  2 16  2  0
  3  4  2  0
  4  5  1  0
  5 15  2  0
  5 17  1  0
  6 17  1  0
  6 18  2  0
  6 22  1  0
  7  8  1  0
  7 14  2  0
  7 18  1  0
  8  9  1  0
  8 13  2  0
  9 10  2  0
 10 11  1  0
 11 12  2  0
 11 23  1  0
 12 13  1  0
 14 22  1  0
 15 16  1  0
 16 21  1  0
  3 24  1  0
  4 25  1  0
  9 26  1  0
 10 27  1  0
 12 28  1  0
 13 29  1  0
 14 30  1  0
 15 31  1  0
 17 32  1  0
M  CHG  2  19  -1  21  -1
M  END
>  <mol_id>  (13) 
2026-08-23-6tgu-s0-n100-r9-0013

>  <rmsd_to_ref>  (13) 
1.0051020408242288

$$$$
6tgu.A
     RDKit          3D

 32 34  0  0  0  0  0  0  0  0999 V2000
    4.6582   20.4398   37.9284 C   0  0  0  0  0  0  0  0  0  0  0  0
    3.5675   20.1470   38.8572 C   0  0  0  0  0  0  0  0  0  0  0  0
    2.8257   21.1538   39.4176 C   0  0  0  0  0  0  0  0  0  0  0  0
    1.8171   20.8255   40.2799 C   0  0  0  0  0  0  0  0  0  0  0  0
    1.5081   19.5022   40.6165 C   0  0  0  0  0  0  0  0  0  0  0  0
    0.1606   17.8828   41.8385 C   0  0  0  0  0  0  0  0  0  0  0  0
   -0.0794   15.6664   42.1703 C   0  0  0  0  0  0  0  0  0  0  0  0
    0.4316   14.3181   41.8234 C   0  0  0  0  0  0  0  0  0  0  0  0
    1.4806   14.1179   40.9589 C   0  0  0  0  0  0  0  0  0  0  0  0
    1.9373   12.8521   40.6525 C   0  0  0  0  0  0  0  0  0  0  0  0
    1.3431   11.7431   41.2146 C   0  0  0  0  0  0  0  0  0  0  0  0
    0.2939   11.9179   42.0807 C   0  0  0  0  0  0  0  0  0  0  0  0
   -0.1481   13.1952   42.3742 C   0  0  0  0  0  0  0  0  0  0  0  0
   -1.0928   15.8796   43.0042 C   0  0  0  0  0  0  0  0  0  0  0  0
    2.2886   18.5411   40.0211 C   0  0  0  0  0  0  0  0  0  0  0  0
    3.3189   18.8283   39.1431 C   0  0  0  0  0  0  0  0  0  0  0  0
    0.4525   19.2362   41.5144 N   0  0  0  0  0  0  0  0  0  0  0  0
    0.4290   16.7747   41.6800 N   0  0  0  0  0  0  0  0  0  0  0  0
    4.9376   21.7733   37.6159 O   0  0  0  0  0  0  0  0  0  0  0  0
    5.3108   19.4877   37.4393 O   0  0  0  0  0  0  0  0  0  0  0  0
    4.0711   17.8042   38.5750 O   0  0  0  0  0  0  0  0  0  0  0  0
   -1.3015   17.6527   43.0736 S   0  0  0  0  0  0  0  0  0  0  0  0
    1.9192   10.1289   40.8290 Cl  0  0  0  0  0  0  0  0  0  0  0  0
    3.0147   22.2077   39.1972 H   0  0  0  0  0  0  0  0  0  0  0  0
    1.2257   21.6245   40.7269 H   0  0  0  0  0  0  0  0  0  0  0  0
    1.9568   14.9989   40.5089 H   0  0  0  0  0  0  0  0  0  0  0  0
    2.7644   12.7127   39.9698 H   0  0  0  0  0  0  0  0  0  0  0  0
   -0.2196   11.0765   42.5595 H   0  0  0  0  0  0  0  0  0  0  0  0
   -0.9868   13.3113   43.0680 H   0  0  0  0  0  0  0  0  0  0  0  0
   -1.7663   15.1420   43.6106 H   0  0  0  0  0  0  0  0  0  0  0  0
    2.1181   17.4964   40.2255 H   0  0  0  0  0  0  0  0  0  0  0  0
   -0.0684   20.0576   41.9010 H   0  0  0  0  0  0  0  0  0  0  0  0
  1  2  1  0
  1 19  1  0
  1 20  2  0
  2  3  1  0
  2 16  2  0
  3  4  2  0
  4  5  1  0
  5 15  2  0
  5 17  1  0
  6 17  1  0
  6 18  2  0
  6 22  1  0
  7  8  1  0
  7 14  2  0
  7 18  1  0
  8  9  1  0
  8 13  2  0
  9 10  2  0
 10 11  1  0
 11 12  2  0
 11 23  1  0
 12 13  1  0
 14 22  1  0
 15 16  1  0
 16 21  1  0
  3 24  1  0
  4 25  1  0
  9 26  1  0
 10 27  1  0
 12 28  1  0
 13 29  1  0
 14 30  1  0
 15 31  1  0
 17 32  1  0
M  CHG  2  19  -1  21  -1
M  END
>  <mol_id>  (14) 
2026-08-23-6tgu-s0-n100-r9-0014

>  <rmsd_to_ref>  (14) 
1.051020408171103

$$$$
6tgu.A
     RDKit          3D

 32 34  0  0  0  0  0  0  0  0999 V2000
    3.7514   20.4955   37.5498 C   0  0  0  0  0  0  0  0  0  0  0  0
    3.3506   19.9754   38.9330 C   0  0  0  0  0  0  0  0  0  0  0  0
    2.9266   20.8572   39.9247 C   0  0  0  0  0  0  0  0  0  0  0  0
    2.3750   20.4092   41.1295 C   0  0  0  0  0  0  0  0  0  0  0  0
    2.3945   19.0436   41.4481 C   0  0  0  0  0  0  0  0  0  0  0  0
    1.2621   17.3385   42.9559 C   0  0  0  0  0  0  0  0  0  0  0  0
    0.7873   15.1279   42.7035 C   0  0  0  0  0  0  0  0  0  0  0  0
    0.8622   13.8202   42.0513 C   0  0  0  0  0  0  0  0  0  0  0  0
    0.0972   12.7282   42.4854 C   0  0  0  0  0  0  0  0  0  0  0  0
    0.1587   11.5025   41.8297 C   0  0  0  0  0  0  0  0  0  0  0  0
    0.9588   11.3897   40.7083 C   0  0  0  0  0  0  0  0  0  0  0  0
    1.7273   12.4454   40.2414 C   0  0  0  0  0  0  0  0  0  0  0  0
    1.6608   13.6603   40.9178 C   0  0  0  0  0  0  0  0  0  0  0  0
   -0.0057   15.3990   43.7870 C   0  0  0  0  0  0  0  0  0  0  0  0
    2.8078   18.1419   40.4571 C   0  0  0  0  0  0  0  0  0  0  0  0
    3.2793   18.6203   39.2332 C   0  0  0  0  0  0  0  0  0  0  0  0
    1.7784   18.5633   42.6443 N   0  0  0  0  0  0  0  0  0  0  0  0
    1.4580   16.2414   42.1443 N   0  0  0  0  0  0  0  0  0  0  0  0
    3.5176   21.7178   37.3163 O   0  0  0  0  0  0  0  0  0  0  0  0
    4.2006   19.6577   36.7374 O   0  0  0  0  0  0  0  0  0  0  0  0
    3.5827   17.7276   38.2328 O   0  0  0  0  0  0  0  0  0  0  0  0
    0.0165   17.0802   44.1623 S   0  0  0  0  0  0  0  0  0  0  0  0
    1.0140    9.8815   39.8575 Cl  0  0  0  0  0  0  0  0  0  0  0  0
    3.0286   21.9392   39.7549 H   0  0  0  0  0  0  0  0  0  0  0  0
    1.9252   21.1296   41.8286 H   0  0  0  0  0  0  0  0  0  0  0  0
   -0.5622   12.8424   43.3584 H   0  0  0  0  0  0  0  0  0  0  0  0
   -0.4179   10.6406   42.1965 H   0  0  0  0  0  0  0  0  0  0  0  0
    2.3730   12.3258   39.3589 H   0  0  0  0  0  0  0  0  0  0  0  0
    2.2507   14.5132   40.5508 H   0  0  0  0  0  0  0  0  0  0  0  0
   -0.5802   14.6437   44.3434 H   0  0  0  0  0  0  0  0  0  0  0  0
    2.7605   17.0588   40.6437 H   0  0  0  0  0  0  0  0  0  0  0  0
    1.7126   19.2596   43.4004 H   0  0  0  0  0  0  0  0  0  0  0  0
  1  2  1  0
  1 19  1  0
  1 20  2  0
  2  3  1  0
  2 16  2  0
  3  4  2  0
  4  5  1  0
  5 15  2  0
  5 17  1  0
  6 17  1  0
  6 18  2  0
  6 22  1  0
  7  8  1  0
  7 14  2  0
  7 18  1  0
  8  9  1  0
  8 13  2  0
  9 10  2  0
 10 11  1  0
 11 12  2  0
 11 23  1  0
 12 13  1  0
 14 22  1  0
 15 16  1  0
 16 21  1  0
  3 24  1  0
  4 25  1  0
  9 26  1  0
 10 27  1  0
 12 28  1  0
 13 29  1  0
 14 30  1  0
 15 31  1  0
 17 32  1  0
M  CHG  2  19  -1  21  -1
M  END
>  <mol_id>  (15) 
2026-08-23-6tgu-s0-n100-r9-0015

>  <rmsd_to_ref>  (15) 
1.0969387755139346

$$$$
6tgu.A
     RDKit          3D

 32 34  0  0  0  0  0  0  0  0999 V2000
    3.0111   21.1836   37.4087 C   0  0  0  0  0  0  0  0  0  0  0  0
    2.6757   20.5869   38.6902 C   0  0  0  0  0  0  0  0  0  0  0  0
    1.3671   20.5676   39.1584 C   0  0  0  0  0  0  0  0  0  0  0  0
    1.0966   19.9736   40.3846 C   0  0  0  0  0  0  0  0  0  0  0  0
    2.0767   19.3970   41.1652 C   0  0  0  0  0  0  0  0  0  0  0  0
    1.2774   17.5172   42.6269 C   0  0  0  0  0  0  0  0  0  0  0  0
    0.6606   15.3535   42.7982 C   0  0  0  0  0  0  0  0  0  0  0  0
    0.8219   13.9649   42.3858 C   0  0  0  0  0  0  0  0  0  0  0  0
    0.0662   12.9404   42.9028 C   0  0  0  0  0  0  0  0  0  0  0  0
    0.1685   11.6260   42.5285 C   0  0  0  0  0  0  0  0  0  0  0  0
    1.0949   11.2663   41.5594 C   0  0  0  0  0  0  0  0  0  0  0  0
    1.8606   12.2721   41.0321 C   0  0  0  0  0  0  0  0  0  0  0  0
    1.7465   13.5997   41.4181 C   0  0  0  0  0  0  0  0  0  0  0  0
   -0.3065   15.7204   43.7351 C   0  0  0  0  0  0  0  0  0  0  0  0
    3.3955   19.4298   40.6732 C   0  0  0  0  0  0  0  0  0  0  0  0
    3.6747   20.0203   39.4539 C   0  0  0  0  0  0  0  0  0  0  0  0
    1.7655   18.8400   42.3965 N   0  0  0  0  0  0  0  0  0  0  0  0
    1.3102   16.4168   42.4040 N   0  0  0  0  0  0  0  0  0  0  0  0
    4.2818   21.2275   36.8734 O   0  0  0  0  0  0  0  0  0  0  0  0
    2.0550   21.6963   36.7541 O   0  0  0  0  0  0  0  0  0  0  0  0
    4.9773   20.0283   39.0150 O   0  0  0  0  0  0  0  0  0  0  0  0
   -0.1726   17.5107   43.9291 S   0  0  0  0  0  0  0  0  0  0  0  0
    1.2828    9.6142   41.0327 Cl  0  0  0  0  0  0  0  0  0  0  0  0
    0.6079   21.0007   38.5505 H   0  0  0  0  0  0  0  0  0  0  0  0
    0.0511   19.9994   40.6795 H   0  0  0  0  0  0  0  0  0  0  0  0
   -0.6798   13.1653   43.6758 H   0  0  0  0  0  0  0  0  0  0  0  0
   -0.4533   10.8701   42.9810 H   0  0  0  0  0  0  0  0  0  0  0  0
    2.6016   12.0204   40.2535 H   0  0  0  0  0  0  0  0  0  0  0  0
    2.3613   14.3478   40.9704 H   0  0  0  0  0  0  0  0  0  0  0  0
   -1.0574   15.0824   44.2850 H   0  0  0  0  0  0  0  0  0  0  0  0
    4.1790   18.9818   41.2910 H   0  0  0  0  0  0  0  0  0  0  0  0
    1.9258   19.4911   43.2348 H   0  0  0  0  0  0  0  0  0  0  0  0
  1  2  1  0
  1 19  1  0
  1 20  2  0
  2  3  1  0
  2 16  2  0
  3  4  2  0
  4  5  1  0
  5 15  2  0
  5 17  1  0
  6 17  1  0
  6 18  2  0
  6 22  1  0
  7  8  1  0
  7 14  2  0
  7 18  1  0
  8  9  1  0
  8 13  2  0
  9 10  2  0
 10 11  1  0
 11 12  2  0
 11 23  1  0
 12 13  1  0
 14 22  1  0
 15 16  1  0
 16 21  1  0
  3 24  1  0
  4 25  1  0
  9 26  1  0
 10 27  1  0
 12 28  1  0
 13 29  1  0
 14 30  1  0
 15 31  1  0
 17 32  1  0
M  CHG  2  19  -1  21  -1
M  END
>  <mol_id>  (16) 
2026-08-23-6tgu-s0-n100-r9-0016

>  <rmsd_to_ref>  (16) 
1.1428571428585435

$$$$
6tgu.A
     RDKit          3D

 32 34  0  0  0  0  0  0  0  0999 V2000
    4.4271   20.2138   37.9287 C   0  0  0  0  0  0  0  0  0  0  0  0
    3.7800   19.8176   39.2587 C   0  0  0  0  0  0  0  0  0  0  0  0
    3.2769   20.7916   40.1183 C   0  0  0  0  0  0  0  0  0  0  0  0
    2.5142   20.4651   41.2444 C   0  0  0  0  0  0  0  0  0  0  0  0
    2.3803   19.1264   41.6401 C   0  0  0  0  0  0  0  0  0  0  0  0
    0.9030   17.6077   43.0453 C   0  0  0  0  0  0  0  0  0  0  0  0
    0.3058   15.4213   42.8485 C   0  0  0  0  0  0  0  0  0  0  0  0
    0.3803   14.0697   42.2929 C   0  0  0  0  0  0  0  0  0  0  0  0
   -0.5233   13.0632   42.6625 C   0  0  0  0  0  0  0  0  0  0  0  0
   -0.4552   11.7940   42.0965 C   0  0  0  0  0  0  0  0  0  0  0  0
    0.4969   11.5516   41.1242 C   0  0  0  0  0  0  0  0  0  0  0  0
    1.4061   12.5195   40.7248 C   0  0  0  0  0  0  0  0  0  0  0  0
    1.3291   13.7798   41.3112 C   0  0  0  0  0  0  0  0  0  0  0  0
   -0.6215   15.8181   43.7755 C   0  0  0  0  0  0  0  0  0  0  0  0
    2.8712   18.1332   40.7806 C   0  0  0  0  0  0  0  0  0  0  0  0
    3.5604   18.4941   39.6214 C   0  0  0  0  0  0  0  0  0  0  0  0
    1.5528   18.7712   42.7494 N   0  0  0  0  0  0  0  0  0  0  0  0
    1.1373   16.4468   42.3395 N   0  0  0  0  0  0  0  0  0  0  0  0
    4.3258   21.4299   37.5912 O   0  0  0  0  0  0  0  0  0  0  0  0
    4.9308   19.2942   37.2473 O   0  0  0  0  0  0  0  0  0  0  0  0
    3.9451   17.5166   38.7347 O   0  0  0  0  0  0  0  0  0  0  0  0
   -0.5292   17.5160   44.0521 S   0  0  0  0  0  0  0  0  0  0  0  0
    0.5672    9.9881   40.3811 Cl  0  0  0  0  0  0  0  0  0  0  0  0
    3.4859   21.8503   39.9049 H   0  0  0  0  0  0  0  0  0  0  0  0
    2.0183   21.2600   41.8208 H   0  0  0  0  0  0  0  0  0  0  0  0
   -1.2985   13.2806   43.4121 H   0  0  0  0  0  0  0  0  0  0  0  0
   -1.1453   10.9993   42.4163 H   0  0  0  0  0  0  0  0  0  0  0  0
    2.1689   12.2970   39.9641 H   0  0  0  0  0  0  0  0  0  0  0  0
    2.0316   14.5645   40.9937 H   0  0  0  0  0  0  0  0  0  0  0  0
   -1.3305   15.1426   44.2764 H   0  0  0  0  0  0  0  0  0  0  0  0
    2.7135   17.0711   41.0194 H   0  0  0  0  0  0  0  0  0  0  0  0
    1.4248   19.5208   43.4441 H   0  0  0  0  0  0  0  0  0  0  0  0
  1  2  1  0
  1 19  1  0
  1 20  2  0
  2  3  1  0
  2 16  2  0
  3  4  2  0
  4  5  1  0
  5 15  2  0
  5 17  1  0
  6 17  1  0
  6 18  2  0
  6 22  1  0
  7  8  1  0
  7 14  2  0
  7 18  1  0
  8  9  1  0
  8 13  2  0
  9 10  2  0
 10 11  1  0
 11 12  2  0
 11 23  1  0
 12 13  1  0
 14 22  1  0
 15 16  1  0
 16 21  1  0
  3 24  1  0
  4 25  1  0
  9 26  1  0
 10 27  1  0
 12 28  1  0
 13 29  1  0
 14 30  1  0
 15 31  1  0
 17 32  1  0
M  CHG  2  19  -1  21  -1
M  END
>  <mol_id>  (17) 
2026-08-23-6tgu-s0-n100-r9-0017

>  <rmsd_to_ref>  (17) 
1.1887755102131743

$$$$
6tgu.A
     RDKit          3D

 32 34  0  0  0  0  0  0  0  0999 V2000
    2.2793   21.1781   37.1435 C   0  0  0  0  0  0  0  0  0  0  0  0
    1.9237   20.6109   38.4331 C   0  0  0  0  0  0  0  0  0  0  0  0
    0.6063   20.2975   38.7465 C   0  0  0  0  0  0  0  0  0  0  0  0
    0.3201   19.7454   39.9886 C   0  0  0  0  0  0  0  0  0  0  0  0
    1.2928   19.4919   40.9330 C   0  0  0  0  0  0  0  0  0  0  0  0
    0.7744   17.5829   42.4810 C   0  0  0  0  0  0  0  0  0  0  0  0
    0.6769   15.3520   42.8050 C   0  0  0  0  0  0  0  0  0  0  0  0
    1.2218   14.0223   42.5612 C   0  0  0  0  0  0  0  0  0  0  0  0
    0.6702   12.8812   43.0917 C   0  0  0  0  0  0  0  0  0  0  0  0
    1.1352   11.6111   42.8711 C   0  0  0  0  0  0  0  0  0  0  0  0
    2.2451   11.4262   42.0582 C   0  0  0  0  0  0  0  0  0  0  0  0
    2.8123   12.5511   41.5207 C   0  0  0  0  0  0  0  0  0  0  0  0
    2.3311   13.8319   41.7502 C   0  0  0  0  0  0  0  0  0  0  0  0
   -0.4693   15.5312   43.5805 C   0  0  0  0  0  0  0  0  0  0  0  0
    2.6200   19.8191   40.5958 C   0  0  0  0  0  0  0  0  0  0  0  0
    2.9145   20.3707   39.3619 C   0  0  0  0  0  0  0  0  0  0  0  0
    0.9578   18.9656   42.1716 N   0  0  0  0  0  0  0  0  0  0  0  0
    1.1005   16.5128   42.3795 N   0  0  0  0  0  0  0  0  0  0  0  0
    3.5635   21.5008   36.7568 O   0  0  0  0  0  0  0  0  0  0  0  0
    1.3276   21.3850   36.3330 O   0  0  0  0  0  0  0  0  0  0  0  0
    4.2248   20.6738   39.0778 O   0  0  0  0  0  0  0  0  0  0  0  0
   -0.7967   17.3069   43.6007 S   0  0  0  0  0  0  0  0  0  0  0  0
    2.8944    9.8405   41.7322 Cl  0  0  0  0  0  0  0  0  0  0  0  0
   -0.1435   20.4805   38.0132 H   0  0  0  0  0  0  0  0  0  0  0  0
   -0.7315   19.5289   40.1565 H   0  0  0  0  0  0  0  0  0  0  0  0
   -0.2071   12.9670   43.7457 H   0  0  0  0  0  0  0  0  0  0  0  0
    0.6566   10.7581   43.3252 H   0  0  0  0  0  0  0  0  0  0  0  0
    3.6919   12.4377   40.8633 H   0  0  0  0  0  0  0  0  0  0  0  0
    2.8041   14.6759   41.3007 H   0  0  0  0  0  0  0  0  0  0  0  0
   -1.1136   14.7666   44.1037 H   0  0  0  0  0  0  0  0  0  0  0  0
    3.3954   19.6285   41.3433 H   0  0  0  0  0  0  0  0  0  0  0  0
    0.8405   19.6952   42.9501 H   0  0  0  0  0  0  0  0  0  0  0  0
  1  2  1  0
  1 19  1  0
  1 20  2  0
  2  3  1  0
  2 16  2  0
  3  4  2  0
  4  5  1  0
  5 15  2  0
  5 17  1  0
  6 17  1  0
  6 18  2  0
  6 22  1  0
  7  8  1  0
  7 14  2  0
  7 18  1  0
  8  9  1  0
  8 13  2  0
  9 10  2  0
 10 11  1  0
 11 12  2  0
 11 23  1  0
 12 13  1  0
 14 22  1  0
 15 16  1  0
 16 21  1  0
  3 24  1  0
  4 25  1  0
  9 26  1  0
 10 27  1  0
 12 28  1  0
 13 29  1  0
 14 30  1  0
 15 31  1  0
 17 32  1  0
M  CHG  2  19  -1  21  -1
M  END
>  <mol_id>  (18) 
2026-08-23-6tgu-s0-n100-r9-0018

>  <rmsd_to_ref>  (18) 
1.2346938775548741

$$$$
6tgu.A
     RDKit          3D

 32 34  0  0  0  0  0  0  0  0999 V2000
    3.8680   21.3416   38.4542 C   0  0  0  0  0  0  0  0  0  0  0  0
    2.8828   20.7743   39.4800 C   0  0  0  0  0  0  0  0  0  0  0  0
    1.7388   21.4874   39.8313 C   0  0  0  0  0  0  0  0  0  0  0  0
    0.7253   20.9251   40.6144 C   0  0  0  0  0  0  0  0  0  0  0  0
    0.9149   19.6740   41.2191 C   0  0  0  0  0  0  0  0  0  0  0  0
   -0.3855   17.7446   42.2437 C   0  0  0  0  0  0  0  0  0  0  0  0
   -0.0093   15.5027   42.3313 C   0  0  0  0  0  0  0  0  0  0  0  0
    0.7816   14.2821   42.1704 C   0  0  0  0  0  0  0  0  0  0  0  0
    0.2331   13.0084   42.3772 C   0  0  0  0  0  0  0  0  0  0  0  0
    0.9940   11.8592   42.1859 C   0  0  0  0  0  0  0  0  0  0  0  0
    2.2964   11.9924   41.7427 C   0  0  0  0  0  0  0  0  0  0  0  0
    2.8766   13.2321   41.5202 C   0  0  0  0  0  0  0  0  0  0  0  0
    2.1025   14.3703   41.7283 C   0  0  0  0  0  0  0  0  0  0  0  0
   -1.3260   15.5178   42.7086 C   0  0  0  0  0  0  0  0  0  0  0  0
    2.0557   18.9386   40.8675 C   0  0  0  0  0  0  0  0  0  0  0  0
    3.0115   19.4996   40.0184 C   0  0  0  0  0  0  0  0  0  0  0  0
   -0.1340   19.0579   41.9685 N   0  0  0  0  0  0  0  0  0  0  0  0
    0.5358   16.7568   41.9676 N   0  0  0  0  0  0  0  0  0  0  0  0
    3.5031   22.3856   37.8378 O   0  0  0  0  0  0  0  0  0  0  0  0
    4.9134   20.6866   38.2498 O   0  0  0  0  0  0  0  0  0  0  0  0
    4.0718   18.7324   39.5977 O   0  0  0  0  0  0  0  0  0  0  0  0
   -1.9784   17.1090   42.6068 S   0  0  0  0  0  0  0  0  0  0  0  0
    3.2431   10.5691   41.4608 Cl  0  0  0  0  0  0  0  0  0  0  0  0
    1.6290   22.5247   39.4821 H   0  0  0  0  0  0  0  0  0  0  0  0
   -0.2223   21.4653   40.7562 H   0  0  0  0  0  0  0  0  0  0  0  0
   -0.8157   12.9161   42.6960 H   0  0  0  0  0  0  0  0  0  0  0  0
    0.5675   10.8647   42.3833 H   0  0  0  0  0  0  0  0  0  0  0  0
    3.9220   13.3140   41.1878 H   0  0  0  0  0  0  0  0  0  0  0  0
    2.5417   15.3612   41.5401 H   0  0  0  0  0  0  0  0  0  0  0  0
   -1.8915   14.6319   43.0334 H   0  0  0  0  0  0  0  0  0  0  0  0
    2.1975   17.9208   41.2601 H   0  0  0  0  0  0  0  0  0  0  0  0
   -0.8167   19.7168   42.3692 H   0  0  0  0  0  0  0  0  0  0  0  0
  1  2  1  0
  1 19  1  0
  1 20  2  0
  2  3  1  0
  2 16  2  0
  3  4  2  0
  4  5  1  0
  5 15  2  0
  5 17  1  0
  6 17  1  0
  6 18  2  0
  6 22  1  0
  7  8  1  0
  7 14  2  0
  7 18  1  0
  8  9  1  0
  8 13  2  0
  9 10  2  0
 10 11  1  0
 11 12  2  0
 11 23  1  0
 12 13  1  0
 14 22  1  0
 15 16  1  0
 16 21  1  0
  3 24  1  0
  4 25  1  0
  9 26  1  0
 10 27  1  0
 12 28  1  0
 13 29  1  0
 14 30  1  0
 15 31  1  0
 17 32  1  0
M  CHG  2  19  -1  21  -1
M  END
>  <mol_id>  (19) 
2026-08-23-6tgu-s0-n100-r9-0019

>  <rmsd_to_ref>  (19) 
1.2806122449033488

$$$$
6tgu.A
     RDKit          3D

 32 34  0  0  0  0  0  0  0  0999 V2000
    4.3489   20.3683   37.2756 C   0  0  0  0  0  0  0  0  0  0  0  0
    3.3198   19.9192   38.2152 C   0  0  0  0  0  0  0  0  0  0  0  0
    2.1450   20.6158   38.3084 C   0  0  0  0  0  0  0  0  0  0  0  0
    1.1710   20.1871   39.1986 C   0  0  0  0  0  0  0  0  0  0  0  0
    1.3605   19.0686   39.9962 C   0  0  0  0  0  0  0  0  0  0  0  0
    0.5707   17.5380   41.8070 C   0  0  0  0  0  0  0  0  0  0  0  0
    0.7776   15.5854   42.9366 C   0  0  0  0  0  0  0  0  0  0  0  0
    0.6747   14.1233   42.9539 C   0  0  0  0  0  0  0  0  0  0  0  0
    0.9742   13.4036   44.0851 C   0  0  0  0  0  0  0  0  0  0  0  0
    0.8818   12.0140   44.1075 C   0  0  0  0  0  0  0  0  0  0  0  0
    0.4792   11.3320   42.9669 C   0  0  0  0  0  0  0  0  0  0  0  0
    0.1734   12.0366   41.8190 C   0  0  0  0  0  0  0  0  0  0  0  0
    0.2789   13.4144   41.8420 C   0  0  0  0  0  0  0  0  0  0  0  0
    1.2001   16.3639   44.0746 C   0  0  0  0  0  0  0  0  0  0  0  0
    2.5598   18.4019   39.8652 C   0  0  0  0  0  0  0  0  0  0  0  0
    3.5559   18.7968   38.9900 C   0  0  0  0  0  0  0  0  0  0  0  0
    0.3641   18.6111   40.9123 N   0  0  0  0  0  0  0  0  0  0  0  0
    0.5140   16.3435   41.9214 N   0  0  0  0  0  0  0  0  0  0  0  0
    4.1717   21.4847   36.4814 O   0  0  0  0  0  0  0  0  0  0  0  0
    5.4087   19.6610   37.2451 O   0  0  0  0  0  0  0  0  0  0  0  0
    4.7427   18.0844   38.9026 O   0  0  0  0  0  0  0  0  0  0  0  0
    1.1714   17.9722   43.5907 S   0  0  0  0  0  0  0  0  0  0  0  0
    0.3554    9.5717   42.9711 Cl  0  0  0  0  0  0  0  0  0  0  0  0
    1.9611   21.4969   37.7006 H   0  0  0  0  0  0  0  0  0  0  0  0
    0.2136   20.7235   39.3002 H   0  0  0  0  0  0  0  0  0  0  0  0
    1.2948   13.8594   45.0125 H   0  0  0  0  0  0  0  0  0  0  0  0
    1.1212   11.4712   45.0040 H   0  0  0  0  0  0  0  0  0  0  0  0
   -0.1445   11.5583   40.9033 H   0  0  0  0  0  0  0  0  0  0  0  0
    0.0486   14.0207   40.9574 H   0  0  0  0  0  0  0  0  0  0  0  0
    1.4807   15.8522   45.0849 H   0  0  0  0  0  0  0  0  0  0  0  0
    2.7747   17.5104   40.4662 H   0  0  0  0  0  0  0  0  0  0  0  0
   -0.5554   19.1036   40.9095 H   0  0  0  0  0  0  0  0  0  0  0  0
  1  2  1  0
  1 19  1  0
  1 20  2  0
  2  3  1  0
  2 16  2  0
  3  4  2  0
  4  5  1  0
  5 15  2  0
  5 17  1  0
  6 17  1  0
  6 18  2  0
  6 22  1  0
  7  8  1  0
  7 14  2  0
  7 18  1  0
  8  9  1  0
  8 13  2  0
  9 10  2  0
 10 11  1  0
 11 12  2  0
 11 23  1  0
 12 13  1  0
 14 22  1  0
 15 16  1  0
 16 21  1  0
  3 24  1  0
  4 25  1  0
  9 26  1  0
 10 27  1  0
 12 28  1  0
 13 29  1  0
 14 30  1  0
 15 31  1  0
 17 32  1  0
M  CHG  2  19  -1  21  -1
M  END
>  <mol_id>  (20) 
2026-08-23-6tgu-s0-n100-r9-0020

>  <rmsd_to_ref>  (20) 
1.3265306122475584

$$$$
6tgu.A
     RDKit          3D

 32 34  0  0  0  0  0  0  0  0999 V2000
    4.5639   19.9360   37.5169 C   0  0  0  0  0  0  0  0  0  0  0  0
    3.9119   19.5557   38.8491 C   0  0  0  0  0  0  0  0  0  0  0  0
    3.4833   20.5427   39.7339 C   0  0  0  0  0  0  0  0  0  0  0  0
    2.7174   20.2431   40.8653 C   0  0  0  0  0  0  0  0  0  0  0  0
    2.5050   18.9080   41.2385 C   0  0  0  0  0  0  0  0  0  0  0  0
    0.9548   17.4584   42.6380 C   0  0  0  0  0  0  0  0  0  0  0  0
    0.2181   15.3180   42.4103 C   0  0  0  0  0  0  0  0  0  0  0  0
    0.1994   13.9753   41.8289 C   0  0  0  0  0  0  0  0  0  0  0  0
   -0.7605   13.0207   42.1938 C   0  0  0  0  0  0  0  0  0  0  0  0
   -0.7806   11.7608   41.6037 C   0  0  0  0  0  0  0  0  0  0  0  0
    0.1405   11.4778   40.6128 C   0  0  0  0  0  0  0  0  0  0  0  0
    1.1033   12.3942   40.2173 C   0  0  0  0  0  0  0  0  0  0  0  0
    1.1142   13.6453   40.8277 C   0  0  0  0  0  0  0  0  0  0  0  0
   -0.6691   15.7544   43.3584 C   0  0  0  0  0  0  0  0  0  0  0  0
    2.9202   17.9027   40.3535 C   0  0  0  0  0  0  0  0  0  0  0  0
    3.6144   18.2419   39.1907 C   0  0  0  0  0  0  0  0  0  0  0  0
    1.6725   18.5843   42.3535 N   0  0  0  0  0  0  0  0  0  0  0  0
    1.1054   16.2989   41.9075 N   0  0  0  0  0  0  0  0  0  0  0  0
    4.5348   21.1623   37.2032 O   0  0  0  0  0  0  0  0  0  0  0  0
    4.9990   18.9998   36.8111 O   0  0  0  0  0  0  0  0  0  0  0  0
    3.9242   17.2594   38.2805 O   0  0  0  0  0  0  0  0  0  0  0  0
   -0.4661   17.4375   43.6647 S   0  0  0  0  0  0  0  0  0  0  0  0
    0.1017    9.9276   39.8402 Cl  0  0  0  0  0  0  0  0  0  0  0  0
    3.7557   21.5900   39.5367 H   0  0  0  0  0  0  0  0  0  0  0  0
    2.2809   21.0564   41.4637 H   0  0  0  0  0  0  0  0  0  0  0  0
   -1.5098   13.2718   42.9590 H   0  0  0  0  0  0  0  0  0  0  0  0
   -1.5149   11.0050   41.9194 H   0  0  0  0  0  0  0  0  0  0  0  0
    1.8397   12.1389   39.4411 H   0  0  0  0  0  0  0  0  0  0  0  0
    1.8603   14.3903   40.5141 H   0  0  0  0  0  0  0  0  0  0  0  0
   -1.4123   15.1152   43.8576 H   0  0  0  0  0  0  0  0  0  0  0  0
    2.6991   16.8482   40.5752 H   0  0  0  0  0  0  0  0  0  0  0  0
    1.6017   19.3269   43.0638 H   0  0  0  0  0  0  0  0  0  0  0  0
  1  2  1  0
  1 19  1  0
  1 20  2  0
  2  3  1  0
  2 16  2  0
  3  4  2  0
  4  5  1  0
  5 15  2  0
  5 17  1  0
  6 17  1  0
  6 18  2  0
  6 22  1  0
  7  8  1  0
  7 14  2  0
  7 18  1  0
  8  9  1  0
  8 13  2  0
  9 10  2  0
 10 11  1  0
 11 12  2  0
 11 23  1  0
 12 13  1  0
 14 22  1  0
 15 16  1  0
 16 21  1  0
  3 24  1  0
  4 25  1  0
  9 26  1  0
 10 27  1  0
 12 28  1  0
 13 29  1  0
 14 30  1  0
 15 31  1  0
 17 32  1  0
M  CHG  2  19  -1  21  -1
M  END
>  <mol_id>  (21) 
2026-08-23-6tgu-s0-n100-r9-0021

>  <rmsd_to_ref>  (21) 
1.3724489795954096

$$$$
6tgu.A
     RDKit          3D

 32 34  0  0  0  0  0  0  0  0999 V2000
    2.7332   20.8099   36.7967 C   0  0  0  0  0  0  0  0  0  0  0  0
    2.0827   20.2595   37.9774 C   0  0  0  0  0  0  0  0  0  0  0  0
    0.8580   20.7379   38.3901 C   0  0  0  0  0  0  0  0  0  0  0  0
    0.1921   20.2647   39.4942 C   0  0  0  0  0  0  0  0  0  0  0  0
    0.7638   19.2569   40.2424 C   0  0  0  0  0  0  0  0  0  0  0  0
    0.6949   17.6930   42.1492 C   0  0  0  0  0  0  0  0  0  0  0  0
    1.3510   15.7089   43.0194 C   0  0  0  0  0  0  0  0  0  0  0  0
    1.2895   14.2279   43.0354 C   0  0  0  0  0  0  0  0  0  0  0  0
    0.4854   13.5438   42.1491 C   0  0  0  0  0  0  0  0  0  0  0  0
    0.4251   12.1841   42.1597 C   0  0  0  0  0  0  0  0  0  0  0  0
    1.1612   11.4415   43.0518 C   0  0  0  0  0  0  0  0  0  0  0  0
    1.9740   12.1132   43.9489 C   0  0  0  0  0  0  0  0  0  0  0  0
    2.0228   13.4935   43.9236 C   0  0  0  0  0  0  0  0  0  0  0  0
    2.1697   16.4095   43.9286 C   0  0  0  0  0  0  0  0  0  0  0  0
    1.9910   18.7567   39.8535 C   0  0  0  0  0  0  0  0  0  0  0  0
    2.6644   19.2375   38.7343 C   0  0  0  0  0  0  0  0  0  0  0  0
    0.1041   18.7399   41.4013 N   0  0  0  0  0  0  0  0  0  0  0  0
    0.6842   16.4541   42.2056 N   0  0  0  0  0  0  0  0  0  0  0  0
    3.9786   20.2827   36.4322 O   0  0  0  0  0  0  0  0  0  0  0  0
    2.1728   21.7269   36.1452 O   0  0  0  0  0  0  0  0  0  0  0  0
    3.8895   18.7168   38.3715 O   0  0  0  0  0  0  0  0  0  0  0  0
    1.9159   18.1273   43.5393 S   0  0  0  0  0  0  0  0  0  0  0  0
    1.1023    9.6862   43.0884 Cl  0  0  0  0  0  0  0  0  0  0  0  0
    0.4099   21.5387   37.7913 H   0  0  0  0  0  0  0  0  0  0  0  0
   -0.7699   20.6399   39.8189 H   0  0  0  0  0  0  0  0  0  0  0  0
   -0.1248   14.0725   41.4154 H   0  0  0  0  0  0  0  0  0  0  0  0
   -0.2203   11.6700   41.4460 H   0  0  0  0  0  0  0  0  0  0  0  0
    2.5796   11.5830   44.6781 H   0  0  0  0  0  0  0  0  0  0  0  0
    2.6708   13.9767   44.6424 H   0  0  0  0  0  0  0  0  0  0  0  0
    2.8094   16.0041   44.6919 H   0  0  0  0  0  0  0  0  0  0  0  0
    2.3997   17.9657   40.4732 H   0  0  0  0  0  0  0  0  0  0  0  0
   -0.8138   19.1519   41.6761 H   0  0  0  0  0  0  0  0  0  0  0  0
  1  2  1  0
  1 19  1  0
  1 20  2  0
  2  3  1  0
  2 16  2  0
  3  4  2  0
  4  5  1  0
  5 15  2  0
  5 17  1  0
  6 17  1  0
  6 18  2  0
  6 22  1  0
  7  8  1  0
  7 14  2  0
  7 18  1  0
  8  9  1  0
  8 13  2  0
  9 10  2  0
 10 11  1  0
 11 12  2  0
 11 23  1  0
 12 13  1  0
 14 22  1  0
 15 16  1  0
 16 21  1  0
  3 24  1  0
  4 25  1  0
  9 26  1  0
 10 27  1  0
 12 28  1  0
 13 29  1  0
 14 30  1  0
 15 31  1  0
 17 32  1  0
M  CHG  2  19  -1  21  -1
M  END
>  <mol_id>  (22) 
2026-08-23-6tgu-s0-n100-r9-0022

>  <rmsd_to_ref>  (22) 
1.4183673469391287

$$$$
6tgu.A
     RDKit          3D

 32 34  0  0  0  0  0  0  0  0999 V2000
    1.3485   20.7576   36.7237 C   0  0  0  0  0  0  0  0  0  0  0  0
    1.3199   20.3647   38.2034 C   0  0  0  0  0  0  0  0  0  0  0  0
    0.6007   21.1247   39.1232 C   0  0  0  0  0  0  0  0  0  0  0  0
    0.3942   20.6971   40.4389 C   0  0  0  0  0  0  0  0  0  0  0  0
    1.0600   19.5617   40.9229 C   0  0  0  0  0  0  0  0  0  0  0  0
    0.9368   17.8245   42.7750 C   0  0  0  0  0  0  0  0  0  0  0  0
    1.5181   15.6272   42.8725 C   0  0  0  0  0  0  0  0  0  0  0  0
    2.1455   14.3972   42.3879 C   0  0  0  0  0  0  0  0  0  0  0  0
    1.9980   13.1740   43.0571 C   0  0  0  0  0  0  0  0  0  0  0  0
    2.5754   12.0096   42.5604 C   0  0  0  0  0  0  0  0  0  0  0  0
    3.2655   12.0696   41.3643 C   0  0  0  0  0  0  0  0  0  0  0  0
    3.4307   13.2568   40.6669 C   0  0  0  0  0  0  0  0  0  0  0  0
    2.8550   14.4131   41.1861 C   0  0  0  0  0  0  0  0  0  0  0  0
    0.7591   15.7027   44.0104 C   0  0  0  0  0  0  0  0  0  0  0  0
    1.7789   18.7795   40.0077 C   0  0  0  0  0  0  0  0  0  0  0  0
    1.8994   19.1951   38.6804 C   0  0  0  0  0  0  0  0  0  0  0  0
    0.8107   19.0754   42.2430 N   0  0  0  0  0  0  0  0  0  0  0  0
    1.5644   16.8055   42.0905 N   0  0  0  0  0  0  0  0  0  0  0  0
    0.5641   21.6867   36.3706 O   0  0  0  0  0  0  0  0  0  0  0  0
    2.0809   20.0788   35.9711 O   0  0  0  0  0  0  0  0  0  0  0  0
    2.5161   18.3703   37.7698 O   0  0  0  0  0  0  0  0  0  0  0  0
    0.0285   17.2554   44.1623 S   0  0  0  0  0  0  0  0  0  0  0  0
    3.9551   10.6200   40.7126 Cl  0  0  0  0  0  0  0  0  0  0  0  0
    0.1824   22.0910   38.8050 H   0  0  0  0  0  0  0  0  0  0  0  0
   -0.2919   21.2525   41.0952 H   0  0  0  0  0  0  0  0  0  0  0  0
    1.4163   13.1342   43.9899 H   0  0  0  0  0  0  0  0  0  0  0  0
    2.4847   11.0603   43.1087 H   0  0  0  0  0  0  0  0  0  0  0  0
    4.0021   13.2841   39.7274 H   0  0  0  0  0  0  0  0  0  0  0  0
    2.9618   15.3603   40.6370 H   0  0  0  0  0  0  0  0  0  0  0  0
    0.6330   14.8813   44.7311 H   0  0  0  0  0  0  0  0  0  0  0  0
    2.2473   17.8396   40.3352 H   0  0  0  0  0  0  0  0  0  0  0  0
    0.4793   19.7904   42.9062 H   0  0  0  0  0  0  0  0  0  0  0  0
  1  2  1  0
  1 19  1  0
  1 20  2  0
  2  3  1  0
  2 16  2  0
  3  4  2  0
  4  5  1  0
  5 15  2  0
  5 17  1  0
  6 17  1  0
  6 18  2  0
  6 22  1  0
  7  8  1  0
  7 14  2  0
  7 18  1  0
  8  9  1  0
  8 13  2  0
  9 10  2  0
 10 11  1  0
 11 12  2  0
 11 23  1  0
 12 13  1  0
 14 22  1  0
 15 16  1  0
 16 21  1  0
  3 24  1  0
  4 25  1  0
  9 26  1  0
 10 27  1  0
 12 28  1  0
 13 29  1  0
 14 30  1  0
 15 31  1  0
 17 32  1  0
M  CHG  2  19  -1  21  -1
M  END
>  <mol_id>  (23) 
2026-08-23-6tgu-s0-n100-r9-0023

>  <rmsd_to_ref>  (23) 
1.464285714293396

$$$$
6tgu.A
     RDKit          3D

 32 34  0  0  0  0  0  0  0  0999 V2000
    4.1397   21.0529   37.4145 C   0  0  0  0  0  0  0  0  0  0  0  0
    3.0984   20.2880   38.0975 C   0  0  0  0  0  0  0  0  0  0  0  0
    1.8014   20.4041   37.6174 C   0  0  0  0  0  0  0  0  0  0  0  0
    0.7803   19.6864   38.2488 C   0  0  0  0  0  0  0  0  0  0  0  0
    1.0759   18.8680   39.3462 C   0  0  0  0  0  0  0  0  0  0  0  0
    0.3110   17.2495   41.0963 C   0  0  0  0  0  0  0  0  0  0  0  0
    0.7717   15.5554   42.5009 C   0  0  0  0  0  0  0  0  0  0  0  0
    1.0655   14.1364   42.6594 C   0  0  0  0  0  0  0  0  0  0  0  0
    1.2859   13.5881   43.9103 C   0  0  0  0  0  0  0  0  0  0  0  0
    1.5642   12.2506   44.1061 C   0  0  0  0  0  0  0  0  0  0  0  0
    1.6313   11.3991   43.0205 C   0  0  0  0  0  0  0  0  0  0  0  0
    1.4188   11.9053   41.7656 C   0  0  0  0  0  0  0  0  0  0  0  0
    1.1396   13.2580   41.5920 C   0  0  0  0  0  0  0  0  0  0  0  0
    0.6929   16.4186   43.5734 C   0  0  0  0  0  0  0  0  0  0  0  0
    2.3735   18.7506   39.8274 C   0  0  0  0  0  0  0  0  0  0  0  0
    3.3918   19.4712   39.1919 C   0  0  0  0  0  0  0  0  0  0  0  0
    0.0393   18.1408   39.9909 N   0  0  0  0  0  0  0  0  0  0  0  0
    0.5505   16.1586   41.3483 N   0  0  0  0  0  0  0  0  0  0  0  0
    5.4548   20.9703   37.8608 O   0  0  0  0  0  0  0  0  0  0  0  0
    3.8952   21.7926   36.4275 O   0  0  0  0  0  0  0  0  0  0  0  0
    4.7197   19.3783   39.6500 O   0  0  0  0  0  0  0  0  0  0  0  0
    0.3000   18.0683   42.8482 S   0  0  0  0  0  0  0  0  0  0  0  0
    1.9813    9.6951   43.2061 Cl  0  0  0  0  0  0  0  0  0  0  0  0
    1.5430   21.0286   36.7715 H   0  0  0  0  0  0  0  0  0  0  0  0
   -0.2549   19.7596   37.8887 H   0  0  0  0  0  0  0  0  0  0  0  0
    1.2431   14.2114   44.7801 H   0  0  0  0  0  0  0  0  0  0  0  0
    1.7283   11.8774   45.1160 H   0  0  0  0  0  0  0  0  0  0  0  0
    1.4586   11.2923   40.8837 H   0  0  0  0  0  0  0  0  0  0  0  0
    0.9756   13.6307   40.5882 H   0  0  0  0  0  0  0  0  0  0  0  0
    0.8188   16.2691   44.6871 H   0  0  0  0  0  0  0  0  0  0  0  0
    2.6103   18.1236   40.6715 H   0  0  0  0  0  0  0  0  0  0  0  0
   -0.9476   18.2573   39.6525 H   0  0  0  0  0  0  0  0  0  0  0  0
  1  2  1  0
  1 19  1  0
  1 20  2  0
  2  3  1  0
  2 16  2  0
  3  4  2  0
  4  5  1  0
  5 15  2  0
  5 17  1  0
  6 17  1  0
  6 18  2  0
  6 22  1  0
  7  8  1  0
  7 14  2  0
  7 18  1  0
  8  9  1  0
  8 13  2  0
  9 10  2  0
 10 11  1  0
 11 12  2  0
 11 23  1  0
 12 13  1  0
 14 22  1  0
 15 16  1  0
 16 21  1  0
  3 24  1  0
  4 25  1  0
  9 26  1  0
 10 27  1  0
 12 28  1  0
 13 29  1  0
 14 30  1  0
 15 31  1  0
 17 32  1  0
M  CHG  2  19  -1  21  -1
M  END
>  <mol_id>  (24) 
2026-08-23-6tgu-s0-n100-r9-0024

>  <rmsd_to_ref>  (24) 
1.5102040816334703

$$$$
6tgu.A
     RDKit          3D

 32 34  0  0  0  0  0  0  0  0999 V2000
    1.7017   19.2701   36.1745 C   0  0  0  0  0  0  0  0  0  0  0  0
    1.5465   19.3816   37.6937 C   0  0  0  0  0  0  0  0  0  0  0  0
    0.7886   20.4076   38.2538 C   0  0  0  0  0  0  0  0  0  0  0  0
    0.4672   20.4346   39.6149 C   0  0  0  0  0  0  0  0  0  0  0  0
    1.0516   19.5121   40.4948 C   0  0  0  0  0  0  0  0  0  0  0  0
    0.7238   18.4752   42.7928 C   0  0  0  0  0  0  0  0  0  0  0  0
    1.2137   16.4238   43.6456 C   0  0  0  0  0  0  0  0  0  0  0  0
    1.8297   15.0965   43.6402 C   0  0  0  0  0  0  0  0  0  0  0  0
    1.5864   14.1600   44.6549 C   0  0  0  0  0  0  0  0  0  0  0  0
    2.1560   12.8912   44.6127 C   0  0  0  0  0  0  0  0  0  0  0  0
    2.9363   12.5506   43.5239 C   0  0  0  0  0  0  0  0  0  0  0  0
    3.1981   13.4436   42.4958 C   0  0  0  0  0  0  0  0  0  0  0  0
    2.6283   14.7121   42.5620 C   0  0  0  0  0  0  0  0  0  0  0  0
    0.3741   16.8743   44.6297 C   0  0  0  0  0  0  0  0  0  0  0  0
    1.8081   18.4666   39.9462 C   0  0  0  0  0  0  0  0  0  0  0  0
    2.0442   18.4254   38.5708 C   0  0  0  0  0  0  0  0  0  0  0  0
    0.6851   19.4855   41.8754 N   0  0  0  0  0  0  0  0  0  0  0  0
    1.3630   17.2821   42.5306 N   0  0  0  0  0  0  0  0  0  0  0  0
    0.9816   20.0416   35.4749 O   0  0  0  0  0  0  0  0  0  0  0  0
    2.4632   18.3753   35.7466 O   0  0  0  0  0  0  0  0  0  0  0  0
    2.6969   17.3422   38.0317 O   0  0  0  0  0  0  0  0  0  0  0  0
   -0.3075   18.3993   44.2084 S   0  0  0  0  0  0  0  0  0  0  0  0
    3.6188   10.9605   43.4375 Cl  0  0  0  0  0  0  0  0  0  0  0  0
    0.4319   21.2216   37.6057 H   0  0  0  0  0  0  0  0  0  0  0  0
   -0.2454   21.1809   39.9959 H   0  0  0  0  0  0  0  0  0  0  0  0
    0.9346   14.4327   45.4981 H   0  0  0  0  0  0  0  0  0  0  0  0
    1.9886   12.1737   45.4294 H   0  0  0  0  0  0  0  0  0  0  0  0
    3.8396   13.1570   41.6495 H   0  0  0  0  0  0  0  0  0  0  0  0
    2.8116   15.4272   41.7465 H   0  0  0  0  0  0  0  0  0  0  0  0
    0.1631   16.3342   45.5645 H   0  0  0  0  0  0  0  0  0  0  0  0
    2.2150   17.6800   40.5986 H   0  0  0  0  0  0  0  0  0  0  0  0
    0.3314   20.3812   42.2409 H   0  0  0  0  0  0  0  0  0  0  0  0
  1  2  1  0
  1 19  1  0
  1 20  2  0
  2  3  1  0
  2 16  2  0
  3  4  2  0
  4  5  1  0
  5 15  2  0
  5 17  1  0
  6 17  1  0
  6 18  2  0
  6 22  1  0
  7  8  1  0
  7 14  2  0
  7 18  1  0
  8  9  1  0
  8 13  2  0
  9 10  2  0
 10 11  1  0
 11 12  2  0
 11 23  1  0
 12 13  1  0
 14 22  1  0
 15 16  1  0
 16 21  1  0
  3 24  1  0
  4 25  1  0
  9 26  1  0
 10 27  1  0
 12 28  1  0
 13 29  1  0
 14 30  1  0
 15 31  1  0
 17 32  1  0
M  CHG  2  19  -1  21  -1
M  END
>  <mol_id>  (25) 
2026-08-23-6tgu-s0-n100-r9-0025

>  <rmsd_to_ref>  (25) 
1.556122448986255

$$$$
6tgu.A
     RDKit          3D

 32 34  0  0  0  0  0  0  0  0999 V2000
    2.6389   20.9881   37.2381 C   0  0  0  0  0  0  0  0  0  0  0  0
    2.4981   20.4417   38.5806 C   0  0  0  0  0  0  0  0  0  0  0  0
    1.7590   19.2877   38.7552 C   0  0  0  0  0  0  0  0  0  0  0  0
    1.6009   18.7318   40.0285 C   0  0  0  0  0  0  0  0  0  0  0  0
    2.2020   19.3688   41.0922 C   0  0  0  0  0  0  0  0  0  0  0  0
    1.2595   17.6150   42.4862 C   0  0  0  0  0  0  0  0  0  0  0  0
    0.5005   15.4649   42.5110 C   0  0  0  0  0  0  0  0  0  0  0  0
    0.7431   14.0096   42.3778 C   0  0  0  0  0  0  0  0  0  0  0  0
   -0.2818   13.1066   42.5262 C   0  0  0  0  0  0  0  0  0  0  0  0
   -0.0178   11.7587   42.3923 C   0  0  0  0  0  0  0  0  0  0  0  0
    1.2548   11.2809   42.1110 C   0  0  0  0  0  0  0  0  0  0  0  0
    2.2488   12.2040   41.9698 C   0  0  0  0  0  0  0  0  0  0  0  0
    2.0115   13.5456   42.0983 C   0  0  0  0  0  0  0  0  0  0  0  0
   -0.8456   15.9262   42.7984 C   0  0  0  0  0  0  0  0  0  0  0  0
    2.9506   20.5381   40.9144 C   0  0  0  0  0  0  0  0  0  0  0  0
    3.1062   21.0904   39.6402 C   0  0  0  0  0  0  0  0  0  0  0  0
    2.0476   18.7999   42.4055 N   0  0  0  0  0  0  0  0  0  0  0  0
    1.3685   16.3788   42.3948 N   0  0  0  0  0  0  0  0  0  0  0  0
    2.0443   20.3648   36.1351 O   0  0  0  0  0  0  0  0  0  0  0  0
    3.3062   22.0426   37.0482 O   0  0  0  0  0  0  0  0  0  0  0  0
    3.8517   22.2496   39.4829 O   0  0  0  0  0  0  0  0  0  0  0  0
   -0.5932   17.7577   42.8534 S   0  0  0  0  0  0  0  0  0  0  0  0
    1.5619    9.5500   41.9446 Cl  0  0  0  0  0  0  0  0  0  0  0  0
    1.2792   18.7746   37.9246 H   0  0  0  0  0  0  0  0  0  0  0  0
    1.0161   17.8305   40.1199 H   0  0  0  0  0  0  0  0  0  0  0  0
   -1.2857   13.4213   42.7444 H   0  0  0  0  0  0  0  0  0  0  0  0
   -0.8309   11.0762   42.5118 H   0  0  0  0  0  0  0  0  0  0  0  0
    3.2508   11.8191   41.7479 H   0  0  0  0  0  0  0  0  0  0  0  0
    2.8127   14.2503   41.9819 H   0  0  0  0  0  0  0  0  0  0  0  0
   -1.6971   15.4295   42.9355 H   0  0  0  0  0  0  0  0  0  0  0  0
    3.4170   21.0277   41.7578 H   0  0  0  0  0  0  0  0  0  0  0  0
    2.4954   19.2445   43.2409 H   0  0  0  0  0  0  0  0  0  0  0  0
  1  2  1  0
  1 19  1  0
  1 20  2  0
  2  3  1  0
  2 16  2  0
  3  4  2  0
  4  5  1  0
  5 15  2  0
  5 17  1  0
  6 17  1  0
  6 18  2  0
  6 22  1  0
  7  8  1  0
  7 14  2  0
  7 18  1  0
  8  9  1  0
  8 13  2  0
  9 10  2  0
 10 11  1  0
 11 12  2  0
 11 23  1  0
 12 13  1  0
 14 22  1  0
 15 16  1  0
 16 21  1  0
  3 24  1  0
  4 25  1  0
  9 26  1  0
 10 27  1  0
 12 28  1  0
 13 29  1  0
 14 30  1  0
 15 31  1  0
 17 32  1  0
M  CHG  2  19  -1  21  -1
M  END
>  <mol_id>  (26) 
2026-08-23-6tgu-s0-n100-r9-0026

>  <rmsd_to_ref>  (26) 
1.6020408163271413

$$$$
6tgu.A
     RDKit          3D

 32 34  0  0  0  0  0  0  0  0999 V2000
    2.7643   19.1149   36.5646 C   0  0  0  0  0  0  0  0  0  0  0  0
    1.9168   19.1004   37.8399 C   0  0  0  0  0  0  0  0  0  0  0  0
    0.7324   19.8305   37.9103 C   0  0  0  0  0  0  0  0  0  0  0  0
   -0.1606   19.6946   38.9782 C   0  0  0  0  0  0  0  0  0  0  0  0
    0.1988   18.9410   40.1050 C   0  0  0  0  0  0  0  0  0  0  0  0
   -0.8208   17.7408   42.1009 C   0  0  0  0  0  0  0  0  0  0  0  0
   -0.2097   15.8829   43.2629 C   0  0  0  0  0  0  0  0  0  0  0  0
    0.6899   14.7960   43.6510 C   0  0  0  0  0  0  0  0  0  0  0  0
    0.2916   13.7800   44.5315 C   0  0  0  0  0  0  0  0  0  0  0  0
    1.1520   12.7373   44.8608 C   0  0  0  0  0  0  0  0  0  0  0  0
    2.3997   12.6945   44.2677 C   0  0  0  0  0  0  0  0  0  0  0  0
    2.8319   13.6750   43.3874 C   0  0  0  0  0  0  0  0  0  0  0  0
    1.9607   14.7162   43.0793 C   0  0  0  0  0  0  0  0  0  0  0  0
   -1.4915   16.0184   43.7266 C   0  0  0  0  0  0  0  0  0  0  0  0
    1.3823   18.1914   40.0460 C   0  0  0  0  0  0  0  0  0  0  0  0
    2.2136   18.2894   38.9287 C   0  0  0  0  0  0  0  0  0  0  0  0
   -0.7261   18.7398   41.1752 N   0  0  0  0  0  0  0  0  0  0  0  0
    0.1761   16.8016   42.2583 N   0  0  0  0  0  0  0  0  0  0  0  0
    2.2515   19.6755   35.5518 O   0  0  0  0  0  0  0  0  0  0  0  0
    3.8551   18.5045   36.6020 O   0  0  0  0  0  0  0  0  0  0  0  0
    3.3156   17.4729   38.8355 O   0  0  0  0  0  0  0  0  0  0  0  0
   -2.3104   17.2961   42.9113 S   0  0  0  0  0  0  0  0  0  0  0  0
    3.4665   11.3802   44.6367 Cl  0  0  0  0  0  0  0  0  0  0  0  0
    0.4920   20.5356   37.1009 H   0  0  0  0  0  0  0  0  0  0  0  0
   -1.1469   20.1797   38.9341 H   0  0  0  0  0  0  0  0  0  0  0  0
   -0.7172   13.8078   44.9690 H   0  0  0  0  0  0  0  0  0  0  0  0
    0.8453   11.9625   45.5789 H   0  0  0  0  0  0  0  0  0  0  0  0
    3.8375   13.6311   42.9438 H   0  0  0  0  0  0  0  0  0  0  0  0
    2.2809   15.4932   42.3696 H   0  0  0  0  0  0  0  0  0  0  0  0
   -1.9385   15.3945   44.5146 H   0  0  0  0  0  0  0  0  0  0  0  0
    1.6554   17.5269   40.8790 H   0  0  0  0  0  0  0  0  0  0  0  0
   -1.4437   19.4734   41.2634 H   0  0  0  0  0  0  0  0  0  0  0  0
  1  2  1  0
  1 19  1  0
  1 20  2  0
  2  3  1  0
  2 16  2  0
  3  4  2  0
  4  5  1  0
  5 15  2  0
  5 17  1  0
  6 17  1  0
  6 18  2  0
  6 22  1  0
  7  8  1  0
  7 14  2  0
  7 18  1  0
  8  9  1  0
  8 13  2  0
  9 10  2  0
 10 11  1  0
 11 12  2  0
 11 23  1  0
 12 13  1  0
 14 22  1  0
 15 16  1  0
 16 21  1  0
  3 24  1  0
  4 25  1  0
  9 26  1  0
 10 27  1  0
 12 28  1  0
 13 29  1  0
 14 30  1  0
 15 31  1  0
 17 32  1  0
M  CHG  2  19  -1  21  -1
M  END
>  <mol_id>  (27) 
2026-08-23-6tgu-s0-n100-r9-0027

>  <rmsd_to_ref>  (27) 
1.647959183679023

$$$$
6tgu.A
     RDKit          3D

 32 34  0  0  0  0  0  0  0  0999 V2000
    2.9789   21.7312   37.9656 C   0  0  0  0  0  0  0  0  0  0  0  0
    2.5295   20.9054   39.0734 C   0  0  0  0  0  0  0  0  0  0  0  0
    1.1805   20.6376   39.2747 C   0  0  0  0  0  0  0  0  0  0  0  0
    0.8032   19.8319   40.3415 C   0  0  0  0  0  0  0  0  0  0  0  0
    1.7150   19.2808   41.2175 C   0  0  0  0  0  0  0  0  0  0  0  0
    0.9907   17.1087   42.2502 C   0  0  0  0  0  0  0  0  0  0  0  0
    0.7109   14.8809   42.0266 C   0  0  0  0  0  0  0  0  0  0  0  0
    1.1623   13.6066   41.4819 C   0  0  0  0  0  0  0  0  0  0  0  0
    0.5046   12.4222   41.7110 C   0  0  0  0  0  0  0  0  0  0  0  0
    0.8801   11.2067   41.2015 C   0  0  0  0  0  0  0  0  0  0  0  0
    2.0046   11.1284   40.3915 C   0  0  0  0  0  0  0  0  0  0  0  0
    2.6770   12.2974   40.1520 C   0  0  0  0  0  0  0  0  0  0  0  0
    2.2858   13.5224   40.6723 C   0  0  0  0  0  0  0  0  0  0  0  0
   -0.4488   14.9656   42.7983 C   0  0  0  0  0  0  0  0  0  0  0  0
    3.0757   19.5668   40.9966 C   0  0  0  0  0  0  0  0  0  0  0  0
    3.4609   20.3693   39.9378 C   0  0  0  0  0  0  0  0  0  0  0  0
    1.2912   18.5049   42.2860 N   0  0  0  0  0  0  0  0  0  0  0  0
    1.2383   16.0700   41.9015 N   0  0  0  0  0  0  0  0  0  0  0  0
    4.2986   22.0282   37.6948 O   0  0  0  0  0  0  0  0  0  0  0  0
    2.0792   22.2037   37.2089 O   0  0  0  0  0  0  0  0  0  0  0  0
    4.8008   20.6208   39.7625 O   0  0  0  0  0  0  0  0  0  0  0  0
   -0.6407   16.7065   43.2376 S   0  0  0  0  0  0  0  0  0  0  0  0
    2.5440    9.6171   39.7077 Cl  0  0  0  0  0  0  0  0  0  0  0  0
    0.4770   21.0518   38.5913 H   0  0  0  0  0  0  0  0  0  0  0  0
   -0.2677   19.6703   40.4304 H   0  0  0  0  0  0  0  0  0  0  0  0
   -0.3893   12.4229   42.3480 H   0  0  0  0  0  0  0  0  0  0  0  0
    0.3201   10.3132   41.4273 H   0  0  0  0  0  0  0  0  0  0  0  0
    3.5713   12.2705   39.5052 H   0  0  0  0  0  0  0  0  0  0  0  0
    2.8394   14.4065   40.4488 H   0  0  0  0  0  0  0  0  0  0  0  0
   -1.1700   14.1551   43.1088 H   0  0  0  0  0  0  0  0  0  0  0  0
    3.8036   19.1398   41.6925 H   0  0  0  0  0  0  0  0  0  0  0  0
    1.1984   19.0356   43.2144 H   0  0  0  0  0  0  0  0  0  0  0  0
  1  2  1  0
  1 19  1  0
  1 20  2  0
  2  3  1  0
  2 16  2  0
  3  4  2  0
  4  5  1  0
  5 15  2  0
  5 17  1  0
  6 17  1  0
  6 18  2  0
  6 22  1  0
  7  8  1  0
  7 14  2  0
  7 18  1  0
  8  9  1  0
  8 13  2  0
  9 10  2  0
 10 11  1  0
 11 12  2  0
 11 23  1  0
 12 13  1  0
 14 22  1  0
 15 16  1  0
 16 21  1  0
  3 24  1  0
  4 25  1  0
  9 26  1  0
 10 27  1  0
 12 28  1  0
 13 29  1  0
 14 30  1  0
 15 31  1  0
 17 32  1  0
M  CHG  2  19  -1  21  -1
M  END
>  <mol_id>  (28) 
2026-08-23-6tgu-s0-n100-r9-0028

>  <rmsd_to_ref>  (28) 
1.6938775510276116

$$$$
6tgu.A
     RDKit          3D

 32 34  0  0  0  0  0  0  0  0999 V2000
    3.8690   19.5608   37.6077 C   0  0  0  0  0  0  0  0  0  0  0  0
    3.6098   19.1372   39.0562 C   0  0  0  0  0  0  0  0  0  0  0  0
    3.6680   20.0719   40.0875 C   0  0  0  0  0  0  0  0  0  0  0  0
    3.2546   19.7678   41.3887 C   0  0  0  0  0  0  0  0  0  0  0  0
    2.9301   18.4478   41.7340 C   0  0  0  0  0  0  0  0  0  0  0  0
    1.6600   17.1054   43.4798 C   0  0  0  0  0  0  0  0  0  0  0  0
    0.5117   15.1437   43.3849 C   0  0  0  0  0  0  0  0  0  0  0  0
    0.0670   13.8944   42.7662 C   0  0  0  0  0  0  0  0  0  0  0  0
   -0.8872   13.0640   43.3710 C   0  0  0  0  0  0  0  0  0  0  0  0
   -1.3208   11.8972   42.7492 C   0  0  0  0  0  0  0  0  0  0  0  0
   -0.8249   11.5897   41.4963 C   0  0  0  0  0  0  0  0  0  0  0  0
    0.1155   12.3856   40.8595 C   0  0  0  0  0  0  0  0  0  0  0  0
    0.5453   13.5429   41.5029 C   0  0  0  0  0  0  0  0  0  0  0  0
    0.0619   15.6014   44.5951 C   0  0  0  0  0  0  0  0  0  0  0  0
    2.8560   17.4973   40.7059 C   0  0  0  0  0  0  0  0  0  0  0  0
    3.2001   17.8548   39.4009 C   0  0  0  0  0  0  0  0  0  0  0  0
    2.4450   18.1322   43.0402 N   0  0  0  0  0  0  0  0  0  0  0  0
    1.3597   16.0267   42.6754 N   0  0  0  0  0  0  0  0  0  0  0  0
    3.9671   20.8045   37.3917 O   0  0  0  0  0  0  0  0  0  0  0  0
    3.8822   18.6547   36.7459 O   0  0  0  0  0  0  0  0  0  0  0  0
    3.0241   16.9457   38.3849 O   0  0  0  0  0  0  0  0  0  0  0  0
    0.6542   17.1875   44.9133 S   0  0  0  0  0  0  0  0  0  0  0  0
   -1.3862   10.1615   40.6921 Cl  0  0  0  0  0  0  0  0  0  0  0  0
    4.0510   21.0803   39.8720 H   0  0  0  0  0  0  0  0  0  0  0  0
    3.1837   20.5656   42.1427 H   0  0  0  0  0  0  0  0  0  0  0  0
   -1.2997   13.3393   44.3528 H   0  0  0  0  0  0  0  0  0  0  0  0
   -2.0439   11.2328   43.2449 H   0  0  0  0  0  0  0  0  0  0  0  0
    0.5117   12.1094   39.8712 H   0  0  0  0  0  0  0  0  0  0  0  0
    1.2780   14.1947   41.0047 H   0  0  0  0  0  0  0  0  0  0  0  0
   -0.5906   15.0320   45.2734 H   0  0  0  0  0  0  0  0  0  0  0  0
    2.5272   16.4711   40.9272 H   0  0  0  0  0  0  0  0  0  0  0  0
    2.7373   18.7916   43.7755 H   0  0  0  0  0  0  0  0  0  0  0  0
  1  2  1  0
  1 19  1  0
  1 20  2  0
  2  3  1  0
  2 16  2  0
  3  4  2  0
  4  5  1  0
  5 15  2  0
  5 17  1  0
  6 17  1  0
  6 18  2  0
  6 22  1  0
  7  8  1  0
  7 14  2  0
  7 18  1  0
  8  9  1  0
  8 13  2  0
  9 10  2  0
 10 11  1  0
 11 12  2  0
 11 23  1  0
 12 13  1  0
 14 22  1  0
 15 16  1  0
 16 21  1  0
  3 24  1  0
  4 25  1  0
  9 26  1  0
 10 27  1  0
 12 28  1  0
 13 29  1  0
 14 30  1  0
 15 31  1  0
 17 32  1  0
M  CHG  2  19  -1  21  -1
M  END
>  <mol_id>  (29) 
2026-08-23-6tgu-s0-n100-r9-0029

>  <rmsd_to_ref>  (29) 
1.7397959183707528

$$$$
6tgu.A
     RDKit          3D

 32 34  0  0  0  0  0  0  0  0999 V2000
    2.7709   18.7913   35.9896 C   0  0  0  0  0  0  0  0  0  0  0  0
    2.1877   18.8447   37.3228 C   0  0  0  0  0  0  0  0  0  0  0  0
    2.2219   17.7323   38.1309 C   0  0  0  0  0  0  0  0  0  0  0  0
    1.6608   17.8119   39.3910 C   0  0  0  0  0  0  0  0  0  0  0  0
    1.0649   18.9618   39.8782 C   0  0  0  0  0  0  0  0  0  0  0  0
    0.4745   17.9851   42.0517 C   0  0  0  0  0  0  0  0  0  0  0  0
    0.6784   16.0020   43.1554 C   0  0  0  0  0  0  0  0  0  0  0  0
    1.1462   14.5931   43.1777 C   0  0  0  0  0  0  0  0  0  0  0  0
    0.9534   13.7893   44.2749 C   0  0  0  0  0  0  0  0  0  0  0  0
    1.4016   12.4840   44.2604 C   0  0  0  0  0  0  0  0  0  0  0  0
    2.0472   11.9403   43.1719 C   0  0  0  0  0  0  0  0  0  0  0  0
    2.2444   12.7468   42.0623 C   0  0  0  0  0  0  0  0  0  0  0  0
    1.7940   14.0341   42.0959 C   0  0  0  0  0  0  0  0  0  0  0  0
    0.0220   16.5283   44.2833 C   0  0  0  0  0  0  0  0  0  0  0  0
    1.0665   20.0493   39.0056 C   0  0  0  0  0  0  0  0  0  0  0  0
    1.6093   20.0114   37.7553 C   0  0  0  0  0  0  0  0  0  0  0  0
    0.4870   19.0498   41.1713 N   0  0  0  0  0  0  0  0  0  0  0  0
    0.8287   16.7984   42.1643 N   0  0  0  0  0  0  0  0  0  0  0  0
    3.3667   17.6103   35.5277 O   0  0  0  0  0  0  0  0  0  0  0  0
    2.7554   19.7865   35.2312 O   0  0  0  0  0  0  0  0  0  0  0  0
    1.5783   21.1454   36.9226 O   0  0  0  0  0  0  0  0  0  0  0  0
   -0.3280   18.2573   43.7275 S   0  0  0  0  0  0  0  0  0  0  0  0
    2.5924   10.2730   43.2181 Cl  0  0  0  0  0  0  0  0  0  0  0  0
    2.6876   16.8016   37.7757 H   0  0  0  0  0  0  0  0  0  0  0  0
    1.7083   16.9195   39.9920 H   0  0  0  0  0  0  0  0  0  0  0  0
    0.4446   14.1807   45.1624 H   0  0  0  0  0  0  0  0  0  0  0  0
    1.2159   11.9071   45.1597 H   0  0  0  0  0  0  0  0  0  0  0  0
    2.7446   12.3138   41.2282 H   0  0  0  0  0  0  0  0  0  0  0  0
    1.9692   14.6395   41.1988 H   0  0  0  0  0  0  0  0  0  0  0  0
   -0.2358   16.1372   45.2043 H   0  0  0  0  0  0  0  0  0  0  0  0
    0.6079   20.9902   39.3360 H   0  0  0  0  0  0  0  0  0  0  0  0
    0.0646   19.9965   41.4116 H   0  0  0  0  0  0  0  0  0  0  0  0
  1  2  1  0
  1 19  1  0
  1 20  2  0
  2  3  1  0
  2 16  2  0
  3  4  2  0
  4  5  1  0
  5 15  2  0
  5 17  1  0
  6 17  1  0
  6 18  2  0
  6 22  1  0
  7  8  1  0
  7 14  2  0
  7 18  1  0
  8  9  1  0
  8 13  2  0
  9 10  2  0
 10 11  1  0
 11 12  2  0
 11 23  1  0
 12 13  1  0
 14 22  1  0
 15 16  1  0
 16 21  1  0
  3 24  1  0
  4 25  1  0
  9 26  1  0
 10 27  1  0
 12 28  1  0
 13 29  1  0
 14 30  1  0
 15 31  1  0
 17 32  1  0
M  CHG  2  19  -1  21  -1
M  END
>  <mol_id>  (30) 
2026-08-23-6tgu-s0-n100-r9-0030

>  <rmsd_to_ref>  (30) 
1.785714285715759

$$$$
6tgu.A
     RDKit          3D

 32 34  0  0  0  0  0  0  0  0999 V2000
    4.3457   21.0208   39.3788 C   0  0  0  0  0  0  0  0  0  0  0  0
    3.4876   20.3084   40.4280 C   0  0  0  0  0  0  0  0  0  0  0  0
    2.6214   21.0330   41.2438 C   0  0  0  0  0  0  0  0  0  0  0  0
    1.6885   20.4066   42.0766 C   0  0  0  0  0  0  0  0  0  0  0  0
    1.7180   19.0147   42.2453 C   0  0  0  0  0  0  0  0  0  0  0  0
    0.2612   17.0733   43.0014 C   0  0  0  0  0  0  0  0  0  0  0  0
    0.1485   14.8901   42.3714 C   0  0  0  0  0  0  0  0  0  0  0  0
    0.6048   13.6816   41.6840 C   0  0  0  0  0  0  0  0  0  0  0  0
   -0.1554   12.5036   41.6682 C   0  0  0  0  0  0  0  0  0  0  0  0
    0.2817   11.3761   40.9799 C   0  0  0  0  0  0  0  0  0  0  0  0
    1.4654   11.4500   40.2700 C   0  0  0  0  0  0  0  0  0  0  0  0
    2.2454   12.5965   40.2539 C   0  0  0  0  0  0  0  0  0  0  0  0
    1.7965   13.7104   40.9580 C   0  0  0  0  0  0  0  0  0  0  0  0
   -1.0297   14.9781   43.0647 C   0  0  0  0  0  0  0  0  0  0  0  0
    2.5761   18.2697   41.4239 C   0  0  0  0  0  0  0  0  0  0  0  0
    3.4404   18.9244   40.5445 C   0  0  0  0  0  0  0  0  0  0  0  0
    0.7326   18.3538   43.0413 N   0  0  0  0  0  0  0  0  0  0  0  0
    0.8696   16.1002   42.2374 N   0  0  0  0  0  0  0  0  0  0  0  0
    4.1012   22.2483   39.1878 O   0  0  0  0  0  0  0  0  0  0  0  0
    5.1600   20.3184   38.7405 O   0  0  0  0  0  0  0  0  0  0  0  0
    4.2008   18.1835   39.6711 O   0  0  0  0  0  0  0  0  0  0  0  0
   -1.3257   16.5969   43.5744 S   0  0  0  0  0  0  0  0  0  0  0  0
    2.0019   10.0672   39.3748 Cl  0  0  0  0  0  0  0  0  0  0  0  0
    2.6729   22.1318   41.2326 H   0  0  0  0  0  0  0  0  0  0  0  0
    0.9300   21.0070   42.6003 H   0  0  0  0  0  0  0  0  0  0  0  0
   -1.1129   12.4702   42.2087 H   0  0  0  0  0  0  0  0  0  0  0  0
   -0.3030   10.4446   41.0004 H   0  0  0  0  0  0  0  0  0  0  0  0
    3.1946   12.6250   39.6988 H   0  0  0  0  0  0  0  0  0  0  0  0
    2.3943   14.6336   40.9419 H   0  0  0  0  0  0  0  0  0  0  0  0
   -1.6977   14.1284   43.2687 H   0  0  0  0  0  0  0  0  0  0  0  0
    2.5682   17.1708   41.4723 H   0  0  0  0  0  0  0  0  0  0  0  0
    0.3052   18.9441   43.7691 H   0  0  0  0  0  0  0  0  0  0  0  0
  1  2  1  0
  1 19  1  0
  1 20  2  0
  2  3  1  0
  2 16  2  0
  3  4  2  0
  4  5  1  0
  5 15  2  0
  5 17  1  0
  6 17  1  0
  6 18  2  0
  6 22  1  0
  7  8  1  0
  7 14  2  0
  7 18  1  0
  8  9  1  0
  8 13  2  0
  9 10  2  0
 10 11  1  0
 11 12  2  0
 11 23  1  0
 12 13  1  0
 14 22  1  0
 15 16  1  0
 16 21  1  0
  3 24  1  0
  4 25  1  0
  9 26  1  0
 10 27  1  0
 12 28  1  0
 13 29  1  0
 14 30  1  0
 15 31  1  0
 17 32  1  0
M  CHG  2  19  -1  21  -1
M  END
>  <mol_id>  (31) 
2026-08-23-6tgu-s0-n100-r9-0031

>  <rmsd_to_ref>  (31) 
1.8316326530621332

$$$$
6tgu.A
     RDKit          3D

 32 34  0  0  0  0  0  0  0  0999 V2000
    4.2239   18.5140   36.4605 C   0  0  0  0  0  0  0  0  0  0  0  0
    3.6989   18.8636   37.7797 C   0  0  0  0  0  0  0  0  0  0  0  0
    3.7393   20.1543   38.2381 C   0  0  0  0  0  0  0  0  0  0  0  0
    3.2349   20.4274   39.4789 C   0  0  0  0  0  0  0  0  0  0  0  0
    2.6773   19.4433   40.3040 C   0  0  0  0  0  0  0  0  0  0  0  0
    1.6142   18.7770   42.3914 C   0  0  0  0  0  0  0  0  0  0  0  0
    0.7894   16.9747   43.4646 C   0  0  0  0  0  0  0  0  0  0  0  0
    0.5460   15.5139   43.3873 C   0  0  0  0  0  0  0  0  0  0  0  0
    0.8923   14.7570   42.2942 C   0  0  0  0  0  0  0  0  0  0  0  0
    0.6547   13.3983   42.2472 C   0  0  0  0  0  0  0  0  0  0  0  0
    0.0557   12.7596   43.3112 C   0  0  0  0  0  0  0  0  0  0  0  0
   -0.2991   13.4944   44.4139 C   0  0  0  0  0  0  0  0  0  0  0  0
   -0.0519   14.8550   44.4404 C   0  0  0  0  0  0  0  0  0  0  0  0
    0.4614   17.7232   44.5135 C   0  0  0  0  0  0  0  0  0  0  0  0
    2.6672   18.1710   39.7859 C   0  0  0  0  0  0  0  0  0  0  0  0
    3.1666   17.8500   38.5359 C   0  0  0  0  0  0  0  0  0  0  0  0
    2.1749   19.7968   41.5744 N   0  0  0  0  0  0  0  0  0  0  0  0
    1.3545   17.6604   42.4963 N   0  0  0  0  0  0  0  0  0  0  0  0
    4.7732   19.5235   35.6646 O   0  0  0  0  0  0  0  0  0  0  0  0
    4.1665   17.3205   36.0813 O   0  0  0  0  0  0  0  0  0  0  0  0
    3.1246   16.5384   38.0722 O   0  0  0  0  0  0  0  0  0  0  0  0
    0.9637   19.3873   44.1003 S   0  0  0  0  0  0  0  0  0  0  0  0
   -0.2498   11.0304   43.2584 Cl  0  0  0  0  0  0  0  0  0  0  0  0
    4.1609   20.9698   37.6445 H   0  0  0  0  0  0  0  0  0  0  0  0
    3.2658   21.4533   39.8458 H   0  0  0  0  0  0  0  0  0  0  0  0
    1.3698   15.2621   41.4443 H   0  0  0  0  0  0  0  0  0  0  0  0
    0.9338   12.8176   41.3786 H   0  0  0  0  0  0  0  0  0  0  0  0
   -0.7782   13.0446   45.2908 H   0  0  0  0  0  0  0  0  0  0  0  0
   -0.3433   15.4218   45.3304 H   0  0  0  0  0  0  0  0  0  0  0  0
   -0.0464   17.4528   45.5305 H   0  0  0  0  0  0  0  0  0  0  0  0
    2.2559   17.3533   40.3556 H   0  0  0  0  0  0  0  0  0  0  0  0
    2.2409   20.8031   41.8546 H   0  0  0  0  0  0  0  0  0  0  0  0
  1  2  1  0
  1 19  1  0
  1 20  2  0
  2  3  1  0
  2 16  2  0
  3  4  2  0
  4  5  1  0
  5 15  2  0
  5 17  1  0
  6 17  1  0
  6 18  2  0
  6 22  1  0
  7  8  1  0
  7 14  2  0
  7 18  1  0
  8  9  1  0
  8 13  2  0
  9 10  2  0
 10 11  1  0
 11 12  2  0
 11 23  1  0
 12 13  1  0
 14 22  1  0
 15 16  1  0
 16 21  1  0
  3 24  1  0
  4 25  1  0
  9 26  1  0
 10 27  1  0
 12 28  1  0
 13 29  1  0
 14 30  1  0
 15 31  1  0
 17 32  1  0
M  CHG  2  19  -1  21  -1
M  END
>  <mol_id>  (32) 
2026-08-23-6tgu-s0-n100-r9-0032

>  <rmsd_to_ref>  (32) 
1.8775510204127426

$$$$
6tgu.A
     RDKit          3D

 32 34  0  0  0  0  0  0  0  0999 V2000
    1.3838   20.6535   37.6831 C   0  0  0  0  0  0  0  0  0  0  0  0
    1.2196   20.0367   39.0750 C   0  0  0  0  0  0  0  0  0  0  0  0
    0.2517   20.5195   39.9529 C   0  0  0  0  0  0  0  0  0  0  0  0
   -0.0561   19.8657   41.1505 C   0  0  0  0  0  0  0  0  0  0  0  0
    0.7311   18.7908   41.5883 C   0  0  0  0  0  0  0  0  0  0  0  0
    0.6680   16.7906   43.1564 C   0  0  0  0  0  0  0  0  0  0  0  0
    1.6212   14.7269   43.0661 C   0  0  0  0  0  0  0  0  0  0  0  0
    2.5245   13.7038   42.5383 C   0  0  0  0  0  0  0  0  0  0  0  0
    2.5103   12.3840   43.0115 C   0  0  0  0  0  0  0  0  0  0  0  0
    3.3547   11.4187   42.4720 C   0  0  0  0  0  0  0  0  0  0  0  0
    4.1833   11.7733   41.4242 C   0  0  0  0  0  0  0  0  0  0  0  0
    4.2254   13.0651   40.9217 C   0  0  0  0  0  0  0  0  0  0  0  0
    3.3810   14.0195   41.4824 C   0  0  0  0  0  0  0  0  0  0  0  0
    0.7089   14.5024   44.0630 C   0  0  0  0  0  0  0  0  0  0  0  0
    1.7021   18.2855   40.7120 C   0  0  0  0  0  0  0  0  0  0  0  0
    1.9301   18.9157   39.4873 C   0  0  0  0  0  0  0  0  0  0  0  0
    0.3917   18.0722   42.7756 N   0  0  0  0  0  0  0  0  0  0  0  0
    1.5610   16.0041   42.4601 N   0  0  0  0  0  0  0  0  0  0  0  0
    0.5005   21.4880   37.3273 O   0  0  0  0  0  0  0  0  0  0  0  0
    2.3263   20.2261   36.9812 O   0  0  0  0  0  0  0  0  0  0  0  0
    2.8089   18.3518   38.5930 O   0  0  0  0  0  0  0  0  0  0  0  0
   -0.3069   15.8751   44.2898 S   0  0  0  0  0  0  0  0  0  0  0  0
    5.2108   10.5720   40.7151 Cl  0  0  0  0  0  0  0  0  0  0  0  0
   -0.2871   21.4436   39.6964 H   0  0  0  0  0  0  0  0  0  0  0  0
   -0.9175   20.1953   41.7500 H   0  0  0  0  0  0  0  0  0  0  0  0
    1.8204   12.1073   43.8224 H   0  0  0  0  0  0  0  0  0  0  0  0
    3.3626   10.3938   42.8714 H   0  0  0  0  0  0  0  0  0  0  0  0
    4.9085   13.3291   40.1009 H   0  0  0  0  0  0  0  0  0  0  0  0
    3.3891   15.0449   41.0846 H   0  0  0  0  0  0  0  0  0  0  0  0
    0.6348   13.5698   44.6416 H   0  0  0  0  0  0  0  0  0  0  0  0
    2.2835   17.3938   40.9892 H   0  0  0  0  0  0  0  0  0  0  0  0
   -0.1546   18.6132   43.4611 H   0  0  0  0  0  0  0  0  0  0  0  0
  1  2  1  0
  1 19  1  0
  1 20  2  0
  2  3  1  0
  2 16  2  0
  3  4  2  0
  4  5  1  0
  5 15  2  0
  5 17  1  0
  6 17  1  0
  6 18  2  0
  6 22  1  0
  7  8  1  0
  7 14  2  0
  7 18  1  0
  8  9  1  0
  8 13  2  0
  9 10  2  0
 10 11  1  0
 11 12  2  0
 11 23  1  0
 12 13  1  0
 14 22  1  0
 15 16  1  0
 16 21  1  0
  3 24  1  0
  4 25  1  0
  9 26  1  0
 10 27  1  0
 12 28  1  0
 13 29  1  0
 14 30  1  0
 15 31  1  0
 17 32  1  0
M  CHG  2  19  -1  21  -1
M  END
>  <mol_id>  (33) 
2026-08-23-6tgu-s0-n100-r9-0033

>  <rmsd_to_ref>  (33) 
1.9234693877643465

$$$$
6tgu.A
     RDKit          3D

 32 34  0  0  0  0  0  0  0  0999 V2000
    2.0059   21.6144   37.6962 C   0  0  0  0  0  0  0  0  0  0  0  0
    1.3831   20.7828   38.7241 C   0  0  0  0  0  0  0  0  0  0  0  0
    1.1139   21.3673   39.9385 C   0  0  0  0  0  0  0  0  0  0  0  0
    0.5316   20.6392   40.9471 C   0  0  0  0  0  0  0  0  0  0  0  0
    0.2256   19.3078   40.7109 C   0  0  0  0  0  0  0  0  0  0  0  0
   -0.3354   17.1725   41.7014 C   0  0  0  0  0  0  0  0  0  0  0  0
    0.2942   15.0240   41.6460 C   0  0  0  0  0  0  0  0  0  0  0  0
    1.4143   14.0627   41.7346 C   0  0  0  0  0  0  0  0  0  0  0  0
    2.7218   14.4887   41.9390 C   0  0  0  0  0  0  0  0  0  0  0  0
    3.7895   13.6263   42.0270 C   0  0  0  0  0  0  0  0  0  0  0  0
    3.5948   12.2778   41.9118 C   0  0  0  0  0  0  0  0  0  0  0  0
    2.3017   11.8308   41.7079 C   0  0  0  0  0  0  0  0  0  0  0  0
    1.2262   12.7094   41.6212 C   0  0  0  0  0  0  0  0  0  0  0  0
   -1.0073   14.6272   41.4424 C   0  0  0  0  0  0  0  0  0  0  0  0
    0.4844   18.6998   39.5052 C   0  0  0  0  0  0  0  0  0  0  0  0
    1.0666   19.4528   38.5160 C   0  0  0  0  0  0  0  0  0  0  0  0
   -0.3700   18.5953   41.8123 N   0  0  0  0  0  0  0  0  0  0  0  0
    0.4548   16.3210   41.7528 N   0  0  0  0  0  0  0  0  0  0  0  0
    2.2823   21.0646   36.4265 O   0  0  0  0  0  0  0  0  0  0  0  0
    2.3100   22.8378   37.9169 O   0  0  0  0  0  0  0  0  0  0  0  0
    1.3316   18.8657   37.3119 O   0  0  0  0  0  0  0  0  0  0  0  0
   -1.9223   16.1993   41.4196 S   0  0  0  0  0  0  0  0  0  0  0  0
    4.9702   11.2012   42.0330 Cl  0  0  0  0  0  0  0  0  0  0  0  0
    1.3463   22.3927   40.1354 H   0  0  0  0  0  0  0  0  0  0  0  0
    0.3251   21.1214   41.8963 H   0  0  0  0  0  0  0  0  0  0  0  0
    2.8579   15.5629   42.0294 H   0  0  0  0  0  0  0  0  0  0  0  0
    4.7746   14.0706   42.1892 H   0  0  0  0  0  0  0  0  0  0  0  0
    2.1313   10.7755   41.6143 H   0  0  0  0  0  0  0  0  0  0  0  0
    0.2410   12.2989   41.4626 H   0  0  0  0  0  0  0  0  0  0  0  0
   -1.4564   13.6654   41.3159 H   0  0  0  0  0  0  0  0  0  0  0  0
    0.2337   17.6527   39.3419 H   0  0  0  0  0  0  0  0  0  0  0  0
   -0.7928   19.0988   42.6189 H   0  0  0  0  0  0  0  0  0  0  0  0
  1  2  1  0
  1 19  1  0
  1 20  2  0
  2  3  1  0
  2 16  2  0
  3  4  2  0
  4  5  1  0
  5 15  2  0
  5 17  1  0
  6 17  1  0
  6 18  2  0
  6 22  1  0
  7  8  1  0
  7 14  2  0
  7 18  1  0
  8  9  1  0
  8 13  2  0
  9 10  2  0
 10 11  1  0
 11 12  2  0
 11 23  1  0
 12 13  1  0
 14 22  1  0
 15 16  1  0
 16 21  1  0
  3 24  1  0
  4 25  1  0
  9 26  1  0
 10 27  1  0
 12 28  1  0
 13 29  1  0
 14 30  1  0
 15 31  1  0
 17 32  1  0
M  CHG  2  19  -1  21  -1
M  END
>  <mol_id>  (34) 
2026-08-23-6tgu-s0-n100-r9-0034

>  <rmsd_to_ref>  (34) 
1.9693877551025951

$$$$
6tgu.A
     RDKit          3D

 32 34  0  0  0  0  0  0  0  0999 V2000
    1.1978   18.9828   35.4419 C   0  0  0  0  0  0  0  0  0  0  0  0
    1.2189   19.1907   36.9588 C   0  0  0  0  0  0  0  0  0  0  0  0
    0.4975   20.2310   37.5402 C   0  0  0  0  0  0  0  0  0  0  0  0
    0.3379   20.3397   38.9255 C   0  0  0  0  0  0  0  0  0  0  0  0
    1.0532   19.4934   39.7852 C   0  0  0  0  0  0  0  0  0  0  0  0
    1.0339   18.6030   42.1664 C   0  0  0  0  0  0  0  0  0  0  0  0
    1.6907   16.6263   43.0813 C   0  0  0  0  0  0  0  0  0  0  0  0
    2.3469   15.3184   43.0854 C   0  0  0  0  0  0  0  0  0  0  0  0
    2.2570   14.4451   44.1787 C   0  0  0  0  0  0  0  0  0  0  0  0
    2.8607   13.1919   44.1481 C   0  0  0  0  0  0  0  0  0  0  0  0
    3.5187   12.8006   42.9973 C   0  0  0  0  0  0  0  0  0  0  0  0
    3.6268   13.6301   41.8913 C   0  0  0  0  0  0  0  0  0  0  0  0
    3.0257   14.8846   41.9456 C   0  0  0  0  0  0  0  0  0  0  0  0
    0.9579   17.1186   44.1287 C   0  0  0  0  0  0  0  0  0  0  0  0
    1.7751   18.4344   39.2166 C   0  0  0  0  0  0  0  0  0  0  0  0
    1.8488   18.3082   37.8282 C   0  0  0  0  0  0  0  0  0  0  0  0
    0.8529   19.5488   41.1987 N   0  0  0  0  0  0  0  0  0  0  0  0
    1.6782   17.4125   41.9049 N   0  0  0  0  0  0  0  0  0  0  0  0
    0.3743   19.6868   34.7865 O   0  0  0  0  0  0  0  0  0  0  0  0
    1.9338   18.0821   34.9828 O   0  0  0  0  0  0  0  0  0  0  0  0
    2.4702   17.2095   37.2838 O   0  0  0  0  0  0  0  0  0  0  0  0
    0.1797   18.5938   43.6972 S   0  0  0  0  0  0  0  0  0  0  0  0
    4.2403   11.2270   42.9296 Cl  0  0  0  0  0  0  0  0  0  0  0  0
    0.0393   20.9906   36.8897 H   0  0  0  0  0  0  0  0  0  0  0  0
   -0.3500   21.0905   39.3415 H   0  0  0  0  0  0  0  0  0  0  0  0
    1.7001   14.7558   45.0750 H   0  0  0  0  0  0  0  0  0  0  0  0
    2.8153   12.5259   45.0224 H   0  0  0  0  0  0  0  0  0  0  0  0
    4.1737   13.3051   40.9939 H   0  0  0  0  0  0  0  0  0  0  0  0
    3.0870   15.5487   41.0708 H   0  0  0  0  0  0  0  0  0  0  0  0
    0.8772   16.6364   45.1140 H   0  0  0  0  0  0  0  0  0  0  0  0
    2.2826   17.7038   39.8637 H   0  0  0  0  0  0  0  0  0  0  0  0
    0.5142   20.4570   41.5470 H   0  0  0  0  0  0  0  0  0  0  0  0
  1  2  1  0
  1 19  1  0
  1 20  2  0
  2  3  1  0
  2 16  2  0
  3  4  2  0
  4  5  1  0
  5 15  2  0
  5 17  1  0
  6 17  1  0
  6 18  2  0
  6 22  1  0
  7  8  1  0
  7 14  2  0
  7 18  1  0
  8  9  1  0
  8 13  2  0
  9 10  2  0
 10 11  1  0
 11 12  2  0
 11 23  1  0
 12 13  1  0
 14 22  1  0
 15 16  1  0
 16 21  1  0
  3 24  1  0
  4 25  1  0
  9 26  1  0
 10 27  1  0
 12 28  1  0
 13 29  1  0
 14 30  1  0
 15 31  1  0
 17 32  1  0
M  CHG  2  19  -1  21  -1
M  END
>  <mol_id>  (35) 
2026-08-23-6tgu-s0-n100-r9-0035

>  <rmsd_to_ref>  (35) 
2.0153061224591573

$$$$
6tgu.A
     RDKit          3D

 32 34  0  0  0  0  0  0  0  0999 V2000
    2.7430   21.6787   38.5073 C   0  0  0  0  0  0  0  0  0  0  0  0
    2.4263   20.8867   39.6877 C   0  0  0  0  0  0  0  0  0  0  0  0
    1.7721   19.6810   39.5239 C   0  0  0  0  0  0  0  0  0  0  0  0
    1.4508   18.8915   40.6325 C   0  0  0  0  0  0  0  0  0  0  0  0
    1.8059   19.3535   41.8811 C   0  0  0  0  0  0  0  0  0  0  0  0
    0.7989   17.3226   42.7580 C   0  0  0  0  0  0  0  0  0  0  0  0
    0.2374   15.1662   42.2744 C   0  0  0  0  0  0  0  0  0  0  0  0
    0.6253   13.7763   41.9391 C   0  0  0  0  0  0  0  0  0  0  0  0
   -0.3271   12.8059   41.7414 C   0  0  0  0  0  0  0  0  0  0  0  0
    0.0725   11.5227   41.4278 C   0  0  0  0  0  0  0  0  0  0  0  0
    1.4111   11.1766   41.3043 C   0  0  0  0  0  0  0  0  0  0  0  0
    2.3302   12.1638   41.5069 C   0  0  0  0  0  0  0  0  0  0  0  0
    1.9582   13.4432   41.8190 C   0  0  0  0  0  0  0  0  0  0  0  0
   -1.1730   15.4908   42.3875 C   0  0  0  0  0  0  0  0  0  0  0  0
    2.4686   20.5753   42.0460 C   0  0  0  0  0  0  0  0  0  0  0  0
    2.7879   21.3613   40.9355 C   0  0  0  0  0  0  0  0  0  0  0  0
    1.4826   18.5440   43.0267 N   0  0  0  0  0  0  0  0  0  0  0  0
    1.0293   16.1327   42.4766 N   0  0  0  0  0  0  0  0  0  0  0  0
    2.3997   21.2378   37.2242 O   0  0  0  0  0  0  0  0  0  0  0  0
    3.3381   22.7856   38.6260 O   0  0  0  0  0  0  0  0  0  0  0  0
    3.4451   22.5692   41.1180 O   0  0  0  0  0  0  0  0  0  0  0  0
   -1.0946   17.2918   42.8017 S   0  0  0  0  0  0  0  0  0  0  0  0
    1.8920    9.5261   40.9013 Cl  0  0  0  0  0  0  0  0  0  0  0  0
    1.4859   19.3043   38.5444 H   0  0  0  0  0  0  0  0  0  0  0  0
    0.9400   17.9577   40.4598 H   0  0  0  0  0  0  0  0  0  0  0  0
   -1.3770   13.0185   41.8245 H   0  0  0  0  0  0  0  0  0  0  0  0
   -0.6862   10.7857   41.2785 H   0  0  0  0  0  0  0  0  0  0  0  0
    3.3850   11.8828   41.4078 H   0  0  0  0  0  0  0  0  0  0  0  0
    2.7029   14.2008   41.9729 H   0  0  0  0  0  0  0  0  0  0  0  0
   -1.9887   14.9307   42.2802 H   0  0  0  0  0  0  0  0  0  0  0  0
    2.7415   20.9259   43.0315 H   0  0  0  0  0  0  0  0  0  0  0  0
    1.7426   18.8509   43.9934 H   0  0  0  0  0  0  0  0  0  0  0  0
  1  2  1  0
  1 19  1  0
  1 20  2  0
  2  3  1  0
  2 16  2  0
  3  4  2  0
  4  5  1  0
  5 15  2  0
  5 17  1  0
  6 17  1  0
  6 18  2  0
  6 22  1  0
  7  8  1  0
  7 14  2  0
  7 18  1  0
  8  9  1  0
  8 13  2  0
  9 10  2  0
 10 11  1  0
 11 12  2  0
 11 23  1  0
 12 13  1  0
 14 22  1  0
 15 16  1  0
 16 21  1  0
  3 24  1  0
  4 25  1  0
  9 26  1  0
 10 27  1  0
 12 28  1  0
 13 29  1  0
 14 30  1  0
 15 31  1  0
 17 32  1  0
M  CHG  2  19  -1  21  -1
M  END
>  <mol_id>  (36) 
2026-08-23-6tgu-s0-n100-r9-0036

>  <rmsd_to_ref>  (36) 
2.0612244898009657

$$$$
6tgu.A
     RDKit          3D

 32 34  0  0  0  0  0  0  0  0999 V2000
    3.5044   21.5006   38.5035 C   0  0  0  0  0  0  0  0  0  0  0  0
    2.5309   20.7159   39.3874 C   0  0  0  0  0  0  0  0  0  0  0  0
    1.1614   20.9625   39.3232 C   0  0  0  0  0  0  0  0  0  0  0  0
    0.2289   20.1436   39.9685 C   0  0  0  0  0  0  0  0  0  0  0  0
    0.6620   19.1428   40.8504 C   0  0  0  0  0  0  0  0  0  0  0  0
   -0.1219   16.9902   41.9526 C   0  0  0  0  0  0  0  0  0  0  0  0
    0.9663   15.0972   42.5916 C   0  0  0  0  0  0  0  0  0  0  0  0
    2.1419   14.2709   42.8678 C   0  0  0  0  0  0  0  0  0  0  0  0
    2.0336   12.9168   43.2152 C   0  0  0  0  0  0  0  0  0  0  0  0
    3.1662   12.1407   43.4408 C   0  0  0  0  0  0  0  0  0  0  0  0
    4.4104   12.7186   43.2729 C   0  0  0  0  0  0  0  0  0  0  0  0
    4.5633   14.0522   42.9247 C   0  0  0  0  0  0  0  0  0  0  0  0
    3.4180   14.8151   42.7144 C   0  0  0  0  0  0  0  0  0  0  0  0
   -0.3237   14.6417   42.6623 C   0  0  0  0  0  0  0  0  0  0  0  0
    2.0365   18.8744   40.9182 C   0  0  0  0  0  0  0  0  0  0  0  0
    2.9362   19.6622   40.1979 C   0  0  0  0  0  0  0  0  0  0  0  0
   -0.2741   18.2571   41.4672 N   0  0  0  0  0  0  0  0  0  0  0  0
    1.1222   16.4142   42.0981 N   0  0  0  0  0  0  0  0  0  0  0  0
    2.9894   22.2426   37.6162 O   0  0  0  0  0  0  0  0  0  0  0  0
    4.7244   21.2854   38.6741 O   0  0  0  0  0  0  0  0  0  0  0  0
    4.2690   19.3255   40.1891 O   0  0  0  0  0  0  0  0  0  0  0  0
   -1.4299   15.8307   42.0874 S   0  0  0  0  0  0  0  0  0  0  0  0
    5.8297   11.7538   43.5104 Cl  0  0  0  0  0  0  0  0  0  0  0  0
    0.8021   21.8281   38.7473 H   0  0  0  0  0  0  0  0  0  0  0  0
   -0.8462   20.2848   39.7838 H   0  0  0  0  0  0  0  0  0  0  0  0
    1.0372   12.4607   43.3109 H   0  0  0  0  0  0  0  0  0  0  0  0
    3.0732   11.0881   43.7466 H   0  0  0  0  0  0  0  0  0  0  0  0
    5.5641   14.4959   42.8174 H   0  0  0  0  0  0  0  0  0  0  0  0
    3.5210   15.8702   42.4209 H   0  0  0  0  0  0  0  0  0  0  0  0
   -0.6144   13.6490   43.0364 H   0  0  0  0  0  0  0  0  0  0  0  0
    2.4055   18.0441   41.5383 H   0  0  0  0  0  0  0  0  0  0  0  0
   -1.2258   18.6394   41.5617 H   0  0  0  0  0  0  0  0  0  0  0  0
  1  2  1  0
  1 19  1  0
  1 20  2  0
  2  3  1  0
  2 16  2  0
  3  4  2  0
  4  5  1  0
  5 15  2  0
  5 17  1  0
  6 17  1  0
  6 18  2  0
  6 22  1  0
  7  8  1  0
  7 14  2  0
  7 18  1  0
  8  9  1  0
  8 13  2  0
  9 10  2  0
 10 11  1  0
 11 12  2  0
 11 23  1  0
 12 13  1  0
 14 22  1  0
 15 16  1  0
 16 21  1  0
  3 24  1  0
  4 25  1  0
  9 26  1  0
 10 27  1  0
 12 28  1  0
 13 29  1  0
 14 30  1  0
 15 31  1  0
 17 32  1  0
M  CHG  2  19  -1  21  -1
M  END
>  <mol_id>  (37) 
2026-08-23-6tgu-s0-n100-r9-0037

>  <rmsd_to_ref>  (37) 
2.107142857146002

$$$$
6tgu.A
     RDKit          3D

 32 34  0  0  0  0  0  0  0  0999 V2000
    3.8615   20.1217   36.5441 C   0  0  0  0  0  0  0  0  0  0  0  0
    3.6581   19.6794   37.9143 C   0  0  0  0  0  0  0  0  0  0  0  0
    2.5210   18.9364   38.1956 C   0  0  0  0  0  0  0  0  0  0  0  0
    2.2607   18.4805   39.4839 C   0  0  0  0  0  0  0  0  0  0  0  0
    3.1441   18.7665   40.5128 C   0  0  0  0  0  0  0  0  0  0  0  0
    1.6528   17.5432   41.9807 C   0  0  0  0  0  0  0  0  0  0  0  0
   -0.0060   16.0438   42.1651 C   0  0  0  0  0  0  0  0  0  0  0  0
   -0.3965   14.6129   42.1159 C   0  0  0  0  0  0  0  0  0  0  0  0
   -1.7051   14.2345   42.3309 C   0  0  0  0  0  0  0  0  0  0  0  0
   -2.1327   12.9239   42.2996 C   0  0  0  0  0  0  0  0  0  0  0  0
   -1.1995   11.9383   42.0390 C   0  0  0  0  0  0  0  0  0  0  0  0
    0.1331   12.2771   41.8160 C   0  0  0  0  0  0  0  0  0  0  0  0
    0.5072   13.6085   41.8591 C   0  0  0  0  0  0  0  0  0  0  0  0
   -0.8818   17.0291   42.4168 C   0  0  0  0  0  0  0  0  0  0  0  0
    4.2895   19.5123   40.2404 C   0  0  0  0  0  0  0  0  0  0  0  0
    4.5345   19.9617   38.9409 C   0  0  0  0  0  0  0  0  0  0  0  0
    2.8537   18.2923   41.8155 N   0  0  0  0  0  0  0  0  0  0  0  0
    1.2254   16.4874   41.9702 N   0  0  0  0  0  0  0  0  0  0  0  0
    5.0066   20.8770   36.2391 O   0  0  0  0  0  0  0  0  0  0  0  0
    3.0293   19.8413   35.6187 O   0  0  0  0  0  0  0  0  0  0  0  0
    5.6630   20.7067   38.6293 O   0  0  0  0  0  0  0  0  0  0  0  0
    0.0488   18.5316   42.3710 S   0  0  0  0  0  0  0  0  0  0  0  0
   -1.6552   10.2344   41.9798 Cl  0  0  0  0  0  0  0  0  0  0  0  0
    1.8198   18.7034   37.4046 H   0  0  0  0  0  0  0  0  0  0  0  0
    1.3538   17.9038   39.6380 H   0  0  0  0  0  0  0  0  0  0  0  0
   -2.4652   14.9857   42.5391 H   0  0  0  0  0  0  0  0  0  0  0  0
   -3.1697   12.6724   42.4742 H   0  0  0  0  0  0  0  0  0  0  0  0
    0.8828   11.5124   41.6088 H   0  0  0  0  0  0  0  0  0  0  0  0
    1.5523   13.8603   41.6831 H   0  0  0  0  0  0  0  0  0  0  0  0
   -2.0003   16.9749   42.6240 H   0  0  0  0  0  0  0  0  0  0  0  0
    4.9827   19.7383   41.0393 H   0  0  0  0  0  0  0  0  0  0  0  0
    3.4895   18.4822   42.6185 H   0  0  0  0  0  0  0  0  0  0  0  0
  1  2  1  0
  1 19  1  0
  1 20  2  0
  2  3  1  0
  2 16  2  0
  3  4  2  0
  4  5  1  0
  5 15  2  0
  5 17  1  0
  6 17  1  0
  6 18  2  0
  6 22  1  0
  7  8  1  0
  7 14  2  0
  7 18  1  0
  8  9  1  0
  8 13  2  0
  9 10  2  0
 10 11  1  0
 11 12  2  0
 11 23  1  0
 12 13  1  0
 14 22  1  0
 15 16  1  0
 16 21  1  0
  3 24  1  0
  4 25  1  0
  9 26  1  0
 10 27  1  0
 12 28  1  0
 13 29  1  0
 14 30  1  0
 15 31  1  0
 17 32  1  0
M  CHG  2  19  -1  21  -1
M  END
>  <mol_id>  (38) 
2026-08-23-6tgu-s0-n100-r9-0038

>  <rmsd_to_ref>  (38) 
2.1530612244913727

$$$$
6tgu.A
     RDKit          3D

 32 34  0  0  0  0  0  0  0  0999 V2000
    2.4191   17.8097   35.2827 C   0  0  0  0  0  0  0  0  0  0  0  0
    1.9373   18.0992   36.7070 C   0  0  0  0  0  0  0  0  0  0  0  0
    0.8730   18.9699   36.9304 C   0  0  0  0  0  0  0  0  0  0  0  0
    0.2837   19.1133   38.1908 C   0  0  0  0  0  0  0  0  0  0  0  0
    0.8668   18.5083   39.3137 C   0  0  0  0  0  0  0  0  0  0  0  0
    0.3170   17.7701   41.6835 C   0  0  0  0  0  0  0  0  0  0  0  0
    1.0660   16.0577   42.9806 C   0  0  0  0  0  0  0  0  0  0  0  0
    1.9491   14.9441   43.3288 C   0  0  0  0  0  0  0  0  0  0  0  0
    1.7185   14.1355   44.4508 C   0  0  0  0  0  0  0  0  0  0  0  0
    2.5519   13.0607   44.7447 C   0  0  0  0  0  0  0  0  0  0  0  0
    3.5931   12.7736   43.8822 C   0  0  0  0  0  0  0  0  0  0  0  0
    3.8536   13.5435   42.7585 C   0  0  0  0  0  0  0  0  0  0  0  0
    3.0153   14.6214   42.4878 C   0  0  0  0  0  0  0  0  0  0  0  0
   -0.0348   16.4194   43.7112 C   0  0  0  0  0  0  0  0  0  0  0  0
    1.9318   17.6204   39.1049 C   0  0  0  0  0  0  0  0  0  0  0  0
    2.4458   17.4395   37.8196 C   0  0  0  0  0  0  0  0  0  0  0  0
    0.2424   18.5920   40.5960 N   0  0  0  0  0  0  0  0  0  0  0  0
    1.2446   16.7531   41.7613 N   0  0  0  0  0  0  0  0  0  0  0  0
    1.7034   18.2622   34.3413 O   0  0  0  0  0  0  0  0  0  0  0  0
    3.4309   17.0847   35.1629 O   0  0  0  0  0  0  0  0  0  0  0  0
    3.4183   16.4907   37.6105 O   0  0  0  0  0  0  0  0  0  0  0  0
   -0.9376   17.6430   42.9014 S   0  0  0  0  0  0  0  0  0  0  0  0
    4.6144   11.4138   44.2130 Cl  0  0  0  0  0  0  0  0  0  0  0  0
    0.4840   19.5628   36.0896 H   0  0  0  0  0  0  0  0  0  0  0  0
   -0.6390   19.7019   38.3015 H   0  0  0  0  0  0  0  0  0  0  0  0
    0.8650   14.3543   45.1093 H   0  0  0  0  0  0  0  0  0  0  0  0
    2.3854   12.4516   45.6454 H   0  0  0  0  0  0  0  0  0  0  0  0
    4.7011   13.3083   42.0979 H   0  0  0  0  0  0  0  0  0  0  0  0
    3.1971   15.2323   41.5913 H   0  0  0  0  0  0  0  0  0  0  0  0
   -0.3062   15.9863   44.6852 H   0  0  0  0  0  0  0  0  0  0  0  0
    2.3617   17.0670   39.9528 H   0  0  0  0  0  0  0  0  0  0  0  0
   -0.3680   19.4121   40.7213 H   0  0  0  0  0  0  0  0  0  0  0  0
  1  2  1  0
  1 19  1  0
  1 20  2  0
  2  3  1  0
  2 16  2  0
  3  4  2  0
  4  5  1  0
  5 15  2  0
  5 17  1  0
  6 17  1  0
  6 18  2  0
  6 22  1  0
  7  8  1  0
  7 14  2  0
  7 18  1  0
  8  9  1  0
  8 13  2  0
  9 10  2  0
 10 11  1  0
 11 12  2  0
 11 23  1  0
 12 13  1  0
 14 22  1  0
 15 16  1  0
 16 21  1  0
  3 24  1  0
  4 25  1  0
  9 26  1  0
 10 27  1  0
 12 28  1  0
 13 29  1  0
 14 30  1  0
 15 31  1  0
 17 32  1  0
M  CHG  2  19  -1  21  -1
M  END
>  <mol_id>  (39) 
2026-08-23-6tgu-s0-n100-r9-0039

>  <rmsd_to_ref>  (39) 
2.1989795918431034

$$$$
6tgu.A
     RDKit          3D

 32 34  0  0  0  0  0  0  0  0999 V2000
    4.1566   19.9718   36.5626 C   0  0  0  0  0  0  0  0  0  0  0  0
    3.3069   19.7292   37.7463 C   0  0  0  0  0  0  0  0  0  0  0  0
    2.1086   20.4065   37.8458 C   0  0  0  0  0  0  0  0  0  0  0  0
    1.2792   20.2178   38.9636 C   0  0  0  0  0  0  0  0  0  0  0  0
    1.6805   19.3319   39.9776 C   0  0  0  0  0  0  0  0  0  0  0  0
    1.0170   18.0862   42.0563 C   0  0  0  0  0  0  0  0  0  0  0  0
    0.8834   16.2091   43.3067 C   0  0  0  0  0  0  0  0  0  0  0  0
    0.1668   14.9799   43.6266 C   0  0  0  0  0  0  0  0  0  0  0  0
   -0.9878   14.5977   42.9790 C   0  0  0  0  0  0  0  0  0  0  0  0
   -1.6424   13.4207   43.2969 C   0  0  0  0  0  0  0  0  0  0  0  0
   -1.1647   12.5820   44.2763 C   0  0  0  0  0  0  0  0  0  0  0  0
    0.0035   12.9472   44.9469 C   0  0  0  0  0  0  0  0  0  0  0  0
    0.6417   14.1338   44.6091 C   0  0  0  0  0  0  0  0  0  0  0  0
    2.0600   16.5970   44.0034 C   0  0  0  0  0  0  0  0  0  0  0  0
    2.8993   18.6560   39.8539 C   0  0  0  0  0  0  0  0  0  0  0  0
    3.7215   18.8422   38.7502 C   0  0  0  0  0  0  0  0  0  0  0  0
    0.8516   19.1652   41.1138 N   0  0  0  0  0  0  0  0  0  0  0  0
    0.5550   17.0897   42.3942 N   0  0  0  0  0  0  0  0  0  0  0  0
    5.3991   19.3227   36.4492 O   0  0  0  0  0  0  0  0  0  0  0  0
    3.7528   20.7734   35.6505 O   0  0  0  0  0  0  0  0  0  0  0  0
    4.9428   18.1583   38.6379 O   0  0  0  0  0  0  0  0  0  0  0  0
    2.5357   18.2033   43.2347 S   0  0  0  0  0  0  0  0  0  0  0  0
   -1.9980   11.0793   44.6860 Cl  0  0  0  0  0  0  0  0  0  0  0  0
    1.7435   21.1009   37.0965 H   0  0  0  0  0  0  0  0  0  0  0  0
    0.3394   20.7309   39.0690 H   0  0  0  0  0  0  0  0  0  0  0  0
   -1.3975   15.2499   42.1902 H   0  0  0  0  0  0  0  0  0  0  0  0
   -2.5567   13.1831   42.7420 H   0  0  0  0  0  0  0  0  0  0  0  0
    0.4034   12.3028   45.7212 H   0  0  0  0  0  0  0  0  0  0  0  0
    1.5429   14.3722   45.1552 H   0  0  0  0  0  0  0  0  0  0  0  0
    2.6137   16.1114   44.8158 H   0  0  0  0  0  0  0  0  0  0  0  0
    3.2340   17.9633   40.6244 H   0  0  0  0  0  0  0  0  0  0  0  0
    0.0775   19.8299   41.3101 H   0  0  0  0  0  0  0  0  0  0  0  0
  1  2  1  0
  1 19  1  0
  1 20  2  0
  2  3  1  0
  2 16  2  0
  3  4  2  0
  4  5  1  0
  5 15  2  0
  5 17  1  0
  6 17  1  0
  6 18  2  0
  6 22  1  0
  7  8  1  0
  7 14  2  0
  7 18  1  0
  8  9  1  0
  8 13  2  0
  9 10  2  0
 10 11  1  0
 11 12  2  0
 11 23  1  0
 12 13  1  0
 14 22  1  0
 15 16  1  0
 16 21  1  0
  3 24  1  0
  4 25  1  0
  9 26  1  0
 10 27  1  0
 12 28  1  0
 13 29  1  0
 14 30  1  0
 15 31  1  0
 17 32  1  0
M  CHG  2  19  -1  21  -1
M  END
>  <mol_id>  (40) 
2026-08-23-6tgu-s0-n100-r9-0040

>  <rmsd_to_ref>  (40) 
2.244897959185509

$$$$
6tgu.A
     RDKit          3D

 32 34  0  0  0  0  0  0  0  0999 V2000
    6.1464   19.8572   39.5086 C   0  0  0  0  0  0  0  0  0  0  0  0
    4.8473   19.7812   40.3156 C   0  0  0  0  0  0  0  0  0  0  0  0
    4.1032   20.9315   40.5681 C   0  0  0  0  0  0  0  0  0  0  0  0
    2.8245   20.8791   41.1325 C   0  0  0  0  0  0  0  0  0  0  0  0
    2.3218   19.6663   41.6258 C   0  0  0  0  0  0  0  0  0  0  0  0
    0.1354   18.5263   42.2448 C   0  0  0  0  0  0  0  0  0  0  0  0
   -0.5571   16.3611   42.1540 C   0  0  0  0  0  0  0  0  0  0  0  0
   -0.3839   14.9180   41.9849 C   0  0  0  0  0  0  0  0  0  0  0  0
   -1.4727   14.0346   41.9767 C   0  0  0  0  0  0  0  0  0  0  0  0
   -1.2883   12.6695   41.7806 C   0  0  0  0  0  0  0  0  0  0  0  0
   -0.0093   12.1997   41.5484 C   0  0  0  0  0  0  0  0  0  0  0  0
    1.0948   13.0387   41.5423 C   0  0  0  0  0  0  0  0  0  0  0  0
    0.8910   14.3998   41.7518 C   0  0  0  0  0  0  0  0  0  0  0  0
   -1.7704   16.9708   42.3347 C   0  0  0  0  0  0  0  0  0  0  0  0
    3.0531   18.4975   41.3703 C   0  0  0  0  0  0  0  0  0  0  0  0
    4.2924   18.5771   40.7323 C   0  0  0  0  0  0  0  0  0  0  0  0
    0.9939   19.5832   42.1464 N   0  0  0  0  0  0  0  0  0  0  0  0
    0.5476   17.2327   42.0053 N   0  0  0  0  0  0  0  0  0  0  0  0
    6.4046   20.9672   38.9569 O   0  0  0  0  0  0  0  0  0  0  0  0
    6.8042   18.8001   39.3924 O   0  0  0  0  0  0  0  0  0  0  0  0
    4.9512   17.4190   40.3937 O   0  0  0  0  0  0  0  0  0  0  0  0
   -1.6095   18.6857   42.3039 S   0  0  0  0  0  0  0  0  0  0  0  0
    0.2308   10.5080   41.2620 Cl  0  0  0  0  0  0  0  0  0  0  0  0
    4.5346   21.9114   40.3156 H   0  0  0  0  0  0  0  0  0  0  0  0
    2.2119   21.7909   41.1896 H   0  0  0  0  0  0  0  0  0  0  0  0
   -2.4891   14.4271   42.1278 H   0  0  0  0  0  0  0  0  0  0  0  0
   -2.1433   11.9780   41.8098 H   0  0  0  0  0  0  0  0  0  0  0  0
    2.1060   12.6388   41.3762 H   0  0  0  0  0  0  0  0  0  0  0  0
    1.7537   15.0820   41.7331 H   0  0  0  0  0  0  0  0  0  0  0  0
   -2.7209   16.4365   42.4802 H   0  0  0  0  0  0  0  0  0  0  0  0
    2.6509   17.5192   41.6720 H   0  0  0  0  0  0  0  0  0  0  0  0
    0.6208   20.4720   42.5092 H   0  0  0  0  0  0  0  0  0  0  0  0
  1  2  1  0
  1 19  1  0
  1 20  2  0
  2  3  1  0
  2 16  2  0
  3  4  2  0
  4  5  1  0
  5 15  2  0
  5 17  1  0
  6 17  1  0
  6 18  2  0
  6 22  1  0
  7  8  1  0
  7 14  2  0
  7 18  1  0
  8  9  1  0
  8 13  2  0
  9 10  2  0
 10 11  1  0
 11 12  2  0
 11 23  1  0
 12 13  1  0
 14 22  1  0
 15 16  1  0
 16 21  1  0
  3 24  1  0
  4 25  1  0
  9 26  1  0
 10 27  1  0
 12 28  1  0
 13 29  1  0
 14 30  1  0
 15 31  1  0
 17 32  1  0
M  CHG  2  19  -1  21  -1
M  END
>  <mol_id>  (41) 
2026-08-23-6tgu-s0-n100-r9-0041

>  <rmsd_to_ref>  (41) 
2.29081632653197

$$$$
6tgu.A
     RDKit          3D

 32 34  0  0  0  0  0  0  0  0999 V2000
    3.0504   22.1626   37.8028 C   0  0  0  0  0  0  0  0  0  0  0  0
    2.9343   20.9428   38.5949 C   0  0  0  0  0  0  0  0  0  0  0  0
    1.8261   20.6643   39.3687 C   0  0  0  0  0  0  0  0  0  0  0  0
    1.7370   19.5025   40.1110 C   0  0  0  0  0  0  0  0  0  0  0  0
    2.7421   18.5737   40.1135 C   0  0  0  0  0  0  0  0  0  0  0  0
    1.5921   16.5770   41.1635 C   0  0  0  0  0  0  0  0  0  0  0  0
    0.2219   15.0102   41.9879 C   0  0  0  0  0  0  0  0  0  0  0  0
    0.0510   13.7924   42.7673 C   0  0  0  0  0  0  0  0  0  0  0  0
    1.1167   13.1431   43.3610 C   0  0  0  0  0  0  0  0  0  0  0  0
    0.9933   12.0006   44.1012 C   0  0  0  0  0  0  0  0  0  0  0  0
   -0.2543   11.4460   44.2803 C   0  0  0  0  0  0  0  0  0  0  0  0
   -1.3527   12.0772   43.6939 C   0  0  0  0  0  0  0  0  0  0  0  0
   -1.1920   13.2276   42.9539 C   0  0  0  0  0  0  0  0  0  0  0  0
   -0.8846   15.6656   41.3806 C   0  0  0  0  0  0  0  0  0  0  0  0
    3.8504   18.8863   39.3195 C   0  0  0  0  0  0  0  0  0  0  0  0
    3.9495   20.0270   38.5848 C   0  0  0  0  0  0  0  0  0  0  0  0
    2.7738   17.3654   40.7931 N   0  0  0  0  0  0  0  0  0  0  0  0
    1.3436   15.6319   41.7508 N   0  0  0  0  0  0  0  0  0  0  0  0
    2.0143   23.0886   37.8189 O   0  0  0  0  0  0  0  0  0  0  0  0
    4.1057   22.3186   37.1304 O   0  0  0  0  0  0  0  0  0  0  0  0
    5.0821   20.2646   37.8225 O   0  0  0  0  0  0  0  0  0  0  0  0
   -0.0905   17.1287   40.5351 S   0  0  0  0  0  0  0  0  0  0  0  0
   -0.4176    9.9906   45.2239 Cl  0  0  0  0  0  0  0  0  0  0  0  0
    1.0379   21.4106   39.3549 H   0  0  0  0  0  0  0  0  0  0  0  0
    0.8470   19.3718   40.6965 H   0  0  0  0  0  0  0  0  0  0  0  0
    2.1134   13.5752   43.2247 H   0  0  0  0  0  0  0  0  0  0  0  0
    1.8603   11.5270   44.5452 H   0  0  0  0  0  0  0  0  0  0  0  0
   -2.3017   11.6181   43.8545 H   0  0  0  0  0  0  0  0  0  0  0  0
   -2.0812   13.6687   42.5250 H   0  0  0  0  0  0  0  0  0  0  0  0
   -1.9025   15.4598   41.3561 H   0  0  0  0  0  0  0  0  0  0  0  0
    4.6870   18.1913   39.2756 H   0  0  0  0  0  0  0  0  0  0  0  0
    3.6575   16.9366   41.0874 H   0  0  0  0  0  0  0  0  0  0  0  0
  1  2  1  0
  1 19  1  0
  1 20  2  0
  2  3  1  0
  2 16  2  0
  3  4  2  0
  4  5  1  0
  5 15  2  0
  5 17  1  0
  6 17  1  0
  6 18  2  0
  6 22  1  0
  7  8  1  0
  7 14  2  0
  7 18  1  0
  8  9  1  0
  8 13  2  0
  9 10  2  0
 10 11  1  0
 11 12  2  0
 11 23  1  0
 12 13  1  0
 14 22  1  0
 15 16  1  0
 16 21  1  0
  3 24  1  0
  4 25  1  0
  9 26  1  0
 10 27  1  0
 12 28  1  0
 13 29  1  0
 14 30  1  0
 15 31  1  0
 17 32  1  0
M  CHG  2  19  -1  21  -1
M  END
>  <mol_id>  (42) 
2026-08-23-6tgu-s0-n100-r9-0042

>  <rmsd_to_ref>  (42) 
2.336734693879518

$$$$
6tgu.A
     RDKit          3D

 32 34  0  0  0  0  0  0  0  0999 V2000
    4.5786   21.8716   40.2367 C   0  0  0  0  0  0  0  0  0  0  0  0
    3.4392   21.1129   40.9227 C   0  0  0  0  0  0  0  0  0  0  0  0
    2.3098   21.7911   41.3757 C   0  0  0  0  0  0  0  0  0  0  0  0
    1.1726   21.1167   41.8321 C   0  0  0  0  0  0  0  0  0  0  0  0
    1.2034   19.7262   42.0119 C   0  0  0  0  0  0  0  0  0  0  0  0
   -0.3375   17.7151   42.2231 C   0  0  0  0  0  0  0  0  0  0  0  0
   -0.1231   15.5343   41.6117 C   0  0  0  0  0  0  0  0  0  0  0  0
    0.5996   14.3532   41.1387 C   0  0  0  0  0  0  0  0  0  0  0  0
   -0.0527   13.1423   40.8661 C   0  0  0  0  0  0  0  0  0  0  0  0
    0.6488   12.0413   40.3849 C   0  0  0  0  0  0  0  0  0  0  0  0
    2.0020   12.1741   40.1362 C   0  0  0  0  0  0  0  0  0  0  0  0
    2.6854   13.3545   40.3861 C   0  0  0  0  0  0  0  0  0  0  0  0
    1.9680   14.4414   40.8781 C   0  0  0  0  0  0  0  0  0  0  0  0
   -1.4725   15.5637   41.8454 C   0  0  0  0  0  0  0  0  0  0  0  0
    2.3281   19.0272   41.5510 C   0  0  0  0  0  0  0  0  0  0  0  0
    3.4162   19.7272   41.0265 C   0  0  0  0  0  0  0  0  0  0  0  0
    0.0318   19.0152   42.4157 N   0  0  0  0  0  0  0  0  0  0  0  0
    0.5439   16.7766   41.7300 N   0  0  0  0  0  0  0  0  0  0  0  0
    4.3621   23.0884   39.9618 O   0  0  0  0  0  0  0  0  0  0  0  0
    5.5960   21.2117   39.9315 O   0  0  0  0  0  0  0  0  0  0  0  0
    4.4677   19.0284   40.4826 O   0  0  0  0  0  0  0  0  0  0  0  0
   -2.0014   17.1633   42.2050 S   0  0  0  0  0  0  0  0  0  0  0  0
    2.8807   10.8241   39.4984 Cl  0  0  0  0  0  0  0  0  0  0  0  0
    2.3124   22.8911   41.3743 H   0  0  0  0  0  0  0  0  0  0  0  0
    0.2522   21.6781   42.0506 H   0  0  0  0  0  0  0  0  0  0  0  0
   -1.1366   13.0615   41.0354 H   0  0  0  0  0  0  0  0  0  0  0  0
    0.1368   11.0843   40.2060 H   0  0  0  0  0  0  0  0  0  0  0  0
    3.7670   13.4302   40.2002 H   0  0  0  0  0  0  0  0  0  0  0  0
    2.4912   15.3907   41.0658 H   0  0  0  0  0  0  0  0  0  0  0  0
   -2.1308   14.6831   41.8083 H   0  0  0  0  0  0  0  0  0  0  0  0
    2.3531   17.9287   41.6026 H   0  0  0  0  0  0  0  0  0  0  0  0
   -0.6505   19.5797   42.9418 H   0  0  0  0  0  0  0  0  0  0  0  0
  1  2  1  0
  1 19  1  0
  1 20  2  0
  2  3  1  0
  2 16  2  0
  3  4  2  0
  4  5  1  0
  5 15  2  0
  5 17  1  0
  6 17  1  0
  6 18  2  0
  6 22  1  0
  7  8  1  0
  7 14  2  0
  7 18  1  0
  8  9  1  0
  8 13  2  0
  9 10  2  0
 10 11  1  0
 11 12  2  0
 11 23  1  0
 12 13  1  0
 14 22  1  0
 15 16  1  0
 16 21  1  0
  3 24  1  0
  4 25  1  0
  9 26  1  0
 10 27  1  0
 12 28  1  0
 13 29  1  0
 14 30  1  0
 15 31  1  0
 17 32  1  0
M  CHG  2  19  -1  21  -1
M  END
>  <mol_id>  (43) 
2026-08-23-6tgu-s0-n100-r9-0043

>  <rmsd_to_ref>  (43) 
2.3826530612261787

$$$$
6tgu.A
     RDKit          3D

 32 34  0  0  0  0  0  0  0  0999 V2000
    1.8521   22.5921   38.6146 C   0  0  0  0  0  0  0  0  0  0  0  0
    1.5102   21.4261   39.4546 C   0  0  0  0  0  0  0  0  0  0  0  0
    0.1979   21.2612   39.8484 C   0  0  0  0  0  0  0  0  0  0  0  0
   -0.1663   20.1756   40.6619 C   0  0  0  0  0  0  0  0  0  0  0  0
    0.8177   19.2589   41.0687 C   0  0  0  0  0  0  0  0  0  0  0  0
    1.2986   17.0396   42.1438 C   0  0  0  0  0  0  0  0  0  0  0  0
    2.3218   15.0259   42.2045 C   0  0  0  0  0  0  0  0  0  0  0  0
    2.3308   13.6261   41.7956 C   0  0  0  0  0  0  0  0  0  0  0  0
    1.3527   13.0743   40.9973 C   0  0  0  0  0  0  0  0  0  0  0  0
    1.3912   11.7443   40.6169 C   0  0  0  0  0  0  0  0  0  0  0  0
    2.4117   10.9167   41.0226 C   0  0  0  0  0  0  0  0  0  0  0  0
    3.4147   11.4523   41.8320 C   0  0  0  0  0  0  0  0  0  0  0  0
    3.3529   12.7903   42.1998 C   0  0  0  0  0  0  0  0  0  0  0  0
    3.3280   15.5697   43.0483 C   0  0  0  0  0  0  0  0  0  0  0  0
    2.1413   19.4467   40.6559 C   0  0  0  0  0  0  0  0  0  0  0  0
    2.5038   20.5202   39.8527 C   0  0  0  0  0  0  0  0  0  0  0  0
    0.4485   18.1807   41.9094 N   0  0  0  0  0  0  0  0  0  0  0  0
    1.4271   15.9275   41.8838 N   0  0  0  0  0  0  0  0  0  0  0  0
    3.1866   22.8063   38.2258 O   0  0  0  0  0  0  0  0  0  0  0  0
    0.9280   23.3984   38.2494 O   0  0  0  0  0  0  0  0  0  0  0  0
    3.8358   20.6980   39.4456 O   0  0  0  0  0  0  0  0  0  0  0  0
    2.8357   17.3324   43.2665 S   0  0  0  0  0  0  0  0  0  0  0  0
    2.4639    9.2182   40.5403 Cl  0  0  0  0  0  0  0  0  0  0  0  0
   -0.6061   21.9327   39.5660 H   0  0  0  0  0  0  0  0  0  0  0  0
   -1.1809   20.0203   40.9844 H   0  0  0  0  0  0  0  0  0  0  0  0
    0.5197   13.7115   40.6574 H   0  0  0  0  0  0  0  0  0  0  0  0
    0.5775   11.3742   39.9836 H   0  0  0  0  0  0  0  0  0  0  0  0
    4.2322   10.8226   42.1634 H   0  0  0  0  0  0  0  0  0  0  0  0
    4.1528   13.1585   42.8257 H   0  0  0  0  0  0  0  0  0  0  0  0
    4.2161   15.1142   43.5024 H   0  0  0  0  0  0  0  0  0  0  0  0
    2.9235   18.7511   40.9559 H   0  0  0  0  0  0  0  0  0  0  0  0
   -0.4696   18.1752   42.3960 H   0  0  0  0  0  0  0  0  0  0  0  0
  1  2  1  0
  1 19  1  0
  1 20  2  0
  2  3  1  0
  2 16  2  0
  3  4  2  0
  4  5  1  0
  5 15  2  0
  5 17  1  0
  6 17  1  0
  6 18  2  0
  6 22  1  0
  7  8  1  0
  7 14  2  0
  7 18  1  0
  8  9  1  0
  8 13  2  0
  9 10  2  0
 10 11  1  0
 11 12  2  0
 11 23  1  0
 12 13  1  0
 14 22  1  0
 15 16  1  0
 16 21  1  0
  3 24  1  0
  4 25  1  0
  9 26  1  0
 10 27  1  0
 12 28  1  0
 13 29  1  0
 14 30  1  0
 15 31  1  0
 17 32  1  0
M  CHG  2  19  -1  21  -1
M  END
>  <mol_id>  (44) 
2026-08-23-6tgu-s0-n100-r9-0044

>  <rmsd_to_ref>  (44) 
2.428571428571497

$$$$
6tgu.A
     RDKit          3D

 32 34  0  0  0  0  0  0  0  0999 V2000
    1.4716   21.4976   39.2421 C   0  0  0  0  0  0  0  0  0  0  0  0
    1.0701   20.5072   40.3387 C   0  0  0  0  0  0  0  0  0  0  0  0
   -0.0856   20.7129   41.0889 C   0  0  0  0  0  0  0  0  0  0  0  0
   -0.5857   19.7419   41.9626 C   0  0  0  0  0  0  0  0  0  0  0  0
    0.1660   18.5912   42.2412 C   0  0  0  0  0  0  0  0  0  0  0  0
   -0.0805   16.2255   43.1391 C   0  0  0  0  0  0  0  0  0  0  0  0
    1.0063   14.2796   42.6832 C   0  0  0  0  0  0  0  0  0  0  0  0
    2.0637   13.4556   42.0966 C   0  0  0  0  0  0  0  0  0  0  0  0
    2.0416   12.0555   42.1691 C   0  0  0  0  0  0  0  0  0  0  0  0
    3.0401   11.2899   41.5752 C   0  0  0  0  0  0  0  0  0  0  0  0
    4.0386   11.9344   40.8694 C   0  0  0  0  0  0  0  0  0  0  0  0
    4.0956   13.3163   40.7676 C   0  0  0  0  0  0  0  0  0  0  0  0
    3.0936   14.0652   41.3784 C   0  0  0  0  0  0  0  0  0  0  0  0
   -0.0722   13.7738   43.3596 C   0  0  0  0  0  0  0  0  0  0  0  0
    1.3260   18.3636   41.4869 C   0  0  0  0  0  0  0  0  0  0  0  0
    1.7551   19.3192   40.5641 C   0  0  0  0  0  0  0  0  0  0  0  0
   -0.3585   17.5608   43.0805 N   0  0  0  0  0  0  0  0  0  0  0  0
    0.9854   15.6764   42.4585 N   0  0  0  0  0  0  0  0  0  0  0  0
    0.6254   22.3939   38.9529 O   0  0  0  0  0  0  0  0  0  0  0  0
    2.5632   21.2944   38.6668 O   0  0  0  0  0  0  0  0  0  0  0  0
    2.8324   19.0400   39.7571 O   0  0  0  0  0  0  0  0  0  0  0  0
   -1.2019   15.0183   43.7376 S   0  0  0  0  0  0  0  0  0  0  0  0
    5.2660   10.9924   40.0900 Cl  0  0  0  0  0  0  0  0  0  0  0  0
   -0.6214   21.6686   40.9911 H   0  0  0  0  0  0  0  0  0  0  0  0
   -1.5707   19.8810   42.4322 H   0  0  0  0  0  0  0  0  0  0  0  0
    1.2216   11.5543   42.7043 H   0  0  0  0  0  0  0  0  0  0  0  0
    3.0350   10.1937   41.6655 H   0  0  0  0  0  0  0  0  0  0  0  0
    4.9119   13.8081   40.2182 H   0  0  0  0  0  0  0  0  0  0  0  0
    3.1140   15.1617   41.2931 H   0  0  0  0  0  0  0  0  0  0  0  0
   -0.1999   12.7142   43.6259 H   0  0  0  0  0  0  0  0  0  0  0  0
    1.8970   17.4332   41.6222 H   0  0  0  0  0  0  0  0  0  0  0  0
   -1.0671   17.8798   43.7566 H   0  0  0  0  0  0  0  0  0  0  0  0
  1  2  1  0
  1 19  1  0
  1 20  2  0
  2  3  1  0
  2 16  2  0
  3  4  2  0
  4  5  1  0
  5 15  2  0
  5 17  1  0
  6 17  1  0
  6 18  2  0
  6 22  1  0
  7  8  1  0
  7 14  2  0
  7 18  1  0
  8  9  1  0
  8 13  2  0
  9 10  2  0
 10 11  1  0
 11 12  2  0
 11 23  1  0
 12 13  1  0
 14 22  1  0
 15 16  1  0
 16 21  1  0
  3 24  1  0
  4 25  1  0
  9 26  1  0
 10 27  1  0
 12 28  1  0
 13 29  1  0
 14 30  1  0
 15 31  1  0
 17 32  1  0
M  CHG  2  19  -1  21  -1
M  END
>  <mol_id>  (45) 
2026-08-23-6tgu-s0-n100-r9-0045

>  <rmsd_to_ref>  (45) 
2.4744897959210683

$$$$
6tgu.A
     RDKit          3D

 32 34  0  0  0  0  0  0  0  0999 V2000
    5.4405   20.2291   38.7316 C   0  0  0  0  0  0  0  0  0  0  0  0
    4.4319   19.7047   39.6010 C   0  0  0  0  0  0  0  0  0  0  0  0
    3.2047   19.2196   39.2172 C   0  0  0  0  0  0  0  0  0  0  0  0
    2.2713   18.7099   40.1247 C   0  0  0  0  0  0  0  0  0  0  0  0
    2.5420   18.6716   41.4687 C   0  0  0  0  0  0  0  0  0  0  0  0
    0.6688   17.2568   42.4307 C   0  0  0  0  0  0  0  0  0  0  0  0
   -0.7094   15.4658   42.3303 C   0  0  0  0  0  0  0  0  0  0  0  0
   -0.9443   14.0373   42.0941 C   0  0  0  0  0  0  0  0  0  0  0  0
    0.0712   13.1966   41.7159 C   0  0  0  0  0  0  0  0  0  0  0  0
   -0.1173   11.8389   41.5262 C   0  0  0  0  0  0  0  0  0  0  0  0
   -1.3573   11.2784   41.7153 C   0  0  0  0  0  0  0  0  0  0  0  0
   -2.3987   12.0957   42.0954 C   0  0  0  0  0  0  0  0  0  0  0  0
   -2.1870   13.4522   42.2797 C   0  0  0  0  0  0  0  0  0  0  0  0
   -1.8395   16.2905   42.6835 C   0  0  0  0  0  0  0  0  0  0  0  0
    3.7980   19.1686   41.8690 C   0  0  0  0  0  0  0  0  0  0  0  0
    4.7079   19.6658   40.9619 C   0  0  0  0  0  0  0  0  0  0  0  0
    1.7245   18.1697   42.4837 N   0  0  0  0  0  0  0  0  0  0  0  0
    0.3982   16.1148   42.2599 N   0  0  0  0  0  0  0  0  0  0  0  0
    5.2021   20.2865   37.3654 O   0  0  0  0  0  0  0  0  0  0  0  0
    6.5298   20.6309   39.2020 O   0  0  0  0  0  0  0  0  0  0  0  0
    5.9336   20.1348   41.4539 O   0  0  0  0  0  0  0  0  0  0  0  0
   -1.0634   17.9617   42.8635 S   0  0  0  0  0  0  0  0  0  0  0  0
   -1.6684    9.5527   41.4921 Cl  0  0  0  0  0  0  0  0  0  0  0  0
    2.9683   19.2434   38.1771 H   0  0  0  0  0  0  0  0  0  0  0  0
    1.3050   18.3302   39.8052 H   0  0  0  0  0  0  0  0  0  0  0  0
    1.0690   13.6173   41.5602 H   0  0  0  0  0  0  0  0  0  0  0  0
    0.6966   11.2053   41.2240 H   0  0  0  0  0  0  0  0  0  0  0  0
   -3.4014   11.7160   42.2652 H   0  0  0  0  0  0  0  0  0  0  0  0
   -3.0248   14.0560   42.5832 H   0  0  0  0  0  0  0  0  0  0  0  0
   -2.8288   16.0648   42.8130 H   0  0  0  0  0  0  0  0  0  0  0  0
    4.0765   19.1683   42.9130 H   0  0  0  0  0  0  0  0  0  0  0  0
    1.9189   18.5543   43.4755 H   0  0  0  0  0  0  0  0  0  0  0  0
  1  2  1  0
  1 19  1  0
  1 20  2  0
  2  3  1  0
  2 16  2  0
  3  4  2  0
  4  5  1  0
  5 15  2  0
  5 17  1  0
  6 17  1  0
  6 18  2  0
  6 22  1  0
  7  8  1  0
  7 14  2  0
  7 18  1  0
  8  9  1  0
  8 13  2  0
  9 10  2  0
 10 11  1  0
 11 12  2  0
 11 23  1  0
 12 13  1  0
 14 22  1  0
 15 16  1  0
 16 21  1  0
  3 24  1  0
  4 25  1  0
  9 26  1  0
 10 27  1  0
 12 28  1  0
 13 29  1  0
 14 30  1  0
 15 31  1  0
 17 32  1  0
M  CHG  2  19  -1  21  -1
M  END
>  <mol_id>  (46) 
2026-08-23-6tgu-s0-n100-r9-0046

>  <rmsd_to_ref>  (46) 
2.5204081632669406

$$$$
6tgu.A
     RDKit          3D

 32 34  0  0  0  0  0  0  0  0999 V2000
    4.4316   18.7696   36.8956 C   0  0  0  0  0  0  0  0  0  0  0  0
    3.1687   18.3518   37.6539 C   0  0  0  0  0  0  0  0  0  0  0  0
    1.9101   18.5295   37.0838 C   0  0  0  0  0  0  0  0  0  0  0  0
    0.7531   17.9917   37.6573 C   0  0  0  0  0  0  0  0  0  0  0  0
    0.8064   17.4006   38.9279 C   0  0  0  0  0  0  0  0  0  0  0  0
   -0.4750   15.7989   40.4298 C   0  0  0  0  0  0  0  0  0  0  0  0
    0.1851   14.3025   42.0112 C   0  0  0  0  0  0  0  0  0  0  0  0
    1.1399   13.6622   42.9165 C   0  0  0  0  0  0  0  0  0  0  0  0
    0.8017   12.5333   43.6762 C   0  0  0  0  0  0  0  0  0  0  0  0
    1.7354   11.9198   44.5055 C   0  0  0  0  0  0  0  0  0  0  0  0
    3.0243   12.4181   44.5356 C   0  0  0  0  0  0  0  0  0  0  0  0
    3.4032   13.5286   43.7964 C   0  0  0  0  0  0  0  0  0  0  0  0
    2.4515   14.1353   42.9814 C   0  0  0  0  0  0  0  0  0  0  0  0
   -1.1065   13.8807   41.8374 C   0  0  0  0  0  0  0  0  0  0  0  0
    2.0665   17.2042   39.5107 C   0  0  0  0  0  0  0  0  0  0  0  0
    3.2114   17.6844   38.8722 C   0  0  0  0  0  0  0  0  0  0  0  0
   -0.3521   16.7902   39.4993 N   0  0  0  0  0  0  0  0  0  0  0  0
    0.6081   15.3434   41.1512 N   0  0  0  0  0  0  0  0  0  0  0  0
    4.2765   19.1170   35.6880 O   0  0  0  0  0  0  0  0  0  0  0  0
    5.5197   18.6578   37.5016 O   0  0  0  0  0  0  0  0  0  0  0  0
    4.4478   17.3952   39.3991 O   0  0  0  0  0  0  0  0  0  0  0  0
   -1.8717   14.7474   40.5603 S   0  0  0  0  0  0  0  0  0  0  0  0
    4.2085   11.6398   45.5323 Cl  0  0  0  0  0  0  0  0  0  0  0  0
    1.8234   19.1107   36.1540 H   0  0  0  0  0  0  0  0  0  0  0  0
   -0.2005   18.0326   37.1105 H   0  0  0  0  0  0  0  0  0  0  0  0
   -0.2184   12.1261   43.6157 H   0  0  0  0  0  0  0  0  0  0  0  0
    1.4535   11.0555   45.1248 H   0  0  0  0  0  0  0  0  0  0  0  0
    4.4296   13.9201   43.8526 H   0  0  0  0  0  0  0  0  0  0  0  0
    2.7395   15.0068   42.3751 H   0  0  0  0  0  0  0  0  0  0  0  0
   -1.5906   13.0933   42.4339 H   0  0  0  0  0  0  0  0  0  0  0  0
    2.1529   16.6723   40.4697 H   0  0  0  0  0  0  0  0  0  0  0  0
   -1.2470   17.1613   39.1496 H   0  0  0  0  0  0  0  0  0  0  0  0
  1  2  1  0
  1 19  1  0
  1 20  2  0
  2  3  1  0
  2 16  2  0
  3  4  2  0
  4  5  1  0
  5 15  2  0
  5 17  1  0
  6 17  1  0
  6 18  2  0
  6 22  1  0
  7  8  1  0
  7 14  2  0
  7 18  1  0
  8  9  1  0
  8 13  2  0
  9 10  2  0
 10 11  1  0
 11 12  2  0
 11 23  1  0
 12 13  1  0
 14 22  1  0
 15 16  1  0
 16 21  1  0
  3 24  1  0
  4 25  1  0
  9 26  1  0
 10 27  1  0
 12 28  1  0
 13 29  1  0
 14 30  1  0
 15 31  1  0
 17 32  1  0
M  CHG  2  19  -1  21  -1
M  END
>  <mol_id>  (47) 
2026-08-23-6tgu-s0-n100-r9-0047

>  <rmsd_to_ref>  (47) 
2.566326530616166

$$$$
6tgu.A
     RDKit          3D

 32 34  0  0  0  0  0  0  0  0999 V2000
    3.4076   22.4572   38.7745 C   0  0  0  0  0  0  0  0  0  0  0  0
    2.8327   21.3085   39.4477 C   0  0  0  0  0  0  0  0  0  0  0  0
    1.7305   21.3798   40.2581 C   0  0  0  0  0  0  0  0  0  0  0  0
    1.2100   20.2690   40.8821 C   0  0  0  0  0  0  0  0  0  0  0  0
    1.7828   18.9932   40.7219 C   0  0  0  0  0  0  0  0  0  0  0  0
    1.2394   16.5568   41.0696 C   0  0  0  0  0  0  0  0  0  0  0  0
    0.9993   14.3236   41.0366 C   0  0  0  0  0  0  0  0  0  0  0  0
    0.4977   13.1163   41.7175 C   0  0  0  0  0  0  0  0  0  0  0  0
   -0.1461   13.1713   42.9399 C   0  0  0  0  0  0  0  0  0  0  0  0
   -0.6023   12.0318   43.5504 C   0  0  0  0  0  0  0  0  0  0  0  0
   -0.4416   10.7824   42.9776 C   0  0  0  0  0  0  0  0  0  0  0  0
    0.1996   10.7275   41.7602 C   0  0  0  0  0  0  0  0  0  0  0  0
    0.6528   11.8734   41.1566 C   0  0  0  0  0  0  0  0  0  0  0  0
    1.6402   14.2489   39.8154 C   0  0  0  0  0  0  0  0  0  0  0  0
    2.8847   18.9518   39.9059 C   0  0  0  0  0  0  0  0  0  0  0  0
    3.4122   20.0703   39.2750 C   0  0  0  0  0  0  0  0  0  0  0  0
    1.1956   17.9456   41.4031 N   0  0  0  0  0  0  0  0  0  0  0  0
    0.8894   15.5416   41.5073 N   0  0  0  0  0  0  0  0  0  0  0  0
    2.8816   23.7316   38.8993 O   0  0  0  0  0  0  0  0  0  0  0  0
    4.4237   22.2797   38.0507 O   0  0  0  0  0  0  0  0  0  0  0  0
    4.5458   19.9389   38.4537 O   0  0  0  0  0  0  0  0  0  0  0  0
    2.0404   16.0125   39.4457 S   0  0  0  0  0  0  0  0  0  0  0  0
   -1.0114    9.3163   43.7306 Cl  0  0  0  0  0  0  0  0  0  0  0  0
    1.2500   22.3359   40.4165 H   0  0  0  0  0  0  0  0  0  0  0  0
    0.3308   20.3876   41.5157 H   0  0  0  0  0  0  0  0  0  0  0  0
   -0.2864   14.1237   43.4099 H   0  0  0  0  0  0  0  0  0  0  0  0
   -1.1115   12.1007   44.5225 H   0  0  0  0  0  0  0  0  0  0  0  0
    0.3607    9.7751   41.2511 H   0  0  0  0  0  0  0  0  0  0  0  0
    1.1578   11.7805   40.1870 H   0  0  0  0  0  0  0  0  0  0  0  0
    1.8973   13.4352   39.1557 H   0  0  0  0  0  0  0  0  0  0  0  0
    3.4027   18.0262   39.7290 H   0  0  0  0  0  0  0  0  0  0  0  0
    0.6405   18.1539   42.2800 H   0  0  0  0  0  0  0  0  0  0  0  0
  1  2  1  0
  1 19  1  0
  1 20  2  0
  2  3  1  0
  2 16  2  0
  3  4  2  0
  4  5  1  0
  5 15  2  0
  5 17  1  0
  6 17  1  0
  6 18  2  0
  6 22  1  0
  7  8  1  0
  7 14  2  0
  7 18  1  0
  8  9  1  0
  8 13  2  0
  9 10  2  0
 10 11  1  0
 11 12  2  0
 11 23  1  0
 12 13  1  0
 14 22  1  0
 15 16  1  0
 16 21  1  0
  3 24  1  0
  4 25  1  0
  9 26  1  0
 10 27  1  0
 12 28  1  0
 13 29  1  0
 14 30  1  0
 15 31  1  0
 17 32  1  0
M  CHG  2  19  -1  21  -1
M  END
>  <mol_id>  (48) 
2026-08-23-6tgu-s0-n100-r9-0048

>  <rmsd_to_ref>  (48) 
2.6122448979631225

$$$$
6tgu.A
     RDKit          3D

 32 34  0  0  0  0  0  0  0  0999 V2000
    0.4929   22.4194   38.8429 C   0  0  0  0  0  0  0  0  0  0  0  0
    1.0804   21.5579   39.9642 C   0  0  0  0  0  0  0  0  0  0  0  0
    1.2423   22.0793   41.2458 C   0  0  0  0  0  0  0  0  0  0  0  0
    1.5944   21.2754   42.3349 C   0  0  0  0  0  0  0  0  0  0  0  0
    1.9681   19.9390   42.1319 C   0  0  0  0  0  0  0  0  0  0  0  0
    2.1998   17.7304   43.3695 C   0  0  0  0  0  0  0  0  0  0  0  0
    1.9410   15.5641   42.7244 C   0  0  0  0  0  0  0  0  0  0  0  0
    1.7624   14.4787   41.7594 C   0  0  0  0  0  0  0  0  0  0  0  0
    1.5569   13.1517   42.1630 C   0  0  0  0  0  0  0  0  0  0  0  0
    1.3556   12.1402   41.2290 C   0  0  0  0  0  0  0  0  0  0  0  0
    1.3173   12.4736   39.8882 C   0  0  0  0  0  0  0  0  0  0  0  0
    1.5099   13.7737   39.4456 C   0  0  0  0  0  0  0  0  0  0  0  0
    1.7212   14.7698   40.3949 C   0  0  0  0  0  0  0  0  0  0  0  0
    1.9428   15.3884   44.0829 C   0  0  0  0  0  0  0  0  0  0  0  0
    1.8005   19.3956   40.8502 C   0  0  0  0  0  0  0  0  0  0  0  0
    1.3705   20.2087   39.8000 C   0  0  0  0  0  0  0  0  0  0  0  0
    2.2681   19.0876   43.2393 N   0  0  0  0  0  0  0  0  0  0  0  0
    1.9939   16.9074   42.2827 N   0  0  0  0  0  0  0  0  0  0  0  0
    0.0197   23.5435   39.1830 O   0  0  0  0  0  0  0  0  0  0  0  0
    0.4542   21.9132   37.7001 O   0  0  0  0  0  0  0  0  0  0  0  0
    1.1097   19.6438   38.5742 O   0  0  0  0  0  0  0  0  0  0  0  0
    1.9846   16.9041   44.9006 S   0  0  0  0  0  0  0  0  0  0  0  0
    1.0268   11.2313   38.7161 Cl  0  0  0  0  0  0  0  0  0  0  0  0
    1.0886   23.1567   41.4063 H   0  0  0  0  0  0  0  0  0  0  0  0
    1.5780   21.6922   43.3528 H   0  0  0  0  0  0  0  0  0  0  0  0
    1.5548   12.9064   43.2352 H   0  0  0  0  0  0  0  0  0  0  0  0
    1.2294   11.0961   41.5513 H   0  0  0  0  0  0  0  0  0  0  0  0
    1.4961   14.0118   38.3718 H   0  0  0  0  0  0  0  0  0  0  0  0
    1.8587   15.8092   40.0624 H   0  0  0  0  0  0  0  0  0  0  0  0
    1.9204   14.4099   44.5848 H   0  0  0  0  0  0  0  0  0  0  0  0
    2.0077   18.3300   40.6725 H   0  0  0  0  0  0  0  0  0  0  0  0
    2.5910   19.5821   44.0832 H   0  0  0  0  0  0  0  0  0  0  0  0
  1  2  1  0
  1 19  1  0
  1 20  2  0
  2  3  1  0
  2 16  2  0
  3  4  2  0
  4  5  1  0
  5 15  2  0
  5 17  1  0
  6 17  1  0
  6 18  2  0
  6 22  1  0
  7  8  1  0
  7 14  2  0
  7 18  1  0
  8  9  1  0
  8 13  2  0
  9 10  2  0
 10 11  1  0
 11 12  2  0
 11 23  1  0
 12 13  1  0
 14 22  1  0
 15 16  1  0
 16 21  1  0
  3 24  1  0
  4 25  1  0
  9 26  1  0
 10 27  1  0
 12 28  1  0
 13 29  1  0
 14 30  1  0
 15 31  1  0
 17 32  1  0
M  CHG  2  19  -1  21  -1
M  END
>  <mol_id>  (49) 
2026-08-23-6tgu-s0-n100-r9-0049

>  <rmsd_to_ref>  (49) 
2.6581632653112015

$$$$
6tgu.A
     RDKit          3D

 32 34  0  0  0  0  0  0  0  0999 V2000
    4.2568   20.9220   37.2369 C   0  0  0  0  0  0  0  0  0  0  0  0
    3.6504   20.4370   38.4994 C   0  0  0  0  0  0  0  0  0  0  0  0
    2.8629   21.3307   39.2327 C   0  0  0  0  0  0  0  0  0  0  0  0
    2.3109   20.8743   40.4093 C   0  0  0  0  0  0  0  0  0  0  0  0
    2.5036   19.5829   40.8863 C   0  0  0  0  0  0  0  0  0  0  0  0
    1.8872   17.8779   42.6230 C   0  0  0  0  0  0  0  0  0  0  0  0
    1.1519   15.8549   43.3588 C   0  0  0  0  0  0  0  0  0  0  0  0
    0.0398   14.9187   43.6619 C   0  0  0  0  0  0  0  0  0  0  0  0
   -1.2778   15.3343   43.4244 C   0  0  0  0  0  0  0  0  0  0  0  0
   -2.3352   14.5016   43.7010 C   0  0  0  0  0  0  0  0  0  0  0  0
   -2.1223   13.2244   44.2238 C   0  0  0  0  0  0  0  0  0  0  0  0
   -0.8149   12.8616   44.4393 C   0  0  0  0  0  0  0  0  0  0  0  0
    0.2683   13.6665   44.1754 C   0  0  0  0  0  0  0  0  0  0  0  0
    2.4692   15.4411   43.5993 C   0  0  0  0  0  0  0  0  0  0  0  0
    3.2984   18.7034   40.1309 C   0  0  0  0  0  0  0  0  0  0  0  0
    3.8674   19.1398   38.9398 C   0  0  0  0  0  0  0  0  0  0  0  0
    1.9215   19.1810   42.1180 N   0  0  0  0  0  0  0  0  0  0  0  0
    0.9977   17.0374   42.8922 N   0  0  0  0  0  0  0  0  0  0  0  0
    5.0535   20.0401   36.5060 O   0  0  0  0  0  0  0  0  0  0  0  0
    4.0471   22.1185   36.8400 O   0  0  0  0  0  0  0  0  0  0  0  0
    4.6599   18.2674   38.1860 O   0  0  0  0  0  0  0  0  0  0  0  0
    3.4648   16.9579   43.0754 S   0  0  0  0  0  0  0  0  0  0  0  0
   -3.4824   12.1745   44.5719 Cl  0  0  0  0  0  0  0  0  0  0  0  0
    2.6850   22.3473   38.9002 H   0  0  0  0  0  0  0  0  0  0  0  0
    1.6928   21.5474   41.0029 H   0  0  0  0  0  0  0  0  0  0  0  0
   -1.4540   16.3241   43.0185 H   0  0  0  0  0  0  0  0  0  0  0  0
   -3.3603   14.7958   43.5273 H   0  0  0  0  0  0  0  0  0  0  0  0
   -0.6334   11.8762   44.8448 H   0  0  0  0  0  0  0  0  0  0  0  0
    1.2863   13.3168   44.3686 H   0  0  0  0  0  0  0  0  0  0  0  0
    2.9115   14.5940   43.9530 H   0  0  0  0  0  0  0  0  0  0  0  0
    3.4698   17.6739   40.4827 H   0  0  0  0  0  0  0  0  0  0  0  0
    1.4800   19.9361   42.6970 H   0  0  0  0  0  0  0  0  0  0  0  0
  1  2  1  0
  1 19  1  0
  1 20  2  0
  2  3  1  0
  2 16  2  0
  3  4  2  0
  4  5  1  0
  5 15  2  0
  5 17  1  0
  6 17  1  0
  6 18  2  0
  6 22  1  0
  7  8  1  0
  7 14  2  0
  7 18  1  0
  8  9  1  0
  8 13  2  0
  9 10  2  0
 10 11  1  0
 11 12  2  0
 11 23  1  0
 12 13  1  0
 14 22  1  0
 15 16  1  0
 16 21  1  0
  3 24  1  0
  4 25  1  0
  9 26  1  0
 10 27  1  0
 12 28  1  0
 13 29  1  0
 14 30  1  0
 15 31  1  0
 17 32  1  0
M  CHG  2  19  -1  21  -1
M  END
>  <mol_id>  (50) 
2026-08-23-6tgu-s0-n100-r9-0050

>  <rmsd_to_ref>  (50) 
2.7040816326563784

$$$$
6tgu.A
     RDKit          3D

 32 34  0  0  0  0  0  0  0  0999 V2000
    1.5863   16.4403   35.4653 C   0  0  0  0  0  0  0  0  0  0  0  0
    1.5260   17.0883   36.8513 C   0  0  0  0  0  0  0  0  0  0  0  0
    0.8621   18.2987   37.0378 C   0  0  0  0  0  0  0  0  0  0  0  0
    0.6221   18.8248   38.3114 C   0  0  0  0  0  0  0  0  0  0  0  0
    1.2024   18.2285   39.4404 C   0  0  0  0  0  0  0  0  0  0  0  0
    0.9489   18.0901   41.9662 C   0  0  0  0  0  0  0  0  0  0  0  0
    1.3684   16.4373   43.4722 C   0  0  0  0  0  0  0  0  0  0  0  0
    1.9055   15.1504   43.9155 C   0  0  0  0  0  0  0  0  0  0  0  0
    1.6678   14.6497   45.2035 C   0  0  0  0  0  0  0  0  0  0  0  0
    2.1600   13.4081   45.5933 C   0  0  0  0  0  0  0  0  0  0  0  0
    2.8552   12.6505   44.6696 C   0  0  0  0  0  0  0  0  0  0  0  0
    3.1080   13.1045   43.3839 C   0  0  0  0  0  0  0  0  0  0  0  0
    2.6170   14.3543   43.0165 C   0  0  0  0  0  0  0  0  0  0  0  0
    0.6144   17.2651   44.2613 C   0  0  0  0  0  0  0  0  0  0  0  0
    1.8643   17.0040   39.2716 C   0  0  0  0  0  0  0  0  0  0  0  0
    2.0177   16.4659   37.9925 C   0  0  0  0  0  0  0  0  0  0  0  0
    0.9154   18.7148   40.7528 N   0  0  0  0  0  0  0  0  0  0  0  0
    1.5021   16.8368   42.1214 N   0  0  0  0  0  0  0  0  0  0  0  0
    0.8725   16.9688   34.5629 O   0  0  0  0  0  0  0  0  0  0  0  0
    2.2690   15.3983   35.3559 O   0  0  0  0  0  0  0  0  0  0  0  0
    2.5747   15.2172   37.8494 O   0  0  0  0  0  0  0  0  0  0  0  0
   -0.0014   18.5920   43.3513 S   0  0  0  0  0  0  0  0  0  0  0  0
    3.4388   11.0850   45.1279 Cl  0  0  0  0  0  0  0  0  0  0  0  0
    0.5159   18.8581   36.1562 H   0  0  0  0  0  0  0  0  0  0  0  0
   -0.0231   19.7081   38.4278 H   0  0  0  0  0  0  0  0  0  0  0  0
    1.0828   15.2483   45.9173 H   0  0  0  0  0  0  0  0  0  0  0  0
    1.9991   13.0368   46.6161 H   0  0  0  0  0  0  0  0  0  0  0  0
    3.6819   12.4926   42.6724 H   0  0  0  0  0  0  0  0  0  0  0  0
    2.7936   14.7226   41.9952 H   0  0  0  0  0  0  0  0  0  0  0  0
    0.4272   17.1042   45.3332 H   0  0  0  0  0  0  0  0  0  0  0  0
    2.2623   16.4680   40.1458 H   0  0  0  0  0  0  0  0  0  0  0  0
    0.6356   19.7053   40.7897 H   0  0  0  0  0  0  0  0  0  0  0  0
  1  2  1  0
  1 19  1  0
  1 20  2  0
  2  3  1  0
  2 16  2  0
  3  4  2  0
  4  5  1  0
  5 15  2  0
  5 17  1  0
  6 17  1  0
  6 18  2  0
  6 22  1  0
  7  8  1  0
  7 14  2  0
  7 18  1  0
  8  9  1  0
  8 13  2  0
  9 10  2  0
 10 11  1  0
 11 12  2  0
 11 23  1  0
 12 13  1  0
 14 22  1  0
 15 16  1  0
 16 21  1  0
  3 24  1  0
  4 25  1  0
  9 26  1  0
 10 27  1  0
 12 28  1  0
 13 29  1  0
 14 30  1  0
 15 31  1  0
 17 32  1  0
M  CHG  2  19  -1  21  -1
M  END
>  <mol_id>  (51) 
2026-08-23-6tgu-s0-n100-r9-0051

>  <rmsd_to_ref>  (51) 
2.7500000000035127

$$$$
6tgu.A
     RDKit          3D

 32 34  0  0  0  0  0  0  0  0999 V2000
    5.3477   19.3752   37.9697 C   0  0  0  0  0  0  0  0  0  0  0  0
    4.3676   19.3900   39.0796 C   0  0  0  0  0  0  0  0  0  0  0  0
    3.3607   18.4130   39.1174 C   0  0  0  0  0  0  0  0  0  0  0  0
    2.4430   18.4453   40.1759 C   0  0  0  0  0  0  0  0  0  0  0  0
    2.5331   19.4173   41.1538 C   0  0  0  0  0  0  0  0  0  0  0  0
    0.6453   18.3777   42.2970 C   0  0  0  0  0  0  0  0  0  0  0  0
   -0.4794   16.4682   42.7647 C   0  0  0  0  0  0  0  0  0  0  0  0
   -0.6084   15.2011   43.4716 C   0  0  0  0  0  0  0  0  0  0  0  0
   -1.6915   14.3776   43.2913 C   0  0  0  0  0  0  0  0  0  0  0  0
   -1.7579   13.1799   44.0077 C   0  0  0  0  0  0  0  0  0  0  0  0
   -0.7706   12.7983   44.8902 C   0  0  0  0  0  0  0  0  0  0  0  0
    0.3317   13.6340   45.0753 C   0  0  0  0  0  0  0  0  0  0  0  0
    0.3672   14.8085   44.3537 C   0  0  0  0  0  0  0  0  0  0  0  0
   -1.5243   16.8990   41.8445 C   0  0  0  0  0  0  0  0  0  0  0  0
    3.5386   20.3883   41.1117 C   0  0  0  0  0  0  0  0  0  0  0  0
    4.4593   20.3649   40.0597 C   0  0  0  0  0  0  0  0  0  0  0  0
    1.5883   19.4378   42.2227 N   0  0  0  0  0  0  0  0  0  0  0  0
    0.4709   17.3672   42.8079 N   0  0  0  0  0  0  0  0  0  0  0  0
    5.2412   18.3893   37.0008 O   0  0  0  0  0  0  0  0  0  0  0  0
    6.2123   20.2674   37.9885 O   0  0  0  0  0  0  0  0  0  0  0  0
    5.4565   21.3423   40.0342 O   0  0  0  0  0  0  0  0  0  0  0  0
   -0.9355   18.5102   41.2249 S   0  0  0  0  0  0  0  0  0  0  0  0
   -0.9624   11.2876   45.7253 Cl  0  0  0  0  0  0  0  0  0  0  0  0
    3.2889   17.6482   38.3457 H   0  0  0  0  0  0  0  0  0  0  0  0
    1.6648   17.6724   40.1828 H   0  0  0  0  0  0  0  0  0  0  0  0
   -2.4994   14.6264   42.6103 H   0  0  0  0  0  0  0  0  0  0  0  0
   -2.6388   12.5429   43.8394 H   0  0  0  0  0  0  0  0  0  0  0  0
    1.1078   13.3418   45.7629 H   0  0  0  0  0  0  0  0  0  0  0  0
    1.2209   15.4557   44.4989 H   0  0  0  0  0  0  0  0  0  0  0  0
   -2.4566   16.3813   41.5773 H   0  0  0  0  0  0  0  0  0  0  0  0
    3.6047   21.1603   41.8957 H   0  0  0  0  0  0  0  0  0  0  0  0
    1.6129   20.2267   42.9187 H   0  0  0  0  0  0  0  0  0  0  0  0
  1  2  1  0
  1 19  1  0
  1 20  2  0
  2  3  1  0
  2 16  2  0
  3  4  2  0
  4  5  1  0
  5 15  2  0
  5 17  1  0
  6 17  1  0
  6 18  2  0
  6 22  1  0
  7  8  1  0
  7 14  2  0
  7 18  1  0
  8  9  1  0
  8 13  2  0
  9 10  2  0
 10 11  1  0
 11 12  2  0
 11 23  1  0
 12 13  1  0
 14 22  1  0
 15 16  1  0
 16 21  1  0
  3 24  1  0
  4 25  1  0
  9 26  1  0
 10 27  1  0
 12 28  1  0
 13 29  1  0
 14 30  1  0
 15 31  1  0
 17 32  1  0
M  CHG  2  19  -1  21  -1
M  END
>  <mol_id>  (52) 
2026-08-23-6tgu-s0-n100-r9-0052

>  <rmsd_to_ref>  (52) 
2.795918367350155

$$$$
6tgu.A
     RDKit          3D

 32 34  0  0  0  0  0  0  0  0999 V2000
   -0.3875   20.5647   37.3850 C   0  0  0  0  0  0  0  0  0  0  0  0
    0.1206   20.2899   38.8031 C   0  0  0  0  0  0  0  0  0  0  0  0
   -0.4537   20.9330   39.8972 C   0  0  0  0  0  0  0  0  0  0  0  0
   -0.1503   20.5712   41.2138 C   0  0  0  0  0  0  0  0  0  0  0  0
    0.8826   19.6587   41.4731 C   0  0  0  0  0  0  0  0  0  0  0  0
    1.7385   18.0860   43.2779 C   0  0  0  0  0  0  0  0  0  0  0  0
    2.8346   16.0941   43.1979 C   0  0  0  0  0  0  0  0  0  0  0  0
    3.5669   15.0071   42.5472 C   0  0  0  0  0  0  0  0  0  0  0  0
    3.9247   13.8373   43.2325 C   0  0  0  0  0  0  0  0  0  0  0  0
    4.5914   12.8016   42.5854 C   0  0  0  0  0  0  0  0  0  0  0  0
    4.8589   12.9264   41.2351 C   0  0  0  0  0  0  0  0  0  0  0  0
    4.5178   14.0631   40.5177 C   0  0  0  0  0  0  0  0  0  0  0  0
    3.8613   15.0932   41.1856 C   0  0  0  0  0  0  0  0  0  0  0  0
    2.4534   16.0806   44.5135 C   0  0  0  0  0  0  0  0  0  0  0  0
    1.4634   18.9943   40.3834 C   0  0  0  0  0  0  0  0  0  0  0  0
    1.0800   19.3238   39.0821 C   0  0  0  0  0  0  0  0  0  0  0  0
    1.1620   19.2305   42.8072 N   0  0  0  0  0  0  0  0  0  0  0  0
    2.3606   17.1885   42.4364 N   0  0  0  0  0  0  0  0  0  0  0  0
   -1.4412   21.2599   37.2873 O   0  0  0  0  0  0  0  0  0  0  0  0
    0.2291   20.0161   36.4456 O   0  0  0  0  0  0  0  0  0  0  0  0
    1.5780   18.5950   38.0282 O   0  0  0  0  0  0  0  0  0  0  0  0
    1.4490   17.4318   44.8784 S   0  0  0  0  0  0  0  0  0  0  0  0
    5.6521   11.6278   40.4069 Cl  0  0  0  0  0  0  0  0  0  0  0  0
   -1.1679   21.7507   39.7203 H   0  0  0  0  0  0  0  0  0  0  0  0
   -0.7230   21.0033   42.0477 H   0  0  0  0  0  0  0  0  0  0  0  0
    3.6742   13.7368   44.2988 H   0  0  0  0  0  0  0  0  0  0  0  0
    4.8996   11.9014   43.1375 H   0  0  0  0  0  0  0  0  0  0  0  0
    4.7599   14.1487   39.4481 H   0  0  0  0  0  0  0  0  0  0  0  0
    3.5682   15.9948   40.6278 H   0  0  0  0  0  0  0  0  0  0  0  0
    2.7493   15.3096   45.2402 H   0  0  0  0  0  0  0  0  0  0  0  0
    2.2203   18.2144   40.5537 H   0  0  0  0  0  0  0  0  0  0  0  0
    0.8805   19.8992   43.5383 H   0  0  0  0  0  0  0  0  0  0  0  0
  1  2  1  0
  1 19  1  0
  1 20  2  0
  2  3  1  0
  2 16  2  0
  3  4  2  0
  4  5  1  0
  5 15  2  0
  5 17  1  0
  6 17  1  0
  6 18  2  0
  6 22  1  0
  7  8  1  0
  7 14  2  0
  7 18  1  0
  8  9  1  0
  8 13  2  0
  9 10  2  0
 10 11  1  0
 11 12  2  0
 11 23  1  0
 12 13  1  0
 14 22  1  0
 15 16  1  0
 16 21  1  0
  3 24  1  0
  4 25  1  0
  9 26  1  0
 10 27  1  0
 12 28  1  0
 13 29  1  0
 14 30  1  0
 15 31  1  0
 17 32  1  0
M  CHG  2  19  -1  21  -1
M  END
>  <mol_id>  (53) 
2026-08-23-6tgu-s0-n100-r9-0053

>  <rmsd_to_ref>  (53) 
2.8418367346953413

$$$$
6tgu.A
     RDKit          3D

 32 34  0  0  0  0  0  0  0  0999 V2000
    3.5902   22.1113   40.0536 C   0  0  0  0  0  0  0  0  0  0  0  0
    3.2115   20.8867   40.7528 C   0  0  0  0  0  0  0  0  0  0  0  0
    2.2031   20.1053   40.2518 C   0  0  0  0  0  0  0  0  0  0  0  0
    1.8436   18.9492   40.9141 C   0  0  0  0  0  0  0  0  0  0  0  0
    2.4569   18.5305   42.0759 C   0  0  0  0  0  0  0  0  0  0  0  0
    1.1475   16.4181   42.2468 C   0  0  0  0  0  0  0  0  0  0  0  0
    0.1743   14.5189   41.4166 C   0  0  0  0  0  0  0  0  0  0  0  0
    0.2445   13.1006   41.0209 C   0  0  0  0  0  0  0  0  0  0  0  0
    1.4536   12.4302   41.1495 C   0  0  0  0  0  0  0  0  0  0  0  0
    1.5468   11.1001   40.7997 C   0  0  0  0  0  0  0  0  0  0  0  0
    0.4572   10.4012   40.3174 C   0  0  0  0  0  0  0  0  0  0  0  0
   -0.7531   11.0869   40.1924 C   0  0  0  0  0  0  0  0  0  0  0  0
   -0.8278   12.4020   40.5424 C   0  0  0  0  0  0  0  0  0  0  0  0
   -1.1114   15.1909   41.2750 C   0  0  0  0  0  0  0  0  0  0  0  0
    3.4784   19.3246   42.5804 C   0  0  0  0  0  0  0  0  0  0  0  0
    3.8372   20.4749   41.9225 C   0  0  0  0  0  0  0  0  0  0  0  0
    2.0633   17.3213   42.7540 N   0  0  0  0  0  0  0  0  0  0  0  0
    1.1095   15.2216   41.8772 N   0  0  0  0  0  0  0  0  0  0  0  0
    4.6014   22.9414   40.5005 O   0  0  0  0  0  0  0  0  0  0  0  0
    2.9938   22.4561   38.9971 O   0  0  0  0  0  0  0  0  0  0  0  0
    4.8630   21.2522   42.4486 O   0  0  0  0  0  0  0  0  0  0  0  0
   -0.6508   16.9133   41.9163 S   0  0  0  0  0  0  0  0  0  0  0  0
    0.5065    8.7282   39.8631 Cl  0  0  0  0  0  0  0  0  0  0  0  0
    1.7243   20.4422   39.3357 H   0  0  0  0  0  0  0  0  0  0  0  0
    1.0392   18.3603   40.4796 H   0  0  0  0  0  0  0  0  0  0  0  0
    2.3382   12.9427   41.5252 H   0  0  0  0  0  0  0  0  0  0  0  0
    2.4718   10.5672   40.8923 H   0  0  0  0  0  0  0  0  0  0  0  0
   -1.6315   10.6031   39.8264 H   0  0  0  0  0  0  0  0  0  0  0  0
   -1.7958   12.9094   40.4309 H   0  0  0  0  0  0  0  0  0  0  0  0
   -1.9800   14.9206   40.9613 H   0  0  0  0  0  0  0  0  0  0  0  0
    3.9963   19.0592   43.4748 H   0  0  0  0  0  0  0  0  0  0  0  0
    2.5073   17.1301   43.6837 H   0  0  0  0  0  0  0  0  0  0  0  0
  1  2  1  0
  1 19  1  0
  1 20  2  0
  2  3  1  0
  2 16  2  0
  3  4  2  0
  4  5  1  0
  5 15  2  0
  5 17  1  0
  6 17  1  0
  6 18  2  0
  6 22  1  0
  7  8  1  0
  7 14  2  0
  7 18  1  0
  8  9  1  0
  8 13  2  0
  9 10  2  0
 10 11  1  0
 11 12  2  0
 11 23  1  0
 12 13  1  0
 14 22  1  0
 15 16  1  0
 16 21  1  0
  3 24  1  0
  4 25  1  0
  9 26  1  0
 10 27  1  0
 12 28  1  0
 13 29  1  0
 14 30  1  0
 15 31  1  0
 17 32  1  0
M  CHG  2  19  -1  21  -1
M  END
>  <mol_id>  (54) 
2026-08-23-6tgu-s0-n100-r9-0054

>  <rmsd_to_ref>  (54) 
2.887755102041672

$$$$
6tgu.A
     RDKit          3D

 32 34  0  0  0  0  0  0  0  0999 V2000
    5.6179   21.0775   39.8386 C   0  0  0  0  0  0  0  0  0  0  0  0
    4.4457   20.4233   40.5753 C   0  0  0  0  0  0  0  0  0  0  0  0
    3.6127   21.1824   41.3941 C   0  0  0  0  0  0  0  0  0  0  0  0
    2.4280   20.6665   41.9295 C   0  0  0  0  0  0  0  0  0  0  0  0
    2.1313   19.3021   41.7978 C   0  0  0  0  0  0  0  0  0  0  0  0
    0.1821   17.6733   41.9011 C   0  0  0  0  0  0  0  0  0  0  0  0
   -0.2657   15.7293   40.8074 C   0  0  0  0  0  0  0  0  0  0  0  0
    0.0481   14.5862   39.9496 C   0  0  0  0  0  0  0  0  0  0  0  0
   -0.9258   13.6510   39.5716 C   0  0  0  0  0  0  0  0  0  0  0  0
   -0.6131   12.5899   38.7276 C   0  0  0  0  0  0  0  0  0  0  0  0
    0.6723   12.4961   38.2284 C   0  0  0  0  0  0  0  0  0  0  0  0
    1.6647   13.4020   38.5715 C   0  0  0  0  0  0  0  0  0  0  0  0
    1.3349   14.4502   39.4262 C   0  0  0  0  0  0  0  0  0  0  0  0
   -1.5087   15.9791   41.3261 C   0  0  0  0  0  0  0  0  0  0  0  0
    2.9534   18.5264   40.9680 C   0  0  0  0  0  0  0  0  0  0  0  0
    4.0871   19.0943   40.3837 C   0  0  0  0  0  0  0  0  0  0  0  0
    0.8962   18.7725   42.2826 N   0  0  0  0  0  0  0  0  0  0  0  0
    0.7059   16.7309   41.0418 N   0  0  0  0  0  0  0  0  0  0  0  0
    5.6780   22.3415   39.8825 O   0  0  0  0  0  0  0  0  0  0  0  0
    6.3721   20.3210   39.1886 O   0  0  0  0  0  0  0  0  0  0  0  0
    4.8263   18.3556   39.4906 O   0  0  0  0  0  0  0  0  0  0  0  0
   -1.5487   17.5056   42.1235 S   0  0  0  0  0  0  0  0  0  0  0  0
    1.0658   11.2036   37.1440 Cl  0  0  0  0  0  0  0  0  0  0  0  0
    3.8953   22.2197   41.6267 H   0  0  0  0  0  0  0  0  0  0  0  0
    1.7275   21.3322   42.4550 H   0  0  0  0  0  0  0  0  0  0  0  0
   -1.9537   13.7579   39.9485 H   0  0  0  0  0  0  0  0  0  0  0  0
   -1.3738   11.8406   38.4630 H   0  0  0  0  0  0  0  0  0  0  0  0
    2.6864   13.2950   38.1783 H   0  0  0  0  0  0  0  0  0  0  0  0
    2.1055   15.1877   39.6951 H   0  0  0  0  0  0  0  0  0  0  0  0
   -2.3669   15.2959   41.2443 H   0  0  0  0  0  0  0  0  0  0  0  0
    2.7054   17.4718   40.7776 H   0  0  0  0  0  0  0  0  0  0  0  0
    0.4722   19.3119   43.0509 H   0  0  0  0  0  0  0  0  0  0  0  0
  1  2  1  0
  1 19  1  0
  1 20  2  0
  2  3  1  0
  2 16  2  0
  3  4  2  0
  4  5  1  0
  5 15  2  0
  5 17  1  0
  6 17  1  0
  6 18  2  0
  6 22  1  0
  7  8  1  0
  7 14  2  0
  7 18  1  0
  8  9  1  0
  8 13  2  0
  9 10  2  0
 10 11  1  0
 11 12  2  0
 11 23  1  0
 12 13  1  0
 14 22  1  0
 15 16  1  0
 16 21  1  0
  3 24  1  0
  4 25  1  0
  9 26  1  0
 10 27  1  0
 12 28  1  0
 13 29  1  0
 14 30  1  0
 15 31  1  0
 17 32  1  0
M  CHG  2  19  -1  21  -1
M  END
>  <mol_id>  (55) 
2026-08-23-6tgu-s0-n100-r9-0055

>  <rmsd_to_ref>  (55) 
2.933673469396639

$$$$
6tgu.A
     RDKit          3D

 32 34  0  0  0  0  0  0  0  0999 V2000
    5.5003   18.8642   38.2645 C   0  0  0  0  0  0  0  0  0  0  0  0
    4.4083   18.7806   39.2362 C   0  0  0  0  0  0  0  0  0  0  0  0
    3.8130   19.9160   39.7627 C   0  0  0  0  0  0  0  0  0  0  0  0
    2.7908   19.7729   40.6730 C   0  0  0  0  0  0  0  0  0  0  0  0
    2.3545   18.5205   41.0649 C   0  0  0  0  0  0  0  0  0  0  0  0
    0.8260   17.1107   42.3939 C   0  0  0  0  0  0  0  0  0  0  0  0
   -0.2433   15.1587   42.6282 C   0  0  0  0  0  0  0  0  0  0  0  0
   -1.2979   14.2185   42.1842 C   0  0  0  0  0  0  0  0  0  0  0  0
   -2.1279   14.5385   41.1052 C   0  0  0  0  0  0  0  0  0  0  0  0
   -3.1100   13.6576   40.6960 C   0  0  0  0  0  0  0  0  0  0  0  0
   -3.3067   12.4500   41.3241 C   0  0  0  0  0  0  0  0  0  0  0  0
   -2.4915   12.1282   42.3890 C   0  0  0  0  0  0  0  0  0  0  0  0
   -1.5153   13.0188   42.7854 C   0  0  0  0  0  0  0  0  0  0  0  0
    0.5732   14.8317   43.7049 C   0  0  0  0  0  0  0  0  0  0  0  0
    2.9439   17.3791   40.5436 C   0  0  0  0  0  0  0  0  0  0  0  0
    3.9688   17.5262   39.6309 C   0  0  0  0  0  0  0  0  0  0  0  0
    1.3048   18.3959   42.0030 N   0  0  0  0  0  0  0  0  0  0  0  0
    0.0420   16.3286   42.1171 N   0  0  0  0  0  0  0  0  0  0  0  0
    5.9665   20.1039   37.8451 O   0  0  0  0  0  0  0  0  0  0  0  0
    5.9752   17.7804   37.8460 O   0  0  0  0  0  0  0  0  0  0  0  0
    4.5493   16.3511   39.1174 O   0  0  0  0  0  0  0  0  0  0  0  0
    1.6679   16.2466   43.8681 S   0  0  0  0  0  0  0  0  0  0  0  0
   -4.5727   11.4003   40.7382 Cl  0  0  0  0  0  0  0  0  0  0  0  0
    4.1729   20.9030   39.4395 H   0  0  0  0  0  0  0  0  0  0  0  0
    2.3075   20.6616   41.1002 H   0  0  0  0  0  0  0  0  0  0  0  0
   -1.9593   15.4949   40.6200 H   0  0  0  0  0  0  0  0  0  0  0  0
   -3.7187   13.9591   39.8602 H   0  0  0  0  0  0  0  0  0  0  0  0
   -2.6230   11.1953   42.8946 H   0  0  0  0  0  0  0  0  0  0  0  0
   -0.8914   12.7257   43.6323 H   0  0  0  0  0  0  0  0  0  0  0  0
    0.5836   13.9530   44.3224 H   0  0  0  0  0  0  0  0  0  0  0  0
    2.5887   16.4070   40.8623 H   0  0  0  0  0  0  0  0  0  0  0  0
    0.8636   19.2441   42.4245 H   0  0  0  0  0  0  0  0  0  0  0  0
  1  2  1  0
  1 19  1  0
  1 20  2  0
  2  3  1  0
  2 16  2  0
  3  4  2  0
  4  5  1  0
  5 15  2  0
  5 17  1  0
  6 17  1  0
  6 18  2  0
  6 22  1  0
  7  8  1  0
  7 14  2  0
  7 18  1  0
  8  9  1  0
  8 13  2  0
  9 10  2  0
 10 11  1  0
 11 12  2  0
 11 23  1  0
 12 13  1  0
 14 22  1  0
 15 16  1  0
 16 21  1  0
  3 24  1  0
  4 25  1  0
  9 26  1  0
 10 27  1  0
 12 28  1  0
 13 29  1  0
 14 30  1  0
 15 31  1  0
 17 32  1  0
M  CHG  2  19  -1  21  -1
M  END
>  <mol_id>  (56) 
2026-08-23-6tgu-s0-n100-r9-0056

>  <rmsd_to_ref>  (56) 
2.9795918367432845

$$$$
6tgu.A
     RDKit          3D

 32 34  0  0  0  0  0  0  0  0999 V2000
    6.2524   19.5487   40.8132 C   0  0  0  0  0  0  0  0  0  0  0  0
    4.8252   19.5473   41.3680 C   0  0  0  0  0  0  0  0  0  0  0  0
    4.1483   20.7459   41.5819 C   0  0  0  0  0  0  0  0  0  0  0  0
    2.7878   20.7824   41.9046 C   0  0  0  0  0  0  0  0  0  0  0  0
    2.1012   19.5947   42.1960 C   0  0  0  0  0  0  0  0  0  0  0  0
   -0.2510   18.6381   42.3188 C   0  0  0  0  0  0  0  0  0  0  0  0
   -1.0973   16.5639   41.9227 C   0  0  0  0  0  0  0  0  0  0  0  0
   -1.0197   15.1256   41.6644 C   0  0  0  0  0  0  0  0  0  0  0  0
   -2.1598   14.3575   41.3885 C   0  0  0  0  0  0  0  0  0  0  0  0
   -2.0597   12.9974   41.1125 C   0  0  0  0  0  0  0  0  0  0  0  0
   -0.8047   12.4198   41.0711 C   0  0  0  0  0  0  0  0  0  0  0  0
    0.3492   13.1432   41.3320 C   0  0  0  0  0  0  0  0  0  0  0  0
    0.2272   14.5004   41.6173 C   0  0  0  0  0  0  0  0  0  0  0  0
   -2.2665   17.2773   41.9371 C   0  0  0  0  0  0  0  0  0  0  0  0
    2.7646   18.3793   41.9752 C   0  0  0  0  0  0  0  0  0  0  0  0
    4.1023   18.3787   41.5758 C   0  0  0  0  0  0  0  0  0  0  0  0
    0.6980   19.6086   42.4643 N   0  0  0  0  0  0  0  0  0  0  0  0
    0.0863   17.3293   42.0467 N   0  0  0  0  0  0  0  0  0  0  0  0
    6.7016   20.6626   40.4124 O   0  0  0  0  0  0  0  0  0  0  0  0
    6.8276   18.4418   40.7255 O   0  0  0  0  0  0  0  0  0  0  0  0
    4.7108   17.1867   41.2617 O   0  0  0  0  0  0  0  0  0  0  0  0
   -1.9568   18.9658   42.0815 S   0  0  0  0  0  0  0  0  0  0  0  0
   -0.6613   10.7361   40.6885 Cl  0  0  0  0  0  0  0  0  0  0  0  0
    4.7009   21.6930   41.4943 H   0  0  0  0  0  0  0  0  0  0  0  0
    2.2554   21.7446   41.9300 H   0  0  0  0  0  0  0  0  0  0  0  0
   -3.1494   14.8379   41.3902 H   0  0  0  0  0  0  0  0  0  0  0  0
   -2.9613   12.3940   40.9308 H   0  0  0  0  0  0  0  0  0  0  0  0
    1.3358   12.6572   41.3140 H   0  0  0  0  0  0  0  0  0  0  0  0
    1.1337   15.0931   41.8099 H   0  0  0  0  0  0  0  0  0  0  0  0
   -3.2696   16.8315   41.8660 H   0  0  0  0  0  0  0  0  0  0  0  0
    2.2316   17.4275   42.1165 H   0  0  0  0  0  0  0  0  0  0  0  0
    0.3417   20.5033   42.8298 H   0  0  0  0  0  0  0  0  0  0  0  0
  1  2  1  0
  1 19  1  0
  1 20  2  0
  2  3  1  0
  2 16  2  0
  3  4  2  0
  4  5  1  0
  5 15  2  0
  5 17  1  0
  6 17  1  0
  6 18  2  0
  6 22  1  0
  7  8  1  0
  7 14  2  0
  7 18  1  0
  8  9  1  0
  8 13  2  0
  9 10  2  0
 10 11  1  0
 11 12  2  0
 11 23  1  0
 12 13  1  0
 14 22  1  0
 15 16  1  0
 16 21  1  0
  3 24  1  0
  4 25  1  0
  9 26  1  0
 10 27  1  0
 12 28  1  0
 13 29  1  0
 14 30  1  0
 15 31  1  0
 17 32  1  0
M  CHG  2  19  -1  21  -1
M  END
>  <mol_id>  (57) 
2026-08-23-6tgu-s0-n100-r9-0057

>  <rmsd_to_ref>  (57) 
3.02551020408708

$$$$
6tgu.A
     RDKit          3D

 32 34  0  0  0  0  0  0  0  0999 V2000
    6.2216   17.7777   36.6166 C   0  0  0  0  0  0  0  0  0  0  0  0
    5.2795   18.2123   37.6338 C   0  0  0  0  0  0  0  0  0  0  0  0
    4.0196   18.6913   37.2949 C   0  0  0  0  0  0  0  0  0  0  0  0
    3.1508   19.0827   38.3057 C   0  0  0  0  0  0  0  0  0  0  0  0
    3.4852   19.0167   39.6422 C   0  0  0  0  0  0  0  0  0  0  0  0
    1.5374   18.6772   41.1913 C   0  0  0  0  0  0  0  0  0  0  0  0
    0.0223   17.2617   42.0816 C   0  0  0  0  0  0  0  0  0  0  0  0
   -0.3164   15.9336   42.5771 C   0  0  0  0  0  0  0  0  0  0  0  0
   -1.5613   15.6134   43.0626 C   0  0  0  0  0  0  0  0  0  0  0  0
   -1.9296   14.3741   43.5169 C   0  0  0  0  0  0  0  0  0  0  0  0
   -1.0012   13.3422   43.5021 C   0  0  0  0  0  0  0  0  0  0  0  0
    0.2472   13.6403   43.0242 C   0  0  0  0  0  0  0  0  0  0  0  0
    0.6077   14.8988   42.5652 C   0  0  0  0  0  0  0  0  0  0  0  0
   -0.9272   18.2839   42.0494 C   0  0  0  0  0  0  0  0  0  0  0  0
    4.7671   18.5307   39.9630 C   0  0  0  0  0  0  0  0  0  0  0  0
    5.6395   18.1400   38.9632 C   0  0  0  0  0  0  0  0  0  0  0  0
    2.5965   19.4449   40.6169 N   0  0  0  0  0  0  0  0  0  0  0  0
    1.1562   17.7059   41.6072 N   0  0  0  0  0  0  0  0  0  0  0  0
    7.4812   17.2790   36.8771 O   0  0  0  0  0  0  0  0  0  0  0  0
    5.8404   17.8743   35.4122 O   0  0  0  0  0  0  0  0  0  0  0  0
    6.8804   17.6725   39.3251 O   0  0  0  0  0  0  0  0  0  0  0  0
   -0.0964   19.7275   41.3520 S   0  0  0  0  0  0  0  0  0  0  0  0
   -1.3965   11.7392   44.0648 Cl  0  0  0  0  0  0  0  0  0  0  0  0
    3.7556   18.7303   36.2642 H   0  0  0  0  0  0  0  0  0  0  0  0
    2.1867   19.4448   37.9592 H   0  0  0  0  0  0  0  0  0  0  0  0
   -2.3348   16.3912   43.1020 H   0  0  0  0  0  0  0  0  0  0  0  0
   -2.9246   14.1932   43.8913 H   0  0  0  0  0  0  0  0  0  0  0  0
    1.0065   12.8395   42.9918 H   0  0  0  0  0  0  0  0  0  0  0  0
    1.5918   15.0779   42.1944 H   0  0  0  0  0  0  0  0  0  0  0  0
   -2.0104   18.2730   42.3656 H   0  0  0  0  0  0  0  0  0  0  0  0
    5.0420   18.4836   41.0206 H   0  0  0  0  0  0  0  0  0  0  0  0
    2.7539   20.4519   40.9536 H   0  0  0  0  0  0  0  0  0  0  0  0
  1  2  1  0
  1 19  1  0
  1 20  2  0
  2  3  1  0
  2 16  2  0
  3  4  2  0
  4  5  1  0
  5 15  2  0
  5 17  1  0
  6 17  1  0
  6 18  2  0
  6 22  1  0
  7  8  1  0
  7 14  2  0
  7 18  1  0
  8  9  1  0
  8 13  2  0
  9 10  2  0
 10 11  1  0
 11 12  2  0
 11 23  1  0
 12 13  1  0
 14 22  1  0
 15 16  1  0
 16 21  1  0
  3 24  1  0
  4 25  1  0
  9 26  1  0
 10 27  1  0
 12 28  1  0
 13 29  1  0
 14 30  1  0
 15 31  1  0
 17 32  1  0
M  CHG  2  19  -1  21  -1
M  END
>  <mol_id>  (58) 
2026-08-23-6tgu-s0-n100-r9-0058

>  <rmsd_to_ref>  (58) 
3.0714285714370706

$$$$
6tgu.A
     RDKit          3D

 32 34  0  0  0  0  0  0  0  0999 V2000
    5.1429   17.2715   38.0961 C   0  0  0  0  0  0  0  0  0  0  0  0
    3.8841   17.8256   38.7690 C   0  0  0  0  0  0  0  0  0  0  0  0
    3.1116   18.7957   38.1342 C   0  0  0  0  0  0  0  0  0  0  0  0
    1.8616   19.1870   38.6250 C   0  0  0  0  0  0  0  0  0  0  0  0
    1.4242   18.7347   39.8783 C   0  0  0  0  0  0  0  0  0  0  0  0
   -0.6913   18.4385   41.2568 C   0  0  0  0  0  0  0  0  0  0  0  0
   -1.3102   16.9135   42.8275 C   0  0  0  0  0  0  0  0  0  0  0  0
   -1.0938   15.8117   43.7657 C   0  0  0  0  0  0  0  0  0  0  0  0
   -2.1500   15.2176   44.4710 C   0  0  0  0  0  0  0  0  0  0  0  0
   -1.9263   14.1486   45.3331 C   0  0  0  0  0  0  0  0  0  0  0  0
   -0.6430   13.6490   45.4509 C   0  0  0  0  0  0  0  0  0  0  0  0
    0.4295   14.2024   44.7678 C   0  0  0  0  0  0  0  0  0  0  0  0
    0.1871   15.2787   43.9188 C   0  0  0  0  0  0  0  0  0  0  0  0
   -2.5352   17.4692   42.5684 C   0  0  0  0  0  0  0  0  0  0  0  0
    2.1844   17.7499   40.5253 C   0  0  0  0  0  0  0  0  0  0  0  0
    3.3908   17.3232   39.9672 C   0  0  0  0  0  0  0  0  0  0  0  0
    0.1242   19.0733   40.3648 N   0  0  0  0  0  0  0  0  0  0  0  0
   -0.2445   17.3839   42.0243 N   0  0  0  0  0  0  0  0  0  0  0  0
    5.3373   17.6132   36.8926 O   0  0  0  0  0  0  0  0  0  0  0  0
    5.8319   16.4655   38.7590 O   0  0  0  0  0  0  0  0  0  0  0  0
    4.0746   16.2851   40.5543 O   0  0  0  0  0  0  0  0  0  0  0  0
   -2.4364   18.6046   41.2766 S   0  0  0  0  0  0  0  0  0  0  0  0
   -0.3561   12.2921   46.4892 Cl  0  0  0  0  0  0  0  0  0  0  0  0
    3.4966   19.2686   37.2187 H   0  0  0  0  0  0  0  0  0  0  0  0
    1.2203   19.8508   38.0266 H   0  0  0  0  0  0  0  0  0  0  0  0
   -3.1720   15.6030   44.3407 H   0  0  0  0  0  0  0  0  0  0  0  0
   -2.7542   13.7098   45.9093 H   0  0  0  0  0  0  0  0  0  0  0  0
    1.4460   13.8011   44.8936 H   0  0  0  0  0  0  0  0  0  0  0  0
    1.0236   15.7189   43.3561 H   0  0  0  0  0  0  0  0  0  0  0  0
   -3.4589   17.2232   43.1127 H   0  0  0  0  0  0  0  0  0  0  0  0
    1.8306   17.3142   41.4713 H   0  0  0  0  0  0  0  0  0  0  0  0
   -0.2638   19.9447   39.9763 H   0  0  0  0  0  0  0  0  0  0  0  0
  1  2  1  0
  1 19  1  0
  1 20  2  0
  2  3  1  0
  2 16  2  0
  3  4  2  0
  4  5  1  0
  5 15  2  0
  5 17  1  0
  6 17  1  0
  6 18  2  0
  6 22  1  0
  7  8  1  0
  7 14  2  0
  7 18  1  0
  8  9  1  0
  8 13  2  0
  9 10  2  0
 10 11  1  0
 11 12  2  0
 11 23  1  0
 12 13  1  0
 14 22  1  0
 15 16  1  0
 16 21  1  0
  3 24  1  0
  4 25  1  0
  9 26  1  0
 10 27  1  0
 12 28  1  0
 13 29  1  0
 14 30  1  0
 15 31  1  0
 17 32  1  0
M  CHG  2  19  -1  21  -1
M  END
>  <mol_id>  (59) 
2026-08-23-6tgu-s0-n100-r9-0059

>  <rmsd_to_ref>  (59) 
3.117346938781206

$$$$
6tgu.A
     RDKit          3D

 32 34  0  0  0  0  0  0  0  0999 V2000
    4.8983   20.8259   35.8374 C   0  0  0  0  0  0  0  0  0  0  0  0
    4.1805   19.8509   36.6453 C   0  0  0  0  0  0  0  0  0  0  0  0
    3.3544   20.2453   37.6725 C   0  0  0  0  0  0  0  0  0  0  0  0
    2.6659   19.3049   38.4472 C   0  0  0  0  0  0  0  0  0  0  0  0
    2.7706   17.9538   38.2343 C   0  0  0  0  0  0  0  0  0  0  0  0
    1.6668   16.9829   40.2778 C   0  0  0  0  0  0  0  0  0  0  0  0
    0.7202   16.4758   42.2575 C   0  0  0  0  0  0  0  0  0  0  0  0
   -0.0218   15.4864   43.0564 C   0  0  0  0  0  0  0  0  0  0  0  0
   -0.3707   15.7541   44.3623 C   0  0  0  0  0  0  0  0  0  0  0  0
   -1.0650   14.8445   45.1297 C   0  0  0  0  0  0  0  0  0  0  0  0
   -1.4306   13.6180   44.5845 C   0  0  0  0  0  0  0  0  0  0  0  0
   -1.0956   13.3212   43.2800 C   0  0  0  0  0  0  0  0  0  0  0  0
   -0.4027   14.2602   42.5539 C   0  0  0  0  0  0  0  0  0  0  0  0
    1.0876   17.6974   42.7901 C   0  0  0  0  0  0  0  0  0  0  0  0
    3.6175   17.5747   37.1823 C   0  0  0  0  0  0  0  0  0  0  0  0
    4.2950   18.4967   36.4194 C   0  0  0  0  0  0  0  0  0  0  0  0
    2.1505   16.9400   38.9512 N   0  0  0  0  0  0  0  0  0  0  0  0
    1.0849   16.2957   41.0182 N   0  0  0  0  0  0  0  0  0  0  0  0
    4.7403   22.1757   36.1147 O   0  0  0  0  0  0  0  0  0  0  0  0
    5.6439   20.4254   34.9080 O   0  0  0  0  0  0  0  0  0  0  0  0
    5.1301   18.0967   35.3804 O   0  0  0  0  0  0  0  0  0  0  0  0
    1.9795   18.5091   41.3488 S   0  0  0  0  0  0  0  0  0  0  0  0
   -2.3093   12.5180   45.6202 Cl  0  0  0  0  0  0  0  0  0  0  0  0
    3.2334   21.3132   37.8875 H   0  0  0  0  0  0  0  0  0  0  0  0
    2.0431   19.6955   39.2093 H   0  0  0  0  0  0  0  0  0  0  0  0
   -0.1008   16.6973   44.8134 H   0  0  0  0  0  0  0  0  0  0  0  0
   -1.3194   15.0889   46.1446 H   0  0  0  0  0  0  0  0  0  0  0  0
   -1.3849   12.3624   42.8640 H   0  0  0  0  0  0  0  0  0  0  0  0
   -0.1536   14.0004   41.5344 H   0  0  0  0  0  0  0  0  0  0  0  0
    0.9758   18.1816   43.7149 H   0  0  0  0  0  0  0  0  0  0  0  0
    3.7616   16.5209   36.9393 H   0  0  0  0  0  0  0  0  0  0  0  0
    2.0091   16.0068   38.4630 H   0  0  0  0  0  0  0  0  0  0  0  0
  1  2  1  0
  1 19  1  0
  1 20  2  0
  2  3  1  0
  2 16  2  0
  3  4  2  0
  4  5  1  0
  5 15  2  0
  5 17  1  0
  6 17  1  0
  6 18  2  0
  6 22  1  0
  7  8  1  0
  7 14  2  0
  7 18  1  0
  8  9  1  0
  8 13  2  0
  9 10  2  0
 10 11  1  0
 11 12  2  0
 11 23  1  0
 12 13  1  0
 14 22  1  0
 15 16  1  0
 16 21  1  0
  3 24  1  0
  4 25  1  0
  9 26  1  0
 10 27  1  0
 12 28  1  0
 13 29  1  0
 14 30  1  0
 15 31  1  0
 17 32  1  0
M  CHG  2  19  -1  21  -1
M  END
>  <mol_id>  (60) 
2026-08-23-6tgu-s0-n100-r9-0060

>  <rmsd_to_ref>  (60) 
3.1632653061263265

$$$$
6tgu.A
     RDKit          3D

 32 34  0  0  0  0  0  0  0  0999 V2000
    4.7369   21.4540   39.4410 C   0  0  0  0  0  0  0  0  0  0  0  0
    3.9319   20.5117   40.3403 C   0  0  0  0  0  0  0  0  0  0  0  0
    3.4790   20.9386   41.5866 C   0  0  0  0  0  0  0  0  0  0  0  0
    2.5862   20.1806   42.3512 C   0  0  0  0  0  0  0  0  0  0  0  0
    2.2546   18.8758   41.9584 C   0  0  0  0  0  0  0  0  0  0  0  0
    0.4844   17.0847   42.3073 C   0  0  0  0  0  0  0  0  0  0  0  0
   -0.3576   15.4612   40.9542 C   0  0  0  0  0  0  0  0  0  0  0  0
   -0.4014   14.6225   39.7559 C   0  0  0  0  0  0  0  0  0  0  0  0
   -1.4508   13.7241   39.5155 C   0  0  0  0  0  0  0  0  0  0  0  0
   -1.4900   12.9604   38.3531 C   0  0  0  0  0  0  0  0  0  0  0  0
   -0.4934   13.1345   37.4112 C   0  0  0  0  0  0  0  0  0  0  0  0
    0.5595   14.0158   37.6058 C   0  0  0  0  0  0  0  0  0  0  0  0
    0.5869   14.7626   38.7804 C   0  0  0  0  0  0  0  0  0  0  0  0
   -1.3066   15.4360   41.9416 C   0  0  0  0  0  0  0  0  0  0  0  0
    2.6931   18.4347   40.7017 C   0  0  0  0  0  0  0  0  0  0  0  0
    3.5204   19.2502   39.9273 C   0  0  0  0  0  0  0  0  0  0  0  0
    1.2958   18.1127   42.6929 N   0  0  0  0  0  0  0  0  0  0  0  0
    0.6351   16.4607   41.0872 N   0  0  0  0  0  0  0  0  0  0  0  0
    4.8159   22.6612   39.8147 O   0  0  0  0  0  0  0  0  0  0  0  0
    5.1815   20.9771   38.3739 O   0  0  0  0  0  0  0  0  0  0  0  0
    3.8582   18.8526   38.6554 O   0  0  0  0  0  0  0  0  0  0  0  0
   -1.0309   16.6866   43.0939 S   0  0  0  0  0  0  0  0  0  0  0  0
   -0.5510   12.2203   35.9407 Cl  0  0  0  0  0  0  0  0  0  0  0  0
    3.8346   21.9017   41.9816 H   0  0  0  0  0  0  0  0  0  0  0  0
    2.1433   20.6087   43.2625 H   0  0  0  0  0  0  0  0  0  0  0  0
   -2.2560   13.6214   40.2578 H   0  0  0  0  0  0  0  0  0  0  0  0
   -2.2979   12.2326   38.1869 H   0  0  0  0  0  0  0  0  0  0  0  0
    1.3527   14.1221   36.8512 H   0  0  0  0  0  0  0  0  0  0  0  0
    1.4057   15.4789   38.9433 H   0  0  0  0  0  0  0  0  0  0  0  0
   -2.1345   14.7135   41.9921 H   0  0  0  0  0  0  0  0  0  0  0  0
    2.3857   17.4474   40.3265 H   0  0  0  0  0  0  0  0  0  0  0  0
    1.2005   18.3843   43.6819 H   0  0  0  0  0  0  0  0  0  0  0  0
  1  2  1  0
  1 19  1  0
  1 20  2  0
  2  3  1  0
  2 16  2  0
  3  4  2  0
  4  5  1  0
  5 15  2  0
  5 17  1  0
  6 17  1  0
  6 18  2  0
  6 22  1  0
  7  8  1  0
  7 14  2  0
  7 18  1  0
  8  9  1  0
  8 13  2  0
  9 10  2  0
 10 11  1  0
 11 12  2  0
 11 23  1  0
 12 13  1  0
 14 22  1  0
 15 16  1  0
 16 21  1  0
  3 24  1  0
  4 25  1  0
  9 26  1  0
 10 27  1  0
 12 28  1  0
 13 29  1  0
 14 30  1  0
 15 31  1  0
 17 32  1  0
M  CHG  2  19  -1  21  -1
M  END
>  <mol_id>  (61) 
2026-08-23-6tgu-s0-n100-r9-0061

>  <rmsd_to_ref>  (61) 
3.209183673476763

$$$$
6tgu.A
     RDKit          3D

 32 34  0  0  0  0  0  0  0  0999 V2000
    3.1510   20.6203   35.6166 C   0  0  0  0  0  0  0  0  0  0  0  0
    2.8387   19.7666   36.7323 C   0  0  0  0  0  0  0  0  0  0  0  0
    1.7723   20.0519   37.5520 C   0  0  0  0  0  0  0  0  0  0  0  0
    1.5182   19.1910   38.6152 C   0  0  0  0  0  0  0  0  0  0  0  0
    2.2687   18.0825   38.8870 C   0  0  0  0  0  0  0  0  0  0  0  0
    1.3951   17.5029   41.1510 C   0  0  0  0  0  0  0  0  0  0  0  0
    0.5267   17.0666   43.2340 C   0  0  0  0  0  0  0  0  0  0  0  0
    0.2452   16.1694   44.3885 C   0  0  0  0  0  0  0  0  0  0  0  0
   -0.4228   16.6387   45.4837 C   0  0  0  0  0  0  0  0  0  0  0  0
   -0.6530   15.7594   46.5192 C   0  0  0  0  0  0  0  0  0  0  0  0
   -0.2501   14.4440   46.5112 C   0  0  0  0  0  0  0  0  0  0  0  0
    0.4220   13.9727   45.4086 C   0  0  0  0  0  0  0  0  0  0  0  0
    0.6527   14.8524   44.3720 C   0  0  0  0  0  0  0  0  0  0  0  0
    0.0617   18.4471   43.3263 C   0  0  0  0  0  0  0  0  0  0  0  0
    3.3456   17.8256   38.0296 C   0  0  0  0  0  0  0  0  0  0  0  0
    3.6225   18.6576   36.9699 C   0  0  0  0  0  0  0  0  0  0  0  0
    2.0900   17.1830   39.9469 N   0  0  0  0  0  0  0  0  0  0  0  0
    1.1326   16.7231   42.1912 N   0  0  0  0  0  0  0  0  0  0  0  0
    2.3971   21.7605   35.3196 O   0  0  0  0  0  0  0  0  0  0  0  0
    4.1201   20.3838   34.8499 O   0  0  0  0  0  0  0  0  0  0  0  0
    4.7032   18.3362   36.1693 O   0  0  0  0  0  0  0  0  0  0  0  0
    0.6886   19.0431   41.6447 S   0  0  0  0  0  0  0  0  0  0  0  0
   -0.5857   13.3818   47.8833 Cl  0  0  0  0  0  0  0  0  0  0  0  0
    1.1323   20.9255   37.3876 H   0  0  0  0  0  0  0  0  0  0  0  0
    0.6705   19.4448   39.2254 H   0  0  0  0  0  0  0  0  0  0  0  0
   -0.7725   17.6506   45.5728 H   0  0  0  0  0  0  0  0  0  0  0  0
   -1.1834   16.1447   47.3811 H   0  0  0  0  0  0  0  0  0  0  0  0
    0.7437   12.9330   45.3950 H   0  0  0  0  0  0  0  0  0  0  0  0
    1.1860   14.4951   43.4860 H   0  0  0  0  0  0  0  0  0  0  0  0
   -0.4093   18.9617   43.9793 H   0  0  0  0  0  0  0  0  0  0  0  0
    3.9785   16.9509   38.2019 H   0  0  0  0  0  0  0  0  0  0  0  0
    2.4711   16.2122   39.8913 H   0  0  0  0  0  0  0  0  0  0  0  0
  1  2  1  0
  1 19  1  0
  1 20  2  0
  2  3  1  0
  2 16  2  0
  3  4  2  0
  4  5  1  0
  5 15  2  0
  5 17  1  0
  6 17  1  0
  6 18  2  0
  6 22  1  0
  7  8  1  0
  7 14  2  0
  7 18  1  0
  8  9  1  0
  8 13  2  0
  9 10  2  0
 10 11  1  0
 11 12  2  0
 11 23  1  0
 12 13  1  0
 14 22  1  0
 15 16  1  0
 16 21  1  0
  3 24  1  0
  4 25  1  0
  9 26  1  0
 10 27  1  0
 12 28  1  0
 13 29  1  0
 14 30  1  0
 15 31  1  0
 17 32  1  0
M  CHG  2  19  -1  21  -1
M  END
>  <mol_id>  (62) 
2026-08-23-6tgu-s0-n100-r9-0062

>  <rmsd_to_ref>  (62) 
3.2551020408202582

$$$$
6tgu.A
     RDKit          3D

 32 34  0  0  0  0  0  0  0  0999 V2000
    0.0392   21.5979   39.9724 C   0  0  0  0  0  0  0  0  0  0  0  0
    0.5865   20.6750   41.0648 C   0  0  0  0  0  0  0  0  0  0  0  0
    0.2781   20.9038   42.4039 C   0  0  0  0  0  0  0  0  0  0  0  0
    0.5979   19.9827   43.4068 C   0  0  0  0  0  0  0  0  0  0  0  0
    1.4013   18.8716   43.1122 C   0  0  0  0  0  0  0  0  0  0  0  0
    2.0080   16.5671   43.9980 C   0  0  0  0  0  0  0  0  0  0  0  0
    2.5858   14.6209   42.9713 C   0  0  0  0  0  0  0  0  0  0  0  0
    2.9789   13.7842   41.8370 C   0  0  0  0  0  0  0  0  0  0  0  0
    3.1043   12.3922   41.9484 C   0  0  0  0  0  0  0  0  0  0  0  0
    3.4466   11.6118   40.8484 C   0  0  0  0  0  0  0  0  0  0  0  0
    3.6196   12.2303   39.6245 C   0  0  0  0  0  0  0  0  0  0  0  0
    3.4997   13.6030   39.4684 C   0  0  0  0  0  0  0  0  0  0  0  0
    3.1678   14.3679   40.5833 C   0  0  0  0  0  0  0  0  0  0  0  0
    2.3264   14.1368   44.2263 C   0  0  0  0  0  0  0  0  0  0  0  0
    1.7112   18.6207   41.7679 C   0  0  0  0  0  0  0  0  0  0  0  0
    1.3076   19.5215   40.7805 C   0  0  0  0  0  0  0  0  0  0  0  0
    1.6834   17.8884   44.1097 N   0  0  0  0  0  0  0  0  0  0  0  0
    2.3235   15.9984   42.7823 N   0  0  0  0  0  0  0  0  0  0  0  0
   -0.8224   22.4523   40.3340 O   0  0  0  0  0  0  0  0  0  0  0  0
    0.4244   21.3820   38.8024 O   0  0  0  0  0  0  0  0  0  0  0  0
    1.5252   19.2137   39.4585 O   0  0  0  0  0  0  0  0  0  0  0  0
    1.7087   15.3771   45.2500 S   0  0  0  0  0  0  0  0  0  0  0  0
    4.0058   11.2668   38.2375 Cl  0  0  0  0  0  0  0  0  0  0  0  0
   -0.2326   21.8377   42.6812 H   0  0  0  0  0  0  0  0  0  0  0  0
    0.2184   20.1301   44.4287 H   0  0  0  0  0  0  0  0  0  0  0  0
    2.9292   11.9092   42.9210 H   0  0  0  0  0  0  0  0  0  0  0  0
    3.5769   10.5244   40.9508 H   0  0  0  0  0  0  0  0  0  0  0  0
    3.6627   14.0756   38.4885 H   0  0  0  0  0  0  0  0  0  0  0  0
    3.0518   15.4562   40.4737 H   0  0  0  0  0  0  0  0  0  0  0  0
    2.4907   13.0950   44.5387 H   0  0  0  0  0  0  0  0  0  0  0  0
    2.2716   17.7154   41.4916 H   0  0  0  0  0  0  0  0  0  0  0  0
    1.6334   18.2357   45.0781 H   0  0  0  0  0  0  0  0  0  0  0  0
  1  2  1  0
  1 19  1  0
  1 20  2  0
  2  3  1  0
  2 16  2  0
  3  4  2  0
  4  5  1  0
  5 15  2  0
  5 17  1  0
  6 17  1  0
  6 18  2  0
  6 22  1  0
  7  8  1  0
  7 14  2  0
  7 18  1  0
  8  9  1  0
  8 13  2  0
  9 10  2  0
 10 11  1  0
 11 12  2  0
 11 23  1  0
 12 13  1  0
 14 22  1  0
 15 16  1  0
 16 21  1  0
  3 24  1  0
  4 25  1  0
  9 26  1  0
 10 27  1  0
 12 28  1  0
 13 29  1  0
 14 30  1  0
 15 31  1  0
 17 32  1  0
M  CHG  2  19  -1  21  -1
M  END
>  <mol_id>  (63) 
2026-08-23-6tgu-s0-n100-r9-0063

>  <rmsd_to_ref>  (63) 
3.301020408168698

$$$$
6tgu.A
     RDKit          3D

 32 34  0  0  0  0  0  0  0  0999 V2000
   -0.1648   22.7744   39.9484 C   0  0  0  0  0  0  0  0  0  0  0  0
   -0.3442   21.3904   40.3050 C   0  0  0  0  0  0  0  0  0  0  0  0
   -0.4067   21.0159   41.6206 C   0  0  0  0  0  0  0  0  0  0  0  0
   -0.5820   19.7037   41.9945 C   0  0  0  0  0  0  0  0  0  0  0  0
   -0.7067   18.6719   41.0591 C   0  0  0  0  0  0  0  0  0  0  0  0
    0.1056   16.5113   42.0593 C   0  0  0  0  0  0  0  0  0  0  0  0
    1.6576   14.9329   42.4320 C   0  0  0  0  0  0  0  0  0  0  0  0
    2.4048   13.7526   41.9302 C   0  0  0  0  0  0  0  0  0  0  0  0
    3.3496   13.1273   42.7117 C   0  0  0  0  0  0  0  0  0  0  0  0
    4.0503   12.0178   42.2209 C   0  0  0  0  0  0  0  0  0  0  0  0
    3.8055   11.5424   40.9629 C   0  0  0  0  0  0  0  0  0  0  0  0
    2.8523   12.1570   40.1516 C   0  0  0  0  0  0  0  0  0  0  0  0
    2.1878   13.2417   40.6689 C   0  0  0  0  0  0  0  0  0  0  0  0
    1.8938   15.4487   43.7062 C   0  0  0  0  0  0  0  0  0  0  0  0
   -0.6435   19.0460   39.7370 C   0  0  0  0  0  0  0  0  0  0  0  0
   -0.4670   20.3717   39.3619 C   0  0  0  0  0  0  0  0  0  0  0  0
   -0.8911   17.3484   41.5145 N   0  0  0  0  0  0  0  0  0  0  0  0
    0.7443   15.5848   41.7668 N   0  0  0  0  0  0  0  0  0  0  0  0
   -0.0843   23.2508   38.6472 O   0  0  0  0  0  0  0  0  0  0  0  0
   -0.0678   23.6568   40.8608 O   0  0  0  0  0  0  0  0  0  0  0  0
   -0.4014   20.7688   38.0290 O   0  0  0  0  0  0  0  0  0  0  0  0
    0.7529   16.8424   43.8105 S   0  0  0  0  0  0  0  0  0  0  0  0
    4.6509   10.1620   40.3058 Cl  0  0  0  0  0  0  0  0  0  0  0  0
   -0.3111   21.8117   42.3635 H   0  0  0  0  0  0  0  0  0  0  0  0
   -0.6181   19.4931   43.0471 H   0  0  0  0  0  0  0  0  0  0  0  0
    3.5580   13.4979   43.7280 H   0  0  0  0  0  0  0  0  0  0  0  0
    4.7959   11.5481   42.8722 H   0  0  0  0  0  0  0  0  0  0  0  0
    2.6500   11.7761   39.1349 H   0  0  0  0  0  0  0  0  0  0  0  0
    1.4440   13.7187   40.0305 H   0  0  0  0  0  0  0  0  0  0  0  0
    2.5686   15.1367   44.4658 H   0  0  0  0  0  0  0  0  0  0  0  0
   -0.7330   18.2791   38.9756 H   0  0  0  0  0  0  0  0  0  0  0  0
   -1.8665   16.9587   41.4409 H   0  0  0  0  0  0  0  0  0  0  0  0
  1  2  1  0
  1 19  1  0
  1 20  2  0
  2  3  1  0
  2 16  2  0
  3  4  2  0
  4  5  1  0
  5 15  2  0
  5 17  1  0
  6 17  1  0
  6 18  2  0
  6 22  1  0
  7  8  1  0
  7 14  2  0
  7 18  1  0
  8  9  1  0
  8 13  2  0
  9 10  2  0
 10 11  1  0
 11 12  2  0
 11 23  1  0
 12 13  1  0
 14 22  1  0
 15 16  1  0
 16 21  1  0
  3 24  1  0
  4 25  1  0
  9 26  1  0
 10 27  1  0
 12 28  1  0
 13 29  1  0
 14 30  1  0
 15 31  1  0
 17 32  1  0
M  CHG  2  19  -1  21  -1
M  END
>  <mol_id>  (64) 
2026-08-23-6tgu-s0-n100-r9-0064

>  <rmsd_to_ref>  (64) 
3.346938775519689

$$$$
6tgu.A
     RDKit          3D

 32 34  0  0  0  0  0  0  0  0999 V2000
    4.7090   19.3068   37.9607 C   0  0  0  0  0  0  0  0  0  0  0  0
    4.5088   18.3053   39.1016 C   0  0  0  0  0  0  0  0  0  0  0  0
    5.1318   18.5012   40.3322 C   0  0  0  0  0  0  0  0  0  0  0  0
    4.8267   17.7194   41.4511 C   0  0  0  0  0  0  0  0  0  0  0  0
    4.0036   16.5916   41.3189 C   0  0  0  0  0  0  0  0  0  0  0  0
    2.5463   15.0232   42.6899 C   0  0  0  0  0  0  0  0  0  0  0  0
    0.6440   13.8703   42.2126 C   0  0  0  0  0  0  0  0  0  0  0  0
   -0.3983   13.3330   41.3374 C   0  0  0  0  0  0  0  0  0  0  0  0
   -1.5199   12.6605   41.8433 C   0  0  0  0  0  0  0  0  0  0  0  0
   -2.5161   12.1870   40.9951 C   0  0  0  0  0  0  0  0  0  0  0  0
   -2.4037   12.4304   39.6392 C   0  0  0  0  0  0  0  0  0  0  0  0
   -1.3146   13.0962   39.0972 C   0  0  0  0  0  0  0  0  0  0  0  0
   -0.3227   13.5521   39.9610 C   0  0  0  0  0  0  0  0  0  0  0  0
    0.6329   13.7541   43.5775 C   0  0  0  0  0  0  0  0  0  0  0  0
    3.3600   16.3863   40.0901 C   0  0  0  0  0  0  0  0  0  0  0  0
    3.6272   17.2346   39.0139 C   0  0  0  0  0  0  0  0  0  0  0  0
    3.6308   15.8206   42.4624 N   0  0  0  0  0  0  0  0  0  0  0  0
    1.6796   14.6720   41.6769 N   0  0  0  0  0  0  0  0  0  0  0  0
    5.3177   20.3786   38.2501 O   0  0  0  0  0  0  0  0  0  0  0  0
    4.1873   19.0238   36.8601 O   0  0  0  0  0  0  0  0  0  0  0  0
    2.9139   17.0883   37.8479 O   0  0  0  0  0  0  0  0  0  0  0  0
    1.9106   14.6681   44.2846 S   0  0  0  0  0  0  0  0  0  0  0  0
   -3.6566   11.8827   38.5753 Cl  0  0  0  0  0  0  0  0  0  0  0  0
    5.8871   19.2953   40.4267 H   0  0  0  0  0  0  0  0  0  0  0  0
    5.2331   17.9897   42.4369 H   0  0  0  0  0  0  0  0  0  0  0  0
   -1.6136   12.5047   42.9281 H   0  0  0  0  0  0  0  0  0  0  0  0
   -3.3760   11.6302   41.3957 H   0  0  0  0  0  0  0  0  0  0  0  0
   -1.2365   13.2598   38.0122 H   0  0  0  0  0  0  0  0  0  0  0  0
    0.5397   14.0972   39.5498 H   0  0  0  0  0  0  0  0  0  0  0  0
   -0.0950   13.1568   44.1462 H   0  0  0  0  0  0  0  0  0  0  0  0
    2.6455   15.5580   39.9743 H   0  0  0  0  0  0  0  0  0  0  0  0
    4.2932   15.8757   43.2493 H   0  0  0  0  0  0  0  0  0  0  0  0
  1  2  1  0
  1 19  1  0
  1 20  2  0
  2  3  1  0
  2 16  2  0
  3  4  2  0
  4  5  1  0
  5 15  2  0
  5 17  1  0
  6 17  1  0
  6 18  2  0
  6 22  1  0
  7  8  1  0
  7 14  2  0
  7 18  1  0
  8  9  1  0
  8 13  2  0
  9 10  2  0
 10 11  1  0
 11 12  2  0
 11 23  1  0
 12 13  1  0
 14 22  1  0
 15 16  1  0
 16 21  1  0
  3 24  1  0
  4 25  1  0
  9 26  1  0
 10 27  1  0
 12 28  1  0
 13 29  1  0
 14 30  1  0
 15 31  1  0
 17 32  1  0
M  CHG  2  19  -1  21  -1
M  END
>  <mol_id>  (65) 
2026-08-23-6tgu-s0-n100-r9-0065

>  <rmsd_to_ref>  (65) 
3.392857142862802

$$$$
6tgu.A
     RDKit          3D

 32 34  0  0  0  0  0  0  0  0999 V2000
   -0.3163   21.3747   37.4221 C   0  0  0  0  0  0  0  0  0  0  0  0
   -0.0794   20.2310   38.3169 C   0  0  0  0  0  0  0  0  0  0  0  0
   -0.1597   20.3795   39.6831 C   0  0  0  0  0  0  0  0  0  0  0  0
    0.0726   19.2803   40.5138 C   0  0  0  0  0  0  0  0  0  0  0  0
    0.3806   18.0464   40.0258 C   0  0  0  0  0  0  0  0  0  0  0  0
    1.1207   16.8455   42.0971 C   0  0  0  0  0  0  0  0  0  0  0  0
    1.8205   16.0317   44.1116 C   0  0  0  0  0  0  0  0  0  0  0  0
    2.0944   14.8976   45.0236 C   0  0  0  0  0  0  0  0  0  0  0  0
    2.5744   15.1160   46.2881 C   0  0  0  0  0  0  0  0  0  0  0  0
    2.8122   14.0294   47.0980 C   0  0  0  0  0  0  0  0  0  0  0  0
    2.5815   12.7166   46.6774 C   0  0  0  0  0  0  0  0  0  0  0  0
    2.0981   12.5018   45.4030 C   0  0  0  0  0  0  0  0  0  0  0  0
    1.8666   13.6064   44.6065 C   0  0  0  0  0  0  0  0  0  0  0  0
    2.0728   17.3893   44.5922 C   0  0  0  0  0  0  0  0  0  0  0  0
    0.4541   17.9279   38.6369 C   0  0  0  0  0  0  0  0  0  0  0  0
    0.2289   18.9973   37.8008 C   0  0  0  0  0  0  0  0  0  0  0  0
    0.6539   16.8890   40.7751 N   0  0  0  0  0  0  0  0  0  0  0  0
    1.3800   15.9484   42.9317 N   0  0  0  0  0  0  0  0  0  0  0  0
   -0.2300   21.2173   36.0571 O   0  0  0  0  0  0  0  0  0  0  0  0
   -0.6008   22.5137   37.8690 O   0  0  0  0  0  0  0  0  0  0  0  0
    0.3130   18.8320   36.4358 O   0  0  0  0  0  0  0  0  0  0  0  0
    1.5648   18.3607   43.0736 S   0  0  0  0  0  0  0  0  0  0  0  0
    2.9026   11.3663   47.7514 Cl  0  0  0  0  0  0  0  0  0  0  0  0
   -0.4036   21.3562   40.0984 H   0  0  0  0  0  0  0  0  0  0  0  0
   -0.0166   19.4639   41.5600 H   0  0  0  0  0  0  0  0  0  0  0  0
    2.7729   16.1163   46.6698 H   0  0  0  0  0  0  0  0  0  0  0  0
    3.1967   14.2355   48.1057 H   0  0  0  0  0  0  0  0  0  0  0  0
    1.8990   11.5056   45.0188 H   0  0  0  0  0  0  0  0  0  0  0  0
    1.4835   13.4659   43.5902 H   0  0  0  0  0  0  0  0  0  0  0  0
    2.4054   17.7473   45.4408 H   0  0  0  0  0  0  0  0  0  0  0  0
    0.6932   16.9765   38.1913 H   0  0  0  0  0  0  0  0  0  0  0  0
    0.4948   15.9597   40.3122 H   0  0  0  0  0  0  0  0  0  0  0  0
  1  2  1  0
  1 19  1  0
  1 20  2  0
  2  3  1  0
  2 16  2  0
  3  4  2  0
  4  5  1  0
  5 15  2  0
  5 17  1  0
  6 17  1  0
  6 18  2  0
  6 22  1  0
  7  8  1  0
  7 14  2  0
  7 18  1  0
  8  9  1  0
  8 13  2  0
  9 10  2  0
 10 11  1  0
 11 12  2  0
 11 23  1  0
 12 13  1  0
 14 22  1  0
 15 16  1  0
 16 21  1  0
  3 24  1  0
  4 25  1  0
  9 26  1  0
 10 27  1  0
 12 28  1  0
 13 29  1  0
 14 30  1  0
 15 31  1  0
 17 32  1  0
M  CHG  2  19  -1  21  -1
M  END
>  <mol_id>  (66) 
2026-08-23-6tgu-s0-n100-r9-0066

>  <rmsd_to_ref>  (66) 
3.438775510207955

$$$$
6tgu.A
     RDKit          3D

 32 34  0  0  0  0  0  0  0  0999 V2000
   -0.3546   16.5912   36.1055 C   0  0  0  0  0  0  0  0  0  0  0  0
    0.1536   17.3635   37.3261 C   0  0  0  0  0  0  0  0  0  0  0  0
    0.0665   18.7531   37.3705 C   0  0  0  0  0  0  0  0  0  0  0  0
    0.3416   19.4770   38.5353 C   0  0  0  0  0  0  0  0  0  0  0  0
    0.8872   18.8304   39.6538 C   0  0  0  0  0  0  0  0  0  0  0  0
    1.1782   19.1081   42.1640 C   0  0  0  0  0  0  0  0  0  0  0  0
    1.2592   17.6204   43.8833 C   0  0  0  0  0  0  0  0  0  0  0  0
    1.3460   16.2886   44.4833 C   0  0  0  0  0  0  0  0  0  0  0  0
    1.2321   16.0876   45.8663 C   0  0  0  0  0  0  0  0  0  0  0  0
    1.2839   14.8091   46.4127 C   0  0  0  0  0  0  0  0  0  0  0  0
    1.4063   13.7280   45.5602 C   0  0  0  0  0  0  0  0  0  0  0  0
    1.5164   13.8809   44.1863 C   0  0  0  0  0  0  0  0  0  0  0  0
    1.4739   15.1689   43.6598 C   0  0  0  0  0  0  0  0  0  0  0  0
    1.0807   18.7734   44.6009 C   0  0  0  0  0  0  0  0  0  0  0  0
    0.9713   17.4310   39.6296 C   0  0  0  0  0  0  0  0  0  0  0  0
    0.6127   16.7317   38.4757 C   0  0  0  0  0  0  0  0  0  0  0  0
    1.1138   19.5426   40.8714 N   0  0  0  0  0  0  0  0  0  0  0  0
    1.2270   17.7661   42.4762 N   0  0  0  0  0  0  0  0  0  0  0  0
   -0.9945   17.2590   35.2408 O   0  0  0  0  0  0  0  0  0  0  0  0
   -0.1684   15.3547   36.0991 O   0  0  0  0  0  0  0  0  0  0  0  0
    0.5994   15.3573   38.4979 O   0  0  0  0  0  0  0  0  0  0  0  0
    0.8333   20.1191   43.5541 S   0  0  0  0  0  0  0  0  0  0  0  0
    1.4311   12.1274   46.2229 Cl  0  0  0  0  0  0  0  0  0  0  0  0
   -0.2279   19.2980   36.4614 H   0  0  0  0  0  0  0  0  0  0  0  0
    0.1296   20.5557   38.5741 H   0  0  0  0  0  0  0  0  0  0  0  0
    1.0996   16.9548   46.5300 H   0  0  0  0  0  0  0  0  0  0  0  0
    1.2284   14.6615   47.5013 H   0  0  0  0  0  0  0  0  0  0  0  0
    1.6343   13.0066   43.5292 H   0  0  0  0  0  0  0  0  0  0  0  0
    1.5426   15.3073   42.5707 H   0  0  0  0  0  0  0  0  0  0  0  0
    1.0936   18.8323   45.6992 H   0  0  0  0  0  0  0  0  0  0  0  0
    1.3193   16.8848   40.5188 H   0  0  0  0  0  0  0  0  0  0  0  0
    1.2521   20.5565   40.7541 H   0  0  0  0  0  0  0  0  0  0  0  0
  1  2  1  0
  1 19  1  0
  1 20  2  0
  2  3  1  0
  2 16  2  0
  3  4  2  0
  4  5  1  0
  5 15  2  0
  5 17  1  0
  6 17  1  0
  6 18  2  0
  6 22  1  0
  7  8  1  0
  7 14  2  0
  7 18  1  0
  8  9  1  0
  8 13  2  0
  9 10  2  0
 10 11  1  0
 11 12  2  0
 11 23  1  0
 12 13  1  0
 14 22  1  0
 15 16  1  0
 16 21  1  0
  3 24  1  0
  4 25  1  0
  9 26  1  0
 10 27  1  0
 12 28  1  0
 13 29  1  0
 14 30  1  0
 15 31  1  0
 17 32  1  0
M  CHG  2  19  -1  21  -1
M  END
>  <mol_id>  (67) 
2026-08-23-6tgu-s0-n100-r9-0067

>  <rmsd_to_ref>  (67) 
3.484693877557372

$$$$
6tgu.A
     RDKit          3D

 32 34  0  0  0  0  0  0  0  0999 V2000
    3.4344   21.4919   41.2201 C   0  0  0  0  0  0  0  0  0  0  0  0
    2.7341   20.3489   41.8090 C   0  0  0  0  0  0  0  0  0  0  0  0
    1.8117   20.5074   42.8311 C   0  0  0  0  0  0  0  0  0  0  0  0
    1.1860   19.3943   43.3444 C   0  0  0  0  0  0  0  0  0  0  0  0
    1.4643   18.1307   42.8563 C   0  0  0  0  0  0  0  0  0  0  0  0
    1.0685   15.6950   42.8856 C   0  0  0  0  0  0  0  0  0  0  0  0
    1.0865   13.7500   41.7786 C   0  0  0  0  0  0  0  0  0  0  0  0
    0.5115   12.8672   40.7378 C   0  0  0  0  0  0  0  0  0  0  0  0
   -0.5795   13.2883   39.9711 C   0  0  0  0  0  0  0  0  0  0  0  0
   -1.1116   12.4601   39.0021 C   0  0  0  0  0  0  0  0  0  0  0  0
   -0.5971   11.2085   38.7573 C   0  0  0  0  0  0  0  0  0  0  0  0
    0.4790   10.7870   39.5099 C   0  0  0  0  0  0  0  0  0  0  0  0
    0.9989   11.6259   40.4738 C   0  0  0  0  0  0  0  0  0  0  0  0
    2.1685   13.3190   42.5378 C   0  0  0  0  0  0  0  0  0  0  0  0
    2.3854   17.9623   41.8339 C   0  0  0  0  0  0  0  0  0  0  0  0
    3.0111   19.0808   41.3215 C   0  0  0  0  0  0  0  0  0  0  0  0
    0.8122   17.0004   43.3992 N   0  0  0  0  0  0  0  0  0  0  0  0
    0.6903   14.9533   42.1046 N   0  0  0  0  0  0  0  0  0  0  0  0
    3.1820   22.7774   41.6824 O   0  0  0  0  0  0  0  0  0  0  0  0
    4.2520   21.2470   40.2997 O   0  0  0  0  0  0  0  0  0  0  0  0
    3.9416   18.8814   40.2842 O   0  0  0  0  0  0  0  0  0  0  0  0
    2.5019   14.6950   43.6433 S   0  0  0  0  0  0  0  0  0  0  0  0
   -1.3346   10.2309   37.5128 Cl  0  0  0  0  0  0  0  0  0  0  0  0
    1.6033   21.5193   43.2063 H   0  0  0  0  0  0  0  0  0  0  0  0
    0.4522   19.5013   44.1543 H   0  0  0  0  0  0  0  0  0  0  0  0
   -0.9735   14.2789   40.1763 H   0  0  0  0  0  0  0  0  0  0  0  0
   -1.9518   12.8385   38.4442 H   0  0  0  0  0  0  0  0  0  0  0  0
    0.8986    9.8183   39.3394 H   0  0  0  0  0  0  0  0  0  0  0  0
    1.8506   11.2542   41.0473 H   0  0  0  0  0  0  0  0  0  0  0  0
    2.7094   12.3917   42.5056 H   0  0  0  0  0  0  0  0  0  0  0  0
    2.5901   16.9651   41.4645 H   0  0  0  0  0  0  0  0  0  0  0  0
    0.1320   17.1045   44.1857 H   0  0  0  0  0  0  0  0  0  0  0  0
  1  2  1  0
  1 19  1  0
  1 20  2  0
  2  3  1  0
  2 16  2  0
  3  4  2  0
  4  5  1  0
  5 15  2  0
  5 17  1  0
  6 17  1  0
  6 18  2  0
  6 22  1  0
  7  8  1  0
  7 14  2  0
  7 18  1  0
  8  9  1  0
  8 13  2  0
  9 10  2  0
 10 11  1  0
 11 12  2  0
 11 23  1  0
 12 13  1  0
 14 22  1  0
 15 16  1  0
 16 21  1  0
  3 24  1  0
  4 25  1  0
  9 26  1  0
 10 27  1  0
 12 28  1  0
 13 29  1  0
 14 30  1  0
 15 31  1  0
 17 32  1  0
M  CHG  2  19  -1  21  -1
M  END
>  <mol_id>  (68) 
2026-08-23-6tgu-s0-n100-r9-0068

>  <rmsd_to_ref>  (68) 
3.5306122449042374

$$$$
6tgu.A
     RDKit          3D

 32 34  0  0  0  0  0  0  0  0999 V2000
   -0.3241   21.6335   39.0675 C   0  0  0  0  0  0  0  0  0  0  0  0
   -0.5410   20.3900   39.9342 C   0  0  0  0  0  0  0  0  0  0  0  0
   -1.7636   20.1724   40.5657 C   0  0  0  0  0  0  0  0  0  0  0  0
   -2.0638   18.9654   41.2055 C   0  0  0  0  0  0  0  0  0  0  0  0
   -1.0670   17.9947   41.3813 C   0  0  0  0  0  0  0  0  0  0  0  0
   -0.7698   15.5136   41.8494 C   0  0  0  0  0  0  0  0  0  0  0  0
    0.8071   14.0007   41.2167 C   0  0  0  0  0  0  0  0  0  0  0  0
    2.0801   13.5751   40.6340 C   0  0  0  0  0  0  0  0  0  0  0  0
    2.4095   12.2214   40.4761 C   0  0  0  0  0  0  0  0  0  0  0  0
    3.6114   11.8387   39.8886 C   0  0  0  0  0  0  0  0  0  0  0  0
    4.4627   12.8213   39.4195 C   0  0  0  0  0  0  0  0  0  0  0  0
    4.1738   14.1714   39.5499 C   0  0  0  0  0  0  0  0  0  0  0  0
    2.9716   14.5342   40.1508 C   0  0  0  0  0  0  0  0  0  0  0  0
   -0.1545   13.1369   41.6700 C   0  0  0  0  0  0  0  0  0  0  0  0
    0.1655   18.1931   40.7429 C   0  0  0  0  0  0  0  0  0  0  0  0
    0.4050   19.3778   40.0441 C   0  0  0  0  0  0  0  0  0  0  0  0
   -1.3732   16.7318   41.9750 N   0  0  0  0  0  0  0  0  0  0  0  0
    0.4484   15.3695   41.2200 N   0  0  0  0  0  0  0  0  0  0  0  0
   -1.3465   22.3412   38.8289 O   0  0  0  0  0  0  0  0  0  0  0  0
    0.8229   21.8057   38.6002 O   0  0  0  0  0  0  0  0  0  0  0  0
    1.5749   19.5172   39.3358 O   0  0  0  0  0  0  0  0  0  0  0  0
   -1.5885   13.9852   42.1078 S   0  0  0  0  0  0  0  0  0  0  0  0
    5.9439   12.3592   38.6488 Cl  0  0  0  0  0  0  0  0  0  0  0  0
   -2.5161   20.9747   40.5610 H   0  0  0  0  0  0  0  0  0  0  0  0
   -3.0839   18.7771   41.5714 H   0  0  0  0  0  0  0  0  0  0  0  0
    1.7065   11.4494   40.8223 H   0  0  0  0  0  0  0  0  0  0  0  0
    3.8786   10.7754   39.7992 H   0  0  0  0  0  0  0  0  0  0  0  0
    4.8767   14.9361   39.1878 H   0  0  0  0  0  0  0  0  0  0  0  0
    2.7186   15.6004   40.2470 H   0  0  0  0  0  0  0  0  0  0  0  0
   -0.0279   12.0467   41.7445 H   0  0  0  0  0  0  0  0  0  0  0  0
    0.9428   17.4163   40.7926 H   0  0  0  0  0  0  0  0  0  0  0  0
   -2.1879   16.7421   42.6050 H   0  0  0  0  0  0  0  0  0  0  0  0
  1  2  1  0
  1 19  1  0
  1 20  2  0
  2  3  1  0
  2 16  2  0
  3  4  2  0
  4  5  1  0
  5 15  2  0
  5 17  1  0
  6 17  1  0
  6 18  2  0
  6 22  1  0
  7  8  1  0
  7 14  2  0
  7 18  1  0
  8  9  1  0
  8 13  2  0
  9 10  2  0
 10 11  1  0
 11 12  2  0
 11 23  1  0
 12 13  1  0
 14 22  1  0
 15 16  1  0
 16 21  1  0
  3 24  1  0
  4 25  1  0
  9 26  1  0
 10 27  1  0
 12 28  1  0
 13 29  1  0
 14 30  1  0
 15 31  1  0
 17 32  1  0
M  CHG  2  19  -1  21  -1
M  END
>  <mol_id>  (69) 
2026-08-23-6tgu-s0-n100-r9-0069

>  <rmsd_to_ref>  (69) 
3.576530612251832

$$$$
6tgu.A
     RDKit          3D

 32 34  0  0  0  0  0  0  0  0999 V2000
    2.4365   19.4728   35.4982 C   0  0  0  0  0  0  0  0  0  0  0  0
    2.2426   19.2837   36.9296 C   0  0  0  0  0  0  0  0  0  0  0  0
    1.7983   20.2842   37.7574 C   0  0  0  0  0  0  0  0  0  0  0  0
    1.6267   20.0740   39.0946 C   0  0  0  0  0  0  0  0  0  0  0  0
    1.8900   18.8354   39.7050 C   0  0  0  0  0  0  0  0  0  0  0  0
    1.4387   17.5891   41.8445 C   0  0  0  0  0  0  0  0  0  0  0  0
    1.0500   16.1639   43.5465 C   0  0  0  0  0  0  0  0  0  0  0  0
    0.9126   15.9183   44.9760 C   0  0  0  0  0  0  0  0  0  0  0  0
    1.0556   16.9292   45.9007 C   0  0  0  0  0  0  0  0  0  0  0  0
    0.9319   16.7255   47.2636 C   0  0  0  0  0  0  0  0  0  0  0  0
    0.6505   15.4433   47.7208 C   0  0  0  0  0  0  0  0  0  0  0  0
    0.5025   14.4130   46.8136 C   0  0  0  0  0  0  0  0  0  0  0  0
    0.6342   14.6615   45.4647 C   0  0  0  0  0  0  0  0  0  0  0  0
    0.8927   15.0750   42.5981 C   0  0  0  0  0  0  0  0  0  0  0  0
    2.3334   17.8518   38.8584 C   0  0  0  0  0  0  0  0  0  0  0  0
    2.5083   18.0610   37.5034 C   0  0  0  0  0  0  0  0  0  0  0  0
    1.6940   18.7468   41.0747 N   0  0  0  0  0  0  0  0  0  0  0  0
    1.3077   17.2764   42.9534 N   0  0  0  0  0  0  0  0  0  0  0  0
    2.1811   20.6856   34.8838 O   0  0  0  0  0  0  0  0  0  0  0  0
    2.8523   18.4744   34.8312 O   0  0  0  0  0  0  0  0  0  0  0  0
    2.9636   17.0095   36.7022 O   0  0  0  0  0  0  0  0  0  0  0  0
    1.1613   15.9243   40.9883 S   0  0  0  0  0  0  0  0  0  0  0  0
    0.4811   15.1148   49.4259 Cl  0  0  0  0  0  0  0  0  0  0  0  0
    1.5897   21.2545   37.2940 H   0  0  0  0  0  0  0  0  0  0  0  0
    1.2693   20.9050   39.7126 H   0  0  0  0  0  0  0  0  0  0  0  0
    1.2749   17.9296   45.5514 H   0  0  0  0  0  0  0  0  0  0  0  0
    1.0546   17.5616   47.9587 H   0  0  0  0  0  0  0  0  0  0  0  0
    0.2855   13.4239   47.1683 H   0  0  0  0  0  0  0  0  0  0  0  0
    0.5072   13.8148   44.8009 H   0  0  0  0  0  0  0  0  0  0  0  0
    0.6886   14.0947   42.7514 H   0  0  0  0  0  0  0  0  0  0  0  0
    2.5690   16.8869   39.2339 H   0  0  0  0  0  0  0  0  0  0  0  0
    1.7366   19.6470   41.6472 H   0  0  0  0  0  0  0  0  0  0  0  0
  1  2  1  0
  1 19  1  0
  1 20  2  0
  2  3  1  0
  2 16  2  0
  3  4  2  0
  4  5  1  0
  5 15  2  0
  5 17  1  0
  6 17  1  0
  6 18  2  0
  6 22  1  0
  7  8  1  0
  7 14  2  0
  7 18  1  0
  8  9  1  0
  8 13  2  0
  9 10  2  0
 10 11  1  0
 11 12  2  0
 11 23  1  0
 12 13  1  0
 14 22  1  0
 15 16  1  0
 16 21  1  0
  3 24  1  0
  4 25  1  0
  9 26  1  0
 10 27  1  0
 12 28  1  0
 13 29  1  0
 14 30  1  0
 15 31  1  0
 17 32  1  0
M  CHG  2  19  -1  21  -1
M  END
>  <mol_id>  (70) 
2026-08-23-6tgu-s0-n100-r9-0070

>  <rmsd_to_ref>  (70) 
3.622448979593419

$$$$
6tgu.A
     RDKit          3D

 32 34  0  0  0  0  0  0  0  0999 V2000
    4.9826   19.7571   41.2519 C   0  0  0  0  0  0  0  0  0  0  0  0
    3.5431   19.2381   41.3093 C   0  0  0  0  0  0  0  0  0  0  0  0
    2.4792   20.1212   41.4790 C   0  0  0  0  0  0  0  0  0  0  0  0
    1.1478   19.7130   41.3472 C   0  0  0  0  0  0  0  0  0  0  0  0
    0.8390   18.3518   41.2112 C   0  0  0  0  0  0  0  0  0  0  0  0
   -1.0153   16.8045   40.4169 C   0  0  0  0  0  0  0  0  0  0  0  0
   -1.0002   14.7460   39.4485 C   0  0  0  0  0  0  0  0  0  0  0  0
   -0.3905   13.4913   39.0065 C   0  0  0  0  0  0  0  0  0  0  0  0
   -1.1025   12.5412   38.2605 C   0  0  0  0  0  0  0  0  0  0  0  0
   -0.4933   11.3698   37.8216 C   0  0  0  0  0  0  0  0  0  0  0  0
    0.8472   11.1760   38.0969 C   0  0  0  0  0  0  0  0  0  0  0  0
    1.5903   12.0919   38.8263 C   0  0  0  0  0  0  0  0  0  0  0  0
    0.9599   13.2525   39.2664 C   0  0  0  0  0  0  0  0  0  0  0  0
   -2.3005   15.0958   39.1969 C   0  0  0  0  0  0  0  0  0  0  0  0
    1.8979   17.4511   41.0281 C   0  0  0  0  0  0  0  0  0  0  0  0
    3.2166   17.9058   41.0866 C   0  0  0  0  0  0  0  0  0  0  0  0
   -0.5097   17.9247   41.0113 N   0  0  0  0  0  0  0  0  0  0  0  0
   -0.2086   15.7429   40.0661 N   0  0  0  0  0  0  0  0  0  0  0  0
    5.1283   21.0137   41.1977 O   0  0  0  0  0  0  0  0  0  0  0  0
    5.8914   18.9011   41.1817 O   0  0  0  0  0  0  0  0  0  0  0  0
    4.2423   17.0356   40.8024 O   0  0  0  0  0  0  0  0  0  0  0  0
   -2.6112   16.7149   39.6968 S   0  0  0  0  0  0  0  0  0  0  0  0
    1.6295    9.7412   37.5216 Cl  0  0  0  0  0  0  0  0  0  0  0  0
    2.6926   21.1721   41.7241 H   0  0  0  0  0  0  0  0  0  0  0  0
    0.3415   20.4611   41.3502 H   0  0  0  0  0  0  0  0  0  0  0  0
   -2.1597   12.7249   38.0184 H   0  0  0  0  0  0  0  0  0  0  0  0
   -1.0672   10.6131   37.2665 H   0  0  0  0  0  0  0  0  0  0  0  0
    2.6509   11.9061   39.0513 H   0  0  0  0  0  0  0  0  0  0  0  0
    1.5388   13.9977   39.8316 H   0  0  0  0  0  0  0  0  0  0  0  0
   -3.0468   14.4314   38.7370 H   0  0  0  0  0  0  0  0  0  0  0  0
    1.6899   16.3877   40.8386 H   0  0  0  0  0  0  0  0  0  0  0  0
   -1.2218   18.5722   41.3781 H   0  0  0  0  0  0  0  0  0  0  0  0
  1  2  1  0
  1 19  1  0
  1 20  2  0
  2  3  1  0
  2 16  2  0
  3  4  2  0
  4  5  1  0
  5 15  2  0
  5 17  1  0
  6 17  1  0
  6 18  2  0
  6 22  1  0
  7  8  1  0
  7 14  2  0
  7 18  1  0
  8  9  1  0
  8 13  2  0
  9 10  2  0
 10 11  1  0
 11 12  2  0
 11 23  1  0
 12 13  1  0
 14 22  1  0
 15 16  1  0
 16 21  1  0
  3 24  1  0
  4 25  1  0
  9 26  1  0
 10 27  1  0
 12 28  1  0
 13 29  1  0
 14 30  1  0
 15 31  1  0
 17 32  1  0
M  CHG  2  19  -1  21  -1
M  END
>  <mol_id>  (71) 
2026-08-23-6tgu-s0-n100-r9-0071

>  <rmsd_to_ref>  (71) 
3.6683673469420346

$$$$
6tgu.A
     RDKit          3D

 32 34  0  0  0  0  0  0  0  0999 V2000
    1.7111   18.5119   35.2995 C   0  0  0  0  0  0  0  0  0  0  0  0
    1.2478   17.8678   36.5198 C   0  0  0  0  0  0  0  0  0  0  0  0
   -0.0972   17.7344   36.7811 C   0  0  0  0  0  0  0  0  0  0  0  0
   -0.5607   17.1306   37.9288 C   0  0  0  0  0  0  0  0  0  0  0  0
    0.3217   16.6172   38.8977 C   0  0  0  0  0  0  0  0  0  0  0  0
    0.3783   15.9846   41.3462 C   0  0  0  0  0  0  0  0  0  0  0  0
    0.9923   15.7329   43.4882 C   0  0  0  0  0  0  0  0  0  0  0  0
    0.6765   15.0738   44.7792 C   0  0  0  0  0  0  0  0  0  0  0  0
    1.4776   15.3041   45.8764 C   0  0  0  0  0  0  0  0  0  0  0  0
    1.1973   14.6985   47.0772 C   0  0  0  0  0  0  0  0  0  0  0  0
    0.1232   13.8471   47.2431 C   0  0  0  0  0  0  0  0  0  0  0  0
   -0.6919   13.6109   46.1326 C   0  0  0  0  0  0  0  0  0  0  0  0
   -0.3903   14.2274   44.9467 C   0  0  0  0  0  0  0  0  0  0  0  0
    2.0190   16.5487   43.3051 C   0  0  0  0  0  0  0  0  0  0  0  0
    1.6564   16.7673   38.6035 C   0  0  0  0  0  0  0  0  0  0  0  0
    2.1257   17.3737   37.4511 C   0  0  0  0  0  0  0  0  0  0  0  0
   -0.2357   16.0129   40.0040 N   0  0  0  0  0  0  0  0  0  0  0  0
    0.2616   15.5514   42.4039 N   0  0  0  0  0  0  0  0  0  0  0  0
    0.7931   18.9984   34.3839 O   0  0  0  0  0  0  0  0  0  0  0  0
    2.9504   18.6187   35.0921 O   0  0  0  0  0  0  0  0  0  0  0  0
    3.4899   17.4924   37.2174 O   0  0  0  0  0  0  0  0  0  0  0  0
    1.9336   17.0490   41.5902 S   0  0  0  0  0  0  0  0  0  0  0  0
   -0.2143   13.0854   48.7835 Cl  0  0  0  0  0  0  0  0  0  0  0  0
   -0.8429   18.1135   36.0677 H   0  0  0  0  0  0  0  0  0  0  0  0
   -1.6403   17.0563   38.0747 H   0  0  0  0  0  0  0  0  0  0  0  0
    2.3168   15.9608   45.7718 H   0  0  0  0  0  0  0  0  0  0  0  0
    1.8578   14.9128   47.9073 H   0  0  0  0  0  0  0  0  0  0  0  0
   -1.5439   12.9575   46.1968 H   0  0  0  0  0  0  0  0  0  0  0  0
   -1.0418   14.0313   44.0825 H   0  0  0  0  0  0  0  0  0  0  0  0
    2.8494   16.9238   44.0223 H   0  0  0  0  0  0  0  0  0  0  0  0
    2.4051   16.3911   39.2788 H   0  0  0  0  0  0  0  0  0  0  0  0
   -1.1353   15.5333   39.9624 H   0  0  0  0  0  0  0  0  0  0  0  0
  1  2  1  0
  1 19  1  0
  1 20  2  0
  2  3  1  0
  2 16  2  0
  3  4  2  0
  4  5  1  0
  5 15  2  0
  5 17  1  0
  6 17  1  0
  6 18  2  0
  6 22  1  0
  7  8  1  0
  7 14  2  0
  7 18  1  0
  8  9  1  0
  8 13  2  0
  9 10  2  0
 10 11  1  0
 11 12  2  0
 11 23  1  0
 12 13  1  0
 14 22  1  0
 15 16  1  0
 16 21  1  0
  3 24  1  0
  4 25  1  0
  9 26  1  0
 10 27  1  0
 12 28  1  0
 13 29  1  0
 14 30  1  0
 15 31  1  0
 17 32  1  0
M  CHG  2  19  -1  21  -1
M  END
>  <mol_id>  (72) 
2026-08-23-6tgu-s0-n100-r9-0072

>  <rmsd_to_ref>  (72) 
3.714285714287294

$$$$
6tgu.A
     RDKit          3D

 32 34  0  0  0  0  0  0  0  0999 V2000
    1.1426   15.8305   35.0745 C   0  0  0  0  0  0  0  0  0  0  0  0
    1.1794   16.8552   36.2117 C   0  0  0  0  0  0  0  0  0  0  0  0
    0.8253   18.1824   35.9796 C   0  0  0  0  0  0  0  0  0  0  0  0
    0.6634   19.1003   37.0225 C   0  0  0  0  0  0  0  0  0  0  0  0
    1.0268   18.7506   38.3311 C   0  0  0  0  0  0  0  0  0  0  0  0
    0.6309   19.4236   40.7505 C   0  0  0  0  0  0  0  0  0  0  0  0
    0.5615   18.2389   42.6915 C   0  0  0  0  0  0  0  0  0  0  0  0
    0.7451   17.0546   43.5311 C   0  0  0  0  0  0  0  0  0  0  0  0
    0.3326   17.0221   44.8708 C   0  0  0  0  0  0  0  0  0  0  0  0
    0.4861   15.8740   45.6417 C   0  0  0  0  0  0  0  0  0  0  0  0
    1.0157   14.7432   45.0491 C   0  0  0  0  0  0  0  0  0  0  0  0
    1.4313   14.7297   43.7261 C   0  0  0  0  0  0  0  0  0  0  0  0
    1.2799   15.8917   42.9746 C   0  0  0  0  0  0  0  0  0  0  0  0
   -0.0015   19.4083   43.1295 C   0  0  0  0  0  0  0  0  0  0  0  0
    1.3747   17.4160   38.5837 C   0  0  0  0  0  0  0  0  0  0  0  0
    1.4500   16.5044   37.5290 C   0  0  0  0  0  0  0  0  0  0  0  0
    0.8078   19.6535   39.4165 N   0  0  0  0  0  0  0  0  0  0  0  0
    0.8514   18.1820   41.3077 N   0  0  0  0  0  0  0  0  0  0  0  0
    0.6229   16.2137   33.9853 O   0  0  0  0  0  0  0  0  0  0  0  0
    1.5527   14.6784   35.3359 O   0  0  0  0  0  0  0  0  0  0  0  0
    1.6892   15.1783   37.8007 O   0  0  0  0  0  0  0  0  0  0  0  0
   -0.2299   20.5095   41.8245 S   0  0  0  0  0  0  0  0  0  0  0  0
    1.1752   13.2941   45.9851 Cl  0  0  0  0  0  0  0  0  0  0  0  0
    0.6682   18.5188   34.9442 H   0  0  0  0  0  0  0  0  0  0  0  0
    0.2503   20.0986   36.8158 H   0  0  0  0  0  0  0  0  0  0  0  0
   -0.1198   17.9187   45.3196 H   0  0  0  0  0  0  0  0  0  0  0  0
    0.1920   15.8665   46.7016 H   0  0  0  0  0  0  0  0  0  0  0  0
    1.8696   13.8238   43.2819 H   0  0  0  0  0  0  0  0  0  0  0  0
    1.5885   15.8934   41.9188 H   0  0  0  0  0  0  0  0  0  0  0  0
   -0.2718   19.6166   44.1753 H   0  0  0  0  0  0  0  0  0  0  0  0
    1.5881   17.0876   39.6117 H   0  0  0  0  0  0  0  0  0  0  0  0
    0.7785   20.6470   39.1466 H   0  0  0  0  0  0  0  0  0  0  0  0
  1  2  1  0
  1 19  1  0
  1 20  2  0
  2  3  1  0
  2 16  2  0
  3  4  2  0
  4  5  1  0
  5 15  2  0
  5 17  1  0
  6 17  1  0
  6 18  2  0
  6 22  1  0
  7  8  1  0
  7 14  2  0
  7 18  1  0
  8  9  1  0
  8 13  2  0
  9 10  2  0
 10 11  1  0
 11 12  2  0
 11 23  1  0
 12 13  1  0
 14 22  1  0
 15 16  1  0
 16 21  1  0
  3 24  1  0
  4 25  1  0
  9 26  1  0
 10 27  1  0
 12 28  1  0
 13 29  1  0
 14 30  1  0
 15 31  1  0
 17 32  1  0
M  CHG  2  19  -1  21  -1
M  END
>  <mol_id>  (73) 
2026-08-23-6tgu-s0-n100-r9-0073

>  <rmsd_to_ref>  (73) 
3.7602040816378683

$$$$
6tgu.A
     RDKit          3D

 32 34  0  0  0  0  0  0  0  0999 V2000
    1.7373   18.3040   36.1461 C   0  0  0  0  0  0  0  0  0  0  0  0
    1.9942   17.7731   37.4970 C   0  0  0  0  0  0  0  0  0  0  0  0
    3.2445   17.3232   37.8429 C   0  0  0  0  0  0  0  0  0  0  0  0
    3.4962   16.8310   39.0848 C   0  0  0  0  0  0  0  0  0  0  0  0
    2.5060   16.7554   40.0716 C   0  0  0  0  0  0  0  0  0  0  0  0
    2.0515   15.6048   42.2550 C   0  0  0  0  0  0  0  0  0  0  0  0
    1.1649   14.5372   44.0795 C   0  0  0  0  0  0  0  0  0  0  0  0
    1.2961   14.0141   45.4323 C   0  0  0  0  0  0  0  0  0  0  0  0
    0.2379   13.3940   46.0492 C   0  0  0  0  0  0  0  0  0  0  0  0
    0.4073   12.9118   47.3340 C   0  0  0  0  0  0  0  0  0  0  0  0
    1.5909   13.0216   48.0332 C   0  0  0  0  0  0  0  0  0  0  0  0
    2.6377   13.6489   47.3900 C   0  0  0  0  0  0  0  0  0  0  0  0
    2.4880   14.1365   46.1083 C   0  0  0  0  0  0  0  0  0  0  0  0
   -0.1057   14.4210   43.3193 C   0  0  0  0  0  0  0  0  0  0  0  0
    1.2665   17.2100   39.7055 C   0  0  0  0  0  0  0  0  0  0  0  0
    0.9931   17.7167   38.4370 C   0  0  0  0  0  0  0  0  0  0  0  0
    2.8691   16.2470   41.3269 N   0  0  0  0  0  0  0  0  0  0  0  0
    2.0635   15.1341   43.3884 N   0  0  0  0  0  0  0  0  0  0  0  0
    0.4639   18.7504   35.8324 O   0  0  0  0  0  0  0  0  0  0  0  0
    2.6571   18.3551   35.2823 O   0  0  0  0  0  0  0  0  0  0  0  0
   -0.2915   18.1635   38.1265 O   0  0  0  0  0  0  0  0  0  0  0  0
    0.2347   15.1859   41.7714 S   0  0  0  0  0  0  0  0  0  0  0  0
    1.7044   12.3802   49.6508 Cl  0  0  0  0  0  0  0  0  0  0  0  0
    4.0459   17.3672   37.0939 H   0  0  0  0  0  0  0  0  0  0  0  0
    4.5207   16.4874   39.2950 H   0  0  0  0  0  0  0  0  0  0  0  0
   -0.7181   13.2561   45.6012 H   0  0  0  0  0  0  0  0  0  0  0  0
   -0.4183   12.4224   47.8277 H   0  0  0  0  0  0  0  0  0  0  0  0
    3.5631   13.7390   47.9263 H   0  0  0  0  0  0  0  0  0  0  0  0
    3.3125   14.6298   45.6031 H   0  0  0  0  0  0  0  0  0  0  0  0
   -1.0356   13.9314   43.7291 H   0  0  0  0  0  0  0  0  0  0  0  0
    0.4403   17.2071   40.3932 H   0  0  0  0  0  0  0  0  0  0  0  0
    3.8868   16.3637   41.6095 H   0  0  0  0  0  0  0  0  0  0  0  0
  1  2  1  0
  1 19  1  0
  1 20  2  0
  2  3  1  0
  2 16  2  0
  3  4  2  0
  4  5  1  0
  5 15  2  0
  5 17  1  0
  6 17  1  0
  6 18  2  0
  6 22  1  0
  7  8  1  0
  7 14  2  0
  7 18  1  0
  8  9  1  0
  8 13  2  0
  9 10  2  0
 10 11  1  0
 11 12  2  0
 11 23  1  0
 12 13  1  0
 14 22  1  0
 15 16  1  0
 16 21  1  0
  3 24  1  0
  4 25  1  0
  9 26  1  0
 10 27  1  0
 12 28  1  0
 13 29  1  0
 14 30  1  0
 15 31  1  0
 17 32  1  0
M  CHG  2  19  -1  21  -1
M  END
>  <mol_id>  (74) 
2026-08-23-6tgu-s0-n100-r9-0074

>  <rmsd_to_ref>  (74) 
3.80612244898101

$$$$
6tgu.A
     RDKit          3D

 32 34  0  0  0  0  0  0  0  0999 V2000
   -0.6231   17.3815   35.6374 C   0  0  0  0  0  0  0  0  0  0  0  0
   -0.1616   17.8626   37.0159 C   0  0  0  0  0  0  0  0  0  0  0  0
   -0.9789   18.6850   37.7881 C   0  0  0  0  0  0  0  0  0  0  0  0
   -0.6792   18.9889   39.1201 C   0  0  0  0  0  0  0  0  0  0  0  0
    0.5555   18.6116   39.6678 C   0  0  0  0  0  0  0  0  0  0  0  0
    1.7038   18.2274   41.9032 C   0  0  0  0  0  0  0  0  0  0  0  0
    3.3429   16.7985   42.5720 C   0  0  0  0  0  0  0  0  0  0  0  0
    4.4095   15.8163   42.3750 C   0  0  0  0  0  0  0  0  0  0  0  0
    5.0462   15.1842   43.4525 C   0  0  0  0  0  0  0  0  0  0  0  0
    6.0350   14.2282   43.2418 C   0  0  0  0  0  0  0  0  0  0  0  0
    6.3516   13.8767   41.9431 C   0  0  0  0  0  0  0  0  0  0  0  0
    5.7430   14.4723   40.8486 C   0  0  0  0  0  0  0  0  0  0  0  0
    4.7642   15.4348   41.0800 C   0  0  0  0  0  0  0  0  0  0  0  0
    2.8876   17.1985   43.8005 C   0  0  0  0  0  0  0  0  0  0  0  0
    1.3850   17.7746   38.9078 C   0  0  0  0  0  0  0  0  0  0  0  0
    1.0175   17.4249   37.6072 C   0  0  0  0  0  0  0  0  0  0  0  0
    0.8507   18.8578   41.0438 N   0  0  0  0  0  0  0  0  0  0  0  0
    2.6235   17.3000   41.4616 N   0  0  0  0  0  0  0  0  0  0  0  0
   -1.8252   17.6288   35.3260 O   0  0  0  0  0  0  0  0  0  0  0  0
    0.1953   16.7156   34.9661 O   0  0  0  0  0  0  0  0  0  0  0  0
    1.7846   16.5217   36.9104 O   0  0  0  0  0  0  0  0  0  0  0  0
    1.5046   18.2137   43.6449 S   0  0  0  0  0  0  0  0  0  0  0  0
    7.5518   12.6585   41.6657 Cl  0  0  0  0  0  0  0  0  0  0  0  0
   -1.8881   19.1085   37.3364 H   0  0  0  0  0  0  0  0  0  0  0  0
   -1.4135   19.5248   39.7394 H   0  0  0  0  0  0  0  0  0  0  0  0
    4.7593   15.4483   44.4811 H   0  0  0  0  0  0  0  0  0  0  0  0
    6.5543   13.7615   44.0918 H   0  0  0  0  0  0  0  0  0  0  0  0
    6.0265   14.1914   39.8235 H   0  0  0  0  0  0  0  0  0  0  0  0
    4.2590   15.9050   40.2235 H   0  0  0  0  0  0  0  0  0  0  0  0
    3.3443   16.9098   44.7587 H   0  0  0  0  0  0  0  0  0  0  0  0
    2.3241   17.3940   39.3359 H   0  0  0  0  0  0  0  0  0  0  0  0
    0.3313   19.6449   41.4580 H   0  0  0  0  0  0  0  0  0  0  0  0
  1  2  1  0
  1 19  1  0
  1 20  2  0
  2  3  1  0
  2 16  2  0
  3  4  2  0
  4  5  1  0
  5 15  2  0
  5 17  1  0
  6 17  1  0
  6 18  2  0
  6 22  1  0
  7  8  1  0
  7 14  2  0
  7 18  1  0
  8  9  1  0
  8 13  2  0
  9 10  2  0
 10 11  1  0
 11 12  2  0
 11 23  1  0
 12 13  1  0
 14 22  1  0
 15 16  1  0
 16 21  1  0
  3 24  1  0
  4 25  1  0
  9 26  1  0
 10 27  1  0
 12 28  1  0
 13 29  1  0
 14 30  1  0
 15 31  1  0
 17 32  1  0
M  CHG  2  19  -1  21  -1
M  END
>  <mol_id>  (75) 
2026-08-23-6tgu-s0-n100-r9-0075

>  <rmsd_to_ref>  (75) 
3.852040816331404

$$$$
6tgu.A
     RDKit          3D

 32 34  0  0  0  0  0  0  0  0999 V2000
   -0.5053   22.2410   40.3090 C   0  0  0  0  0  0  0  0  0  0  0  0
   -0.2838   20.8311   40.5663 C   0  0  0  0  0  0  0  0  0  0  0  0
   -1.2338   20.0011   41.1006 C   0  0  0  0  0  0  0  0  0  0  0  0
   -0.9905   18.6663   41.3318 C   0  0  0  0  0  0  0  0  0  0  0  0
    0.2521   18.0773   41.0312 C   0  0  0  0  0  0  0  0  0  0  0  0
    1.3051   15.8108   40.7056 C   0  0  0  0  0  0  0  0  0  0  0  0
    2.4899   13.9906   40.1318 C   0  0  0  0  0  0  0  0  0  0  0  0
    2.8048   12.5758   40.4004 C   0  0  0  0  0  0  0  0  0  0  0  0
    2.2064   11.8677   41.4261 C   0  0  0  0  0  0  0  0  0  0  0  0
    2.5187   10.5523   41.6530 C   0  0  0  0  0  0  0  0  0  0  0  0
    3.4400    9.8757   40.8729 C   0  0  0  0  0  0  0  0  0  0  0  0
    4.0361   10.5809   39.8513 C   0  0  0  0  0  0  0  0  0  0  0  0
    3.7171   11.8973   39.6318 C   0  0  0  0  0  0  0  0  0  0  0  0
    3.0981   14.6818   39.1023 C   0  0  0  0  0  0  0  0  0  0  0  0
    1.1838   18.9316   40.4982 C   0  0  0  0  0  0  0  0  0  0  0  0
    0.9416   20.2783   40.2636 C   0  0  0  0  0  0  0  0  0  0  0  0
    0.4015   16.7344   41.3155 N   0  0  0  0  0  0  0  0  0  0  0  0
    1.6328   14.7042   40.8197 N   0  0  0  0  0  0  0  0  0  0  0  0
   -1.7085   22.8668   40.5863 O   0  0  0  0  0  0  0  0  0  0  0  0
    0.4381   22.9142   39.8142 O   0  0  0  0  0  0  0  0  0  0  0  0
    1.9537   21.0841   39.7131 O   0  0  0  0  0  0  0  0  0  0  0  0
    2.3469   16.3631   39.2275 S   0  0  0  0  0  0  0  0  0  0  0  0
    3.8568    8.2032   41.1378 Cl  0  0  0  0  0  0  0  0  0  0  0  0
   -2.2072   20.4012   41.3505 H   0  0  0  0  0  0  0  0  0  0  0  0
   -1.7856   18.0550   41.7592 H   0  0  0  0  0  0  0  0  0  0  0  0
    1.4885   12.3628   42.0484 H   0  0  0  0  0  0  0  0  0  0  0  0
    2.0295   10.0098   42.4749 H   0  0  0  0  0  0  0  0  0  0  0  0
    4.7722   10.1099   39.1967 H   0  0  0  0  0  0  0  0  0  0  0  0
    4.2176   12.4185   38.8060 H   0  0  0  0  0  0  0  0  0  0  0  0
    3.8317   14.4178   38.3568 H   0  0  0  0  0  0  0  0  0  0  0  0
    2.1689   18.5819   40.2459 H   0  0  0  0  0  0  0  0  0  0  0  0
   -0.2050   16.3011   42.0670 H   0  0  0  0  0  0  0  0  0  0  0  0
  1  2  1  0
  1 19  1  0
  1 20  2  0
  2  3  1  0
  2 16  2  0
  3  4  2  0
  4  5  1  0
  5 15  2  0
  5 17  1  0
  6 17  1  0
  6 18  2  0
  6 22  1  0
  7  8  1  0
  7 14  2  0
  7 18  1  0
  8  9  1  0
  8 13  2  0
  9 10  2  0
 10 11  1  0
 11 12  2  0
 11 23  1  0
 12 13  1  0
 14 22  1  0
 15 16  1  0
 16 21  1  0
  3 24  1  0
  4 25  1  0
  9 26  1  0
 10 27  1  0
 12 28  1  0
 13 29  1  0
 14 30  1  0
 15 31  1  0
 17 32  1  0
M  CHG  2  19  -1  21  -1
M  END
>  <mol_id>  (76) 
2026-08-23-6tgu-s0-n100-r9-0076

>  <rmsd_to_ref>  (76) 
3.8979591836759515

$$$$
6tgu.A
     RDKit          3D

 32 34  0  0  0  0  0  0  0  0999 V2000
    2.6434   23.0426   41.7125 C   0  0  0  0  0  0  0  0  0  0  0  0
    1.5757   22.1392   41.0891 C   0  0  0  0  0  0  0  0  0  0  0  0
    0.7211   22.6299   40.1045 C   0  0  0  0  0  0  0  0  0  0  0  0
   -0.1342   21.7931   39.3801 C   0  0  0  0  0  0  0  0  0  0  0  0
   -0.2826   20.4483   39.7492 C   0  0  0  0  0  0  0  0  0  0  0  0
   -1.0608   18.2095   38.8297 C   0  0  0  0  0  0  0  0  0  0  0  0
   -0.4048   16.0667   39.2219 C   0  0  0  0  0  0  0  0  0  0  0  0
    0.3143   15.0071   39.9299 C   0  0  0  0  0  0  0  0  0  0  0  0
    0.3206   13.6808   39.4748 C   0  0  0  0  0  0  0  0  0  0  0  0
    1.0388   12.6953   40.1447 C   0  0  0  0  0  0  0  0  0  0  0  0
    1.7874   13.0554   41.2494 C   0  0  0  0  0  0  0  0  0  0  0  0
    1.8142   14.3559   41.7301 C   0  0  0  0  0  0  0  0  0  0  0  0
    1.0799   15.3254   41.0527 C   0  0  0  0  0  0  0  0  0  0  0  0
   -1.1388   15.8651   38.0830 C   0  0  0  0  0  0  0  0  0  0  0  0
    0.5777   19.9358   40.7307 C   0  0  0  0  0  0  0  0  0  0  0  0
    1.4768   20.7838   41.3800 C   0  0  0  0  0  0  0  0  0  0  0  0
   -1.1023   19.5656   38.9809 N   0  0  0  0  0  0  0  0  0  0  0  0
   -0.2632   17.4153   39.6259 N   0  0  0  0  0  0  0  0  0  0  0  0
    2.8091   24.1762   41.1735 O   0  0  0  0  0  0  0  0  0  0  0  0
    3.3186   22.5600   42.6478 O   0  0  0  0  0  0  0  0  0  0  0  0
    2.3857   20.2522   42.2639 O   0  0  0  0  0  0  0  0  0  0  0  0
   -1.6806   17.3624   37.4255 S   0  0  0  0  0  0  0  0  0  0  0  0
    2.7193   11.8469   42.0695 Cl  0  0  0  0  0  0  0  0  0  0  0  0
    0.7188   23.7088   39.8901 H   0  0  0  0  0  0  0  0  0  0  0  0
   -0.6916   22.1907   38.5191 H   0  0  0  0  0  0  0  0  0  0  0  0
   -0.2515   13.4153   38.5736 H   0  0  0  0  0  0  0  0  0  0  0  0
    1.0114   11.6504   39.8020 H   0  0  0  0  0  0  0  0  0  0  0  0
    2.4007   14.6148   42.6239 H   0  0  0  0  0  0  0  0  0  0  0  0
    1.1035   16.3654   41.4103 H   0  0  0  0  0  0  0  0  0  0  0  0
   -1.3536   14.8786   37.6465 H   0  0  0  0  0  0  0  0  0  0  0  0
    0.5442   18.8671   40.9888 H   0  0  0  0  0  0  0  0  0  0  0  0
   -1.8524   20.0319   38.4509 H   0  0  0  0  0  0  0  0  0  0  0  0
  1  2  1  0
  1 19  1  0
  1 20  2  0
  2  3  1  0
  2 16  2  0
  3  4  2  0
  4  5  1  0
  5 15  2  0
  5 17  1  0
  6 17  1  0
  6 18  2  0
  6 22  1  0
  7  8  1  0
  7 14  2  0
  7 18  1  0
  8  9  1  0
  8 13  2  0
  9 10  2  0
 10 11  1  0
 11 12  2  0
 11 23  1  0
 12 13  1  0
 14 22  1  0
 15 16  1  0
 16 21  1  0
  3 24  1  0
  4 25  1  0
  9 26  1  0
 10 27  1  0
 12 28  1  0
 13 29  1  0
 14 30  1  0
 15 31  1  0
 17 32  1  0
M  CHG  2  19  -1  21  -1
M  END
>  <mol_id>  (77) 
2026-08-23-6tgu-s0-n100-r9-0077

>  <rmsd_to_ref>  (77) 
3.943877551025278

$$$$
6tgu.A
     RDKit          3D

 32 34  0  0  0  0  0  0  0  0999 V2000
   -0.9911   19.8119   35.3409 C   0  0  0  0  0  0  0  0  0  0  0  0
   -0.1876   19.1641   36.3701 C   0  0  0  0  0  0  0  0  0  0  0  0
    1.1878   19.3102   36.3833 C   0  0  0  0  0  0  0  0  0  0  0  0
    1.9874   18.7202   37.3320 C   0  0  0  0  0  0  0  0  0  0  0  0
    1.4347   17.9321   38.3438 C   0  0  0  0  0  0  0  0  0  0  0  0
    1.9368   16.7996   40.5106 C   0  0  0  0  0  0  0  0  0  0  0  0
    2.4053   15.7524   42.4821 C   0  0  0  0  0  0  0  0  0  0  0  0
    3.3406   15.1207   43.4590 C   0  0  0  0  0  0  0  0  0  0  0  0
    2.8705   14.6162   44.6410 C   0  0  0  0  0  0  0  0  0  0  0  0
    3.7692   14.0407   45.5175 C   0  0  0  0  0  0  0  0  0  0  0  0
    5.1210   13.9468   45.2647 C   0  0  0  0  0  0  0  0  0  0  0  0
    5.5855   14.4571   44.0730 C   0  0  0  0  0  0  0  0  0  0  0  0
    4.6900   15.0287   43.2030 C   0  0  0  0  0  0  0  0  0  0  0  0
    1.0538   15.8224   42.7884 C   0  0  0  0  0  0  0  0  0  0  0  0
    0.0724   17.7925   38.3230 C   0  0  0  0  0  0  0  0  0  0  0  0
   -0.7397   18.3924   37.3586 C   0  0  0  0  0  0  0  0  0  0  0  0
    2.3188   17.3589   39.2700 N   0  0  0  0  0  0  0  0  0  0  0  0
    2.7951   16.2394   41.3637 N   0  0  0  0  0  0  0  0  0  0  0  0
   -2.3653   19.6329   35.3735 O   0  0  0  0  0  0  0  0  0  0  0  0
   -0.4576   20.5199   34.4386 O   0  0  0  0  0  0  0  0  0  0  0  0
   -2.1206   18.2225   37.3779 O   0  0  0  0  0  0  0  0  0  0  0  0
    0.4075   16.6643   41.2925 S   0  0  0  0  0  0  0  0  0  0  0  0
    6.1622   13.2030   46.4376 Cl  0  0  0  0  0  0  0  0  0  0  0  0
    1.6178   19.9230   35.5966 H   0  0  0  0  0  0  0  0  0  0  0  0
    3.0579   18.8813   37.2762 H   0  0  0  0  0  0  0  0  0  0  0  0
    1.8195   14.6537   44.9095 H   0  0  0  0  0  0  0  0  0  0  0  0
    3.3620   13.6502   46.4476 H   0  0  0  0  0  0  0  0  0  0  0  0
    6.6470   14.3879   43.8653 H   0  0  0  0  0  0  0  0  0  0  0  0
    5.0631   15.4355   42.2514 H   0  0  0  0  0  0  0  0  0  0  0  0
    0.4793   15.5150   43.6027 H   0  0  0  0  0  0  0  0  0  0  0  0
   -0.4271   17.2042   39.0523 H   0  0  0  0  0  0  0  0  0  0  0  0
    3.3377   17.3420   39.0231 H   0  0  0  0  0  0  0  0  0  0  0  0
  1  2  1  0
  1 19  1  0
  1 20  2  0
  2  3  1  0
  2 16  2  0
  3  4  2  0
  4  5  1  0
  5 15  2  0
  5 17  1  0
  6 17  1  0
  6 18  2  0
  6 22  1  0
  7  8  1  0
  7 14  2  0
  7 18  1  0
  8  9  1  0
  8 13  2  0
  9 10  2  0
 10 11  1  0
 11 12  2  0
 11 23  1  0
 12 13  1  0
 14 22  1  0
 15 16  1  0
 16 21  1  0
  3 24  1  0
  4 25  1  0
  9 26  1  0
 10 27  1  0
 12 28  1  0
 13 29  1  0
 14 30  1  0
 15 31  1  0
 17 32  1  0
M  CHG  2  19  -1  21  -1
M  END
>  <mol_id>  (78) 
2026-08-23-6tgu-s0-n100-r9-0078

>  <rmsd_to_ref>  (78) 
3.9897959183723466

$$$$
6tgu.A
     RDKit          3D

 32 34  0  0  0  0  0  0  0  0999 V2000
    4.9978   19.7863   35.9286 C   0  0  0  0  0  0  0  0  0  0  0  0
    4.7390   19.0982   37.2718 C   0  0  0  0  0  0  0  0  0  0  0  0
    5.6352   19.2485   38.3277 C   0  0  0  0  0  0  0  0  0  0  0  0
    5.3430   18.7970   39.6189 C   0  0  0  0  0  0  0  0  0  0  0  0
    4.2008   18.0167   39.8503 C   0  0  0  0  0  0  0  0  0  0  0  0
    2.6483   17.2721   41.7208 C   0  0  0  0  0  0  0  0  0  0  0  0
    0.4259   16.7897   41.7832 C   0  0  0  0  0  0  0  0  0  0  0  0
   -0.8909   16.5212   41.2045 C   0  0  0  0  0  0  0  0  0  0  0  0
   -2.0341   16.3613   42.0004 C   0  0  0  0  0  0  0  0  0  0  0  0
   -3.2826   16.1400   41.4276 C   0  0  0  0  0  0  0  0  0  0  0  0
   -3.3865   16.1239   40.0494 C   0  0  0  0  0  0  0  0  0  0  0  0
   -2.2832   16.2834   39.2247 C   0  0  0  0  0  0  0  0  0  0  0  0
   -1.0408   16.4923   39.8171 C   0  0  0  0  0  0  0  0  0  0  0  0
    0.6652   16.8901   43.1283 C   0  0  0  0  0  0  0  0  0  0  0  0
    3.2830   17.8651   38.8011 C   0  0  0  0  0  0  0  0  0  0  0  0
    3.5697   18.3977   37.5429 C   0  0  0  0  0  0  0  0  0  0  0  0
    3.8545   17.6022   41.1730 N   0  0  0  0  0  0  0  0  0  0  0  0
    1.5234   17.0946   40.9438 N   0  0  0  0  0  0  0  0  0  0  0  0
    5.9568   20.6122   35.8924 O   0  0  0  0  0  0  0  0  0  0  0  0
    4.1956   19.5398   35.0016 O   0  0  0  0  0  0  0  0  0  0  0  0
    2.6188   18.3342   36.5521 O   0  0  0  0  0  0  0  0  0  0  0  0
    2.2824   17.4012   43.4304 S   0  0  0  0  0  0  0  0  0  0  0  0
   -4.9413   15.8902   39.3216 Cl  0  0  0  0  0  0  0  0  0  0  0  0
    6.6025   19.7374   38.1403 H   0  0  0  0  0  0  0  0  0  0  0  0
    6.0104   19.0544   40.4546 H   0  0  0  0  0  0  0  0  0  0  0  0
   -1.9424   16.4115   43.0955 H   0  0  0  0  0  0  0  0  0  0  0  0
   -4.1693   15.9811   42.0589 H   0  0  0  0  0  0  0  0  0  0  0  0
   -2.3870   16.2457   38.1303 H   0  0  0  0  0  0  0  0  0  0  0  0
   -0.1577   16.6378   39.1776 H   0  0  0  0  0  0  0  0  0  0  0  0
   -0.0765   16.6732   43.9111 H   0  0  0  0  0  0  0  0  0  0  0  0
    2.3384   17.3272   38.9693 H   0  0  0  0  0  0  0  0  0  0  0  0
    4.6503   17.5421   41.8241 H   0  0  0  0  0  0  0  0  0  0  0  0
  1  2  1  0
  1 19  1  0
  1 20  2  0
  2  3  1  0
  2 16  2  0
  3  4  2  0
  4  5  1  0
  5 15  2  0
  5 17  1  0
  6 17  1  0
  6 18  2  0
  6 22  1  0
  7  8  1  0
  7 14  2  0
  7 18  1  0
  8  9  1  0
  8 13  2  0
  9 10  2  0
 10 11  1  0
 11 12  2  0
 11 23  1  0
 12 13  1  0
 14 22  1  0
 15 16  1  0
 16 21  1  0
  3 24  1  0
  4 25  1  0
  9 26  1  0
 10 27  1  0
 12 28  1  0
 13 29  1  0
 14 30  1  0
 15 31  1  0
 17 32  1  0
M  CHG  2  19  -1  21  -1
M  END
>  <mol_id>  (79) 
2026-08-23-6tgu-s0-n100-r9-0079

>  <rmsd_to_ref>  (79) 
4.035714285718126

$$$$
6tgu.A
     RDKit          3D

 32 34  0  0  0  0  0  0  0  0999 V2000
   -2.6395   22.3858   39.6099 C   0  0  0  0  0  0  0  0  0  0  0  0
   -1.6494   21.4073   40.0391 C   0  0  0  0  0  0  0  0  0  0  0  0
   -2.0520   20.1393   40.3777 C   0  0  0  0  0  0  0  0  0  0  0  0
   -1.1260   19.1870   40.7893 C   0  0  0  0  0  0  0  0  0  0  0  0
    0.2171   19.4363   40.8835 C   0  0  0  0  0  0  0  0  0  0  0  0
    1.1772   17.1114   41.1005 C   0  0  0  0  0  0  0  0  0  0  0  0
    1.6192   14.9169   41.1207 C   0  0  0  0  0  0  0  0  0  0  0  0
    2.5071   13.8352   41.5653 C   0  0  0  0  0  0  0  0  0  0  0  0
    3.6417   14.0647   42.3236 C   0  0  0  0  0  0  0  0  0  0  0  0
    4.4890   13.0990   42.7599 C   0  0  0  0  0  0  0  0  0  0  0  0
    4.2235   11.7870   42.4381 C   0  0  0  0  0  0  0  0  0  0  0  0
    3.0974   11.5200   41.6808 C   0  0  0  0  0  0  0  0  0  0  0  0
    2.2444   12.5211   41.2450 C   0  0  0  0  0  0  0  0  0  0  0  0
    0.4911   14.6634   40.3713 C   0  0  0  0  0  0  0  0  0  0  0  0
    0.6118   20.7416   40.5331 C   0  0  0  0  0  0  0  0  0  0  0  0
   -0.3026   21.6883   40.1254 C   0  0  0  0  0  0  0  0  0  0  0  0
    1.2171   18.5585   41.2630 N   0  0  0  0  0  0  0  0  0  0  0  0
    1.7906   16.1939   41.3822 N   0  0  0  0  0  0  0  0  0  0  0  0
   -2.1780   23.6677   39.2731 O   0  0  0  0  0  0  0  0  0  0  0  0
   -3.8671   22.1476   39.5262 O   0  0  0  0  0  0  0  0  0  0  0  0
    0.1323   22.9611   39.7906 O   0  0  0  0  0  0  0  0  0  0  0  0
   -0.2405   16.3641   40.1073 S   0  0  0  0  0  0  0  0  0  0  0  0
    5.3097   10.5324   42.9988 Cl  0  0  0  0  0  0  0  0  0  0  0  0
   -3.1217   19.8921   40.3187 H   0  0  0  0  0  0  0  0  0  0  0  0
   -1.5197   18.2279   41.0501 H   0  0  0  0  0  0  0  0  0  0  0  0
    3.8323   15.1111   42.5668 H   0  0  0  0  0  0  0  0  0  0  0  0
    5.3554   13.3961   43.3543 H   0  0  0  0  0  0  0  0  0  0  0  0
    2.8835   10.4791   41.4250 H   0  0  0  0  0  0  0  0  0  0  0  0
    1.3578   12.2713   40.6457 H   0  0  0  0  0  0  0  0  0  0  0  0
    0.0359   13.7950   39.9774 H   0  0  0  0  0  0  0  0  0  0  0  0
    1.6604   21.0160   40.5826 H   0  0  0  0  0  0  0  0  0  0  0  0
    2.0939   18.8987   41.7056 H   0  0  0  0  0  0  0  0  0  0  0  0
  1  2  1  0
  1 19  1  0
  1 20  2  0
  2  3  1  0
  2 16  2  0
  3  4  2  0
  4  5  1  0
  5 15  2  0
  5 17  1  0
  6 17  1  0
  6 18  2  0
  6 22  1  0
  7  8  1  0
  7 14  2  0
  7 18  1  0
  8  9  1  0
  8 13  2  0
  9 10  2  0
 10 11  1  0
 11 12  2  0
 11 23  1  0
 12 13  1  0
 14 22  1  0
 15 16  1  0
 16 21  1  0
  3 24  1  0
  4 25  1  0
  9 26  1  0
 10 27  1  0
 12 28  1  0
 13 29  1  0
 14 30  1  0
 15 31  1  0
 17 32  1  0
M  CHG  2  19  -1  21  -1
M  END
>  <mol_id>  (80) 
2026-08-23-6tgu-s0-n100-r9-0080

>  <rmsd_to_ref>  (80) 
4.081632653067692

$$$$
6tgu.A
     RDKit          3D

 32 34  0  0  0  0  0  0  0  0999 V2000
    6.3729   14.9744   37.3269 C   0  0  0  0  0  0  0  0  0  0  0  0
    5.5116   16.0456   38.0016 C   0  0  0  0  0  0  0  0  0  0  0  0
    5.2394   17.2472   37.3515 C   0  0  0  0  0  0  0  0  0  0  0  0
    4.3088   18.1655   37.8485 C   0  0  0  0  0  0  0  0  0  0  0  0
    3.7458   17.9796   39.1195 C   0  0  0  0  0  0  0  0  0  0  0  0
    1.7554   18.6868   40.5342 C   0  0  0  0  0  0  0  0  0  0  0  0
    0.5581   17.6290   42.1538 C   0  0  0  0  0  0  0  0  0  0  0  0
    0.2816   16.5639   43.1184 C   0  0  0  0  0  0  0  0  0  0  0  0
   -0.9114   16.5185   43.8538 C   0  0  0  0  0  0  0  0  0  0  0  0
   -1.1686   15.4782   44.7412 C   0  0  0  0  0  0  0  0  0  0  0  0
   -0.2418   14.4591   44.8549 C   0  0  0  0  0  0  0  0  0  0  0  0
    0.9480   14.4613   44.1426 C   0  0  0  0  0  0  0  0  0  0  0  0
    1.1921   15.5167   43.2682 C   0  0  0  0  0  0  0  0  0  0  0  0
   -0.2948   18.6695   41.8965 C   0  0  0  0  0  0  0  0  0  0  0  0
    4.0007   16.7705   39.7823 C   0  0  0  0  0  0  0  0  0  0  0  0
    4.8750   15.8388   39.2196 C   0  0  0  0  0  0  0  0  0  0  0  0
    2.7468   18.8731   39.6143 N   0  0  0  0  0  0  0  0  0  0  0  0
    1.7018   17.5578   41.3237 N   0  0  0  0  0  0  0  0  0  0  0  0
    6.6703   15.1712   36.1120 O   0  0  0  0  0  0  0  0  0  0  0  0
    6.6445   13.9573   38.0018 O   0  0  0  0  0  0  0  0  0  0  0  0
    5.0362   14.6153   39.8251 O   0  0  0  0  0  0  0  0  0  0  0  0
    0.2700   19.6171   40.5733 S   0  0  0  0  0  0  0  0  0  0  0  0
   -0.5670   13.1363   45.9254 Cl  0  0  0  0  0  0  0  0  0  0  0  0
    5.7729   17.4811   36.4184 H   0  0  0  0  0  0  0  0  0  0  0  0
    4.0178   19.0353   37.2413 H   0  0  0  0  0  0  0  0  0  0  0  0
   -1.6559   17.3182   43.7271 H   0  0  0  0  0  0  0  0  0  0  0  0
   -2.0911   15.4670   45.3403 H   0  0  0  0  0  0  0  0  0  0  0  0
    1.6803   13.6497   44.2653 H   0  0  0  0  0  0  0  0  0  0  0  0
    2.1232   15.5256   42.6825 H   0  0  0  0  0  0  0  0  0  0  0  0
   -1.2175   18.8730   42.4598 H   0  0  0  0  0  0  0  0  0  0  0  0
    3.5125   16.5564   40.7445 H   0  0  0  0  0  0  0  0  0  0  0  0
    2.7803   19.8189   39.2078 H   0  0  0  0  0  0  0  0  0  0  0  0
  1  2  1  0
  1 19  1  0
  1 20  2  0
  2  3  1  0
  2 16  2  0
  3  4  2  0
  4  5  1  0
  5 15  2  0
  5 17  1  0
  6 17  1  0
  6 18  2  0
  6 22  1  0
  7  8  1  0
  7 14  2  0
  7 18  1  0
  8  9  1  0
  8 13  2  0
  9 10  2  0
 10 11  1  0
 11 12  2  0
 11 23  1  0
 12 13  1  0
 14 22  1  0
 15 16  1  0
 16 21  1  0
  3 24  1  0
  4 25  1  0
  9 26  1  0
 10 27  1  0
 12 28  1  0
 13 29  1  0
 14 30  1  0
 15 31  1  0
 17 32  1  0
M  CHG  2  19  -1  21  -1
M  END
>  <mol_id>  (81) 
2026-08-23-6tgu-s0-n100-r9-0081

>  <rmsd_to_ref>  (81) 
4.127551020418306

$$$$
6tgu.A
     RDKit          3D

 32 34  0  0  0  0  0  0  0  0999 V2000
   -0.2279   22.2858   41.2241 C   0  0  0  0  0  0  0  0  0  0  0  0
    0.0008   20.8483   41.2839 C   0  0  0  0  0  0  0  0  0  0  0  0
   -0.8505   19.9871   41.9300 C   0  0  0  0  0  0  0  0  0  0  0  0
   -0.6075   18.6449   41.9671 C   0  0  0  0  0  0  0  0  0  0  0  0
    0.5158   18.0630   41.3543 C   0  0  0  0  0  0  0  0  0  0  0  0
    1.3864   15.8160   40.6280 C   0  0  0  0  0  0  0  0  0  0  0  0
    2.3481   13.9960   39.7103 C   0  0  0  0  0  0  0  0  0  0  0  0
    2.6552   12.5729   39.7637 C   0  0  0  0  0  0  0  0  0  0  0  0
    2.2379   11.7816   40.8111 C   0  0  0  0  0  0  0  0  0  0  0  0
    2.5156   10.4284   40.8892 C   0  0  0  0  0  0  0  0  0  0  0  0
    3.2484    9.8404   39.8647 C   0  0  0  0  0  0  0  0  0  0  0  0
    3.6780   10.6125   38.8036 C   0  0  0  0  0  0  0  0  0  0  0  0
    3.3785   11.9570   38.7670 C   0  0  0  0  0  0  0  0  0  0  0  0
    2.8032   14.8018   38.5907 C   0  0  0  0  0  0  0  0  0  0  0  0
    1.3520   18.9428   40.7160 C   0  0  0  0  0  0  0  0  0  0  0  0
    1.1090   20.3029   40.6761 C   0  0  0  0  0  0  0  0  0  0  0  0
    0.6653   16.6897   41.4733 N   0  0  0  0  0  0  0  0  0  0  0  0
    1.6888   14.6984   40.5635 N   0  0  0  0  0  0  0  0  0  0  0  0
   -1.3289   22.8724   41.8218 O   0  0  0  0  0  0  0  0  0  0  0  0
    0.6285   22.9849   40.5978 O   0  0  0  0  0  0  0  0  0  0  0  0
    2.0068   21.1388   40.0053 O   0  0  0  0  0  0  0  0  0  0  0  0
    2.1561   16.4679   39.0268 S   0  0  0  0  0  0  0  0  0  0  0  0
    3.6345    8.1393   39.8986 Cl  0  0  0  0  0  0  0  0  0  0  0  0
   -1.7297   20.4282   42.4118 H   0  0  0  0  0  0  0  0  0  0  0  0
   -1.3179   17.9997   42.4954 H   0  0  0  0  0  0  0  0  0  0  0  0
    1.6673   12.2331   41.6120 H   0  0  0  0  0  0  0  0  0  0  0  0
    2.1620    9.8420   41.7426 H   0  0  0  0  0  0  0  0  0  0  0  0
    4.2436   10.1570   38.0138 H   0  0  0  0  0  0  0  0  0  0  0  0
    3.7414   12.5114   37.9100 H   0  0  0  0  0  0  0  0  0  0  0  0
    3.3382   14.5436   37.7702 H   0  0  0  0  0  0  0  0  0  0  0  0
    2.2322   18.5939   40.2354 H   0  0  0  0  0  0  0  0  0  0  0  0
    0.1900   16.2024   42.2959 H   0  0  0  0  0  0  0  0  0  0  0  0
  1  2  1  0
  1 19  1  0
  1 20  2  0
  2  3  1  0
  2 16  2  0
  3  4  2  0
  4  5  1  0
  5 15  2  0
  5 17  1  0
  6 17  1  0
  6 18  2  0
  6 22  1  0
  7  8  1  0
  7 14  2  0
  7 18  1  0
  8  9  1  0
  8 13  2  0
  9 10  2  0
 10 11  1  0
 11 12  2  0
 11 23  1  0
 12 13  1  0
 14 22  1  0
 15 16  1  0
 16 21  1  0
  3 24  1  0
  4 25  1  0
  9 26  1  0
 10 27  1  0
 12 28  1  0
 13 29  1  0
 14 30  1  0
 15 31  1  0
 17 32  1  0
M  CHG  2  19  -1  21  -1
M  END
>  <mol_id>  (82) 
2026-08-23-6tgu-s0-n100-r9-0082

>  <rmsd_to_ref>  (82) 
4.173469387763592

$$$$
6tgu.A
     RDKit          3D

 32 34  0  0  0  0  0  0  0  0999 V2000
    4.3894   15.9798   36.9582 C   0  0  0  0  0  0  0  0  0  0  0  0
    3.9430   17.0520   37.9561 C   0  0  0  0  0  0  0  0  0  0  0  0
    4.1628   18.4016   37.6896 C   0  0  0  0  0  0  0  0  0  0  0  0
    3.6057   19.4138   38.4779 C   0  0  0  0  0  0  0  0  0  0  0  0
    2.9466   19.0929   39.6735 C   0  0  0  0  0  0  0  0  0  0  0  0
    1.2783   20.0433   41.3399 C   0  0  0  0  0  0  0  0  0  0  0  0
   -0.3070   19.0810   42.6576 C   0  0  0  0  0  0  0  0  0  0  0  0
   -1.0039   17.9631   43.2946 C   0  0  0  0  0  0  0  0  0  0  0  0
   -2.1689   18.1483   44.0526 C   0  0  0  0  0  0  0  0  0  0  0  0
   -2.8347   17.0672   44.6217 C   0  0  0  0  0  0  0  0  0  0  0  0
   -2.3507   15.7935   44.3897 C   0  0  0  0  0  0  0  0  0  0  0  0
   -1.2056   15.5645   43.6417 C   0  0  0  0  0  0  0  0  0  0  0  0
   -0.5472   16.6601   43.0902 C   0  0  0  0  0  0  0  0  0  0  0  0
   -0.7070   20.3876   42.7541 C   0  0  0  0  0  0  0  0  0  0  0  0
    2.7074   17.7395   39.9510 C   0  0  0  0  0  0  0  0  0  0  0  0
    3.2107   16.7545   39.0991 C   0  0  0  0  0  0  0  0  0  0  0  0
    2.3171   20.1087   40.4565 N   0  0  0  0  0  0  0  0  0  0  0  0
    0.7747   18.8372   41.7786 N   0  0  0  0  0  0  0  0  0  0  0  0
    4.8027   16.3911   35.8342 O   0  0  0  0  0  0  0  0  0  0  0  0
    4.2351   14.7871   37.3008 O   0  0  0  0  0  0  0  0  0  0  0  0
    2.8822   15.4385   39.3229 O   0  0  0  0  0  0  0  0  0  0  0  0
    0.2343   21.3982   41.7243 S   0  0  0  0  0  0  0  0  0  0  0  0
   -3.1924   14.4346   45.0578 Cl  0  0  0  0  0  0  0  0  0  0  0  0
    4.7940   18.6798   36.8327 H   0  0  0  0  0  0  0  0  0  0  0  0
    3.6847   20.4637   38.1594 H   0  0  0  0  0  0  0  0  0  0  0  0
   -2.5628   19.1647   44.1998 H   0  0  0  0  0  0  0  0  0  0  0  0
   -3.7284   17.2230   45.2438 H   0  0  0  0  0  0  0  0  0  0  0  0
   -0.8272   14.5431   43.4881 H   0  0  0  0  0  0  0  0  0  0  0  0
    0.3530   16.4953   42.4798 H   0  0  0  0  0  0  0  0  0  0  0  0
   -1.5207   20.7440   43.4027 H   0  0  0  0  0  0  0  0  0  0  0  0
    2.1240   17.4541   40.8388 H   0  0  0  0  0  0  0  0  0  0  0  0
    2.7147   21.0509   40.3335 H   0  0  0  0  0  0  0  0  0  0  0  0
  1  2  1  0
  1 19  1  0
  1 20  2  0
  2  3  1  0
  2 16  2  0
  3  4  2  0
  4  5  1  0
  5 15  2  0
  5 17  1  0
  6 17  1  0
  6 18  2  0
  6 22  1  0
  7  8  1  0
  7 14  2  0
  7 18  1  0
  8  9  1  0
  8 13  2  0
  9 10  2  0
 10 11  1  0
 11 12  2  0
 11 23  1  0
 12 13  1  0
 14 22  1  0
 15 16  1  0
 16 21  1  0
  3 24  1  0
  4 25  1  0
  9 26  1  0
 10 27  1  0
 12 28  1  0
 13 29  1  0
 14 30  1  0
 15 31  1  0
 17 32  1  0
M  CHG  2  19  -1  21  -1
M  END
>  <mol_id>  (83) 
2026-08-23-6tgu-s0-n100-r9-0083

>  <rmsd_to_ref>  (83) 
4.219387755107681

$$$$
6tgu.A
     RDKit          3D

 32 34  0  0  0  0  0  0  0  0999 V2000
    2.6714   19.0667   36.9899 C   0  0  0  0  0  0  0  0  0  0  0  0
    3.4476   18.0834   37.7321 C   0  0  0  0  0  0  0  0  0  0  0  0
    2.8777   17.4199   38.7935 C   0  0  0  0  0  0  0  0  0  0  0  0
    3.6378   16.4921   39.4795 C   0  0  0  0  0  0  0  0  0  0  0  0
    4.9487   16.1993   39.1468 C   0  0  0  0  0  0  0  0  0  0  0  0
    5.2473   14.5333   40.9251 C   0  0  0  0  0  0  0  0  0  0  0  0
    4.0474   13.5997   42.6224 C   0  0  0  0  0  0  0  0  0  0  0  0
    2.7791   13.5002   43.3879 C   0  0  0  0  0  0  0  0  0  0  0  0
    2.6474   12.6409   44.4516 C   0  0  0  0  0  0  0  0  0  0  0  0
    1.4533   12.5746   45.1404 C   0  0  0  0  0  0  0  0  0  0  0  0
    0.3650   13.3481   44.8016 C   0  0  0  0  0  0  0  0  0  0  0  0
    0.4924   14.2168   43.7293 C   0  0  0  0  0  0  0  0  0  0  0  0
    1.6807   14.2677   43.0611 C   0  0  0  0  0  0  0  0  0  0  0  0
    5.1413   12.7961   42.9933 C   0  0  0  0  0  0  0  0  0  0  0  0
    5.4607   16.9091   38.0614 C   0  0  0  0  0  0  0  0  0  0  0  0
    4.7438   17.8320   37.3589 C   0  0  0  0  0  0  0  0  0  0  0  0
    5.7344   15.2476   39.8474 N   0  0  0  0  0  0  0  0  0  0  0  0
    4.2303   14.3801   41.6241 N   0  0  0  0  0  0  0  0  0  0  0  0
    1.3461   19.3390   37.3538 O   0  0  0  0  0  0  0  0  0  0  0  0
    3.1618   19.6866   36.0198 O   0  0  0  0  0  0  0  0  0  0  0  0
    5.3199   18.5151   36.2716 O   0  0  0  0  0  0  0  0  0  0  0  0
    6.4092   13.3093   41.7484 S   0  0  0  0  0  0  0  0  0  0  0  0
   -1.1250   13.2156   45.7189 Cl  0  0  0  0  0  0  0  0  0  0  0  0
    1.8381   17.6279   39.0853 H   0  0  0  0  0  0  0  0  0  0  0  0
    3.1548   15.9948   40.3036 H   0  0  0  0  0  0  0  0  0  0  0  0
    3.4875   12.0072   44.7556 H   0  0  0  0  0  0  0  0  0  0  0  0
    1.4197   11.8752   45.9685 H   0  0  0  0  0  0  0  0  0  0  0  0
   -0.3563   14.8084   43.4784 H   0  0  0  0  0  0  0  0  0  0  0  0
    1.7412   14.9673   42.2191 H   0  0  0  0  0  0  0  0  0  0  0  0
    5.2884   12.0915   43.7347 H   0  0  0  0  0  0  0  0  0  0  0  0
    6.4960   16.7200   37.7498 H   0  0  0  0  0  0  0  0  0  0  0  0
    6.7258   15.1255   39.4806 H   0  0  0  0  0  0  0  0  0  0  0  0
  1  2  1  0
  1 19  1  0
  1 20  2  0
  2  3  1  0
  2 16  2  0
  3  4  2  0
  4  5  1  0
  5 15  2  0
  5 17  1  0
  6 17  1  0
  6 18  2  0
  6 22  1  0
  7  8  1  0
  7 14  2  0
  7 18  1  0
  8  9  1  0
  8 13  2  0
  9 10  2  0
 10 11  1  0
 11 12  2  0
 11 23  1  0
 12 13  1  0
 14 22  1  0
 15 16  1  0
 16 21  1  0
  3 24  1  0
  4 25  1  0
  9 26  1  0
 10 27  1  0
 12 28  1  0
 13 29  1  0
 14 30  1  0
 15 31  1  0
 17 32  1  0
M  CHG  2  19  -1  21  -1
M  END
>  <mol_id>  (84) 
2026-08-23-6tgu-s0-n100-r9-0084

>  <rmsd_to_ref>  (84) 
4.265306122449744

$$$$
6tgu.A
     RDKit          3D

 32 34  0  0  0  0  0  0  0  0999 V2000
    1.2980   17.1985   36.2983 C   0  0  0  0  0  0  0  0  0  0  0  0
    0.9655   17.4188   37.7766 C   0  0  0  0  0  0  0  0  0  0  0  0
   -0.3568   17.4004   38.2146 C   0  0  0  0  0  0  0  0  0  0  0  0
   -0.6886   17.4075   39.5734 C   0  0  0  0  0  0  0  0  0  0  0  0
    0.3067   17.6114   40.5401 C   0  0  0  0  0  0  0  0  0  0  0  0
    0.7743   17.2641   43.0148 C   0  0  0  0  0  0  0  0  0  0  0  0
    2.6774   16.8191   44.1793 C   0  0  0  0  0  0  0  0  0  0  0  0
    4.1229   16.6752   44.3554 C   0  0  0  0  0  0  0  0  0  0  0  0
    4.6824   16.1996   45.5499 C   0  0  0  0  0  0  0  0  0  0  0  0
    6.0579   16.0386   45.6843 C   0  0  0  0  0  0  0  0  0  0  0  0
    6.8672   16.3153   44.5985 C   0  0  0  0  0  0  0  0  0  0  0  0
    6.3555   16.7822   43.3972 C   0  0  0  0  0  0  0  0  0  0  0  0
    4.9777   16.9475   43.2862 C   0  0  0  0  0  0  0  0  0  0  0  0
    1.7550   16.5269   45.1489 C   0  0  0  0  0  0  0  0  0  0  0  0
    1.6436   17.6211   40.1173 C   0  0  0  0  0  0  0  0  0  0  0  0
    1.9442   17.5321   38.7568 C   0  0  0  0  0  0  0  0  0  0  0  0
   -0.0054   17.5575   41.9333 N   0  0  0  0  0  0  0  0  0  0  0  0
    2.1450   17.1568   42.9125 N   0  0  0  0  0  0  0  0  0  0  0  0
    0.3406   16.8396   35.5513 O   0  0  0  0  0  0  0  0  0  0  0  0
    2.4977   17.3111   35.9641 O   0  0  0  0  0  0  0  0  0  0  0  0
    3.2576   17.4373   38.3621 O   0  0  0  0  0  0  0  0  0  0  0  0
    0.1520   16.6311   44.5265 S   0  0  0  0  0  0  0  0  0  0  0  0
    8.5781   16.0805   44.7378 Cl  0  0  0  0  0  0  0  0  0  0  0  0
   -1.1650   17.3797   37.4687 H   0  0  0  0  0  0  0  0  0  0  0  0
   -1.7323   17.2528   39.8844 H   0  0  0  0  0  0  0  0  0  0  0  0
    4.0233   15.9497   46.3944 H   0  0  0  0  0  0  0  0  0  0  0  0
    6.4925   15.6978   46.6356 H   0  0  0  0  0  0  0  0  0  0  0  0
    7.0214   17.0159   42.5534 H   0  0  0  0  0  0  0  0  0  0  0  0
    4.5533   17.3007   42.3348 H   0  0  0  0  0  0  0  0  0  0  0  0
    2.0045   16.2610   46.1867 H   0  0  0  0  0  0  0  0  0  0  0  0
    2.4545   17.6987   40.8565 H   0  0  0  0  0  0  0  0  0  0  0  0
   -0.9857   17.7773   42.1603 H   0  0  0  0  0  0  0  0  0  0  0  0
  1  2  1  0
  1 19  1  0
  1 20  2  0
  2  3  1  0
  2 16  2  0
  3  4  2  0
  4  5  1  0
  5 15  2  0
  5 17  1  0
  6 17  1  0
  6 18  2  0
  6 22  1  0
  7  8  1  0
  7 14  2  0
  7 18  1  0
  8  9  1  0
  8 13  2  0
  9 10  2  0
 10 11  1  0
 11 12  2  0
 11 23  1  0
 12 13  1  0
 14 22  1  0
 15 16  1  0
 16 21  1  0
  3 24  1  0
  4 25  1  0
  9 26  1  0
 10 27  1  0
 12 28  1  0
 13 29  1  0
 14 30  1  0
 15 31  1  0
 17 32  1  0
M  CHG  2  19  -1  21  -1
M  END
>  <mol_id>  (85) 
2026-08-23-6tgu-s0-n100-r9-0085

>  <rmsd_to_ref>  (85) 
4.311224489803268

$$$$
6tgu.A
     RDKit          3D

 32 34  0  0  0  0  0  0  0  0999 V2000
   -0.7447   17.7373   35.3177 C   0  0  0  0  0  0  0  0  0  0  0  0
    0.0646   17.6680   36.5094 C   0  0  0  0  0  0  0  0  0  0  0  0
    0.7211   18.7536   37.0276 C   0  0  0  0  0  0  0  0  0  0  0  0
    1.4888   18.6662   38.1680 C   0  0  0  0  0  0  0  0  0  0  0  0
    1.6366   17.4542   38.8583 C   0  0  0  0  0  0  0  0  0  0  0  0
    2.3391   16.6288   41.1241 C   0  0  0  0  0  0  0  0  0  0  0  0
    2.5713   15.5202   43.1166 C   0  0  0  0  0  0  0  0  0  0  0  0
    3.3103   15.2710   44.3576 C   0  0  0  0  0  0  0  0  0  0  0  0
    2.8542   14.3500   45.2658 C   0  0  0  0  0  0  0  0  0  0  0  0
    3.5764   14.1448   46.4214 C   0  0  0  0  0  0  0  0  0  0  0  0
    4.7503   14.8342   46.7045 C   0  0  0  0  0  0  0  0  0  0  0  0
    5.2020   15.7596   45.7845 C   0  0  0  0  0  0  0  0  0  0  0  0
    4.4698   15.9612   44.6231 C   0  0  0  0  0  0  0  0  0  0  0  0
    1.3345   14.7821   42.8420 C   0  0  0  0  0  0  0  0  0  0  0  0
    0.9787   16.3830   38.3312 C   0  0  0  0  0  0  0  0  0  0  0  0
    0.1980   16.4703   37.1727 C   0  0  0  0  0  0  0  0  0  0  0  0
    2.4527   17.4727   39.9961 N   0  0  0  0  0  0  0  0  0  0  0  0
    2.8774   16.3383   42.1956 N   0  0  0  0  0  0  0  0  0  0  0  0
   -0.9549   18.8641   34.5701 O   0  0  0  0  0  0  0  0  0  0  0  0
   -1.3077   16.6638   34.9318 O   0  0  0  0  0  0  0  0  0  0  0  0
   -0.4476   15.3198   36.6951 O   0  0  0  0  0  0  0  0  0  0  0  0
    0.8218   15.4444   41.2214 S   0  0  0  0  0  0  0  0  0  0  0  0
    5.6412   14.5458   48.1843 Cl  0  0  0  0  0  0  0  0  0  0  0  0
    0.6171   19.7045   36.5037 H   0  0  0  0  0  0  0  0  0  0  0  0
    1.9899   19.5676   38.5349 H   0  0  0  0  0  0  0  0  0  0  0  0
    1.9537   13.7695   45.1279 H   0  0  0  0  0  0  0  0  0  0  0  0
    3.2163   13.4186   47.1367 H   0  0  0  0  0  0  0  0  0  0  0  0
    6.1153   16.3139   45.9769 H   0  0  0  0  0  0  0  0  0  0  0  0
    4.8350   16.6916   43.9077 H   0  0  0  0  0  0  0  0  0  0  0  0
    0.8330   14.0156   43.4579 H   0  0  0  0  0  0  0  0  0  0  0  0
    1.0442   15.4262   38.7799 H   0  0  0  0  0  0  0  0  0  0  0  0
    3.2315   18.1736   40.0342 H   0  0  0  0  0  0  0  0  0  0  0  0
  1  2  1  0
  1 19  1  0
  1 20  2  0
  2  3  1  0
  2 16  2  0
  3  4  2  0
  4  5  1  0
  5 15  2  0
  5 17  1  0
  6 17  1  0
  6 18  2  0
  6 22  1  0
  7  8  1  0
  7 14  2  0
  7 18  1  0
  8  9  1  0
  8 13  2  0
  9 10  2  0
 10 11  1  0
 11 12  2  0
 11 23  1  0
 12 13  1  0
 14 22  1  0
 15 16  1  0
 16 21  1  0
  3 24  1  0
  4 25  1  0
  9 26  1  0
 10 27  1  0
 12 28  1  0
 13 29  1  0
 14 30  1  0
 15 31  1  0
 17 32  1  0
M  CHG  2  19  -1  21  -1
M  END
>  <mol_id>  (86) 
2026-08-23-6tgu-s0-n100-r9-0086

>  <rmsd_to_ref>  (86) 
4.357142857150835

$$$$
6tgu.A
     RDKit          3D

 32 34  0  0  0  0  0  0  0  0999 V2000
    4.1596   20.6016   44.0949 C   0  0  0  0  0  0  0  0  0  0  0  0
    3.0042   19.6051   43.9662 C   0  0  0  0  0  0  0  0  0  0  0  0
    1.7054   19.9809   44.3018 C   0  0  0  0  0  0  0  0  0  0  0  0
    0.6019   19.1686   44.0209 C   0  0  0  0  0  0  0  0  0  0  0  0
    0.7916   17.8627   43.5461 C   0  0  0  0  0  0  0  0  0  0  0  0
   -0.4274   15.9952   42.3254 C   0  0  0  0  0  0  0  0  0  0  0  0
    0.2713   14.3765   40.8877 C   0  0  0  0  0  0  0  0  0  0  0  0
    1.2648   13.5687   40.1796 C   0  0  0  0  0  0  0  0  0  0  0  0
    0.9015   12.6367   39.1970 C   0  0  0  0  0  0  0  0  0  0  0  0
    1.8651   11.9031   38.5119 C   0  0  0  0  0  0  0  0  0  0  0  0
    3.1987   12.1408   38.7862 C   0  0  0  0  0  0  0  0  0  0  0  0
    3.6024   13.0571   39.7456 C   0  0  0  0  0  0  0  0  0  0  0  0
    2.6230   13.7730   40.4284 C   0  0  0  0  0  0  0  0  0  0  0  0
   -1.0792   14.2881   40.6760 C   0  0  0  0  0  0  0  0  0  0  0  0
    2.0913   17.4725   43.1930 C   0  0  0  0  0  0  0  0  0  0  0  0
    3.1628   18.3398   43.4136 C   0  0  0  0  0  0  0  0  0  0  0  0
   -0.3247   17.0435   43.1940 N   0  0  0  0  0  0  0  0  0  0  0  0
    0.6858   15.4101   41.7605 N   0  0  0  0  0  0  0  0  0  0  0  0
    3.8454   21.8006   44.3533 O   0  0  0  0  0  0  0  0  0  0  0  0
    5.3090   20.1708   43.8560 O   0  0  0  0  0  0  0  0  0  0  0  0
    4.4154   17.9896   42.9686 O   0  0  0  0  0  0  0  0  0  0  0  0
   -1.9207   15.5176   41.5409 S   0  0  0  0  0  0  0  0  0  0  0  0
    4.4108   11.2643   37.9121 Cl  0  0  0  0  0  0  0  0  0  0  0  0
    1.5426   20.9464   44.8032 H   0  0  0  0  0  0  0  0  0  0  0  0
   -0.4168   19.5548   44.1727 H   0  0  0  0  0  0  0  0  0  0  0  0
   -0.1625   12.4830   38.9640 H   0  0  0  0  0  0  0  0  0  0  0  0
    1.5713   11.1489   37.7670 H   0  0  0  0  0  0  0  0  0  0  0  0
    4.6695   13.2142   39.9617 H   0  0  0  0  0  0  0  0  0  0  0  0
    2.9261   14.5162   41.1805 H   0  0  0  0  0  0  0  0  0  0  0  0
   -1.5620   13.5327   40.0387 H   0  0  0  0  0  0  0  0  0  0  0  0
    2.2664   16.4842   42.7428 H   0  0  0  0  0  0  0  0  0  0  0  0
   -1.2014   17.2850   43.6778 H   0  0  0  0  0  0  0  0  0  0  0  0
  1  2  1  0
  1 19  1  0
  1 20  2  0
  2  3  1  0
  2 16  2  0
  3  4  2  0
  4  5  1  0
  5 15  2  0
  5 17  1  0
  6 17  1  0
  6 18  2  0
  6 22  1  0
  7  8  1  0
  7 14  2  0
  7 18  1  0
  8  9  1  0
  8 13  2  0
  9 10  2  0
 10 11  1  0
 11 12  2  0
 11 23  1  0
 12 13  1  0
 14 22  1  0
 15 16  1  0
 16 21  1  0
  3 24  1  0
  4 25  1  0
  9 26  1  0
 10 27  1  0
 12 28  1  0
 13 29  1  0
 14 30  1  0
 15 31  1  0
 17 32  1  0
M  CHG  2  19  -1  21  -1
M  END
>  <mol_id>  (87) 
2026-08-23-6tgu-s0-n100-r9-0087

>  <rmsd_to_ref>  (87) 
4.403061224497922

$$$$
6tgu.A
     RDKit          3D

 32 34  0  0  0  0  0  0  0  0999 V2000
    5.9700   23.7168   39.0674 C   0  0  0  0  0  0  0  0  0  0  0  0
    4.8970   22.8571   39.5518 C   0  0  0  0  0  0  0  0  0  0  0  0
    5.0306   21.4925   39.6582 C   0  0  0  0  0  0  0  0  0  0  0  0
    3.9640   20.7357   40.1306 C   0  0  0  0  0  0  0  0  0  0  0  0
    2.7641   21.2738   40.5046 C   0  0  0  0  0  0  0  0  0  0  0  0
    1.7557   19.3115   41.6318 C   0  0  0  0  0  0  0  0  0  0  0  0
    0.8507   17.4708   42.6682 C   0  0  0  0  0  0  0  0  0  0  0  0
   -0.2799   16.6413   43.2240 C   0  0  0  0  0  0  0  0  0  0  0  0
   -0.0249   15.4322   43.8047 C   0  0  0  0  0  0  0  0  0  0  0  0
   -1.1077   14.7231   44.2935 C   0  0  0  0  0  0  0  0  0  0  0  0
   -2.4035   15.1666   44.2250 C   0  0  0  0  0  0  0  0  0  0  0  0
   -2.6509   16.3713   43.6455 C   0  0  0  0  0  0  0  0  0  0  0  0
   -1.5780   17.0871   43.1546 C   0  0  0  0  0  0  0  0  0  0  0  0
    2.1275   16.9699   42.7687 C   0  0  0  0  0  0  0  0  0  0  0  0
    2.6642   22.6702   40.3820 C   0  0  0  0  0  0  0  0  0  0  0  0
    3.7041   23.4340   39.9184 C   0  0  0  0  0  0  0  0  0  0  0  0
    1.6572   20.6143   41.0058 N   0  0  0  0  0  0  0  0  0  0  0  0
    0.6027   18.6049   42.1256 N   0  0  0  0  0  0  0  0  0  0  0  0
    7.1852   23.1238   38.6922 O   0  0  0  0  0  0  0  0  0  0  0  0
    5.7731   24.9547   39.0017 O   0  0  0  0  0  0  0  0  0  0  0  0
    3.5401   24.8165   39.8205 O   0  0  0  0  0  0  0  0  0  0  0  0
    3.1463   18.3100   41.9712 S   0  0  0  0  0  0  0  0  0  0  0  0
   -3.7041   14.1916   44.8750 Cl  0  0  0  0  0  0  0  0  0  0  0  0
    5.9716   21.0246   39.3705 H   0  0  0  0  0  0  0  0  0  0  0  0
    4.1297   19.6753   40.1808 H   0  0  0  0  0  0  0  0  0  0  0  0
    0.9693   15.0207   43.8934 H   0  0  0  0  0  0  0  0  0  0  0  0
   -0.8755   13.7653   44.7498 H   0  0  0  0  0  0  0  0  0  0  0  0
   -3.6564   16.7668   43.5662 H   0  0  0  0  0  0  0  0  0  0  0  0
   -1.8100   18.0506   42.6955 H   0  0  0  0  0  0  0  0  0  0  0  0
    2.5127   16.1121   43.1557 H   0  0  0  0  0  0  0  0  0  0  0  0
    1.7404   23.1818   40.6583 H   0  0  0  0  0  0  0  0  0  0  0  0
    0.7053   21.0220   40.9558 H   0  0  0  0  0  0  0  0  0  0  0  0
  1  2  1  0
  1 19  1  0
  1 20  2  0
  2  3  1  0
  2 16  2  0
  3  4  2  0
  4  5  1  0
  5 15  2  0
  5 17  1  0
  6 17  1  0
  6 18  2  0
  6 22  1  0
  7  8  1  0
  7 14  2  0
  7 18  1  0
  8  9  1  0
  8 13  2  0
  9 10  2  0
 10 11  1  0
 11 12  2  0
 11 23  1  0
 12 13  1  0
 14 22  1  0
 15 16  1  0
 16 21  1  0
  3 24  1  0
  4 25  1  0
  9 26  1  0
 10 27  1  0
 12 28  1  0
 13 29  1  0
 14 30  1  0
 15 31  1  0
 17 32  1  0
M  CHG  2  19  -1  21  -1
M  END
>  <mol_id>  (88) 
2026-08-23-6tgu-s0-n100-r9-0088

>  <rmsd_to_ref>  (88) 
4.448979591837866

$$$$
6tgu.A
     RDKit          3D

 32 34  0  0  0  0  0  0  0  0999 V2000
    3.0829   20.2312   43.6213 C   0  0  0  0  0  0  0  0  0  0  0  0
    1.7650   19.5345   43.2715 C   0  0  0  0  0  0  0  0  0  0  0  0
    0.5573   20.2240   43.3525 C   0  0  0  0  0  0  0  0  0  0  0  0
   -0.6381   19.6867   42.8638 C   0  0  0  0  0  0  0  0  0  0  0  0
   -0.6860   18.3534   42.4317 C   0  0  0  0  0  0  0  0  0  0  0  0
   -2.0723   16.7781   40.9965 C   0  0  0  0  0  0  0  0  0  0  0  0
   -1.5321   14.9767   39.7164 C   0  0  0  0  0  0  0  0  0  0  0  0
   -0.6503   13.9242   39.2103 C   0  0  0  0  0  0  0  0  0  0  0  0
   -1.0393   13.0629   38.1746 C   0  0  0  0  0  0  0  0  0  0  0  0
   -0.1724   12.0906   37.6856 C   0  0  0  0  0  0  0  0  0  0  0  0
    1.1038   12.0153   38.2109 C   0  0  0  0  0  0  0  0  0  0  0  0
    1.5318   12.8507   39.2317 C   0  0  0  0  0  0  0  0  0  0  0  0
    0.6458   13.8095   39.7153 C   0  0  0  0  0  0  0  0  0  0  0  0
   -2.7997   15.2037   39.2495 C   0  0  0  0  0  0  0  0  0  0  0  0
    0.5224   17.6489   42.3337 C   0  0  0  0  0  0  0  0  0  0  0  0
    1.7119   18.2445   42.7572 C   0  0  0  0  0  0  0  0  0  0  0  0
   -1.8820   17.8094   41.8705 N   0  0  0  0  0  0  0  0  0  0  0  0
   -1.0492   15.9195   40.6544 N   0  0  0  0  0  0  0  0  0  0  0  0
    3.0268   21.4809   43.8168 O   0  0  0  0  0  0  0  0  0  0  0  0
    4.1171   19.5284   43.6064 O   0  0  0  0  0  0  0  0  0  0  0  0
    2.9024   17.5859   42.5600 O   0  0  0  0  0  0  0  0  0  0  0  0
   -3.4636   16.6360   39.9393 S   0  0  0  0  0  0  0  0  0  0  0  0
    2.2079   10.8366   37.5838 Cl  0  0  0  0  0  0  0  0  0  0  0  0
    0.5432   21.2219   43.8152 H   0  0  0  0  0  0  0  0  0  0  0  0
   -1.5424   20.3113   42.8182 H   0  0  0  0  0  0  0  0  0  0  0  0
   -2.0461   13.1573   37.7416 H   0  0  0  0  0  0  0  0  0  0  0  0
   -0.4963   11.3958   36.8967 H   0  0  0  0  0  0  0  0  0  0  0  0
    2.5454   12.7582   39.6486 H   0  0  0  0  0  0  0  0  0  0  0  0
    0.9746   14.4918   40.5130 H   0  0  0  0  0  0  0  0  0  0  0  0
   -3.3240   14.5576   38.5300 H   0  0  0  0  0  0  0  0  0  0  0  0
    0.5331   16.6283   41.9235 H   0  0  0  0  0  0  0  0  0  0  0  0
   -2.7481   18.2745   42.1777 H   0  0  0  0  0  0  0  0  0  0  0  0
  1  2  1  0
  1 19  1  0
  1 20  2  0
  2  3  1  0
  2 16  2  0
  3  4  2  0
  4  5  1  0
  5 15  2  0
  5 17  1  0
  6 17  1  0
  6 18  2  0
  6 22  1  0
  7  8  1  0
  7 14  2  0
  7 18  1  0
  8  9  1  0
  8 13  2  0
  9 10  2  0
 10 11  1  0
 11 12  2  0
 11 23  1  0
 12 13  1  0
 14 22  1  0
 15 16  1  0
 16 21  1  0
  3 24  1  0
  4 25  1  0
  9 26  1  0
 10 27  1  0
 12 28  1  0
 13 29  1  0
 14 30  1  0
 15 31  1  0
 17 32  1  0
M  CHG  2  19  -1  21  -1
M  END
>  <mol_id>  (89) 
2026-08-23-6tgu-s0-n100-r9-0089

>  <rmsd_to_ref>  (89) 
4.494897959190097

$$$$
6tgu.A
     RDKit          3D

 32 34  0  0  0  0  0  0  0  0999 V2000
   -0.2555   18.3817   35.6230 C   0  0  0  0  0  0  0  0  0  0  0  0
    0.3406   18.2750   36.9487 C   0  0  0  0  0  0  0  0  0  0  0  0
   -0.3774   18.4929   38.1041 C   0  0  0  0  0  0  0  0  0  0  0  0
    0.2310   18.3800   39.3570 C   0  0  0  0  0  0  0  0  0  0  0  0
    1.5570   18.0503   39.5078 C   0  0  0  0  0  0  0  0  0  0  0  0
    1.6783   17.5831   41.9765 C   0  0  0  0  0  0  0  0  0  0  0  0
    1.4814   17.1562   44.1720 C   0  0  0  0  0  0  0  0  0  0  0  0
    2.1497   17.0309   45.4939 C   0  0  0  0  0  0  0  0  0  0  0  0
    3.4829   17.2226   45.6727 C   0  0  0  0  0  0  0  0  0  0  0  0
    4.0701   17.0906   46.9324 C   0  0  0  0  0  0  0  0  0  0  0  0
    3.2981   16.7587   48.0333 C   0  0  0  0  0  0  0  0  0  0  0  0
    1.9604   16.5668   47.8521 C   0  0  0  0  0  0  0  0  0  0  0  0
    1.3944   16.7003   46.6040 C   0  0  0  0  0  0  0  0  0  0  0  0
    0.1470   16.9579   44.0198 C   0  0  0  0  0  0  0  0  0  0  0  0
    2.2558   17.8361   38.3085 C   0  0  0  0  0  0  0  0  0  0  0  0
    1.6710   17.9443   37.0833 C   0  0  0  0  0  0  0  0  0  0  0  0
    2.2535   17.8904   40.6908 N   0  0  0  0  0  0  0  0  0  0  0  0
    2.1359   17.4633   43.0765 N   0  0  0  0  0  0  0  0  0  0  0  0
   -1.5765   18.7095   35.4855 O   0  0  0  0  0  0  0  0  0  0  0  0
    0.4722   18.1658   34.6228 O   0  0  0  0  0  0  0  0  0  0  0  0
    2.4382   17.7148   35.9375 O   0  0  0  0  0  0  0  0  0  0  0  0
   -0.0837   17.2395   42.2297 S   0  0  0  0  0  0  0  0  0  0  0  0
    4.0685   16.6023   49.5963 Cl  0  0  0  0  0  0  0  0  0  0  0  0
   -1.4255   18.7555   38.0329 H   0  0  0  0  0  0  0  0  0  0  0  0
   -0.3888   18.5744   40.1970 H   0  0  0  0  0  0  0  0  0  0  0  0
    4.0832   17.4830   44.8123 H   0  0  0  0  0  0  0  0  0  0  0  0
    5.1454   17.2581   47.0020 H   0  0  0  0  0  0  0  0  0  0  0  0
    1.3526   16.3072   48.7070 H   0  0  0  0  0  0  0  0  0  0  0  0
    0.3341   16.5373   46.5186 H   0  0  0  0  0  0  0  0  0  0  0  0
   -0.6526   16.7037   44.6901 H   0  0  0  0  0  0  0  0  0  0  0  0
    3.3023   17.5733   38.3501 H   0  0  0  0  0  0  0  0  0  0  0  0
    3.2917   17.9944   40.6969 H   0  0  0  0  0  0  0  0  0  0  0  0
  1  2  1  0
  1 19  1  0
  1 20  2  0
  2  3  1  0
  2 16  2  0
  3  4  2  0
  4  5  1  0
  5 15  2  0
  5 17  1  0
  6 17  1  0
  6 18  2  0
  6 22  1  0
  7  8  1  0
  7 14  2  0
  7 18  1  0
  8  9  1  0
  8 13  2  0
  9 10  2  0
 10 11  1  0
 11 12  2  0
 11 23  1  0
 12 13  1  0
 14 22  1  0
 15 16  1  0
 16 21  1  0
  3 24  1  0
  4 25  1  0
  9 26  1  0
 10 27  1  0
 12 28  1  0
 13 29  1  0
 14 30  1  0
 15 31  1  0
 17 32  1  0
M  CHG  2  19  -1  21  -1
M  END
>  <mol_id>  (90) 
2026-08-23-6tgu-s0-n100-r9-0090

>  <rmsd_to_ref>  (90) 
4.540816326537115

$$$$
6tgu.A
     RDKit          3D

 32 34  0  0  0  0  0  0  0  0999 V2000
    0.9803   21.8731   43.2097 C   0  0  0  0  0  0  0  0  0  0  0  0
    0.5938   20.4107   43.4477 C   0  0  0  0  0  0  0  0  0  0  0  0
   -0.5433   20.0909   44.1861 C   0  0  0  0  0  0  0  0  0  0  0  0
   -1.0330   18.7831   44.2653 C   0  0  0  0  0  0  0  0  0  0  0  0
   -0.2858   17.7185   43.7407 C   0  0  0  0  0  0  0  0  0  0  0  0
   -0.5341   15.3133   42.9555 C   0  0  0  0  0  0  0  0  0  0  0  0
    0.5247   14.0949   41.3523 C   0  0  0  0  0  0  0  0  0  0  0  0
    1.5616   13.8307   40.3543 C   0  0  0  0  0  0  0  0  0  0  0  0
    1.5284   12.6968   39.5302 C   0  0  0  0  0  0  0  0  0  0  0  0
    2.5068   12.4821   38.5644 C   0  0  0  0  0  0  0  0  0  0  0  0
    3.4954   13.4338   38.3989 C   0  0  0  0  0  0  0  0  0  0  0  0
    3.5627   14.5722   39.1880 C   0  0  0  0  0  0  0  0  0  0  0  0
    2.5811   14.7633   40.1565 C   0  0  0  0  0  0  0  0  0  0  0  0
   -0.5433   13.2691   41.5841 C   0  0  0  0  0  0  0  0  0  0  0  0
    0.8553   18.0239   42.9852 C   0  0  0  0  0  0  0  0  0  0  0  0
    1.2728   19.3502   42.8598 C   0  0  0  0  0  0  0  0  0  0  0  0
   -0.8012   16.3861   43.7564 N   0  0  0  0  0  0  0  0  0  0  0  0
    0.5116   15.3218   42.0571 N   0  0  0  0  0  0  0  0  0  0  0  0
    0.1361   22.7461   43.5681 O   0  0  0  0  0  0  0  0  0  0  0  0
    2.0571   22.0845   42.6101 O   0  0  0  0  0  0  0  0  0  0  0  0
    2.3297   19.6481   42.0327 O   0  0  0  0  0  0  0  0  0  0  0  0
   -1.6531   13.9909   42.6864 S   0  0  0  0  0  0  0  0  0  0  0  0
    4.6969   13.2002   37.1728 Cl  0  0  0  0  0  0  0  0  0  0  0  0
   -1.0724   20.8916   44.7236 H   0  0  0  0  0  0  0  0  0  0  0  0
   -2.0062   18.5892   44.7400 H   0  0  0  0  0  0  0  0  0  0  0  0
    0.7158   11.9650   39.6492 H   0  0  0  0  0  0  0  0  0  0  0  0
    2.4937   11.5732   37.9450 H   0  0  0  0  0  0  0  0  0  0  0  0
    4.3713   15.3056   39.0521 H   0  0  0  0  0  0  0  0  0  0  0  0
    2.6096   15.6693   40.7796 H   0  0  0  0  0  0  0  0  0  0  0  0
   -0.6747   12.2771   41.1272 H   0  0  0  0  0  0  0  0  0  0  0  0
    1.4207   17.2195   42.4920 H   0  0  0  0  0  0  0  0  0  0  0  0
   -1.4920   16.2039   44.4984 H   0  0  0  0  0  0  0  0  0  0  0  0
  1  2  1  0
  1 19  1  0
  1 20  2  0
  2  3  1  0
  2 16  2  0
  3  4  2  0
  4  5  1  0
  5 15  2  0
  5 17  1  0
  6 17  1  0
  6 18  2  0
  6 22  1  0
  7  8  1  0
  7 14  2  0
  7 18  1  0
  8  9  1  0
  8 13  2  0
  9 10  2  0
 10 11  1  0
 11 12  2  0
 11 23  1  0
 12 13  1  0
 14 22  1  0
 15 16  1  0
 16 21  1  0
  3 24  1  0
  4 25  1  0
  9 26  1  0
 10 27  1  0
 12 28  1  0
 13 29  1  0
 14 30  1  0
 15 31  1  0
 17 32  1  0
M  CHG  2  19  -1  21  -1
M  END
>  <mol_id>  (91) 
2026-08-23-6tgu-s0-n100-r9-0091

>  <rmsd_to_ref>  (91) 
4.586734693882876

$$$$
6tgu.A
     RDKit          3D

 32 34  0  0  0  0  0  0  0  0999 V2000
    7.5042   20.3919   40.1258 C   0  0  0  0  0  0  0  0  0  0  0  0
    6.2936   19.6111   40.3470 C   0  0  0  0  0  0  0  0  0  0  0  0
    5.0493   20.1918   40.2266 C   0  0  0  0  0  0  0  0  0  0  0  0
    3.9035   19.4296   40.4420 C   0  0  0  0  0  0  0  0  0  0  0  0
    3.9299   18.1050   40.7752 C   0  0  0  0  0  0  0  0  0  0  0  0
    1.5284   17.6911   41.3499 C   0  0  0  0  0  0  0  0  0  0  0  0
   -0.6783   17.5178   41.8651 C   0  0  0  0  0  0  0  0  0  0  0  0
   -1.9099   16.7084   42.1109 C   0  0  0  0  0  0  0  0  0  0  0  0
   -3.0882   17.3185   42.4285 C   0  0  0  0  0  0  0  0  0  0  0  0
   -4.2013   16.5319   42.6475 C   0  0  0  0  0  0  0  0  0  0  0  0
   -4.1787   15.1564   42.5602 C   0  0  0  0  0  0  0  0  0  0  0  0
   -2.9900   14.5358   42.2394 C   0  0  0  0  0  0  0  0  0  0  0  0
   -1.8893   15.3347   42.0242 C   0  0  0  0  0  0  0  0  0  0  0  0
   -0.7366   18.8921   41.9617 C   0  0  0  0  0  0  0  0  0  0  0  0
    5.2064   17.5334   40.8924 C   0  0  0  0  0  0  0  0  0  0  0  0
    6.3328   18.2791   40.6814 C   0  0  0  0  0  0  0  0  0  0  0  0
    2.8402   17.2745   41.0270 N   0  0  0  0  0  0  0  0  0  0  0  0
    0.4512   16.9779   41.5635 N   0  0  0  0  0  0  0  0  0  0  0  0
    7.3944   21.7329   39.7903 O   0  0  0  0  0  0  0  0  0  0  0  0
    8.6292   19.8456   40.2407 O   0  0  0  0  0  0  0  0  0  0  0  0
    7.5813   17.6893   40.8039 O   0  0  0  0  0  0  0  0  0  0  0  0
    0.9474   19.3693   41.5892 S   0  0  0  0  0  0  0  0  0  0  0  0
   -5.6624   14.2756   42.8622 Cl  0  0  0  0  0  0  0  0  0  0  0  0
    4.9653   21.2365   39.9654 H   0  0  0  0  0  0  0  0  0  0  0  0
    2.9722   19.9437   40.3230 H   0  0  0  0  0  0  0  0  0  0  0  0
   -3.1873   18.3883   42.5160 H   0  0  0  0  0  0  0  0  0  0  0  0
   -5.1292   17.0310   42.8988 H   0  0  0  0  0  0  0  0  0  0  0  0
   -2.9783   13.4617   42.1727 H   0  0  0  0  0  0  0  0  0  0  0  0
   -0.9592   14.8393   41.7728 H   0  0  0  0  0  0  0  0  0  0  0  0
   -1.5449   19.5423   42.1934 H   0  0  0  0  0  0  0  0  0  0  0  0
    5.3343   16.4918   41.1519 H   0  0  0  0  0  0  0  0  0  0  0  0
    2.9838   16.2354   40.9749 H   0  0  0  0  0  0  0  0  0  0  0  0
  1  2  1  0
  1 19  1  0
  1 20  2  0
  2  3  1  0
  2 16  2  0
  3  4  2  0
  4  5  1  0
  5 15  2  0
  5 17  1  0
  6 17  1  0
  6 18  2  0
  6 22  1  0
  7  8  1  0
  7 14  2  0
  7 18  1  0
  8  9  1  0
  8 13  2  0
  9 10  2  0
 10 11  1  0
 11 12  2  0
 11 23  1  0
 12 13  1  0
 14 22  1  0
 15 16  1  0
 16 21  1  0
  3 24  1  0
  4 25  1  0
  9 26  1  0
 10 27  1  0
 12 28  1  0
 13 29  1  0
 14 30  1  0
 15 31  1  0
 17 32  1  0
M  CHG  2  19  -1  21  -1
M  END
>  <mol_id>  (92) 
2026-08-23-6tgu-s0-n100-r9-0092

>  <rmsd_to_ref>  (92) 
4.632653061225143

$$$$
6tgu.A
     RDKit          3D

 32 34  0  0  0  0  0  0  0  0999 V2000
   -1.5179   17.2258   37.9970 C   0  0  0  0  0  0  0  0  0  0  0  0
   -0.7596   17.4647   39.3056 C   0  0  0  0  0  0  0  0  0  0  0  0
   -1.4381   17.8725   40.4519 C   0  0  0  0  0  0  0  0  0  0  0  0
   -0.8179   17.9174   41.7048 C   0  0  0  0  0  0  0  0  0  0  0  0
    0.5661   17.7179   41.8129 C   0  0  0  0  0  0  0  0  0  0  0  0
    2.3582   17.0975   43.5060 C   0  0  0  0  0  0  0  0  0  0  0  0
    4.3259   15.9696   43.3288 C   0  0  0  0  0  0  0  0  0  0  0  0
    5.4317   15.3339   42.6116 C   0  0  0  0  0  0  0  0  0  0  0  0
    6.4450   14.6319   43.2797 C   0  0  0  0  0  0  0  0  0  0  0  0
    7.4692   14.0062   42.5757 C   0  0  0  0  0  0  0  0  0  0  0  0
    7.4479   14.0507   41.1944 C   0  0  0  0  0  0  0  0  0  0  0  0
    6.4619   14.7286   40.4934 C   0  0  0  0  0  0  0  0  0  0  0  0
    5.4521   15.3579   41.2162 C   0  0  0  0  0  0  0  0  0  0  0  0
    4.1883   15.9553   44.6916 C   0  0  0  0  0  0  0  0  0  0  0  0
    1.2619   17.2961   40.6709 C   0  0  0  0  0  0  0  0  0  0  0  0
    0.5940   17.1850   39.4500 C   0  0  0  0  0  0  0  0  0  0  0  0
    1.2039   17.6969   43.0911 N   0  0  0  0  0  0  0  0  0  0  0  0
    3.2457   16.5368   42.6123 N   0  0  0  0  0  0  0  0  0  0  0  0
   -2.7820   17.2549   38.0631 O   0  0  0  0  0  0  0  0  0  0  0  0
   -0.8341   16.9425   36.9891 O   0  0  0  0  0  0  0  0  0  0  0  0
    1.2598   16.6715   38.3624 O   0  0  0  0  0  0  0  0  0  0  0  0
    2.6765   16.6316   45.1658 S   0  0  0  0  0  0  0  0  0  0  0  0
    8.6940   13.2416   40.3032 Cl  0  0  0  0  0  0  0  0  0  0  0  0
   -2.4944   18.1683   40.3692 H   0  0  0  0  0  0  0  0  0  0  0  0
   -1.4169   18.1095   42.6072 H   0  0  0  0  0  0  0  0  0  0  0  0
    6.4301   14.5748   44.3781 H   0  0  0  0  0  0  0  0  0  0  0  0
    8.2796   13.4865   43.1078 H   0  0  0  0  0  0  0  0  0  0  0  0
    6.4773   14.7681   39.3943 H   0  0  0  0  0  0  0  0  0  0  0  0
    4.6526   15.8857   40.6756 H   0  0  0  0  0  0  0  0  0  0  0  0
    4.9426   15.5641   45.3902 H   0  0  0  0  0  0  0  0  0  0  0  0
    2.3327   17.0532   40.7370 H   0  0  0  0  0  0  0  0  0  0  0  0
    0.7086   18.2238   43.8245 H   0  0  0  0  0  0  0  0  0  0  0  0
  1  2  1  0
  1 19  1  0
  1 20  2  0
  2  3  1  0
  2 16  2  0
  3  4  2  0
  4  5  1  0
  5 15  2  0
  5 17  1  0
  6 17  1  0
  6 18  2  0
  6 22  1  0
  7  8  1  0
  7 14  2  0
  7 18  1  0
  8  9  1  0
  8 13  2  0
  9 10  2  0
 10 11  1  0
 11 12  2  0
 11 23  1  0
 12 13  1  0
 14 22  1  0
 15 16  1  0
 16 21  1  0
  3 24  1  0
  4 25  1  0
  9 26  1  0
 10 27  1  0
 12 28  1  0
 13 29  1  0
 14 30  1  0
 15 31  1  0
 17 32  1  0
M  CHG  2  19  -1  21  -1
M  END
>  <mol_id>  (93) 
2026-08-23-6tgu-s0-n100-r9-0093

>  <rmsd_to_ref>  (93) 
4.678571428579096

$$$$
6tgu.A
     RDKit          3D

 32 34  0  0  0  0  0  0  0  0999 V2000
   -2.6390   21.4354   37.8597 C   0  0  0  0  0  0  0  0  0  0  0  0
   -1.7208   20.4623   38.4370 C   0  0  0  0  0  0  0  0  0  0  0  0
   -1.3683   20.5513   39.7589 C   0  0  0  0  0  0  0  0  0  0  0  0
   -0.4892   19.6144   40.3011 C   0  0  0  0  0  0  0  0  0  0  0  0
    0.0480   18.5957   39.5711 C   0  0  0  0  0  0  0  0  0  0  0  0
    1.8704   17.7278   41.0924 C   0  0  0  0  0  0  0  0  0  0  0  0
    3.4413   17.3410   42.6482 C   0  0  0  0  0  0  0  0  0  0  0  0
    4.3548   16.3822   43.2583 C   0  0  0  0  0  0  0  0  0  0  0  0
    4.4646   15.0697   42.8516 C   0  0  0  0  0  0  0  0  0  0  0  0
    5.3171   14.1585   43.4156 C   0  0  0  0  0  0  0  0  0  0  0  0
    6.1312   14.5424   44.4566 C   0  0  0  0  0  0  0  0  0  0  0  0
    6.0500   15.8416   44.8891 C   0  0  0  0  0  0  0  0  0  0  0  0
    5.1816   16.7616   44.3116 C   0  0  0  0  0  0  0  0  0  0  0  0
    3.3565   18.6711   43.0879 C   0  0  0  0  0  0  0  0  0  0  0  0
   -0.3452   18.5476   38.2207 C   0  0  0  0  0  0  0  0  0  0  0  0
   -1.2039   19.4558   37.6734 C   0  0  0  0  0  0  0  0  0  0  0  0
    0.9427   17.6170   39.9972 N   0  0  0  0  0  0  0  0  0  0  0  0
    2.6260   17.0817   41.6565 N   0  0  0  0  0  0  0  0  0  0  0  0
   -3.1755   22.4629   38.6089 O   0  0  0  0  0  0  0  0  0  0  0  0
   -2.9358   21.3147   36.6438 O   0  0  0  0  0  0  0  0  0  0  0  0
   -1.5486   19.3402   36.3130 O   0  0  0  0  0  0  0  0  0  0  0  0
    2.0695   19.3856   41.9718 S   0  0  0  0  0  0  0  0  0  0  0  0
    7.2368   13.4029   45.2055 Cl  0  0  0  0  0  0  0  0  0  0  0  0
   -1.7800   21.3503   40.3656 H   0  0  0  0  0  0  0  0  0  0  0  0
   -0.2641   19.7321   41.3414 H   0  0  0  0  0  0  0  0  0  0  0  0
    3.8143   14.7625   42.0197 H   0  0  0  0  0  0  0  0  0  0  0  0
    5.3387   13.1523   43.0353 H   0  0  0  0  0  0  0  0  0  0  0  0
    6.6702   16.1850   45.7026 H   0  0  0  0  0  0  0  0  0  0  0  0
    5.1624   17.7622   44.6930 H   0  0  0  0  0  0  0  0  0  0  0  0
    3.8539   19.2116   43.8443 H   0  0  0  0  0  0  0  0  0  0  0  0
    0.0456   17.7574   37.5770 H   0  0  0  0  0  0  0  0  0  0  0  0
    0.9795   16.6955   39.5044 H   0  0  0  0  0  0  0  0  0  0  0  0
  1  2  1  0
  1 19  1  0
  1 20  2  0
  2  3  1  0
  2 16  2  0
  3  4  2  0
  4  5  1  0
  5 15  2  0
  5 17  1  0
  6 17  1  0
  6 18  2  0
  6 22  1  0
  7  8  1  0
  7 14  2  0
  7 18  1  0
  8  9  1  0
  8 13  2  0
  9 10  2  0
 10 11  1  0
 11 12  2  0
 11 23  1  0
 12 13  1  0
 14 22  1  0
 15 16  1  0
 16 21  1  0
  3 24  1  0
  4 25  1  0
  9 26  1  0
 10 27  1  0
 12 28  1  0
 13 29  1  0
 14 30  1  0
 15 31  1  0
 17 32  1  0
M  CHG  2  19  -1  21  -1
M  END
>  <mol_id>  (94) 
2026-08-23-6tgu-s0-n100-r9-0094

>  <rmsd_to_ref>  (94) 
4.724489795925792

$$$$
6tgu.A
     RDKit          3D

 32 34  0  0  0  0  0  0  0  0999 V2000
   -1.7081   14.9369   35.7373 C   0  0  0  0  0  0  0  0  0  0  0  0
   -0.6974   15.6710   36.6229 C   0  0  0  0  0  0  0  0  0  0  0  0
   -0.1030   16.8533   36.1873 C   0  0  0  0  0  0  0  0  0  0  0  0
    0.6742   17.6492   37.0353 C   0  0  0  0  0  0  0  0  0  0  0  0
    1.0240   17.1852   38.3117 C   0  0  0  0  0  0  0  0  0  0  0  0
    1.8271   18.0149   40.5766 C   0  0  0  0  0  0  0  0  0  0  0  0
    1.4755   17.2846   42.7023 C   0  0  0  0  0  0  0  0  0  0  0  0
    1.0161   16.3424   43.7233 C   0  0  0  0  0  0  0  0  0  0  0  0
    1.0531   16.6515   45.0904 C   0  0  0  0  0  0  0  0  0  0  0  0
    0.5799   15.7539   46.0425 C   0  0  0  0  0  0  0  0  0  0  0  0
    0.0279   14.5616   45.6134 C   0  0  0  0  0  0  0  0  0  0  0  0
   -0.0339   14.2183   44.2712 C   0  0  0  0  0  0  0  0  0  0  0  0
    0.4552   15.1248   43.3347 C   0  0  0  0  0  0  0  0  0  0  0  0
    1.9908   18.5231   42.9796 C   0  0  0  0  0  0  0  0  0  0  0  0
    0.4256   16.0027   38.7695 C   0  0  0  0  0  0  0  0  0  0  0  0
   -0.4100   15.2721   37.9228 C   0  0  0  0  0  0  0  0  0  0  0  0
    1.7625   18.0120   39.2129 N   0  0  0  0  0  0  0  0  0  0  0  0
    1.2819   16.9974   41.3304 N   0  0  0  0  0  0  0  0  0  0  0  0
   -2.0867   15.5416   34.6913 O   0  0  0  0  0  0  0  0  0  0  0  0
   -2.1377   13.8400   36.1568 O   0  0  0  0  0  0  0  0  0  0  0  0
   -1.0728   14.1728   38.4149 O   0  0  0  0  0  0  0  0  0  0  0  0
    2.2436   19.4239   41.5331 S   0  0  0  0  0  0  0  0  0  0  0  0
   -0.6027   13.4519   46.7849 Cl  0  0  0  0  0  0  0  0  0  0  0  0
   -0.2493   17.1706   35.1443 H   0  0  0  0  0  0  0  0  0  0  0  0
    1.0117   18.6411   36.7002 H   0  0  0  0  0  0  0  0  0  0  0  0
    1.4630   17.6191   45.4156 H   0  0  0  0  0  0  0  0  0  0  0  0
    0.6437   15.9886   47.1153 H   0  0  0  0  0  0  0  0  0  0  0  0
   -0.4586   13.2543   43.9547 H   0  0  0  0  0  0  0  0  0  0  0  0
    0.3983   14.8760   42.2647 H   0  0  0  0  0  0  0  0  0  0  0  0
    2.2136   18.8932   43.9913 H   0  0  0  0  0  0  0  0  0  0  0  0
    0.6143   15.6511   39.7946 H   0  0  0  0  0  0  0  0  0  0  0  0
    2.3454   18.7277   38.7560 H   0  0  0  0  0  0  0  0  0  0  0  0
  1  2  1  0
  1 19  1  0
  1 20  2  0
  2  3  1  0
  2 16  2  0
  3  4  2  0
  4  5  1  0
  5 15  2  0
  5 17  1  0
  6 17  1  0
  6 18  2  0
  6 22  1  0
  7  8  1  0
  7 14  2  0
  7 18  1  0
  8  9  1  0
  8 13  2  0
  9 10  2  0
 10 11  1  0
 11 12  2  0
 11 23  1  0
 12 13  1  0
 14 22  1  0
 15 16  1  0
 16 21  1  0
  3 24  1  0
  4 25  1  0
  9 26  1  0
 10 27  1  0
 12 28  1  0
 13 29  1  0
 14 30  1  0
 15 31  1  0
 17 32  1  0
M  CHG  2  19  -1  21  -1
M  END
>  <mol_id>  (95) 
2026-08-23-6tgu-s0-n100-r9-0095

>  <rmsd_to_ref>  (95) 
4.770408163268154

$$$$
6tgu.A
     RDKit          3D

 32 34  0  0  0  0  0  0  0  0999 V2000
    5.6928   18.6667   39.1282 C   0  0  0  0  0  0  0  0  0  0  0  0
    4.6411   18.3800   40.0955 C   0  0  0  0  0  0  0  0  0  0  0  0
    3.3381   18.5370   39.6530 C   0  0  0  0  0  0  0  0  0  0  0  0
    2.2482   18.2786   40.4958 C   0  0  0  0  0  0  0  0  0  0  0  0
    2.5327   17.8582   41.7936 C   0  0  0  0  0  0  0  0  0  0  0  0
    0.1147   17.8553   42.3104 C   0  0  0  0  0  0  0  0  0  0  0  0
   -1.9924   17.7202   41.4337 C   0  0  0  0  0  0  0  0  0  0  0  0
   -3.0063   16.9911   40.6024 C   0  0  0  0  0  0  0  0  0  0  0  0
   -2.6319   15.7769   40.0068 C   0  0  0  0  0  0  0  0  0  0  0  0
   -3.5910   15.1079   39.2338 C   0  0  0  0  0  0  0  0  0  0  0  0
   -4.8612   15.6550   39.0822 C   0  0  0  0  0  0  0  0  0  0  0  0
   -5.2070   16.8365   39.6691 C   0  0  0  0  0  0  0  0  0  0  0  0
   -4.2670   17.4929   40.4267 C   0  0  0  0  0  0  0  0  0  0  0  0
   -2.3462   18.9260   42.0093 C   0  0  0  0  0  0  0  0  0  0  0  0
    3.8363   17.7064   42.2210 C   0  0  0  0  0  0  0  0  0  0  0  0
    4.9125   17.9601   41.3934 C   0  0  0  0  0  0  0  0  0  0  0  0
    1.4528   17.5804   42.6715 N   0  0  0  0  0  0  0  0  0  0  0  0
   -0.8076   17.2633   41.6137 N   0  0  0  0  0  0  0  0  0  0  0  0
    7.0038   18.5042   39.5746 O   0  0  0  0  0  0  0  0  0  0  0  0
    5.4637   19.0437   37.9431 O   0  0  0  0  0  0  0  0  0  0  0  0
    6.2315   17.8193   41.7866 O   0  0  0  0  0  0  0  0  0  0  0  0
   -0.7564   19.4074   42.8929 S   0  0  0  0  0  0  0  0  0  0  0  0
   -6.0286   14.8087   38.1234 Cl  0  0  0  0  0  0  0  0  0  0  0  0
    3.0910   18.8629   38.6446 H   0  0  0  0  0  0  0  0  0  0  0  0
    1.2216   18.4027   40.1435 H   0  0  0  0  0  0  0  0  0  0  0  0
   -1.6345   15.3665   40.1376 H   0  0  0  0  0  0  0  0  0  0  0  0
   -3.3173   14.1529   38.7558 H   0  0  0  0  0  0  0  0  0  0  0  0
   -6.1846   17.2780   39.5645 H   0  0  0  0  0  0  0  0  0  0  0  0
   -4.5605   18.4343   40.8866 H   0  0  0  0  0  0  0  0  0  0  0  0
   -3.1810   19.4794   42.0210 H   0  0  0  0  0  0  0  0  0  0  0  0
    4.0379   17.3760   43.2483 H   0  0  0  0  0  0  0  0  0  0  0  0
    1.6315   17.1645   43.6084 H   0  0  0  0  0  0  0  0  0  0  0  0
  1  2  1  0
  1 19  1  0
  1 20  2  0
  2  3  1  0
  2 16  2  0
  3  4  2  0
  4  5  1  0
  5 15  2  0
  5 17  1  0
  6 17  1  0
  6 18  2  0
  6 22  1  0
  7  8  1  0
  7 14  2  0
  7 18  1  0
  8  9  1  0
  8 13  2  0
  9 10  2  0
 10 11  1  0
 11 12  2  0
 11 23  1  0
 12 13  1  0
 14 22  1  0
 15 16  1  0
 16 21  1  0
  3 24  1  0
  4 25  1  0
  9 26  1  0
 10 27  1  0
 12 28  1  0
 13 29  1  0
 14 30  1  0
 15 31  1  0
 17 32  1  0
M  CHG  2  19  -1  21  -1
M  END
>  <mol_id>  (96) 
2026-08-23-6tgu-s0-n100-r9-0096

>  <rmsd_to_ref>  (96) 
4.816326530618774

$$$$
6tgu.A
     RDKit          3D

 32 34  0  0  0  0  0  0  0  0999 V2000
    7.1593   18.6197   41.8980 C   0  0  0  0  0  0  0  0  0  0  0  0
    5.8019   19.0781   41.3577 C   0  0  0  0  0  0  0  0  0  0  0  0
    5.6398   20.3668   40.8542 C   0  0  0  0  0  0  0  0  0  0  0  0
    4.4778   20.7601   40.1822 C   0  0  0  0  0  0  0  0  0  0  0  0
    3.3620   19.9112   40.1491 C   0  0  0  0  0  0  0  0  0  0  0  0
    1.2159   19.4997   38.8498 C   0  0  0  0  0  0  0  0  0  0  0  0
    0.0409   17.6125   38.3665 C   0  0  0  0  0  0  0  0  0  0  0  0
   -0.2990   16.1941   38.4830 C   0  0  0  0  0  0  0  0  0  0  0  0
   -1.2628   15.5908   37.6625 C   0  0  0  0  0  0  0  0  0  0  0  0
   -1.5465   14.2327   37.7674 C   0  0  0  0  0  0  0  0  0  0  0  0
   -0.8267   13.4725   38.6698 C   0  0  0  0  0  0  0  0  0  0  0  0
    0.1388   14.0271   39.4964 C   0  0  0  0  0  0  0  0  0  0  0  0
    0.4003   15.3899   39.3844 C   0  0  0  0  0  0  0  0  0  0  0  0
   -0.5496   18.4709   37.4772 C   0  0  0  0  0  0  0  0  0  0  0  0
    3.5119   18.6069   40.6415 C   0  0  0  0  0  0  0  0  0  0  0  0
    4.7146   18.2211   41.2363 C   0  0  0  0  0  0  0  0  0  0  0  0
    2.1915   20.2709   39.4131 N   0  0  0  0  0  0  0  0  0  0  0  0
    1.1222   18.1482   39.1055 N   0  0  0  0  0  0  0  0  0  0  0  0
    8.1367   19.4017   41.7073 O   0  0  0  0  0  0  0  0  0  0  0  0
    7.2100   17.4799   42.4100 O   0  0  0  0  0  0  0  0  0  0  0  0
    4.8867   16.9124   41.6204 O   0  0  0  0  0  0  0  0  0  0  0  0
    0.2321   20.0060   37.4899 S   0  0  0  0  0  0  0  0  0  0  0  0
   -1.1405   11.7724   38.7827 Cl  0  0  0  0  0  0  0  0  0  0  0  0
    6.4506   21.0978   40.9893 H   0  0  0  0  0  0  0  0  0  0  0  0
    4.4391   21.7373   39.6786 H   0  0  0  0  0  0  0  0  0  0  0  0
   -1.8033   16.2011   36.9240 H   0  0  0  0  0  0  0  0  0  0  0  0
   -2.3281   13.7732   37.1445 H   0  0  0  0  0  0  0  0  0  0  0  0
    0.6843   13.4059   40.2221 H   0  0  0  0  0  0  0  0  0  0  0  0
    1.1751   15.8429   40.0204 H   0  0  0  0  0  0  0  0  0  0  0  0
   -1.4086   18.2142   36.8398 H   0  0  0  0  0  0  0  0  0  0  0  0
    2.6829   17.8886   40.5593 H   0  0  0  0  0  0  0  0  0  0  0  0
    2.0614   21.2847   39.2859 H   0  0  0  0  0  0  0  0  0  0  0  0
  1  2  1  0
  1 19  1  0
  1 20  2  0
  2  3  1  0
  2 16  2  0
  3  4  2  0
  4  5  1  0
  5 15  2  0
  5 17  1  0
  6 17  1  0
  6 18  2  0
  6 22  1  0
  7  8  1  0
  7 14  2  0
  7 18  1  0
  8  9  1  0
  8 13  2  0
  9 10  2  0
 10 11  1  0
 11 12  2  0
 11 23  1  0
 12 13  1  0
 14 22  1  0
 15 16  1  0
 16 21  1  0
  3 24  1  0
  4 25  1  0
  9 26  1  0
 10 27  1  0
 12 28  1  0
 13 29  1  0
 14 30  1  0
 15 31  1  0
 17 32  1  0
M  CHG  2  19  -1  21  -1
M  END
>  <mol_id>  (97) 
2026-08-23-6tgu-s0-n100-r9-0097

>  <rmsd_to_ref>  (97) 
4.862244897964869

$$$$
6tgu.A
     RDKit          3D

 32 34  0  0  0  0  0  0  0  0999 V2000
   -0.5190   16.5962   33.8676 C   0  0  0  0  0  0  0  0  0  0  0  0
    0.1462   16.3110   35.1298 C   0  0  0  0  0  0  0  0  0  0  0  0
   -0.0363   17.2017   36.1647 C   0  0  0  0  0  0  0  0  0  0  0  0
    0.5761   16.9689   37.3779 C   0  0  0  0  0  0  0  0  0  0  0  0
    1.3766   15.8848   37.6364 C   0  0  0  0  0  0  0  0  0  0  0  0
    1.6060   15.9411   40.1455 C   0  0  0  0  0  0  0  0  0  0  0  0
    1.3774   16.2867   42.3526 C   0  0  0  0  0  0  0  0  0  0  0  0
    1.9857   16.1296   43.6990 C   0  0  0  0  0  0  0  0  0  0  0  0
    3.2001   15.5523   43.9023 C   0  0  0  0  0  0  0  0  0  0  0  0
    3.7399   15.4245   45.1781 C   0  0  0  0  0  0  0  0  0  0  0  0
    3.0219   15.8986   46.2770 C   0  0  0  0  0  0  0  0  0  0  0  0
    1.7884   16.4874   46.0930 C   0  0  0  0  0  0  0  0  0  0  0  0
    1.2996   16.5888   44.8075 C   0  0  0  0  0  0  0  0  0  0  0  0
    0.1822   16.8626   42.1510 C   0  0  0  0  0  0  0  0  0  0  0  0
    1.5496   14.9909   36.5689 C   0  0  0  0  0  0  0  0  0  0  0  0
    0.9429   15.2054   35.3414 C   0  0  0  0  0  0  0  0  0  0  0  0
    2.0102   15.5723   38.8367 N   0  0  0  0  0  0  0  0  0  0  0  0
    1.9567   15.8805   41.2371 N   0  0  0  0  0  0  0  0  0  0  0  0
   -0.3317   15.6873   32.8123 O   0  0  0  0  0  0  0  0  0  0  0  0
   -1.2454   17.6066   33.6778 O   0  0  0  0  0  0  0  0  0  0  0  0
    1.1352   14.3013   34.3103 O   0  0  0  0  0  0  0  0  0  0  0  0
   -0.0704   16.8036   40.3875 S   0  0  0  0  0  0  0  0  0  0  0  0
    3.6220   15.7806   47.9075 Cl  0  0  0  0  0  0  0  0  0  0  0  0
   -0.6627   18.0841   36.0228 H   0  0  0  0  0  0  0  0  0  0  0  0
    0.4115   17.7015   38.1476 H   0  0  0  0  0  0  0  0  0  0  0  0
    3.7575   15.1845   43.0516 H   0  0  0  0  0  0  0  0  0  0  0  0
    4.6941   14.9696   45.3416 H   0  0  0  0  0  0  0  0  0  0  0  0
    1.1960   16.8726   46.9332 H   0  0  0  0  0  0  0  0  0  0  0  0
    0.3263   17.0575   44.6957 H   0  0  0  0  0  0  0  0  0  0  0  0
   -0.5623   17.3112   42.8782 H   0  0  0  0  0  0  0  0  0  0  0  0
    2.1641   14.1129   36.6908 H   0  0  0  0  0  0  0  0  0  0  0  0
    2.9066   14.9918   38.8099 H   0  0  0  0  0  0  0  0  0  0  0  0
  1  2  1  0
  1 19  1  0
  1 20  2  0
  2  3  1  0
  2 16  2  0
  3  4  2  0
  4  5  1  0
  5 15  2  0
  5 17  1  0
  6 17  1  0
  6 18  2  0
  6 22  1  0
  7  8  1  0
  7 14  2  0
  7 18  1  0
  8  9  1  0
  8 13  2  0
  9 10  2  0
 10 11  1  0
 11 12  2  0
 11 23  1  0
 12 13  1  0
 14 22  1  0
 15 16  1  0
 16 21  1  0
  3 24  1  0
  4 25  1  0
  9 26  1  0
 10 27  1  0
 12 28  1  0
 13 29  1  0
 14 30  1  0
 15 31  1  0
 17 32  1  0
M  CHG  2  19  -1  21  -1
M  END
>  <mol_id>  (98) 
2026-08-23-6tgu-s0-n100-r9-0098

>  <rmsd_to_ref>  (98) 
4.908163265311402

$$$$
6tgu.A
     RDKit          3D

 32 34  0  0  0  0  0  0  0  0999 V2000
    0.5532   20.4537   40.0946 C   0  0  0  0  0  0  0  0  0  0  0  0
    1.7201   19.4711   39.9623 C   0  0  0  0  0  0  0  0  0  0  0  0
    2.7429   19.7069   39.0463 C   0  0  0  0  0  0  0  0  0  0  0  0
    3.9131   18.9409   39.0274 C   0  0  0  0  0  0  0  0  0  0  0  0
    4.0151   17.7913   39.8241 C   0  0  0  0  0  0  0  0  0  0  0  0
    5.7395   16.2166   40.8291 C   0  0  0  0  0  0  0  0  0  0  0  0
    5.7902   15.0088   42.7564 C   0  0  0  0  0  0  0  0  0  0  0  0
    5.2243   14.4290   43.9748 C   0  0  0  0  0  0  0  0  0  0  0  0
    6.0140   13.7402   44.9065 C   0  0  0  0  0  0  0  0  0  0  0  0
    5.4614   13.2259   46.0752 C   0  0  0  0  0  0  0  0  0  0  0  0
    4.1199   13.4442   46.3266 C   0  0  0  0  0  0  0  0  0  0  0  0
    3.3038   14.1247   45.4355 C   0  0  0  0  0  0  0  0  0  0  0  0
    3.8730   14.6219   44.2663 C   0  0  0  0  0  0  0  0  0  0  0  0
    7.1122   14.9202   42.4086 C   0  0  0  0  0  0  0  0  0  0  0  0
    2.9995   17.5457   40.7591 C   0  0  0  0  0  0  0  0  0  0  0  0
    1.8796   18.3780   40.8056 C   0  0  0  0  0  0  0  0  0  0  0  0
    5.2265   17.0350   39.8643 N   0  0  0  0  0  0  0  0  0  0  0  0
    4.9923   15.8241   41.9192 N   0  0  0  0  0  0  0  0  0  0  0  0
    0.6595   21.5454   39.4622 O   0  0  0  0  0  0  0  0  0  0  0  0
   -0.3696   20.1359   40.8765 O   0  0  0  0  0  0  0  0  0  0  0  0
    0.9419   18.1909   41.7932 O   0  0  0  0  0  0  0  0  0  0  0  0
    7.4494   15.8788   41.0175 S   0  0  0  0  0  0  0  0  0  0  0  0
    3.4269   12.8451   47.7970 Cl  0  0  0  0  0  0  0  0  0  0  0  0
    2.6266   20.5207   38.3154 H   0  0  0  0  0  0  0  0  0  0  0  0
    4.7551   19.2409   38.3862 H   0  0  0  0  0  0  0  0  0  0  0  0
    7.0878   13.6043   44.7102 H   0  0  0  0  0  0  0  0  0  0  0  0
    6.0797   12.6568   46.7850 H   0  0  0  0  0  0  0  0  0  0  0  0
    2.2339   14.2681   45.6471 H   0  0  0  0  0  0  0  0  0  0  0  0
    3.2439   15.1790   43.5565 H   0  0  0  0  0  0  0  0  0  0  0  0
    7.8590   14.3173   42.9461 H   0  0  0  0  0  0  0  0  0  0  0  0
    3.0851   16.6982   41.4553 H   0  0  0  0  0  0  0  0  0  0  0  0
    5.8127   17.1219   39.0218 H   0  0  0  0  0  0  0  0  0  0  0  0
  1  2  1  0
  1 19  1  0
  1 20  2  0
  2  3  1  0
  2 16  2  0
  3  4  2  0
  4  5  1  0
  5 15  2  0
  5 17  1  0
  6 17  1  0
  6 18  2  0
  6 22  1  0
  7  8  1  0
  7 14  2  0
  7 18  1  0
  8  9  1  0
  8 13  2  0
  9 10  2  0
 10 11  1  0
 11 12  2  0
 11 23  1  0
 12 13  1  0
 14 22  1  0
 15 16  1  0
 16 21  1  0
  3 24  1  0
  4 25  1  0
  9 26  1  0
 10 27  1  0
 12 28  1  0
 13 29  1  0
 14 30  1  0
 15 31  1  0
 17 32  1  0
M  CHG  2  19  -1  21  -1
M  END
>  <mol_id>  (99) 
2026-08-23-6tgu-s0-n100-r9-0099

>  <rmsd_to_ref>  (99) 
4.954081632653861

$$$$
6tgu.A
     RDKit          3D

 32 34  0  0  0  0  0  0  0  0999 V2000
    2.5068   22.1661   45.5299 C   0  0  0  0  0  0  0  0  0  0  0  0
    2.0815   21.0907   44.6440 C   0  0  0  0  0  0  0  0  0  0  0  0
    0.8207   21.0210   44.0919 C   0  0  0  0  0  0  0  0  0  0  0  0
    0.4494   19.9908   43.2577 C   0  0  0  0  0  0  0  0  0  0  0  0
    1.3392   18.9573   42.9273 C   0  0  0  0  0  0  0  0  0  0  0  0
    1.3294   16.6326   41.9644 C   0  0  0  0  0  0  0  0  0  0  0  0
    1.6275   14.4785   41.3392 C   0  0  0  0  0  0  0  0  0  0  0  0
    1.2958   13.3894   40.4300 C   0  0  0  0  0  0  0  0  0  0  0  0
    1.8837   12.1506   40.5817 C   0  0  0  0  0  0  0  0  0  0  0  0
    1.6082   11.0964   39.7569 C   0  0  0  0  0  0  0  0  0  0  0  0
    0.7151   11.2458   38.7273 C   0  0  0  0  0  0  0  0  0  0  0  0
    0.1187   12.4857   38.5655 C   0  0  0  0  0  0  0  0  0  0  0  0
    0.4047   13.5383   39.4026 C   0  0  0  0  0  0  0  0  0  0  0  0
    2.5618   14.3064   42.4058 C   0  0  0  0  0  0  0  0  0  0  0  0
    2.5860   19.0493   43.4881 C   0  0  0  0  0  0  0  0  0  0  0  0
    2.9704   20.0850   44.3314 C   0  0  0  0  0  0  0  0  0  0  0  0
    0.8763   17.9670   42.0607 N   0  0  0  0  0  0  0  0  0  0  0  0
    1.1406   15.6884   41.2986 N   0  0  0  0  0  0  0  0  0  0  0  0
    1.6499   23.2025   45.8748 O   0  0  0  0  0  0  0  0  0  0  0  0
    3.6828   22.1237   45.9742 O   0  0  0  0  0  0  0  0  0  0  0  0
    4.2663   20.1026   44.8629 O   0  0  0  0  0  0  0  0  0  0  0  0
    2.5936   15.9730   43.2115 S   0  0  0  0  0  0  0  0  0  0  0  0
    0.3261    9.9228   37.6381 Cl  0  0  0  0  0  0  0  0  0  0  0  0
    0.1204   21.8269   44.3470 H   0  0  0  0  0  0  0  0  0  0  0  0
   -0.5536   19.9817   42.8492 H   0  0  0  0  0  0  0  0  0  0  0  0
    2.5997   11.9775   41.3820 H   0  0  0  0  0  0  0  0  0  0  0  0
    2.0816   10.1510   39.9036 H   0  0  0  0  0  0  0  0  0  0  0  0
   -0.5872   12.6122   37.7554 H   0  0  0  0  0  0  0  0  0  0  0  0
   -0.0756   14.5069   39.2585 H   0  0  0  0  0  0  0  0  0  0  0  0
    3.1325   13.4673   42.7200 H   0  0  0  0  0  0  0  0  0  0  0  0
    3.3374   18.3098   43.2816 H   0  0  0  0  0  0  0  0  0  0  0  0
    0.0952   18.2182   41.3851 H   0  0  0  0  0  0  0  0  0  0  0  0
  1  2  1  0
  1 19  1  0
  1 20  2  0
  2  3  1  0
  2 16  2  0
  3  4  2  0
  4  5  1  0
  5 15  2  0
  5 17  1  0
  6 17  1  0
  6 18  2  0
  6 22  1  0
  7  8  1  0
  7 14  2  0
  7 18  1  0
  8  9  1  0
  8 13  2  0
  9 10  2  0
 10 11  1  0
 11 12  2  0
 11 23  1  0
 12 13  1  0
 14 22  1  0
 15 16  1  0
 16 21  1  0
  3 24  1  0
  4 25  1  0
  9 26  1  0
 10 27  1  0
 12 28  1  0
 13 29  1  0
 14 30  1  0
 15 31  1  0
 17 32  1  0
M  CHG  2  19  -1  21  -1
M  END
>  <mol_id>  (100) 
2026-08-23-6tgu-s0-n100-r9-0100

>  <rmsd_to_ref>  (100) 
5.000000000002433

$$$$
