3war.A
     RDKit          3D

 13 13  0  0  0  0  0  0  0  0999 V2000
    2.0001   18.6245   40.6926 N   0  0  0  0  0  0  0  0  0  0  0  0
    2.5782   18.5757   39.4013 C   0  0  0  0  0  0  0  0  0  0  0  0
    2.4967   19.7718   38.6000 C   0  0  0  0  0  0  0  0  0  0  0  0
    1.8538   20.9004   39.0765 C   0  0  0  0  0  0  0  0  0  0  0  0
    1.3289   20.9112   40.3502 C   0  0  0  0  0  0  0  0  0  0  0  0
    1.3818   19.7712   41.1205 C   0  0  0  0  0  0  0  0  0  0  0  0
    3.0116   19.7599   37.1684 C   0  0  0  0  0  0  0  0  0  0  0  0
    3.7306   18.7870   36.7954 O   0  0  0  0  0  0  0  0  0  0  0  0
    2.6655   20.7081   36.4973 O   0  0  0  0  0  0  0  0  0  0  0  0
    3.0681   17.6653   39.0256 H   0  0  0  0  0  0  0  0  0  0  0  0
    1.7616   21.7908   38.4372 H   0  0  0  0  0  0  0  0  0  0  0  0
    0.8693   21.8270   40.7502 H   0  0  0  0  0  0  0  0  0  0  0  0
    0.9112   19.7806   42.1147 H   0  0  0  0  0  0  0  0  0  0  0  0
  1  2  1  0
  1  6  2  0
  2  3  2  0
  3  4  1  0
  3  7  1  0
  4  5  2  0
  5  6  1  0
  7  8  1  0
  7  9  2  0
  2 10  1  0
  4 11  1  0
  5 12  1  0
  6 13  1  0
M  CHG  1   8  -1
M  END
>  <mol_id>  (1) 
2026-09-18-3war-s0-n100-r6-0001

>  <rmsd_to_ref>  (1) 
0.0

>  <pose_kind>  (1) 
native

$$$$
3war.A
     RDKit          3D

 13 13  0  0  0  0  0  0  0  0999 V2000
    1.8262   18.6043   40.4617 N   0  0  0  0  0  0  0  0  0  0  0  0
    2.5885   18.7368   39.3436 C   0  0  0  0  0  0  0  0  0  0  0  0
    2.6308   19.9625   38.7085 C   0  0  0  0  0  0  0  0  0  0  0  0
    1.9125   21.0317   39.2004 C   0  0  0  0  0  0  0  0  0  0  0  0
    1.1409   20.8893   40.3362 C   0  0  0  0  0  0  0  0  0  0  0  0
    1.1189   19.6524   40.9484 C   0  0  0  0  0  0  0  0  0  0  0  0
    3.4510   20.1215   37.4977 C   0  0  0  0  0  0  0  0  0  0  0  0
    4.1701   19.0624   36.9998 O   0  0  0  0  0  0  0  0  0  0  0  0
    3.4552   21.2652   36.9539 O   0  0  0  0  0  0  0  0  0  0  0  0
    3.1490   17.9242   38.9495 H   0  0  0  0  0  0  0  0  0  0  0  0
    1.9161   22.0063   38.7371 H   0  0  0  0  0  0  0  0  0  0  0  0
    0.5661   21.7085   40.7470 H   0  0  0  0  0  0  0  0  0  0  0  0
    0.5061   19.5643   41.8386 H   0  0  0  0  0  0  0  0  0  0  0  0
  1  2  1  0
  1  6  2  0
  2  3  2  0
  3  4  1  0
  3  7  1  0
  4  5  2  0
  5  6  1  0
  7  8  1  0
  7  9  2  0
  2 10  1  0
  4 11  1  0
  5 12  1  0
  6 13  1  0
M  CHG  1   8  -1
M  END
>  <mol_id>  (2) 
2026-09-18-3war-s0-n100-r6-0002

>  <rmsd_to_ref>  (2) 
0.5000000000034494

>  <pose_kind>  (2) 
conformer

$$$$
3war.A
     RDKit          3D

 13 13  0  0  0  0  0  0  0  0999 V2000
    2.2198   18.0297   40.2494 N   0  0  0  0  0  0  0  0  0  0  0  0
    2.7299   18.3244   38.9622 C   0  0  0  0  0  0  0  0  0  0  0  0
    2.5118   19.6582   38.4593 C   0  0  0  0  0  0  0  0  0  0  0  0
    1.8088   20.5889   39.2033 C   0  0  0  0  0  0  0  0  0  0  0  0
    1.3537   20.2660   40.4629 C   0  0  0  0  0  0  0  0  0  0  0  0
    1.5372   18.9911   40.9495 C   0  0  0  0  0  0  0  0  0  0  0  0
    2.9486   20.0147   37.0462 C   0  0  0  0  0  0  0  0  0  0  0  0
    3.7207   19.2185   36.4359 O   0  0  0  0  0  0  0  0  0  0  0  0
    2.4936   21.0552   36.6223 O   0  0  0  0  0  0  0  0  0  0  0  0
    3.2689   17.5691   38.3715 H   0  0  0  0  0  0  0  0  0  0  0  0
    1.6127   21.5886   38.7884 H   0  0  0  0  0  0  0  0  0  0  0  0
    0.8457   21.0237   41.0776 H   0  0  0  0  0  0  0  0  0  0  0  0
    1.1213   18.7346   41.9350 H   0  0  0  0  0  0  0  0  0  0  0  0
  1  2  1  0
  1  6  2  0
  2  3  2  0
  3  4  1  0
  3  7  1  0
  4  5  2  0
  5  6  1  0
  7  8  1  0
  7  9  2  0
  2 10  1  0
  4 11  1  0
  5 12  1  0
  6 13  1  0
M  CHG  1   8  -1
M  END
>  <mol_id>  (3) 
2026-09-18-3war-s0-n100-r6-0003

>  <rmsd_to_ref>  (3) 
0.5459183673484661

>  <pose_kind>  (3) 
rigid

$$$$
3war.A
     RDKit          3D

 13 13  0  0  0  0  0  0  0  0999 V2000
    2.3025   18.6702   40.4693 N   0  0  0  0  0  0  0  0  0  0  0  0
    2.9624   18.9385   39.3136 C   0  0  0  0  0  0  0  0  0  0  0  0
    2.6662   20.0876   38.6075 C   0  0  0  0  0  0  0  0  0  0  0  0
    1.6916   20.9595   39.0912 C   0  0  0  0  0  0  0  0  0  0  0  0
    1.0311   20.6634   40.2747 C   0  0  0  0  0  0  0  0  0  0  0  0
    1.3574   19.4893   40.9639 C   0  0  0  0  0  0  0  0  0  0  0  0
    3.3955   20.3384   37.3743 C   0  0  0  0  0  0  0  0  0  0  0  0
    3.1243   21.4988   36.6235 O   0  0  0  0  0  0  0  0  0  0  0  0
    4.2789   19.5693   36.9155 O   0  0  0  0  0  0  0  0  0  0  0  0
    3.7137   18.2707   38.9367 H   0  0  0  0  0  0  0  0  0  0  0  0
    1.4792   21.8463   38.5243 H   0  0  0  0  0  0  0  0  0  0  0  0
    0.2752   21.3398   40.6495 H   0  0  0  0  0  0  0  0  0  0  0  0
    0.8200   19.2831   41.8933 H   0  0  0  0  0  0  0  0  0  0  0  0
  1  2  1  0
  1  6  2  0
  2  3  2  0
  3  4  1  0
  3  7  1  0
  4  5  2  0
  5  6  1  0
  7  8  1  0
  7  9  2  0
  2 10  1  0
  4 11  1  0
  5 12  1  0
  6 13  1  0
M  CHG  1   8  -1
M  END
>  <mol_id>  (4) 
2026-09-18-3war-s0-n100-r6-0004

>  <rmsd_to_ref>  (4) 
0.5918367346944514

>  <pose_kind>  (4) 
conformer

$$$$
3war.A
     RDKit          3D

 13 13  0  0  0  0  0  0  0  0999 V2000
    1.5106   18.3363   39.8751 N   0  0  0  0  0  0  0  0  0  0  0  0
    2.3217   18.5132   38.7284 C   0  0  0  0  0  0  0  0  0  0  0  0
    2.5625   19.8680   38.2973 C   0  0  0  0  0  0  0  0  0  0  0  0
    1.9954   20.9359   38.9696 C   0  0  0  0  0  0  0  0  0  0  0  0
    1.2343   20.7178   40.0970 C   0  0  0  0  0  0  0  0  0  0  0  0
    0.9795   19.4294   40.5103 C   0  0  0  0  0  0  0  0  0  0  0  0
    3.3451   20.1272   37.0186 C   0  0  0  0  0  0  0  0  0  0  0  0
    3.9864   19.1667   36.5002 O   0  0  0  0  0  0  0  0  0  0  0  0
    3.2698   21.2621   36.5994 O   0  0  0  0  0  0  0  0  0  0  0  0
    2.7496   17.6547   38.1899 H   0  0  0  0  0  0  0  0  0  0  0  0
    2.1525   21.9612   38.6032 H   0  0  0  0  0  0  0  0  0  0  0  0
    0.8318   21.5696   40.6648 H   0  0  0  0  0  0  0  0  0  0  0  0
    0.3264   19.2712   41.3813 H   0  0  0  0  0  0  0  0  0  0  0  0
  1  2  1  0
  1  6  2  0
  2  3  2  0
  3  4  1  0
  3  7  1  0
  4  5  2  0
  5  6  1  0
  7  8  1  0
  7  9  2  0
  2 10  1  0
  4 11  1  0
  5 12  1  0
  6 13  1  0
M  CHG  1   8  -1
M  END
>  <mol_id>  (5) 
2026-09-18-3war-s0-n100-r6-0005

>  <rmsd_to_ref>  (5) 
0.6377551020438947

>  <pose_kind>  (5) 
rigid

$$$$
3war.A
     RDKit          3D

 13 13  0  0  0  0  0  0  0  0999 V2000
    2.3143   18.6288   40.6066 N   0  0  0  0  0  0  0  0  0  0  0  0
    3.0555   18.8967   39.5092 C   0  0  0  0  0  0  0  0  0  0  0  0
    2.7375   20.0307   38.7950 C   0  0  0  0  0  0  0  0  0  0  0  0
    1.7160   20.8893   39.1424 C   0  0  0  0  0  0  0  0  0  0  0  0
    0.9772   20.5734   40.2826 C   0  0  0  0  0  0  0  0  0  0  0  0
    1.3145   19.4445   40.9700 C   0  0  0  0  0  0  0  0  0  0  0  0
    3.5168   20.3507   37.6048 C   0  0  0  0  0  0  0  0  0  0  0  0
    4.5683   19.5430   37.1750 O   0  0  0  0  0  0  0  0  0  0  0  0
    3.2616   21.3781   36.9202 O   0  0  0  0  0  0  0  0  0  0  0  0
    3.8542   18.2218   39.2410 H   0  0  0  0  0  0  0  0  0  0  0  0
    1.5206   21.7519   38.5461 H   0  0  0  0  0  0  0  0  0  0  0  0
    0.1721   21.2264   40.5789 H   0  0  0  0  0  0  0  0  0  0  0  0
    0.7543   19.1808   41.8575 H   0  0  0  0  0  0  0  0  0  0  0  0
  1  2  1  0
  1  6  2  0
  2  3  2  0
  3  4  1  0
  3  7  1  0
  4  5  2  0
  5  6  1  0
  7  8  1  0
  7  9  2  0
  2 10  1  0
  4 11  1  0
  5 12  1  0
  6 13  1  0
M  CHG  1   8  -1
M  END
>  <mol_id>  (6) 
2026-09-18-3war-s0-n100-r6-0006

>  <rmsd_to_ref>  (6) 
0.6836734693900713

>  <pose_kind>  (6) 
conformer

$$$$
3war.A
     RDKit          3D

 13 13  0  0  0  0  0  0  0  0999 V2000
    2.1100   18.0943   40.1029 N   0  0  0  0  0  0  0  0  0  0  0  0
    2.6875   18.5027   38.8766 C   0  0  0  0  0  0  0  0  0  0  0  0
    2.2818   19.7843   38.3547 C   0  0  0  0  0  0  0  0  0  0  0  0
    1.3472   20.5563   39.0216 C   0  0  0  0  0  0  0  0  0  0  0  0
    0.8316   20.1307   40.2261 C   0  0  0  0  0  0  0  0  0  0  0  0
    1.1944   18.9011   40.7282 C   0  0  0  0  0  0  0  0  0  0  0  0
    2.7892   20.2427   36.9956 C   0  0  0  0  0  0  0  0  0  0  0  0
    3.7529   19.6128   36.4691 O   0  0  0  0  0  0  0  0  0  0  0  0
    2.1975   21.1912   36.5271 O   0  0  0  0  0  0  0  0  0  0  0  0
    3.4137   17.8702   38.3452 H   0  0  0  0  0  0  0  0  0  0  0  0
    1.0153   21.5117   38.5892 H   0  0  0  0  0  0  0  0  0  0  0  0
    0.1328   20.7708   40.7846 H   0  0  0  0  0  0  0  0  0  0  0  0
    0.7332   18.5534   41.6643 H   0  0  0  0  0  0  0  0  0  0  0  0
  1  2  1  0
  1  6  2  0
  2  3  2  0
  3  4  1  0
  3  7  1  0
  4  5  2  0
  5  6  1  0
  7  8  1  0
  7  9  2  0
  2 10  1  0
  4 11  1  0
  5 12  1  0
  6 13  1  0
M  CHG  1   8  -1
M  END
>  <mol_id>  (7) 
2026-09-18-3war-s0-n100-r6-0007

>  <rmsd_to_ref>  (7) 
0.7295918367348984

>  <pose_kind>  (7) 
rigid

$$$$
3war.A
     RDKit          3D

 13 13  0  0  0  0  0  0  0  0999 V2000
    2.0162   18.3138   40.2553 N   0  0  0  0  0  0  0  0  0  0  0  0
    2.5337   18.4746   39.0248 C   0  0  0  0  0  0  0  0  0  0  0  0
    2.9505   19.7039   38.5731 C   0  0  0  0  0  0  0  0  0  0  0  0
    2.8437   20.8113   39.3863 C   0  0  0  0  0  0  0  0  0  0  0  0
    2.3096   20.6591   40.6629 C   0  0  0  0  0  0  0  0  0  0  0  0
    1.9127   19.4013   41.0503 C   0  0  0  0  0  0  0  0  0  0  0  0
    3.5101   19.8704   37.2391 C   0  0  0  0  0  0  0  0  0  0  0  0
    3.6275   18.7775   36.4063 O   0  0  0  0  0  0  0  0  0  0  0  0
    3.8780   21.0136   36.8688 O   0  0  0  0  0  0  0  0  0  0  0  0
    2.6265   17.6132   38.3678 H   0  0  0  0  0  0  0  0  0  0  0  0
    3.1774   21.7896   39.0215 H   0  0  0  0  0  0  0  0  0  0  0  0
    2.2075   21.4823   41.3246 H   0  0  0  0  0  0  0  0  0  0  0  0
    1.4815   19.2014   42.0430 H   0  0  0  0  0  0  0  0  0  0  0  0
  1  2  1  0
  1  6  2  0
  2  3  2  0
  3  4  1  0
  3  7  1  0
  4  5  2  0
  5  6  1  0
  7  8  1  0
  7  9  2  0
  2 10  1  0
  4 11  1  0
  5 12  1  0
  6 13  1  0
M  CHG  1   8  -1
M  END
>  <mol_id>  (8) 
2026-09-18-3war-s0-n100-r6-0008

>  <rmsd_to_ref>  (8) 
0.77551020408412

>  <pose_kind>  (8) 
conformer

$$$$
3war.A
     RDKit          3D

 13 13  0  0  0  0  0  0  0  0999 V2000
    2.8368   18.4878   40.2376 N   0  0  0  0  0  0  0  0  0  0  0  0
    2.8759   18.5501   38.8239 C   0  0  0  0  0  0  0  0  0  0  0  0
    2.5548   19.8165   38.2135 C   0  0  0  0  0  0  0  0  0  0  0  0
    2.1989   20.9057   38.9888 C   0  0  0  0  0  0  0  0  0  0  0  0
    2.2002   20.8064   40.3628 C   0  0  0  0  0  0  0  0  0  0  0  0
    2.4860   19.5992   40.9601 C   0  0  0  0  0  0  0  0  0  0  0  0
    2.4840   19.9296   36.6979 C   0  0  0  0  0  0  0  0  0  0  0  0
    2.9573   18.9846   36.0011 O   0  0  0  0  0  0  0  0  0  0  0  0
    1.9558   20.9411   36.2892 O   0  0  0  0  0  0  0  0  0  0  0  0
    3.1398   17.6711   38.2175 H   0  0  0  0  0  0  0  0  0  0  0  0
    1.9143   21.8529   38.5071 H   0  0  0  0  0  0  0  0  0  0  0  0
    1.9739   21.6881   40.9804 H   0  0  0  0  0  0  0  0  0  0  0  0
    2.4309   19.5235   42.0561 H   0  0  0  0  0  0  0  0  0  0  0  0
  1  2  1  0
  1  6  2  0
  2  3  2  0
  3  4  1  0
  3  7  1  0
  4  5  2  0
  5  6  1  0
  7  8  1  0
  7  9  2  0
  2 10  1  0
  4 11  1  0
  5 12  1  0
  6 13  1  0
M  CHG  1   8  -1
M  END
>  <mol_id>  (9) 
2026-09-18-3war-s0-n100-r6-0009

>  <rmsd_to_ref>  (9) 
0.8214285714338915

>  <pose_kind>  (9) 
rigid

$$$$
3war.A
     RDKit          3D

 13 13  0  0  0  0  0  0  0  0999 V2000
    1.6229   17.7605   39.9281 N   0  0  0  0  0  0  0  0  0  0  0  0
    2.2466   18.2209   38.8419 C   0  0  0  0  0  0  0  0  0  0  0  0
    2.1788   19.5702   38.5770 C   0  0  0  0  0  0  0  0  0  0  0  0
    1.5018   20.4701   39.3732 C   0  0  0  0  0  0  0  0  0  0  0  0
    0.8685   19.9569   40.4887 C   0  0  0  0  0  0  0  0  0  0  0  0
    0.9365   18.5854   40.7593 C   0  0  0  0  0  0  0  0  0  0  0  0
    2.8583   20.1056   37.3843 C   0  0  0  0  0  0  0  0  0  0  0  0
    3.5632   19.2356   36.5369 O   0  0  0  0  0  0  0  0  0  0  0  0
    2.7907   21.3456   37.1491 O   0  0  0  0  0  0  0  0  0  0  0  0
    2.7788   17.5124   38.2163 H   0  0  0  0  0  0  0  0  0  0  0  0
    1.4496   21.5214   39.1659 H   0  0  0  0  0  0  0  0  0  0  0  0
    0.3190   20.6309   41.1505 H   0  0  0  0  0  0  0  0  0  0  0  0
    0.4302   18.2126   41.6408 H   0  0  0  0  0  0  0  0  0  0  0  0
  1  2  1  0
  1  6  2  0
  2  3  2  0
  3  4  1  0
  3  7  1  0
  4  5  2  0
  5  6  1  0
  7  8  1  0
  7  9  2  0
  2 10  1  0
  4 11  1  0
  5 12  1  0
  6 13  1  0
M  CHG  1   8  -1
M  END
>  <mol_id>  (10) 
2026-09-18-3war-s0-n100-r6-0010

>  <rmsd_to_ref>  (10) 
0.8673469387803096

>  <pose_kind>  (10) 
conformer

$$$$
3war.A
     RDKit          3D

 13 13  0  0  0  0  0  0  0  0999 V2000
    2.1984   18.0703   40.3167 N   0  0  0  0  0  0  0  0  0  0  0  0
    3.0411   18.5302   39.2763 C   0  0  0  0  0  0  0  0  0  0  0  0
    2.9072   19.9118   38.8854 C   0  0  0  0  0  0  0  0  0  0  0  0
    1.9719   20.7314   39.4918 C   0  0  0  0  0  0  0  0  0  0  0  0
    1.1913   20.2479   40.5188 C   0  0  0  0  0  0  0  0  0  0  0  0
    1.2937   18.9262   40.8907 C   0  0  0  0  0  0  0  0  0  0  0  0
    3.7127   20.4472   37.7111 C   0  0  0  0  0  0  0  0  0  0  0  0
    4.6685   19.7458   37.2671 O   0  0  0  0  0  0  0  0  0  0  0  0
    3.3450   21.5239   37.2929 O   0  0  0  0  0  0  0  0  0  0  0  0
    3.7662   17.8629   38.7875 H   0  0  0  0  0  0  0  0  0  0  0  0
    1.8514   21.7710   39.1532 H   0  0  0  0  0  0  0  0  0  0  0  0
    0.4889   20.9152   41.0397 H   0  0  0  0  0  0  0  0  0  0  0  0
    0.6260   18.5430   41.6764 H   0  0  0  0  0  0  0  0  0  0  0  0
  1  2  1  0
  1  6  2  0
  2  3  2  0
  3  4  1  0
  3  7  1  0
  4  5  2  0
  5  6  1  0
  7  8  1  0
  7  9  2  0
  2 10  1  0
  4 11  1  0
  5 12  1  0
  6 13  1  0
M  CHG  1   8  -1
M  END
>  <mol_id>  (11) 
2026-09-18-3war-s0-n100-r6-0011

>  <rmsd_to_ref>  (11) 
0.9132653061281437

>  <pose_kind>  (11) 
rigid

$$$$
3war.A
     RDKit          3D

 13 13  0  0  0  0  0  0  0  0999 V2000
    1.3283   18.1773   40.0787 N   0  0  0  0  0  0  0  0  0  0  0  0
    2.1384   18.6412   39.0985 C   0  0  0  0  0  0  0  0  0  0  0  0
    2.0795   19.9582   38.6813 C   0  0  0  0  0  0  0  0  0  0  0  0
    1.1597   20.8152   39.2937 C   0  0  0  0  0  0  0  0  0  0  0  0
    0.3363   20.3095   40.3023 C   0  0  0  0  0  0  0  0  0  0  0  0
    0.4330   18.9802   40.6862 C   0  0  0  0  0  0  0  0  0  0  0  0
    2.9633   20.4377   37.6215 C   0  0  0  0  0  0  0  0  0  0  0  0
    2.8795   21.7653   37.2254 O   0  0  0  0  0  0  0  0  0  0  0  0
    3.7896   19.6221   37.0879 O   0  0  0  0  0  0  0  0  0  0  0  0
    2.8548   17.9579   38.6273 H   0  0  0  0  0  0  0  0  0  0  0  0
    1.0877   21.8572   38.9890 H   0  0  0  0  0  0  0  0  0  0  0  0
   -0.3919   20.9410   40.8042 H   0  0  0  0  0  0  0  0  0  0  0  0
   -0.1741   18.5365   41.4555 H   0  0  0  0  0  0  0  0  0  0  0  0
  1  2  1  0
  1  6  2  0
  2  3  2  0
  3  4  1  0
  3  7  1  0
  4  5  2  0
  5  6  1  0
  7  8  1  0
  7  9  2  0
  2 10  1  0
  4 11  1  0
  5 12  1  0
  6 13  1  0
M  CHG  1   8  -1
M  END
>  <mol_id>  (12) 
2026-09-18-3war-s0-n100-r6-0012

>  <rmsd_to_ref>  (12) 
0.9591836734706071

>  <pose_kind>  (12) 
conformer

$$$$
3war.A
     RDKit          3D

 13 13  0  0  0  0  0  0  0  0999 V2000
    1.0116   19.0797   40.1577 N   0  0  0  0  0  0  0  0  0  0  0  0
    2.0632   18.7694   39.2622 C   0  0  0  0  0  0  0  0  0  0  0  0
    2.4001   19.7651   38.2751 C   0  0  0  0  0  0  0  0  0  0  0  0
    1.6981   20.9551   38.2020 C   0  0  0  0  0  0  0  0  0  0  0  0
    0.6995   21.2257   39.1117 C   0  0  0  0  0  0  0  0  0  0  0  0
    0.3532   20.2775   40.0481 C   0  0  0  0  0  0  0  0  0  0  0  0
    3.4542   19.4596   37.2214 C   0  0  0  0  0  0  0  0  0  0  0  0
    4.1938   18.4454   37.3863 O   0  0  0  0  0  0  0  0  0  0  0  0
    3.4800   20.2352   36.2903 O   0  0  0  0  0  0  0  0  0  0  0  0
    2.5998   17.8107   39.3169 H   0  0  0  0  0  0  0  0  0  0  0  0
    1.9378   21.6865   37.4161 H   0  0  0  0  0  0  0  0  0  0  0  0
    0.1809   22.1955   39.0901 H   0  0  0  0  0  0  0  0  0  0  0  0
   -0.4816   20.4884   40.7327 H   0  0  0  0  0  0  0  0  0  0  0  0
  1  2  1  0
  1  6  2  0
  2  3  2  0
  3  4  1  0
  3  7  1  0
  4  5  2  0
  5  6  1  0
  7  8  1  0
  7  9  2  0
  2 10  1  0
  4 11  1  0
  5 12  1  0
  6 13  1  0
M  CHG  1   8  -1
M  END
>  <mol_id>  (13) 
2026-09-18-3war-s0-n100-r6-0013

>  <rmsd_to_ref>  (13) 
1.0051020408184368

>  <pose_kind>  (13) 
rigid

$$$$
3war.A
     RDKit          3D

 13 13  0  0  0  0  0  0  0  0999 V2000
    1.9841   19.2119   40.7773 N   0  0  0  0  0  0  0  0  0  0  0  0
    2.5917   18.6168   39.7227 C   0  0  0  0  0  0  0  0  0  0  0  0
    2.7519   19.3035   38.5398 C   0  0  0  0  0  0  0  0  0  0  0  0
    2.3045   20.6079   38.3871 C   0  0  0  0  0  0  0  0  0  0  0  0
    1.6814   21.2021   39.4859 C   0  0  0  0  0  0  0  0  0  0  0  0
    1.5332   20.4785   40.6751 C   0  0  0  0  0  0  0  0  0  0  0  0
    3.4092   18.6600   37.3987 C   0  0  0  0  0  0  0  0  0  0  0  0
    3.8691   17.3484   37.5243 O   0  0  0  0  0  0  0  0  0  0  0  0
    3.5390   19.3219   36.3268 O   0  0  0  0  0  0  0  0  0  0  0  0
    2.9318   17.6037   39.8618 H   0  0  0  0  0  0  0  0  0  0  0  0
    2.4233   21.1608   37.4630 H   0  0  0  0  0  0  0  0  0  0  0  0
    1.3217   22.2207   39.3953 H   0  0  0  0  0  0  0  0  0  0  0  0
    1.0369   20.9846   41.5149 H   0  0  0  0  0  0  0  0  0  0  0  0
  1  2  1  0
  1  6  2  0
  2  3  2  0
  3  4  1  0
  3  7  1  0
  4  5  2  0
  5  6  1  0
  7  8  1  0
  7  9  2  0
  2 10  1  0
  4 11  1  0
  5 12  1  0
  6 13  1  0
M  CHG  1   8  -1
M  END
>  <mol_id>  (14) 
2026-09-18-3war-s0-n100-r6-0014

>  <rmsd_to_ref>  (14) 
1.0510204081650716

>  <pose_kind>  (14) 
conformer

$$$$
3war.A
     RDKit          3D

 13 13  0  0  0  0  0  0  0  0999 V2000
    1.1886   18.1547   40.4716 N   0  0  0  0  0  0  0  0  0  0  0  0
    2.1079   18.2967   39.4045 C   0  0  0  0  0  0  0  0  0  0  0  0
    2.7766   19.5680   39.2790 C   0  0  0  0  0  0  0  0  0  0  0  0
    2.5000   20.6027   40.1548 C   0  0  0  0  0  0  0  0  0  0  0  0
    1.6176   20.4106   41.1952 C   0  0  0  0  0  0  0  0  0  0  0  0
    0.9567   19.2089   41.3173 C   0  0  0  0  0  0  0  0  0  0  0  0
    3.7043   19.8218   38.1001 C   0  0  0  0  0  0  0  0  0  0  0  0
    4.0708   18.8335   37.3989 O   0  0  0  0  0  0  0  0  0  0  0  0
    4.0060   20.9838   37.9333 O   0  0  0  0  0  0  0  0  0  0  0  0
    2.3034   17.4733   38.7018 H   0  0  0  0  0  0  0  0  0  0  0  0
    2.9856   21.5805   40.0202 H   0  0  0  0  0  0  0  0  0  0  0  0
    1.4417   21.2142   41.9255 H   0  0  0  0  0  0  0  0  0  0  0  0
    0.2163   19.0903   42.1221 H   0  0  0  0  0  0  0  0  0  0  0  0
  1  2  1  0
  1  6  2  0
  2  3  2  0
  3  4  1  0
  3  7  1  0
  4  5  2  0
  5  6  1  0
  7  8  1  0
  7  9  2  0
  2 10  1  0
  4 11  1  0
  5 12  1  0
  6 13  1  0
M  CHG  1   8  -1
M  END
>  <mol_id>  (15) 
2026-09-18-3war-s0-n100-r6-0015

>  <rmsd_to_ref>  (15) 
1.096938775510552

>  <pose_kind>  (15) 
rigid

$$$$
3war.A
     RDKit          3D

 13 13  0  0  0  0  0  0  0  0999 V2000
    2.7929   19.4000   41.4792 N   0  0  0  0  0  0  0  0  0  0  0  0
    3.2855   18.8734   40.3205 C   0  0  0  0  0  0  0  0  0  0  0  0
    2.7748   19.2830   39.1056 C   0  0  0  0  0  0  0  0  0  0  0  0
    1.7594   20.2278   39.0030 C   0  0  0  0  0  0  0  0  0  0  0  0
    1.2819   20.7433   40.2142 C   0  0  0  0  0  0  0  0  0  0  0  0
    1.7954   20.3311   41.4287 C   0  0  0  0  0  0  0  0  0  0  0  0
    3.3377   18.6865   37.8778 C   0  0  0  0  0  0  0  0  0  0  0  0
    2.8404   19.0819   36.6358 O   0  0  0  0  0  0  0  0  0  0  0  0
    4.2435   17.8390   37.8852 O   0  0  0  0  0  0  0  0  0  0  0  0
    4.0758   18.1333   40.3181 H   0  0  0  0  0  0  0  0  0  0  0  0
    1.3705   20.5383   38.0533 H   0  0  0  0  0  0  0  0  0  0  0  0
    0.4843   21.4895   40.2061 H   0  0  0  0  0  0  0  0  0  0  0  0
    1.4242   20.7320   42.3747 H   0  0  0  0  0  0  0  0  0  0  0  0
  1  2  1  0
  1  6  2  0
  2  3  2  0
  3  4  1  0
  3  7  1  0
  4  5  2  0
  5  6  1  0
  7  8  1  0
  7  9  2  0
  2 10  1  0
  4 11  1  0
  5 12  1  0
  6 13  1  0
M  CHG  1   8  -1
M  END
>  <mol_id>  (16) 
2026-09-18-3war-s0-n100-r6-0016

>  <rmsd_to_ref>  (16) 
1.1428571428599286

>  <pose_kind>  (16) 
conformer

$$$$
3war.A
     RDKit          3D

 13 13  0  0  0  0  0  0  0  0999 V2000
    1.1527   19.0119   40.9519 N   0  0  0  0  0  0  0  0  0  0  0  0
    2.1254   18.4617   40.0829 C   0  0  0  0  0  0  0  0  0  0  0  0
    2.7258   19.3529   39.1213 C   0  0  0  0  0  0  0  0  0  0  0  0
    2.3370   20.6785   39.0458 C   0  0  0  0  0  0  0  0  0  0  0  0
    1.4056   21.1772   39.9300 C   0  0  0  0  0  0  0  0  0  0  0  0
    0.8092   20.3348   40.8413 C   0  0  0  0  0  0  0  0  0  0  0  0
    3.7071   18.8078   38.0943 C   0  0  0  0  0  0  0  0  0  0  0  0
    4.1722   17.6429   38.2653 O   0  0  0  0  0  0  0  0  0  0  0  0
    3.9506   19.5609   37.1762 O   0  0  0  0  0  0  0  0  0  0  0  0
    2.4107   17.4008   40.1387 H   0  0  0  0  0  0  0  0  0  0  0  0
    2.7724   21.3355   38.2785 H   0  0  0  0  0  0  0  0  0  0  0  0
    1.1393   22.2443   39.9079 H   0  0  0  0  0  0  0  0  0  0  0  0
    0.0293   20.7375   41.5044 H   0  0  0  0  0  0  0  0  0  0  0  0
  1  2  1  0
  1  6  2  0
  2  3  2  0
  3  4  1  0
  3  7  1  0
  4  5  2  0
  5  6  1  0
  7  8  1  0
  7  9  2  0
  2 10  1  0
  4 11  1  0
  5 12  1  0
  6 13  1  0
M  CHG  1   8  -1
M  END
>  <mol_id>  (17) 
2026-09-18-3war-s0-n100-r6-0017

>  <rmsd_to_ref>  (17) 
1.1887755102068933

>  <pose_kind>  (17) 
rigid

$$$$
3war.A
     RDKit          3D

 13 13  0  0  0  0  0  0  0  0999 V2000
    2.1688   17.9771   40.3170 N   0  0  0  0  0  0  0  0  0  0  0  0
    2.6223   18.5100   39.1731 C   0  0  0  0  0  0  0  0  0  0  0  0
    1.8442   19.4153   38.4600 C   0  0  0  0  0  0  0  0  0  0  0  0
    0.5951   19.7429   38.9707 C   0  0  0  0  0  0  0  0  0  0  0  0
    0.1581   19.1712   40.1585 C   0  0  0  0  0  0  0  0  0  0  0  0
    0.9631   18.2764   40.8347 C   0  0  0  0  0  0  0  0  0  0  0  0
    2.3588   19.9813   37.2190 C   0  0  0  0  0  0  0  0  0  0  0  0
    1.5327   20.8868   36.5439 O   0  0  0  0  0  0  0  0  0  0  0  0
    3.5033   19.6762   36.7585 O   0  0  0  0  0  0  0  0  0  0  0  0
    3.5990   18.2349   38.8016 H   0  0  0  0  0  0  0  0  0  0  0  0
   -0.0201   20.4485   38.4218 H   0  0  0  0  0  0  0  0  0  0  0  0
   -0.8270   19.4300   40.5604 H   0  0  0  0  0  0  0  0  0  0  0  0
    0.6073   17.8402   41.7588 H   0  0  0  0  0  0  0  0  0  0  0  0
  1  2  1  0
  1  6  2  0
  2  3  2  0
  3  4  1  0
  3  7  1  0
  4  5  2  0
  5  6  1  0
  7  8  1  0
  7  9  2  0
  2 10  1  0
  4 11  1  0
  5 12  1  0
  6 13  1  0
M  CHG  1   8  -1
M  END
>  <mol_id>  (18) 
2026-09-18-3war-s0-n100-r6-0018

>  <rmsd_to_ref>  (18) 
1.2346938775510858

>  <pose_kind>  (18) 
conformer

$$$$
3war.A
     RDKit          3D

 13 13  0  0  0  0  0  0  0  0999 V2000
    0.7661   18.7016   40.6233 N   0  0  0  0  0  0  0  0  0  0  0  0
    1.8613   18.2356   39.8569 C   0  0  0  0  0  0  0  0  0  0  0  0
    2.4364   19.1555   38.9069 C   0  0  0  0  0  0  0  0  0  0  0  0
    1.9112   20.4251   38.7442 C   0  0  0  0  0  0  0  0  0  0  0  0
    0.8614   20.8451   39.5311 C   0  0  0  0  0  0  0  0  0  0  0  0
    0.2890   19.9724   40.4292 C   0  0  0  0  0  0  0  0  0  0  0  0
    3.5525   18.6902   37.9836 C   0  0  0  0  0  0  0  0  0  0  0  0
    4.1276   17.5920   38.2404 O   0  0  0  0  0  0  0  0  0  0  0  0
    3.7857   19.4339   37.0553 O   0  0  0  0  0  0  0  0  0  0  0  0
    2.2563   17.2164   39.9806 H   0  0  0  0  0  0  0  0  0  0  0  0
    2.3328   21.1004   37.9851 H   0  0  0  0  0  0  0  0  0  0  0  0
    0.4818   21.8737   39.4422 H   0  0  0  0  0  0  0  0  0  0  0  0
   -0.5821   20.3066   41.0118 H   0  0  0  0  0  0  0  0  0  0  0  0
  1  2  1  0
  1  6  2  0
  2  3  2  0
  3  4  1  0
  3  7  1  0
  4  5  2  0
  5  6  1  0
  7  8  1  0
  7  9  2  0
  2 10  1  0
  4 11  1  0
  5 12  1  0
  6 13  1  0
M  CHG  1   8  -1
M  END
>  <mol_id>  (19) 
2026-09-18-3war-s0-n100-r6-0019

>  <rmsd_to_ref>  (19) 
1.2806122449030066

>  <pose_kind>  (19) 
rigid

$$$$
3war.A
     RDKit          3D

 13 13  0  0  0  0  0  0  0  0999 V2000
    2.4542   17.3166   40.1192 N   0  0  0  0  0  0  0  0  0  0  0  0
    2.4442   17.8532   38.8846 C   0  0  0  0  0  0  0  0  0  0  0  0
    2.4181   19.2195   38.6923 C   0  0  0  0  0  0  0  0  0  0  0  0
    2.4027   20.0101   39.8145 C   0  0  0  0  0  0  0  0  0  0  0  0
    2.4121   19.5052   41.0976 C   0  0  0  0  0  0  0  0  0  0  0  0
    2.4386   18.1220   41.2186 C   0  0  0  0  0  0  0  0  0  0  0  0
    2.4070   19.8082   37.3468 C   0  0  0  0  0  0  0  0  0  0  0  0
    2.3808   21.1784   37.2242 O   0  0  0  0  0  0  0  0  0  0  0  0
    2.4210   19.0894   36.3109 O   0  0  0  0  0  0  0  0  0  0  0  0
    2.4567   17.2115   38.0196 H   0  0  0  0  0  0  0  0  0  0  0  0
    2.3818   21.0988   39.7262 H   0  0  0  0  0  0  0  0  0  0  0  0
    2.3992   20.1714   41.9491 H   0  0  0  0  0  0  0  0  0  0  0  0
    2.4471   17.6648   42.1968 H   0  0  0  0  0  0  0  0  0  0  0  0
  1  2  1  0
  1  6  2  0
  2  3  2  0
  3  4  1  0
  3  7  1  0
  4  5  2  0
  5  6  1  0
  7  8  1  0
  7  9  2  0
  2 10  1  0
  4 11  1  0
  5 12  1  0
  6 13  1  0
M  CHG  1   8  -1
M  END
>  <mol_id>  (20) 
2026-09-18-3war-s0-n100-r6-0020

>  <rmsd_to_ref>  (20) 
1.3265306122459233

>  <pose_kind>  (20) 
conformer

$$$$
3war.A
     RDKit          3D

 13 13  0  0  0  0  0  0  0  0999 V2000
    2.8708   20.0338   41.4702 N   0  0  0  0  0  0  0  0  0  0  0  0
    2.9238   19.2285   40.3071 C   0  0  0  0  0  0  0  0  0  0  0  0
    2.7577   19.8950   39.0392 C   0  0  0  0  0  0  0  0  0  0  0  0
    2.5296   21.2583   38.9809 C   0  0  0  0  0  0  0  0  0  0  0  0
    2.5127   22.0066   40.1374 C   0  0  0  0  0  0  0  0  0  0  0  0
    2.6507   21.3825   41.3569 C   0  0  0  0  0  0  0  0  0  0  0  0
    2.7079   19.0787   37.7562 C   0  0  0  0  0  0  0  0  0  0  0  0
    3.0694   17.8662   37.7998 O   0  0  0  0  0  0  0  0  0  0  0  0
    2.3052   19.6834   36.7860 O   0  0  0  0  0  0  0  0  0  0  0  0
    3.0847   18.1420   40.3679 H   0  0  0  0  0  0  0  0  0  0  0  0
    2.3615   21.7457   38.0092 H   0  0  0  0  0  0  0  0  0  0  0  0
    2.3894   23.0985   40.0869 H   0  0  0  0  0  0  0  0  0  0  0  0
    2.5818   21.9874   42.2731 H   0  0  0  0  0  0  0  0  0  0  0  0
  1  2  1  0
  1  6  2  0
  2  3  2  0
  3  4  1  0
  3  7  1  0
  4  5  2  0
  5  6  1  0
  7  8  1  0
  7  9  2  0
  2 10  1  0
  4 11  1  0
  5 12  1  0
  6 13  1  0
M  CHG  1   8  -1
M  END
>  <mol_id>  (21) 
2026-09-18-3war-s0-n100-r6-0021

>  <rmsd_to_ref>  (21) 
1.3724489795964208

>  <pose_kind>  (21) 
rigid

$$$$
3war.A
     RDKit          3D

 13 13  0  0  0  0  0  0  0  0999 V2000
    2.7090   20.3272   41.1948 N   0  0  0  0  0  0  0  0  0  0  0  0
    2.9727   19.4903   40.1626 C   0  0  0  0  0  0  0  0  0  0  0  0
    2.8791   19.9338   38.8594 C   0  0  0  0  0  0  0  0  0  0  0  0
    2.5161   21.2342   38.5899 C   0  0  0  0  0  0  0  0  0  0  0  0
    2.2439   22.0986   39.6525 C   0  0  0  0  0  0  0  0  0  0  0  0
    2.3464   21.6227   40.9653 C   0  0  0  0  0  0  0  0  0  0  0  0
    3.1609   19.0412   37.7324 C   0  0  0  0  0  0  0  0  0  0  0  0
    3.5310   17.7241   37.9051 O   0  0  0  0  0  0  0  0  0  0  0  0
    3.0439   19.5546   36.5683 O   0  0  0  0  0  0  0  0  0  0  0  0
    3.2618   18.4567   40.3540 H   0  0  0  0  0  0  0  0  0  0  0  0
    2.4261   21.6371   37.6052 H   0  0  0  0  0  0  0  0  0  0  0  0
    1.9516   23.1435   39.4617 H   0  0  0  0  0  0  0  0  0  0  0  0
    2.1389   22.2791   41.8064 H   0  0  0  0  0  0  0  0  0  0  0  0
  1  2  1  0
  1  6  2  0
  2  3  2  0
  3  4  1  0
  3  7  1  0
  4  5  2  0
  5  6  1  0
  7  8  1  0
  7  9  2  0
  2 10  1  0
  4 11  1  0
  5 12  1  0
  6 13  1  0
M  CHG  1   8  -1
M  END
>  <mol_id>  (22) 
2026-09-18-3war-s0-n100-r6-0022

>  <rmsd_to_ref>  (22) 
1.4183673469432723

>  <pose_kind>  (22) 
conformer

$$$$
3war.A
     RDKit          3D

 13 13  0  0  0  0  0  0  0  0999 V2000
    2.5966   18.4534   39.8723 N   0  0  0  0  0  0  0  0  0  0  0  0
    2.6621   19.1833   38.6611 C   0  0  0  0  0  0  0  0  0  0  0  0
    2.0912   20.5075   38.6611 C   0  0  0  0  0  0  0  0  0  0  0  0
    1.4851   21.0169   39.7956 C   0  0  0  0  0  0  0  0  0  0  0  0
    1.4683   20.2811   40.9602 C   0  0  0  0  0  0  0  0  0  0  0  0
    1.9922   19.0078   40.9712 C   0  0  0  0  0  0  0  0  0  0  0  0
    2.0413   21.3098   37.3693 C   0  0  0  0  0  0  0  0  0  0  0  0
    2.7284   20.9086   36.3847 O   0  0  0  0  0  0  0  0  0  0  0  0
    1.3180   22.2818   37.4040 O   0  0  0  0  0  0  0  0  0  0  0  0
    3.1280   18.7589   37.7596 H   0  0  0  0  0  0  0  0  0  0  0  0
    1.0156   22.0113   39.7678 H   0  0  0  0  0  0  0  0  0  0  0  0
    1.0382   20.7091   41.8777 H   0  0  0  0  0  0  0  0  0  0  0  0
    1.9233   18.4140   41.8946 H   0  0  0  0  0  0  0  0  0  0  0  0
  1  2  1  0
  1  6  2  0
  2  3  2  0
  3  4  1  0
  3  7  1  0
  4  5  2  0
  5  6  1  0
  7  8  1  0
  7  9  2  0
  2 10  1  0
  4 11  1  0
  5 12  1  0
  6 13  1  0
M  CHG  1   8  -1
M  END
>  <mol_id>  (23) 
2026-09-18-3war-s0-n100-r6-0023

>  <rmsd_to_ref>  (23) 
1.464285714290581

>  <pose_kind>  (23) 
rigid

$$$$
3war.A
     RDKit          3D

 13 13  0  0  0  0  0  0  0  0999 V2000
    3.4014   18.5333   40.2215 N   0  0  0  0  0  0  0  0  0  0  0  0
    3.5123   19.3211   39.1162 C   0  0  0  0  0  0  0  0  0  0  0  0
    2.7371   20.4535   38.9475 C   0  0  0  0  0  0  0  0  0  0  0  0
    1.8271   20.7966   39.9222 C   0  0  0  0  0  0  0  0  0  0  0  0
    1.7334   19.9813   41.0339 C   0  0  0  0  0  0  0  0  0  0  0  0
    2.5167   18.8480   41.1914 C   0  0  0  0  0  0  0  0  0  0  0  0
    2.8765   21.2798   37.7534 C   0  0  0  0  0  0  0  0  0  0  0  0
    2.0998   22.4050   37.5956 O   0  0  0  0  0  0  0  0  0  0  0  0
    3.7026   20.9615   36.8767 O   0  0  0  0  0  0  0  0  0  0  0  0
    4.2351   19.0324   38.3614 H   0  0  0  0  0  0  0  0  0  0  0  0
    1.1962   21.6672   39.8456 H   0  0  0  0  0  0  0  0  0  0  0  0
    1.0369   20.1944   41.8387 H   0  0  0  0  0  0  0  0  0  0  0  0
    2.4441   18.2141   42.0553 H   0  0  0  0  0  0  0  0  0  0  0  0
  1  2  1  0
  1  6  2  0
  2  3  2  0
  3  4  1  0
  3  7  1  0
  4  5  2  0
  5  6  1  0
  7  8  1  0
  7  9  2  0
  2 10  1  0
  4 11  1  0
  5 12  1  0
  6 13  1  0
M  CHG  1   8  -1
M  END
>  <mol_id>  (24) 
2026-09-18-3war-s0-n100-r6-0024

>  <rmsd_to_ref>  (24) 
1.5102040816347846

>  <pose_kind>  (24) 
conformer

$$$$
3war.A
     RDKit          3D

 13 13  0  0  0  0  0  0  0  0999 V2000
    1.0474   19.5121   41.2799 N   0  0  0  0  0  0  0  0  0  0  0  0
    2.0467   18.7880   40.5862 C   0  0  0  0  0  0  0  0  0  0  0  0
    2.5495   19.3680   39.3654 C   0  0  0  0  0  0  0  0  0  0  0  0
    2.0468   20.5669   38.8920 C   0  0  0  0  0  0  0  0  0  0  0  0
    1.0933   21.2503   39.6145 C   0  0  0  0  0  0  0  0  0  0  0  0
    0.5894   20.7006   40.7719 C   0  0  0  0  0  0  0  0  0  0  0  0
    3.5539   18.5990   38.5201 C   0  0  0  0  0  0  0  0  0  0  0  0
    4.1205   17.5881   39.0297 O   0  0  0  0  0  0  0  0  0  0  0  0
    3.7138   19.0355   37.4007 O   0  0  0  0  0  0  0  0  0  0  0  0
    2.4231   17.8252   40.9619 H   0  0  0  0  0  0  0  0  0  0  0  0
    2.4091   20.9752   37.9371 H   0  0  0  0  0  0  0  0  0  0  0  0
    0.7360   22.2312   39.2679 H   0  0  0  0  0  0  0  0  0  0  0  0
   -0.2091   21.2340   41.3084 H   0  0  0  0  0  0  0  0  0  0  0  0
  1  2  1  0
  1  6  2  0
  2  3  2  0
  3  4  1  0
  3  7  1  0
  4  5  2  0
  5  6  1  0
  7  8  1  0
  7  9  2  0
  2 10  1  0
  4 11  1  0
  5 12  1  0
  6 13  1  0
M  CHG  1   8  -1
M  END
>  <mol_id>  (25) 
2026-09-18-3war-s0-n100-r6-0025

>  <rmsd_to_ref>  (25) 
1.5561224489831544

>  <pose_kind>  (25) 
rigid

$$$$
3war.A
     RDKit          3D

 13 13  0  0  0  0  0  0  0  0999 V2000
    3.8414   19.2778   40.3351 N   0  0  0  0  0  0  0  0  0  0  0  0
    3.2985   19.1336   39.1241 C   0  0  0  0  0  0  0  0  0  0  0  0
    2.8198   20.2385   38.4515 C   0  0  0  0  0  0  0  0  0  0  0  0
    2.8791   21.5213   38.9900 C   0  0  0  0  0  0  0  0  0  0  0  0
    3.4600   21.5969   40.2604 C   0  0  0  0  0  0  0  0  0  0  0  0
    3.9314   20.4724   40.9110 C   0  0  0  0  0  0  0  0  0  0  0  0
    2.2221   20.0966   37.1239 C   0  0  0  0  0  0  0  0  0  0  0  0
    2.1146   18.8705   36.5002 O   0  0  0  0  0  0  0  0  0  0  0  0
    1.8007   21.1621   36.5613 O   0  0  0  0  0  0  0  0  0  0  0  0
    3.2526   18.1339   38.7054 H   0  0  0  0  0  0  0  0  0  0  0  0
    2.5175   22.3893   38.4924 H   0  0  0  0  0  0  0  0  0  0  0  0
    3.5155   22.5949   40.6993 H   0  0  0  0  0  0  0  0  0  0  0  0
    4.3775   20.5994   41.9086 H   0  0  0  0  0  0  0  0  0  0  0  0
  1  2  1  0
  1  6  2  0
  2  3  2  0
  3  4  1  0
  3  7  1  0
  4  5  2  0
  5  6  1  0
  7  8  1  0
  7  9  2  0
  2 10  1  0
  4 11  1  0
  5 12  1  0
  6 13  1  0
M  CHG  1   8  -1
M  END
>  <mol_id>  (26) 
2026-09-18-3war-s0-n100-r6-0026

>  <rmsd_to_ref>  (26) 
1.6020408163299322

>  <pose_kind>  (26) 
conformer

$$$$
3war.A
     RDKit          3D

 13 13  0  0  0  0  0  0  0  0999 V2000
    1.0677   18.8758   40.5658 N   0  0  0  0  0  0  0  0  0  0  0  0
    2.2206   18.2946   39.9853 C   0  0  0  0  0  0  0  0  0  0  0  0
    2.7518   18.9289   38.8042 C   0  0  0  0  0  0  0  0  0  0  0  0
    2.1336   20.0400   38.2589 C   0  0  0  0  0  0  0  0  0  0  0  0
    1.0288   20.5877   38.8732 C   0  0  0  0  0  0  0  0  0  0  0  0
    0.4983   19.9827   39.9905 C   0  0  0  0  0  0  0  0  0  0  0  0
    3.9306   18.3025   38.0743 C   0  0  0  0  0  0  0  0  0  0  0  0
    4.5820   17.3870   38.6573 O   0  0  0  0  0  0  0  0  0  0  0  0
    4.1343   18.7471   36.9652 O   0  0  0  0  0  0  0  0  0  0  0  0
    2.6907   17.3983   40.4162 H   0  0  0  0  0  0  0  0  0  0  0  0
    2.5249   20.4869   37.3331 H   0  0  0  0  0  0  0  0  0  0  0  0
    0.5722   21.5048   38.4726 H   0  0  0  0  0  0  0  0  0  0  0  0
   -0.4150   20.4023   40.4376 H   0  0  0  0  0  0  0  0  0  0  0  0
  1  2  1  0
  1  6  2  0
  2  3  2  0
  3  4  1  0
  3  7  1  0
  4  5  2  0
  5  6  1  0
  7  8  1  0
  7  9  2  0
  2 10  1  0
  4 11  1  0
  5 12  1  0
  6 13  1  0
M  CHG  1   8  -1
M  END
>  <mol_id>  (27) 
2026-09-18-3war-s0-n100-r6-0027

>  <rmsd_to_ref>  (27) 
1.6479591836752008

>  <pose_kind>  (27) 
rigid

$$$$
3war.A
     RDKit          3D

 13 13  0  0  0  0  0  0  0  0999 V2000
    2.7311   19.3518   40.6625 N   0  0  0  0  0  0  0  0  0  0  0  0
    2.3904   18.6631   39.5609 C   0  0  0  0  0  0  0  0  0  0  0  0
    1.4971   19.2026   38.6631 C   0  0  0  0  0  0  0  0  0  0  0  0
    0.9815   20.4401   38.9309 C   0  0  0  0  0  0  0  0  0  0  0  0
    1.3270   21.1573   40.0640 C   0  0  0  0  0  0  0  0  0  0  0  0
    2.2242   20.5801   40.9358 C   0  0  0  0  0  0  0  0  0  0  0  0
    1.1050   18.4812   37.4556 C   0  0  0  0  0  0  0  0  0  0  0  0
    1.6305   17.2227   37.1850 O   0  0  0  0  0  0  0  0  0  0  0  0
    0.2797   19.0534   36.6887 O   0  0  0  0  0  0  0  0  0  0  0  0
    2.7876   17.6804   39.3296 H   0  0  0  0  0  0  0  0  0  0  0  0
    0.2666   20.8826   38.2215 H   0  0  0  0  0  0  0  0  0  0  0  0
    0.9012   22.1442   40.2554 H   0  0  0  0  0  0  0  0  0  0  0  0
    2.5426   21.0839   41.8466 H   0  0  0  0  0  0  0  0  0  0  0  0
  1  2  1  0
  1  6  2  0
  2  3  2  0
  3  4  1  0
  3  7  1  0
  4  5  2  0
  5  6  1  0
  7  8  1  0
  7  9  2  0
  2 10  1  0
  4 11  1  0
  5 12  1  0
  6 13  1  0
M  CHG  1   8  -1
M  END
>  <mol_id>  (28) 
2026-09-18-3war-s0-n100-r6-0028

>  <rmsd_to_ref>  (28) 
1.6938775510249426

>  <pose_kind>  (28) 
conformer

$$$$
3war.A
     RDKit          3D

 13 13  0  0  0  0  0  0  0  0999 V2000
    3.4695   18.9224   39.9800 N   0  0  0  0  0  0  0  0  0  0  0  0
    2.9854   19.3402   38.7169 C   0  0  0  0  0  0  0  0  0  0  0  0
    2.4196   20.6640   38.6359 C   0  0  0  0  0  0  0  0  0  0  0  0
    2.3356   21.4677   39.7590 C   0  0  0  0  0  0  0  0  0  0  0  0
    2.8441   21.0298   40.9621 C   0  0  0  0  0  0  0  0  0  0  0  0
    3.3702   19.7612   41.0602 C   0  0  0  0  0  0  0  0  0  0  0  0
    1.7942   21.1411   37.3336 C   0  0  0  0  0  0  0  0  0  0  0  0
    2.0111   20.4719   36.2811 O   0  0  0  0  0  0  0  0  0  0  0  0
    1.1186   22.1426   37.4327 O   0  0  0  0  0  0  0  0  0  0  0  0
    3.0386   18.6836   37.8359 H   0  0  0  0  0  0  0  0  0  0  0  0
    1.8620   22.4582   39.6911 H   0  0  0  0  0  0  0  0  0  0  0  0
    2.8298   21.6911   41.8411 H   0  0  0  0  0  0  0  0  0  0  0  0
    3.7234   19.4078   42.0402 H   0  0  0  0  0  0  0  0  0  0  0  0
  1  2  1  0
  1  6  2  0
  2  3  2  0
  3  4  1  0
  3  7  1  0
  4  5  2  0
  5  6  1  0
  7  8  1  0
  7  9  2  0
  2 10  1  0
  4 11  1  0
  5 12  1  0
  6 13  1  0
M  CHG  1   8  -1
M  END
>  <mol_id>  (29) 
2026-09-18-3war-s0-n100-r6-0029

>  <rmsd_to_ref>  (29) 
1.739795918371976

>  <pose_kind>  (29) 
rigid

$$$$
3war.A
     RDKit          3D

 13 13  0  0  0  0  0  0  0  0999 V2000
    1.1269   19.8506   40.0698 N   0  0  0  0  0  0  0  0  0  0  0  0
    1.6392   20.1754   38.8739 C   0  0  0  0  0  0  0  0  0  0  0  0
    2.7518   21.0048   38.7854 C   0  0  0  0  0  0  0  0  0  0  0  0
    3.3056   21.4783   39.9675 C   0  0  0  0  0  0  0  0  0  0  0  0
    2.7482   21.1209   41.1883 C   0  0  0  0  0  0  0  0  0  0  0  0
    1.6430   20.2947   41.2306 C   0  0  0  0  0  0  0  0  0  0  0  0
    3.2907   21.3438   37.4740 C   0  0  0  0  0  0  0  0  0  0  0  0
    4.4110   22.1820   37.4456 O   0  0  0  0  0  0  0  0  0  0  0  0
    2.7778   20.9061   36.3969 O   0  0  0  0  0  0  0  0  0  0  0  0
    1.1853   19.7907   37.9718 H   0  0  0  0  0  0  0  0  0  0  0  0
    4.1741   22.1264   39.9094 H   0  0  0  0  0  0  0  0  0  0  0  0
    3.1856   21.4948   42.1199 H   0  0  0  0  0  0  0  0  0  0  0  0
    1.2212   20.0261   42.1902 H   0  0  0  0  0  0  0  0  0  0  0  0
  1  2  1  0
  1  6  2  0
  2  3  2  0
  3  4  1  0
  3  7  1  0
  4  5  2  0
  5  6  1  0
  7  8  1  0
  7  9  2  0
  2 10  1  0
  4 11  1  0
  5 12  1  0
  6 13  1  0
M  CHG  1   8  -1
M  END
>  <mol_id>  (30) 
2026-09-18-3war-s0-n100-r6-0030

>  <rmsd_to_ref>  (30) 
1.7857142857154031

>  <pose_kind>  (30) 
conformer

$$$$
3war.A
     RDKit          3D

 13 13  0  0  0  0  0  0  0  0999 V2000
    3.2230   17.3122   39.8684 N   0  0  0  0  0  0  0  0  0  0  0  0
    3.1956   18.2086   38.7730 C   0  0  0  0  0  0  0  0  0  0  0  0
    3.0078   19.6064   39.0733 C   0  0  0  0  0  0  0  0  0  0  0  0
    2.8356   20.0330   40.3781 C   0  0  0  0  0  0  0  0  0  0  0  0
    2.8964   19.1281   41.4151 C   0  0  0  0  0  0  0  0  0  0  0  0
    3.0560   17.7877   41.1436 C   0  0  0  0  0  0  0  0  0  0  0  0
    2.8726   20.6122   37.9399 C   0  0  0  0  0  0  0  0  0  0  0  0
    3.1837   20.2450   36.7690 O   0  0  0  0  0  0  0  0  0  0  0  0
    2.4577   21.7008   38.2748 O   0  0  0  0  0  0  0  0  0  0  0  0
    3.3125   17.8544   37.7382 H   0  0  0  0  0  0  0  0  0  0  0  0
    2.6499   21.0967   40.5880 H   0  0  0  0  0  0  0  0  0  0  0  0
    2.8176   19.4750   42.4560 H   0  0  0  0  0  0  0  0  0  0  0  0
    3.0493   17.0728   41.9796 H   0  0  0  0  0  0  0  0  0  0  0  0
  1  2  1  0
  1  6  2  0
  2  3  2  0
  3  4  1  0
  3  7  1  0
  4  5  2  0
  5  6  1  0
  7  8  1  0
  7  9  2  0
  2 10  1  0
  4 11  1  0
  5 12  1  0
  6 13  1  0
M  CHG  1   8  -1
M  END
>  <mol_id>  (31) 
2026-09-18-3war-s0-n100-r6-0031

>  <rmsd_to_ref>  (31) 
1.8316326530661855

>  <pose_kind>  (31) 
rigid

$$$$
3war.A
     RDKit          3D

 13 13  0  0  0  0  0  0  0  0999 V2000
    2.4397   18.4012   39.2967 N   0  0  0  0  0  0  0  0  0  0  0  0
    3.0319   19.3572   38.5626 C   0  0  0  0  0  0  0  0  0  0  0  0
    2.9484   20.6742   38.9546 C   0  0  0  0  0  0  0  0  0  0  0  0
    2.2540   20.9644   40.0959 C   0  0  0  0  0  0  0  0  0  0  0  0
    1.6403   19.9853   40.8591 C   0  0  0  0  0  0  0  0  0  0  0  0
    1.7489   18.6805   40.4303 C   0  0  0  0  0  0  0  0  0  0  0  0
    3.5803   21.7386   38.1800 C   0  0  0  0  0  0  0  0  0  0  0  0
    4.2861   21.4414   37.0196 O   0  0  0  0  0  0  0  0  0  0  0  0
    3.4517   22.9179   38.6152 O   0  0  0  0  0  0  0  0  0  0  0  0
    3.5874   19.1486   37.6543 H   0  0  0  0  0  0  0  0  0  0  0  0
    2.1797   22.0129   40.4203 H   0  0  0  0  0  0  0  0  0  0  0  0
    1.0913   20.2428   41.7669 H   0  0  0  0  0  0  0  0  0  0  0  0
    1.2930   17.8578   40.9782 H   0  0  0  0  0  0  0  0  0  0  0  0
  1  2  1  0
  1  6  2  0
  2  3  2  0
  3  4  1  0
  3  7  1  0
  4  5  2  0
  5  6  1  0
  7  8  1  0
  7  9  2  0
  2 10  1  0
  4 11  1  0
  5 12  1  0
  6 13  1  0
M  CHG  1   8  -1
M  END
>  <mol_id>  (32) 
2026-09-18-3war-s0-n100-r6-0032

>  <rmsd_to_ref>  (32) 
1.8775510204088974

>  <pose_kind>  (32) 
conformer

$$$$
3war.A
     RDKit          3D

 13 13  0  0  0  0  0  0  0  0999 V2000
    2.8107   18.2997   39.9036 N   0  0  0  0  0  0  0  0  0  0  0  0
    2.1843   18.6397   38.6805 C   0  0  0  0  0  0  0  0  0  0  0  0
    1.3367   19.8062   38.6791 C   0  0  0  0  0  0  0  0  0  0  0  0
    1.1331   20.5344   39.8377 C   0  0  0  0  0  0  0  0  0  0  0  0
    1.7847   20.1822   40.9992 C   0  0  0  0  0  0  0  0  0  0  0  0
    2.5822   19.0600   41.0217 C   0  0  0  0  0  0  0  0  0  0  0  0
    0.5576   20.1738   37.4250 C   0  0  0  0  0  0  0  0  0  0  0  0
    0.8646   19.6040   36.3370 O   0  0  0  0  0  0  0  0  0  0  0  0
   -0.3168   20.9961   37.5942 O   0  0  0  0  0  0  0  0  0  0  0  0
    2.3375   18.0402   37.7710 H   0  0  0  0  0  0  0  0  0  0  0  0
    0.4496   21.3963   39.8314 H   0  0  0  0  0  0  0  0  0  0  0  0
    1.6683   20.7950   41.9052 H   0  0  0  0  0  0  0  0  0  0  0  0
    3.0529   18.7628   41.9704 H   0  0  0  0  0  0  0  0  0  0  0  0
  1  2  1  0
  1  6  2  0
  2  3  2  0
  3  4  1  0
  3  7  1  0
  4  5  2  0
  5  6  1  0
  7  8  1  0
  7  9  2  0
  2 10  1  0
  4 11  1  0
  5 12  1  0
  6 13  1  0
M  CHG  1   8  -1
M  END
>  <mol_id>  (33) 
2026-09-18-3war-s0-n100-r6-0033

>  <rmsd_to_ref>  (33) 
1.9234693877562004

>  <pose_kind>  (33) 
rigid

$$$$
3war.A
     RDKit          3D

 13 13  0  0  0  0  0  0  0  0999 V2000
    1.7495   17.4535   39.0826 N   0  0  0  0  0  0  0  0  0  0  0  0
    2.4671   18.4195   38.4750 C   0  0  0  0  0  0  0  0  0  0  0  0
    1.8038   19.5641   38.0610 C   0  0  0  0  0  0  0  0  0  0  0  0
    0.4402   19.6877   38.2772 C   0  0  0  0  0  0  0  0  0  0  0  0
   -0.2478   18.6667   38.9052 C   0  0  0  0  0  0  0  0  0  0  0  0
    0.4272   17.5221   39.3170 C   0  0  0  0  0  0  0  0  0  0  0  0
    2.5660   20.6141   37.4041 C   0  0  0  0  0  0  0  0  0  0  0  0
    1.8812   21.7716   36.9882 O   0  0  0  0  0  0  0  0  0  0  0  0
    3.8032   20.5481   37.1858 O   0  0  0  0  0  0  0  0  0  0  0  0
    3.5214   18.3163   38.3114 H   0  0  0  0  0  0  0  0  0  0  0  0
   -0.0586   20.5898   37.9460 H   0  0  0  0  0  0  0  0  0  0  0  0
   -1.3130   18.7893   39.0617 H   0  0  0  0  0  0  0  0  0  0  0  0
   -0.1135   16.7132   39.8136 H   0  0  0  0  0  0  0  0  0  0  0  0
  1  2  1  0
  1  6  2  0
  2  3  2  0
  3  4  1  0
  3  7  1  0
  4  5  2  0
  5  6  1  0
  7  8  1  0
  7  9  2  0
  2 10  1  0
  4 11  1  0
  5 12  1  0
  6 13  1  0
M  CHG  1   8  -1
M  END
>  <mol_id>  (34) 
2026-09-18-3war-s0-n100-r6-0034

>  <rmsd_to_ref>  (34) 
1.9693877551040007

>  <pose_kind>  (34) 
conformer

$$$$
3war.A
     RDKit          3D

 13 13  0  0  0  0  0  0  0  0999 V2000
    4.3799   18.6447   40.0350 N   0  0  0  0  0  0  0  0  0  0  0  0
    3.9988   19.3910   38.8940 C   0  0  0  0  0  0  0  0  0  0  0  0
    2.9865   20.4013   39.0786 C   0  0  0  0  0  0  0  0  0  0  0  0
    2.4035   20.6010   40.3172 C   0  0  0  0  0  0  0  0  0  0  0  0
    2.8249   19.8693   41.4058 C   0  0  0  0  0  0  0  0  0  0  0  0
    3.7767   18.8880   41.2422 C   0  0  0  0  0  0  0  0  0  0  0  0
    2.4613   21.1742   37.8779 C   0  0  0  0  0  0  0  0  0  0  0  0
    3.1002   21.0995   36.7876 O   0  0  0  0  0  0  0  0  0  0  0  0
    1.4436   21.7998   38.0835 O   0  0  0  0  0  0  0  0  0  0  0  0
    4.4548   19.2083   37.9098 H   0  0  0  0  0  0  0  0  0  0  0  0
    1.6019   21.3453   40.4331 H   0  0  0  0  0  0  0  0  0  0  0  0
    2.4026   20.0684   42.4018 H   0  0  0  0  0  0  0  0  0  0  0  0
    4.0636   18.2773   42.1110 H   0  0  0  0  0  0  0  0  0  0  0  0
  1  2  1  0
  1  6  2  0
  2  3  2  0
  3  4  1  0
  3  7  1  0
  4  5  2  0
  5  6  1  0
  7  8  1  0
  7  9  2  0
  2 10  1  0
  4 11  1  0
  5 12  1  0
  6 13  1  0
M  CHG  1   8  -1
M  END
>  <mol_id>  (35) 
2026-09-18-3war-s0-n100-r6-0035

>  <rmsd_to_ref>  (35) 
2.015306122453277

>  <pose_kind>  (35) 
rigid

$$$$
3war.A
     RDKit          3D

 13 13  0  0  0  0  0  0  0  0999 V2000
    2.4373   20.0062   41.5476 N   0  0  0  0  0  0  0  0  0  0  0  0
    2.5218   18.8855   40.7825 C   0  0  0  0  0  0  0  0  0  0  0  0
    2.2463   18.9657   39.4328 C   0  0  0  0  0  0  0  0  0  0  0  0
    1.8856   20.1549   38.8323 C   0  0  0  0  0  0  0  0  0  0  0  0
    1.8090   21.2789   39.6421 C   0  0  0  0  0  0  0  0  0  0  0  0
    2.0881   21.1926   41.0037 C   0  0  0  0  0  0  0  0  0  0  0  0
    2.3381   17.7642   38.6184 C   0  0  0  0  0  0  0  0  0  0  0  0
    2.6980   16.5443   39.1818 O   0  0  0  0  0  0  0  0  0  0  0  0
    2.0969   17.7867   37.3857 O   0  0  0  0  0  0  0  0  0  0  0  0
    2.8033   17.9196   41.2101 H   0  0  0  0  0  0  0  0  0  0  0  0
    1.6640   20.2356   37.7642 H   0  0  0  0  0  0  0  0  0  0  0  0
    1.5340   22.2443   39.2475 H   0  0  0  0  0  0  0  0  0  0  0  0
    2.0317   22.0526   41.6355 H   0  0  0  0  0  0  0  0  0  0  0  0
  1  2  1  0
  1  6  2  0
  2  3  2  0
  3  4  1  0
  3  7  1  0
  4  5  2  0
  5  6  1  0
  7  8  1  0
  7  9  2  0
  2 10  1  0
  4 11  1  0
  5 12  1  0
  6 13  1  0
M  CHG  1   8  -1
M  END
>  <mol_id>  (36) 
2026-09-18-3war-s0-n100-r6-0036

>  <rmsd_to_ref>  (36) 
2.0612244897967367

>  <pose_kind>  (36) 
conformer

$$$$
3war.A
     RDKit          3D

 13 13  0  0  0  0  0  0  0  0999 V2000
    1.3389   16.9231   39.3415 N   0  0  0  0  0  0  0  0  0  0  0  0
    2.6086   17.5225   39.1605 C   0  0  0  0  0  0  0  0  0  0  0  0
    2.6325   18.8580   38.6172 C   0  0  0  0  0  0  0  0  0  0  0  0
    1.4584   19.5009   38.2675 C   0  0  0  0  0  0  0  0  0  0  0  0
    0.2435   18.8892   38.4863 C   0  0  0  0  0  0  0  0  0  0  0  0
    0.2047   17.6070   38.9864 C   0  0  0  0  0  0  0  0  0  0  0  0
    3.9644   19.5250   38.3074 C   0  0  0  0  0  0  0  0  0  0  0  0
    5.0210   19.0024   38.7689 O   0  0  0  0  0  0  0  0  0  0  0  0
    3.8853   20.5191   37.6184 O   0  0  0  0  0  0  0  0  0  0  0  0
    3.5362   16.9927   39.4227 H   0  0  0  0  0  0  0  0  0  0  0  0
    1.4950   20.5023   37.8138 H   0  0  0  0  0  0  0  0  0  0  0  0
   -0.6918   19.4231   38.2623 H   0  0  0  0  0  0  0  0  0  0  0  0
   -0.7712   17.1135   39.1054 H   0  0  0  0  0  0  0  0  0  0  0  0
  1  2  1  0
  1  6  2  0
  2  3  2  0
  3  4  1  0
  3  7  1  0
  4  5  2  0
  5  6  1  0
  7  8  1  0
  7  9  2  0
  2 10  1  0
  4 11  1  0
  5 12  1  0
  6 13  1  0
M  CHG  1   8  -1
M  END
>  <mol_id>  (37) 
2026-09-18-3war-s0-n100-r6-0037

>  <rmsd_to_ref>  (37) 
2.1071428571433297

>  <pose_kind>  (37) 
rigid

$$$$
3war.A
     RDKit          3D

 13 13  0  0  0  0  0  0  0  0999 V2000
    1.2503   20.3579   39.4526 N   0  0  0  0  0  0  0  0  0  0  0  0
    2.3880   19.7254   39.0873 C   0  0  0  0  0  0  0  0  0  0  0  0
    2.8895   19.8572   37.8084 C   0  0  0  0  0  0  0  0  0  0  0  0
    2.2170   20.6451   36.8976 C   0  0  0  0  0  0  0  0  0  0  0  0
    1.0562   21.2905   37.2701 C   0  0  0  0  0  0  0  0  0  0  0  0
    0.5826   21.1305   38.5745 C   0  0  0  0  0  0  0  0  0  0  0  0
    4.0980   19.1816   37.4309 C   0  0  0  0  0  0  0  0  0  0  0  0
    4.6269   19.2949   36.1525 O   0  0  0  0  0  0  0  0  0  0  0  0
    4.7178   18.4616   38.2535 O   0  0  0  0  0  0  0  0  0  0  0  0
    2.9323   19.0997   39.7918 H   0  0  0  0  0  0  0  0  0  0  0  0
    2.5615   20.7852   35.8842 H   0  0  0  0  0  0  0  0  0  0  0  0
    0.5354   21.9051   36.5524 H   0  0  0  0  0  0  0  0  0  0  0  0
   -0.3224   21.6191   38.9050 H   0  0  0  0  0  0  0  0  0  0  0  0
  1  2  1  0
  1  6  2  0
  2  3  2  0
  3  4  1  0
  3  7  1  0
  4  5  2  0
  5  6  1  0
  7  8  1  0
  7  9  2  0
  2 10  1  0
  4 11  1  0
  5 12  1  0
  6 13  1  0
M  CHG  1   8  -1
M  END
>  <mol_id>  (38) 
2026-09-18-3war-s0-n100-r6-0038

>  <rmsd_to_ref>  (38) 
2.1530612244931793

>  <pose_kind>  (38) 
conformer

$$$$
3war.A
     RDKit          3D

 13 13  0  0  0  0  0  0  0  0999 V2000
    1.5908   19.9237   41.7353 N   0  0  0  0  0  0  0  0  0  0  0  0
    2.4245   19.4219   40.7072 C   0  0  0  0  0  0  0  0  0  0  0  0
    1.7761   18.7754   39.5932 C   0  0  0  0  0  0  0  0  0  0  0  0
    0.4002   18.6353   39.5593 C   0  0  0  0  0  0  0  0  0  0  0  0
   -0.3736   19.1631   40.5695 C   0  0  0  0  0  0  0  0  0  0  0  0
    0.2313   19.7663   41.6493 C   0  0  0  0  0  0  0  0  0  0  0  0
    2.6150   18.1291   38.5007 C   0  0  0  0  0  0  0  0  0  0  0  0
    3.8523   18.3932   38.4563 O   0  0  0  0  0  0  0  0  0  0  0  0
    2.0012   17.3921   37.7596 O   0  0  0  0  0  0  0  0  0  0  0  0
    3.5190   19.5208   40.7560 H   0  0  0  0  0  0  0  0  0  0  0  0
   -0.0769   18.1015   38.7241 H   0  0  0  0  0  0  0  0  0  0  0  0
   -1.4706   19.1028   40.5138 H   0  0  0  0  0  0  0  0  0  0  0  0
   -0.3984   20.1352   42.4723 H   0  0  0  0  0  0  0  0  0  0  0  0
  1  2  1  0
  1  6  2  0
  2  3  2  0
  3  4  1  0
  3  7  1  0
  4  5  2  0
  5  6  1  0
  7  8  1  0
  7  9  2  0
  2 10  1  0
  4 11  1  0
  5 12  1  0
  6 13  1  0
M  CHG  1   8  -1
M  END
>  <mol_id>  (39) 
2026-09-18-3war-s0-n100-r6-0039

>  <rmsd_to_ref>  (39) 
2.1989795918384005

>  <pose_kind>  (39) 
rigid

$$$$
3war.A
     RDKit          3D

 13 13  0  0  0  0  0  0  0  0999 V2000
   -0.0230   21.3904   40.3487 N   0  0  0  0  0  0  0  0  0  0  0  0
    0.6579   20.5500   39.5283 C   0  0  0  0  0  0  0  0  0  0  0  0
    2.0212   20.7030   39.3708 C   0  0  0  0  0  0  0  0  0  0  0  0
    2.6824   21.7205   40.0575 C   0  0  0  0  0  0  0  0  0  0  0  0
    1.9645   22.5666   40.8902 C   0  0  0  0  0  0  0  0  0  0  0  0
    0.5834   22.3817   41.0256 C   0  0  0  0  0  0  0  0  0  0  0  0
    2.7137   19.7823   38.4830 C   0  0  0  0  0  0  0  0  0  0  0  0
    4.1042   19.9034   38.2941 O   0  0  0  0  0  0  0  0  0  0  0  0
    2.1422   18.8564   37.8518 O   0  0  0  0  0  0  0  0  0  0  0  0
    0.1538   19.7649   38.9972 H   0  0  0  0  0  0  0  0  0  0  0  0
    3.7425   21.8193   39.9186 H   0  0  0  0  0  0  0  0  0  0  0  0
    2.4777   23.3556   41.4227 H   0  0  0  0  0  0  0  0  0  0  0  0
    0.0449   23.0639   41.6887 H   0  0  0  0  0  0  0  0  0  0  0  0
  1  2  1  0
  1  6  2  0
  2  3  2  0
  3  4  1  0
  3  7  1  0
  4  5  2  0
  5  6  1  0
  7  8  1  0
  7  9  2  0
  2 10  1  0
  4 11  1  0
  5 12  1  0
  6 13  1  0
M  CHG  1   8  -1
M  END
>  <mol_id>  (40) 
2026-09-18-3war-s0-n100-r6-0040

>  <rmsd_to_ref>  (40) 
2.244897959186485

>  <pose_kind>  (40) 
conformer

$$$$
3war.A
     RDKit          3D

 13 13  0  0  0  0  0  0  0  0999 V2000
    2.7747   19.3856   41.1544 N   0  0  0  0  0  0  0  0  0  0  0  0
    3.8106   20.1833   40.6117 C   0  0  0  0  0  0  0  0  0  0  0  0
    3.5786   20.7661   39.3132 C   0  0  0  0  0  0  0  0  0  0  0  0
    2.4008   20.5237   38.6290 C   0  0  0  0  0  0  0  0  0  0  0  0
    1.4090   19.7626   39.2078 C   0  0  0  0  0  0  0  0  0  0  0  0
    1.6228   19.1836   40.4385 C   0  0  0  0  0  0  0  0  0  0  0  0
    4.6853   21.5548   38.6292 C   0  0  0  0  0  0  0  0  0  0  0  0
    5.6904   21.9016   39.3164 O   0  0  0  0  0  0  0  0  0  0  0  0
    4.4980   21.7746   37.4520 O   0  0  0  0  0  0  0  0  0  0  0  0
    4.7514   20.3513   41.1565 H   0  0  0  0  0  0  0  0  0  0  0  0
    2.2561   20.9394   37.6209 H   0  0  0  0  0  0  0  0  0  0  0  0
    0.4501   19.6181   38.6886 H   0  0  0  0  0  0  0  0  0  0  0  0
    0.8415   18.5357   40.8627 H   0  0  0  0  0  0  0  0  0  0  0  0
  1  2  1  0
  1  6  2  0
  2  3  2  0
  3  4  1  0
  3  7  1  0
  4  5  2  0
  5  6  1  0
  7  8  1  0
  7  9  2  0
  2 10  1  0
  4 11  1  0
  5 12  1  0
  6 13  1  0
M  CHG  1   8  -1
M  END
>  <mol_id>  (41) 
2026-09-18-3war-s0-n100-r6-0041

>  <rmsd_to_ref>  (41) 
2.2908163265341037

>  <pose_kind>  (41) 
rigid

$$$$
3war.A
     RDKit          3D

 13 13  0  0  0  0  0  0  0  0999 V2000
    3.2709   20.0728   39.8096 N   0  0  0  0  0  0  0  0  0  0  0  0
    3.1272   18.9078   39.1340 C   0  0  0  0  0  0  0  0  0  0  0  0
    2.6272   18.8548   37.8557 C   0  0  0  0  0  0  0  0  0  0  0  0
    2.2574   20.0329   37.2365 C   0  0  0  0  0  0  0  0  0  0  0  0
    2.4123   21.1987   37.9407 C   0  0  0  0  0  0  0  0  0  0  0  0
    2.9178   21.2454   39.2311 C   0  0  0  0  0  0  0  0  0  0  0  0
    2.4868   17.6016   37.1647 C   0  0  0  0  0  0  0  0  0  0  0  0
    2.8660   16.4103   37.8040 O   0  0  0  0  0  0  0  0  0  0  0  0
    2.0416   17.4962   36.0108 O   0  0  0  0  0  0  0  0  0  0  0  0
    3.4185   17.9938   39.6253 H   0  0  0  0  0  0  0  0  0  0  0  0
    1.8576   20.0792   36.2382 H   0  0  0  0  0  0  0  0  0  0  0  0
    2.1340   22.1420   37.4899 H   0  0  0  0  0  0  0  0  0  0  0  0
    3.0252   22.1852   39.7547 H   0  0  0  0  0  0  0  0  0  0  0  0
  1  2  1  0
  1  6  2  0
  2  3  2  0
  3  4  1  0
  3  7  1  0
  4  5  2  0
  5  6  1  0
  7  8  1  0
  7  9  2  0
  2 10  1  0
  4 11  1  0
  5 12  1  0
  6 13  1  0
M  CHG  1   8  -1
M  END
>  <mol_id>  (42) 
2026-09-18-3war-s0-n100-r6-0042

>  <rmsd_to_ref>  (42) 
2.3367346938795044

>  <pose_kind>  (42) 
conformer

$$$$
3war.A
     RDKit          3D

 13 13  0  0  0  0  0  0  0  0999 V2000
    1.6727   18.0682   39.5114 N   0  0  0  0  0  0  0  0  0  0  0  0
    2.8524   18.8422   39.3961 C   0  0  0  0  0  0  0  0  0  0  0  0
    2.8510   20.1390   40.0266 C   0  0  0  0  0  0  0  0  0  0  0  0
    1.7279   20.6032   40.6879 C   0  0  0  0  0  0  0  0  0  0  0  0
    0.6109   19.8043   40.7980 C   0  0  0  0  0  0  0  0  0  0  0  0
    0.5897   18.5715   40.1853 C   0  0  0  0  0  0  0  0  0  0  0  0
    4.0491   21.0620   39.8613 C   0  0  0  0  0  0  0  0  0  0  0  0
    5.1218   20.5781   39.3945 O   0  0  0  0  0  0  0  0  0  0  0  0
    3.8535   22.2111   40.1937 O   0  0  0  0  0  0  0  0  0  0  0  0
    3.7317   18.4706   38.8494 H   0  0  0  0  0  0  0  0  0  0  0  0
    1.7267   21.6119   41.1265 H   0  0  0  0  0  0  0  0  0  0  0  0
   -0.2607   20.1500   41.3733 H   0  0  0  0  0  0  0  0  0  0  0  0
   -0.3289   17.9687   40.2383 H   0  0  0  0  0  0  0  0  0  0  0  0
  1  2  1  0
  1  6  2  0
  2  3  2  0
  3  4  1  0
  3  7  1  0
  4  5  2  0
  5  6  1  0
  7  8  1  0
  7  9  2  0
  2 10  1  0
  4 11  1  0
  5 12  1  0
  6 13  1  0
M  CHG  1   8  -1
M  END
>  <mol_id>  (43) 
2026-09-18-3war-s0-n100-r6-0043

>  <rmsd_to_ref>  (43) 
2.382653061229239

>  <pose_kind>  (43) 
rigid

$$$$
3war.A
     RDKit          3D

 13 13  0  0  0  0  0  0  0  0999 V2000
    0.4724   18.8076   37.3462 N   0  0  0  0  0  0  0  0  0  0  0  0
    1.7386   19.2890   37.3103 C   0  0  0  0  0  0  0  0  0  0  0  0
    2.0295   20.4931   37.9232 C   0  0  0  0  0  0  0  0  0  0  0  0
    1.0399   21.2311   38.5841 C   0  0  0  0  0  0  0  0  0  0  0  0
   -0.2444   20.7096   38.6017 C   0  0  0  0  0  0  0  0  0  0  0  0
   -0.4938   19.5026   37.9770 C   0  0  0  0  0  0  0  0  0  0  0  0
    3.4002   20.9971   37.8747 C   0  0  0  0  0  0  0  0  0  0  0  0
    3.7160   22.2090   38.4859 O   0  0  0  0  0  0  0  0  0  0  0  0
    4.3383   20.3868   37.2988 O   0  0  0  0  0  0  0  0  0  0  0  0
    2.4714   18.6952   36.7940 H   0  0  0  0  0  0  0  0  0  0  0  0
    1.2754   22.1812   39.0663 H   0  0  0  0  0  0  0  0  0  0  0  0
   -0.9976   21.2805   39.1100 H   0  0  0  0  0  0  0  0  0  0  0  0
   -1.4888   19.0920   37.9868 H   0  0  0  0  0  0  0  0  0  0  0  0
  1  2  1  0
  1  6  2  0
  2  3  2  0
  3  4  1  0
  3  7  1  0
  4  5  2  0
  5  6  1  0
  7  8  1  0
  7  9  2  0
  2 10  1  0
  4 11  1  0
  5 12  1  0
  6 13  1  0
M  CHG  1   8  -1
M  END
>  <mol_id>  (44) 
2026-09-18-3war-s0-n100-r6-0044

>  <rmsd_to_ref>  (44) 
2.4285714285736373

>  <pose_kind>  (44) 
conformer

$$$$
3war.A
     RDKit          3D

 13 13  0  0  0  0  0  0  0  0999 V2000
    2.9733   17.9136   38.1841 N   0  0  0  0  0  0  0  0  0  0  0  0
    2.3851   18.8340   37.2836 C   0  0  0  0  0  0  0  0  0  0  0  0
    1.4867   19.8147   37.8408 C   0  0  0  0  0  0  0  0  0  0  0  0
    1.2012   19.8245   39.1945 C   0  0  0  0  0  0  0  0  0  0  0  0
    1.8178   18.9263   40.0377 C   0  0  0  0  0  0  0  0  0  0  0  0
    2.6633   17.9716   39.5186 C   0  0  0  0  0  0  0  0  0  0  0  0
    0.7462   20.7723   36.9193 C   0  0  0  0  0  0  0  0  0  0  0  0
    1.1247   20.8620   35.7145 O   0  0  0  0  0  0  0  0  0  0  0  0
   -0.1707   21.3699   37.4402 O   0  0  0  0  0  0  0  0  0  0  0  0
    2.6038   18.8024   36.2060 H   0  0  0  0  0  0  0  0  0  0  0  0
    0.4806   20.5509   39.5983 H   0  0  0  0  0  0  0  0  0  0  0  0
    1.6354   18.9717   41.1215 H   0  0  0  0  0  0  0  0  0  0  0  0
    3.1060   17.2290   40.1986 H   0  0  0  0  0  0  0  0  0  0  0  0
  1  2  1  0
  1  6  2  0
  2  3  2  0
  3  4  1  0
  3  7  1  0
  4  5  2  0
  5  6  1  0
  7  8  1  0
  7  9  2  0
  2 10  1  0
  4 11  1  0
  5 12  1  0
  6 13  1  0
M  CHG  1   8  -1
M  END
>  <mol_id>  (45) 
2026-09-18-3war-s0-n100-r6-0045

>  <rmsd_to_ref>  (45) 
2.474489795922797

>  <pose_kind>  (45) 
rigid

$$$$
3war.A
     RDKit          3D

 13 13  0  0  0  0  0  0  0  0999 V2000
    0.2965   18.4891   39.5435 N   0  0  0  0  0  0  0  0  0  0  0  0
    1.6337   18.3495   39.5248 C   0  0  0  0  0  0  0  0  0  0  0  0
    2.4571   19.2508   40.1615 C   0  0  0  0  0  0  0  0  0  0  0  0
    1.9477   20.3453   40.8523 C   0  0  0  0  0  0  0  0  0  0  0  0
    0.5615   20.4720   40.8598 C   0  0  0  0  0  0  0  0  0  0  0  0
   -0.2507   19.5455   40.2072 C   0  0  0  0  0  0  0  0  0  0  0  0
    3.9028   19.0569   40.1130 C   0  0  0  0  0  0  0  0  0  0  0  0
    4.7596   19.9488   40.7453 O   0  0  0  0  0  0  0  0  0  0  0  0
    4.3985   18.0705   39.4924 O   0  0  0  0  0  0  0  0  0  0  0  0
    2.0231   17.4934   38.9840 H   0  0  0  0  0  0  0  0  0  0  0  0
    2.5916   21.0399   41.3434 H   0  0  0  0  0  0  0  0  0  0  0  0
    0.1418   21.3248   41.3969 H   0  0  0  0  0  0  0  0  0  0  0  0
   -1.3207   19.7065   40.2546 H   0  0  0  0  0  0  0  0  0  0  0  0
  1  2  1  0
  1  6  2  0
  2  3  2  0
  3  4  1  0
  3  7  1  0
  4  5  2  0
  5  6  1  0
  7  8  1  0
  7  9  2  0
  2 10  1  0
  4 11  1  0
  5 12  1  0
  6 13  1  0
M  CHG  1   8  -1
M  END
>  <mol_id>  (46) 
2026-09-18-3war-s0-n100-r6-0046

>  <rmsd_to_ref>  (46) 
2.520408163267859

>  <pose_kind>  (46) 
conformer

$$$$
3war.A
     RDKit          3D

 13 13  0  0  0  0  0  0  0  0999 V2000
    3.4786   20.1558   41.7390 N   0  0  0  0  0  0  0  0  0  0  0  0
    2.8864   19.7418   40.5217 C   0  0  0  0  0  0  0  0  0  0  0  0
    3.7135   19.7849   39.3413 C   0  0  0  0  0  0  0  0  0  0  0  0
    5.0184   20.2399   39.4077 C   0  0  0  0  0  0  0  0  0  0  0  0
    5.5616   20.6076   40.6191 C   0  0  0  0  0  0  0  0  0  0  0  0
    4.7792   20.5902   41.7520 C   0  0  0  0  0  0  0  0  0  0  0  0
    3.1141   19.4456   37.9847 C   0  0  0  0  0  0  0  0  0  0  0  0
    1.9789   18.8863   37.9511 O   0  0  0  0  0  0  0  0  0  0  0  0
    3.7977   19.7619   37.0350 O   0  0  0  0  0  0  0  0  0  0  0  0
    1.8411   19.4021   40.4782 H   0  0  0  0  0  0  0  0  0  0  0  0
    5.6232   20.3081   38.4915 H   0  0  0  0  0  0  0  0  0  0  0  0
    6.6162   20.9140   40.6811 H   0  0  0  0  0  0  0  0  0  0  0  0
    5.2130   20.9372   42.7014 H   0  0  0  0  0  0  0  0  0  0  0  0
  1  2  1  0
  1  6  2  0
  2  3  2  0
  3  4  1  0
  3  7  1  0
  4  5  2  0
  5  6  1  0
  7  8  1  0
  7  9  2  0
  2 10  1  0
  4 11  1  0
  5 12  1  0
  6 13  1  0
M  CHG  1   8  -1
M  END
>  <mol_id>  (47) 
2026-09-18-3war-s0-n100-r6-0047

>  <rmsd_to_ref>  (47) 
2.566326530613479

>  <pose_kind>  (47) 
rigid

$$$$
3war.A
     RDKit          3D

 13 13  0  0  0  0  0  0  0  0999 V2000
   -1.0278   20.4043   38.2888 N   0  0  0  0  0  0  0  0  0  0  0  0
    0.0211   19.5540   38.1629 C   0  0  0  0  0  0  0  0  0  0  0  0
    1.3156   20.0269   38.3338 C   0  0  0  0  0  0  0  0  0  0  0  0
    1.5243   21.3769   38.6342 C   0  0  0  0  0  0  0  0  0  0  0  0
    0.4386   22.2205   38.7567 C   0  0  0  0  0  0  0  0  0  0  0  0
   -0.8321   21.7147   38.5800 C   0  0  0  0  0  0  0  0  0  0  0  0
    2.3964   19.0807   38.1891 C   0  0  0  0  0  0  0  0  0  0  0  0
    3.7029   19.5701   38.3641 O   0  0  0  0  0  0  0  0  0  0  0  0
    2.2563   17.8643   37.9209 O   0  0  0  0  0  0  0  0  0  0  0  0
   -0.1481   18.5236   37.9330 H   0  0  0  0  0  0  0  0  0  0  0  0
    2.5222   21.7440   38.7665 H   0  0  0  0  0  0  0  0  0  0  0  0
    0.6339   23.2688   38.9918 H   0  0  0  0  0  0  0  0  0  0  0  0
   -1.6485   22.4108   38.6853 H   0  0  0  0  0  0  0  0  0  0  0  0
  1  2  1  0
  1  6  2  0
  2  3  2  0
  3  4  1  0
  3  7  1  0
  4  5  2  0
  5  6  1  0
  7  8  1  0
  7  9  2  0
  2 10  1  0
  4 11  1  0
  5 12  1  0
  6 13  1  0
M  CHG  1   8  -1
M  END
>  <mol_id>  (48) 
2026-09-18-3war-s0-n100-r6-0048

>  <rmsd_to_ref>  (48) 
2.6122448979595645

>  <pose_kind>  (48) 
conformer

$$$$
3war.A
     RDKit          3D

 13 13  0  0  0  0  0  0  0  0999 V2000
    4.1747   18.0824   37.6632 N   0  0  0  0  0  0  0  0  0  0  0  0
    3.6603   19.1811   36.9336 C   0  0  0  0  0  0  0  0  0  0  0  0
    2.8558   20.1324   37.6596 C   0  0  0  0  0  0  0  0  0  0  0  0
    2.5849   19.9499   39.0040 C   0  0  0  0  0  0  0  0  0  0  0  0
    3.1290   18.8798   39.6799 C   0  0  0  0  0  0  0  0  0  0  0  0
    3.8834   17.9525   38.9968 C   0  0  0  0  0  0  0  0  0  0  0  0
    2.1927   21.2839   36.9187 C   0  0  0  0  0  0  0  0  0  0  0  0
    2.5663   21.5326   35.7349 O   0  0  0  0  0  0  0  0  0  0  0  0
    1.3361   21.8657   37.5487 O   0  0  0  0  0  0  0  0  0  0  0  0
    3.8654   19.3037   35.8598 H   0  0  0  0  0  0  0  0  0  0  0  0
    1.9339   20.6605   39.5342 H   0  0  0  0  0  0  0  0  0  0  0  0
    2.9613   18.7667   40.7612 H   0  0  0  0  0  0  0  0  0  0  0  0
    4.2662   17.0761   39.5403 H   0  0  0  0  0  0  0  0  0  0  0  0
  1  2  1  0
  1  6  2  0
  2  3  2  0
  3  4  1  0
  3  7  1  0
  4  5  2  0
  5  6  1  0
  7  8  1  0
  7  9  2  0
  2 10  1  0
  4 11  1  0
  5 12  1  0
  6 13  1  0
M  CHG  1   8  -1
M  END
>  <mol_id>  (49) 
2026-09-18-3war-s0-n100-r6-0049

>  <rmsd_to_ref>  (49) 
2.6581632653075

>  <pose_kind>  (49) 
rigid

$$$$
3war.A
     RDKit          3D

 13 13  0  0  0  0  0  0  0  0999 V2000
    4.1176   17.2494   39.1383 N   0  0  0  0  0  0  0  0  0  0  0  0
    4.5726   18.5217   38.9870 C   0  0  0  0  0  0  0  0  0  0  0  0
    3.6736   19.5657   39.0835 C   0  0  0  0  0  0  0  0  0  0  0  0
    2.3391   19.3209   39.3289 C   0  0  0  0  0  0  0  0  0  0  0  0
    1.8848   18.0263   39.4814 C   0  0  0  0  0  0  0  0  0  0  0  0
    2.8071   17.0044   39.3796 C   0  0  0  0  0  0  0  0  0  0  0  0
    4.1506   20.9479   38.9221 C   0  0  0  0  0  0  0  0  0  0  0  0
    5.4781   21.2022   38.6774 O   0  0  0  0  0  0  0  0  0  0  0  0
    3.2861   21.8682   39.0197 O   0  0  0  0  0  0  0  0  0  0  0  0
    5.5974   18.7302   38.7974 H   0  0  0  0  0  0  0  0  0  0  0  0
    1.6023   20.1050   39.4121 H   0  0  0  0  0  0  0  0  0  0  0  0
    0.8444   17.8012   39.6747 H   0  0  0  0  0  0  0  0  0  0  0  0
    2.4274   15.9962   39.5028 H   0  0  0  0  0  0  0  0  0  0  0  0
  1  2  1  0
  1  6  2  0
  2  3  2  0
  3  4  1  0
  3  7  1  0
  4  5  2  0
  5  6  1  0
  7  8  1  0
  7  9  2  0
  2 10  1  0
  4 11  1  0
  5 12  1  0
  6 13  1  0
M  CHG  1   8  -1
M  END
>  <mol_id>  (50) 
2026-09-18-3war-s0-n100-r6-0050

>  <rmsd_to_ref>  (50) 
2.7040816326533017

>  <pose_kind>  (50) 
conformer

$$$$
3war.A
     RDKit          3D

 13 13  0  0  0  0  0  0  0  0999 V2000
    2.0382   20.4063   40.1308 N   0  0  0  0  0  0  0  0  0  0  0  0
    1.5013   19.1772   39.6780 C   0  0  0  0  0  0  0  0  0  0  0  0
    1.0455   19.1239   38.3109 C   0  0  0  0  0  0  0  0  0  0  0  0
    1.1116   20.2421   37.4988 C   0  0  0  0  0  0  0  0  0  0  0  0
    1.6667   21.4100   37.9741 C   0  0  0  0  0  0  0  0  0  0  0  0
    2.0889   21.4826   39.2826 C   0  0  0  0  0  0  0  0  0  0  0  0
    0.3704   17.8652   37.7870 C   0  0  0  0  0  0  0  0  0  0  0  0
    0.4530   16.8065   38.4762 O   0  0  0  0  0  0  0  0  0  0  0  0
   -0.2088   18.0026   36.7311 O   0  0  0  0  0  0  0  0  0  0  0  0
    1.4346   18.3012   40.3399 H   0  0  0  0  0  0  0  0  0  0  0  0
    0.7201   20.1986   36.4718 H   0  0  0  0  0  0  0  0  0  0  0  0
    1.7723   22.2811   37.3107 H   0  0  0  0  0  0  0  0  0  0  0  0
    2.4808   22.4381   39.6612 H   0  0  0  0  0  0  0  0  0  0  0  0
  1  2  1  0
  1  6  2  0
  2  3  2  0
  3  4  1  0
  3  7  1  0
  4  5  2  0
  5  6  1  0
  7  8  1  0
  7  9  2  0
  2 10  1  0
  4 11  1  0
  5 12  1  0
  6 13  1  0
M  CHG  1   8  -1
M  END
>  <mol_id>  (51) 
2026-09-18-3war-s0-n100-r6-0051

>  <rmsd_to_ref>  (51) 
2.7500000000041305

>  <pose_kind>  (51) 
rigid

$$$$
3war.A
     RDKit          3D

 13 13  0  0  0  0  0  0  0  0999 V2000
    2.6164   21.6088   41.5380 N   0  0  0  0  0  0  0  0  0  0  0  0
    2.4363   20.3108   41.2440 C   0  0  0  0  0  0  0  0  0  0  0  0
    1.9683   19.9469   40.0016 C   0  0  0  0  0  0  0  0  0  0  0  0
    1.6999   20.9373   39.0982 C   0  0  0  0  0  0  0  0  0  0  0  0
    1.8825   22.2780   39.3925 C   0  0  0  0  0  0  0  0  0  0  0  0
    2.3525   22.5976   40.6476 C   0  0  0  0  0  0  0  0  0  0  0  0
    1.7612   18.5451   39.6488 C   0  0  0  0  0  0  0  0  0  0  0  0
    2.0348   17.5394   40.5690 O   0  0  0  0  0  0  0  0  0  0  0  0
    1.3289   18.3046   38.4861 O   0  0  0  0  0  0  0  0  0  0  0  0
    2.6431   19.5097   41.9459 H   0  0  0  0  0  0  0  0  0  0  0  0
    1.3253   20.6600   38.1017 H   0  0  0  0  0  0  0  0  0  0  0  0
    1.6607   23.0504   38.6536 H   0  0  0  0  0  0  0  0  0  0  0  0
    2.5206   23.6295   40.9505 H   0  0  0  0  0  0  0  0  0  0  0  0
  1  2  1  0
  1  6  2  0
  2  3  2  0
  3  4  1  0
  3  7  1  0
  4  5  2  0
  5  6  1  0
  7  8  1  0
  7  9  2  0
  2 10  1  0
  4 11  1  0
  5 12  1  0
  6 13  1  0
M  CHG  1   8  -1
M  END
>  <mol_id>  (52) 
2026-09-18-3war-s0-n100-r6-0052

>  <rmsd_to_ref>  (52) 
2.795918367350233

>  <pose_kind>  (52) 
conformer

$$$$
3war.A
     RDKit          3D

 13 13  0  0  0  0  0  0  0  0999 V2000
    2.0936   20.1736   39.0338 N   0  0  0  0  0  0  0  0  0  0  0  0
    2.6860   18.9801   38.5556 C   0  0  0  0  0  0  0  0  0  0  0  0
    4.0856   18.7821   38.8405 C   0  0  0  0  0  0  0  0  0  0  0  0
    4.8102   19.7394   39.5282 C   0  0  0  0  0  0  0  0  0  0  0  0
    4.1856   20.8738   39.9981 C   0  0  0  0  0  0  0  0  0  0  0  0
    2.8544   21.0865   39.7179 C   0  0  0  0  0  0  0  0  0  0  0  0
    4.8085   17.5687   38.2750 C   0  0  0  0  0  0  0  0  0  0  0  0
    4.1154   16.6290   37.7860 O   0  0  0  0  0  0  0  0  0  0  0  0
    6.0177   17.6232   38.3399 O   0  0  0  0  0  0  0  0  0  0  0  0
    2.1041   18.2363   37.9915 H   0  0  0  0  0  0  0  0  0  0  0  0
    5.8869   19.5943   39.7001 H   0  0  0  0  0  0  0  0  0  0  0  0
    4.7482   21.6070   40.5947 H   0  0  0  0  0  0  0  0  0  0  0  0
    2.3844   22.0222   40.0550 H   0  0  0  0  0  0  0  0  0  0  0  0
  1  2  1  0
  1  6  2  0
  2  3  2  0
  3  4  1  0
  3  7  1  0
  4  5  2  0
  5  6  1  0
  7  8  1  0
  7  9  2  0
  2 10  1  0
  4 11  1  0
  5 12  1  0
  6 13  1  0
M  CHG  1   8  -1
M  END
>  <mol_id>  (53) 
2026-09-18-3war-s0-n100-r6-0053

>  <rmsd_to_ref>  (53) 
2.84183673469399

>  <pose_kind>  (53) 
rigid

$$$$
3war.A
     RDKit          3D

 13 13  0  0  0  0  0  0  0  0999 V2000
    0.4094   17.9512   40.3788 N   0  0  0  0  0  0  0  0  0  0  0  0
    1.7555   18.1444   40.3625 C   0  0  0  0  0  0  0  0  0  0  0  0
    2.4159   18.1602   39.1525 C   0  0  0  0  0  0  0  0  0  0  0  0
    1.7837   17.9891   37.9387 C   0  0  0  0  0  0  0  0  0  0  0  0
    0.4071   17.7935   37.9862 C   0  0  0  0  0  0  0  0  0  0  0  0
   -0.2469   17.7789   39.1998 C   0  0  0  0  0  0  0  0  0  0  0  0
    3.8762   18.3707   39.1473 C   0  0  0  0  0  0  0  0  0  0  0  0
    4.5692   18.5489   40.3356 O   0  0  0  0  0  0  0  0  0  0  0  0
    4.4963   18.3881   38.0497 O   0  0  0  0  0  0  0  0  0  0  0  0
    2.2709   18.2806   41.3019 H   0  0  0  0  0  0  0  0  0  0  0  0
    2.3312   18.0079   37.0213 H   0  0  0  0  0  0  0  0  0  0  0  0
   -0.1633   17.6500   37.0557 H   0  0  0  0  0  0  0  0  0  0  0  0
   -1.3295   17.6264   39.2576 H   0  0  0  0  0  0  0  0  0  0  0  0
  1  2  1  0
  1  6  2  0
  2  3  2  0
  3  4  1  0
  3  7  1  0
  4  5  2  0
  5  6  1  0
  7  8  1  0
  7  9  2  0
  2 10  1  0
  4 11  1  0
  5 12  1  0
  6 13  1  0
M  CHG  1   8  -1
M  END
>  <mol_id>  (54) 
2026-09-18-3war-s0-n100-r6-0054

>  <rmsd_to_ref>  (54) 
2.8877551020439416

>  <pose_kind>  (54) 
conformer

$$$$
3war.A
     RDKit          3D

 13 13  0  0  0  0  0  0  0  0999 V2000
    1.4955   20.5999   41.7663 N   0  0  0  0  0  0  0  0  0  0  0  0
    1.4333   21.4450   40.6323 C   0  0  0  0  0  0  0  0  0  0  0  0
    2.6558   21.6432   39.8935 C   0  0  0  0  0  0  0  0  0  0  0  0
    3.8354   21.0484   40.3045 C   0  0  0  0  0  0  0  0  0  0  0  0
    3.8432   20.2120   41.3992 C   0  0  0  0  0  0  0  0  0  0  0  0
    2.6885   20.0276   42.1262 C   0  0  0  0  0  0  0  0  0  0  0  0
    2.6828   22.6134   38.7219 C   0  0  0  0  0  0  0  0  0  0  0  0
    1.5803   23.0290   38.2589 O   0  0  0  0  0  0  0  0  0  0  0  0
    3.7926   22.9130   38.3373 O   0  0  0  0  0  0  0  0  0  0  0  0
    0.4937   21.9292   40.3279 H   0  0  0  0  0  0  0  0  0  0  0  0
    4.7688   21.2438   39.7562 H   0  0  0  0  0  0  0  0  0  0  0  0
    4.7683   19.6935   41.6912 H   0  0  0  0  0  0  0  0  0  0  0  0
    2.7244   19.3988   43.0280 H   0  0  0  0  0  0  0  0  0  0  0  0
  1  2  1  0
  1  6  2  0
  2  3  2  0
  3  4  1  0
  3  7  1  0
  4  5  2  0
  5  6  1  0
  7  8  1  0
  7  9  2  0
  2 10  1  0
  4 11  1  0
  5 12  1  0
  6 13  1  0
M  CHG  1   8  -1
M  END
>  <mol_id>  (55) 
2026-09-18-3war-s0-n100-r6-0055

>  <rmsd_to_ref>  (55) 
2.933673469387808

>  <pose_kind>  (55) 
rigid

$$$$
3war.A
     RDKit          3D

 13 13  0  0  0  0  0  0  0  0999 V2000
   -0.2388   20.3594   39.5785 N   0  0  0  0  0  0  0  0  0  0  0  0
    0.9041   19.8172   40.0420 C   0  0  0  0  0  0  0  0  0  0  0  0
    2.0397   20.6027   40.0028 C   0  0  0  0  0  0  0  0  0  0  0  0
    2.0446   21.8918   39.5175 C   0  0  0  0  0  0  0  0  0  0  0  0
    0.8336   22.4119   39.0469 C   0  0  0  0  0  0  0  0  0  0  0  0
   -0.2890   21.6080   39.0960 C   0  0  0  0  0  0  0  0  0  0  0  0
    3.2942   20.0450   40.4974 C   0  0  0  0  0  0  0  0  0  0  0  0
    3.3793   18.7564   41.0029 O   0  0  0  0  0  0  0  0  0  0  0  0
    4.3054   20.7938   40.4439 O   0  0  0  0  0  0  0  0  0  0  0  0
    0.9786   18.8153   40.4369 H   0  0  0  0  0  0  0  0  0  0  0  0
    2.9111   22.5133   39.4792 H   0  0  0  0  0  0  0  0  0  0  0  0
    0.7572   23.4138   38.6515 H   0  0  0  0  0  0  0  0  0  0  0  0
   -1.2109   22.0038   38.7378 H   0  0  0  0  0  0  0  0  0  0  0  0
  1  2  1  0
  1  6  2  0
  2  3  2  0
  3  4  1  0
  3  7  1  0
  4  5  2  0
  5  6  1  0
  7  8  1  0
  7  9  2  0
  2 10  1  0
  4 11  1  0
  5 12  1  0
  6 13  1  0
M  CHG  1   8  -1
M  END
>  <mol_id>  (56) 
2026-09-18-3war-s0-n100-r6-0056

>  <rmsd_to_ref>  (56) 
2.9795918367362115

>  <pose_kind>  (56) 
conformer

$$$$
3war.A
     RDKit          3D

 13 13  0  0  0  0  0  0  0  0999 V2000
    1.7849   18.9429   41.8963 N   0  0  0  0  0  0  0  0  0  0  0  0
    0.6089   19.0247   41.1126 C   0  0  0  0  0  0  0  0  0  0  0  0
    0.7183   19.6761   39.8308 C   0  0  0  0  0  0  0  0  0  0  0  0
    1.9210   20.2168   39.4121 C   0  0  0  0  0  0  0  0  0  0  0  0
    3.0464   20.0900   40.1965 C   0  0  0  0  0  0  0  0  0  0  0  0
    2.9541   19.4877   41.4312 C   0  0  0  0  0  0  0  0  0  0  0  0
   -0.5252   19.8839   38.9792 C   0  0  0  0  0  0  0  0  0  0  0  0
   -1.5800   19.2571   39.2909 O   0  0  0  0  0  0  0  0  0  0  0  0
   -0.3860   20.6618   38.0600 O   0  0  0  0  0  0  0  0  0  0  0  0
   -0.3466   18.6095   41.4659 H   0  0  0  0  0  0  0  0  0  0  0  0
    1.9787   20.7488   38.4510 H   0  0  0  0  0  0  0  0  0  0  0  0
    4.0149   20.4686   39.8378 H   0  0  0  0  0  0  0  0  0  0  0  0
    3.8505   19.4419   42.0672 H   0  0  0  0  0  0  0  0  0  0  0  0
  1  2  1  0
  1  6  2  0
  2  3  2  0
  3  4  1  0
  3  7  1  0
  4  5  2  0
  5  6  1  0
  7  8  1  0
  7  9  2  0
  2 10  1  0
  4 11  1  0
  5 12  1  0
  6 13  1  0
M  CHG  1   8  -1
M  END
>  <mol_id>  (57) 
2026-09-18-3war-s0-n100-r6-0057

>  <rmsd_to_ref>  (57) 
3.0255102040816366

>  <pose_kind>  (57) 
rigid

$$$$
3war.A
     RDKit          3D

 13 13  0  0  0  0  0  0  0  0999 V2000
    0.5605   17.3872   37.1864 N   0  0  0  0  0  0  0  0  0  0  0  0
    1.3504   18.3963   36.7181 C   0  0  0  0  0  0  0  0  0  0  0  0
    2.6183   18.5334   37.2460 C   0  0  0  0  0  0  0  0  0  0  0  0
    3.1216   17.6967   38.2245 C   0  0  0  0  0  0  0  0  0  0  0  0
    2.2987   16.6819   38.6809 C   0  0  0  0  0  0  0  0  0  0  0  0
    1.0327   16.5552   38.1451 C   0  0  0  0  0  0  0  0  0  0  0  0
    3.4478   19.6324   36.7204 C   0  0  0  0  0  0  0  0  0  0  0  0
    4.7478   19.8182   37.2225 O   0  0  0  0  0  0  0  0  0  0  0  0
    3.0673   20.4216   35.8454 O   0  0  0  0  0  0  0  0  0  0  0  0
    0.9681   19.0494   35.9597 H   0  0  0  0  0  0  0  0  0  0  0  0
    4.1363   17.8397   38.6182 H   0  0  0  0  0  0  0  0  0  0  0  0
    2.6363   15.9934   39.4471 H   0  0  0  0  0  0  0  0  0  0  0  0
    0.4192   15.7494   38.5278 H   0  0  0  0  0  0  0  0  0  0  0  0
  1  2  1  0
  1  6  2  0
  2  3  2  0
  3  4  1  0
  3  7  1  0
  4  5  2  0
  5  6  1  0
  7  8  1  0
  7  9  2  0
  2 10  1  0
  4 11  1  0
  5 12  1  0
  6 13  1  0
M  CHG  1   8  -1
M  END
>  <mol_id>  (58) 
2026-09-18-3war-s0-n100-r6-0058

>  <rmsd_to_ref>  (58) 
3.0714285714295744

>  <pose_kind>  (58) 
conformer

$$$$
3war.A
     RDKit          3D

 13 13  0  0  0  0  0  0  0  0999 V2000
    2.3672   22.3531   40.0104 N   0  0  0  0  0  0  0  0  0  0  0  0
    2.2521   20.9879   39.6541 C   0  0  0  0  0  0  0  0  0  0  0  0
    0.9201   20.4424   39.5664 C   0  0  0  0  0  0  0  0  0  0  0  0
   -0.1852   21.2253   39.8485 C   0  0  0  0  0  0  0  0  0  0  0  0
   -0.0268   22.5567   40.1652 C   0  0  0  0  0  0  0  0  0  0  0  0
    1.2391   23.0876   40.2716 C   0  0  0  0  0  0  0  0  0  0  0  0
    0.7267   18.9603   39.2825 C   0  0  0  0  0  0  0  0  0  0  0  0
    1.7210   18.2906   38.8756 O   0  0  0  0  0  0  0  0  0  0  0  0
   -0.3938   18.5466   39.4887 O   0  0  0  0  0  0  0  0  0  0  0  0
    3.1398   20.3702   39.4529 H   0  0  0  0  0  0  0  0  0  0  0  0
   -1.1923   20.7839   39.8198 H   0  0  0  0  0  0  0  0  0  0  0  0
   -0.9083   23.1931   40.3325 H   0  0  0  0  0  0  0  0  0  0  0  0
    1.3495   24.1385   40.5770 H   0  0  0  0  0  0  0  0  0  0  0  0
  1  2  1  0
  1  6  2  0
  2  3  2  0
  3  4  1  0
  3  7  1  0
  4  5  2  0
  5  6  1  0
  7  8  1  0
  7  9  2  0
  2 10  1  0
  4 11  1  0
  5 12  1  0
  6 13  1  0
M  CHG  1   8  -1
M  END
>  <mol_id>  (59) 
2026-09-18-3war-s0-n100-r6-0059

>  <rmsd_to_ref>  (59) 
3.1173469387774273

>  <pose_kind>  (59) 
rigid

$$$$
3war.A
     RDKit          3D

 13 13  0  0  0  0  0  0  0  0999 V2000
    3.4760   22.1835   42.4903 N   0  0  0  0  0  0  0  0  0  0  0  0
    3.2844   21.8428   41.2032 C   0  0  0  0  0  0  0  0  0  0  0  0
    2.8837   20.5576   40.9020 C   0  0  0  0  0  0  0  0  0  0  0  0
    2.6844   19.6376   41.9228 C   0  0  0  0  0  0  0  0  0  0  0  0
    2.8864   20.0059   43.2411 C   0  0  0  0  0  0  0  0  0  0  0  0
    3.2871   21.2990   43.5091 C   0  0  0  0  0  0  0  0  0  0  0  0
    2.6793   20.1994   39.5067 C   0  0  0  0  0  0  0  0  0  0  0  0
    2.2729   18.9049   39.1625 O   0  0  0  0  0  0  0  0  0  0  0  0
    2.8463   20.9951   38.5484 O   0  0  0  0  0  0  0  0  0  0  0  0
    3.4320   22.5396   40.3824 H   0  0  0  0  0  0  0  0  0  0  0  0
    2.3720   18.6477   41.6375 H   0  0  0  0  0  0  0  0  0  0  0  0
    2.7338   19.2958   44.0461 H   0  0  0  0  0  0  0  0  0  0  0  0
    3.4651   21.6613   44.5137 H   0  0  0  0  0  0  0  0  0  0  0  0
  1  2  1  0
  1  6  2  0
  2  3  2  0
  3  4  1  0
  3  7  1  0
  4  5  2  0
  5  6  1  0
  7  8  1  0
  7  9  2  0
  2 10  1  0
  4 11  1  0
  5 12  1  0
  6 13  1  0
M  CHG  1   8  -1
M  END
>  <mol_id>  (60) 
2026-09-18-3war-s0-n100-r6-0060

>  <rmsd_to_ref>  (60) 
3.163265306123516

>  <pose_kind>  (60) 
conformer

$$$$
3war.A
     RDKit          3D

 13 13  0  0  0  0  0  0  0  0999 V2000
    0.6991   22.4450   38.0395 N   0  0  0  0  0  0  0  0  0  0  0  0
    0.9974   21.0655   38.1489 C   0  0  0  0  0  0  0  0  0  0  0  0
    2.3229   20.6479   37.7640 C   0  0  0  0  0  0  0  0  0  0  0  0
    3.2421   21.5640   37.2846 C   0  0  0  0  0  0  0  0  0  0  0  0
    2.9168   22.9012   37.2205 C   0  0  0  0  0  0  0  0  0  0  0  0
    1.6493   23.3131   37.5662 C   0  0  0  0  0  0  0  0  0  0  0  0
    2.6805   19.1691   37.7654 C   0  0  0  0  0  0  0  0  0  0  0  0
    1.8981   18.3612   38.3465 O   0  0  0  0  0  0  0  0  0  0  0  0
    3.7080   18.8955   37.1834 O   0  0  0  0  0  0  0  0  0  0  0  0
    0.2507   20.3436   38.5115 H   0  0  0  0  0  0  0  0  0  0  0  0
    4.2347   21.2241   36.9540 H   0  0  0  0  0  0  0  0  0  0  0  0
    3.6667   23.6369   36.8944 H   0  0  0  0  0  0  0  0  0  0  0  0
    1.3895   24.3766   37.4589 H   0  0  0  0  0  0  0  0  0  0  0  0
  1  2  1  0
  1  6  2  0
  2  3  2  0
  3  4  1  0
  3  7  1  0
  4  5  2  0
  5  6  1  0
  7  8  1  0
  7  9  2  0
  2 10  1  0
  4 11  1  0
  5 12  1  0
  6 13  1  0
M  CHG  1   8  -1
M  END
>  <mol_id>  (61) 
2026-09-18-3war-s0-n100-r6-0061

>  <rmsd_to_ref>  (61) 
3.2091836734701586

>  <pose_kind>  (61) 
rigid

$$$$
3war.A
     RDKit          3D

 13 13  0  0  0  0  0  0  0  0999 V2000
    2.3796   16.6612   39.4371 N   0  0  0  0  0  0  0  0  0  0  0  0
    2.2651   17.9853   39.1511 C   0  0  0  0  0  0  0  0  0  0  0  0
    1.2562   18.3918   38.3048 C   0  0  0  0  0  0  0  0  0  0  0  0
    0.3542   17.5204   37.7316 C   0  0  0  0  0  0  0  0  0  0  0  0
    0.4933   16.1722   38.0403 C   0  0  0  0  0  0  0  0  0  0  0  0
    1.4973   15.7847   38.8799 C   0  0  0  0  0  0  0  0  0  0  0  0
    1.1531   19.8238   38.0118 C   0  0  0  0  0  0  0  0  0  0  0  0
    0.1436   20.2950   37.1554 O   0  0  0  0  0  0  0  0  0  0  0  0
    1.9247   20.6836   38.4851 O   0  0  0  0  0  0  0  0  0  0  0  0
    2.9605   18.6765   39.5902 H   0  0  0  0  0  0  0  0  0  0  0  0
   -0.4127   17.8880   37.0796 H   0  0  0  0  0  0  0  0  0  0  0  0
   -0.1899   15.4355   37.6174 H   0  0  0  0  0  0  0  0  0  0  0  0
    1.5977   14.7345   39.1142 H   0  0  0  0  0  0  0  0  0  0  0  0
  1  2  1  0
  1  6  2  0
  2  3  2  0
  3  4  1  0
  3  7  1  0
  4  5  2  0
  5  6  1  0
  7  8  1  0
  7  9  2  0
  2 10  1  0
  4 11  1  0
  5 12  1  0
  6 13  1  0
M  CHG  1   8  -1
M  END
>  <mol_id>  (62) 
2026-09-18-3war-s0-n100-r6-0062

>  <rmsd_to_ref>  (62) 
3.255102040817992

>  <pose_kind>  (62) 
conformer

$$$$
3war.A
     RDKit          3D

 13 13  0  0  0  0  0  0  0  0999 V2000
    1.7372   23.0143   39.0304 N   0  0  0  0  0  0  0  0  0  0  0  0
    2.1347   21.6704   38.8308 C   0  0  0  0  0  0  0  0  0  0  0  0
    3.3258   21.2298   39.5138 C   0  0  0  0  0  0  0  0  0  0  0  0
    4.0524   22.1026   40.3039 C   0  0  0  0  0  0  0  0  0  0  0  0
    3.6130   23.3949   40.4910 C   0  0  0  0  0  0  0  0  0  0  0  0
    2.4883   23.8363   39.8308 C   0  0  0  0  0  0  0  0  0  0  0  0
    3.8633   19.8277   39.2690 C   0  0  0  0  0  0  0  0  0  0  0  0
    3.1190   18.9926   38.6764 O   0  0  0  0  0  0  0  0  0  0  0  0
    4.9923   19.6406   39.6688 O   0  0  0  0  0  0  0  0  0  0  0  0
    1.5601   20.9920   38.1830 H   0  0  0  0  0  0  0  0  0  0  0  0
    4.9826   21.7641   40.7836 H   0  0  0  0  0  0  0  0  0  0  0  0
    4.1587   24.0714   41.1653 H   0  0  0  0  0  0  0  0  0  0  0  0
    2.1813   24.8859   39.9496 H   0  0  0  0  0  0  0  0  0  0  0  0
  1  2  1  0
  1  6  2  0
  2  3  2  0
  3  4  1  0
  3  7  1  0
  4  5  2  0
  5  6  1  0
  7  8  1  0
  7  9  2  0
  2 10  1  0
  4 11  1  0
  5 12  1  0
  6 13  1  0
M  CHG  1   8  -1
M  END
>  <mol_id>  (63) 
2026-09-18-3war-s0-n100-r6-0063

>  <rmsd_to_ref>  (63) 
3.3010204081651344

>  <pose_kind>  (63) 
rigid

$$$$
3war.A
     RDKit          3D

 13 13  0  0  0  0  0  0  0  0999 V2000
   -1.1599   20.8192   38.8161 N   0  0  0  0  0  0  0  0  0  0  0  0
    0.0855   20.3535   38.5218 C   0  0  0  0  0  0  0  0  0  0  0  0
    0.2980   19.0110   38.2839 C   0  0  0  0  0  0  0  0  0  0  0  0
   -0.7298   18.0892   38.3327 C   0  0  0  0  0  0  0  0  0  0  0  0
   -1.9888   18.6042   38.6367 C   0  0  0  0  0  0  0  0  0  0  0  0
   -2.1983   19.9465   38.8740 C   0  0  0  0  0  0  0  0  0  0  0  0
    1.6382   18.5203   37.9689 C   0  0  0  0  0  0  0  0  0  0  0  0
    2.7064   19.4374   37.9121 O   0  0  0  0  0  0  0  0  0  0  0  0
    1.8066   17.2913   37.7559 O   0  0  0  0  0  0  0  0  0  0  0  0
    0.9399   20.9986   38.4633 H   0  0  0  0  0  0  0  0  0  0  0  0
   -0.5713   17.0318   38.1469 H   0  0  0  0  0  0  0  0  0  0  0  0
   -2.7977   17.9082   38.6795 H   0  0  0  0  0  0  0  0  0  0  0  0
   -3.1684   20.3632   39.1112 H   0  0  0  0  0  0  0  0  0  0  0  0
  1  2  1  0
  1  6  2  0
  2  3  2  0
  3  4  1  0
  3  7  1  0
  4  5  2  0
  5  6  1  0
  7  8  1  0
  7  9  2  0
  2 10  1  0
  4 11  1  0
  5 12  1  0
  6 13  1  0
M  CHG  1   8  -1
M  END
>  <mol_id>  (64) 
2026-09-18-3war-s0-n100-r6-0064

>  <rmsd_to_ref>  (64) 
3.3469387755118816

>  <pose_kind>  (64) 
conformer

$$$$
3war.A
     RDKit          3D

 13 13  0  0  0  0  0  0  0  0999 V2000
    0.0309   19.1052   42.3983 N   0  0  0  0  0  0  0  0  0  0  0  0
    1.0972   20.0165   42.2069 C   0  0  0  0  0  0  0  0  0  0  0  0
    2.0136   19.7375   41.1290 C   0  0  0  0  0  0  0  0  0  0  0  0
    1.8594   18.6093   40.3432 C   0  0  0  0  0  0  0  0  0  0  0  0
    0.7910   17.7642   40.5488 C   0  0  0  0  0  0  0  0  0  0  0  0
   -0.0818   18.0064   41.5858 C   0  0  0  0  0  0  0  0  0  0  0  0
    3.2354   20.6213   40.9268 C   0  0  0  0  0  0  0  0  0  0  0  0
    3.2864   21.7273   41.5406 O   0  0  0  0  0  0  0  0  0  0  0  0
    4.0744   20.1635   40.1814 O   0  0  0  0  0  0  0  0  0  0  0  0
    1.2213   20.8988   42.8520 H   0  0  0  0  0  0  0  0  0  0  0  0
    2.5912   18.3866   39.5527 H   0  0  0  0  0  0  0  0  0  0  0  0
    0.6358   16.8993   39.8872 H   0  0  0  0  0  0  0  0  0  0  0  0
   -0.8987   17.2929   41.7691 H   0  0  0  0  0  0  0  0  0  0  0  0
  1  2  1  0
  1  6  2  0
  2  3  2  0
  3  4  1  0
  3  7  1  0
  4  5  2  0
  5  6  1  0
  7  8  1  0
  7  9  2  0
  2 10  1  0
  4 11  1  0
  5 12  1  0
  6 13  1  0
M  CHG  1   8  -1
M  END
>  <mol_id>  (65) 
2026-09-18-3war-s0-n100-r6-0065

>  <rmsd_to_ref>  (65) 
3.3928571428595693

>  <pose_kind>  (65) 
rigid

$$$$
3war.A
     RDKit          3D

 13 13  0  0  0  0  0  0  0  0999 V2000
    2.0139   22.4273   36.6086 N   0  0  0  0  0  0  0  0  0  0  0  0
    3.0152   21.7277   36.0075 C   0  0  0  0  0  0  0  0  0  0  0  0
    3.0996   20.3597   36.1765 C   0  0  0  0  0  0  0  0  0  0  0  0
    2.1546   19.7088   36.9640 C   0  0  0  0  0  0  0  0  0  0  0  0
    1.1481   20.4485   37.5622 C   0  0  0  0  0  0  0  0  0  0  0  0
    1.0800   21.8338   37.3785 C   0  0  0  0  0  0  0  0  0  0  0  0
    4.1817   19.6325   35.5220 C   0  0  0  0  0  0  0  0  0  0  0  0
    4.2635   18.2509   35.6953 O   0  0  0  0  0  0  0  0  0  0  0  0
    5.0532   20.1891   34.8030 O   0  0  0  0  0  0  0  0  0  0  0  0
    3.7517   22.2516   35.3909 H   0  0  0  0  0  0  0  0  0  0  0  0
    2.2522   18.6542   37.0711 H   0  0  0  0  0  0  0  0  0  0  0  0
    0.3981   19.9460   38.1848 H   0  0  0  0  0  0  0  0  0  0  0  0
    0.2868   22.4020   37.8524 H   0  0  0  0  0  0  0  0  0  0  0  0
  1  2  1  0
  1  6  2  0
  2  3  2  0
  3  4  1  0
  3  7  1  0
  4  5  2  0
  5  6  1  0
  7  8  1  0
  7  9  2  0
  2 10  1  0
  4 11  1  0
  5 12  1  0
  6 13  1  0
M  CHG  1   8  -1
M  END
>  <mol_id>  (66) 
2026-09-18-3war-s0-n100-r6-0066

>  <rmsd_to_ref>  (66) 
3.438775510205177

>  <pose_kind>  (66) 
conformer

$$$$
3war.A
     RDKit          3D

 13 13  0  0  0  0  0  0  0  0999 V2000
    4.6258   20.5540   36.6379 N   0  0  0  0  0  0  0  0  0  0  0  0
    4.3350   19.2256   36.2444 C   0  0  0  0  0  0  0  0  0  0  0  0
    3.2619   18.5559   36.9367 C   0  0  0  0  0  0  0  0  0  0  0  0
    2.5749   19.1883   37.9576 C   0  0  0  0  0  0  0  0  0  0  0  0
    2.8745   20.4915   38.2889 C   0  0  0  0  0  0  0  0  0  0  0  0
    3.9088   21.1382   37.6503 C   0  0  0  0  0  0  0  0  0  0  0  0
    2.9589   17.0965   36.6312 C   0  0  0  0  0  0  0  0  0  0  0  0
    3.4788   16.5768   35.6006 O   0  0  0  0  0  0  0  0  0  0  0  0
    2.2335   16.5505   37.4343 O   0  0  0  0  0  0  0  0  0  0  0  0
    4.9027   18.7262   35.4455 H   0  0  0  0  0  0  0  0  0  0  0  0
    1.7879   18.6495   38.5057 H   0  0  0  0  0  0  0  0  0  0  0  0
    2.2896   21.0135   39.0605 H   0  0  0  0  0  0  0  0  0  0  0  0
    4.1692   22.1600   37.9634 H   0  0  0  0  0  0  0  0  0  0  0  0
  1  2  1  0
  1  6  2  0
  2  3  2  0
  3  4  1  0
  3  7  1  0
  4  5  2  0
  5  6  1  0
  7  8  1  0
  7  9  2  0
  2 10  1  0
  4 11  1  0
  5 12  1  0
  6 13  1  0
M  CHG  1   8  -1
M  END
>  <mol_id>  (67) 
2026-09-18-3war-s0-n100-r6-0067

>  <rmsd_to_ref>  (67) 
3.484693877552258

>  <pose_kind>  (67) 
rigid

$$$$
3war.A
     RDKit          3D

 13 13  0  0  0  0  0  0  0  0999 V2000
   -1.0659   18.5589   40.5647 N   0  0  0  0  0  0  0  0  0  0  0  0
    0.1107   18.9639   41.0611 C   0  0  0  0  0  0  0  0  0  0  0  0
    1.2229   18.9879   40.2456 C   0  0  0  0  0  0  0  0  0  0  0  0
    1.1776   18.6067   38.9180 C   0  0  0  0  0  0  0  0  0  0  0  0
   -0.0728   18.1941   38.4544 C   0  0  0  0  0  0  0  0  0  0  0  0
   -1.1845   18.1717   39.2749 C   0  0  0  0  0  0  0  0  0  0  0  0
    2.4936   19.4318   40.8049 C   0  0  0  0  0  0  0  0  0  0  0  0
    2.5982   19.8258   42.1305 O   0  0  0  0  0  0  0  0  0  0  0  0
    3.5399   19.4736   40.1070 O   0  0  0  0  0  0  0  0  0  0  0  0
    0.2229   19.2760   42.0874 H   0  0  0  0  0  0  0  0  0  0  0  0
    2.0364   18.6177   38.2615 H   0  0  0  0  0  0  0  0  0  0  0  0
   -0.2008   17.8746   37.4143 H   0  0  0  0  0  0  0  0  0  0  0  0
   -2.1306   17.8543   38.9055 H   0  0  0  0  0  0  0  0  0  0  0  0
  1  2  1  0
  1  6  2  0
  2  3  2  0
  3  4  1  0
  3  7  1  0
  4  5  2  0
  5  6  1  0
  7  8  1  0
  7  9  2  0
  2 10  1  0
  4 11  1  0
  5 12  1  0
  6 13  1  0
M  CHG  1   8  -1
M  END
>  <mol_id>  (68) 
2026-09-18-3war-s0-n100-r6-0068

>  <rmsd_to_ref>  (68) 
3.530612244898055

>  <pose_kind>  (68) 
conformer

$$$$
3war.A
     RDKit          3D

 13 13  0  0  0  0  0  0  0  0999 V2000
    3.9570   16.7705   37.9110 N   0  0  0  0  0  0  0  0  0  0  0  0
    3.4135   18.0745   38.0018 C   0  0  0  0  0  0  0  0  0  0  0  0
    2.2628   18.2482   38.8533 C   0  0  0  0  0  0  0  0  0  0  0  0
    1.7094   17.1718   39.5236 C   0  0  0  0  0  0  0  0  0  0  0  0
    2.2881   15.9253   39.4266 C   0  0  0  0  0  0  0  0  0  0  0  0
    3.3755   15.7392   38.6028 C   0  0  0  0  0  0  0  0  0  0  0  0
    1.5704   19.6012   38.9228 C   0  0  0  0  0  0  0  0  0  0  0  0
    2.1655   20.6075   38.4372 O   0  0  0  0  0  0  0  0  0  0  0  0
    0.4763   19.5845   39.4442 O   0  0  0  0  0  0  0  0  0  0  0  0
    3.8499   18.9182   37.4471 H   0  0  0  0  0  0  0  0  0  0  0  0
    0.8058   17.3115   40.1350 H   0  0  0  0  0  0  0  0  0  0  0  0
    1.8829   15.0820   40.0052 H   0  0  0  0  0  0  0  0  0  0  0  0
    3.7927   14.7270   38.4959 H   0  0  0  0  0  0  0  0  0  0  0  0
  1  2  1  0
  1  6  2  0
  2  3  2  0
  3  4  1  0
  3  7  1  0
  4  5  2  0
  5  6  1  0
  7  8  1  0
  7  9  2  0
  2 10  1  0
  4 11  1  0
  5 12  1  0
  6 13  1  0
M  CHG  1   8  -1
M  END
>  <mol_id>  (69) 
2026-09-18-3war-s0-n100-r6-0069

>  <rmsd_to_ref>  (69) 
3.576530612245451

>  <pose_kind>  (69) 
rigid

$$$$
3war.A
     RDKit          3D

 13 13  0  0  0  0  0  0  0  0999 V2000
    5.7267   20.1124   40.6903 N   0  0  0  0  0  0  0  0  0  0  0  0
    4.4693   19.7036   40.3709 C   0  0  0  0  0  0  0  0  0  0  0  0
    4.1645   19.3831   39.0687 C   0  0  0  0  0  0  0  0  0  0  0  0
    5.1134   19.4679   38.0719 C   0  0  0  0  0  0  0  0  0  0  0  0
    6.3741   19.8870   38.4431 C   0  0  0  0  0  0  0  0  0  0  0  0
    6.6912   20.2130   39.7572 C   0  0  0  0  0  0  0  0  0  0  0  0
    2.8255   18.9405   38.6882 C   0  0  0  0  0  0  0  0  0  0  0  0
    1.8120   18.8318   39.6526 O   0  0  0  0  0  0  0  0  0  0  0  0
    2.6001   18.6597   37.4826 O   0  0  0  0  0  0  0  0  0  0  0  0
    3.7299   19.6368   41.1435 H   0  0  0  0  0  0  0  0  0  0  0  0
    4.9451   19.2350   37.0434 H   0  0  0  0  0  0  0  0  0  0  0  0
    7.1449   19.9659   37.6890 H   0  0  0  0  0  0  0  0  0  0  0  0
    7.7012   20.5350   39.9786 H   0  0  0  0  0  0  0  0  0  0  0  0
  1  2  1  0
  1  6  2  0
  2  3  2  0
  3  4  1  0
  3  7  1  0
  4  5  2  0
  5  6  1  0
  7  8  1  0
  7  9  2  0
  2 10  1  0
  4 11  1  0
  5 12  1  0
  6 13  1  0
M  CHG  1   8  -1
M  END
>  <mol_id>  (70) 
2026-09-18-3war-s0-n100-r6-0070

>  <rmsd_to_ref>  (70) 
3.6224489795926553

>  <pose_kind>  (70) 
conformer

$$$$
3war.A
     RDKit          3D

 13 13  0  0  0  0  0  0  0  0999 V2000
    5.6703   20.2937   38.3492 N   0  0  0  0  0  0  0  0  0  0  0  0
    4.8494   21.4153   38.0808 C   0  0  0  0  0  0  0  0  0  0  0  0
    3.5466   21.1560   37.5197 C   0  0  0  0  0  0  0  0  0  0  0  0
    3.1426   19.8634   37.2362 C   0  0  0  0  0  0  0  0  0  0  0  0
    3.9645   18.8001   37.5391 C   0  0  0  0  0  0  0  0  0  0  0  0
    5.2188   19.0322   38.0574 C   0  0  0  0  0  0  0  0  0  0  0  0
    2.6509   22.3183   37.1178 C   0  0  0  0  0  0  0  0  0  0  0  0
    2.9558   23.4797   37.5187 O   0  0  0  0  0  0  0  0  0  0  0  0
    1.7062   22.0134   36.4222 O   0  0  0  0  0  0  0  0  0  0  0  0
    5.1903   22.4398   38.2910 H   0  0  0  0  0  0  0  0  0  0  0  0
    2.1634   19.6845   36.7681 H   0  0  0  0  0  0  0  0  0  0  0  0
    3.6200   17.7696   37.3675 H   0  0  0  0  0  0  0  0  0  0  0  0
    5.8824   18.1750   38.2441 H   0  0  0  0  0  0  0  0  0  0  0  0
  1  2  1  0
  1  6  2  0
  2  3  2  0
  3  4  1  0
  3  7  1  0
  4  5  2  0
  5  6  1  0
  7  8  1  0
  7  9  2  0
  2 10  1  0
  4 11  1  0
  5 12  1  0
  6 13  1  0
M  CHG  1   8  -1
M  END
>  <mol_id>  (71) 
2026-09-18-3war-s0-n100-r6-0071

>  <rmsd_to_ref>  (71) 
3.6683673469398475

>  <pose_kind>  (71) 
rigid

$$$$
3war.A
     RDKit          3D

 13 13  0  0  0  0  0  0  0  0999 V2000
   -1.0250   20.1333   37.7569 N   0  0  0  0  0  0  0  0  0  0  0  0
   -0.1413   19.5438   38.5839 C   0  0  0  0  0  0  0  0  0  0  0  0
    0.9930   18.9299   38.0927 C   0  0  0  0  0  0  0  0  0  0  0  0
    1.1840   18.9461   36.7110 C   0  0  0  0  0  0  0  0  0  0  0  0
    0.2849   19.5473   35.8553 C   0  0  0  0  0  0  0  0  0  0  0  0
   -0.8386   20.1489   36.4119 C   0  0  0  0  0  0  0  0  0  0  0  0
    1.9505   18.2909   38.9905 C   0  0  0  0  0  0  0  0  0  0  0  0
    3.0760   17.6896   38.4189 O   0  0  0  0  0  0  0  0  0  0  0  0
    1.8071   18.2591   40.2416 O   0  0  0  0  0  0  0  0  0  0  0  0
   -0.3647   19.5755   39.6490 H   0  0  0  0  0  0  0  0  0  0  0  0
    2.0511   18.4829   36.2701 H   0  0  0  0  0  0  0  0  0  0  0  0
    0.4633   19.5419   34.7885 H   0  0  0  0  0  0  0  0  0  0  0  0
   -1.5361   20.6167   35.7327 H   0  0  0  0  0  0  0  0  0  0  0  0
  1  2  1  0
  1  6  2  0
  2  3  2  0
  3  4  1  0
  3  7  1  0
  4  5  2  0
  5  6  1  0
  7  8  1  0
  7  9  2  0
  2 10  1  0
  4 11  1  0
  5 12  1  0
  6 13  1  0
M  CHG  1   8  -1
M  END
>  <mol_id>  (72) 
2026-09-18-3war-s0-n100-r6-0072

>  <rmsd_to_ref>  (72) 
3.714285714289226

>  <pose_kind>  (72) 
conformer

$$$$
3war.A
     RDKit          3D

 13 13  0  0  0  0  0  0  0  0999 V2000
    1.2940   20.2826   37.6738 N   0  0  0  0  0  0  0  0  0  0  0  0
    2.1107   21.3967   37.9832 C   0  0  0  0  0  0  0  0  0  0  0  0
    3.2323   21.6502   37.1131 C   0  0  0  0  0  0  0  0  0  0  0  0
    3.5007   20.8153   36.0430 C   0  0  0  0  0  0  0  0  0  0  0  0
    2.6629   19.7579   35.7639 C   0  0  0  0  0  0  0  0  0  0  0  0
    1.5989   19.4913   36.5962 C   0  0  0  0  0  0  0  0  0  0  0  0
    4.2060   22.7723   37.4412 C   0  0  0  0  0  0  0  0  0  0  0  0
    3.8731   23.6202   38.3204 O   0  0  0  0  0  0  0  0  0  0  0  0
    5.2445   22.7411   36.8169 O   0  0  0  0  0  0  0  0  0  0  0  0
    1.8991   22.0408   38.8495 H   0  0  0  0  0  0  0  0  0  0  0  0
    4.3848   20.9961   35.4139 H   0  0  0  0  0  0  0  0  0  0  0  0
    2.8432   19.1291   34.8796 H   0  0  0  0  0  0  0  0  0  0  0  0
    0.9711   18.6121   36.3893 H   0  0  0  0  0  0  0  0  0  0  0  0
  1  2  1  0
  1  6  2  0
  2  3  2  0
  3  4  1  0
  3  7  1  0
  4  5  2  0
  5  6  1  0
  7  8  1  0
  7  9  2  0
  2 10  1  0
  4 11  1  0
  5 12  1  0
  6 13  1  0
M  CHG  1   8  -1
M  END
>  <mol_id>  (73) 
2026-09-18-3war-s0-n100-r6-0073

>  <rmsd_to_ref>  (73) 
3.760204081634322

>  <pose_kind>  (73) 
rigid

$$$$
3war.A
     RDKit          3D

 13 13  0  0  0  0  0  0  0  0999 V2000
    2.5911   22.1822   40.5091 N   0  0  0  0  0  0  0  0  0  0  0  0
    2.0187   20.9879   40.2015 C   0  0  0  0  0  0  0  0  0  0  0  0
    1.5072   20.2023   41.2140 C   0  0  0  0  0  0  0  0  0  0  0  0
    1.5589   20.5936   42.5365 C   0  0  0  0  0  0  0  0  0  0  0  0
    2.1496   21.8177   42.8151 C   0  0  0  0  0  0  0  0  0  0  0  0
    2.6644   22.6068   41.7896 C   0  0  0  0  0  0  0  0  0  0  0  0
    0.8959   18.9256   40.8801 C   0  0  0  0  0  0  0  0  0  0  0  0
    0.8221   18.4915   39.5605 O   0  0  0  0  0  0  0  0  0  0  0  0
    0.4164   18.1755   41.7664 O   0  0  0  0  0  0  0  0  0  0  0  0
    1.9530   20.6327   39.1697 H   0  0  0  0  0  0  0  0  0  0  0  0
    1.1583   19.9831   43.3508 H   0  0  0  0  0  0  0  0  0  0  0  0
    2.2281   22.1930   43.8233 H   0  0  0  0  0  0  0  0  0  0  0  0
    3.1212   23.5509   41.9942 H   0  0  0  0  0  0  0  0  0  0  0  0
  1  2  1  0
  1  6  2  0
  2  3  2  0
  3  4  1  0
  3  7  1  0
  4  5  2  0
  5  6  1  0
  7  8  1  0
  7  9  2  0
  2 10  1  0
  4 11  1  0
  5 12  1  0
  6 13  1  0
M  CHG  1   8  -1
M  END
>  <mol_id>  (74) 
2026-09-18-3war-s0-n100-r6-0074

>  <rmsd_to_ref>  (74) 
3.8061224489799717

>  <pose_kind>  (74) 
conformer

$$$$
3war.A
     RDKit          3D

 13 13  0  0  0  0  0  0  0  0999 V2000
    3.7898   21.8112   40.3869 N   0  0  0  0  0  0  0  0  0  0  0  0
    2.7306   22.7144   40.1294 C   0  0  0  0  0  0  0  0  0  0  0  0
    1.5030   22.1576   39.6172 C   0  0  0  0  0  0  0  0  0  0  0  0
    1.3910   20.8014   39.3676 C   0  0  0  0  0  0  0  0  0  0  0  0
    2.4391   19.9560   39.6585 C   0  0  0  0  0  0  0  0  0  0  0  0
    3.6243   20.4744   40.1300 C   0  0  0  0  0  0  0  0  0  0  0  0
    0.3579   23.0807   39.2284 C   0  0  0  0  0  0  0  0  0  0  0  0
    0.4064   24.2897   39.6007 O   0  0  0  0  0  0  0  0  0  0  0  0
   -0.5147   22.5566   38.5702 O   0  0  0  0  0  0  0  0  0  0  0  0
    2.8393   23.7937   40.3121 H   0  0  0  0  0  0  0  0  0  0  0  0
    0.4634   20.3975   38.9360 H   0  0  0  0  0  0  0  0  0  0  0  0
    2.3296   18.8709   39.5146 H   0  0  0  0  0  0  0  0  0  0  0  0
    4.4686   19.7918   40.3071 H   0  0  0  0  0  0  0  0  0  0  0  0
  1  2  1  0
  1  6  2  0
  2  3  2  0
  3  4  1  0
  3  7  1  0
  4  5  2  0
  5  6  1  0
  7  8  1  0
  7  9  2  0
  2 10  1  0
  4 11  1  0
  5 12  1  0
  6 13  1  0
M  CHG  1   8  -1
M  END
>  <mol_id>  (75) 
2026-09-18-3war-s0-n100-r6-0075

>  <rmsd_to_ref>  (75) 
3.85204081632706

>  <pose_kind>  (75) 
rigid

$$$$
3war.A
     RDKit          3D

 13 13  0  0  0  0  0  0  0  0999 V2000
    3.1789   19.4609   37.6719 N   0  0  0  0  0  0  0  0  0  0  0  0
    1.8380   19.4794   37.8312 C   0  0  0  0  0  0  0  0  0  0  0  0
    0.9877   19.9659   36.8564 C   0  0  0  0  0  0  0  0  0  0  0  0
    1.5361   20.4445   35.6895 C   0  0  0  0  0  0  0  0  0  0  0  0
    2.9113   20.4297   35.5167 C   0  0  0  0  0  0  0  0  0  0  0  0
    3.7320   19.9278   36.5309 C   0  0  0  0  0  0  0  0  0  0  0  0
   -0.4499   19.9704   37.0620 C   0  0  0  0  0  0  0  0  0  0  0  0
   -0.9714   19.4773   38.2577 O   0  0  0  0  0  0  0  0  0  0  0  0
   -1.1936   20.4229   36.1483 O   0  0  0  0  0  0  0  0  0  0  0  0
    1.4337   19.0967   38.7591 H   0  0  0  0  0  0  0  0  0  0  0  0
    0.8761   20.8296   34.9160 H   0  0  0  0  0  0  0  0  0  0  0  0
    3.3295   20.8114   34.5888 H   0  0  0  0  0  0  0  0  0  0  0  0
    4.8115   19.9205   36.3854 H   0  0  0  0  0  0  0  0  0  0  0  0
  1  2  1  0
  1  6  2  0
  2  3  2  0
  3  4  1  0
  3  7  1  0
  4  5  2  0
  5  6  1  0
  7  8  1  0
  7  9  2  0
  2 10  1  0
  4 11  1  0
  5 12  1  0
  6 13  1  0
M  CHG  1   8  -1
M  END
>  <mol_id>  (76) 
2026-09-18-3war-s0-n100-r6-0076

>  <rmsd_to_ref>  (76) 
3.8979591836762553

>  <pose_kind>  (76) 
conformer

$$$$
3war.A
     RDKit          3D

 13 13  0  0  0  0  0  0  0  0999 V2000
    1.9786   22.3693   40.7777 N   0  0  0  0  0  0  0  0  0  0  0  0
    2.1182   21.2427   41.6236 C   0  0  0  0  0  0  0  0  0  0  0  0
    2.1662   19.9482   40.9902 C   0  0  0  0  0  0  0  0  0  0  0  0
    2.0515   19.8277   39.6167 C   0  0  0  0  0  0  0  0  0  0  0  0
    1.9441   20.9538   38.8304 C   0  0  0  0  0  0  0  0  0  0  0  0
    1.8778   22.1957   39.4212 C   0  0  0  0  0  0  0  0  0  0  0  0
    2.2186   18.6898   41.8436 C   0  0  0  0  0  0  0  0  0  0  0  0
    2.4784   18.8093   43.0769 O   0  0  0  0  0  0  0  0  0  0  0  0
    1.9899   17.6611   41.2447 O   0  0  0  0  0  0  0  0  0  0  0  0
    2.1870   21.3502   42.7162 H   0  0  0  0  0  0  0  0  0  0  0  0
    2.0461   18.8308   39.1516 H   0  0  0  0  0  0  0  0  0  0  0  0
    1.9116   20.8612   37.7348 H   0  0  0  0  0  0  0  0  0  0  0  0
    1.7388   23.0802   38.7823 H   0  0  0  0  0  0  0  0  0  0  0  0
  1  2  1  0
  1  6  2  0
  2  3  2  0
  3  4  1  0
  3  7  1  0
  4  5  2  0
  5  6  1  0
  7  8  1  0
  7  9  2  0
  2 10  1  0
  4 11  1  0
  5 12  1  0
  6 13  1  0
M  CHG  1   8  -1
M  END
>  <mol_id>  (77) 
2026-09-18-3war-s0-n100-r6-0077

>  <rmsd_to_ref>  (77) 
3.94387755102049

>  <pose_kind>  (77) 
rigid

$$$$
3war.A
     RDKit          3D

 13 13  0  0  0  0  0  0  0  0999 V2000
   -0.1891   18.0760   37.0593 N   0  0  0  0  0  0  0  0  0  0  0  0
    0.3283   19.0547   37.8392 C   0  0  0  0  0  0  0  0  0  0  0  0
    0.4981   18.8311   39.1909 C   0  0  0  0  0  0  0  0  0  0  0  0
    0.1539   17.6251   39.7882 C   0  0  0  0  0  0  0  0  0  0  0  0
   -0.3711   16.6478   38.9652 C   0  0  0  0  0  0  0  0  0  0  0  0
   -0.5439   16.8728   37.5949 C   0  0  0  0  0  0  0  0  0  0  0  0
    1.0650   19.9262   39.9993 C   0  0  0  0  0  0  0  0  0  0  0  0
    1.2684   19.7867   41.3604 O   0  0  0  0  0  0  0  0  0  0  0  0
    1.3869   21.0350   39.4792 O   0  0  0  0  0  0  0  0  0  0  0  0
    0.6132   20.0135   37.4241 H   0  0  0  0  0  0  0  0  0  0  0  0
    0.3073   17.5058   40.8429 H   0  0  0  0  0  0  0  0  0  0  0  0
   -0.6420   15.7130   39.4063 H   0  0  0  0  0  0  0  0  0  0  0  0
   -0.9578   16.1012   36.9479 H   0  0  0  0  0  0  0  0  0  0  0  0
  1  2  1  0
  1  6  2  0
  2  3  2  0
  3  4  1  0
  3  7  1  0
  4  5  2  0
  5  6  1  0
  7  8  1  0
  7  9  2  0
  2 10  1  0
  4 11  1  0
  5 12  1  0
  6 13  1  0
M  CHG  1   8  -1
M  END
>  <mol_id>  (78) 
2026-09-18-3war-s0-n100-r6-0078

>  <rmsd_to_ref>  (78) 
3.989795918367928

>  <pose_kind>  (78) 
conformer

$$$$
3war.A
     RDKit          3D

 13 13  0  0  0  0  0  0  0  0999 V2000
    3.9413   17.4581   35.5183 N   0  0  0  0  0  0  0  0  0  0  0  0
    4.1987   18.0289   36.7879 C   0  0  0  0  0  0  0  0  0  0  0  0
    3.3811   19.1496   37.1818 C   0  0  0  0  0  0  0  0  0  0  0  0
    2.4104   19.6504   36.3326 C   0  0  0  0  0  0  0  0  0  0  0  0
    2.1766   19.0461   35.1169 C   0  0  0  0  0  0  0  0  0  0  0  0
    2.9613   17.9873   34.7183 C   0  0  0  0  0  0  0  0  0  0  0  0
    3.6663   19.8712   38.4904 C   0  0  0  0  0  0  0  0  0  0  0  0
    4.4421   19.3199   39.3252 O   0  0  0  0  0  0  0  0  0  0  0  0
    3.1138   20.9436   38.6089 O   0  0  0  0  0  0  0  0  0  0  0  0
    4.9878   17.6349   37.4452 H   0  0  0  0  0  0  0  0  0  0  0  0
    1.8242   20.5328   36.6288 H   0  0  0  0  0  0  0  0  0  0  0  0
    1.3662   19.4081   34.4671 H   0  0  0  0  0  0  0  0  0  0  0  0
    2.7962   17.5502   33.7224 H   0  0  0  0  0  0  0  0  0  0  0  0
  1  2  1  0
  1  6  2  0
  2  3  2  0
  3  4  1  0
  3  7  1  0
  4  5  2  0
  5  6  1  0
  7  8  1  0
  7  9  2  0
  2 10  1  0
  4 11  1  0
  5 12  1  0
  6 13  1  0
M  CHG  1   8  -1
M  END
>  <mol_id>  (79) 
2026-09-18-3war-s0-n100-r6-0079

>  <rmsd_to_ref>  (79) 
4.035714285715991

>  <pose_kind>  (79) 
rigid

$$$$
3war.A
     RDKit          3D

 13 13  0  0  0  0  0  0  0  0999 V2000
    2.1603   18.8867   38.2230 N   0  0  0  0  0  0  0  0  0  0  0  0
    3.2090   18.8218   39.0805 C   0  0  0  0  0  0  0  0  0  0  0  0
    4.0790   17.7408   39.0241 C   0  0  0  0  0  0  0  0  0  0  0  0
    3.8643   16.7291   38.0824 C   0  0  0  0  0  0  0  0  0  0  0  0
    2.7891   16.8204   37.2217 C   0  0  0  0  0  0  0  0  0  0  0  0
    1.9467   17.9088   37.3074 C   0  0  0  0  0  0  0  0  0  0  0  0
    5.1790   17.7200   39.9589 C   0  0  0  0  0  0  0  0  0  0  0  0
    6.0538   16.6210   39.8932 O   0  0  0  0  0  0  0  0  0  0  0  0
    5.4095   18.6030   40.8182 O   0  0  0  0  0  0  0  0  0  0  0  0
    3.3651   19.5998   39.7970 H   0  0  0  0  0  0  0  0  0  0  0  0
    4.5343   15.8942   38.0371 H   0  0  0  0  0  0  0  0  0  0  0  0
    2.6482   16.0151   36.4978 H   0  0  0  0  0  0  0  0  0  0  0  0
    1.1209   17.9368   36.6149 H   0  0  0  0  0  0  0  0  0  0  0  0
  1  2  1  0
  1  6  2  0
  2  3  2  0
  3  4  1  0
  3  7  1  0
  4  5  2  0
  5  6  1  0
  7  8  1  0
  7  9  2  0
  2 10  1  0
  4 11  1  0
  5 12  1  0
  6 13  1  0
M  CHG  1   8  -1
M  END
>  <mol_id>  (80) 
2026-09-18-3war-s0-n100-r6-0080

>  <rmsd_to_ref>  (80) 
4.081632653061644

>  <pose_kind>  (80) 
conformer

$$$$
3war.A
     RDKit          3D

 13 13  0  0  0  0  0  0  0  0999 V2000
    1.0147   20.5921   36.0965 N   0  0  0  0  0  0  0  0  0  0  0  0
    0.9219   19.5850   37.0870 C   0  0  0  0  0  0  0  0  0  0  0  0
    1.9885   18.6160   37.1399 C   0  0  0  0  0  0  0  0  0  0  0  0
    3.0355   18.6661   36.2369 C   0  0  0  0  0  0  0  0  0  0  0  0
    3.0983   19.6803   35.3066 C   0  0  0  0  0  0  0  0  0  0  0  0
    2.0782   20.6019   35.2309 C   0  0  0  0  0  0  0  0  0  0  0  0
    1.9053   17.4517   38.1156 C   0  0  0  0  0  0  0  0  0  0  0  0
    1.0354   17.4972   39.0342 O   0  0  0  0  0  0  0  0  0  0  0  0
    2.6983   16.5587   37.9082 O   0  0  0  0  0  0  0  0  0  0  0  0
    0.0733   19.5434   37.7857 H   0  0  0  0  0  0  0  0  0  0  0  0
    3.8193   17.8947   36.2617 H   0  0  0  0  0  0  0  0  0  0  0  0
    3.9601   19.7536   34.6270 H   0  0  0  0  0  0  0  0  0  0  0  0
    2.1177   21.3737   34.4481 H   0  0  0  0  0  0  0  0  0  0  0  0
  1  2  1  0
  1  6  2  0
  2  3  2  0
  3  4  1  0
  3  7  1  0
  4  5  2  0
  5  6  1  0
  7  8  1  0
  7  9  2  0
  2 10  1  0
  4 11  1  0
  5 12  1  0
  6 13  1  0
M  CHG  1   8  -1
M  END
>  <mol_id>  (81) 
2026-09-18-3war-s0-n100-r6-0081

>  <rmsd_to_ref>  (81) 
4.1275510204107375

>  <pose_kind>  (81) 
rigid

$$$$
3war.A
     RDKit          3D

 13 13  0  0  0  0  0  0  0  0999 V2000
    5.7985   20.4277   36.6078 N   0  0  0  0  0  0  0  0  0  0  0  0
    4.6956   20.0026   37.2727 C   0  0  0  0  0  0  0  0  0  0  0  0
    4.2044   20.7458   38.3380 C   0  0  0  0  0  0  0  0  0  0  0  0
    4.8531   21.9264   38.7146 C   0  0  0  0  0  0  0  0  0  0  0  0
    5.9737   22.3359   38.0205 C   0  0  0  0  0  0  0  0  0  0  0  0
    6.4322   21.5718   36.9680 C   0  0  0  0  0  0  0  0  0  0  0  0
    3.0280   20.2495   39.0118 C   0  0  0  0  0  0  0  0  0  0  0  0
    2.5391   21.0096   40.0891 O   0  0  0  0  0  0  0  0  0  0  0  0
    2.4153   19.1986   38.7092 O   0  0  0  0  0  0  0  0  0  0  0  0
    4.2064   19.0989   36.9777 H   0  0  0  0  0  0  0  0  0  0  0  0
    4.4759   22.5014   39.5363 H   0  0  0  0  0  0  0  0  0  0  0  0
    6.4579   23.2616   38.3383 H   0  0  0  0  0  0  0  0  0  0  0  0
    7.3102   21.9312   36.4560 H   0  0  0  0  0  0  0  0  0  0  0  0
  1  2  1  0
  1  6  2  0
  2  3  2  0
  3  4  1  0
  3  7  1  0
  4  5  2  0
  5  6  1  0
  7  8  1  0
  7  9  2  0
  2 10  1  0
  4 11  1  0
  5 12  1  0
  6 13  1  0
M  CHG  1   8  -1
M  END
>  <mol_id>  (82) 
2026-09-18-3war-s0-n100-r6-0082

>  <rmsd_to_ref>  (82) 
4.17346938775524

>  <pose_kind>  (82) 
conformer

$$$$
3war.A
     RDKit          3D

 13 13  0  0  0  0  0  0  0  0999 V2000
    2.5899   20.2892   40.2658 N   0  0  0  0  0  0  0  0  0  0  0  0
    1.6992   19.2491   40.6248 C   0  0  0  0  0  0  0  0  0  0  0  0
    2.2837   17.9910   41.0184 C   0  0  0  0  0  0  0  0  0  0  0  0
    3.6561   17.8159   41.0133 C   0  0  0  0  0  0  0  0  0  0  0  0
    4.4857   18.8647   40.6822 C   0  0  0  0  0  0  0  0  0  0  0  0
    3.9428   20.0663   40.2858 C   0  0  0  0  0  0  0  0  0  0  0  0
    1.3851   16.8020   41.3242 C   0  0  0  0  0  0  0  0  0  0  0  0
    0.1456   17.0082   41.4781 O   0  0  0  0  0  0  0  0  0  0  0  0
    1.9581   15.7356   41.3838 O   0  0  0  0  0  0  0  0  0  0  0  0
    0.6090   19.3942   40.6043 H   0  0  0  0  0  0  0  0  0  0  0  0
    4.0857   16.8374   41.2741 H   0  0  0  0  0  0  0  0  0  0  0  0
    5.5777   18.7427   40.7344 H   0  0  0  0  0  0  0  0  0  0  0  0
    4.6184   20.8764   39.9741 H   0  0  0  0  0  0  0  0  0  0  0  0
  1  2  1  0
  1  6  2  0
  2  3  2  0
  3  4  1  0
  3  7  1  0
  4  5  2  0
  5  6  1  0
  7  8  1  0
  7  9  2  0
  2 10  1  0
  4 11  1  0
  5 12  1  0
  6 13  1  0
M  CHG  1   8  -1
M  END
>  <mol_id>  (83) 
2026-09-18-3war-s0-n100-r6-0083

>  <rmsd_to_ref>  (83) 
4.219387755103637

>  <pose_kind>  (83) 
rigid

$$$$
3war.A
     RDKit          3D

 13 13  0  0  0  0  0  0  0  0999 V2000
    2.4352   19.4065   38.9193 N   0  0  0  0  0  0  0  0  0  0  0  0
    3.0969   19.1682   40.0854 C   0  0  0  0  0  0  0  0  0  0  0  0
    4.0672   18.1898   40.1580 C   0  0  0  0  0  0  0  0  0  0  0  0
    4.4077   17.4166   39.0649 C   0  0  0  0  0  0  0  0  0  0  0  0
    3.7088   17.6903   37.8905 C   0  0  0  0  0  0  0  0  0  0  0  0
    2.7394   18.6689   37.8207 C   0  0  0  0  0  0  0  0  0  0  0  0
    4.7722   17.9410   41.4139 C   0  0  0  0  0  0  0  0  0  0  0  0
    4.4461   18.7141   42.5458 O   0  0  0  0  0  0  0  0  0  0  0  0
    5.6531   17.0431   41.4549 O   0  0  0  0  0  0  0  0  0  0  0  0
    2.8961   19.7208   40.9819 H   0  0  0  0  0  0  0  0  0  0  0  0
    5.1695   16.6452   39.1134 H   0  0  0  0  0  0  0  0  0  0  0  0
    3.9567   17.1038   37.0331 H   0  0  0  0  0  0  0  0  0  0  0  0
    2.1874   18.8946   36.9178 H   0  0  0  0  0  0  0  0  0  0  0  0
  1  2  1  0
  1  6  2  0
  2  3  2  0
  3  4  1  0
  3  7  1  0
  4  5  2  0
  5  6  1  0
  7  8  1  0
  7  9  2  0
  2 10  1  0
  4 11  1  0
  5 12  1  0
  6 13  1  0
M  CHG  1   8  -1
M  END
>  <mol_id>  (84) 
2026-09-18-3war-s0-n100-r6-0084

>  <rmsd_to_ref>  (84) 
4.265306122450069

>  <pose_kind>  (84) 
conformer

$$$$
3war.A
     RDKit          3D

 13 13  0  0  0  0  0  0  0  0999 V2000
    5.9772   19.8115   39.0816 N   0  0  0  0  0  0  0  0  0  0  0  0
    5.3634   20.7424   39.9537 C   0  0  0  0  0  0  0  0  0  0  0  0
    4.0784   20.3817   40.4998 C   0  0  0  0  0  0  0  0  0  0  0  0
    3.4729   19.1866   40.1545 C   0  0  0  0  0  0  0  0  0  0  0  0
    4.1196   18.2989   39.3229 C   0  0  0  0  0  0  0  0  0  0  0  0
    5.3382   18.6367   38.7782 C   0  0  0  0  0  0  0  0  0  0  0  0
    3.3192   21.3749   41.3670 C   0  0  0  0  0  0  0  0  0  0  0  0
    3.9380   22.3898   41.8024 O   0  0  0  0  0  0  0  0  0  0  0  0
    2.1549   21.0959   41.5564 O   0  0  0  0  0  0  0  0  0  0  0  0
    5.8455   21.6989   40.2039 H   0  0  0  0  0  0  0  0  0  0  0  0
    2.4733   18.9448   40.5448 H   0  0  0  0  0  0  0  0  0  0  0  0
    3.6642   17.3239   39.0949 H   0  0  0  0  0  0  0  0  0  0  0  0
    5.8162   17.9394   38.0745 H   0  0  0  0  0  0  0  0  0  0  0  0
  1  2  1  0
  1  6  2  0
  2  3  2  0
  3  4  1  0
  3  7  1  0
  4  5  2  0
  5  6  1  0
  7  8  1  0
  7  9  2  0
  2 10  1  0
  4 11  1  0
  5 12  1  0
  6 13  1  0
M  CHG  1   8  -1
M  END
>  <mol_id>  (85) 
2026-09-18-3war-s0-n100-r6-0085

>  <rmsd_to_ref>  (85) 
4.311224489796484

>  <pose_kind>  (85) 
rigid

$$$$
3war.A
     RDKit          3D

 13 13  0  0  0  0  0  0  0  0999 V2000
    4.1029   21.9238   36.4516 N   0  0  0  0  0  0  0  0  0  0  0  0
    2.9208   21.9368   37.1320 C   0  0  0  0  0  0  0  0  0  0  0  0
    2.8790   22.0531   38.5038 C   0  0  0  0  0  0  0  0  0  0  0  0
    4.0722   22.1584   39.1953 C   0  0  0  0  0  0  0  0  0  0  0  0
    5.2793   22.1454   38.5042 C   0  0  0  0  0  0  0  0  0  0  0  0
    5.2864   22.0272   37.1252 C   0  0  0  0  0  0  0  0  0  0  0  0
    1.5859   22.0614   39.1791 C   0  0  0  0  0  0  0  0  0  0  0  0
    1.5467   22.1786   40.5597 O   0  0  0  0  0  0  0  0  0  0  0  0
    0.5005   21.9655   38.5489 O   0  0  0  0  0  0  0  0  0  0  0  0
    1.9787   21.8555   36.6070 H   0  0  0  0  0  0  0  0  0  0  0  0
    4.0613   22.2514   40.2834 H   0  0  0  0  0  0  0  0  0  0  0  0
    6.2137   22.2274   39.0400 H   0  0  0  0  0  0  0  0  0  0  0  0
    6.1947   22.0131   36.5548 H   0  0  0  0  0  0  0  0  0  0  0  0
  1  2  1  0
  1  6  2  0
  2  3  2  0
  3  4  1  0
  3  7  1  0
  4  5  2  0
  5  6  1  0
  7  8  1  0
  7  9  2  0
  2 10  1  0
  4 11  1  0
  5 12  1  0
  6 13  1  0
M  CHG  1   8  -1
M  END
>  <mol_id>  (86) 
2026-09-18-3war-s0-n100-r6-0086

>  <rmsd_to_ref>  (86) 
4.3571428571449795

>  <pose_kind>  (86) 
conformer

$$$$
3war.A
     RDKit          3D

 13 13  0  0  0  0  0  0  0  0999 V2000
    2.8307   21.2654   36.1031 N   0  0  0  0  0  0  0  0  0  0  0  0
    2.1392   20.7920   37.2440 C   0  0  0  0  0  0  0  0  0  0  0  0
    0.7845   21.2509   37.4278 C   0  0  0  0  0  0  0  0  0  0  0  0
    0.2100   22.1369   36.5339 C   0  0  0  0  0  0  0  0  0  0  0  0
    0.9116   22.5503   35.4227 C   0  0  0  0  0  0  0  0  0  0  0  0
    2.2124   22.1362   35.2430 C   0  0  0  0  0  0  0  0  0  0  0  0
    0.0163   20.8584   38.6810 C   0  0  0  0  0  0  0  0  0  0  0  0
    0.4834   19.9336   39.4085 O   0  0  0  0  0  0  0  0  0  0  0  0
   -0.9967   21.4952   38.8748 O   0  0  0  0  0  0  0  0  0  0  0  0
    2.6143   20.1042   37.9590 H   0  0  0  0  0  0  0  0  0  0  0  0
   -0.8088   22.5119   36.7108 H   0  0  0  0  0  0  0  0  0  0  0  0
    0.4344   23.2086   34.6818 H   0  0  0  0  0  0  0  0  0  0  0  0
    2.7758   22.5176   34.3786 H   0  0  0  0  0  0  0  0  0  0  0  0
  1  2  1  0
  1  6  2  0
  2  3  2  0
  3  4  1  0
  3  7  1  0
  4  5  2  0
  5  6  1  0
  7  8  1  0
  7  9  2  0
  2 10  1  0
  4 11  1  0
  5 12  1  0
  6 13  1  0
M  CHG  1   8  -1
M  END
>  <mol_id>  (87) 
2026-09-18-3war-s0-n100-r6-0087

>  <rmsd_to_ref>  (87) 
4.4030612244920215

>  <pose_kind>  (87) 
rigid

$$$$
3war.A
     RDKit          3D

 13 13  0  0  0  0  0  0  0  0999 V2000
    4.3978   18.4074   36.2002 N   0  0  0  0  0  0  0  0  0  0  0  0
    3.4126   19.0996   36.8443 C   0  0  0  0  0  0  0  0  0  0  0  0
    2.4761   19.7631   36.0651 C   0  0  0  0  0  0  0  0  0  0  0  0
    2.5061   19.7474   34.6862 C   0  0  0  0  0  0  0  0  0  0  0  0
    3.5184   19.0360   34.0732 C   0  0  0  0  0  0  0  0  0  0  0  0
    4.4507   18.3754   34.8492 C   0  0  0  0  0  0  0  0  0  0  0  0
    1.4333   20.4957   36.7606 C   0  0  0  0  0  0  0  0  0  0  0  0
    0.4543   21.1891   36.0229 O   0  0  0  0  0  0  0  0  0  0  0  0
    1.3579   20.5438   38.0328 O   0  0  0  0  0  0  0  0  0  0  0  0
    3.3592   19.1329   37.9274 H   0  0  0  0  0  0  0  0  0  0  0  0
    1.7782   20.2632   34.0760 H   0  0  0  0  0  0  0  0  0  0  0  0
    3.5343   19.0291   33.0005 H   0  0  0  0  0  0  0  0  0  0  0  0
    5.2562   17.8094   34.3535 H   0  0  0  0  0  0  0  0  0  0  0  0
  1  2  1  0
  1  6  2  0
  2  3  2  0
  3  4  1  0
  3  7  1  0
  4  5  2  0
  5  6  1  0
  7  8  1  0
  7  9  2  0
  2 10  1  0
  4 11  1  0
  5 12  1  0
  6 13  1  0
M  CHG  1   8  -1
M  END
>  <mol_id>  (88) 
2026-09-18-3war-s0-n100-r6-0088

>  <rmsd_to_ref>  (88) 
4.448979591837831

>  <pose_kind>  (88) 
conformer

$$$$
3war.A
     RDKit          3D

 13 13  0  0  0  0  0  0  0  0999 V2000
    5.4147   21.4659   36.4736 N   0  0  0  0  0  0  0  0  0  0  0  0
    4.2653   20.7965   36.9583 C   0  0  0  0  0  0  0  0  0  0  0  0
    4.4452   19.4503   37.4427 C   0  0  0  0  0  0  0  0  0  0  0  0
    5.6881   18.8439   37.4028 C   0  0  0  0  0  0  0  0  0  0  0  0
    6.7842   19.5432   36.9474 C   0  0  0  0  0  0  0  0  0  0  0  0
    6.6256   20.8226   36.4638 C   0  0  0  0  0  0  0  0  0  0  0  0
    3.2377   18.6389   37.8883 C   0  0  0  0  0  0  0  0  0  0  0  0
    2.1399   19.2430   38.0685 O   0  0  0  0  0  0  0  0  0  0  0  0
    3.4460   17.4525   38.0234 O   0  0  0  0  0  0  0  0  0  0  0  0
    3.2783   21.2820   36.9651 H   0  0  0  0  0  0  0  0  0  0  0  0
    5.8013   17.8015   37.7354 H   0  0  0  0  0  0  0  0  0  0  0  0
    7.7823   19.0813   36.9700 H   0  0  0  0  0  0  0  0  0  0  0  0
    7.5016   21.3474   36.0550 H   0  0  0  0  0  0  0  0  0  0  0  0
  1  2  1  0
  1  6  2  0
  2  3  2  0
  3  4  1  0
  3  7  1  0
  4  5  2  0
  5  6  1  0
  7  8  1  0
  7  9  2  0
  2 10  1  0
  4 11  1  0
  5 12  1  0
  6 13  1  0
M  CHG  1   8  -1
M  END
>  <mol_id>  (89) 
2026-09-18-3war-s0-n100-r6-0089

>  <rmsd_to_ref>  (89) 
4.494897959184218

>  <pose_kind>  (89) 
rigid

$$$$
3war.A
     RDKit          3D

 13 13  0  0  0  0  0  0  0  0999 V2000
    5.5979   19.4420   36.1121 N   0  0  0  0  0  0  0  0  0  0  0  0
    4.8979   19.7530   37.2360 C   0  0  0  0  0  0  0  0  0  0  0  0
    4.2539   20.9646   37.3273 C   0  0  0  0  0  0  0  0  0  0  0  0
    4.3029   21.8784   36.2957 C   0  0  0  0  0  0  0  0  0  0  0  0
    5.0245   21.5193   35.1763 C   0  0  0  0  0  0  0  0  0  0  0  0
    5.6787   20.2964   35.0755 C   0  0  0  0  0  0  0  0  0  0  0  0
    3.4928   21.3333   38.5182 C   0  0  0  0  0  0  0  0  0  0  0  0
    3.4017   20.4504   39.6050 O   0  0  0  0  0  0  0  0  0  0  0  0
    2.9226   22.4546   38.5496 O   0  0  0  0  0  0  0  0  0  0  0  0
    4.8582   19.0448   38.0392 H   0  0  0  0  0  0  0  0  0  0  0  0
    3.8274   22.8346   36.3003 H   0  0  0  0  0  0  0  0  0  0  0  0
    5.0858   22.2099   34.3467 H   0  0  0  0  0  0  0  0  0  0  0  0
    6.2274   20.0791   34.1674 H   0  0  0  0  0  0  0  0  0  0  0  0
  1  2  1  0
  1  6  2  0
  2  3  2  0
  3  4  1  0
  3  7  1  0
  4  5  2  0
  5  6  1  0
  7  8  1  0
  7  9  2  0
  2 10  1  0
  4 11  1  0
  5 12  1  0
  6 13  1  0
M  CHG  1   8  -1
M  END
>  <mol_id>  (90) 
2026-09-18-3war-s0-n100-r6-0090

>  <rmsd_to_ref>  (90) 
4.540816326530828

>  <pose_kind>  (90) 
conformer

$$$$
3war.A
     RDKit          3D

 13 13  0  0  0  0  0  0  0  0999 V2000
    3.2011   17.9515   38.7346 N   0  0  0  0  0  0  0  0  0  0  0  0
    2.2394   18.1357   39.7569 C   0  0  0  0  0  0  0  0  0  0  0  0
    2.7244   18.1803   41.1142 C   0  0  0  0  0  0  0  0  0  0  0  0
    4.0707   18.0205   41.3901 C   0  0  0  0  0  0  0  0  0  0  0  0
    4.9744   17.8704   40.3612 C   0  0  0  0  0  0  0  0  0  0  0  0
    4.5250   17.8067   39.0612 C   0  0  0  0  0  0  0  0  0  0  0  0
    1.7372   18.2796   42.2675 C   0  0  0  0  0  0  0  0  0  0  0  0
    0.5353   18.5797   42.0069 O   0  0  0  0  0  0  0  0  0  0  0  0
    2.2082   18.0451   43.3595 O   0  0  0  0  0  0  0  0  0  0  0  0
    1.1690   18.2403   39.5261 H   0  0  0  0  0  0  0  0  0  0  0  0
    4.4202   18.0133   42.4331 H   0  0  0  0  0  0  0  0  0  0  0  0
    6.0507   17.8017   40.5772 H   0  0  0  0  0  0  0  0  0  0  0  0
    5.2540   17.6335   38.2560 H   0  0  0  0  0  0  0  0  0  0  0  0
  1  2  1  0
  1  6  2  0
  2  3  2  0
  3  4  1  0
  3  7  1  0
  4  5  2  0
  5  6  1  0
  7  8  1  0
  7  9  2  0
  2 10  1  0
  4 11  1  0
  5 12  1  0
  6 13  1  0
M  CHG  1   8  -1
M  END
>  <mol_id>  (91) 
2026-09-18-3war-s0-n100-r6-0091

>  <rmsd_to_ref>  (91) 
4.586734693878775

>  <pose_kind>  (91) 
rigid

$$$$
3war.A
     RDKit          3D

 13 13  0  0  0  0  0  0  0  0999 V2000
    3.2217   22.1888   35.1019 N   0  0  0  0  0  0  0  0  0  0  0  0
    3.1678   22.6932   36.3689 C   0  0  0  0  0  0  0  0  0  0  0  0
    3.1801   21.8380   37.4520 C   0  0  0  0  0  0  0  0  0  0  0  0
    3.2464   20.4559   37.3113 C   0  0  0  0  0  0  0  0  0  0  0  0
    3.3002   19.9792   35.9958 C   0  0  0  0  0  0  0  0  0  0  0  0
    3.2876   20.8381   34.9137 C   0  0  0  0  0  0  0  0  0  0  0  0
    3.1203   22.4276   38.8044 C   0  0  0  0  0  0  0  0  0  0  0  0
    3.1312   21.5870   39.9176 O   0  0  0  0  0  0  0  0  0  0  0  0
    3.0597   23.6489   39.0133 O   0  0  0  0  0  0  0  0  0  0  0  0
    3.1148   23.7576   36.5600 H   0  0  0  0  0  0  0  0  0  0  0  0
    3.2553   19.8015   38.1604 H   0  0  0  0  0  0  0  0  0  0  0  0
    3.3535   18.9036   35.8133 H   0  0  0  0  0  0  0  0  0  0  0  0
    3.3296   20.4681   33.8867 H   0  0  0  0  0  0  0  0  0  0  0  0
  1  2  1  0
  1  6  2  0
  2  3  2  0
  3  4  1  0
  3  7  1  0
  4  5  2  0
  5  6  1  0
  7  8  1  0
  7  9  2  0
  2 10  1  0
  4 11  1  0
  5 12  1  0
  6 13  1  0
M  CHG  1   8  -1
M  END
>  <mol_id>  (92) 
2026-09-18-3war-s0-n100-r6-0092

>  <rmsd_to_ref>  (92) 
4.63265306122669

>  <pose_kind>  (92) 
conformer

$$$$
3war.A
     RDKit          3D

 13 13  0  0  0  0  0  0  0  0999 V2000
    6.0517   18.3764   36.6371 N   0  0  0  0  0  0  0  0  0  0  0  0
    5.0598   18.7589   37.5719 C   0  0  0  0  0  0  0  0  0  0  0  0
    3.8002   18.0592   37.5158 C   0  0  0  0  0  0  0  0  0  0  0  0
    3.5771   17.0786   36.5657 C   0  0  0  0  0  0  0  0  0  0  0  0
    4.5810   16.7204   35.6929 C   0  0  0  0  0  0  0  0  0  0  0  0
    5.7826   17.3919   35.7212 C   0  0  0  0  0  0  0  0  0  0  0  0
    2.6577   18.4837   38.4264 C   0  0  0  0  0  0  0  0  0  0  0  0
    2.9136   19.2656   39.3886 O   0  0  0  0  0  0  0  0  0  0  0  0
    1.5754   18.0262   38.1288 O   0  0  0  0  0  0  0  0  0  0  0  0
    5.2420   19.5550   38.3089 H   0  0  0  0  0  0  0  0  0  0  0  0
    2.5963   16.5840   36.5071 H   0  0  0  0  0  0  0  0  0  0  0  0
    4.4232   15.9010   34.9761 H   0  0  0  0  0  0  0  0  0  0  0  0
    6.5545   17.1294   34.9827 H   0  0  0  0  0  0  0  0  0  0  0  0
  1  2  1  0
  1  6  2  0
  2  3  2  0
  3  4  1  0
  3  7  1  0
  4  5  2  0
  5  6  1  0
  7  8  1  0
  7  9  2  0
  2 10  1  0
  4 11  1  0
  5 12  1  0
  6 13  1  0
M  CHG  1   8  -1
M  END
>  <mol_id>  (93) 
2026-09-18-3war-s0-n100-r6-0093

>  <rmsd_to_ref>  (93) 
4.6785714285715345

>  <pose_kind>  (93) 
rigid

$$$$
3war.A
     RDKit          3D

 13 13  0  0  0  0  0  0  0  0999 V2000
    0.6191   19.7281   38.7039 N   0  0  0  0  0  0  0  0  0  0  0  0
    0.1403   20.0852   39.9188 C   0  0  0  0  0  0  0  0  0  0  0  0
    0.2486   19.1887   40.9552 C   0  0  0  0  0  0  0  0  0  0  0  0
    0.8328   17.9355   40.7874 C   0  0  0  0  0  0  0  0  0  0  0  0
    1.2953   17.6495   39.5188 C   0  0  0  0  0  0  0  0  0  0  0  0
    1.1996   18.5300   38.4611 C   0  0  0  0  0  0  0  0  0  0  0  0
   -0.2558   19.5355   42.2824 C   0  0  0  0  0  0  0  0  0  0  0  0
   -0.8473   20.7776   42.4956 O   0  0  0  0  0  0  0  0  0  0  0  0
   -0.1523   18.7081   43.2259 O   0  0  0  0  0  0  0  0  0  0  0  0
   -0.3236   21.0607   40.0837 H   0  0  0  0  0  0  0  0  0  0  0  0
    0.9059   17.2492   41.6175 H   0  0  0  0  0  0  0  0  0  0  0  0
    1.7589   16.6708   39.3601 H   0  0  0  0  0  0  0  0  0  0  0  0
    1.5760   18.2626   37.4844 H   0  0  0  0  0  0  0  0  0  0  0  0
  1  2  1  0
  1  6  2  0
  2  3  2  0
  3  4  1  0
  3  7  1  0
  4  5  2  0
  5  6  1  0
  7  8  1  0
  7  9  2  0
  2 10  1  0
  4 11  1  0
  5 12  1  0
  6 13  1  0
M  CHG  1   8  -1
M  END
>  <mol_id>  (94) 
2026-09-18-3war-s0-n100-r6-0094

>  <rmsd_to_ref>  (94) 
4.724489795919996

>  <pose_kind>  (94) 
conformer

$$$$
3war.A
     RDKit          3D

 13 13  0  0  0  0  0  0  0  0999 V2000
    1.8649   20.9440   35.7223 N   0  0  0  0  0  0  0  0  0  0  0  0
    1.2621   21.1864   36.9800 C   0  0  0  0  0  0  0  0  0  0  0  0
    0.0980   20.4028   37.3119 C   0  0  0  0  0  0  0  0  0  0  0  0
   -0.4113   19.4782   36.4175 C   0  0  0  0  0  0  0  0  0  0  0  0
    0.2241   19.2565   35.2154 C   0  0  0  0  0  0  0  0  0  0  0  0
    1.3254   20.0099   34.8757 C   0  0  0  0  0  0  0  0  0  0  0  0
   -0.6557   20.6778   38.6046 C   0  0  0  0  0  0  0  0  0  0  0  0
   -0.1031   21.4061   39.4803 O   0  0  0  0  0  0  0  0  0  0  0  0
   -1.7521   20.1651   38.6711 O   0  0  0  0  0  0  0  0  0  0  0  0
    1.6641   21.9395   37.6737 H   0  0  0  0  0  0  0  0  0  0  0  0
   -1.3252   18.9191   36.6667 H   0  0  0  0  0  0  0  0  0  0  0  0
   -0.1469   18.4806   34.5296 H   0  0  0  0  0  0  0  0  0  0  0  0
    1.7890   19.8570   33.8900 H   0  0  0  0  0  0  0  0  0  0  0  0
  1  2  1  0
  1  6  2  0
  2  3  2  0
  3  4  1  0
  3  7  1  0
  4  5  2  0
  5  6  1  0
  7  8  1  0
  7  9  2  0
  2 10  1  0
  4 11  1  0
  5 12  1  0
  6 13  1  0
M  CHG  1   8  -1
M  END
>  <mol_id>  (95) 
2026-09-18-3war-s0-n100-r6-0095

>  <rmsd_to_ref>  (95) 
4.770408163266304

>  <pose_kind>  (95) 
rigid

$$$$
3war.A
     RDKit          3D

 13 13  0  0  0  0  0  0  0  0999 V2000
    0.6990   17.8772   35.5355 N   0  0  0  0  0  0  0  0  0  0  0  0
    0.1634   17.9674   36.7790 C   0  0  0  0  0  0  0  0  0  0  0  0
    0.8533   17.4734   37.8845 C   0  0  0  0  0  0  0  0  0  0  0  0
    2.0966   16.8858   37.7092 C   0  0  0  0  0  0  0  0  0  0  0  0
    2.6285   16.7990   36.4545 C   0  0  0  0  0  0  0  0  0  0  0  0
    1.9195   17.2981   35.3792 C   0  0  0  0  0  0  0  0  0  0  0  0
    0.2186   17.6036   39.1908 C   0  0  0  0  0  0  0  0  0  0  0  0
    0.9263   17.1018   40.2896 O   0  0  0  0  0  0  0  0  0  0  0  0
   -0.8904   18.1216   39.3913 O   0  0  0  0  0  0  0  0  0  0  0  0
   -0.8000   18.4212   36.9257 H   0  0  0  0  0  0  0  0  0  0  0  0
    2.5844   16.5213   38.5999 H   0  0  0  0  0  0  0  0  0  0  0  0
    3.5946   16.3422   36.3196 H   0  0  0  0  0  0  0  0  0  0  0  0
    2.3278   17.2375   34.3726 H   0  0  0  0  0  0  0  0  0  0  0  0
  1  2  1  0
  1  6  2  0
  2  3  2  0
  3  4  1  0
  3  7  1  0
  4  5  2  0
  5  6  1  0
  7  8  1  0
  7  9  2  0
  2 10  1  0
  4 11  1  0
  5 12  1  0
  6 13  1  0
M  CHG  1   8  -1
M  END
>  <mol_id>  (96) 
2026-09-18-3war-s0-n100-r6-0096

>  <rmsd_to_ref>  (96) 
4.816326530613589

>  <pose_kind>  (96) 
conformer

$$$$
