
     RDKit          3D

 61 64  0  0  0  0  0  0  0  0999 V2000
    2.1190   19.1710   40.4850 C   0  0  0  0  0  0  0  0  0  0  0  0
    1.7150   16.6310   41.1910 C   0  0  0  0  0  0  0  0  0  0  0  0
    3.5080   18.3880   37.2100 C   0  0  0  0  0  0  0  0  0  0  0  0
   -0.0340   12.5740   45.1610 C   0  0  0  0  0  0  0  0  0  0  0  0
    1.0360   17.6650   42.0280 C   0  0  0  0  0  0  0  0  0  0  0  0
    1.2590   18.8730   41.5990 C   0  0  0  0  0  0  0  0  0  0  0  0
   -0.2330   14.9040   44.4270 N   0  0  0  0  0  0  0  0  0  0  0  0
    4.2800   20.7040   35.2570 N   0  0  0  0  0  0  0  0  0  0  0  0
    0.7490   14.9390   43.6240 O   0  0  0  0  0  0  0  0  0  0  0  0
    2.0180   21.2680   38.1580 C   0  0  0  0  0  0  0  0  0  0  0  0
    3.3140   21.0490   36.0170 C   0  0  0  0  0  0  0  0  0  0  0  0
   -0.9370   13.5640   44.4060 C   0  0  0  0  0  0  0  0  0  0  0  0
    2.8000   20.6430   37.1220 C   0  0  0  0  0  0  0  0  0  0  0  0
   -0.2380   20.1280   42.9120 C   0  0  0  0  0  0  0  0  0  0  0  0
   -0.5970   19.0470   43.7500 C   0  0  0  0  0  0  0  0  0  0  0  0
   -0.5340   17.9130   46.7150 S   0  0  0  0  0  0  0  0  0  0  0  0
   -1.2620   16.3180   48.9080 C   0  0  0  0  0  0  0  0  0  0  0  0
   -0.0200   17.6540   43.6980 C   0  0  0  0  0  0  0  0  0  0  0  0
    2.5420   16.9330   40.2010 C   0  0  0  0  0  0  0  0  0  0  0  0
   -0.9220   15.4270   46.6110 N   0  0  0  0  0  0  0  0  0  0  0  0
    2.6520   21.9650   35.5720 N   0  0  0  0  0  0  0  0  0  0  0  0
   -1.1170   19.4630   44.8180 O   0  0  0  0  0  0  0  0  0  0  0  0
   -2.6300   15.7480   49.2170 C   0  0  0  0  0  0  0  0  0  0  0  0
    2.8080   18.2820   39.8210 C   0  0  0  0  0  0  0  0  0  0  0  0
   -0.5300   15.8460   45.4000 C   0  0  0  0  0  0  0  0  0  0  0  0
    2.9210   19.9830   38.3750 C   0  0  0  0  0  0  0  0  0  0  0  0
    3.1720   22.4000   34.5150 O   0  0  0  0  0  0  0  0  0  0  0  0
   -0.4130   17.1460   45.1650 N   0  0  0  0  0  0  0  0  0  0  0  0
   -0.9590   16.3810   47.5010 C   0  0  0  0  0  0  0  0  0  0  0  0
    0.6520   20.0080   42.0090 C   0  0  0  0  0  0  0  0  0  0  0  0
    4.2260   21.6550   34.2960 N   0  0  0  0  0  0  0  0  0  0  0  0
    3.2560   18.6830   38.4660 N   0  0  0  0  0  0  0  0  0  0  0  0
    2.2022   20.2217   40.1702 H   0  0  0  0  0  0  0  0  0  0  0  0
    1.5195   15.5702   41.4064 H   0  0  0  0  0  0  0  0  0  0  0  0
    4.2219   17.5523   37.1658 H   0  0  0  0  0  0  0  0  0  0  0  0
    2.5736   18.0991   36.7066 H   0  0  0  0  0  0  0  0  0  0  0  0
    3.9394   19.2658   36.7066 H   0  0  0  0  0  0  0  0  0  0  0  0
   -0.1618   12.7141   46.2445 H   0  0  0  0  0  0  0  0  0  0  0  0
   -0.3108   11.5447   44.8892 H   0  0  0  0  0  0  0  0  0  0  0  0
    1.0164   12.7552   44.8892 H   0  0  0  0  0  0  0  0  0  0  0  0
    0.4176   17.4318   42.9073 H   0  0  0  0  0  0  0  0  0  0  0  0
    1.5946   14.9691   44.1379 H   0  0  0  0  0  0  0  0  0  0  0  0
    0.9208   21.1895   38.1577 H   0  0  0  0  0  0  0  0  0  0  0  0
    1.9304   22.2706   38.6019 H   0  0  0  0  0  0  0  0  0  0  0  0
   -1.9139   13.6419   44.9056 H   0  0  0  0  0  0  0  0  0  0  0  0
   -1.1136   13.2278   43.3736 H   0  0  0  0  0  0  0  0  0  0  0  0
    2.8795   20.2482   36.0984 H   0  0  0  0  0  0  0  0  0  0  0  0
   -0.7405   21.0977   43.0435 H   0  0  0  0  0  0  0  0  0  0  0  0
   -1.2107   17.3370   49.3191 H   0  0  0  0  0  0  0  0  0  0  0  0
   -0.5242   15.6408   49.3630 H   0  0  0  0  0  0  0  0  0  0  0  0
   -0.4915   17.0442   42.9132 H   0  0  0  0  0  0  0  0  0  0  0  0
    1.0521   17.6015   43.4574 H   0  0  0  0  0  0  0  0  0  0  0  0
    3.0392   16.1178   39.6548 H   0  0  0  0  0  0  0  0  0  0  0  0
    1.7896   22.3316   35.9994 H   0  0  0  0  0  0  0  0  0  0  0  0
   -2.7659   15.6914   50.3071 H   0  0  0  0  0  0  0  0  0  0  0  0
   -3.4045   16.3983   48.7842 H   0  0  0  0  0  0  0  0  0  0  0  0
   -2.7136   14.7402   48.7842 H   0  0  0  0  0  0  0  0  0  0  0  0
   -1.5779   15.8607   45.0659 H   0  0  0  0  0  0  0  0  0  0  0  0
    3.3347   19.6683   39.3444 H   0  0  0  0  0  0  0  0  0  0  0  0
    0.9621   20.9352   41.5049 H   0  0  0  0  0  0  0  0  0  0  0  0
    4.8985   21.7726   33.5248 H   0  0  0  0  0  0  0  0  0  0  0  0
  1  6  2  0
  2  5  2  0
  3 32  1  0
  6 30  1  0
  6  5  1  0
  8 11  2  0
  9  7  1  0
 10 26  1  0
 12  7  1  0
 12  4  1  0
 13 11  1  0
 13 10  1  0
 13 26  1  0
 14 15  1  0
 15 22  2  0
 16 29  1  0
 17 23  1  0
 18 15  1  0
 18 28  1  0
 19  2  1  0
 20 29  2  0
 21 11  1  0
 24 19  2  0
 24  1  1  0
 25  7  1  0
 25 20  1  0
 26 32  1  0
 27 21  1  0
 28 25  1  0
 28 16  1  0
 29 17  1  0
 30 14  2  3
 31 27  1  0
 31  8  1  0
 32 24  1  0
  1 33  1  0
  2 34  1  0
  3 35  1  0
  3 36  1  0
  3 37  1  0
  4 38  1  0
  4 39  1  0
  4 40  1  0
  5 41  1  0
  9 42  1  0
 10 43  1  0
 10 44  1  0
 12 45  1  0
 12 46  1  0
 13 47  1  0
 14 48  1  0
 17 49  1  0
 17 50  1  0
 18 51  1  0
 18 52  1  0
 19 53  1  0
 21 54  1  0
 23 55  1  0
 23 56  1  0
 23 57  1  0
 25 58  1  0
 26 59  1  0
 30 60  1  0
 31 61  1  0
M  END
>  <mol_id>  (1) 
2026-08-23-6tgu-s0-n100-prep-0001

>  <rmsd_to_ref>  (1) 


$$$$

     RDKit          3D

 35 38  0  0  0  0  0  0  0  0999 V2000
   -0.5700   17.1240   44.8960 C   0  0  0  0  0  0  0  0  0  0  0  0
    0.3420   20.2300   41.7450 N   0  0  0  0  0  0  0  0  0  0  0  0
    1.8090   16.7560   41.1430 C   0  0  0  0  0  0  0  0  0  0  0  0
    1.0680   16.6130   42.4820 C   0  0  0  0  0  0  0  0  0  0  0  0
   -1.0370   15.9560   44.1270 N   0  0  0  0  0  4  0  0  0  0  0  0
    3.1600   16.4360   38.5570 O   0  0  0  0  0  0  0  0  0  0  0  0
    0.7260   21.0880   40.8670 C   0  0  0  0  0  0  0  0  0  0  0  0
    3.6780   18.3070   37.4040 C   0  0  0  0  0  0  0  0  0  0  0  0
    4.2510   17.3470   36.6330 N   0  0  0  0  0  0  0  0  0  0  0  0
    1.5320   21.0700   39.7750 C   0  0  0  0  0  0  0  0  0  0  0  0
    0.8590   18.9340   41.7630 C   0  0  0  0  0  0  0  0  0  0  0  0
    2.9930   17.7720   38.5550 C   0  0  0  0  0  0  0  0  0  0  0  0
    3.8710   16.2330   37.2870 C   0  0  0  0  0  0  0  0  0  0  0  0
   -0.6840   19.3870   44.2170 O   0  0  0  0  0  0  0  0  0  0  0  0
    2.2460   18.5810   39.4760 C   0  0  0  0  0  0  0  0  0  0  0  0
    2.9160   20.4550   37.8190 C   0  0  0  0  0  0  0  0  0  0  0  0
    3.6250   19.7070   37.0200 N   0  0  0  0  0  0  0  0  0  0  0  0
    2.2650   20.0530   39.0520 C   0  0  0  0  0  0  0  0  0  0  0  0
    1.6340   18.2380   40.7340 C   0  0  0  0  0  0  0  0  0  0  0  0
   -0.2400   18.3240   43.9620 C   0  0  0  0  0  0  0  0  0  0  0  0
    3.9620   14.8070   36.7760 C   0  0  0  0  0  0  0  0  0  0  0  0
    0.5370   18.0930   42.8140 C   0  0  0  0  0  0  0  0  0  0  0  0
   -1.3578   17.4260   45.6018 H   0  0  0  0  0  0  0  0  0  0  0  0
    0.3474   16.8407   45.4327 H   0  0  0  0  0  0  0  0  0  0  0  0
    2.3489   15.9715   40.5925 H   0  0  0  0  0  0  0  0  0  0  0  0
    0.9314   15.7001   43.0803 H   0  0  0  0  0  0  0  0  0  0  0  0
   -1.3338   15.2137   44.7765 H   0  0  0  0  0  0  0  0  0  0  0  0
   -1.8326   16.2314   43.5337 H   0  0  0  0  0  0  0  0  0  0  0  0
   -0.2708   15.6069   43.5337 H   0  0  0  0  0  0  0  0  0  0  0  0
    0.2939   22.0837   41.0454 H   0  0  0  0  0  0  0  0  0  0  0  0
    1.6585   22.0693   39.3331 H   0  0  0  0  0  0  0  0  0  0  0  0
    2.7983   21.5086   37.5255 H   0  0  0  0  0  0  0  0  0  0  0  0
    4.0062   14.1139   37.6291 H   0  0  0  0  0  0  0  0  0  0  0  0
    3.0765   14.5795   36.1643 H   0  0  0  0  0  0  0  0  0  0  0  0
    4.8692   14.6939   36.1643 H   0  0  0  0  0  0  0  0  0  0  0  0
  2 11  2  0
  3  4  1  0
  4 22  2  0
  5  1  1  0
  7  2  1  0
  8 12  1  0
  9 13  2  0
  9  8  1  0
 10  7  2  0
 11 22  1  0
 12  6  1  0
 12 15  2  0
 13  6  1  0
 15 19  1  0
 16 18  2  0
 17  8  2  0
 17 16  1  0
 18 15  1  0
 18 10  1  0
 19  3  2  0
 19 11  1  0
 20 14  2  0
 20  1  1  0
 21 13  1  0
 22 20  1  0
  1 23  1  0
  1 24  1  0
  3 25  1  0
  4 26  1  0
  5 27  1  0
  5 28  1  0
  5 29  1  0
  7 30  1  0
 10 31  1  0
 16 32  1  0
 21 33  1  0
 21 34  1  0
 21 35  1  0
M  CHG  1   5   1
M  END
>  <mol_id>  (2) 
2026-08-23-6tgu-s0-n100-prep-0002

>  <rmsd_to_ref>  (2) 


$$$$

     RDKit          3D

 35 38  0  0  0  0  0  0  0  0999 V2000
    3.3620   20.1480   37.3300 C   0  0  0  0  0  0  0  0  0  0  0  0
   -0.3390   18.8140   43.7840 C   0  0  0  0  0  0  0  0  0  0  0  0
   -1.0090   19.9460   43.7870 N   0  0  0  0  0  0  0  0  0  0  0  0
    3.0080   17.5180   39.0160 C   0  0  0  0  0  0  0  0  0  0  0  0
    2.0510   19.7180   39.4990 C   0  0  0  0  0  0  0  0  0  0  0  0
    3.9570   18.0290   37.9520 C   0  0  0  0  0  0  0  0  0  0  0  0
    1.7180   16.6380   40.9350 N   0  0  0  0  0  0  0  0  0  0  0  0
    1.9560   20.9520   39.2650 C   0  0  0  0  0  0  0  0  0  0  0  0
    1.7760   14.0370   41.5930 Cl  0  0  0  0  0  0  0  0  0  0  0  0
    3.4460   16.1070   38.6920 C   0  0  0  0  0  0  0  0  0  0  0  0
    2.2290   15.3970   40.6010 C   0  0  0  0  0  0  0  0  0  0  0  0
    2.7510   21.0260   36.4540 O   0  0  0  0  0  0  0  0  0  0  0  0
    0.6350   19.1680   41.5800 C   0  0  0  0  0  0  0  0  0  0  0  0
    1.5030   18.9920   40.4530 C   0  0  0  0  0  0  0  0  0  0  0  0
   -0.8530   20.6960   42.7280 C   0  0  0  0  0  0  0  0  0  0  0  0
    2.0300   17.5560   40.2180 C   0  0  0  0  0  0  0  0  0  0  0  0
    3.5560   18.8270   36.8880 O   0  0  0  0  0  0  0  0  0  0  0  0
   -0.1070   20.3460   41.6350 C   0  0  0  0  0  0  0  0  0  0  0  0
    2.5070   20.0300   38.4760 N   0  0  0  0  0  0  0  0  0  0  0  0
    0.4700   18.4150   42.7900 C   0  0  0  0  0  0  0  0  0  0  0  0
    2.9970   15.1370   39.4600 C   0  0  0  0  0  0  0  0  0  0  0  0
    4.3612   20.5771   37.4955 H   0  0  0  0  0  0  0  0  0  0  0  0
   -0.4490   18.1501   44.6541 H   0  0  0  0  0  0  0  0  0  0  0  0
    2.1900   18.7383   39.9794 H   0  0  0  0  0  0  0  0  0  0  0  0
    4.7266   18.6049   38.4867 H   0  0  0  0  0  0  0  0  0  0  0  0
    4.2215   17.0957   37.4333 H   0  0  0  0  0  0  0  0  0  0  0  0
    0.9877   21.4094   39.0135 H   0  0  0  0  0  0  0  0  0  0  0  0
    2.2508   21.8978   39.7432 H   0  0  0  0  0  0  0  0  0  0  0  0
    4.1159   15.8989   37.8447 H   0  0  0  0  0  0  0  0  0  0  0  0
    2.2674   21.7210   36.9670 H   0  0  0  0  0  0  0  0  0  0  0  0
    2.3758   19.1783   41.0961 H   0  0  0  0  0  0  0  0  0  0  0  0
   -1.3551   21.6746   42.7142 H   0  0  0  0  0  0  0  0  0  0  0  0
   -0.0928   21.0209   40.7665 H   0  0  0  0  0  0  0  0  0  0  0  0
    1.0280   17.4744   42.9077 H   0  0  0  0  0  0  0  0  0  0  0  0
    3.2314   14.0946   39.1983 H   0  0  0  0  0  0  0  0  0  0  0  0
  1 12  1  0
  1 19  1  0
  2  3  2  0
  4 16  2  0
  5  8  1  0
  5 14  1  0
  6  4  1  0
 10  4  1  0
 10 21  2  0
 11  7  2  0
 11  9  1  0
 13 18  1  0
 13 20  2  0
 14 13  1  0
 15  3  1  0
 16 14  1  0
 16  7  1  0
 17  1  1  0
 17  6  1  0
 18 15  2  0
 19  8  1  0
 19  5  1  0
 20  2  1  0
 21 11  1  0
  1 22  1  0
  2 23  1  0
  5 24  1  0
  6 25  1  0
  6 26  1  0
  8 27  1  0
  8 28  1  0
 10 29  1  0
 12 30  1  0
 14 31  1  0
 15 32  1  0
 18 33  1  0
 20 34  1  0
 21 35  1  0
M  END
>  <mol_id>  (3) 
2026-08-23-6tgu-s0-n100-prep-0003

>  <rmsd_to_ref>  (3) 


$$$$

     RDKit          3D

 24 25  0  0  0  0  0  0  0  0999 V2000
    2.5510   20.6930   37.8110 C   0  0  0  0  0  0  0  0  0  0  0  0
   -0.2110   17.3200   43.6090 C   0  0  0  0  0  0  0  0  0  0  0  0
    2.1360   18.2460   40.5270 C   0  0  0  0  0  0  0  0  0  0  0  0
    3.9410   18.6530   36.7640 C   0  0  0  0  0  0  0  0  0  0  0  0
    3.7480   19.7610   36.0800 N   0  0  0  0  0  0  0  0  0  0  0  0
    2.7930   19.5990   38.6480 C   0  0  0  0  0  0  0  0  0  0  0  0
    1.5470   20.5490   40.6090 C   0  0  0  0  0  0  0  0  0  0  0  0
    0.8500   20.3700   41.7710 C   0  0  0  0  0  0  0  0  0  0  0  0
    0.0180   18.7740   43.3540 O   0  0  0  0  0  0  0  0  0  0  0  0
    0.8030   19.0860   42.2950 C   0  0  0  0  0  0  0  0  0  0  0  0
    2.1470   19.4700   39.9130 C   0  0  0  0  0  0  0  0  0  0  0  0
    1.4970   18.0030   41.7710 C   0  0  0  0  0  0  0  0  0  0  0  0
    3.0540   20.7870   36.5910 N   0  0  0  0  0  0  0  0  0  0  0  0
    3.4900   18.5520   38.0840 C   0  0  0  0  0  0  0  0  0  0  0  0
    1.9154   21.5101   38.1829 H   0  0  0  0  0  0  0  0  0  0  0  0
   -0.2397   17.1380   44.6935 H   0  0  0  0  0  0  0  0  0  0  0  0
   -1.1682   17.0154   43.1607 H   0  0  0  0  0  0  0  0  0  0  0  0
    0.6062   16.7359   43.1607 H   0  0  0  0  0  0  0  0  0  0  0  0
    2.6484   17.4085   40.0310 H   0  0  0  0  0  0  0  0  0  0  0  0
    4.4590   17.8032   36.2955 H   0  0  0  0  0  0  0  0  0  0  0  0
    1.6457   21.5654   40.2000 H   0  0  0  0  0  0  0  0  0  0  0  0
    0.3463   21.2104   42.2709 H   0  0  0  0  0  0  0  0  0  0  0  0
    1.5476   17.0300   42.2817 H   0  0  0  0  0  0  0  0  0  0  0  0
    3.6904   17.6422   38.6688 H   0  0  0  0  0  0  0  0  0  0  0  0
  1  6  2  0
  3 12  2  0
  4 14  2  0
  5 13  2  0
  5  4  1  0
  6 11  1  0
  7  8  1  0
  8 10  2  0
  9  2  1  0
 10  9  1  0
 11  3  1  0
 11  7  2  0
 12 10  1  0
 13  1  1  0
 14  6  1  0
  1 15  1  0
  2 16  1  0
  2 17  1  0
  2 18  1  0
  3 19  1  0
  4 20  1  0
  7 21  1  0
  8 22  1  0
 12 23  1  0
 14 24  1  0
M  END
>  <mol_id>  (4) 
2026-08-23-6tgu-s0-n100-prep-0004

>  <rmsd_to_ref>  (4) 


$$$$

     RDKit          3D

 30 32  0  0  0  0  0  0  0  0999 V2000
    0.3970   17.3320   42.8840 C   0  0  0  0  0  0  0  0  0  0  0  0
    0.0140   19.5710   42.6950 C   0  0  0  0  0  0  0  0  0  0  0  0
    1.4730   19.9520   40.3610 C   0  0  0  0  0  0  0  0  0  0  0  0
    3.6360   19.6220   37.1470 C   0  0  0  0  0  0  0  0  0  0  0  0
    1.6960   21.2310   38.2230 C   0  0  0  0  0  0  0  0  0  0  0  0
    1.3630   18.6400   40.9110 C   0  0  0  0  0  0  0  0  0  0  0  0
    0.9220   15.9500   42.5540 C   0  0  0  0  0  0  0  0  0  0  0  0
    0.4570   15.0080   43.5120 N   0  0  0  0  0  4  0  0  0  0  0  0
   -0.4340   17.7720   43.9460 C   0  0  0  0  0  0  0  0  0  0  0  0
    0.6850   18.4560   42.0870 C   0  0  0  0  0  0  0  0  0  0  0  0
    3.3310   20.7270   36.5060 N   0  0  0  0  0  0  0  0  0  0  0  0
    0.9130   20.9620   41.0280 C   0  0  0  0  0  0  0  0  0  0  0  0
    2.9450   19.2710   38.3560 C   0  0  0  0  0  0  0  0  0  0  0  0
   -0.6130   19.1800   43.7690 N   0  0  0  0  0  0  0  0  0  0  0  0
    2.3440   21.5130   36.9910 C   0  0  0  0  0  0  0  0  0  0  0  0
    0.1820   20.7830   42.1920 N   0  0  0  0  0  0  0  0  0  0  0  0
    2.1130   20.0960   38.9780 C   0  0  0  0  0  0  0  0  0  0  0  0
    4.4245   18.9622   36.7559 H   0  0  0  0  0  0  0  0  0  0  0  0
    0.8852   21.8782   38.5888 H   0  0  0  0  0  0  0  0  0  0  0  0
    1.8193   17.7826   40.3945 H   0  0  0  0  0  0  0  0  0  0  0  0
    0.5694   15.6562   41.5543 H   0  0  0  0  0  0  0  0  0  0  0  0
    2.0217   15.9691   42.5729 H   0  0  0  0  0  0  0  0  0  0  0  0
    0.6343   15.3673   44.4609 H   0  0  0  0  0  0  0  0  0  0  0  0
   -0.5542   14.8594   43.3846 H   0  0  0  0  0  0  0  0  0  0  0  0
    0.9540   14.1149   43.3846 H   0  0  0  0  0  0  0  0  0  0  0  0
   -0.8581   17.1514   44.7491 H   0  0  0  0  0  0  0  0  0  0  0  0
    1.0367   21.9827   40.6370 H   0  0  0  0  0  0  0  0  0  0  0  0
    3.1133   18.2726   38.7859 H   0  0  0  0  0  0  0  0  0  0  0  0
    2.0336   22.3970   36.4146 H   0  0  0  0  0  0  0  0  0  0  0  0
   -0.2323   21.5973   42.6675 H   0  0  0  0  0  0  0  0  0  0  0  0
  1  9  2  0
  2 14  2  0
  3  6  1  0
  3 12  2  0
  4 13  2  0
  5 17  2  0
  6 10  2  0
  7  1  1  0
  7  8  1  0
 10  2  1  0
 10  1  1  0
 11 15  2  0
 11  4  1  0
 12 16  1  0
 13 17  1  0
 14  9  1  0
 15  5  1  0
 16  2  1  0
 17  3  1  0
  4 18  1  0
  5 19  1  0
  6 20  1  0
  7 21  1  0
  7 22  1  0
  8 23  1  0
  8 24  1  0
  8 25  1  0
  9 26  1  0
 12 27  1  0
 13 28  1  0
 15 29  1  0
 16 30  1  0
M  CHG  1   8   1
M  END
>  <mol_id>  (5) 
2026-08-23-6tgu-s0-n100-prep-0005

>  <rmsd_to_ref>  (5) 


$$$$

     RDKit          3D

 52 56  0  0  0  0  0  0  0  0999 V2000
   -0.8060   20.6370   44.0440 N   0  0  0  0  0  0  0  0  0  0  0  0
    3.2360   19.2490   38.9290 C   0  0  0  0  0  0  0  0  0  0  0  0
   -0.5490   14.7820   45.4020 C   0  0  0  0  0  0  0  0  0  0  0  0
    2.2560   19.3170   40.0720 C   0  0  0  0  0  0  0  0  0  0  0  0
    3.7090   16.9920   38.1650 C   0  0  0  0  0  0  0  0  0  0  0  0
   -0.2890   19.8360   41.8720 C   0  0  0  0  0  0  0  0  0  0  0  0
    2.4400   21.3150   36.2760 C   0  0  0  0  0  0  0  0  0  0  0  0
    1.9020   18.2070   40.7860 N   0  0  0  0  0  0  0  0  0  0  0  0
    3.4620   20.6210   35.9360 N   0  0  0  0  0  0  0  0  0  0  0  0
   -0.6310   20.8820   42.7210 C   0  0  0  0  0  0  0  0  0  0  0  0
    4.2880   16.0650   37.2590 C   0  0  0  0  0  0  0  0  0  0  0  0
   -1.0410   14.6400   46.7950 C   0  0  0  0  0  0  0  0  0  0  0  0
    0.3540   16.0820   43.1900 C   0  0  0  0  0  0  0  0  0  0  0  0
    1.0760   16.4840   42.0970 C   0  0  0  0  0  0  0  0  0  0  0  0
    2.5540   15.8920   40.0770 C   0  0  0  0  0  0  0  0  0  0  0  0
    2.8940   14.6120   39.5100 O   0  0  0  0  0  0  0  0  0  0  0  0
   -0.5240   19.3540   44.5390 C   0  0  0  0  0  0  0  0  0  0  0  0
    0.2550   18.6750   42.3900 C   0  0  0  0  0  0  0  0  0  0  0  0
    3.8510   19.8190   36.9290 N   0  0  0  0  0  0  0  0  0  0  0  0
   -0.1710   18.3940   43.7580 C   0  0  0  0  0  0  0  0  0  0  0  0
   -0.6750   22.0740   42.2240 O   0  0  0  0  0  0  0  0  0  0  0  0
    2.8430   16.8850   38.7920 O   0  0  0  0  0  0  0  0  0  0  0  0
    1.0870   17.8140   41.7550 C   0  0  0  0  0  0  0  0  0  0  0  0
    3.0530   20.0880   37.8600 C   0  0  0  0  0  0  0  0  0  0  0  0
   -0.5330   16.2120   45.2300 C   0  0  0  0  0  0  0  0  0  0  0  0
    1.7880   15.4720   41.3340 C   0  0  0  0  0  0  0  0  0  0  0  0
    2.1740   21.0570   37.5730 C   0  0  0  0  0  0  0  0  0  0  0  0
    4.3730   18.2240   38.5750 C   0  0  0  0  0  0  0  0  0  0  0  0
   -0.9060   16.9220   46.3600 N   0  0  0  0  0  0  0  0  0  0  0  0
   -1.2430   15.8790   47.2900 N   0  0  0  0  0  0  0  0  0  0  0  0
    1.9930   20.5320   40.4140 O   0  0  0  0  0  0  0  0  0  0  0  0
   -0.1240   16.9090   44.0510 C   0  0  0  0  0  0  0  0  0  0  0  0
   -0.5820   20.0160   40.5990 F   0  0  0  0  0  0  0  0  0  0  0  0
    3.4963   19.2289   39.9976 H   0  0  0  0  0  0  0  0  0  0  0  0
   -0.2685   13.9966   44.6848 H   0  0  0  0  0  0  0  0  0  0  0  0
    3.4585   16.5881   37.1730 H   0  0  0  0  0  0  0  0  0  0  0  0
   -1.3003   19.4411   42.0489 H   0  0  0  0  0  0  0  0  0  0  0  0
    1.8782   22.0007   35.6247 H   0  0  0  0  0  0  0  0  0  0  0  0
    2.4568   17.4023   40.4610 H   0  0  0  0  0  0  0  0  0  0  0  0
    4.7882   15.2642   37.8234 H   0  0  0  0  0  0  0  0  0  0  0  0
    3.5005   15.6305   36.6258 H   0  0  0  0  0  0  0  0  0  0  0  0
    5.0240   16.5820   36.6258 H   0  0  0  0  0  0  0  0  0  0  0  0
   -1.9851   14.0756   46.8026 H   0  0  0  0  0  0  0  0  0  0  0  0
   -0.3069   14.0966   47.4080 H   0  0  0  0  0  0  0  0  0  0  0  0
    0.1758   15.0066   43.3372 H   0  0  0  0  0  0  0  0  0  0  0  0
   -0.6067   19.1648   45.6195 H   0  0  0  0  0  0  0  0  0  0  0  0
    1.0463   14.7213   41.0236 H   0  0  0  0  0  0  0  0  0  0  0  0
    2.5761   15.1299   42.0209 H   0  0  0  0  0  0  0  0  0  0  0  0
    2.3435   21.9459   38.1984 H   0  0  0  0  0  0  0  0  0  0  0  0
    1.1283   20.7706   37.7585 H   0  0  0  0  0  0  0  0  0  0  0  0
    5.0056   18.0394   39.4558 H   0  0  0  0  0  0  0  0  0  0  0  0
    5.0215   18.6108   37.7751 H   0  0  0  0  0  0  0  0  0  0  0  0
  1 17  2  0
  2 24  1  0
  2  4  1  0
  3 12  1  0
  4 31  2  0
  4  8  1  0
  5 11  1  0
  5 28  1  0
  5 22  1  0
  6 33  1  0
  6 18  1  0
  6 10  1  0
  7 27  1  0
  8 23  1  0
  9  7  2  0
  9 19  1  0
 10  1  1  0
 12 30  1  0
 13 32  2  0
 14 13  1  0
 15 26  1  0
 16 15  2  0
 18 20  2  0
 19 24  2  0
 20 32  1  0
 20 17  1  0
 21 10  2  0
 22 15  1  0
 23 14  2  0
 23 18  1  0
 25  3  2  0
 25 29  1  0
 26 14  1  0
 27 24  1  0
 28  2  1  0
 29 30  2  0
 32 25  1  0
  2 34  1  0
  3 35  1  0
  5 36  1  0
  6 37  1  0
  7 38  1  0
  8 39  1  0
 11 40  1  0
 11 41  1  0
 11 42  1  0
 12 43  1  0
 12 44  1  0
 13 45  1  0
 17 46  1  0
 26 47  1  0
 26 48  1  0
 27 49  1  0
 27 50  1  0
 28 51  1  0
 28 52  1  0
M  END
>  <mol_id>  (6) 
2026-08-23-6tgu-s0-n100-prep-0006

>  <rmsd_to_ref>  (6) 


$$$$

     RDKit          3D

 46 48  0  0  0  0  0  0  0  0999 V2000
    0.1060   21.0260   42.2440 C   0  0  0  0  0  0  0  0  0  0  0  0
    2.2640   21.4150   36.6460 O   0  0  0  0  0  0  0  0  0  0  0  0
    3.6460   18.8670   39.1960 C   0  0  0  0  0  0  0  0  0  0  0  0
   -0.3530   19.0820   43.6720 C   0  0  0  0  0  0  0  0  0  0  0  0
    0.2040   19.5460   42.5350 C   0  0  0  0  0  0  0  0  0  0  0  0
    2.7530   21.0250   38.0130 C   0  0  0  0  0  0  0  0  0  0  0  0
    1.4700   19.0430   40.4210 C   0  0  0  0  0  0  0  0  0  0  0  0
    3.1890   21.9150   35.6790 C   0  0  0  0  0  0  0  0  0  0  0  0
    1.7630   15.0220   41.5560 C   0  0  0  0  0  0  0  0  0  0  0  0
   -0.4280   17.7440   44.0450 C   0  0  0  0  0  0  0  0  0  0  0  0
    3.5530   18.9890   36.7790 C   0  0  0  0  0  0  0  0  0  0  0  0
    3.5190   17.8460   37.0970 C   0  0  0  0  0  0  0  0  0  0  0  0
    0.3030   16.7690   43.2230 C   0  0  0  0  0  0  0  0  0  0  0  0
    1.8140   16.4230   41.2850 C   0  0  0  0  0  0  0  0  0  0  0  0
    0.9120   18.5940   41.7390 C   0  0  0  0  0  0  0  0  0  0  0  0
    3.8390   21.3630   34.6910 N   0  0  0  0  0  0  0  0  0  0  0  0
    2.5660   16.8750   40.2520 N   0  0  0  0  0  0  0  0  0  0  0  0
    3.4060   19.6570   37.9150 C   0  0  0  0  0  0  0  0  0  0  0  0
    1.0470   14.5490   42.6790 C   0  0  0  0  0  0  0  0  0  0  0  0
    0.9630   17.2780   42.0540 C   0  0  0  0  0  0  0  0  0  0  0  0
    2.5220   18.1420   39.9080 C   0  0  0  0  0  0  0  0  0  0  0  0
    0.3180   15.4310   43.4890 C   0  0  0  0  0  0  0  0  0  0  0  0
    1.0470   19.9220   39.8180 O   0  0  0  0  0  0  0  0  0  0  0  0
   -1.0530   19.9870   44.3930 O   0  0  0  0  0  0  0  0  0  0  0  0
    0.0690   21.5842   43.1911 H   0  0  0  0  0  0  0  0  0  0  0  0
    0.9850   21.3448   41.6646 H   0  0  0  0  0  0  0  0  0  0  0  0
   -0.8074   21.2261   41.6646 H   0  0  0  0  0  0  0  0  0  0  0  0
    4.4002   18.1043   38.9521 H   0  0  0  0  0  0  0  0  0  0  0  0
    3.9050   19.6591   39.9140 H   0  0  0  0  0  0  0  0  0  0  0  0
    3.4870   21.7626   38.3697 H   0  0  0  0  0  0  0  0  0  0  0  0
    1.9117   20.9930   38.7210 H   0  0  0  0  0  0  0  0  0  0  0  0
    3.3968   22.9894   35.7903 H   0  0  0  0  0  0  0  0  0  0  0  0
    2.2796   14.3128   40.8925 H   0  0  0  0  0  0  0  0  0  0  0  0
   -1.0121   17.4276   44.9217 H   0  0  0  0  0  0  0  0  0  0  0  0
    4.5165   19.2323   36.3074 H   0  0  0  0  0  0  0  0  0  0  0  0
    2.7747   19.2406   36.0435 H   0  0  0  0  0  0  0  0  0  0  0  0
    3.5168   17.7706   38.1944 H   0  0  0  0  0  0  0  0  0  0  0  0
    2.6066   17.3807   36.6957 H   0  0  0  0  0  0  0  0  0  0  0  0
    4.4021   17.3273   36.6957 H   0  0  0  0  0  0  0  0  0  0  0  0
    4.4704   21.9313   34.1085 H   0  0  0  0  0  0  0  0  0  0  0  0
    3.1736   16.2233   39.7353 H   0  0  0  0  0  0  0  0  0  0  0  0
    4.2609   20.3002   37.6591 H   0  0  0  0  0  0  0  0  0  0  0  0
    1.0619   13.4759   42.9204 H   0  0  0  0  0  0  0  0  0  0  0  0
    2.1696   17.4493   39.1296 H   0  0  0  0  0  0  0  0  0  0  0  0
   -0.2476   15.0403   44.3477 H   0  0  0  0  0  0  0  0  0  0  0  0
   -1.0186   20.9463   44.1507 H   0  0  0  0  0  0  0  0  0  0  0  0
  1  5  1  0
  2  6  1  0
  4 10  2  0
  4 24  1  0
  5  4  1  0
  7 15  1  0
  8  2  1  0
  9 19  2  0
 11 12  1  0
 13 22  2  0
 13 10  1  0
 14  9  1  0
 14 20  2  0
 15 20  1  0
 15  5  2  0
 16  8  2  3
 17 14  1  0
 18 11  1  0
 18  6  1  0
 18  3  1  0
 19 22  1  0
 20 13  1  0
 21  3  1  0
 21 17  1  0
 21  7  1  0
 23  7  2  0
  1 25  1  0
  1 26  1  0
  1 27  1  0
  3 28  1  0
  3 29  1  0
  6 30  1  0
  6 31  1  0
  8 32  1  0
  9 33  1  0
 10 34  1  0
 11 35  1  0
 11 36  1  0
 12 37  1  0
 12 38  1  0
 12 39  1  0
 16 40  1  0
 17 41  1  0
 18 42  1  0
 19 43  1  0
 21 44  1  0
 22 45  1  0
 24 46  1  0
M  END
>  <mol_id>  (7) 
2026-08-23-6tgu-s0-n100-prep-0007

>  <rmsd_to_ref>  (7) 


$$$$

     RDKit          3D

 40 43  0  0  0  0  0  0  0  0999 V2000
    0.3390   20.3090   42.2010 C   0  0  0  0  0  0  0  0  0  0  0  0
    3.9900   18.9820   36.3690 N   0  0  0  0  0  0  0  0  0  0  0  0
    0.5110   18.9380   42.1660 N   0  0  0  0  0  0  0  0  0  0  0  0
    2.7190   20.1190   37.7290 C   0  0  0  0  0  0  0  0  0  0  0  0
    3.7080   18.1210   37.2900 C   0  0  0  0  0  0  0  0  0  0  0  0
    0.7920   21.1250   41.6130 C   0  0  0  0  0  0  0  0  0  0  0  0
    4.2160   16.5920   37.2750 C   0  0  0  0  0  0  0  0  0  0  0  0
    0.4880   16.4810   42.9360 S   0  0  0  0  0  0  0  0  0  0  0  0
   -0.1340   15.3160   44.0430 C   0  0  0  0  0  0  0  0  0  0  0  0
    3.0570   18.8010   38.2400 C   0  0  0  0  0  0  0  0  0  0  0  0
   -0.5130   18.3750   44.5220 C   0  0  0  0  0  0  0  0  0  0  0  0
    3.3840   20.1810   36.6650 N   0  0  0  0  0  0  0  0  0  0  0  0
    1.1980   18.8670   41.4680 N   0  0  0  0  0  0  0  0  0  0  0  0
   -1.2860   17.2390   45.1620 C   0  0  0  0  0  0  0  0  0  0  0  0
   -0.6520   15.9270   45.2680 C   0  0  0  0  0  0  0  0  0  0  0  0
    1.1420   20.0720   40.7160 C   0  0  0  0  0  0  0  0  0  0  0  0
    2.4840   18.5180   39.4560 C   0  0  0  0  0  0  0  0  0  0  0  0
    2.0650   20.8370   38.6110 C   0  0  0  0  0  0  0  0  0  0  0  0
   -0.3250   17.9580   43.0740 C   0  0  0  0  0  0  0  0  0  0  0  0
    1.9230   19.8420   39.7600 C   0  0  0  0  0  0  0  0  0  0  0  0
   -0.7404   20.4383   42.0334 H   0  0  0  0  0  0  0  0  0  0  0  0
    0.9165   20.4833   43.1209 H   0  0  0  0  0  0  0  0  0  0  0  0
    0.0868   21.8700   41.2159 H   0  0  0  0  0  0  0  0  0  0  0  0
    1.5164   21.8440   42.0231 H   0  0  0  0  0  0  0  0  0  0  0  0
    4.3346   16.2349   38.3086 H   0  0  0  0  0  0  0  0  0  0  0  0
    3.4777   15.9654   36.7531 H   0  0  0  0  0  0  0  0  0  0  0  0
    5.1824   16.5318   36.7531 H   0  0  0  0  0  0  0  0  0  0  0  0
   -0.9490   14.7634   43.5526 H   0  0  0  0  0  0  0  0  0  0  0  0
    0.6937   14.6492   44.3264 H   0  0  0  0  0  0  0  0  0  0  0  0
   -1.0840   19.3133   44.5828 H   0  0  0  0  0  0  0  0  0  0  0  0
    0.4472   18.5565   45.0270 H   0  0  0  0  0  0  0  0  0  0  0  0
    2.1287   18.7583   41.8957 H   0  0  0  0  0  0  0  0  0  0  0  0
   -1.5422   17.5575   46.1832 H   0  0  0  0  0  0  0  0  0  0  0  0
   -2.1292   17.0718   44.4757 H   0  0  0  0  0  0  0  0  0  0  0  0
   -1.3972   15.2360   45.6890 H   0  0  0  0  0  0  0  0  0  0  0  0
    0.2398   16.1007   45.8882 H   0  0  0  0  0  0  0  0  0  0  0  0
    0.4324   20.5715   40.0400 H   0  0  0  0  0  0  0  0  0  0  0  0
    2.4540   17.5805   40.0306 H   0  0  0  0  0  0  0  0  0  0  0  0
    1.7133   21.8769   38.5413 H   0  0  0  0  0  0  0  0  0  0  0  0
   -1.3682   17.9306   42.7262 H   0  0  0  0  0  0  0  0  0  0  0  0
  2 12  2  0
  2  5  1  0
  3  1  1  0
  3 19  1  0
  4 10  1  0
  4 18  2  0
  5 10  2  0
  6  1  1  0
  7  5  1  0
  8 19  1  0
  8  9  1  0
  9 15  1  0
 10 17  1  0
 11 14  1  0
 12  4  1  0
 13  3  1  0
 14 15  1  0
 16 20  1  0
 16 13  1  0
 16  6  1  0
 17 20  2  0
 18 20  1  0
 19 11  1  0
  1 21  1  0
  1 22  1  0
  6 23  1  0
  6 24  1  0
  7 25  1  0
  7 26  1  0
  7 27  1  0
  9 28  1  0
  9 29  1  0
 11 30  1  0
 11 31  1  0
 13 32  1  0
 14 33  1  0
 14 34  1  0
 15 35  1  0
 15 36  1  0
 16 37  1  0
 17 38  1  0
 18 39  1  0
 19 40  1  0
M  END
>  <mol_id>  (8) 
2026-08-23-6tgu-s0-n100-prep-0008

>  <rmsd_to_ref>  (8) 


$$$$

     RDKit          3D

 35 38  0  0  0  0  0  0  0  0999 V2000
    0.5370   21.0240   41.2940 C   0  0  0  0  0  0  0  0  0  0  0  0
    0.6980   14.9580   43.2870 C   0  0  0  0  0  0  0  0  0  0  0  0
    3.8180   19.0830   37.0480 C   0  0  0  0  0  0  0  0  0  0  0  0
    1.2650   18.5620   40.9230 O   0  0  0  0  0  0  0  0  0  0  0  0
    2.1920   20.4330   38.9330 C   0  0  0  0  0  0  0  0  0  0  0  0
    2.4850   18.4690   40.2970 O   0  0  0  0  0  0  0  0  0  0  0  0
    3.4610   18.4610   38.1820 C   0  0  0  0  0  0  0  0  0  0  0  0
    0.3780   19.8720   42.3040 C   0  0  0  0  0  0  0  0  0  0  0  0
    3.2850   20.3730   36.7950 C   0  0  0  0  0  0  0  0  0  0  0  0
    0.8370   18.5410   41.9950 C   0  0  0  0  0  0  0  0  0  0  0  0
    2.6490   19.1320   39.1430 C   0  0  0  0  0  0  0  0  0  0  0  0
    2.5120   21.0350   37.7330 C   0  0  0  0  0  0  0  0  0  0  0  0
    1.1330   15.9870   42.5560 C   0  0  0  0  0  0  0  0  0  0  0  0
   -0.4150   20.0330   43.3890 N   0  0  0  0  0  0  0  0  0  0  0  0
    3.5750   20.9880   35.6880 O   0  0  0  0  0  0  0  0  0  0  0  0
   -0.2670   15.2540   44.3350 C   0  0  0  0  0  0  0  0  0  0  0  0
   -0.2680   17.5590   43.8230 C   0  0  0  0  0  0  0  0  0  0  0  0
    0.5850   17.3420   42.6650 C   0  0  0  0  0  0  0  0  0  0  0  0
   -0.6860   18.9020   44.0600 C   0  0  0  0  0  0  0  0  0  0  0  0
    1.3580   21.1190   40.0290 C   0  0  0  0  0  0  0  0  0  0  0  0
   -0.6400   16.5080   44.5850 N   0  0  0  0  0  0  0  0  0  0  0  0
    2.1180   15.5850   41.4720 C   0  0  0  0  0  0  0  0  0  0  0  0
   -0.7200   14.3320   44.9690 O   0  0  0  0  0  0  0  0  0  0  0  0
   -0.0433   21.9273   41.5333 H   0  0  0  0  0  0  0  0  0  0  0  0
    1.0530   13.9329   43.1052 H   0  0  0  0  0  0  0  0  0  0  0  0
    4.5052   18.6056   36.3340 H   0  0  0  0  0  0  0  0  0  0  0  0
    3.7957   17.4303   38.3709 H   0  0  0  0  0  0  0  0  0  0  0  0
    2.1490   22.0513   37.5199 H   0  0  0  0  0  0  0  0  0  0  0  0
    3.2038   21.8883   35.5100 H   0  0  0  0  0  0  0  0  0  0  0  0
   -1.3375   19.0326   44.9366 H   0  0  0  0  0  0  0  0  0  0  0  0
    1.3607   22.1873   39.7668 H   0  0  0  0  0  0  0  0  0  0  0  0
   -1.2429   16.6851   45.4011 H   0  0  0  0  0  0  0  0  0  0  0  0
    3.0411   15.2083   41.9367 H   0  0  0  0  0  0  0  0  0  0  0  0
    1.6738   14.7962   40.8471 H   0  0  0  0  0  0  0  0  0  0  0  0
    2.3525   16.4594   40.8471 H   0  0  0  0  0  0  0  0  0  0  0  0
  1  8  1  0
  2 16  1  0
  3  7  2  0
  4 10  1  0
  5 11  2  0
  5 20  1  0
  6  4  1  0
  7 11  1  0
  8 14  2  0
  9  3  1  0
  9 12  2  0
 10  8  1  0
 10 18  2  0
 11  6  1  0
 12  5  1  0
 13 18  1  0
 13  2  2  0
 14 19  1  0
 15  9  1  0
 16 21  1  0
 16 23  2  0
 17 19  2  0
 17 21  1  0
 18 17  1  0
 20  1  2  0
 22 13  1  0
  1 24  1  0
  2 25  1  0
  3 26  1  0
  7 27  1  0
 12 28  1  0
 15 29  1  0
 19 30  1  0
 20 31  1  0
 21 32  1  0
 22 33  1  0
 22 34  1  0
 22 35  1  0
M  END
>  <mol_id>  (9) 
2026-08-23-6tgu-s0-n100-prep-0009

>  <rmsd_to_ref>  (9) 


$$$$

     RDKit          3D

 16 15  0  0  0  0  0  0  0  0999 V2000
    0.8150   21.3040   41.3820 O   0  0  0  0  0  0  0  0  0  0  0  0
    3.1650   19.7290   38.3590 C   0  0  0  0  0  0  0  0  0  0  0  0
    0.4920   19.1220   42.1710 C   0  0  0  0  0  0  0  0  0  0  0  0
    1.3490   17.3560   40.9420 O   0  0  0  0  0  0  0  0  0  0  0  0
    3.0170   19.9530   37.1290 O   0  0  0  0  0  0  0  0  0  0  0  0
    0.7280   17.7830   42.0190 C   0  0  0  0  0  0  0  0  0  0  0  0
    0.5110   16.8470   42.8260 O   0  0  0  0  0  1  0  0  0  0  0  0
    0.9460   20.1170   41.2070 C   0  0  0  0  0  0  0  0  0  0  0  0
    4.0620   18.8740   38.8960 O   0  0  0  0  0  1  0  0  0  0  0  0
    2.2060   20.4940   39.1780 C   0  0  0  0  0  0  0  0  0  0  0  0
    1.5460   19.6010   40.1190 N   0  0  0  0  0  0  0  0  0  0  0  0
   -0.6007   19.2335   42.2317 H   0  0  0  0  0  0  0  0  0  0  0  0
    1.1139   19.3599   43.0466 H   0  0  0  0  0  0  0  0  0  0  0  0
    2.7421   21.2785   39.7323 H   0  0  0  0  0  0  0  0  0  0  0  0
    1.4527   20.9554   38.5226 H   0  0  0  0  0  0  0  0  0  0  0  0
    1.5384   18.5844   39.9536 H   0  0  0  0  0  0  0  0  0  0  0  0
  2  9  1  0
  2 10  1  0
  4  6  2  0
  5  2  2  0
  6  3  1  0
  6  7  1  0
  8  1  2  0
  8  3  1  0
 10 11  1  0
 11  8  1  0
  3 12  1  0
  3 13  1  0
 10 14  1  0
 10 15  1  0
 11 16  1  0
M  CHG  2   7  -1   9  -1
M  END
>  <mol_id>  (10) 
2026-08-23-6tgu-s0-n100-prep-0010

>  <rmsd_to_ref>  (10) 


$$$$

     RDKit          3D

 29 31  0  0  0  0  0  0  0  0999 V2000
    0.7490   21.1750   41.8160 N   0  0  0  0  0  0  0  0  0  0  0  0
    2.8600   17.3400   39.2790 F   0  0  0  0  0  0  0  0  0  0  0  0
    2.8860   18.4640   38.6260 C   0  0  0  0  0  0  0  0  0  0  0  0
    2.2170   20.7440   38.3270 C   0  0  0  0  0  0  0  0  0  0  0  0
    1.1450   18.9550   41.4720 C   0  0  0  0  0  0  0  0  0  0  0  0
    0.4330   16.9390   42.8590 C   0  0  0  0  0  0  0  0  0  0  0  0
    1.4320   20.9820   40.7980 N   0  0  0  0  0  0  0  0  0  0  0  0
    3.4600   19.7180   36.5490 N   0  0  0  0  0  0  0  0  0  0  0  0
   -0.5000   17.3030   43.7060 C   0  0  0  0  0  0  0  0  0  0  0  0
   -1.0060   18.5750   43.6870 C   0  0  0  0  0  0  0  0  0  0  0  0
    1.7030   19.7050   40.4030 C   0  0  0  0  0  0  0  0  0  0  0  0
    0.4020   19.9500   42.1290 C   0  0  0  0  0  0  0  0  0  0  0  0
    3.4410   18.5560   37.2880 C   0  0  0  0  0  0  0  0  0  0  0  0
    4.1480   17.4910   36.8300 N   0  0  0  0  0  0  0  0  0  0  0  0
   -0.6870   19.5910   42.9400 C   0  0  0  0  0  0  0  0  0  0  0  0
    1.1370   17.7020   41.9690 C   0  0  0  0  0  0  0  0  0  0  0  0
    2.8890   20.7210   37.1520 C   0  0  0  0  0  0  0  0  0  0  0  0
    2.2950   19.6140   39.1180 C   0  0  0  0  0  0  0  0  0  0  0  0
    0.5169   22.0603   42.2884 H   0  0  0  0  0  0  0  0  0  0  0  0
    1.6345   21.6237   38.6382 H   0  0  0  0  0  0  0  0  0  0  0  0
    0.6848   15.8682   42.8655 H   0  0  0  0  0  0  0  0  0  0  0  0
   -0.8804   16.5777   44.4403 H   0  0  0  0  0  0  0  0  0  0  0  0
   -1.8064   18.7677   44.4165 H   0  0  0  0  0  0  0  0  0  0  0  0
   -0.3289   19.9470   41.3070 H   0  0  0  0  0  0  0  0  0  0  0  0
    4.1524   16.6087   37.3615 H   0  0  0  0  0  0  0  0  0  0  0  0
    4.6798   17.5654   35.9511 H   0  0  0  0  0  0  0  0  0  0  0  0
   -1.4683   20.3653   42.9447 H   0  0  0  0  0  0  0  0  0  0  0  0
    1.9478   17.1100   41.5194 H   0  0  0  0  0  0  0  0  0  0  0  0
    2.9633   21.6877   36.6324 H   0  0  0  0  0  0  0  0  0  0  0  0
  1 12  1  0
  3 18  2  0
  3  2  1  0
  4 18  1  0
  5 16  2  0
  5 12  1  0
  6  9  2  0
  7  1  1  0
  8 17  1  0
  8 13  2  0
 10  9  1  0
 11  7  2  0
 11  5  1  0
 12 15  1  0
 13  3  1  0
 14 13  1  0
 15 10  2  0
 16  6  1  0
 17  4  2  0
 18 11  1  0
  1 19  1  0
  4 20  1  0
  6 21  1  0
  9 22  1  0
 10 23  1  0
 12 24  1  0
 14 25  1  0
 14 26  1  0
 15 27  1  0
 16 28  1  0
 17 29  1  0
M  END
>  <mol_id>  (11) 
2026-08-23-6tgu-s0-n100-prep-0011

>  <rmsd_to_ref>  (11) 


$$$$

     RDKit          3D

 49 51  0  0  0  0  0  0  0  0999 V2000
    0.3860   20.2790   42.0590 C   0  0  0  0  0  0  0  0  0  0  0  0
    1.6740   15.1620   42.1790 C   0  0  0  0  0  0  0  0  0  0  0  0
   -0.6520   16.4250   44.8590 C   0  0  0  0  0  0  0  0  0  0  0  0
    4.0220   19.4490   38.7100 C   0  0  0  0  0  0  0  0  0  0  0  0
    3.8390   19.3970   36.2300 N   0  0  0  0  0  0  0  0  0  0  0  0
    1.4950   19.0750   40.4190 C   0  0  0  0  0  0  0  0  0  0  0  0
    0.2280   15.9730   43.7480 C   0  0  0  0  0  0  0  0  0  0  0  0
    2.8480   20.4180   38.7350 N   0  0  0  0  0  0  0  0  0  0  0  0
    0.8310   19.0630   41.6930 C   0  0  0  0  0  0  0  0  0  0  0  0
    0.8750   14.7060   43.1650 N   0  0  0  0  0  0  0  0  0  0  0  0
    2.0240   20.3550   39.8860 C   0  0  0  0  0  0  0  0  0  0  0  0
    3.1720   21.3620   35.2630 O   0  0  0  0  0  0  0  0  0  0  0  0
    1.5270   16.4480   41.9310 N   0  0  0  0  0  0  0  0  0  0  0  0
   -0.2220   20.8450   43.0270 O   0  0  0  0  0  0  0  0  0  0  0  0
    3.7350   18.6140   37.4770 C   0  0  0  0  0  0  0  0  0  0  0  0
    2.6050   20.9400   37.5270 C   0  0  0  0  0  0  0  0  0  0  0  0
    1.6290   21.5580   40.5080 C   0  0  0  0  0  0  0  0  0  0  0  0
    0.0570   18.2180   42.8750 C   0  0  0  0  0  0  0  0  0  0  0  0
    0.7750   21.5010   41.5260 C   0  0  0  0  0  0  0  0  0  0  0  0
   -0.1400   13.2460   45.2150 C   0  0  0  0  0  0  0  0  0  0  0  0
    0.6240   16.9120   42.8620 C   0  0  0  0  0  0  0  0  0  0  0  0
   -1.0630   12.9550   44.0700 C   0  0  0  0  0  0  0  0  0  0  0  0
   -1.2750   17.7090   44.9080 C   0  0  0  0  0  0  0  0  0  0  0  0
    2.5800   14.2030   41.4520 C   0  0  0  0  0  0  0  0  0  0  0  0
    3.1870   20.6370   36.3410 C   0  0  0  0  0  0  0  0  0  0  0  0
   -0.9240   18.6260   43.8770 N   0  0  0  0  0  0  0  0  0  0  0  0
   -0.8334   15.7294   45.6916 H   0  0  0  0  0  0  0  0  0  0  0  0
    4.9775   19.9852   38.6129 H   0  0  0  0  0  0  0  0  0  0  0  0
    4.1173   18.8531   39.6297 H   0  0  0  0  0  0  0  0  0  0  0  0
    4.3288   19.0745   35.3833 H   0  0  0  0  0  0  0  0  0  0  0  0
    1.6102   18.1443   39.8441 H   0  0  0  0  0  0  0  0  0  0  0  0
    1.5296   18.2405   41.4801 H   0  0  0  0  0  0  0  0  0  0  0  0
    1.9922   16.9944   41.1921 H   0  0  0  0  0  0  0  0  0  0  0  0
    2.7158   18.2077   37.5550 H   0  0  0  0  0  0  0  0  0  0  0  0
    4.4865   17.8120   37.4329 H   0  0  0  0  0  0  0  0  0  0  0  0
    1.5324   20.7612   37.3607 H   0  0  0  0  0  0  0  0  0  0  0  0
    3.0674   21.9257   37.6838 H   0  0  0  0  0  0  0  0  0  0  0  0
    2.0199   22.5247   40.1577 H   0  0  0  0  0  0  0  0  0  0  0  0
    0.3722   22.4324   41.9506 H   0  0  0  0  0  0  0  0  0  0  0  0
   -0.6697   13.0790   46.1645 H   0  0  0  0  0  0  0  0  0  0  0  0
    0.7335   12.5797   45.1603 H   0  0  0  0  0  0  0  0  0  0  0  0
    0.1934   14.2928   45.1603 H   0  0  0  0  0  0  0  0  0  0  0  0
   -2.0441   12.6457   44.4594 H   0  0  0  0  0  0  0  0  0  0  0  0
   -1.1811   13.8595   43.4552 H   0  0  0  0  0  0  0  0  0  0  0  0
   -0.6410   12.1463   43.4552 H   0  0  0  0  0  0  0  0  0  0  0  0
   -1.9890   17.9757   45.7011 H   0  0  0  0  0  0  0  0  0  0  0  0
    3.1443   13.6057   42.1833 H   0  0  0  0  0  0  0  0  0  0  0  0
    1.9758   13.5347   40.8209 H   0  0  0  0  0  0  0  0  0  0  0  0
    3.2815   14.7683   40.8209 H   0  0  0  0  0  0  0  0  0  0  0  0
  1 14  2  0
  2 10  2  0
  3 23  1  0
  4  8  1  0
  5 25  1  0
  5 15  1  0
  6  9  1  0
  7  3  2  0
  8 11  1  0
  9  1  1  0
  9 18  1  0
 10  7  1  0
 11  6  2  0
 11 17  1  0
 12 25  2  0
 13  2  1  0
 13 21  1  0
 15  4  1  0
 16  8  1  0
 17 19  2  0
 18 26  1  0
 19  1  1  0
 21 18  2  0
 21  7  1  0
 22 20  1  0
 24  2  1  0
 25 16  1  0
 26 23  2  0
  3 27  1  0
  4 28  1  0
  4 29  1  0
  5 30  1  0
  6 31  1  0
  9 32  1  0
 13 33  1  0
 15 34  1  0
 15 35  1  0
 16 36  1  0
 16 37  1  0
 17 38  1  0
 19 39  1  0
 20 40  1  0
 20 41  1  0
 20 42  1  0
 22 43  1  0
 22 44  1  0
 22 45  1  0
 23 46  1  0
 24 47  1  0
 24 48  1  0
 24 49  1  0
M  END
>  <mol_id>  (12) 
2026-08-23-6tgu-s0-n100-prep-0012

>  <rmsd_to_ref>  (12) 


$$$$

     RDKit          3D

 31 34  0  0  0  0  0  0  0  0999 V2000
   -1.0430   18.6800   44.8740 C   0  0  0  0  0  0  0  0  0  0  0  0
    1.3950   17.6990   41.6540 N   0  0  0  0  0  0  0  0  0  0  0  0
   -0.1240   16.9330   43.7830 C   0  0  0  0  0  0  0  0  0  0  0  0
    2.9330   18.2710   39.2110 C   0  0  0  0  0  0  0  0  0  0  0  0
    3.2320   19.4030   37.2030 C   0  0  0  0  0  0  0  0  0  0  0  0
    1.4800   18.9770   41.0580 C   0  0  0  0  0  0  0  0  0  0  0  0
    2.1620   19.1770   39.8250 C   0  0  0  0  0  0  0  0  0  0  0  0
    3.4510   18.3000   37.9990 C   0  0  0  0  0  0  0  0  0  0  0  0
    2.7040   20.5000   37.6960 C   0  0  0  0  0  0  0  0  0  0  0  0
    0.7040   21.5550   41.6970 Cl  0  0  0  0  0  0  0  0  0  0  0  0
    0.7100   19.9280   41.9260 C   0  0  0  0  0  0  0  0  0  0  0  0
    0.1130   19.2440   42.9730 C   0  0  0  0  0  0  0  0  0  0  0  0
    2.8750   21.0030   36.7150 O   0  0  0  0  0  0  0  0  0  0  0  0
    2.9430   15.3310   38.0690 C   0  0  0  0  0  0  0  0  0  0  0  0
    3.7830   16.0660   37.4320 C   0  0  0  0  0  0  0  0  0  0  0  0
    0.0630   15.2620   43.4960 S   0  0  0  0  0  0  0  0  0  0  0  0
    4.2580   17.2110   37.3520 O   0  0  0  0  0  0  0  0  0  0  0  0
   -0.6500   19.6360   43.9870 N   0  0  0  0  0  0  0  0  0  0  0  0
    3.6390   15.0020   37.0030 N   0  0  0  0  0  0  0  0  0  0  0  0
   -0.8320   17.3260   44.8090 N   0  0  0  0  0  0  0  0  0  0  0  0
    0.4960   17.9050   42.7470 C   0  0  0  0  0  0  0  0  0  0  0  0
    2.0750   20.3780   38.9770 C   0  0  0  0  0  0  0  0  0  0  0  0
   -1.5993   19.0385   45.7526 H   0  0  0  0  0  0  0  0  0  0  0  0
    3.1680   17.3738   39.8025 H   0  0  0  0  0  0  0  0  0  0  0  0
    3.5036   19.3643   36.1378 H   0  0  0  0  0  0  0  0  0  0  0  0
    3.1864   14.9153   39.0579 H   0  0  0  0  0  0  0  0  0  0  0  0
    1.8873   15.3733   38.3753 H   0  0  0  0  0  0  0  0  0  0  0  0
   -0.9323   20.6203   44.0978 H   0  0  0  0  0  0  0  0  0  0  0  0
    1.3515   18.0351   43.4261 H   0  0  0  0  0  0  0  0  0  0  0  0
    2.4748   21.2025   39.5855 H   0  0  0  0  0  0  0  0  0  0  0  0
    1.0139   20.3542   38.6881 H   0  0  0  0  0  0  0  0  0  0  0  0
  3 20  1  0
  4  7  2  0
  5  9  1  0
  5  8  2  0
  6  2  2  0
  6 11  1  0
  7  6  1  0
  8  4  1  0
  9 22  1  0
 10 11  1  0
 11 12  2  0
 12 18  1  0
 13  9  2  0
 15 14  1  0
 16  3  2  0
 17 15  1  0
 17  8  1  0
 18  1  1  0
 19 15  2  0
 19 14  1  0
 20  1  2  0
 21  2  1  0
 21 12  1  0
 21  3  1  0
 22  7  1  0
  1 23  1  0
  4 24  1  0
  5 25  1  0
 14 26  1  0
 14 27  1  0
 18 28  1  0
 21 29  1  0
 22 30  1  0
 22 31  1  0
M  END
>  <mol_id>  (13) 
2026-08-23-6tgu-s0-n100-prep-0013

>  <rmsd_to_ref>  (13) 


$$$$

     RDKit          3D

 31 32  0  0  0  0  0  0  0  0999 V2000
    1.5150   17.6890   41.0770 C   0  0  0  0  0  0  0  0  0  0  0  0
    1.0480   18.9410   41.2500 C   0  0  0  0  0  0  0  0  0  0  0  0
    2.3970   18.8080   39.2190 C   0  0  0  0  0  0  0  0  0  0  0  0
   -0.1240   16.2840   43.9870 N   0  0  0  0  0  0  0  0  0  0  0  0
   -0.6090   18.9060   44.6340 C   0  0  0  0  0  0  0  0  0  0  0  0
    0.2870   17.2020   43.1420 C   0  0  0  0  0  0  0  0  0  0  0  0
    2.4370   21.2680   36.9460 O   0  0  0  0  0  1  0  0  0  0  0  0
    2.6390   18.9640   37.7710 C   0  0  0  0  0  0  0  0  0  0  0  0
    1.6680   20.0770   40.1030 S   0  0  0  0  0  0  0  0  0  0  0  0
    4.0720   20.8500   35.5840 O   0  0  0  0  0  0  0  0  0  0  0  0
    3.4050   20.4780   36.6190 C   0  0  0  0  0  0  0  0  0  0  0  0
   -0.0150   19.4390   42.1420 C   0  0  0  0  0  0  0  0  0  0  0  0
    3.8030   19.4270   37.4010 C   0  0  0  0  0  0  0  0  0  0  0  0
   -0.0420   18.5020   43.3770 N   0  0  0  0  0  0  0  0  0  0  0  0
    1.0250   16.7550   42.0850 N   0  0  0  0  0  0  0  0  0  0  0  0
   -0.1520   20.9060   42.5100 C   0  0  0  0  0  0  0  0  0  0  0  0
    2.4750   17.2780   39.8320 S   0  0  0  0  0  0  0  0  0  0  0  0
    3.3545   19.1611   39.6295 H   0  0  0  0  0  0  0  0  0  0  0  0
    0.1137   15.2945   43.8282 H   0  0  0  0  0  0  0  0  0  0  0  0
   -0.6839   16.5538   44.8084 H   0  0  0  0  0  0  0  0  0  0  0  0
   -0.0148   18.4826   45.4572 H   0  0  0  0  0  0  0  0  0  0  0  0
   -0.6019   20.0038   44.7035 H   0  0  0  0  0  0  0  0  0  0  0  0
   -1.6443   18.5409   44.7035 H   0  0  0  0  0  0  0  0  0  0  0  0
    2.5157   17.9740   37.3077 H   0  0  0  0  0  0  0  0  0  0  0  0
    1.9172   19.7281   37.4467 H   0  0  0  0  0  0  0  0  0  0  0  0
   -0.9126   19.4041   41.5071 H   0  0  0  0  0  0  0  0  0  0  0  0
    4.3736   18.6833   36.8253 H   0  0  0  0  0  0  0  0  0  0  0  0
    4.4782   19.6947   38.2271 H   0  0  0  0  0  0  0  0  0  0  0  0
   -0.1617   21.0100   43.6050 H   0  0  0  0  0  0  0  0  0  0  0  0
    0.6975   21.4688   42.0958 H   0  0  0  0  0  0  0  0  0  0  0  0
   -1.0910   21.3018   42.0958 H   0  0  0  0  0  0  0  0  0  0  0  0
  1  2  2  0
  1 15  1  0
  2 12  1  0
  3  8  1  0
  3 17  1  0
  3  9  1  0
  6 14  1  0
  6  4  1  0
  9  2  1  0
 10 11  2  0
 11  7  1  0
 11 13  1  0
 12 16  1  0
 12 14  1  0
 13  8  1  0
 14  5  1  0
 15  6  2  0
 17  1  1  0
  3 18  1  0
  4 19  1  0
  4 20  1  0
  5 21  1  0
  5 22  1  0
  5 23  1  0
  8 24  1  0
  8 25  1  0
 12 26  1  0
 13 27  1  0
 13 28  1  0
 16 29  1  0
 16 30  1  0
 16 31  1  0
M  CHG  1   7  -1
M  END
>  <mol_id>  (14) 
2026-08-23-6tgu-s0-n100-prep-0014

>  <rmsd_to_ref>  (14) 


$$$$

     RDKit          3D

 44 47  0  0  0  0  0  0  0  0999 V2000
   -0.5510   17.1010   45.7860 C   0  0  0  0  0  0  0  0  0  0  0  0
    1.4860   18.0920   41.2230 C   0  0  0  0  0  0  0  0  0  0  0  0
    1.4560   15.5130   41.9630 S   0  0  0  0  0  0  0  0  0  0  0  0
    0.2040   17.3960   43.3820 C   0  0  0  0  0  0  0  0  0  0  0  0
    3.3900   18.9170   38.5760 C   0  0  0  0  0  0  0  0  0  0  0  0
    2.2320   17.2580   40.1790 C   0  0  0  0  0  0  0  0  0  0  0  0
    1.6050   20.1810   39.9120 C   0  0  0  0  0  0  0  0  0  0  0  0
    1.3060   19.5030   40.9300 C   0  0  0  0  0  0  0  0  0  0  0  0
    3.8150   19.7470   36.1750 C   0  0  0  0  0  0  0  0  0  0  0  0
    3.0190   20.9680   36.3150 C   0  0  0  0  0  0  0  0  0  0  0  0
    3.7820   18.7430   37.0710 C   0  0  0  0  0  0  0  0  0  0  0  0
   -0.0010   18.6290   43.5790 N   0  0  0  0  0  0  0  0  0  0  0  0
    2.1420   15.8040   40.4950 C   0  0  0  0  0  0  0  0  0  0  0  0
   -0.2990   16.4290   44.4310 C   0  0  0  0  0  0  0  0  0  0  0  0
    2.9240   17.6520   39.0190 C   0  0  0  0  0  0  0  0  0  0  0  0
   -1.5230   16.5010   46.6070 O   0  0  0  0  0  0  0  0  0  0  0  0
    2.3710   21.1560   37.7250 C   0  0  0  0  0  0  0  0  0  0  0  0
    1.0170   17.0330   42.2000 C   0  0  0  0  0  0  0  0  0  0  0  0
   -0.9160   20.5030   44.4190 O   0  0  0  0  0  0  0  0  0  0  0  0
    2.4320   19.9980   38.6920 C   0  0  0  0  0  0  0  0  0  0  0  0
   -1.0990   18.4880   45.5130 N   0  0  0  0  0  0  0  0  0  0  0  0
   -0.6540   19.1590   44.5130 C   0  0  0  0  0  0  0  0  0  0  0  0
    2.7920   21.8020   35.4730 O   0  0  0  0  0  0  0  0  0  0  0  0
    4.2790   19.4060   39.8010 C   0  0  0  0  0  0  0  0  0  0  0  0
    0.4155   17.0465   46.3085 H   0  0  0  0  0  0  0  0  0  0  0  0
    1.1269   21.1715   39.9314 H   0  0  0  0  0  0  0  0  0  0  0  0
    0.8261   20.0781   41.7356 H   0  0  0  0  0  0  0  0  0  0  0  0
    3.5223   19.3033   35.2120 H   0  0  0  0  0  0  0  0  0  0  0  0
    4.8356   20.1328   36.3148 H   0  0  0  0  0  0  0  0  0  0  0  0
    3.0754   18.0049   36.6637 H   0  0  0  0  0  0  0  0  0  0  0  0
    4.8539   18.5133   37.1626 H   0  0  0  0  0  0  0  0  0  0  0  0
    2.4959   15.0108   39.8200 H   0  0  0  0  0  0  0  0  0  0  0  0
   -1.2418   15.9861   44.0775 H   0  0  0  0  0  0  0  0  0  0  0  0
    0.4797   15.6663   44.5791 H   0  0  0  0  0  0  0  0  0  0  0  0
    2.2695   17.3166   38.2010 H   0  0  0  0  0  0  0  0  0  0  0  0
    3.9054   17.2554   39.3184 H   0  0  0  0  0  0  0  0  0  0  0  0
   -1.2875   16.6464   47.5575 H   0  0  0  0  0  0  0  0  0  0  0  0
    2.8724   22.0096   38.2045 H   0  0  0  0  0  0  0  0  0  0  0  0
    1.2983   21.2870   37.5197 H   0  0  0  0  0  0  0  0  0  0  0  0
    2.0566   19.1510   38.0989 H   0  0  0  0  0  0  0  0  0  0  0  0
   -1.8233   18.8892   46.1256 H   0  0  0  0  0  0  0  0  0  0  0  0
    3.7841   19.1338   40.7449 H   0  0  0  0  0  0  0  0  0  0  0  0
    5.2667   18.9242   39.7526 H   0  0  0  0  0  0  0  0  0  0  0  0
    4.4010   20.4981   39.7526 H   0  0  0  0  0  0  0  0  0  0  0  0
  1 16  1  0
  2 18  2  0
  3 18  1  0
  4 12  2  0
  4 14  1  0
  5 20  1  0
  5 15  1  0
  5 24  1  0
  6 13  2  0
  6  2  1  0
  7  8  2  0
  8  2  1  0
  9 10  1  0
  9 11  1  0
 10 17  1  0
 11  5  1  0
 12 22  1  0
 13  3  1  0
 14  1  1  0
 15  6  1  0
 18  4  1  0
 19 22  2  0
 20 17  1  0
 20  7  1  0
 21  1  1  0
 22 21  1  0
 23 10  2  0
  1 25  1  0
  7 26  1  0
  8 27  1  0
  9 28  1  0
  9 29  1  0
 11 30  1  0
 11 31  1  0
 13 32  1  0
 14 33  1  0
 14 34  1  0
 15 35  1  0
 15 36  1  0
 16 37  1  0
 17 38  1  0
 17 39  1  0
 20 40  1  0
 21 41  1  0
 24 42  1  0
 24 43  1  0
 24 44  1  0
M  END
>  <mol_id>  (15) 
2026-08-23-6tgu-s0-n100-prep-0015

>  <rmsd_to_ref>  (15) 


$$$$

     RDKit          3D

 49 49  0  0  0  0  0  0  0  0999 V2000
    1.8280   21.0840   39.5400 F   0  0  0  0  0  0  0  0  0  0  0  0
    1.1660   15.7340   42.2150 C   0  0  0  0  0  0  0  0  0  0  0  0
    3.0280   20.4800   37.0190 C   0  0  0  0  0  0  0  0  0  0  0  0
   -0.9210   19.4790   44.6600 O   0  0  0  0  0  0  0  0  0  0  0  0
   -0.0760   18.2200   46.2680 C   0  0  0  0  0  0  0  0  0  0  0  0
    3.1250   18.5290   38.5040 C   0  0  0  0  0  0  0  0  0  0  0  0
   -0.0610   20.6910   42.8100 C   0  0  0  0  0  0  0  0  0  0  0  0
   -1.2230   18.2130   45.3020 C   0  0  0  0  0  0  0  0  0  0  0  0
    0.6160   18.9150   41.3280 C   0  0  0  0  0  0  0  0  0  0  0  0
   -0.2190   19.5360   43.5610 C   0  0  0  0  0  0  0  0  0  0  0  0
   -0.2870   14.6830   44.1170 S   0  0  0  0  0  0  0  0  0  0  0  0
   -0.0550   18.2590   42.3760 C   0  0  0  0  0  0  0  0  0  0  0  0
    2.2640   13.6460   41.4440 C   0  0  0  0  0  0  0  0  0  0  0  0
    2.3310   15.3040   40.9950 S   0  0  0  0  0  0  0  0  0  0  0  0
   -0.2810   13.1210   44.6640 C   0  0  0  0  0  0  0  0  0  0  0  0
    0.7200   17.0490   42.6040 N   0  0  0  0  0  0  0  0  0  0  0  0
    1.9660   20.1290   39.1490 N   0  0  0  0  0  0  0  0  0  0  0  0
    3.7060   20.4020   36.1740 O   0  0  0  0  0  0  0  0  0  0  0  0
    2.4040   21.5200   36.7760 O   0  0  0  0  0  1  0  0  0  0  0  0
    3.1000   17.7080   39.2780 O   0  0  0  0  0  0  0  0  0  0  0  0
    1.4860   13.4320   42.4140 N   0  0  0  0  0  0  0  0  0  0  0  0
    2.7670   19.7050   38.1870 C   0  0  0  0  0  0  0  0  0  0  0  0
    0.5170   20.3810   41.5770 C   0  0  0  0  0  0  0  0  0  0  0  0
    3.7600   17.6710   37.3290 C   0  0  0  0  0  0  0  0  0  0  0  0
    3.6760   17.6020   36.3510 N   0  0  0  0  0  0  0  0  0  0  0  0
    0.8490   14.6560   42.8540 C   0  0  0  0  0  0  0  0  0  0  0  0
    4.6560   17.0140   37.8100 O   0  0  0  0  0  0  0  0  0  0  0  0
   -0.4636   18.2176   47.2974 H   0  0  0  0  0  0  0  0  0  0  0  0
    0.5440   17.3256   46.1076 H   0  0  0  0  0  0  0  0  0  0  0  0
    0.5330   19.1219   46.1076 H   0  0  0  0  0  0  0  0  0  0  0  0
   -1.0441   21.1563   42.6453 H   0  0  0  0  0  0  0  0  0  0  0  0
    0.5945   21.3885   43.3520 H   0  0  0  0  0  0  0  0  0  0  0  0
   -2.1996   18.2202   45.8082 H   0  0  0  0  0  0  0  0  0  0  0  0
   -1.3076   17.3353   44.6444 H   0  0  0  0  0  0  0  0  0  0  0  0
    0.1442   18.6653   40.3662 H   0  0  0  0  0  0  0  0  0  0  0  0
    1.6693   18.6005   41.2871 H   0  0  0  0  0  0  0  0  0  0  0  0
    0.5008   19.4064   44.3826 H   0  0  0  0  0  0  0  0  0  0  0  0
   -1.0729   17.8540   42.2772 H   0  0  0  0  0  0  0  0  0  0  0  0
    2.8385   12.8554   40.9392 H   0  0  0  0  0  0  0  0  0  0  0  0
   -0.2810   13.1177   45.7640 H   0  0  0  0  0  0  0  0  0  0  0  0
   -1.1772   12.6001   44.2958 H   0  0  0  0  0  0  0  0  0  0  0  0
    0.6191   12.6070   44.2958 H   0  0  0  0  0  0  0  0  0  0  0  0
    1.1914   17.2183   43.5040 H   0  0  0  0  0  0  0  0  0  0  0  0
    2.2346   19.5615   39.9655 H   0  0  0  0  0  0  0  0  0  0  0  0
    1.8584   19.3015   37.7162 H   0  0  0  0  0  0  0  0  0  0  0  0
    1.5295   20.8099   41.5476 H   0  0  0  0  0  0  0  0  0  0  0  0
   -0.1326   20.8025   40.7958 H   0  0  0  0  0  0  0  0  0  0  0  0
    2.9399   18.1282   35.8589 H   0  0  0  0  0  0  0  0  0  0  0  0
    4.3242   17.0036   35.8194 H   0  0  0  0  0  0  0  0  0  0  0  0
  2 16  1  0
  2 26  2  0
  4  8  1  0
  6 20  2  0
  7 10  1  0
  8  5  1  0
  9 23  1  0
  9 12  1  0
 10  4  1  0
 11 15  1  0
 12 16  1  0
 12 10  1  0
 13 21  2  0
 14 13  1  0
 14  2  1  0
 17  1  1  0
 18  3  2  0
 19  3  1  0
 21 26  1  0
 22  3  1  0
 22  6  1  0
 22 17  1  0
 23  7  1  0
 24 27  2  0
 24  6  1  0
 25 24  1  0
 26 11  1  0
  5 28  1  0
  5 29  1  0
  5 30  1  0
  7 31  1  0
  7 32  1  0
  8 33  1  0
  8 34  1  0
  9 35  1  0
  9 36  1  0
 10 37  1  0
 12 38  1  0
 13 39  1  0
 15 40  1  0
 15 41  1  0
 15 42  1  0
 16 43  1  0
 17 44  1  0
 22 45  1  0
 23 46  1  0
 23 47  1  0
 25 48  1  0
 25 49  1  0
M  CHG  1  19  -1
M  END
>  <mol_id>  (16) 
2026-08-23-6tgu-s0-n100-prep-0016

>  <rmsd_to_ref>  (16) 


$$$$

     RDKit          3D

 64 67  0  0  0  0  0  0  0  0999 V2000
    4.7150   14.5490   35.8980 C   0  0  0  0  0  0  0  0  0  0  0  0
   -0.7900   16.1800   45.6980 O   0  0  0  0  0  0  0  0  0  0  0  0
    4.7240   11.0010   36.2630 O   0  0  0  0  0  0  0  0  0  0  0  0
    3.3640   16.9870   38.1660 C   0  0  0  0  0  0  0  0  0  0  0  0
    4.4990   12.1500   37.7570 O   0  0  0  0  0  0  0  0  0  0  0  0
   -1.7080   19.6450   45.8000 F   0  0  0  0  0  0  0  0  0  0  0  0
    3.2010   20.6540   40.5870 C   0  0  0  0  0  0  0  0  0  0  0  0
    2.2900   21.2020   36.9860 O   0  0  0  0  0  1  0  0  0  0  0  0
    4.9460   13.2680   35.6340 C   0  0  0  0  0  0  0  0  0  0  0  0
   -0.1950   19.2510   44.1090 C   0  0  0  0  0  0  0  0  0  0  0  0
    4.6300   12.3830   36.5630 C   0  0  0  0  0  0  0  0  0  0  0  0
    3.9580   13.0150   38.5890 C   0  0  0  0  0  0  0  0  0  0  0  0
    4.0690   16.3070   37.2240 N   0  0  0  0  0  0  0  0  0  0  0  0
    2.9840   16.4210   39.3410 N   0  0  0  0  0  0  0  0  0  0  0  0
    4.6370   10.6950   35.4870 O   0  0  0  0  0  0  0  0  0  0  0  0
    6.0640   12.9960   34.2150 S   0  0  0  0  0  0  0  0  0  0  0  0
    4.2970   14.9900   37.1280 C   0  0  0  0  0  0  0  0  0  0  0  0
   -0.7230   18.6130   45.3860 C   0  0  0  0  0  0  0  0  0  0  0  0
    1.0680   19.1470   41.0590 C   0  0  0  0  0  0  0  0  0  0  0  0
   -1.2110   20.0950   43.7650 C   0  0  0  0  0  0  0  0  0  0  0  0
    3.2140   20.4460   36.5700 C   0  0  0  0  0  0  0  0  0  0  0  0
   -1.2410   17.2270   44.9210 C   0  0  0  0  0  0  0  0  0  0  0  0
    2.2930   17.5170   40.0570 C   0  0  0  0  0  0  0  0  0  0  0  0
    4.0930   20.7920   35.8020 O   0  0  0  0  0  0  0  0  0  0  0  0
    1.9750   19.8660   40.1240 C   0  0  0  0  0  0  0  0  0  0  0  0
    1.4420   17.6160   41.2690 C   0  0  0  0  0  0  0  0  0  0  0  0
    3.0410   18.4670   38.1000 C   0  0  0  0  0  0  0  0  0  0  0  0
   -0.7690   17.0030   43.6100 O   0  0  0  0  0  0  0  0  0  0  0  0
    0.2350   18.5120   46.2460 F   0  0  0  0  0  0  0  0  0  0  0  0
    0.6240   20.1630   42.0350 C   0  0  0  0  0  0  0  0  0  0  0  0
    4.0960   14.2890   38.1510 C   0  0  0  0  0  0  0  0  0  0  0  0
    2.4790   18.6720   39.2830 C   0  0  0  0  0  0  0  0  0  0  0  0
    1.0420   21.0280   39.8800 O   0  0  0  0  0  0  0  0  0  0  0  0
   -0.3640   14.9850   45.1350 C   0  0  0  0  0  0  0  0  0  0  0  0
   -0.9420   21.4090   43.6440 O   0  0  0  0  0  1  0  0  0  0  0  0
   -2.1190   19.5980   43.0690 O   0  0  0  0  0  0  0  0  0  0  0  0
    0.7680   19.3920   43.1140 N   0  0  0  0  0  0  0  0  0  0  0  0
    0.8120   21.4860   41.2970 C   0  0  0  0  0  0  0  0  0  0  0  0
    3.4050   19.1850   36.8650 C   0  0  0  0  0  0  0  0  0  0  0  0
    3.9463   14.8735   35.1812 H   0  0  0  0  0  0  0  0  0  0  0  0
    5.7280   14.9740   35.8417 H   0  0  0  0  0  0  0  0  0  0  0  0
    3.2308   20.6732   41.6864 H   0  0  0  0  0  0  0  0  0  0  0  0
    4.1127   20.1723   40.2038 H   0  0  0  0  0  0  0  0  0  0  0  0
    3.1414   21.6834   40.2038 H   0  0  0  0  0  0  0  0  0  0  0  0
    4.1548   12.6878   35.1365 H   0  0  0  0  0  0  0  0  0  0  0  0
    4.2240   13.3976   36.4379 H   0  0  0  0  0  0  0  0  0  0  0  0
    2.8866   12.7880   38.6915 H   0  0  0  0  0  0  0  0  0  0  0  0
    4.4752   12.9283   39.5559 H   0  0  0  0  0  0  0  0  0  0  0  0
    4.4863   16.8844   36.4801 H   0  0  0  0  0  0  0  0  0  0  0  0
    4.3666    9.7439   35.5357 H   0  0  0  0  0  0  0  0  0  0  0  0
    7.3183   12.6908   34.6738 H   0  0  0  0  0  0  0  0  0  0  0  0
    0.0792   18.7689   40.7603 H   0  0  0  0  0  0  0  0  0  0  0  0
   -2.3383   17.2535   44.9937 H   0  0  0  0  0  0  0  0  0  0  0  0
    1.9998   17.4353   42.1997 H   0  0  0  0  0  0  0  0  0  0  0  0
    0.6139   16.8989   41.3695 H   0  0  0  0  0  0  0  0  0  0  0  0
    0.1247   16.5789   43.6490 H   0  0  0  0  0  0  0  0  0  0  0  0
   -0.1615   20.7526   42.5303 H   0  0  0  0  0  0  0  0  0  0  0  0
    3.9938   14.9625   39.0147 H   0  0  0  0  0  0  0  0  0  0  0  0
   -0.1102   14.2731   45.9342 H   0  0  0  0  0  0  0  0  0  0  0  0
   -1.1681   14.5658   44.5123 H   0  0  0  0  0  0  0  0  0  0  0  0
    0.5239   15.1690   44.5123 H   0  0  0  0  0  0  0  0  0  0  0  0
    1.6808   22.0389   41.6838 H   0  0  0  0  0  0  0  0  0  0  0  0
   -0.0363   22.1777   41.4061 H   0  0  0  0  0  0  0  0  0  0  0  0
    3.9019   18.5826   36.0903 H   0  0  0  0  0  0  0  0  0  0  0  0
  1 17  1  0
  4 14  2  0
  5 12  1  0
  9 16  1  0
  9  1  1  0
  9 11  1  0
 10 18  1  0
 11  3  1  0
 11  5  1  0
 13  4  1  0
 14 23  1  0
 15  3  1  0
 17 13  1  0
 17 31  2  0
 18  6  1  0
 18 29  1  0
 19 26  1  0
 19 30  1  0
 20 10  1  0
 21 39  1  0
 21  8  1  0
 22 28  1  0
 22 18  1  0
 22  2  1  0
 23 26  1  0
 24 21  2  0
 25  7  1  0
 25 19  1  0
 27  4  1  0
 27 32  1  0
 30 37  1  0
 31 12  1  0
 32 23  2  0
 32 25  1  0
 33 25  1  0
 33 38  1  0
 34  2  1  0
 35 20  1  0
 36 20  2  0
 37 10  2  3
 38 30  1  0
 39 27  2  3
  1 40  1  0
  1 41  1  0
  7 42  1  0
  7 43  1  0
  7 44  1  0
  9 45  1  0
 11 46  1  0
 12 47  1  0
 12 48  1  0
 13 49  1  0
 15 50  1  0
 16 51  1  0
 19 52  1  0
 22 53  1  0
 26 54  1  0
 26 55  1  0
 28 56  1  0
 30 57  1  0
 31 58  1  0
 34 59  1  0
 34 60  1  0
 34 61  1  0
 38 62  1  0
 38 63  1  0
 39 64  1  0
M  CHG  2   8  -1  35  -1
M  END
>  <mol_id>  (17) 
2026-08-23-6tgu-s0-n100-prep-0017

>  <rmsd_to_ref>  (17) 


$$$$

     RDKit          3D

 31 34  0  0  0  0  0  0  0  0999 V2000
   -0.8020   19.9810   43.4140 C   0  0  0  0  0  0  0  0  0  0  0  0
    1.3210   20.7100   40.7210 C   0  0  0  0  0  0  0  0  0  0  0  0
    3.9700   17.2080   37.2850 N   0  0  0  0  0  4  0  0  0  0  0  0
    0.7250   17.7350   42.6850 C   0  0  0  0  0  0  0  0  0  0  0  0
    0.4680   21.1350   41.6110 N   0  0  0  0  0  0  0  0  0  0  0  0
    3.3470   19.4590   36.7740 N   0  0  0  0  0  4  0  0  0  0  0  0
    0.9040   18.9680   41.9870 C   0  0  0  0  0  0  0  0  0  0  0  0
    1.6430   19.3730   40.8390 C   0  0  0  0  0  0  0  0  0  0  0  0
    2.4250   18.5060   39.9890 C   0  0  0  0  0  0  0  0  0  0  0  0
    2.3550   21.1960   37.7150 O   0  0  0  0  0  0  0  0  0  0  0  0
    3.2720   18.3930   37.5250 C   0  0  0  0  0  0  0  0  0  0  0  0
    2.7460   18.7110   38.6810 C   0  0  0  0  0  0  0  0  0  0  0  0
   -0.1400   17.6620   43.7470 C   0  0  0  0  0  0  0  0  0  0  0  0
    2.7460   19.9140   37.9160 C   0  0  0  0  0  0  0  0  0  0  0  0
    0.1170   20.0640   42.3730 C   0  0  0  0  0  0  0  0  0  0  0  0
   -0.9240   18.7840   44.0900 C   0  0  0  0  0  0  0  0  0  0  0  0
   -1.4173   20.8494   43.6920 H   0  0  0  0  0  0  0  0  0  0  0  0
    1.7472   21.3608   39.9433 H   0  0  0  0  0  0  0  0  0  0  0  0
    4.2264   16.7727   38.1826 H   0  0  0  0  0  0  0  0  0  0  0  0
    3.3747   16.5617   36.7477 H   0  0  0  0  0  0  0  0  0  0  0  0
    4.8239   17.4153   36.7477 H   0  0  0  0  0  0  0  0  0  0  0  0
    1.2827   16.8408   42.3699 H   0  0  0  0  0  0  0  0  0  0  0  0
    4.2895   19.8191   36.5669 H   0  0  0  0  0  0  0  0  0  0  0  0
    3.0118   19.5664   35.8060 H   0  0  0  0  0  0  0  0  0  0  0  0
    3.3910   18.4002   40.5044 H   0  0  0  0  0  0  0  0  0  0  0  0
    1.7055   17.6830   39.8670 H   0  0  0  0  0  0  0  0  0  0  0  0
    2.2194   21.6406   38.5891 H   0  0  0  0  0  0  0  0  0  0  0  0
    1.7954   18.2496   38.3754 H   0  0  0  0  0  0  0  0  0  0  0  0
   -0.2222   16.7323   44.3291 H   0  0  0  0  0  0  0  0  0  0  0  0
   -0.7102   19.0010   45.1470 H   0  0  0  0  0  0  0  0  0  0  0  0
   -1.9378   18.4582   43.8143 H   0  0  0  0  0  0  0  0  0  0  0  0
  1 16  1  0
  2  8  1  0
  2  5  2  0
  4 13  2  0
  5 15  1  0
  6 11  1  0
  6 14  1  0
  7 15  1  0
  7  4  1  0
  8  7  2  0
  9  8  1  0
 11  3  1  0
 11 14  1  0
 11 12  1  0
 12  9  1  0
 13 16  1  0
 14 10  1  0
 14 12  1  0
 15  1  2  0
  1 17  1  0
  2 18  1  0
  3 19  1  0
  3 20  1  0
  3 21  1  0
  4 22  1  0
  6 23  1  0
  6 24  1  0
  9 25  1  0
  9 26  1  0
 10 27  1  0
 12 28  1  0
 13 29  1  0
 16 30  1  0
 16 31  1  0
M  CHG  2   3   1   6   1
M  END
>  <mol_id>  (18) 
2026-08-23-6tgu-s0-n100-prep-0018

>  <rmsd_to_ref>  (18) 


$$$$

     RDKit          3D

 32 34  0  0  0  0  0  0  0  0999 V2000
    3.5400   19.8290   36.8030 C   0  0  0  0  0  0  0  0  0  0  0  0
    1.0390   13.1030   42.9260 C   0  0  0  0  0  0  0  0  0  0  0  0
    2.6860   20.1900   37.9260 C   0  0  0  0  0  0  0  0  0  0  0  0
    1.2040   18.6480   41.3050 C   0  0  0  0  0  0  0  0  0  0  0  0
    0.5030   15.6130   43.3440 O   0  0  0  0  0  0  0  0  0  0  0  0
    0.9870   14.4470   42.7100 C   0  0  0  0  0  0  0  0  0  0  0  0
    0.6060   16.9810   42.7100 C   0  0  0  0  0  0  0  0  0  0  0  0
    1.1310   20.7790   40.4420 C   0  0  0  0  0  0  0  0  0  0  0  0
    0.4980   19.4640   42.0460 N   0  0  0  0  0  0  0  0  0  0  0  0
    3.0350   17.9000   38.7010 C   0  0  0  0  0  0  0  0  0  0  0  0
    1.2740   17.2920   41.6290 N   0  0  0  0  0  0  0  0  0  0  0  0
    3.8130   17.6060   37.6130 C   0  0  0  0  0  0  0  0  0  0  0  0
    4.0350   18.5390   36.6670 N   0  0  0  0  0  0  0  0  0  0  0  0
    2.0980   21.4380   37.8860 Cl  0  0  0  0  0  0  0  0  0  0  0  0
   -0.8460   17.4160   44.7850 C   0  0  0  0  0  0  0  0  0  0  0  0
   -0.7530   19.9660   43.8600 O   0  0  0  0  0  0  0  0  0  0  0  0
    1.6290   19.5120   40.1330 C   0  0  0  0  0  0  0  0  0  0  0  0
    2.4800   19.1820   38.9250 C   0  0  0  0  0  0  0  0  0  0  0  0
    3.7500   20.6900   35.9460 O   0  0  0  0  0  0  0  0  0  0  0  0
    0.4590   20.7730   41.5920 N   0  0  0  0  0  0  0  0  0  0  0  0
   -0.1980   19.1300   43.1970 C   0  0  0  0  0  0  0  0  0  0  0  0
   -0.1350   17.8600   43.5430 N   0  0  0  0  0  0  0  0  0  0  0  0
    1.5168   12.4450   42.1852 H   0  0  0  0  0  0  0  0  0  0  0  0
    0.6032   12.6758   43.8412 H   0  0  0  0  0  0  0  0  0  0  0  0
    3.5546   20.6160   38.4496 H   0  0  0  0  0  0  0  0  0  0  0  0
    1.4666   14.7010   41.7532 H   0  0  0  0  0  0  0  0  0  0  0  0
    1.2755   21.6707   39.8143 H   0  0  0  0  0  0  0  0  0  0  0  0
    2.8327   17.1043   39.4331 H   0  0  0  0  0  0  0  0  0  0  0  0
    4.2579   16.6051   37.5113 H   0  0  0  0  0  0  0  0  0  0  0  0
   -0.2908   17.7627   45.6691 H   0  0  0  0  0  0  0  0  0  0  0  0
   -1.8603   17.8415   44.7988 H   0  0  0  0  0  0  0  0  0  0  0  0
   -0.9088   16.3179   44.7988 H   0  0  0  0  0  0  0  0  0  0  0  0
  1  3  1  0
  3 14  1  0
  3 18  1  0
  4 11  1  0
  4  9  1  0
  6  2  2  3
  6  5  1  0
  7  5  1  0
  7 22  1  0
  8 20  2  0
  9 21  1  0
 10 18  2  0
 11  7  2  0
 12 10  1  0
 13  1  1  0
 13 12  2  0
 17  8  1  0
 17  4  2  0
 18 17  1  0
 19  1  2  0
 20  9  1  0
 21 22  1  0
 21 16  2  0
 22 15  1  0
  2 23  1  0
  2 24  1  0
  3 25  1  0
  6 26  1  0
  8 27  1  0
 10 28  1  0
 12 29  1  0
 15 30  1  0
 15 31  1  0
 15 32  1  0
M  END
>  <mol_id>  (19) 
2026-08-23-6tgu-s0-n100-prep-0019

>  <rmsd_to_ref>  (19) 


$$$$

     RDKit          3D

 38 41  0  0  0  0  0  0  0  0999 V2000
    2.2180   15.8070   40.5510 C   0  0  0  0  0  0  0  0  0  0  0  0
    0.3520   20.5340   42.1640 C   0  0  0  0  0  0  0  0  0  0  0  0
   -0.6500   20.3300   43.9800 N   0  0  0  0  0  0  0  0  0  0  0  0
    0.3280   19.2100   42.4260 C   0  0  0  0  0  0  0  0  0  0  0  0
    2.0040   19.2950   39.2190 C   0  0  0  0  0  0  0  0  0  0  0  0
    1.5200   15.9160   41.9550 C   0  0  0  0  0  0  0  0  0  0  0  0
    2.6710   14.5620   40.2330 N   0  0  0  0  0  4  0  0  0  0  0  0
    3.2110   17.7860   37.8120 C   0  0  0  0  0  0  0  0  0  0  0  0
    3.0720   20.1170   37.2430 C   0  0  0  0  0  0  0  0  0  0  0  0
    3.5000   18.8610   36.9660 C   0  0  0  0  0  0  0  0  0  0  0  0
    1.0040   20.7990   40.9280 C   0  0  0  0  0  0  0  0  0  0  0  0
   -0.5060   17.8120   44.4680 C   0  0  0  0  0  0  0  0  0  0  0  0
    2.3240   20.3210   38.3170 C   0  0  0  0  0  0  0  0  0  0  0  0
    1.0260   18.4550   41.4330 C   0  0  0  0  0  0  0  0  0  0  0  0
    0.9830   17.1820   41.8570 N   0  0  0  0  0  4  0  0  0  0  0  0
    2.3590   16.8650   39.8400 N   0  0  0  0  0  0  0  0  0  0  0  0
   -0.3200   19.0730   43.6640 C   0  0  0  0  0  0  0  0  0  0  0  0
    2.4910   17.9890   39.0070 C   0  0  0  0  0  0  0  0  0  0  0  0
    3.4010   21.1190   36.4730 O   0  0  0  0  0  0  0  0  0  0  0  0
    1.3630   19.5330   40.5020 C   0  0  0  0  0  0  0  0  0  0  0  0
   -0.3170   21.2270   43.1200 N   0  0  0  0  0  0  0  0  0  0  0  0
    1.2485   15.5727   40.0872 H   0  0  0  0  0  0  0  0  0  0  0  0
    0.7405   15.1507   42.0840 H   0  0  0  0  0  0  0  0  0  0  0  0
    2.1855   15.7602   42.8169 H   0  0  0  0  0  0  0  0  0  0  0  0
    2.8626   14.0353   41.0971 H   0  0  0  0  0  0  0  0  0  0  0  0
    1.9561   14.0672   39.6807 H   0  0  0  0  0  0  0  0  0  0  0  0
    3.5367   14.6423   39.6807 H   0  0  0  0  0  0  0  0  0  0  0  0
    3.5480   16.7740   37.5431 H   0  0  0  0  0  0  0  0  0  0  0  0
    4.0887   18.6833   36.0539 H   0  0  0  0  0  0  0  0  0  0  0  0
    1.1787   21.7668   40.4352 H   0  0  0  0  0  0  0  0  0  0  0  0
   -0.4705   18.0526   45.5408 H   0  0  0  0  0  0  0  0  0  0  0  0
   -1.4802   17.3626   44.2250 H   0  0  0  0  0  0  0  0  0  0  0  0
    0.2969   17.1004   44.2250 H   0  0  0  0  0  0  0  0  0  0  0  0
    1.9390   21.3334   38.5091 H   0  0  0  0  0  0  0  0  0  0  0  0
    0.8650   17.3680   42.8632 H   0  0  0  0  0  0  0  0  0  0  0  0
    0.5980   16.9179   40.9389 H   0  0  0  0  0  0  0  0  0  0  0  0
    2.6984   17.3971   40.6540 H   0  0  0  0  0  0  0  0  0  0  0  0
    3.9601   20.9641   35.6708 H   0  0  0  0  0  0  0  0  0  0  0  0
  1  7  1  0
  1  6  1  0
  2  4  1  0
  2 21  1  0
  4 17  2  0
  5 20  1  0
  8 18  2  0
  9 13  1  0
 10  9  2  0
 10  8  1  0
 11  2  2  0
 13  5  2  0
 14 15  1  0
 14  4  1  0
 15  6  1  0
 16  1  1  0
 17  3  1  0
 17 12  1  0
 18  5  1  0
 18 16  1  0
 19  9  1  0
 20 11  1  0
 20 14  2  0
 21  3  2  0
  1 22  1  0
  6 23  1  0
  6 24  1  0
  7 25  1  0
  7 26  1  0
  7 27  1  0
  8 28  1  0
 10 29  1  0
 11 30  1  0
 12 31  1  0
 12 32  1  0
 12 33  1  0
 13 34  1  0
 15 35  1  0
 15 36  1  0
 16 37  1  0
 19 38  1  0
M  CHG  2   7   1  15   1
M  END
>  <mol_id>  (20) 
2026-08-23-6tgu-s0-n100-prep-0020

>  <rmsd_to_ref>  (20) 


$$$$

     RDKit          3D

 40 44  0  0  0  0  0  0  0  0999 V2000
    2.4210   15.5520   40.7220 C   0  0  0  0  0  0  0  0  0  0  0  0
    2.2420   19.1490   39.2410 C   0  0  0  0  0  0  0  0  0  0  0  0
   -0.5440   16.8240   44.7240 C   0  0  0  0  0  0  0  0  0  0  0  0
    1.5140   18.8770   40.4450 C   0  0  0  0  0  0  0  0  0  0  0  0
   -1.3160   20.4070   43.9790 N   0  0  0  0  0  0  0  0  0  0  0  0
    1.6760   13.3820   42.3060 C   0  0  0  0  0  0  0  0  0  0  0  0
   -1.1450   19.1830   44.5630 N   0  0  0  0  0  0  0  0  0  0  0  0
    3.8660   20.5970   35.7100 O   0  0  0  0  0  0  0  0  0  0  0  0
    1.2040   21.1150   40.0750 C   0  0  0  0  0  0  0  0  0  0  0  0
    0.9350   17.2900   41.9840 C   0  0  0  0  0  0  0  0  0  0  0  0
    3.2600   20.1610   36.8370 C   0  0  0  0  0  0  0  0  0  0  0  0
    0.1850   18.3380   42.7360 C   0  0  0  0  0  0  0  0  0  0  0  0
   -0.4830   18.1610   44.0030 C   0  0  0  0  0  0  0  0  0  0  0  0
    2.6030   13.2410   41.2460 C   0  0  0  0  0  0  0  0  0  0  0  0
    1.1320   14.6240   42.6080 C   0  0  0  0  0  0  0  0  0  0  0  0
    2.0410   20.5020   38.9270 C   0  0  0  0  0  0  0  0  0  0  0  0
    0.9660   19.9110   40.9440 C   0  0  0  0  0  0  0  0  0  0  0  0
    2.9190   14.2830   40.4360 C   0  0  0  0  0  0  0  0  0  0  0  0
    2.5640   20.9660   37.6730 C   0  0  0  0  0  0  0  0  0  0  0  0
    0.1580   19.6380   42.0930 C   0  0  0  0  0  0  0  0  0  0  0  0
    3.1110   18.3840   38.3890 C   0  0  0  0  0  0  0  0  0  0  0  0
   -0.6310   20.6550   42.8480 C   0  0  0  0  0  0  0  0  0  0  0  0
    1.4360   17.8060   40.8050 N   0  0  0  0  0  0  0  0  0  0  0  0
    1.4930   15.8150   41.7980 C   0  0  0  0  0  0  0  0  0  0  0  0
    3.5530   18.7790   37.2220 C   0  0  0  0  0  0  0  0  0  0  0  0
    2.7505   16.3957   40.0979 H   0  0  0  0  0  0  0  0  0  0  0  0
   -0.5363   16.9929   45.8109 H   0  0  0  0  0  0  0  0  0  0  0  0
   -1.4671   16.2968   44.4414 H   0  0  0  0  0  0  0  0  0  0  0  0
    0.3273   16.2149   44.4414 H   0  0  0  0  0  0  0  0  0  0  0  0
    1.3838   12.5006   42.8958 H   0  0  0  0  0  0  0  0  0  0  0  0
    3.7124   21.5216   35.3914 H   0  0  0  0  0  0  0  0  0  0  0  0
    0.8718   22.1539   40.2174 H   0  0  0  0  0  0  0  0  0  0  0  0
    3.0785   12.2640   41.0746 H   0  0  0  0  0  0  0  0  0  0  0  0
    0.4315   14.7255   43.4500 H   0  0  0  0  0  0  0  0  0  0  0  0
    3.5644   14.1264   39.5591 H   0  0  0  0  0  0  0  0  0  0  0  0
    2.3929   22.0128   37.3815 H   0  0  0  0  0  0  0  0  0  0  0  0
    3.4283   17.3925   38.7443 H   0  0  0  0  0  0  0  0  0  0  0  0
   -0.6542   21.6808   42.4514 H   0  0  0  0  0  0  0  0  0  0  0  0
    1.7976   17.1022   40.1457 H   0  0  0  0  0  0  0  0  0  0  0  0
    4.1179   18.1046   36.5617 H   0  0  0  0  0  0  0  0  0  0  0  0
  1 24  2  0
  2  4  2  0
  4 23  1  0
  4 17  1  0
  5  7  1  0
  6 15  2  0
  8 11  1  0
  9 17  1  0
 10 12  2  0
 11 25  1  0
 11 19  2  0
 12 13  1  0
 13  7  2  0
 13  3  1  0
 14  6  1  0
 16  2  1  0
 16  9  2  0
 17 20  2  0
 18  1  1  0
 18 14  2  0
 19 16  1  0
 20 12  1  0
 20 22  1  0
 21  2  1  0
 22  5  2  0
 23 10  1  0
 24 10  1  0
 24 15  1  0
 25 21  2  0
  1 26  1  0
  3 27  1  0
  3 28  1  0
  3 29  1  0
  6 30  1  0
  8 31  1  0
  9 32  1  0
 14 33  1  0
 15 34  1  0
 18 35  1  0
 19 36  1  0
 21 37  1  0
 22 38  1  0
 23 39  1  0
 25 40  1  0
M  END
>  <mol_id>  (21) 
2026-08-23-6tgu-s0-n100-prep-0021

>  <rmsd_to_ref>  (21) 


$$$$

     RDKit          3D

 57 58  0  0  0  0  0  0  0  0999 V2000
    3.1480   18.5300   38.0050 C   0  0  0  0  0  0  0  0  0  0  0  0
   -1.1760   17.0560   46.4000 C   0  0  0  0  0  0  0  0  0  0  0  0
    1.4620   19.4800   41.1830 C   0  0  0  0  0  0  0  0  0  0  0  0
   -0.8370   14.5670   46.5310 C   0  0  0  0  0  0  0  0  0  0  0  0
    3.7070   17.6930   37.1210 C   0  0  0  0  0  0  0  0  0  0  0  0
    2.9760   19.9780   37.4440 C   0  0  0  0  0  0  0  0  0  0  0  0
   -0.1660   20.9700   42.1500 C   0  0  0  0  0  0  0  0  0  0  0  0
    3.4910   21.3390   35.6490 C   0  0  0  0  0  0  0  0  0  0  0  0
    2.7380   18.3020   39.2610 C   0  0  0  0  0  0  0  0  0  0  0  0
    3.4370   13.7620   39.8380 C   0  0  0  0  0  0  0  0  0  0  0  0
    2.7060   16.8510   39.5610 C   0  0  0  0  0  0  0  0  0  0  0  0
    2.8780   12.5920   39.8320 O   0  0  0  0  0  0  0  0  0  0  0  0
   -0.3600   20.0470   43.2210 C   0  0  0  0  0  0  0  0  0  0  0  0
    4.3110   21.3670   34.7150 O   0  0  0  0  0  0  0  0  0  0  0  0
    2.3010   16.4770   40.6170 O   0  0  0  0  0  0  0  0  0  0  0  0
    3.6240   16.3230   37.4150 C   0  0  0  0  0  0  0  0  0  0  0  0
    2.6960   12.6320   37.2830 O   0  0  0  0  0  0  0  0  0  0  0  0
    0.7760   20.7470   41.1410 C   0  0  0  0  0  0  0  0  0  0  0  0
   -0.5420   15.8250   45.7980 C   0  0  0  0  0  0  0  0  0  0  0  0
    3.5030   13.7220   37.3460 C   0  0  0  0  0  0  0  0  0  0  0  0
    1.2990   18.5360   42.2440 C   0  0  0  0  0  0  0  0  0  0  0  0
    3.0760   15.8640   38.5880 N   0  0  0  0  0  0  0  0  0  0  0  0
    2.2470   20.9180   37.8900 O   0  0  0  0  0  0  0  0  0  0  0  0
    2.4510   21.9370   35.7990 O   0  0  0  0  0  1  0  0  0  0  0  0
    2.9670   14.4100   38.5800 C   0  0  0  0  0  0  0  0  0  0  0  0
   -1.0970   17.9970   45.3410 N   0  0  0  0  0  4  0  0  0  0  0  0
   -1.2830   14.9380   47.7740 O   0  0  0  0  0  0  0  0  0  0  0  0
    3.7510   20.3160   36.5260 O   0  0  0  0  0  0  0  0  0  0  0  0
    0.3370   18.7590   43.2450 C   0  0  0  0  0  0  0  0  0  0  0  0
    2.4020   19.3390   40.1270 N   0  0  0  0  0  0  0  0  0  0  0  0
   -0.2740   18.4590   46.5440 C   0  0  0  0  0  0  0  0  0  0  0  0
   -1.2000   20.3120   44.0850 O   0  0  0  0  0  0  0  0  0  0  0  0
   -1.8652   16.5899   47.1196 H   0  0  0  0  0  0  0  0  0  0  0  0
    0.7116   18.9398   40.5871 H   0  0  0  0  0  0  0  0  0  0  0  0
    0.0736   13.9563   46.6202 H   0  0  0  0  0  0  0  0  0  0  0  0
   -1.5892   13.9640   46.0012 H   0  0  0  0  0  0  0  0  0  0  0  0
    4.2053   18.0603   36.2117 H   0  0  0  0  0  0  0  0  0  0  0  0
   -0.7761   21.8847   42.1172 H   0  0  0  0  0  0  0  0  0  0  0  0
    3.1162   14.3411   40.7164 H   0  0  0  0  0  0  0  0  0  0  0  0
    4.5340   13.6999   39.8905 H   0  0  0  0  0  0  0  0  0  0  0  0
    2.7339   12.2903   40.7638 H   0  0  0  0  0  0  0  0  0  0  0  0
    4.0090   15.5958   36.6849 H   0  0  0  0  0  0  0  0  0  0  0  0
    2.4741   12.3323   38.2001 H   0  0  0  0  0  0  0  0  0  0  0  0
    0.9815   21.4947   40.3608 H   0  0  0  0  0  0  0  0  0  0  0  0
   -0.9090   15.7174   44.7666 H   0  0  0  0  0  0  0  0  0  0  0  0
    0.5468   15.9729   45.8500 H   0  0  0  0  0  0  0  0  0  0  0  0
    4.5581   13.4363   37.4694 H   0  0  0  0  0  0  0  0  0  0  0  0
    3.4927   14.3455   36.4399 H   0  0  0  0  0  0  0  0  0  0  0  0
    1.9272   17.6336   42.2774 H   0  0  0  0  0  0  0  0  0  0  0  0
    1.8793   14.2533   38.5325 H   0  0  0  0  0  0  0  0  0  0  0  0
   -0.5984   17.7262   44.4813 H   0  0  0  0  0  0  0  0  0  0  0  0
   -1.8367   18.4745   44.8065 H   0  0  0  0  0  0  0  0  0  0  0  0
   -0.7401   14.4864   48.4678 H   0  0  0  0  0  0  0  0  0  0  0  0
    0.1179   18.0007   44.0112 H   0  0  0  0  0  0  0  0  0  0  0  0
    2.9571   20.1917   39.9669 H   0  0  0  0  0  0  0  0  0  0  0  0
   -0.6114   19.2908   47.1798 H   0  0  0  0  0  0  0  0  0  0  0  0
    0.7643   18.7471   46.7652 H   0  0  0  0  0  0  0  0  0  0  0  0
  1  9  2  0
  2 19  1  0
  2 31  1  0
  3 30  1  0
  3 21  1  0
  4 27  1  0
  5 16  2  0
  5  1  1  0
  6 23  2  0
  6  1  1  0
  7 13  1  0
  8 24  1  0
  8 28  1  0
  9 11  1  0
  9 30  1  0
 11 15  2  0
 12 10  1  0
 13 29  1  0
 13 32  2  0
 14  8  2  0
 16 22  1  0
 17 20  1  0
 18  3  1  0
 18  7  2  0
 19  4  1  0
 20 25  1  0
 21 29  2  0
 22 11  1  0
 25 22  1  0
 25 10  1  0
 26  2  1  0
 26 31  1  0
 28  6  1  0
  2 33  1  0
  3 34  1  0
  4 35  1  0
  4 36  1  0
  5 37  1  0
  7 38  1  0
 10 39  1  0
 10 40  1  0
 12 41  1  0
 16 42  1  0
 17 43  1  0
 18 44  1  0
 19 45  1  0
 19 46  1  0
 20 47  1  0
 20 48  1  0
 21 49  1  0
 25 50  1  0
 26 51  1  0
 26 52  1  0
 27 53  1  0
 29 54  1  0
 30 55  1  0
 31 56  1  0
 31 57  1  0
M  CHG  2  24  -1  26   1
M  END
>  <mol_id>  (22) 
2026-08-23-6tgu-s0-n100-prep-0022

>  <rmsd_to_ref>  (22) 


$$$$

     RDKit          3D

 26 26  0  0  0  0  0  0  0  0999 V2000
    3.6570   20.0120   38.7910 C   0  0  0  0  0  0  0  0  0  0  0  0
    3.7450   18.9570   36.7490 O   0  0  0  0  0  0  0  0  0  0  0  0
    0.4290   18.0860   43.2230 C   0  0  0  0  0  0  0  0  0  0  0  0
    2.5730   18.3520   40.1750 C   0  0  0  0  0  0  0  0  0  0  0  0
    0.9980   20.0810   41.5060 C   0  0  0  0  0  0  0  0  0  0  0  0
    1.5190   17.8560   41.0700 C   0  0  0  0  0  0  0  0  0  0  0  0
    2.6170   19.6000   39.8070 C   0  0  0  0  0  0  0  0  0  0  0  0
    0.9990   18.7570   41.9390 C   0  0  0  0  0  0  0  0  0  0  0  0
    2.4650   20.6290   36.9000 O   0  0  0  0  0  1  0  0  0  0  0  0
   -1.0520   18.3730   43.4950 C   0  0  0  0  0  0  0  0  0  0  0  0
    1.7620   20.4610   40.4290 C   0  0  0  0  0  0  0  0  0  0  0  0
    3.2400   19.8550   37.4100 C   0  0  0  0  0  0  0  0  0  0  0  0
   -1.4640   17.9110   44.7980 N   0  0  0  0  0  4  0  0  0  0  0  0
    3.9011   21.0714   38.9585 H   0  0  0  0  0  0  0  0  0  0  0  0
    4.5198   19.3454   38.9365 H   0  0  0  0  0  0  0  0  0  0  0  0
    1.0111   18.4457   44.0843 H   0  0  0  0  0  0  0  0  0  0  0  0
    0.5104   17.0001   43.0671 H   0  0  0  0  0  0  0  0  0  0  0  0
    3.3407   17.6547   39.8083 H   0  0  0  0  0  0  0  0  0  0  0  0
    0.3818   20.8269   42.0295 H   0  0  0  0  0  0  0  0  0  0  0  0
    1.1715   16.8128   41.0369 H   0  0  0  0  0  0  0  0  0  0  0  0
   -1.2199   19.4584   43.4341 H   0  0  0  0  0  0  0  0  0  0  0  0
   -1.6453   17.8344   42.7415 H   0  0  0  0  0  0  0  0  0  0  0  0
    1.6813   21.4929   40.0566 H   0  0  0  0  0  0  0  0  0  0  0  0
   -0.9783   18.4557   45.5248 H   0  0  0  0  0  0  0  0  0  0  0  0
   -2.4816   18.0335   44.8998 H   0  0  0  0  0  0  0  0  0  0  0  0
   -1.2263   16.9140   44.8998 H   0  0  0  0  0  0  0  0  0  0  0  0
  1  7  1  0
  2 12  2  0
  3 10  1  0
  4  6  2  0
  5  8  2  0
  6  8  1  0
  7  4  1  0
  7 11  2  0
  8  3  1  0
  9 12  1  0
 10 13  1  0
 11  5  1  0
 12  1  1  0
  1 14  1  0
  1 15  1  0
  3 16  1  0
  3 17  1  0
  4 18  1  0
  5 19  1  0
  6 20  1  0
 10 21  1  0
 10 22  1  0
 11 23  1  0
 13 24  1  0
 13 25  1  0
 13 26  1  0
M  CHG  2   9  -1  13   1
M  END
>  <mol_id>  (23) 
2026-08-23-6tgu-s0-n100-prep-0023

>  <rmsd_to_ref>  (23) 


$$$$

     RDKit          3D

 38 40  0  0  0  0  0  0  0  0999 V2000
    4.7680   16.5110   36.3190 C   0  0  0  0  0  0  0  0  0  0  0  0
    3.5790   17.1440   38.1980 O   0  0  0  0  0  0  0  0  0  0  0  0
    0.3530   18.5560   42.4870 C   0  0  0  0  0  0  0  0  0  0  0  0
    3.4720   20.6430   36.5460 O   0  0  0  0  0  0  0  0  0  0  0  0
   -0.1650   16.9300   43.8440 C   0  0  0  0  0  0  0  0  0  0  0  0
    0.6340   20.7930   41.6140 C   0  0  0  0  0  0  0  0  0  0  0  0
    2.7440   20.5030   37.5000 C   0  0  0  0  0  0  0  0  0  0  0  0
    1.6650   18.9320   40.4880 C   0  0  0  0  0  0  0  0  0  0  0  0
    0.9110   19.4550   41.4940 C   0  0  0  0  0  0  0  0  0  0  0  0
    0.4730   17.2230   42.6350 N   0  0  0  0  0  0  0  0  0  0  0  0
   -1.4540   18.1740   45.5970 N   0  0  0  0  0  4  0  0  0  0  0  0
   -0.7410   18.1030   44.3890 C   0  0  0  0  0  0  0  0  0  0  0  0
    1.8280   21.6870   37.7240 C   0  0  0  0  0  0  0  0  0  0  0  0
    4.0940   17.3820   37.0590 C   0  0  0  0  0  0  0  0  0  0  0  0
   -0.3810   19.1820   43.5590 C   0  0  0  0  0  0  0  0  0  0  0  0
    4.1470   18.4090   36.4160 N   0  0  0  0  0  0  0  0  0  0  0  0
   -0.1710   21.2340   42.6830 C   0  0  0  0  0  0  0  0  0  0  0  0
    2.0350   19.6150   39.4810 N   0  0  0  0  0  0  0  0  0  0  0  0
    2.1380   17.6640   40.1460 C   0  0  0  0  0  0  0  0  0  0  0  0
    2.8550   17.9560   38.9530 C   0  0  0  0  0  0  0  0  0  0  0  0
   -0.6220   20.4390   43.6380 N   0  0  0  0  0  0  0  0  0  0  0  0
    2.6410   19.3480   38.5450 C   0  0  0  0  0  0  0  0  0  0  0  0
    5.3082   15.8129   36.9753 H   0  0  0  0  0  0  0  0  0  0  0  0
    4.0670   15.9494   35.6841 H   0  0  0  0  0  0  0  0  0  0  0  0
    5.4876   17.0487   35.6841 H   0  0  0  0  0  0  0  0  0  0  0  0
   -0.5333   18.4058   41.8530 H   0  0  0  0  0  0  0  0  0  0  0  0
   -0.2126   15.9325   44.3051 H   0  0  0  0  0  0  0  0  0  0  0  0
    1.0352   21.5125   40.8850 H   0  0  0  0  0  0  0  0  0  0  0  0
   -0.7972   18.1086   46.3877 H   0  0  0  0  0  0  0  0  0  0  0  0
   -1.9605   19.0696   45.6446 H   0  0  0  0  0  0  0  0  0  0  0  0
   -2.1272   17.3959   45.6446 H   0  0  0  0  0  0  0  0  0  0  0  0
    1.7000   21.8524   38.8039 H   0  0  0  0  0  0  0  0  0  0  0  0
    2.2695   22.5841   37.2654 H   0  0  0  0  0  0  0  0  0  0  0  0
    0.8488   21.4849   37.2654 H   0  0  0  0  0  0  0  0  0  0  0  0
    3.6934   19.2629   36.7710 H   0  0  0  0  0  0  0  0  0  0  0  0
   -0.4393   22.2999   42.7253 H   0  0  0  0  0  0  0  0  0  0  0  0
    2.7986   17.2554   40.9249 H   0  0  0  0  0  0  0  0  0  0  0  0
    1.3526   16.9028   40.0289 H   0  0  0  0  0  0  0  0  0  0  0  0
  1 14  1  0
  2 20  1  0
  3  9  1  0
  3 10  1  0
  3 15  1  0
  4  7  2  0
  5 12  1  0
  6 17  1  0
  7 13  1  0
  7 22  1  0
  8  9  1  0
  9  6  2  0
 10  5  2  0
 12 11  1  0
 14  2  1  0
 15 21  1  0
 15 12  2  0
 16 14  2  3
 17 21  2  0
 18  8  2  0
 19  8  1  0
 20 19  1  0
 22 20  2  0
 22 18  1  0
  1 23  1  0
  1 24  1  0
  1 25  1  0
  3 26  1  0
  5 27  1  0
  6 28  1  0
 11 29  1  0
 11 30  1  0
 11 31  1  0
 13 32  1  0
 13 33  1  0
 13 34  1  0
 16 35  1  0
 17 36  1  0
 19 37  1  0
 19 38  1  0
M  CHG  1  11   1
M  END
>  <mol_id>  (24) 
2026-08-23-6tgu-s0-n100-prep-0024

>  <rmsd_to_ref>  (24) 


$$$$

     RDKit          3D

 25 27  0  0  0  0  0  0  0  0999 V2000
    1.8450   16.7100   41.4090 F   0  0  0  0  0  0  0  0  0  0  0  0
   -0.7020   18.1660   44.0220 C   0  0  0  0  0  0  0  0  0  0  0  0
    2.0750   17.6830   40.5730 C   0  0  0  0  0  0  0  0  0  0  0  0
    2.8440   20.5280   37.5740 N   0  0  0  0  0  0  0  0  0  0  0  0
    1.5120   18.9380   40.8790 C   0  0  0  0  0  0  0  0  0  0  0  0
    2.5010   19.7710   38.6590 C   0  0  0  0  0  0  0  0  0  0  0  0
   -0.0900   20.2320   42.2590 C   0  0  0  0  0  0  0  0  0  0  0  0
    1.8140   20.0360   39.8860 C   0  0  0  0  0  0  0  0  0  0  0  0
    0.5390   19.0100   42.0850 C   0  0  0  0  0  0  0  0  0  0  0  0
    3.0070   18.4890   38.4670 C   0  0  0  0  0  0  0  0  0  0  0  0
    3.6440   18.4250   37.2210 O   0  0  0  0  0  0  0  0  0  0  0  0
   -1.3280   19.3290   44.1810 N   0  0  0  0  0  0  0  0  0  0  0  0
    3.5280   19.7690   36.7020 N   0  0  0  0  0  0  0  0  0  0  0  0
    2.8070   17.4590   39.3680 C   0  0  0  0  0  0  0  0  0  0  0  0
   -0.9570   20.3000   43.3310 C   0  0  0  0  0  0  0  0  0  0  0  0
    1.3930   21.4460   40.0440 C   0  0  0  0  0  0  0  0  0  0  0  0
    0.2020   17.9240   42.9660 C   0  0  0  0  0  0  0  0  0  0  0  0
   -0.8973   17.3593   44.7439 H   0  0  0  0  0  0  0  0  0  0  0  0
    0.0887   21.0871   41.5906 H   0  0  0  0  0  0  0  0  0  0  0  0
    3.2149   16.4600   39.1546 H   0  0  0  0  0  0  0  0  0  0  0  0
   -1.4065   21.2870   43.5145 H   0  0  0  0  0  0  0  0  0  0  0  0
    1.3204   21.6892   41.1143 H   0  0  0  0  0  0  0  0  0  0  0  0
    2.1335   22.1053   39.5676 H   0  0  0  0  0  0  0  0  0  0  0  0
    0.4123   21.5914   39.5676 H   0  0  0  0  0  0  0  0  0  0  0  0
    0.6399   16.9256   42.8195 H   0  0  0  0  0  0  0  0  0  0  0  0
  2 12  2  0
  3  5  2  0
  3  1  1  0
  4  6  1  0
  5  9  1  0
  6  8  2  0
  7 15  2  0
  8 16  1  0
  8  5  1  0
  9  7  1  0
  9 17  2  0
 10  6  1  0
 10 14  2  0
 11 10  1  0
 13 11  1  0
 13  4  2  0
 14  3  1  0
 15 12  1  0
 17  2  1  0
  2 18  1  0
  7 19  1  0
 14 20  1  0
 15 21  1  0
 16 22  1  0
 16 23  1  0
 16 24  1  0
 17 25  1  0
M  END
>  <mol_id>  (25) 
2026-08-23-6tgu-s0-n100-prep-0026

>  <rmsd_to_ref>  (25) 


$$$$

     RDKit          3D

 29 30  0  0  0  0  0  0  0  0999 V2000
    2.3120   19.9410   38.9080 C   0  0  0  0  0  0  0  0  0  0  0  0
    3.1690   21.4710   35.7010 O   0  0  0  0  0  0  0  0  0  0  0  0
    1.1640   16.6190   41.6040 C   0  0  0  0  0  0  0  0  0  0  0  0
    0.5440   15.4560   43.3170 C   0  0  0  0  0  0  0  0  0  0  0  0
    0.5040   17.5810   42.7200 C   0  0  0  0  0  0  0  0  0  0  0  0
    3.7410   19.4190   36.6820 C   0  0  0  0  0  0  0  0  0  0  0  0
    0.7060   18.9910   42.3970 C   0  0  0  0  0  0  0  0  0  0  0  0
    1.3970   18.8840   41.0900 C   0  0  0  0  0  0  0  0  0  0  0  0
    1.5420   17.5870   40.8060 C   0  0  0  0  0  0  0  0  0  0  0  0
    2.4060   20.9150   37.9540 C   0  0  0  0  0  0  0  0  0  0  0  0
    1.3000   15.5850   42.3450 C   0  0  0  0  0  0  0  0  0  0  0  0
    1.2390   20.4480   40.3900 S   0  0  0  0  0  0  0  0  0  0  0  0
    2.9000   18.6960   38.7860 C   0  0  0  0  0  0  0  0  0  0  0  0
    3.0970   20.7200   36.7490 C   0  0  0  0  0  0  0  0  0  0  0  0
   -0.0870   14.7810   44.0860 N   0  0  0  0  0  0  0  0  0  0  0  0
    3.6670   18.4620   37.6280 C   0  0  0  0  0  0  0  0  0  0  0  0
    2.7444   22.3653   35.7028 H   0  0  0  0  0  0  0  0  0  0  0  0
    0.3506   16.4880   43.6450 H   0  0  0  0  0  0  0  0  0  0  0  0
   -0.5757   17.3776   42.7741 H   0  0  0  0  0  0  0  0  0  0  0  0
    0.9897   17.3746   43.6851 H   0  0  0  0  0  0  0  0  0  0  0  0
    4.3381   19.1970   35.7852 H   0  0  0  0  0  0  0  0  0  0  0  0
    0.4227   19.8876   42.9678 H   0  0  0  0  0  0  0  0  0  0  0  0
    2.0058   17.3157   39.8462 H   0  0  0  0  0  0  0  0  0  0  0  0
    1.9228   21.8860   38.1375 H   0  0  0  0  0  0  0  0  0  0  0  0
    1.1583   14.7032   41.7029 H   0  0  0  0  0  0  0  0  0  0  0  0
    2.2988   15.7003   42.7913 H   0  0  0  0  0  0  0  0  0  0  0  0
    2.7746   17.9229   39.5584 H   0  0  0  0  0  0  0  0  0  0  0  0
   -0.6367   15.2288   44.8331 H   0  0  0  0  0  0  0  0  0  0  0  0
    4.1998   17.5086   37.4972 H   0  0  0  0  0  0  0  0  0  0  0  0
  1 12  1  0
  2 14  1  0
  3 11  1  0
  3  5  1  0
  4 15  2  3
  6 14  2  0
  6 16  1  0
  7  5  1  0
  8  7  2  0
  9  8  1  0
  9  3  2  0
 10  1  2  0
 11  4  1  0
 12  8  1  0
 13  1  1  0
 14 10  1  0
 16 13  2  0
  2 17  1  0
  4 18  1  0
  5 19  1  0
  5 20  1  0
  6 21  1  0
  7 22  1  0
  9 23  1  0
 10 24  1  0
 11 25  1  0
 11 26  1  0
 13 27  1  0
 15 28  1  0
 16 29  1  0
M  END
>  <mol_id>  (26) 
2026-08-23-6tgu-s0-n100-prep-0027

>  <rmsd_to_ref>  (26) 


$$$$

     RDKit          3D

 59 63  0  0  0  0  0  0  0  0999 V2000
   -0.1750   17.0130   44.2480 C   0  0  0  0  0  0  0  0  0  0  0  0
    3.5070   22.5580   34.0740 O   0  0  0  0  0  0  0  0  0  0  0  0
   -0.6520   17.9870   45.1840 C   0  0  0  0  0  0  0  0  0  0  0  0
    1.9990   19.9260   39.4040 C   0  0  0  0  0  0  0  0  0  0  0  0
    3.0530   17.7830   38.8310 C   0  0  0  0  0  0  0  0  0  0  0  0
    4.1450   21.8720   34.8240 C   0  0  0  0  0  0  0  0  0  0  0  0
    1.7160   17.9220   41.1010 C   0  0  0  0  0  0  0  0  0  0  0  0
   -0.9330   17.5560   46.5050 C   0  0  0  0  0  0  0  0  0  0  0  0
    0.4130   17.5660   43.0210 C   0  0  0  0  0  0  0  0  0  0  0  0
   -2.0600   15.2800   50.2490 C   0  0  0  0  0  0  0  0  0  0  0  0
   -0.9840   16.1510   46.7600 C   0  0  0  0  0  0  0  0  0  0  0  0
   -0.3790   15.5960   44.4380 C   0  0  0  0  0  0  0  0  0  0  0  0
    1.3450   19.4600   40.5970 C   0  0  0  0  0  0  0  0  0  0  0  0
   -0.7310   15.2010   45.7550 C   0  0  0  0  0  0  0  0  0  0  0  0
    3.6420   17.3540   37.6620 C   0  0  0  0  0  0  0  0  0  0  0  0
    2.0790   21.6010   37.6750 C   0  0  0  0  0  0  0  0  0  0  0  0
    2.5480   17.3150   40.1640 C   0  0  0  0  0  0  0  0  0  0  0  0
    2.7780   19.1340   38.5560 C   0  0  0  0  0  0  0  0  0  0  0  0
    1.6730   15.4440   41.8950 C   0  0  0  0  0  0  0  0  0  0  0  0
    3.8460   18.3570   36.7080 O   0  0  0  0  0  0  0  0  0  0  0  0
   -1.5830   16.2560   49.2280 C   0  0  0  0  0  0  0  0  0  0  0  0
    2.9720   20.7880   36.7900 C   0  0  0  0  0  0  0  0  0  0  0  0
    3.6640   20.8350   35.4720 N   0  0  0  0  0  0  0  0  0  0  0  0
    3.2290   19.4990   37.2580 C   0  0  0  0  0  0  0  0  0  0  0  0
   -0.7670   19.4110   44.9150 N   0  0  0  0  0  0  0  0  0  0  0  0
    5.7240   21.9090   34.9560 C   0  0  0  0  0  0  0  0  0  0  0  0
    0.1980   19.0250   42.7340 C   0  0  0  0  0  0  0  0  0  0  0  0
   -0.8190   21.1900   43.3740 O   0  0  0  0  0  0  0  0  0  0  0  0
   -0.8850   19.7410   43.4120 C   0  0  0  0  0  0  0  0  0  0  0  0
    1.7430   21.3210   38.9140 C   0  0  0  0  0  0  0  0  0  0  0  0
   -1.3390   15.6570   47.9890 N   0  0  0  0  0  0  0  0  0  0  0  0
    1.1610   16.8330   42.0670 C   0  0  0  0  0  0  0  0  0  0  0  0
   -1.1070   18.2833   47.3117 H   0  0  0  0  0  0  0  0  0  0  0  0
   -1.8654   15.6781   51.2558 H   0  0  0  0  0  0  0  0  0  0  0  0
   -3.1402   15.1153   50.1223 H   0  0  0  0  0  0  0  0  0  0  0  0
   -1.5263   14.3265   50.1223 H   0  0  0  0  0  0  0  0  0  0  0  0
   -0.2690   14.8717   43.6174 H   0  0  0  0  0  0  0  0  0  0  0  0
    0.6335   20.0918   41.1489 H   0  0  0  0  0  0  0  0  0  0  0  0
   -0.8074   14.1300   45.9942 H   0  0  0  0  0  0  0  0  0  0  0  0
    3.9292   16.3059   37.4920 H   0  0  0  0  0  0  0  0  0  0  0  0
    1.6630   22.5242   37.2454 H   0  0  0  0  0  0  0  0  0  0  0  0
    2.8977   16.3128   40.4528 H   0  0  0  0  0  0  0  0  0  0  0  0
    3.0474   19.9653   39.2242 H   0  0  0  0  0  0  0  0  0  0  0  0
    1.8404   14.9900   42.8828 H   0  0  0  0  0  0  0  0  0  0  0  0
    0.9356   14.8478   41.3376 H   0  0  0  0  0  0  0  0  0  0  0  0
    2.6210   15.4690   41.3376 H   0  0  0  0  0  0  0  0  0  0  0  0
   -2.3493   17.0345   49.0988 H   0  0  0  0  0  0  0  0  0  0  0  0
   -0.6336   16.6794   49.5877 H   0  0  0  0  0  0  0  0  0  0  0  0
    3.7823   19.9261   35.0020 H   0  0  0  0  0  0  0  0  0  0  0  0
   -0.7695   20.1284   45.6541 H   0  0  0  0  0  0  0  0  0  0  0  0
    6.0029   21.9155   36.0200 H   0  0  0  0  0  0  0  0  0  0  0  0
    6.1535   21.0207   34.4698 H   0  0  0  0  0  0  0  0  0  0  0  0
    6.1114   22.8165   34.4698 H   0  0  0  0  0  0  0  0  0  0  0  0
    1.1339   19.5430   42.9906 H   0  0  0  0  0  0  0  0  0  0  0  0
   -0.1053   19.0386   41.6767 H   0  0  0  0  0  0  0  0  0  0  0  0
   -0.8029   21.5440   44.2984 H   0  0  0  0  0  0  0  0  0  0  0  0
   -1.8033   19.4255   42.8952 H   0  0  0  0  0  0  0  0  0  0  0  0
    1.2907   22.0812   39.5679 H   0  0  0  0  0  0  0  0  0  0  0  0
   -1.4484   14.6329   48.0016 H   0  0  0  0  0  0  0  0  0  0  0  0
  1 12  2  0
  1  3  1  0
  2  6  2  0
  3  8  2  0
  4 13  2  0
  5 17  1  0
  6 26  1  0
  6 23  1  0
  7 32  1  0
  8 11  1  0
  9  1  1  0
 11 31  1  0
 12 14  1  0
 13  7  1  0
 14 11  2  0
 15  5  2  0
 16 30  2  0
 17  7  2  0
 18 24  1  0
 18  5  1  0
 18  4  1  0
 19 32  1  0
 20 24  1  0
 20 15  1  0
 21 10  1  0
 22 24  2  0
 22 16  1  0
 23 22  1  0
 25  3  1  0
 27  9  1  0
 27 29  1  0
 29 28  1  0
 29 25  1  0
 30  4  1  0
 31 21  1  0
 32  9  2  3
  8 33  1  0
 10 34  1  0
 10 35  1  0
 10 36  1  0
 12 37  1  0
 13 38  1  0
 14 39  1  0
 15 40  1  0
 16 41  1  0
 17 42  1  0
 18 43  1  0
 19 44  1  0
 19 45  1  0
 19 46  1  0
 21 47  1  0
 21 48  1  0
 23 49  1  0
 25 50  1  0
 26 51  1  0
 26 52  1  0
 26 53  1  0
 27 54  1  0
 27 55  1  0
 28 56  1  0
 29 57  1  0
 30 58  1  0
 31 59  1  0
M  END
>  <mol_id>  (27) 
2026-08-23-6tgu-s0-n100-prep-0028

>  <rmsd_to_ref>  (27) 


$$$$

     RDKit          3D

 51 54  0  0  0  0  0  0  0  0999 V2000
    1.8360   12.5330   41.8900 C   0  0  0  0  0  0  0  0  0  0  0  0
    4.0900   16.2210   37.5770 O   0  0  0  0  0  0  0  0  0  0  0  0
    0.7180   18.0060   42.6100 C   0  0  0  0  0  0  0  0  0  0  0  0
    0.6600   14.7630   43.1120 C   0  0  0  0  0  0  0  0  0  0  0  0
    1.9160   18.1500   40.3420 C   0  0  0  0  0  0  0  0  0  0  0  0
    5.3950   19.9380   35.3410 O   0  0  0  0  0  0  0  0  0  0  0  0
   -0.6320   21.3020   43.3930 O   0  0  0  0  0  0  0  0  0  0  0  0
    4.8580   17.8060   36.2320 N   0  0  0  0  0  0  0  0  0  0  0  0
    2.0340   16.1370   41.5820 C   0  0  0  0  0  0  0  0  0  0  0  0
    1.5330   17.4170   41.5780 C   0  0  0  0  0  0  0  0  0  0  0  0
    2.2120   20.5340   38.2650 O   0  0  0  0  0  0  0  0  0  0  0  0
    0.4040   19.4450   42.4140 C   0  0  0  0  0  0  0  0  0  0  0  0
    1.6550   14.9110   42.0980 C   0  0  0  0  0  0  0  0  0  0  0  0
    3.2400   18.3260   38.0650 C   0  0  0  0  0  0  0  0  0  0  0  0
    0.0990   15.9100   43.8770 C   0  0  0  0  0  0  0  0  0  0  0  0
    3.9710   21.4540   34.7130 C   0  0  0  0  0  0  0  0  0  0  0  0
    0.1350   17.3100   43.6970 C   0  0  0  0  0  0  0  0  0  0  0  0
    3.5850   20.2990   36.5670 C   0  0  0  0  0  0  0  0  0  0  0  0
    4.0540   17.4630   37.2790 C   0  0  0  0  0  0  0  0  0  0  0  0
    0.7010   12.3740   42.6760 C   0  0  0  0  0  0  0  0  0  0  0  0
    4.3380   20.5460   35.4920 C   0  0  0  0  0  0  0  0  0  0  0  0
   -0.7760   19.4290   44.5100 N   0  0  0  0  0  0  0  0  0  0  0  0
    0.1500   13.4730   43.2640 C   0  0  0  0  0  0  0  0  0  0  0  0
    3.0080   19.7140   37.6180 C   0  0  0  0  0  0  0  0  0  0  0  0
   -0.6330   18.0980   44.6220 C   0  0  0  0  0  0  0  0  0  0  0  0
    0.9810   21.5960   41.0820 C   0  0  0  0  0  0  0  0  0  0  0  0
   -1.3810   17.3900   45.5250 N   0  0  0  0  0  0  0  0  0  0  0  0
    1.4650   19.3720   40.2670 O   0  0  0  0  0  0  0  0  0  0  0  0
    2.6890   17.6430   39.2550 C   0  0  0  0  0  0  0  0  0  0  0  0
    0.9540   20.1050   41.2870 C   0  0  0  0  0  0  0  0  0  0  0  0
    2.3940   13.8160   41.6400 C   0  0  0  0  0  0  0  0  0  0  0  0
   -0.3250   20.1150   43.4680 C   0  0  0  0  0  0  0  0  0  0  0  0
    2.3138   11.6448   41.4509 H   0  0  0  0  0  0  0  0  0  0  0  0
    5.6516   19.2254   35.9785 H   0  0  0  0  0  0  0  0  0  0  0  0
    4.8999   18.7848   35.9139 H   0  0  0  0  0  0  0  0  0  0  0  0
    5.4233   17.0863   35.7594 H   0  0  0  0  0  0  0  0  0  0  0  0
    2.9839   16.0704   41.0313 H   0  0  0  0  0  0  0  0  0  0  0  0
    1.7229   20.2197   39.0663 H   0  0  0  0  0  0  0  0  0  0  0  0
   -0.4622   15.6019   44.7715 H   0  0  0  0  0  0  0  0  0  0  0  0
    3.6215   22.3186   35.2964 H   0  0  0  0  0  0  0  0  0  0  0  0
    4.8171   21.7573   34.0789 H   0  0  0  0  0  0  0  0  0  0  0  0
    3.1517   21.0842   34.0789 H   0  0  0  0  0  0  0  0  0  0  0  0
    0.2553   11.3788   42.8209 H   0  0  0  0  0  0  0  0  0  0  0  0
   -0.7433   13.3361   43.8911 H   0  0  0  0  0  0  0  0  0  0  0  0
    0.9901   22.1004   42.0595 H   0  0  0  0  0  0  0  0  0  0  0  0
    1.8843   21.8723   40.5183 H   0  0  0  0  0  0  0  0  0  0  0  0
    0.0883   21.9048   40.5183 H   0  0  0  0  0  0  0  0  0  0  0  0
   -1.9571   17.8874   46.2190 H   0  0  0  0  0  0  0  0  0  0  0  0
   -1.3674   16.3602   45.5100 H   0  0  0  0  0  0  0  0  0  0  0  0
    2.9115   16.5672   39.3117 H   0  0  0  0  0  0  0  0  0  0  0  0
    3.3530   13.9405   41.1158 H   0  0  0  0  0  0  0  0  0  0  0  0
  1 20  1  0
  3 17  2  0
  4 23  1  0
  4 15  2  0
  5 10  2  0
  6 21  1  0
  7 32  2  0
  8 19  1  0
  9 13  2  0
 10  9  1  0
 10  3  1  0
 12  3  1  0
 12 32  1  0
 13  4  1  0
 14 29  2  3
 16 21  1  0
 17 15  1  0
 17 25  1  0
 18 24  2  0
 19  2  2  0
 19 14  1  0
 20 23  2  0
 21 18  2  0
 22 25  2  0
 24 14  1  0
 24 11  1  0
 25 27  1  0
 26 30  1  0
 28  5  1  0
 28 30  1  0
 29  5  1  0
 30 12  2  0
 31  1  2  0
 31 13  1  0
 32 22  1  0
  1 33  1  0
  6 34  1  0
  8 35  1  0
  8 36  1  0
  9 37  1  0
 11 38  1  0
 15 39  1  0
 16 40  1  0
 16 41  1  0
 16 42  1  0
 20 43  1  0
 23 44  1  0
 26 45  1  0
 26 46  1  0
 26 47  1  0
 27 48  1  0
 27 49  1  0
 29 50  1  0
 31 51  1  0
M  END
>  <mol_id>  (28) 
2026-08-23-6tgu-s0-n100-prep-0029

>  <rmsd_to_ref>  (28) 


$$$$

     RDKit          3D

 60 65  0  0  0  0  0  0  0  0999 V2000
    3.4410   20.6980   36.8850 C   0  0  0  0  0  0  0  0  0  0  0  0
    4.6700   19.6820   34.8130 O   0  0  0  0  0  0  0  0  0  0  0  0
    2.9160   15.3430   39.4190 C   0  0  0  0  0  0  0  0  0  0  0  0
    3.3790   14.0020   39.4350 C   0  0  0  0  0  0  0  0  0  0  0  0
    4.8590   14.5230   37.6630 C   0  0  0  0  0  0  0  0  0  0  0  0
    3.6750   20.5680   39.3240 C   0  0  0  0  0  0  0  0  0  0  0  0
    3.1920   18.6530   37.6620 C   0  0  0  0  0  0  0  0  0  0  0  0
   -0.8310   17.3100   45.3380 C   0  0  0  0  0  0  0  0  0  0  0  0
   -0.1910   17.1980   44.0970 C   0  0  0  0  0  0  0  0  0  0  0  0
    4.3240   13.6070   38.5290 C   0  0  0  0  0  0  0  0  0  0  0  0
    2.7720   17.6990   38.4970 C   0  0  0  0  0  0  0  0  0  0  0  0
    0.4040   20.7870   41.9250 C   0  0  0  0  0  0  0  0  0  0  0  0
    1.4960   19.4540   39.9590 C   0  0  0  0  0  0  0  0  0  0  0  0
    1.4650   21.5480   39.3480 C   0  0  0  0  0  0  0  0  0  0  0  0
    4.2160   22.0240   37.0380 C   0  0  0  0  0  0  0  0  0  0  0  0
   -1.5000   15.9010   48.2220 C   0  0  0  0  0  0  0  0  0  0  0  0
    0.2220   18.4600   43.3960 C   0  0  0  0  0  0  0  0  0  0  0  0
    2.3850   20.5010   39.1620 C   0  0  0  0  0  0  0  0  0  0  0  0
   -0.1630   20.8120   43.2440 C   0  0  0  0  0  0  0  0  0  0  0  0
   -0.9270   18.4640   45.9780 C   0  0  0  0  0  0  0  0  0  0  0  0
    3.7180   18.4130   36.3720 O   0  0  0  0  0  0  0  0  0  0  0  0
    2.2100   18.0980   39.8150 C   0  0  0  0  0  0  0  0  0  0  0  0
    3.7800   19.7270   35.8300 C   0  0  0  0  0  0  0  0  0  0  0  0
   -0.2230   19.6630   43.9910 C   0  0  0  0  0  0  0  0  0  0  0  0
   -0.9170   15.4370   49.1870 O   0  0  0  0  0  1  0  0  0  0  0  0
    4.5090   15.8710   37.7010 C   0  0  0  0  0  0  0  0  0  0  0  0
   -0.7280   19.6940   45.3360 N   0  0  0  0  0  0  0  0  0  0  0  0
   -2.3430   16.8040   48.1660 O   0  0  0  0  0  0  0  0  0  0  0  0
    0.8290   18.4430   42.2230 C   0  0  0  0  0  0  0  0  0  0  0  0
   -1.4370   16.1580   45.7610 O   0  0  0  0  0  0  0  0  0  0  0  0
    0.9690   19.6320   41.3410 C   0  0  0  0  0  0  0  0  0  0  0  0
   -0.9810   15.3950   46.9610 C   0  0  0  0  0  0  0  0  0  0  0  0
    3.1030   20.0280   38.0900 C   0  0  0  0  0  0  0  0  0  0  0  0
    3.5250   16.2900   38.5390 C   0  0  0  0  0  0  0  0  0  0  0  0
    2.5497   21.1885   36.4666 H   0  0  0  0  0  0  0  0  0  0  0  0
    2.0930   15.6520   40.0802 H   0  0  0  0  0  0  0  0  0  0  0  0
    2.9813   13.2864   40.1697 H   0  0  0  0  0  0  0  0  0  0  0  0
    5.5887   14.1835   36.9131 H   0  0  0  0  0  0  0  0  0  0  0  0
    4.1824   21.5440   39.3164 H   0  0  0  0  0  0  0  0  0  0  0  0
    4.3883   20.2063   40.0792 H   0  0  0  0  0  0  0  0  0  0  0  0
    4.2043   18.5862   38.0872 H   0  0  0  0  0  0  0  0  0  0  0  0
    0.0037   16.2127   43.6484 H   0  0  0  0  0  0  0  0  0  0  0  0
    4.6530   12.5579   38.4960 H   0  0  0  0  0  0  0  0  0  0  0  0
    1.8905   17.4809   37.8761 H   0  0  0  0  0  0  0  0  0  0  0  0
    0.3979   21.7173   41.3381 H   0  0  0  0  0  0  0  0  0  0  0  0
    0.5196   19.6029   39.4748 H   0  0  0  0  0  0  0  0  0  0  0  0
    1.3157   21.7180   40.4245 H   0  0  0  0  0  0  0  0  0  0  0  0
    1.8545   22.4654   38.8825 H   0  0  0  0  0  0  0  0  0  0  0  0
    0.5051   21.2797   38.8825 H   0  0  0  0  0  0  0  0  0  0  0  0
    4.3482   22.2502   38.1063 H   0  0  0  0  0  0  0  0  0  0  0  0
    5.2015   21.9302   36.5584 H   0  0  0  0  0  0  0  0  0  0  0  0
    3.6506   22.8366   36.5584 H   0  0  0  0  0  0  0  0  0  0  0  0
   -0.5504   21.7552   43.6566 H   0  0  0  0  0  0  0  0  0  0  0  0
   -1.1713   18.4579   47.0505 H   0  0  0  0  0  0  0  0  0  0  0  0
    1.4836   17.3228   40.1002 H   0  0  0  0  0  0  0  0  0  0  0  0
    3.1005   18.2078   40.4513 H   0  0  0  0  0  0  0  0  0  0  0  0
    5.0278   16.5940   37.0544 H   0  0  0  0  0  0  0  0  0  0  0  0
    1.2573   17.4906   41.8773 H   0  0  0  0  0  0  0  0  0  0  0  0
   -1.3053   14.3499   46.8490 H   0  0  0  0  0  0  0  0  0  0  0  0
    0.1132   15.4994   47.0049 H   0  0  0  0  0  0  0  0  0  0  0  0
  1 15  1  0
  1 33  1  0
  2 23  2  0
  3  4  2  0
  5 26  1  0
  5 10  2  0
  7 21  1  0
  7 33  1  0
  7 11  1  0
  8 30  1  0
  8 20  2  0
  9  8  1  0
 10  4  1  0
 11 34  1  0
 11 22  1  0
 12 19  2  0
 13 31  1  0
 16 25  1  0
 17 24  1  0
 17  9  2  0
 18  6  1  0
 18 14  1  0
 18 13  1  0
 19 24  1  0
 22 13  1  0
 23 21  1  0
 23  1  1  0
 24 27  2  0
 26 34  2  0
 27 20  1  0
 28 16  2  0
 29 17  1  0
 30 32  1  0
 31 12  1  0
 31 29  2  0
 32 16  1  0
 33 18  1  0
 33  6  1  0
 34  3  1  0
  1 35  1  0
  3 36  1  0
  4 37  1  0
  5 38  1  0
  6 39  1  0
  6 40  1  0
  7 41  1  0
  9 42  1  0
 10 43  1  0
 11 44  1  0
 12 45  1  0
 13 46  1  0
 14 47  1  0
 14 48  1  0
 14 49  1  0
 15 50  1  0
 15 51  1  0
 15 52  1  0
 19 53  1  0
 20 54  1  0
 22 55  1  0
 22 56  1  0
 26 57  1  0
 29 58  1  0
 32 59  1  0
 32 60  1  0
M  CHG  1  25  -1
M  END
>  <mol_id>  (29) 
2026-08-23-6tgu-s0-n100-prep-0030

>  <rmsd_to_ref>  (29) 


$$$$

     RDKit          3D

 22 23  0  0  0  0  0  0  0  0999 V2000
    0.4570   19.2660   42.0850 N   0  0  0  0  0  0  0  0  0  0  0  0
    2.7330   20.2790   37.7480 C   0  0  0  0  0  0  0  0  0  0  0  0
    0.0500   17.3830   43.5200 C   0  0  0  0  0  0  0  0  0  0  0  0
    1.5480   20.4310   39.9670 C   0  0  0  0  0  0  0  0  0  0  0  0
    1.2830   18.4480   41.3100 C   0  0  0  0  0  0  0  0  0  0  0  0
    2.0000   21.0370   38.7480 C   0  0  0  0  0  0  0  0  0  0  0  0
    1.8120   19.1150   40.1220 C   0  0  0  0  0  0  0  0  0  0  0  0
    2.9950   18.8890   38.0120 C   0  0  0  0  0  0  0  0  0  0  0  0
   -0.1120   18.7740   43.1270 C   0  0  0  0  0  0  0  0  0  0  0  0
    1.5190   17.1530   41.6710 C   0  0  0  0  0  0  0  0  0  0  0  0
   -0.8720   19.4940   44.0610 N   0  0  0  0  0  0  0  0  0  0  0  0
    0.9040   16.5590   42.7670 N   0  0  0  0  0  0  0  0  0  0  0  0
    2.6270   18.3660   39.1750 C   0  0  0  0  0  0  0  0  0  0  0  0
    3.0772   20.7536   36.8172 H   0  0  0  0  0  0  0  0  0  0  0  0
   -0.4871   16.9825   44.3924 H   0  0  0  0  0  0  0  0  0  0  0  0
    1.0138   21.0081   40.7362 H   0  0  0  0  0  0  0  0  0  0  0  0
    1.7867   22.1006   38.5658 H   0  0  0  0  0  0  0  0  0  0  0  0
    3.4958   18.2655   37.2567 H   0  0  0  0  0  0  0  0  0  0  0  0
    2.2227   16.5566   41.0717 H   0  0  0  0  0  0  0  0  0  0  0  0
   -1.2903   19.0093   44.8679 H   0  0  0  0  0  0  0  0  0  0  0  0
   -1.0117   20.5073   43.9398 H   0  0  0  0  0  0  0  0  0  0  0  0
    2.9445   17.3440   39.4295 H   0  0  0  0  0  0  0  0  0  0  0  0
  1  9  2  0
  2  8  2  0
  2  6  1  0
  4  7  1  0
  5 10  2  0
  5  1  1  0
  6  4  2  0
  7  5  1  0
  8 13  1  0
  9  3  1  0
  9 11  1  0
 10 12  1  0
 12  3  2  0
 13  7  2  0
  2 14  1  0
  3 15  1  0
  4 16  1  0
  6 17  1  0
  8 18  1  0
 10 19  1  0
 11 20  1  0
 11 21  1  0
 13 22  1  0
M  END
>  <mol_id>  (30) 
2026-08-23-6tgu-s0-n100-prep-0031

>  <rmsd_to_ref>  (30) 


$$$$

     RDKit          3D

 29 29  0  0  0  0  0  0  0  0999 V2000
    3.8910   18.0650   36.8600 O   0  0  0  0  0  1  0  0  0  0  0  0
    0.3210   19.4250   42.3280 C   0  0  0  0  0  0  0  0  0  0  0  0
   -0.6850   18.8860   43.3330 C   0  0  0  0  0  0  0  0  0  0  0  0
    0.6480   16.6110   42.7380 C   0  0  0  0  0  0  0  0  0  0  0  0
    1.3760   20.2220   39.7150 N   0  0  0  0  0  0  0  0  0  0  0  0
    2.0360   20.3890   38.6050 C   0  0  0  0  0  0  0  0  0  0  0  0
    2.9650   19.4290   38.3090 C   0  0  0  0  0  0  0  0  0  0  0  0
    3.6190   20.2410   36.4170 O   0  0  0  0  0  0  0  0  0  0  0  0
    3.5390   19.1540   37.1250 C   0  0  0  0  0  0  0  0  0  0  0  0
    3.1010   18.4870   39.8500 S   0  0  0  0  0  0  0  0  0  0  0  0
    0.3640   20.8810   42.1760 C   0  0  0  0  0  0  0  0  0  0  0  0
    1.7240   19.2090   40.4790 C   0  0  0  0  0  0  0  0  0  0  0  0
    1.0540   18.6990   41.5750 C   0  0  0  0  0  0  0  0  0  0  0  0
    1.2730   17.1770   41.8140 C   0  0  0  0  0  0  0  0  0  0  0  0
   -0.7800   21.4540   42.8330 O   0  0  0  0  0  0  0  0  0  0  0  0
   -0.4389   19.3647   41.5350 H   0  0  0  0  0  0  0  0  0  0  0  0
   -0.3234   19.0797   44.3537 H   0  0  0  0  0  0  0  0  0  0  0  0
   -1.6538   19.3859   43.1862 H   0  0  0  0  0  0  0  0  0  0  0  0
   -0.8055   17.8025   43.1862 H   0  0  0  0  0  0  0  0  0  0  0  0
    0.7910   15.5357   42.9207 H   0  0  0  0  0  0  0  0  0  0  0  0
   -0.0446   17.1885   43.3679 H   0  0  0  0  0  0  0  0  0  0  0  0
    1.8574   21.2504   37.9447 H   0  0  0  0  0  0  0  0  0  0  0  0
    3.7726   20.1408   38.5352 H   0  0  0  0  0  0  0  0  0  0  0  0
    1.2855   21.2724   42.6317 H   0  0  0  0  0  0  0  0  0  0  0  0
    0.3498   21.1439   41.1080 H   0  0  0  0  0  0  0  0  0  0  0  0
    1.0960   18.5377   39.8749 H   0  0  0  0  0  0  0  0  0  0  0  0
    0.1850   18.4741   40.9391 H   0  0  0  0  0  0  0  0  0  0  0  0
    1.9675   16.6070   41.1794 H   0  0  0  0  0  0  0  0  0  0  0  0
   -0.6613   21.3945   43.8141 H   0  0  0  0  0  0  0  0  0  0  0  0
  1  9  1  0
  2  3  1  0
  5 12  1  0
  6  5  2  0
  7  9  1  0
  7  6  1  0
  7 10  1  0
  8  9  2  0
 10 12  1  0
 11  2  1  0
 11 15  1  0
 12 13  1  0
 13 14  1  0
 13  2  1  0
 14  4  2  3
  2 16  1  0
  3 17  1  0
  3 18  1  0
  3 19  1  0
  4 20  1  0
  4 21  1  0
  6 22  1  0
  7 23  1  0
 11 24  1  0
 11 25  1  0
 12 26  1  0
 13 27  1  0
 14 28  1  0
 15 29  1  0
M  CHG  1   1  -1
M  END
>  <mol_id>  (31) 
2026-08-23-6tgu-s0-n100-prep-0032

>  <rmsd_to_ref>  (31) 


$$$$

     RDKit          3D

 23 24  0  0  0  0  0  0  0  0999 V2000
   -0.1120   18.1260   43.3170 C   0  0  0  0  0  0  0  0  0  0  0  0
    1.4350   20.6130   40.9340 C   0  0  0  0  0  0  0  0  0  0  0  0
    3.3120   20.2150   39.1820 C   0  0  0  0  0  0  0  0  0  0  0  0
    0.9140   15.9740   42.8060 C   0  0  0  0  0  0  0  0  0  0  0  0
    1.6530   16.4460   41.7800 C   0  0  0  0  0  0  0  0  0  0  0  0
    1.6740   21.3470   37.9800 O   0  0  0  0  0  1  0  0  0  0  0  0
    2.3210   19.6930   40.2010 C   0  0  0  0  0  0  0  0  0  0  0  0
    1.5230   17.8300   41.4930 C   0  0  0  0  0  0  0  0  0  0  0  0
   -0.5120   15.2330   44.2810 Cl  0  0  0  0  0  0  0  0  0  0  0  0
    0.6540   20.1180   41.9350 C   0  0  0  0  0  0  0  0  0  0  0  0
    2.7000   20.5800   37.8740 C   0  0  0  0  0  0  0  0  0  0  0  0
    3.1790   20.3810   36.7620 O   0  0  0  0  0  0  0  0  0  0  0  0
   -0.1720   16.6620   43.4850 C   0  0  0  0  0  0  0  0  0  0  0  0
    0.7120   18.6890   42.3180 C   0  0  0  0  0  0  0  0  0  0  0  0
    2.3090   18.3570   40.4540 C   0  0  0  0  0  0  0  0  0  0  0  0
   -0.7092   18.7794   43.9700 H   0  0  0  0  0  0  0  0  0  0  0  0
    1.4041   21.6823   40.6777 H   0  0  0  0  0  0  0  0  0  0  0  0
    3.7975   21.1099   39.5985 H   0  0  0  0  0  0  0  0  0  0  0  0
    4.0241   19.4003   38.9841 H   0  0  0  0  0  0  0  0  0  0  0  0
    1.1588   14.9638   43.1659 H   0  0  0  0  0  0  0  0  0  0  0  0
    2.3200   15.7934   41.1976 H   0  0  0  0  0  0  0  0  0  0  0  0
   -0.0321   20.7925   42.4682 H   0  0  0  0  0  0  0  0  0  0  0  0
    2.9212   17.6813   39.8387 H   0  0  0  0  0  0  0  0  0  0  0  0
  1 13  2  0
  2 10  2  0
  3  7  1  0
  4 13  1  0
  5  4  2  0
  7 15  2  0
  7  2  1  0
  8  5  1  0
  8 14  2  0
 10 14  1  0
 11  6  1  0
 11  3  1  0
 12 11  2  0
 13  9  1  0
 14  1  1  0
 15  8  1  0
  1 16  1  0
  2 17  1  0
  3 18  1  0
  3 19  1  0
  4 20  1  0
  5 21  1  0
 10 22  1  0
 15 23  1  0
M  CHG  1   6  -1
M  END
>  <mol_id>  (32) 
2026-08-23-6tgu-s0-n100-prep-0033

>  <rmsd_to_ref>  (32) 


$$$$

     RDKit          3D

 25 27  0  0  0  0  0  0  0  0999 V2000
    3.4840   19.9080   36.5410 O   0  0  0  0  0  0  0  0  0  0  0  0
    1.7070   20.9070   39.4960 C   0  0  0  0  0  0  0  0  0  0  0  0
    1.4890   17.3920   41.2230 C   0  0  0  0  0  0  0  0  0  0  0  0
   -0.6270   16.3250   43.8020 O   0  0  0  0  0  0  0  0  0  0  0  0
    3.0740   19.6420   37.8260 C   0  0  0  0  0  0  0  0  0  0  0  0
    2.7160   17.8290   39.3220 C   0  0  0  0  0  0  0  0  0  0  0  0
    0.5740   17.6820   42.1060 C   0  0  0  0  0  0  0  0  0  0  0  0
    0.7670   20.2140   41.5060 C   0  0  0  0  0  0  0  0  0  0  0  0
   -0.3280   17.4420   43.3280 C   0  0  0  0  0  0  0  0  0  0  0  0
    2.5130   20.6990   38.4450 C   0  0  0  0  0  0  0  0  0  0  0  0
    2.0220   18.4570   40.2270 C   0  0  0  0  0  0  0  0  0  0  0  0
   -0.3770   18.6280   43.6160 C   0  0  0  0  0  0  0  0  0  0  0  0
    3.2220   18.3370   38.2180 C   0  0  0  0  0  0  0  0  0  0  0  0
    1.5060   19.7920   40.3280 C   0  0  0  0  0  0  0  0  0  0  0  0
    0.2470   19.3890   42.4920 C   0  0  0  0  0  0  0  0  0  0  0  0
    3.4115   20.8263   36.1784 H   0  0  0  0  0  0  0  0  0  0  0  0
    1.2362   21.8814   39.6933 H   0  0  0  0  0  0  0  0  0  0  0  0
    1.8923   16.3694   41.1830 H   0  0  0  0  0  0  0  0  0  0  0  0
    2.8992   16.7589   39.4989 H   0  0  0  0  0  0  0  0  0  0  0  0
    0.6039   21.2950   41.6276 H   0  0  0  0  0  0  0  0  0  0  0  0
    2.7907   21.6451   37.9573 H   0  0  0  0  0  0  0  0  0  0  0  0
   -1.4238   18.9402   43.7454 H   0  0  0  0  0  0  0  0  0  0  0  0
    0.1574   18.8204   44.5580 H   0  0  0  0  0  0  0  0  0  0  0  0
    3.8032   17.6686   37.5657 H   0  0  0  0  0  0  0  0  0  0  0  0
    2.3791   20.0839   40.9301 H   0  0  0  0  0  0  0  0  0  0  0  0
  1  5  1  0
  3  7  2  0
  5 13  2  0
  5 10  1  0
  6 11  2  0
  7 15  1  0
  7  9  1  0
  8 15  2  0
  9 12  1  0
  9  4  2  0
 10  2  2  0
 11 14  1  0
 11  3  1  0
 13  6  1  0
 14  2  1  0
 14  8  1  0
 15 12  1  0
  1 16  1  0
  2 17  1  0
  3 18  1  0
  6 19  1  0
  8 20  1  0
 10 21  1  0
 12 22  1  0
 12 23  1  0
 13 24  1  0
 14 25  1  0
M  END
>  <mol_id>  (33) 
2026-08-23-6tgu-s0-n100-prep-0034

>  <rmsd_to_ref>  (33) 


$$$$

     RDKit          3D

 35 37  0  0  0  0  0  0  0  0999 V2000
    3.2370   15.8810   38.5170 O   0  0  0  0  0  0  0  0  0  0  0  0
    2.6480   18.4390   39.0450 C   0  0  0  0  0  0  0  0  0  0  0  0
    2.6070   14.8900   40.3640 C   0  0  0  0  0  0  0  0  0  0  0  0
    1.7860   17.9670   41.2600 N   0  0  0  0  0  0  0  0  0  0  0  0
    0.5200   19.9110   42.0160 C   0  0  0  0  0  0  0  0  0  0  0  0
    3.4320   14.5640   38.3720 N   0  0  0  0  0  0  0  0  0  0  0  0
    2.5540   20.7440   38.1660 C   0  0  0  0  0  0  0  0  0  0  0  0
    1.9560   14.5570   41.7110 C   0  0  0  0  0  0  0  0  0  0  0  0
    3.1520   20.3360   36.9910 C   0  0  0  0  0  0  0  0  0  0  0  0
   -1.3640   19.5120   43.4230 C   0  0  0  0  0  0  0  0  0  0  0  0
    3.5100   19.0600   36.8250 N   0  0  0  0  0  0  0  0  0  0  0  0
    2.4010   17.5290   40.1820 C   0  0  0  0  0  0  0  0  0  0  0  0
   -0.5950   20.4180   42.8400 C   0  0  0  0  0  0  0  0  0  0  0  0
   -0.8840   21.7710   42.8440 O   0  0  0  0  0  0  0  0  0  0  0  0
    2.2210   19.7640   39.1940 C   0  0  0  0  0  0  0  0  0  0  0  0
    0.0930   17.6740   42.8840 C   0  0  0  0  0  0  0  0  0  0  0  0
   -1.0230   18.1450   43.6280 C   0  0  0  0  0  0  0  0  0  0  0  0
    3.2070   18.1370   37.8310 C   0  0  0  0  0  0  0  0  0  0  0  0
    0.7970   18.4700   42.0770 C   0  0  0  0  0  0  0  0  0  0  0  0
    2.6840   16.1470   39.7000 C   0  0  0  0  0  0  0  0  0  0  0  0
    3.0600   13.8970   39.4980 N   0  0  0  0  0  0  0  0  0  0  0  0
    2.5470   17.8690   41.9471 H   0  0  0  0  0  0  0  0  0  0  0  0
    1.1178   20.5837   41.3834 H   0  0  0  0  0  0  0  0  0  0  0  0
    2.3284   21.8085   38.3274 H   0  0  0  0  0  0  0  0  0  0  0  0
    2.6117   14.8924   42.5280 H   0  0  0  0  0  0  0  0  0  0  0  0
    0.9855   15.0694   41.7859 H   0  0  0  0  0  0  0  0  0  0  0  0
    1.8035   13.4702   41.7859 H   0  0  0  0  0  0  0  0  0  0  0  0
    3.3346   21.0649   36.1877 H   0  0  0  0  0  0  0  0  0  0  0  0
   -2.3505   19.8435   43.7794 H   0  0  0  0  0  0  0  0  0  0  0  0
    2.8105   17.4480   41.1997 H   0  0  0  0  0  0  0  0  0  0  0  0
   -1.6307   22.1160   43.3949 H   0  0  0  0  0  0  0  0  0  0  0  0
    1.6395   20.0634   40.0784 H   0  0  0  0  0  0  0  0  0  0  0  0
    0.3861   16.6178   42.9767 H   0  0  0  0  0  0  0  0  0  0  0  0
   -1.5854   17.4967   44.3160 H   0  0  0  0  0  0  0  0  0  0  0  0
    3.4367   17.0800   37.6309 H   0  0  0  0  0  0  0  0  0  0  0  0
  1 20  1  0
  2 15  1  0
  2 12  1  0
  3  8  1  0
  4 19  1  0
  5 19  2  0
  5 13  1  0
  6  1  1  0
  6 21  2  0
  7 15  2  0
  9  7  1  0
 10 17  1  0
 11  9  2  0
 11 18  1  0
 12  4  1  0
 13 14  1  0
 13 10  2  0
 16 17  2  0
 18  2  2  0
 19 16  1  0
 20 12  1  0
 20  3  2  0
 21  3  1  0
  4 22  1  0
  5 23  1  0
  7 24  1  0
  8 25  1  0
  8 26  1  0
  8 27  1  0
  9 28  1  0
 10 29  1  0
 12 30  1  0
 14 31  1  0
 15 32  1  0
 16 33  1  0
 17 34  1  0
 18 35  1  0
M  END
>  <mol_id>  (34) 
2026-08-23-6tgu-s0-n100-prep-0035

>  <rmsd_to_ref>  (34) 


$$$$

     RDKit          3D

 46 49  0  0  0  0  0  0  0  0999 V2000
    0.9140   16.8260   42.1100 C   0  0  0  0  0  0  0  0  0  0  0  0
   -0.4120   11.7590   46.2670 C   0  0  0  0  0  0  0  0  0  0  0  0
    1.7640   21.1870   39.7050 C   0  0  0  0  0  0  0  0  0  0  0  0
    3.1210   19.0730   38.0970 C   0  0  0  0  0  0  0  0  0  0  0  0
    0.0250   12.3090   44.0110 C   0  0  0  0  0  0  0  0  0  0  0  0
   -0.7070   18.6890   43.7960 C   0  0  0  0  0  0  0  0  0  0  0  0
    2.4890   17.6630   40.2640 C   0  0  0  0  0  0  0  0  0  0  0  0
    0.1790   19.6110   43.1330 C   0  0  0  0  0  0  0  0  0  0  0  0
    4.0840   20.5790   35.7380 O   0  0  0  0  0  0  0  0  0  0  0  0
   -0.6380   13.0440   46.5370 N   0  0  0  0  0  0  0  0  0  0  0  0
   -0.1090   13.7560   44.3220 C   0  0  0  0  0  0  0  0  0  0  0  0
   -0.4470   14.0060   45.6660 C   0  0  0  0  0  0  0  0  0  0  0  0
    2.7690   20.3810   37.5640 C   0  0  0  0  0  0  0  0  0  0  0  0
    2.3250   21.9060   35.7420 O   0  0  0  0  0  1  0  0  0  0  0  0
   -0.1590   11.2520   44.9940 C   0  0  0  0  0  0  0  0  0  0  0  0
    2.0770   20.0580   39.6320 C   0  0  0  0  0  0  0  0  0  0  0  0
    3.0660   20.9270   36.3200 C   0  0  0  0  0  0  0  0  0  0  0  0
    1.5530   17.9500   41.4950 C   0  0  0  0  0  0  0  0  0  0  0  0
    1.1900   19.2080   42.2050 C   0  0  0  0  0  0  0  0  0  0  0  0
    0.1590   16.2220   43.0580 C   0  0  0  0  0  0  0  0  0  0  0  0
    2.0620   21.0880   38.4120 C   0  0  0  0  0  0  0  0  0  0  0  0
    2.5780   18.8400   39.3810 C   0  0  0  0  0  0  0  0  0  0  0  0
   -0.6110   17.2230   43.9200 C   0  0  0  0  0  0  0  0  0  0  0  0
    0.0960   14.7530   43.3360 N   0  0  0  0  0  0  0  0  0  0  0  0
    3.8880   17.8980   37.3630 C   0  0  0  0  0  0  0  0  0  0  0  0
    1.1873   15.9932   41.4453 H   0  0  0  0  0  0  0  0  0  0  0  0
   -0.4261   11.0492   47.1072 H   0  0  0  0  0  0  0  0  0  0  0  0
    0.7111   21.3889   39.9514 H   0  0  0  0  0  0  0  0  0  0  0  0
    2.1696   21.9283   40.4092 H   0  0  0  0  0  0  0  0  0  0  0  0
    0.2774   12.0208   42.9799 H   0  0  0  0  0  0  0  0  0  0  0  0
   -1.5829   19.1451   44.2804 H   0  0  0  0  0  0  0  0  0  0  0  0
    3.4955   17.4103   40.6288 H   0  0  0  0  0  0  0  0  0  0  0  0
    2.0653   16.8259   39.6898 H   0  0  0  0  0  0  0  0  0  0  0  0
    0.0723   20.6836   43.3523 H   0  0  0  0  0  0  0  0  0  0  0  0
   -0.5551   15.0490   45.9985 H   0  0  0  0  0  0  0  0  0  0  0  0
   -0.1047   10.1786   44.7596 H   0  0  0  0  0  0  0  0  0  0  0  0
    1.0347   19.7832   39.4128 H   0  0  0  0  0  0  0  0  0  0  0  0
    1.8702   20.0347   41.9522 H   0  0  0  0  0  0  0  0  0  0  0  0
   -0.6655   16.1209   42.3369 H   0  0  0  0  0  0  0  0  0  0  0  0
    1.8371   21.8566   37.6579 H   0  0  0  0  0  0  0  0  0  0  0  0
    3.5327   19.1383   39.8389 H   0  0  0  0  0  0  0  0  0  0  0  0
   -1.1765   16.7849   44.7556 H   0  0  0  0  0  0  0  0  0  0  0  0
    0.2751   14.2673   42.4455 H   0  0  0  0  0  0  0  0  0  0  0  0
    4.3284   17.2234   38.1120 H   0  0  0  0  0  0  0  0  0  0  0  0
    3.1821   17.3363   36.7336 H   0  0  0  0  0  0  0  0  0  0  0  0
    4.6863   18.3181   36.7336 H   0  0  0  0  0  0  0  0  0  0  0  0
  1 20  1  0
  2 10  2  0
  4 22  1  0
  5 11  1  0
  5 15  2  0
  6 23  2  0
  7 18  1  0
  8  6  1  0
  9 17  2  0
 11 12  2  0
 12 10  1  0
 13  4  2  0
 13 21  1  0
 14 17  1  0
 15  2  1  0
 16  3  1  0
 17 13  1  0
 18  1  2  0
 18 19  1  0
 19  8  2  0
 20 24  1  0
 20 23  1  0
 21 16  1  0
 21  3  1  0
 22 16  1  0
 22  7  1  0
 24 11  1  0
 25  4  1  0
  1 26  1  0
  2 27  1  0
  3 28  1  0
  3 29  1  0
  5 30  1  0
  6 31  1  0
  7 32  1  0
  7 33  1  0
  8 34  1  0
 12 35  1  0
 15 36  1  0
 16 37  1  0
 19 38  1  0
 20 39  1  0
 21 40  1  0
 22 41  1  0
 23 42  1  0
 24 43  1  0
 25 44  1  0
 25 45  1  0
 25 46  1  0
M  CHG  1  14  -1
M  END
>  <mol_id>  (35) 
2026-08-23-6tgu-s0-n100-prep-0036

>  <rmsd_to_ref>  (35) 


$$$$

     RDKit          3D

 69 74  0  0  0  0  0  0  0  0999 V2000
    1.6060   16.5600   40.8080 C   0  0  0  0  0  0  0  0  0  0  0  0
   -0.9600   12.5490   45.7060 C   0  0  0  0  0  0  0  0  0  0  0  0
    3.1540   17.9170   38.5400 C   0  0  0  0  0  0  0  0  0  0  0  0
    0.0890   15.7220   43.7970 C   0  0  0  0  0  0  0  0  0  0  0  0
    5.3690   14.1900   37.4560 C   0  0  0  0  0  0  0  0  0  0  0  0
    3.7430   15.9960   37.4890 C   0  0  0  0  0  0  0  0  0  0  0  0
    0.7440   20.1530   41.3390 C   0  0  0  0  0  0  0  0  0  0  0  0
   -0.0430   21.2080   41.9800 C   0  0  0  0  0  0  0  0  0  0  0  0
    4.0450   19.3120   36.5260 N   0  0  0  0  0  0  0  0  0  0  0  0
    2.7210   20.3070   37.9830 C   0  0  0  0  0  0  0  0  0  0  0  0
   -2.6280   18.2360   44.8960 N   0  0  0  0  0  4  0  0  0  0  0  0
   -1.3630   17.4610   44.9830 C   0  0  0  0  0  0  0  0  0  0  0  0
   -0.4260   14.8300   44.7690 C   0  0  0  0  0  0  0  0  0  0  0  0
    4.2550   21.0820   34.8340 C   0  0  0  0  0  0  0  0  0  0  0  0
    1.5330   20.3860   40.1810 C   0  0  0  0  0  0  0  0  0  0  0  0
    0.8510   18.8740   42.0100 C   0  0  0  0  0  0  0  0  0  0  0  0
    1.0590   15.1920   42.8620 C   0  0  0  0  0  0  0  0  0  0  0  0
    0.5230   12.8570   43.5920 C   0  0  0  0  0  0  0  0  0  0  0  0
    3.7920   20.4490   36.0190 C   0  0  0  0  0  0  0  0  0  0  0  0
    3.3080   19.1550   37.7380 C   0  0  0  0  0  0  0  0  0  0  0  0
    2.5850   22.7590   35.2330 C   0  0  0  0  0  0  0  0  0  0  0  0
    1.9610   17.9250   41.4060 C   0  0  0  0  0  0  0  0  0  0  0  0
    4.0810   14.7110   37.9210 O   0  0  0  0  0  0  0  0  0  0  0  0
    0.0800   18.9680   46.1470 N   0  0  0  0  0  0  0  0  0  0  0  0
   -0.4890   17.2230   43.7670 C   0  0  0  0  0  0  0  0  0  0  0  0
    2.2560   22.1120   36.4340 C   0  0  0  0  0  0  0  0  0  0  0  0
   -0.7510   19.7290   43.8040 N   0  0  0  0  0  0  0  0  0  0  0  0
   -0.7150   21.0760   43.1800 C   0  0  0  0  0  0  0  0  0  0  0  0
   -0.7350   17.1850   47.2450 O   0  0  0  0  0  0  0  0  0  0  0  0
    3.6600   22.2820   34.4720 C   0  0  0  0  0  0  0  0  0  0  0  0
    2.0600   20.4670   39.1770 C   0  0  0  0  0  0  0  0  0  0  0  0
    2.8630   16.6530   38.2140 N   0  0  0  0  0  0  0  0  0  0  0  0
   -0.6660   17.9120   46.2210 C   0  0  0  0  0  0  0  0  0  0  0  0
   -0.0350   18.5610   43.1030 C   0  0  0  0  0  0  0  0  0  0  0  0
   -0.2390   13.4200   44.6430 C   0  0  0  0  0  0  0  0  0  0  0  0
    1.9120   16.4680   42.3000 C   0  0  0  0  0  0  0  0  0  0  0  0
    1.1830   13.8000   42.7170 C   0  0  0  0  0  0  0  0  0  0  0  0
    4.3650   16.4170   36.4900 O   0  0  0  0  0  0  0  0  0  0  0  0
    2.8970   21.0500   36.8400 C   0  0  0  0  0  0  0  0  0  0  0  0
    0.5737   16.3854   40.4705 H   0  0  0  0  0  0  0  0  0  0  0  0
    2.0171   16.0142   39.9460 H   0  0  0  0  0  0  0  0  0  0  0  0
   -0.6774   12.8904   46.7128 H   0  0  0  0  0  0  0  0  0  0  0  0
   -2.0487   12.6423   45.5793 H   0  0  0  0  0  0  0  0  0  0  0  0
   -0.6650   11.4969   45.5793 H   0  0  0  0  0  0  0  0  0  0  0  0
    4.1192   17.8295   39.0603 H   0  0  0  0  0  0  0  0  0  0  0  0
    2.1614   18.1638   38.9449 H   0  0  0  0  0  0  0  0  0  0  0  0
    5.9965   13.9362   38.3231 H   0  0  0  0  0  0  0  0  0  0  0  0
    5.2020   13.2887   36.8479 H   0  0  0  0  0  0  0  0  0  0  0  0
    5.8756   14.9539   36.8479 H   0  0  0  0  0  0  0  0  0  0  0  0
   -0.1039   22.1794   41.4674 H   0  0  0  0  0  0  0  0  0  0  0  0
   -2.9687   18.4447   45.8453 H   0  0  0  0  0  0  0  0  0  0  0  0
   -2.4567   19.1173   44.3912 H   0  0  0  0  0  0  0  0  0  0  0  0
   -3.3354   17.6831   44.3912 H   0  0  0  0  0  0  0  0  0  0  0  0
   -1.6681   16.4052   45.0304 H   0  0  0  0  0  0  0  0  0  0  0  0
   -0.9777   15.2289   45.6330 H   0  0  0  0  0  0  0  0  0  0  0  0
    5.0561   20.6368   34.2257 H   0  0  0  0  0  0  0  0  0  0  0  0
    0.6080   11.7696   43.4495 H   0  0  0  0  0  0  0  0  0  0  0  0
    4.1867   19.4801   38.3144 H   0  0  0  0  0  0  0  0  0  0  0  0
    2.0057   23.6302   34.8933 H   0  0  0  0  0  0  0  0  0  0  0  0
    2.6312   18.7203   41.0478 H   0  0  0  0  0  0  0  0  0  0  0  0
    0.5762   19.3076   46.9832 H   0  0  0  0  0  0  0  0  0  0  0  0
    0.1771   19.4683   45.2519 H   0  0  0  0  0  0  0  0  0  0  0  0
   -0.6866   17.0058   42.7069 H   0  0  0  0  0  0  0  0  0  0  0  0
    1.4361   22.5105   37.0496 H   0  0  0  0  0  0  0  0  0  0  0  0
   -1.2057   21.9378   43.6560 H   0  0  0  0  0  0  0  0  0  0  0  0
    4.0259   22.8486   33.6030 H   0  0  0  0  0  0  0  0  0  0  0  0
    1.9840   16.2108   38.5186 H   0  0  0  0  0  0  0  0  0  0  0  0
    2.4751   16.3612   43.2389 H   0  0  0  0  0  0  0  0  0  0  0  0
    1.8101   13.4103   41.9016 H   0  0  0  0  0  0  0  0  0  0  0  0
  4 13  2  0
  5 23  1  0
  6 23  1  0
  6 32  1  0
  7  8  1  0
  7 16  2  0
  8 28  2  0
  9 20  1  0
 10 31  1  0
 12 11  1  0
 12 33  1  0
 14 19  1  0
 15  7  1  0
 16 34  1  0
 17  4  1  0
 18 35  2  0
 19  9  2  0
 19 39  1  0
 20 10  1  0
 20  3  1  0
 21 26  2  0
 22  1  1  0
 22 16  1  0
 22 36  1  0
 24 33  1  0
 25  4  1  0
 25 12  1  0
 26 39  1  0
 28 27  1  0
 30 14  2  0
 30 21  1  0
 31 15  3  0
 32  3  1  0
 33 29  2  0
 34 25  1  0
 34 27  2  0
 35 13  1  0
 35  2  1  0
 36  1  1  0
 36 17  1  0
 37 17  2  0
 37 18  1  0
 38  6  2  0
 39 10  2  0
  1 40  1  0
  1 41  1  0
  2 42  1  0
  2 43  1  0
  2 44  1  0
  3 45  1  0
  3 46  1  0
  5 47  1  0
  5 48  1  0
  5 49  1  0
  8 50  1  0
 11 51  1  0
 11 52  1  0
 11 53  1  0
 12 54  1  0
 13 55  1  0
 14 56  1  0
 18 57  1  0
 20 58  1  0
 21 59  1  0
 22 60  1  0
 24 61  1  0
 24 62  1  0
 25 63  1  0
 26 64  1  0
 28 65  1  0
 30 66  1  0
 32 67  1  0
 36 68  1  0
 37 69  1  0
M  CHG  1  11   1
M  END
>  <mol_id>  (36) 
2026-08-23-6tgu-s0-n100-prep-0037

>  <rmsd_to_ref>  (36) 


$$$$

     RDKit          3D

 26 27  0  0  0  0  0  0  0  0999 V2000
    0.2260   18.6110   42.3160 C   0  0  0  0  0  0  0  0  0  0  0  0
    0.0440   19.9700   42.5490 N   0  0  0  0  0  0  0  0  0  0  0  0
    2.0430   18.9010   40.5150 C   0  0  0  0  0  0  0  0  0  0  0  0
    1.3170   18.0090   41.4910 C   0  0  0  0  0  0  0  0  0  0  0  0
    1.7030   20.2230   40.0870 C   0  0  0  0  0  0  0  0  0  0  0  0
    2.7700   20.1670   37.6530 C   0  0  0  0  0  0  0  0  0  0  0  0
    1.7020   16.5740   41.6560 C   0  0  0  0  0  0  0  0  0  0  0  0
    2.1310   20.7550   38.7350 C   0  0  0  0  0  0  0  0  0  0  0  0
    0.4550   21.0470   42.0520 C   0  0  0  0  0  0  0  0  0  0  0  0
    3.0230   18.1980   39.8260 O   0  0  0  0  0  0  0  0  0  0  0  0
    1.6370   15.5740   42.4770 C   0  0  0  0  0  0  0  0  0  0  0  0
    3.2460   18.7790   37.4140 C   0  0  0  0  0  0  0  0  0  0  0  0
    1.1660   21.2230   40.9240 C   0  0  0  0  0  0  0  0  0  0  0  0
    2.9680   17.7820   38.4460 C   0  0  0  0  0  0  0  0  0  0  0  0
   -0.5820   17.7720   42.9040 O   0  0  0  0  0  0  0  0  0  0  0  0
    0.6036   17.7270   40.7026 H   0  0  0  0  0  0  0  0  0  0  0  0
    2.9597   20.8557   36.8165 H   0  0  0  0  0  0  0  0  0  0  0  0
    2.2346   16.2486   40.7502 H   0  0  0  0  0  0  0  0  0  0  0  0
    1.8872   21.8165   38.5806 H   0  0  0  0  0  0  0  0  0  0  0  0
    0.2019   21.9613   42.6088 H   0  0  0  0  0  0  0  0  0  0  0  0
    2.0798   14.6058   42.2006 H   0  0  0  0  0  0  0  0  0  0  0  0
    1.1390   15.6931   43.4505 H   0  0  0  0  0  0  0  0  0  0  0  0
    3.7874   18.5122   36.4944 H   0  0  0  0  0  0  0  0  0  0  0  0
    2.0312   21.8304   41.2281 H   0  0  0  0  0  0  0  0  0  0  0  0
    0.3616   21.5854   40.2670 H   0  0  0  0  0  0  0  0  0  0  0  0
    2.7237   16.7436   38.1778 H   0  0  0  0  0  0  0  0  0  0  0  0
  1  2  1  0
  1 15  2  0
  3  4  1  0
  4  7  1  0
  4  1  1  0
  5  3  2  0
  5 13  1  0
  6  8  2  0
  7 11  2  3
  8  5  1  0
  9  2  2  0
 10  3  1  0
 12  6  1  0
 12 14  2  0
 13  9  1  0
 14 10  1  0
  4 16  1  0
  6 17  1  0
  7 18  1  0
  8 19  1  0
  9 20  1  0
 11 21  1  0
 11 22  1  0
 12 23  1  0
 13 24  1  0
 13 25  1  0
 14 26  1  0
M  END
>  <mol_id>  (37) 
2026-08-23-6tgu-s0-n100-prep-0038

>  <rmsd_to_ref>  (37) 


$$$$

     RDKit          3D

 32 35  0  0  0  0  0  0  0  0999 V2000
    2.5900   15.9470   40.3420 C   0  0  0  0  0  0  0  0  0  0  0  0
    1.0500   16.8050   42.0800 C   0  0  0  0  0  0  0  0  0  0  0  0
    2.6600   18.4120   39.0200 C   0  0  0  0  0  0  0  0  0  0  0  0
    0.2810   18.0160   42.5980 C   0  0  0  0  0  0  0  0  0  0  0  0
    1.4770   20.7980   40.1740 C   0  0  0  0  0  0  0  0  0  0  0  0
    3.4300   19.6630   37.0540 C   0  0  0  0  0  0  0  0  0  0  0  0
    2.7640   19.6890   38.3720 C   0  0  0  0  0  0  0  0  0  0  0  0
   -0.1580   20.3980   42.5700 C   0  0  0  0  0  0  0  0  0  0  0  0
    2.0220   18.3450   40.2680 C   0  0  0  0  0  0  0  0  0  0  0  0
   -1.2310   19.1490   44.1800 C   0  0  0  0  0  0  0  0  0  0  0  0
    2.1990   20.8210   38.9910 C   0  0  0  0  0  0  0  0  0  0  0  0
    3.1720   17.3290   38.4870 O   0  0  0  0  0  0  0  0  0  0  0  0
    2.4380   14.6590   40.9870 C   0  0  0  0  0  0  0  0  0  0  0  0
    1.8520   17.0400   40.9280 C   0  0  0  0  0  0  0  0  0  0  0  0
   -0.6100   17.9540   43.7240 C   0  0  0  0  0  0  0  0  0  0  0  0
    3.5270   20.5990   36.3390 O   0  0  0  0  0  0  0  0  0  0  0  0
    1.3500   19.4810   40.8490 C   0  0  0  0  0  0  0  0  0  0  0  0
    0.5040   19.3180   42.0450 C   0  0  0  0  0  0  0  0  0  0  0  0
    0.9950   15.5770   42.6270 C   0  0  0  0  0  0  0  0  0  0  0  0
    1.6570   14.4560   42.0670 C   0  0  0  0  0  0  0  0  0  0  0  0
   -1.0050   20.3130   43.6590 N   0  0  0  0  0  0  0  0  0  0  0  0
    3.2300   16.0839   39.4579 H   0  0  0  0  0  0  0  0  0  0  0  0
    1.0216   21.7081   40.5914 H   0  0  0  0  0  0  0  0  0  0  0  0
    3.8640   18.7105   36.7159 H   0  0  0  0  0  0  0  0  0  0  0  0
   -0.0074   21.3815   42.1009 H   0  0  0  0  0  0  0  0  0  0  0  0
   -1.9399   19.0814   45.0184 H   0  0  0  0  0  0  0  0  0  0  0  0
    2.3411   21.7948   38.4995 H   0  0  0  0  0  0  0  0  0  0  0  0
    3.6222   17.3759   37.6065 H   0  0  0  0  0  0  0  0  0  0  0  0
    2.9889   13.8012   40.5738 H   0  0  0  0  0  0  0  0  0  0  0  0
   -0.8087   16.9956   44.2259 H   0  0  0  0  0  0  0  0  0  0  0  0
    0.4110   15.4371   43.5486 H   0  0  0  0  0  0  0  0  0  0  0  0
    1.5374   13.4519   42.4999 H   0  0  0  0  0  0  0  0  0  0  0  0
  1 14  2  0
  1 13  1  0
  2  4  1  0
  2 19  2  0
  3  9  2  0
  4 15  2  0
  5 17  2  0
  6  7  1  0
  7 11  2  0
  7  3  1  0
  8 21  1  0
  9 17  1  0
  9 14  1  0
 11  5  1  0
 12  3  1  0
 13 20  2  0
 14  2  1  0
 15 10  1  0
 16  6  2  0
 17 18  1  0
 18  8  2  0
 18  4  1  0
 20 19  1  0
 21 10  2  0
  1 22  1  0
  5 23  1  0
  6 24  1  0
  8 25  1  0
 10 26  1  0
 11 27  1  0
 12 28  1  0
 13 29  1  0
 15 30  1  0
 19 31  1  0
 20 32  1  0
M  END
>  <mol_id>  (38) 
2026-08-23-6tgu-s0-n100-prep-0039

>  <rmsd_to_ref>  (38) 


$$$$

     RDKit          3D

 50 54  0  0  0  0  0  0  0  0999 V2000
    1.1600   16.1770   42.9070 C   0  0  0  0  0  0  0  0  0  0  0  0
    3.6480   15.8450   38.7220 O   0  0  0  0  0  0  0  0  0  0  0  0
    1.5930   16.4600   41.5130 C   0  0  0  0  0  0  0  0  0  0  0  0
    0.1820   18.9560   42.3390 C   0  0  0  0  0  0  0  0  0  0  0  0
    3.1140   20.6830   37.1450 C   0  0  0  0  0  0  0  0  0  0  0  0
    0.9990   18.9160   41.2250 C   0  0  0  0  0  0  0  0  0  0  0  0
    2.1110   20.7980   38.1280 N   0  0  0  0  0  0  0  0  0  0  0  0
    2.0140   20.0010   39.2220 C   0  0  0  0  0  0  0  0  0  0  0  0
   -0.6940   17.8810   43.0290 C   0  0  0  0  0  0  0  0  0  0  0  0
   -0.7190   14.1090   46.4530 C   0  0  0  0  0  0  0  0  0  0  0  0
    2.6190   21.9310   35.3010 O   0  0  0  0  0  0  0  0  0  0  0  0
   -0.6950   15.8820   44.6930 C   0  0  0  0  0  0  0  0  0  0  0  0
    4.0150   20.2460   36.3190 O   0  0  0  0  0  0  0  0  0  0  0  0
   -0.1330   20.4190   42.4270 C   0  0  0  0  0  0  0  0  0  0  0  0
    3.3110   21.2690   36.0600 C   0  0  0  0  0  0  0  0  0  0  0  0
    2.2810   15.5880   40.6980 C   0  0  0  0  0  0  0  0  0  0  0  0
    2.3920   17.6410   39.7690 C   0  0  0  0  0  0  0  0  0  0  0  0
    0.5250   21.1410   41.4520 C   0  0  0  0  0  0  0  0  0  0  0  0
    1.2450   20.1230   40.6130 C   0  0  0  0  0  0  0  0  0  0  0  0
   -1.2990   18.4370   44.1590 O   0  0  0  0  0  0  0  0  0  0  0  0
   -0.0510   16.5960   43.5880 N   0  0  0  0  0  0  0  0  0  0  0  0
    2.6520   18.7460   39.0100 C   0  0  0  0  0  0  0  0  0  0  0  0
    1.6000   17.6500   40.9000 C   0  0  0  0  0  0  0  0  0  0  0  0
    3.7260   16.3810   37.4090 C   0  0  0  0  0  0  0  0  0  0  0  0
    2.8040   16.3530   39.6970 N   0  0  0  0  0  0  0  0  0  0  0  0
   -0.3590   14.4810   44.9440 C   0  0  0  0  0  0  0  0  0  0  0  0
    2.4210   14.1020   40.7830 C   0  0  0  0  0  0  0  0  0  0  0  0
    1.9756   16.5695   43.5321 H   0  0  0  0  0  0  0  0  0  0  0  0
    0.9080   15.1138   42.7797 H   0  0  0  0  0  0  0  0  0  0  0  0
    2.9322   20.4048   38.1936 H   0  0  0  0  0  0  0  0  0  0  0  0
    1.4036   21.5370   38.0081 H   0  0  0  0  0  0  0  0  0  0  0  0
   -1.3327   17.5805   42.1854 H   0  0  0  0  0  0  0  0  0  0  0  0
   -0.1196   14.7284   47.1364 H   0  0  0  0  0  0  0  0  0  0  0  0
   -1.7882   14.2956   46.6316 H   0  0  0  0  0  0  0  0  0  0  0  0
   -0.4974   13.0464   46.6316 H   0  0  0  0  0  0  0  0  0  0  0  0
   -1.7789   15.9223   44.5101 H   0  0  0  0  0  0  0  0  0  0  0  0
   -0.3178   16.4000   45.5871 H   0  0  0  0  0  0  0  0  0  0  0  0
   -1.2171   20.5586   42.3037 H   0  0  0  0  0  0  0  0  0  0  0  0
    0.2015   20.7840   43.4093 H   0  0  0  0  0  0  0  0  0  0  0  0
    0.5229   22.2327   41.3173 H   0  0  0  0  0  0  0  0  0  0  0  0
   -0.8861   18.0575   44.9748 H   0  0  0  0  0  0  0  0  0  0  0  0
    3.3885   18.6626   38.1972 H   0  0  0  0  0  0  0  0  0  0  0  0
    3.8842   17.4681   37.4655 H   0  0  0  0  0  0  0  0  0  0  0  0
    4.5659   15.9157   36.8723 H   0  0  0  0  0  0  0  0  0  0  0  0
    2.7883   16.1743   36.8723 H   0  0  0  0  0  0  0  0  0  0  0  0
   -0.9337   13.8382   44.2610 H   0  0  0  0  0  0  0  0  0  0  0  0
    0.7169   14.3264   44.7753 H   0  0  0  0  0  0  0  0  0  0  0  0
    2.4498   13.7962   41.8393 H   0  0  0  0  0  0  0  0  0  0  0  0
    1.5639   13.6239   40.2861 H   0  0  0  0  0  0  0  0  0  0  0  0
    3.3523   13.7924   40.2861 H   0  0  0  0  0  0  0  0  0  0  0  0
  1 21  1  0
  2 25  1  0
  3  1  1  0
  4 14  1  0
  4  9  1  0
  5  7  1  0
  6  4  2  0
  7  8  1  0
  8 19  1  0
  9 21  1  0
  9 20  1  0
 11 15  2  0
 12 26  1  0
 13  5  1  0
 15 13  1  0
 15  5  1  0
 16 27  1  0
 16  3  2  0
 17 23  2  0
 18 14  1  0
 19  6  1  0
 19 18  2  0
 21 12  1  0
 22  8  2  0
 22 17  1  0
 23  6  1  0
 23  3  1  0
 24  2  1  0
 25 17  1  0
 25 16  1  0
 26 10  1  0
  1 28  1  0
  1 29  1  0
  5 30  1  0
  7 31  1  0
  9 32  1  0
 10 33  1  0
 10 34  1  0
 10 35  1  0
 12 36  1  0
 12 37  1  0
 14 38  1  0
 14 39  1  0
 18 40  1  0
 20 41  1  0
 22 42  1  0
 24 43  1  0
 24 44  1  0
 24 45  1  0
 26 46  1  0
 26 47  1  0
 27 48  1  0
 27 49  1  0
 27 50  1  0
M  END
>  <mol_id>  (39) 
2026-08-23-6tgu-s0-n100-prep-0040

>  <rmsd_to_ref>  (39) 


$$$$

     RDKit          3D

 40 44  0  0  0  0  0  0  0  0999 V2000
   -0.8720   13.3700   45.2380 C   0  0  0  0  0  0  0  0  0  0  0  0
    2.4780   20.0290   38.4870 C   0  0  0  0  0  0  0  0  0  0  0  0
    1.4080   19.2930   40.6730 C   0  0  0  0  0  0  0  0  0  0  0  0
    1.0110   15.4840   42.7550 C   0  0  0  0  0  0  0  0  0  0  0  0
    0.0950   19.9280   42.6640 C   0  0  0  0  0  0  0  0  0  0  0  0
    1.3320   20.5880   40.2650 C   0  0  0  0  0  0  0  0  0  0  0  0
    0.2270   21.2300   42.3440 C   0  0  0  0  0  0  0  0  0  0  0  0
    3.1790   19.8030   37.3360 C   0  0  0  0  0  0  0  0  0  0  0  0
    0.6640   12.8030   43.2950 C   0  0  0  0  0  0  0  0  0  0  0  0
    0.0470   15.1640   43.6630 C   0  0  0  0  0  0  0  0  0  0  0  0
   -0.8620   16.1320   44.1960 N   0  0  0  0  0  0  0  0  0  0  0  0
    3.8680   18.6840   36.9910 N   0  0  0  0  0  0  0  0  0  0  0  0
    1.9050   14.6560   42.2760 C   0  0  0  0  0  0  0  0  0  0  0  0
    3.2330   20.8930   36.2580 O   0  0  0  0  0  0  0  0  0  0  0  0
   -0.6730   17.3860   43.6410 C   0  0  0  0  0  0  0  0  0  0  0  0
    2.3770   19.0190   39.5040 C   0  0  0  0  0  0  0  0  0  0  0  0
    3.2530   17.9740   39.2360 C   0  0  0  0  0  0  0  0  0  0  0  0
    3.7550   17.8450   38.0020 C   0  0  0  0  0  0  0  0  0  0  0  0
    0.5680   18.9270   41.9550 C   0  0  0  0  0  0  0  0  0  0  0  0
    1.6120   13.2770   42.3710 C   0  0  0  0  0  0  0  0  0  0  0  0
    0.3280   17.6140   42.6620 C   0  0  0  0  0  0  0  0  0  0  0  0
    1.1760   16.7270   42.1640 N   0  0  0  0  0  0  0  0  0  0  0  0
   -0.0740   13.7740   44.0300 C   0  0  0  0  0  0  0  0  0  0  0  0
    1.8000   21.0840   38.9820 C   0  0  0  0  0  0  0  0  0  0  0  0
    0.8880   21.5580   41.1140 C   0  0  0  0  0  0  0  0  0  0  0  0
   -0.3230   13.6479   46.1498 H   0  0  0  0  0  0  0  0  0  0  0  0
   -1.8442   13.8845   45.2241 H   0  0  0  0  0  0  0  0  0  0  0  0
   -1.0328   12.2819   45.2241 H   0  0  0  0  0  0  0  0  0  0  0  0
   -0.4496   19.6841   43.5881 H   0  0  0  0  0  0  0  0  0  0  0  0
   -0.1606   22.0181   43.0063 H   0  0  0  0  0  0  0  0  0  0  0  0
    0.4991   11.7257   43.4440 H   0  0  0  0  0  0  0  0  0  0  0  0
    2.8395   15.0166   41.8214 H   0  0  0  0  0  0  0  0  0  0  0  0
   -1.3110   18.2214   43.9652 H   0  0  0  0  0  0  0  0  0  0  0  0
    4.1067   18.0862   39.9205 H   0  0  0  0  0  0  0  0  0  0  0  0
    2.6340   17.0736   39.3630 H   0  0  0  0  0  0  0  0  0  0  0  0
    4.1515   16.8412   37.7893 H   0  0  0  0  0  0  0  0  0  0  0  0
    2.1323   12.5650   41.7135 H   0  0  0  0  0  0  0  0  0  0  0  0
    2.4595   21.9550   39.1099 H   0  0  0  0  0  0  0  0  0  0  0  0
    0.9885   21.4293   38.3246 H   0  0  0  0  0  0  0  0  0  0  0  0
    1.0400   22.6150   40.8500 H   0  0  0  0  0  0  0  0  0  0  0  0
  2 24  1  0
  2 16  2  0
  3 19  2  0
  4 10  2  0
  6  3  1  0
  6 25  2  0
  7  5  2  0
  8  2  1  0
  9 23  2  0
 10 23  1  0
 10 11  1  0
 12  8  1  0
 12 18  2  0
 13 20  2  0
 13  4  1  0
 14  8  2  0
 15 11  2  0
 16  3  1  0
 17 16  1  0
 18 17  1  0
 19 21  1  0
 19  5  1  0
 20  9  1  0
 21 15  1  0
 22 21  2  0
 22  4  1  0
 23  1  1  0
 24  6  1  0
 25  7  1  0
  1 26  1  0
  1 27  1  0
  1 28  1  0
  5 29  1  0
  7 30  1  0
  9 31  1  0
 13 32  1  0
 15 33  1  0
 17 34  1  0
 17 35  1  0
 18 36  1  0
 20 37  1  0
 24 38  1  0
 24 39  1  0
 25 40  1  0
M  END
>  <mol_id>  (40) 
2026-08-23-6tgu-s0-n100-prep-0041

>  <rmsd_to_ref>  (40) 


$$$$

     RDKit          3D

 42 46  0  0  0  0  0  0  0  0999 V2000
    3.0630   14.5280   40.4010 S   0  0  0  0  0  0  0  0  0  0  0  0
    1.1870   14.7050   42.4720 N   0  0  0  0  0  0  0  0  0  0  0  0
    3.6310   20.6140   36.3360 O   0  0  0  0  0  0  0  0  0  0  0  0
   -0.3390   15.8410   44.1910 C   0  0  0  0  0  0  0  0  0  0  0  0
    0.8920   16.9790   42.4740 C   0  0  0  0  0  0  0  0  0  0  0  0
   -0.9310   17.0680   44.5630 C   0  0  0  0  0  0  0  0  0  0  0  0
    1.8580   16.6610   41.4560 O   0  0  0  0  0  0  0  0  0  0  0  0
    2.8820   20.5490   37.2590 C   0  0  0  0  0  0  0  0  0  0  0  0
    3.0980   15.8870   38.1140 C   0  0  0  0  0  0  0  0  0  0  0  0
    1.7300   20.9820   40.6410 C   0  0  0  0  0  0  0  0  0  0  0  0
    1.7450   21.3290   39.2560 O   0  0  0  0  0  0  0  0  0  0  0  0
    1.9990   20.3640   38.2950 C   0  0  0  0  0  0  0  0  0  0  0  0
    1.9630   15.2610   41.5020 C   0  0  0  0  0  0  0  0  0  0  0  0
    0.3630   19.5590   42.2670 C   0  0  0  0  0  0  0  0  0  0  0  0
    3.6040   18.3330   38.3500 N   0  0  0  0  0  4  0  0  0  0  0  0
   -1.0420   19.5160   43.9870 N   0  0  0  0  0  0  0  0  0  0  0  0
    2.4120   14.9740   38.8850 C   0  0  0  0  0  0  0  0  0  0  0  0
    3.9140   17.1780   38.1290 C   0  0  0  0  0  0  0  0  0  0  0  0
    0.3190   18.2310   42.8480 C   0  0  0  0  0  0  0  0  0  0  0  0
   -0.4780   20.3200   43.1120 C   0  0  0  0  0  0  0  0  0  0  0  0
   -0.5960   18.2510   43.8920 C   0  0  0  0  0  0  0  0  0  0  0  0
    3.1610   19.4770   38.4090 C   0  0  0  0  0  0  0  0  0  0  0  0
    1.1480   19.8930   41.1540 C   0  0  0  0  0  0  0  0  0  0  0  0
    0.5390   15.8190   43.1060 C   0  0  0  0  0  0  0  0  0  0  0  0
   -0.5657   14.9190   44.7464 H   0  0  0  0  0  0  0  0  0  0  0  0
   -2.0179   16.9399   44.4525 H   0  0  0  0  0  0  0  0  0  0  0  0
   -0.5350   17.2370   45.5753 H   0  0  0  0  0  0  0  0  0  0  0  0
    2.3060   16.1708   37.4054 H   0  0  0  0  0  0  0  0  0  0  0  0
    4.0187   15.2935   38.2148 H   0  0  0  0  0  0  0  0  0  0  0  0
    1.2578   21.8344   41.1514 H   0  0  0  0  0  0  0  0  0  0  0  0
    2.7898   20.7295   40.7928 H   0  0  0  0  0  0  0  0  0  0  0  0
    0.9166   20.1683   38.2801 H   0  0  0  0  0  0  0  0  0  0  0  0
    4.5796   18.6588   38.2961 H   0  0  0  0  0  0  0  0  0  0  0  0
    2.6535   17.9963   38.5601 H   0  0  0  0  0  0  0  0  0  0  0  0
    1.4128   15.3941   39.0725 H   0  0  0  0  0  0  0  0  0  0  0  0
    2.4470   14.0460   38.2954 H   0  0  0  0  0  0  0  0  0  0  0  0
    4.7036   16.9763   38.8678 H   0  0  0  0  0  0  0  0  0  0  0  0
    4.0063   17.2801   37.0376 H   0  0  0  0  0  0  0  0  0  0  0  0
   -0.6348   21.4069   43.0479 H   0  0  0  0  0  0  0  0  0  0  0  0
    3.7694   19.1311   39.2576 H   0  0  0  0  0  0  0  0  0  0  0  0
    0.5143   19.5585   40.3194 H   0  0  0  0  0  0  0  0  0  0  0  0
    2.0781   19.5316   41.6170 H   0  0  0  0  0  0  0  0  0  0  0  0
  1 13  1  0
  2 24  1  0
  3  8  2  0
  4  6  1  0
  5 19  2  0
  5 24  1  0
  7 13  1  0
  7  5  1  0
  9 18  1  0
  9 17  1  0
 10 23  1  0
 11 10  1  0
 12  8  1  0
 12 22  1  0
 12 11  1  0
 13  2  2  0
 14 19  1  0
 14 20  2  0
 15 22  1  0
 17  1  1  0
 18 15  1  0
 19 21  1  0
 20 16  1  0
 21 16  2  0
 21  6  1  0
 22  8  1  0
 23 14  1  0
 24  4  2  0
  4 25  1  0
  6 26  1  0
  6 27  1  0
  9 28  1  0
  9 29  1  0
 10 30  1  0
 10 31  1  0
 12 32  1  0
 15 33  1  0
 15 34  1  0
 17 35  1  0
 17 36  1  0
 18 37  1  0
 18 38  1  0
 20 39  1  0
 22 40  1  0
 23 41  1  0
 23 42  1  0
M  CHG  1  15   1
M  END
>  <mol_id>  (41) 
2026-08-23-6tgu-s0-n100-prep-0042

>  <rmsd_to_ref>  (41) 


$$$$

     RDKit          3D

 57 61  0  0  0  0  0  0  0  0999 V2000
    2.5400   21.3470   37.3200 C   0  0  0  0  0  0  0  0  0  0  0  0
    0.3800   16.0170   43.3230 C   0  0  0  0  0  0  0  0  0  0  0  0
    1.4870   14.5430   42.2120 C   0  0  0  0  0  0  0  0  0  0  0  0
   -1.2340   15.8240   48.2260 C   0  0  0  0  0  0  0  0  0  0  0  0
   -0.7850   16.5900   49.1910 O   0  0  0  0  0  1  0  0  0  0  0  0
   -0.3760   18.5130   44.2000 C   0  0  0  0  0  0  0  0  0  0  0  0
    1.7490   21.0950   39.5410 C   0  0  0  0  0  0  0  0  0  0  0  0
    1.9890   17.4000   40.4820 N   0  0  0  0  0  0  0  0  0  0  0  0
    3.1630   15.0120   37.6670 O   0  0  0  0  0  0  0  0  0  0  0  0
   -0.3840   15.9780   44.4550 C   0  0  0  0  0  0  0  0  0  0  0  0
    4.0160   18.3560   36.6380 N   0  0  0  0  0  0  0  0  0  0  0  0
    2.3930   19.8800   39.4480 C   0  0  0  0  0  0  0  0  0  0  0  0
    4.9660   15.5460   36.7420 N   0  0  0  0  0  0  0  0  0  0  0  0
   -1.2680   17.0680   46.0430 N   0  0  0  0  0  0  0  0  0  0  0  0
    3.6270   21.4940   35.2580 C   0  0  0  0  0  0  0  0  0  0  0  0
    1.7910   15.3350   41.2030 C   0  0  0  0  0  0  0  0  0  0  0  0
    3.2660   16.9560   38.2730 C   0  0  0  0  0  0  0  0  0  0  0  0
    2.7110   21.9100   36.1760 C   0  0  0  0  0  0  0  0  0  0  0  0
    0.5980   14.8240   43.1740 C   0  0  0  0  0  0  0  0  0  0  0  0
    4.2680   20.2820   35.4580 C   0  0  0  0  0  0  0  0  0  0  0  0
    3.0030   20.1000   37.3550 C   0  0  0  0  0  0  0  0  0  0  0  0
    3.8010   15.7920   37.6340 C   0  0  0  0  0  0  0  0  0  0  0  0
   -0.7810   17.5360   45.0820 C   0  0  0  0  0  0  0  0  0  0  0  0
   -0.9490   16.0500   47.0320 C   0  0  0  0  0  0  0  0  0  0  0  0
    0.8770   17.0610   42.5890 C   0  0  0  0  0  0  0  0  0  0  0  0
    1.5610   16.6580   41.4040 C   0  0  0  0  0  0  0  0  0  0  0  0
    2.7180   16.8440   39.4850 N   0  0  0  0  0  0  0  0  0  0  0  0
    2.8750   19.4050   38.3790 C   0  0  0  0  0  0  0  0  0  0  0  0
    5.1850   14.0400   36.3830 C   0  0  0  0  0  0  0  0  0  0  0  0
    3.7960   19.6020   36.5530 C   0  0  0  0  0  0  0  0  0  0  0  0
    0.3820   18.3190   43.0620 N   0  0  0  0  0  0  0  0  0  0  0  0
    3.2890   18.1800   37.8190 C   0  0  0  0  0  0  0  0  0  0  0  0
    1.7910   21.7610   38.3800 C   0  0  0  0  0  0  0  0  0  0  0  0
   -1.7760   14.5870   48.1660 O   0  0  0  0  0  0  0  0  0  0  0  0
    2.4366   14.3599   42.7361 H   0  0  0  0  0  0  0  0  0  0  0  0
    0.9525   13.7429   41.6789 H   0  0  0  0  0  0  0  0  0  0  0  0
   -0.6853   19.5448   44.4228 H   0  0  0  0  0  0  0  0  0  0  0  0
    1.2622   21.4701   40.4533 H   0  0  0  0  0  0  0  0  0  0  0  0
   -0.7156   15.0397   44.9237 H   0  0  0  0  0  0  0  0  0  0  0  0
    4.5455   17.7019   36.0441 H   0  0  0  0  0  0  0  0  0  0  0  0
    2.4949   19.2825   40.3659 H   0  0  0  0  0  0  0  0  0  0  0  0
    5.5739   16.3003   36.3922 H   0  0  0  0  0  0  0  0  0  0  0  0
   -2.1807   17.5019   46.2421 H   0  0  0  0  0  0  0  0  0  0  0  0
    3.8537   22.1087   34.3744 H   0  0  0  0  0  0  0  0  0  0  0  0
    1.1978   15.0170   40.3329 H   0  0  0  0  0  0  0  0  0  0  0  0
    2.8775   15.2373   41.0613 H   0  0  0  0  0  0  0  0  0  0  0  0
    2.0817   22.7766   35.9250 H   0  0  0  0  0  0  0  0  0  0  0  0
   -0.3513   14.3290   42.9214 H   0  0  0  0  0  0  0  0  0  0  0  0
    1.0301   14.4618   44.1185 H   0  0  0  0  0  0  0  0  0  0  0  0
    5.0708   19.9044   34.8076 H   0  0  0  0  0  0  0  0  0  0  0  0
   -1.2789   15.1267   46.5332 H   0  0  0  0  0  0  0  0  0  0  0  0
    0.0389   16.4737   47.2655 H   0  0  0  0  0  0  0  0  0  0  0  0
    2.9621   15.8988   39.8136 H   0  0  0  0  0  0  0  0  0  0  0  0
    5.2706   13.4512   37.3082 H   0  0  0  0  0  0  0  0  0  0  0  0
    4.3304   13.6754   35.7941 H   0  0  0  0  0  0  0  0  0  0  0  0
    6.1080   13.9339   35.7941 H   0  0  0  0  0  0  0  0  0  0  0  0
    1.1960   22.6806   38.2779 H   0  0  0  0  0  0  0  0  0  0  0  0
  1 21  1  0
  1 33  2  0
  2 10  2  0
  3 19  1  0
  4  5  1  0
  6 23  2  0
  8 26  2  3
 10 23  1  0
 11 32  1  0
 12  7  2  0
 13 22  1  0
 14 24  1  0
 15 20  1  0
 15 18  2  0
 16 26  1  0
 16  3  1  0
 17 27  1  0
 18  1  1  0
 19  2  1  0
 20 30  2  0
 21 28  2  0
 22  9  2  0
 22 17  1  0
 23 14  1  0
 24  4  1  0
 25 31  2  0
 25  2  1  0
 26 25  1  0
 27  8  1  0
 28 12  1  0
 29 13  1  0
 30 11  1  0
 30 21  1  0
 31  6  1  0
 32 17  2  3
 32 28  1  0
 33  7  1  0
 34  4  2  0
  3 35  1  0
  3 36  1  0
  6 37  1  0
  7 38  1  0
 10 39  1  0
 11 40  1  0
 12 41  1  0
 13 42  1  0
 14 43  1  0
 15 44  1  0
 16 45  1  0
 16 46  1  0
 18 47  1  0
 19 48  1  0
 19 49  1  0
 20 50  1  0
 24 51  1  0
 24 52  1  0
 27 53  1  0
 29 54  1  0
 29 55  1  0
 29 56  1  0
 33 57  1  0
M  CHG  1   5  -1
M  END
>  <mol_id>  (42) 
2026-08-23-6tgu-s0-n100-prep-0043

>  <rmsd_to_ref>  (42) 


$$$$

     RDKit          3D

 32 34  0  0  0  0  0  0  0  0999 V2000
    0.8030   21.3840   41.3010 C   0  0  0  0  0  0  0  0  0  0  0  0
    3.1640   17.9840   38.7000 C   0  0  0  0  0  0  0  0  0  0  0  0
    1.9750   18.3120   40.7840 N   0  0  0  0  0  0  0  0  0  0  0  0
    3.6240   18.2170   37.4130 C   0  0  0  0  0  0  0  0  0  0  0  0
    2.5170   18.9600   39.3900 C   0  0  0  0  0  0  0  0  0  0  0  0
    2.7950   20.3350   37.3780 C   0  0  0  0  0  0  0  0  0  0  0  0
    1.4710   19.2530   41.1250 C   0  0  0  0  0  0  0  0  0  0  0  0
    3.3010   19.2880   36.7390 N   0  0  0  0  0  0  0  0  0  0  0  0
    0.3730   18.4590   42.8600 C   0  0  0  0  0  0  0  0  0  0  0  0
   -0.3370   16.8800   44.1080 C   0  0  0  0  0  0  0  0  0  0  0  0
    0.6790   19.4170   42.1030 C   0  0  0  0  0  0  0  0  0  0  0  0
    2.3550   20.1690   38.6950 C   0  0  0  0  0  0  0  0  0  0  0  0
   -0.5750   15.3650   44.7930 Cl  0  0  0  0  0  0  0  0  0  0  0  0
   -0.4630   19.1370   43.9050 C   0  0  0  0  0  0  0  0  0  0  0  0
    2.7180   21.3990   36.7060 O   0  0  0  0  0  0  0  0  0  0  0  0
    0.4310   17.1650   42.9440 C   0  0  0  0  0  0  0  0  0  0  0  0
    0.3180   20.5360   42.3120 C   0  0  0  0  0  0  0  0  0  0  0  0
   -0.7730   18.0520   44.5210 N   0  0  0  0  0  0  0  0  0  0  0  0
    4.3060   17.3070   36.8360 O   0  0  0  0  0  0  0  0  0  0  0  0
    1.3850   20.5440   40.8620 N   0  0  0  0  0  0  0  0  0  0  0  0
   -0.5520   21.3370   42.9040 O   0  0  0  0  0  0  0  0  0  0  0  0
    0.6637   22.4453   41.0475 H   0  0  0  0  0  0  0  0  0  0  0  0
    3.3240   17.0008   39.1666 H   0  0  0  0  0  0  0  0  0  0  0  0
    2.0638   17.3746   41.2014 H   0  0  0  0  0  0  0  0  0  0  0  0
    3.4381   19.3197   35.7187 H   0  0  0  0  0  0  0  0  0  0  0  0
    1.5380   19.5690   42.7731 H   0  0  0  0  0  0  0  0  0  0  0  0
    2.8707   20.9370   39.2902 H   0  0  0  0  0  0  0  0  0  0  0  0
    1.2623   20.2229   38.5802 H   0  0  0  0  0  0  0  0  0  0  0  0
    0.1137   19.8353   44.5294 H   0  0  0  0  0  0  0  0  0  0  0  0
   -1.2846   19.7833   43.5626 H   0  0  0  0  0  0  0  0  0  0  0  0
    0.9484   16.4595   42.2772 H   0  0  0  0  0  0  0  0  0  0  0  0
   -1.0732   21.0138   43.6811 H   0  0  0  0  0  0  0  0  0  0  0  0
  1 17  2  0
  2  5  2  0
  3  7  1  0
  4  2  1  0
  5  3  1  0
  6 12  1  0
  7 11  1  0
  8  6  1  0
  8  4  1  0
  9 16  2  0
  9 14  1  0
 10 18  2  0
 10 13  1  0
 11 17  1  0
 11  9  1  0
 12  5  1  0
 14 18  1  0
 15  6  2  0
 16 10  1  0
 17 21  1  0
 19  4  2  0
 20  7  2  0
 20  1  1  0
  1 22  1  0
  2 23  1  0
  3 24  1  0
  8 25  1  0
 11 26  1  0
 12 27  1  0
 12 28  1  0
 14 29  1  0
 14 30  1  0
 16 31  1  0
 21 32  1  0
M  END
>  <mol_id>  (43) 
2026-08-23-6tgu-s0-n100-prep-0044

>  <rmsd_to_ref>  (43) 


$$$$

     RDKit          3D

 55 58  0  0  0  0  0  0  0  0999 V2000
   -0.3590   14.0880   46.3710 C   0  0  0  0  0  0  0  0  0  0  0  0
   -1.3050   13.1990   47.1710 C   0  0  0  0  0  0  0  0  0  0  0  0
    1.7000   19.9980   40.0860 C   0  0  0  0  0  0  0  0  0  0  0  0
    2.3440   19.4230   39.0040 C   0  0  0  0  0  0  0  0  0  0  0  0
    3.2480   15.0680   38.5080 C   0  0  0  0  0  0  0  0  0  0  0  0
   -1.8090   18.3680   43.3110 C   0  0  0  0  0  0  0  0  0  0  0  0
   -0.5680   15.6120   44.7630 N   0  0  0  0  0  0  0  0  0  0  0  0
    3.9600   14.0120   38.0490 O   0  0  0  0  0  0  0  0  0  0  0  0
   -0.4680   17.6990   43.7740 C   0  0  0  0  0  0  0  0  0  0  0  0
   -1.1120   14.4870   45.1260 N   0  0  0  0  0  0  0  0  0  0  0  0
    2.7400   20.1270   37.7320 C   0  0  0  0  0  0  0  0  0  0  0  0
    2.6460   18.1140   39.0400 N   0  0  0  0  0  0  0  0  0  0  0  0
    2.3730   21.4670   37.5590 N   0  0  0  0  0  0  0  0  0  0  0  0
    3.7040   16.1530   37.8930 C   0  0  0  0  0  0  0  0  0  0  0  0
   -2.3430   12.3900   45.1170 C   0  0  0  0  0  0  0  0  0  0  0  0
    0.8060   19.2790   42.1470 N   0  0  0  0  0  0  0  0  0  0  0  0
    0.6690   18.1110   42.8450 C   0  0  0  0  0  0  0  0  0  0  0  0
    4.6690   15.8100   37.0230 N   0  0  0  0  0  0  0  0  0  0  0  0
   -1.2370   13.2360   44.4210 C   0  0  0  0  0  0  0  0  0  0  0  0
    4.8770   14.4870   37.0960 C   0  0  0  0  0  0  0  0  0  0  0  0
    1.5360   17.2460   42.5140 O   0  0  0  0  0  0  0  0  0  0  0  0
    3.2340   17.5410   37.9370 C   0  0  0  0  0  0  0  0  0  0  0  0
    3.6150   18.1640   36.8780 N   0  0  0  0  0  0  0  0  0  0  0  0
   -1.6990   11.9790   46.3690 O   0  0  0  0  0  0  0  0  0  0  0  0
    1.3980   19.0440   41.0550 C   0  0  0  0  0  0  0  0  0  0  0  0
    1.3290   21.2960   40.3370 C   0  0  0  0  0  0  0  0  0  0  0  0
   -0.7110   16.2240   43.6680 N   0  0  0  0  0  0  0  0  0  0  0  0
    0.5330   21.5320   41.4530 C   0  0  0  0  0  0  0  0  0  0  0  0
    0.3010   20.5250   42.3830 C   0  0  0  0  0  0  0  0  0  0  0  0
    3.3640   19.4870   36.7320 N   0  0  0  0  0  0  0  0  0  0  0  0
   -0.0876   14.9797   46.9552 H   0  0  0  0  0  0  0  0  0  0  0  0
    0.5748   13.5615   46.1244 H   0  0  0  0  0  0  0  0  0  0  0  0
   -0.8027   12.8768   48.0951 H   0  0  0  0  0  0  0  0  0  0  0  0
   -2.2124   13.7732   47.4098 H   0  0  0  0  0  0  0  0  0  0  0  0
    1.3703   19.1859   38.5505 H   0  0  0  0  0  0  0  0  0  0  0  0
    2.4400   15.0336   39.2536 H   0  0  0  0  0  0  0  0  0  0  0  0
   -2.3964   18.6611   44.1936 H   0  0  0  0  0  0  0  0  0  0  0  0
   -1.5846   19.2597   42.7073 H   0  0  0  0  0  0  0  0  0  0  0  0
   -2.3865   17.6524   42.7073 H   0  0  0  0  0  0  0  0  0  0  0  0
   -0.8632   16.2888   45.4812 H   0  0  0  0  0  0  0  0  0  0  0  0
   -0.1842   17.9996   44.7934 H   0  0  0  0  0  0  0  0  0  0  0  0
    2.6345   21.9653   36.6963 H   0  0  0  0  0  0  0  0  0  0  0  0
    1.8415   21.9545   38.2944 H   0  0  0  0  0  0  0  0  0  0  0  0
   -2.6164   11.5165   44.5068 H   0  0  0  0  0  0  0  0  0  0  0  0
   -3.2814   12.9428   45.2713 H   0  0  0  0  0  0  0  0  0  0  0  0
   -0.2800   12.6945   44.4520 H   0  0  0  0  0  0  0  0  0  0  0  0
   -1.5054   13.4189   43.3700 H   0  0  0  0  0  0  0  0  0  0  0  0
    5.6118   13.8971   36.5285 H   0  0  0  0  0  0  0  0  0  0  0  0
    4.1144   17.6532   36.1359 H   0  0  0  0  0  0  0  0  0  0  0  0
    0.7798   18.2920   40.5428 H   0  0  0  0  0  0  0  0  0  0  0  0
    2.4078   18.8117   41.4243 H   0  0  0  0  0  0  0  0  0  0  0  0
    1.6492   22.1183   39.6802 H   0  0  0  0  0  0  0  0  0  0  0  0
   -1.6739   16.0750   43.3341 H   0  0  0  0  0  0  0  0  0  0  0  0
    0.0829   22.5247   41.6011 H   0  0  0  0  0  0  0  0  0  0  0  0
   -0.2802   20.7291   43.2944 H   0  0  0  0  0  0  0  0  0  0  0  0
  1  2  1  0
  3 26  2  0
  3 25  1  0
  4 12  1  0
  4  3  1  0
  7 10  1  0
  8  5  1  0
  9  6  1  0
 10  1  1  0
 11  4  1  0
 13 11  1  0
 14 22  1  0
 14  5  2  0
 15 24  1  0
 16 29  1  0
 16 17  1  0
 17  9  1  0
 18 20  2  0
 18 14  1  0
 19 15  1  0
 19 10  1  0
 20  8  1  0
 21 17  2  0
 22 12  2  0
 23 22  1  0
 24  2  1  0
 25 16  1  0
 26 28  1  0
 27  9  1  0
 27  7  1  0
 28 29  2  0
 30 23  1  0
 30 11  2  0
  1 31  1  0
  1 32  1  0
  2 33  1  0
  2 34  1  0
  4 35  1  0
  5 36  1  0
  6 37  1  0
  6 38  1  0
  6 39  1  0
  7 40  1  0
  9 41  1  0
 13 42  1  0
 13 43  1  0
 15 44  1  0
 15 45  1  0
 19 46  1  0
 19 47  1  0
 20 48  1  0
 23 49  1  0
 25 50  1  0
 25 51  1  0
 26 52  1  0
 27 53  1  0
 28 54  1  0
 29 55  1  0
M  END
>  <mol_id>  (44) 
2026-08-23-6tgu-s0-n100-prep-0045

>  <rmsd_to_ref>  (44) 


$$$$

     RDKit          3D

 59 65  0  0  0  0  0  0  0  0999 V2000
   -0.3640   14.4360   45.1280 C   0  0  0  0  0  0  0  0  0  0  0  0
    0.7140   21.7650   41.5960 C   0  0  0  0  0  0  0  0  0  0  0  0
   -0.3340   19.8380   43.1570 C   0  0  0  0  0  0  0  0  0  0  0  0
   -1.1460   20.5450   43.6340 O   0  0  0  0  0  0  0  0  0  0  0  0
    1.3870   21.6670   40.2580 O   0  0  0  0  0  0  0  0  0  0  0  0
    4.1510   17.3910   37.5850 C   0  0  0  0  0  0  0  0  0  0  0  0
    1.6290   21.7010   37.4580 O   0  0  0  0  0  0  0  0  0  0  0  0
    3.2940   20.5750   36.5320 C   0  0  0  0  0  0  0  0  0  0  0  0
    2.3460   22.5760   35.4190 C   0  0  0  0  0  0  0  0  0  0  0  0
    2.6160   15.6610   40.1610 O   0  0  0  0  0  0  0  0  0  0  0  0
    1.8040   17.7590   40.3970 C   0  0  0  0  0  0  0  0  0  0  0  0
    0.4660   20.3560   42.0290 C   0  0  0  0  0  0  0  0  0  0  0  0
    2.1620   19.7140   38.8530 C   0  0  0  0  0  0  0  0  0  0  0  0
   -0.5290   16.7850   45.4530 C   0  0  0  0  0  0  0  0  0  0  0  0
    4.7120   15.3350   37.1930 C   0  0  0  0  0  0  0  0  0  0  0  0
    2.6140   17.0660   39.5840 C   0  0  0  0  0  0  0  0  0  0  0  0
    4.9210   16.6090   36.7730 C   0  0  0  0  0  0  0  0  0  0  0  0
   -0.2080   15.6900   44.7010 C   0  0  0  0  0  0  0  0  0  0  0  0
    2.4340   21.5760   36.5190 C   0  0  0  0  0  0  0  0  0  0  0  0
    2.1320   18.2520   39.1770 C   0  0  0  0  0  0  0  0  0  0  0  0
    0.8230   17.7220   42.5940 C   0  0  0  0  0  0  0  0  0  0  0  0
    3.5910   16.5830   38.5450 C   0  0  0  0  0  0  0  0  0  0  0  0
   -0.1520   18.4170   43.6390 C   0  0  0  0  0  0  0  0  0  0  0  0
   -0.7440   14.2140   46.4800 C   0  0  0  0  0  0  0  0  0  0  0  0
   -1.0180   16.5960   46.7590 C   0  0  0  0  0  0  0  0  0  0  0  0
    3.3910   19.8410   37.8940 C   0  0  0  0  0  0  0  0  0  0  0  0
    1.1980   18.2580   41.4170 C   0  0  0  0  0  0  0  0  0  0  0  0
   -0.7380   13.0300   46.9150 O   0  0  0  0  0  0  0  0  0  0  0  0
    2.1090   23.9910   35.7920 C   0  0  0  0  0  0  0  0  0  0  0  0
   -0.4060   18.1040   44.9780 N   0  0  0  0  0  0  0  0  0  0  0  0
    1.1040   19.6140   41.1620 C   0  0  0  0  0  0  0  0  0  0  0  0
    0.2550   15.6850   43.4480 F   0  0  0  0  0  0  0  0  0  0  0  0
    2.6170   22.2500   34.2160 O   0  0  0  0  0  0  0  0  0  0  0  0
    3.8860   15.3070   38.2530 C   0  0  0  0  0  0  0  0  0  0  0  0
    3.8640   18.6320   37.3730 O   0  0  0  0  0  0  0  0  0  0  0  0
    1.9280   20.3340   40.2480 C   0  0  0  0  0  0  0  0  0  0  0  0
   -1.1490   15.2580   47.2380 C   0  0  0  0  0  0  0  0  0  0  0  0
   -0.2015   13.5884   44.4460 H   0  0  0  0  0  0  0  0  0  0  0  0
   -0.2363   22.3120   41.5080 H   0  0  0  0  0  0  0  0  0  0  0  0
    1.3342   22.3097   42.3231 H   0  0  0  0  0  0  0  0  0  0  0  0
    4.2891   20.9713   36.2816 H   0  0  0  0  0  0  0  0  0  0  0  0
    2.9335   19.8378   35.7995 H   0  0  0  0  0  0  0  0  0  0  0  0
    2.6159   15.7103   41.1498 H   0  0  0  0  0  0  0  0  0  0  0  0
    1.3124   17.4520   41.3319 H   0  0  0  0  0  0  0  0  0  0  0  0
    1.4406   20.2935   38.2582 H   0  0  0  0  0  0  0  0  0  0  0  0
    5.1592   14.4442   36.7277 H   0  0  0  0  0  0  0  0  0  0  0  0
    5.5731   16.9411   35.9518 H   0  0  0  0  0  0  0  0  0  0  0  0
    1.9860   18.5402   38.1255 H   0  0  0  0  0  0  0  0  0  0  0  0
    1.2211   16.7294   42.8513 H   0  0  0  0  0  0  0  0  0  0  0  0
    3.6930   16.7836   39.6217 H   0  0  0  0  0  0  0  0  0  0  0  0
   -1.2910   17.4536   47.3915 H   0  0  0  0  0  0  0  0  0  0  0  0
    3.9859   20.3913   38.6378 H   0  0  0  0  0  0  0  0  0  0  0  0
    0.2291   17.9754   40.9796 H   0  0  0  0  0  0  0  0  0  0  0  0
    2.0935   24.0836   36.8880 H   0  0  0  0  0  0  0  0  0  0  0  0
    2.9146   24.6180   35.3824 H   0  0  0  0  0  0  0  0  0  0  0  0
    1.1430   24.3213   35.3824 H   0  0  0  0  0  0  0  0  0  0  0  0
    3.5225   14.4119   38.7790 H   0  0  0  0  0  0  0  0  0  0  0  0
    2.9760   20.3077   40.5813 H   0  0  0  0  0  0  0  0  0  0  0  0
   -1.5830   15.0745   48.2320 H   0  0  0  0  0  0  0  0  0  0  0  0
  1 24  1  0
  2 12  1  0
  3  4  2  0
  3 23  1  0
  5  2  1  0
  6 22  1  0
  8 26  1  0
  9 29  1  0
  9 19  1  0
 11 27  1  0
 12  3  1  0
 13 20  1  0
 13 36  1  0
 14 25  1  0
 15 34  2  0
 16 10  1  0
 16 11  1  0
 17 15  1  0
 17  6  2  0
 18  1  2  0
 18 14  1  0
 19  8  1  0
 19  7  2  0
 20 16  1  0
 20 11  1  0
 21 23  2  0
 22 16  1  0
 23 30  1  0
 24 28  2  0
 24 37  1  0
 25 37  2  0
 26 13  1  0
 27 21  1  0
 30 14  2  3
 31 27  1  0
 31 12  2  0
 32 18  1  0
 33  9  2  0
 34 22  1  0
 35  6  1  0
 35 26  1  0
 36  5  1  0
 36 31  1  0
  1 38  1  0
  2 39  1  0
  2 40  1  0
  8 41  1  0
  8 42  1  0
 10 43  1  0
 11 44  1  0
 13 45  1  0
 15 46  1  0
 17 47  1  0
 20 48  1  0
 21 49  1  0
 22 50  1  0
 25 51  1  0
 26 52  1  0
 27 53  1  0
 29 54  1  0
 29 55  1  0
 29 56  1  0
 34 57  1  0
 36 58  1  0
 37 59  1  0
M  END
>  <mol_id>  (45) 
2026-08-23-6tgu-s0-n100-prep-0046

>  <rmsd_to_ref>  (45) 


$$$$

     RDKit          3D

 43 46  0  0  0  0  0  0  0  0999 V2000
   -0.1840   19.5330   43.2230 C   0  0  0  0  0  0  0  0  0  0  0  0
    1.6930   15.4540   41.4440 C   0  0  0  0  0  0  0  0  0  0  0  0
    3.7460   14.9150   38.4400 C   0  0  0  0  0  0  0  0  0  0  0  0
    2.0260   13.9980   41.4430 C   0  0  0  0  0  0  0  0  0  0  0  0
    2.8000   22.0270   36.5720 F   0  0  0  0  0  0  0  0  0  0  0  0
    2.1560   16.0550   40.3920 C   0  0  0  0  0  0  0  0  0  0  0  0
    0.6770   20.5260   41.4170 C   0  0  0  0  0  0  0  0  0  0  0  0
    1.5070   12.9500   42.3950 C   0  0  0  0  0  0  0  0  0  0  0  0
    2.8710   18.2410   37.9940 C   0  0  0  0  0  0  0  0  0  0  0  0
   -1.1100   18.4590   45.1350 O   0  0  0  0  0  0  0  0  0  0  0  0
    1.8170   17.5370   40.4250 C   0  0  0  0  0  0  0  0  0  0  0  0
    2.2260   20.6820   38.3430 C   0  0  0  0  0  0  0  0  0  0  0  0
    2.6810   17.2970   38.4670 O   0  0  0  0  0  0  0  0  0  0  0  0
    0.6780   16.9680   42.3770 N   0  0  0  0  0  0  0  0  0  0  0  0
    3.5730   19.8760   36.3880 C   0  0  0  0  0  0  0  0  0  0  0  0
   -0.4950   18.4190   44.0290 C   0  0  0  0  0  0  0  0  0  0  0  0
    2.0860   18.6100   39.7720 C   0  0  0  0  0  0  0  0  0  0  0  0
    2.9060   14.9490   39.7120 C   0  0  0  0  0  0  0  0  0  0  0  0
    3.5790   18.5340   36.8310 C   0  0  0  0  0  0  0  0  0  0  0  0
   -0.5370   20.7710   43.4240 N   0  0  0  0  0  0  0  0  0  0  0  0
    2.2090   19.4060   38.7940 C   0  0  0  0  0  0  0  0  0  0  0  0
   -0.0840   17.0500   43.5620 C   0  0  0  0  0  0  0  0  0  0  0  0
    2.7900   13.7010   40.5590 N   0  0  0  0  0  0  0  0  0  0  0  0
   -0.0750   21.3950   42.4340 C   0  0  0  0  0  0  0  0  0  0  0  0
    0.5690   19.2550   42.0810 C   0  0  0  0  0  0  0  0  0  0  0  0
    1.0190   17.9540   41.7330 C   0  0  0  0  0  0  0  0  0  0  0  0
    2.8330   20.8390   37.0890 C   0  0  0  0  0  0  0  0  0  0  0  0
    1.1240   15.9558   42.2405 H   0  0  0  0  0  0  0  0  0  0  0  0
    4.8125   14.8718   38.7059 H   0  0  0  0  0  0  0  0  0  0  0  0
    3.4794   14.0269   37.8482 H   0  0  0  0  0  0  0  0  0  0  0  0
    3.5521   15.8217   37.8482 H   0  0  0  0  0  0  0  0  0  0  0  0
    2.8731   14.1913   42.1176 H   0  0  0  0  0  0  0  0  0  0  0  0
    1.1560   20.7951   40.4640 H   0  0  0  0  0  0  0  0  0  0  0  0
    1.6714   13.2819   43.4308 H   0  0  0  0  0  0  0  0  0  0  0  0
    0.4307   12.8004   42.2243 H   0  0  0  0  0  0  0  0  0  0  0  0
    2.0404   12.0032   42.2243 H   0  0  0  0  0  0  0  0  0  0  0  0
    1.8006   21.5226   38.9108 H   0  0  0  0  0  0  0  0  0  0  0  0
    4.1475   20.1645   35.4954 H   0  0  0  0  0  0  0  0  0  0  0  0
    4.1213   17.7520   36.2792 H   0  0  0  0  0  0  0  0  0  0  0  0
   -1.0738   21.1531   44.2157 H   0  0  0  0  0  0  0  0  0  0  0  0
   -1.0027   16.4660   43.4042 H   0  0  0  0  0  0  0  0  0  0  0  0
    0.5831   16.6729   44.3512 H   0  0  0  0  0  0  0  0  0  0  0  0
   -0.2005   22.4804   42.3071 H   0  0  0  0  0  0  0  0  0  0  0  0
  1 20  1  0
  1 16  1  0
  3 18  1  0
  4  2  1  0
  4  8  1  0
  5 27  1  0
  6 11  1  0
  6  2  2  0
  7 25  1  0
  7 24  2  0
  9 13  2  0
  9 21  1  0
 11 26  1  0
 12 21  1  0
 14 22  1  0
 15 19  2  0
 15 27  1  0
 16 10  2  0
 17 11  2  0
 18  6  1  0
 18 23  2  0
 19  9  1  0
 21 17  2  0
 22 16  1  0
 23  4  1  0
 24 20  1  0
 25  1  2  0
 26 25  1  0
 26 14  2  0
 27 12  2  0
  2 28  1  0
  3 29  1  0
  3 30  1  0
  3 31  1  0
  4 32  1  0
  7 33  1  0
  8 34  1  0
  8 35  1  0
  8 36  1  0
 12 37  1  0
 15 38  1  0
 19 39  1  0
 20 40  1  0
 22 41  1  0
 22 42  1  0
 24 43  1  0
M  END
>  <mol_id>  (46) 
2026-08-23-6tgu-s0-n100-prep-0047

>  <rmsd_to_ref>  (46) 


$$$$

     RDKit          3D

 59 62  0  0  0  0  0  0  0  0999 V2000
    2.7440   18.5420   38.9640 C   0  0  0  0  0  0  0  0  0  0  0  0
    3.3170   16.0410   38.1140 C   0  0  0  0  0  0  0  0  0  0  0  0
   -0.7430   14.1900   45.2700 N   0  0  0  0  0  0  0  0  0  0  0  0
    0.0110   12.0010   43.5570 S   0  0  0  0  0  4  0  0  0  0  0  0
    2.4550   17.4220   39.7970 N   0  0  0  0  0  0  0  0  0  0  0  0
   -1.1450   14.0770   47.5660 O   0  0  0  0  0  0  0  0  0  0  0  0
    1.2770   14.5020   42.5270 C   0  0  0  0  0  0  0  0  0  0  0  0
    2.8740   12.6770   40.8140 C   0  0  0  0  0  0  0  0  0  0  0  0
    1.0670   13.0870   42.6450 C   0  0  0  0  0  0  0  0  0  0  0  0
    3.6160   19.3260   36.7270 N   0  0  0  0  0  0  0  0  0  0  0  0
   -0.3220   19.0760   43.4420 C   0  0  0  0  0  0  0  0  0  0  0  0
    2.2320   20.5190   38.8350 C   0  0  0  0  0  0  0  0  0  0  0  0
   -0.6590   18.0940   44.8420 S   0  0  0  0  0  0  0  0  0  0  0  0
    2.2900   20.9870   37.6880 C   0  0  0  0  0  0  0  0  0  0  0  0
    3.5300   17.1140   37.3690 C   0  0  0  0  0  0  0  0  0  0  0  0
   -0.9920   14.8470   46.5430 C   0  0  0  0  0  0  0  0  0  0  0  0
   -0.8700   12.7240   45.0430 C   0  0  0  0  0  0  0  0  0  0  0  0
    0.0130   17.3680   43.4480 C   0  0  0  0  0  0  0  0  0  0  0  0
   -1.0470   16.2310   46.6020 O   0  0  0  0  0  0  0  0  0  0  0  0
    0.3490   19.7150   42.2940 C   0  0  0  0  0  0  0  0  0  0  0  0
    1.7080   20.1570   40.2170 C   0  0  0  0  0  0  0  0  0  0  0  0
    3.1340   13.7320   39.9810 C   0  0  0  0  0  0  0  0  0  0  0  0
   -2.0280   12.0230   45.6560 C   0  0  0  0  0  0  0  0  0  0  0  0
    1.8590   15.1820   41.4540 C   0  0  0  0  0  0  0  0  0  0  0  0
   -1.1810   17.2940   47.4950 C   0  0  0  0  0  0  0  0  0  0  0  0
    3.6380   21.3410   35.6780 O   0  0  0  0  0  0  0  0  0  0  0  0
    1.0770   19.1070   41.2320 N   0  0  0  0  0  0  0  0  0  0  0  0
    2.0350   12.4390   41.8350 C   0  0  0  0  0  0  0  0  0  0  0  0
    2.6090   14.9350   40.3360 C   0  0  0  0  0  0  0  0  0  0  0  0
    3.1780   20.6050   36.6250 C   0  0  0  0  0  0  0  0  0  0  0  0
    2.7740   16.1790   39.4100 C   0  0  0  0  0  0  0  0  0  0  0  0
    0.3710   20.9920   42.0530 N   0  0  0  0  0  0  0  0  0  0  0  0
    3.2490   18.4690   37.7600 C   0  0  0  0  0  0  0  0  0  0  0  0
    0.9740   21.1890   40.8680 C   0  0  0  0  0  0  0  0  0  0  0  0
    2.5258   19.5431   39.3641 H   0  0  0  0  0  0  0  0  0  0  0  0
    3.5629   15.0424   37.7237 H   0  0  0  0  0  0  0  0  0  0  0  0
   -0.4601   14.7775   44.4727 H   0  0  0  0  0  0  0  0  0  0  0  0
   -0.1551   10.6907   43.1932 H   0  0  0  0  0  0  0  0  0  0  0  0
    0.9431   15.1188   43.3744 H   0  0  0  0  0  0  0  0  0  0  0  0
    3.5109   11.8082   40.5915 H   0  0  0  0  0  0  0  0  0  0  0  0
    1.8103   13.0442   43.4547 H   0  0  0  0  0  0  0  0  0  0  0  0
    4.2543   18.9698   36.0013 H   0  0  0  0  0  0  0  0  0  0  0  0
   -0.7378   20.0941   43.4159 H   0  0  0  0  0  0  0  0  0  0  0  0
    1.5759   21.7911   37.4567 H   0  0  0  0  0  0  0  0  0  0  0  0
    3.9574   16.9562   36.3678 H   0  0  0  0  0  0  0  0  0  0  0  0
   -0.5974   16.6876   42.8360 H   0  0  0  0  0  0  0  0  0  0  0  0
    0.9032   16.7534   43.2484 H   0  0  0  0  0  0  0  0  0  0  0  0
    3.7379   13.6123   39.0694 H   0  0  0  0  0  0  0  0  0  0  0  0
   -1.9477   12.0716   46.7520 H   0  0  0  0  0  0  0  0  0  0  0  0
   -2.9618   12.5076   45.3349 H   0  0  0  0  0  0  0  0  0  0  0  0
   -2.0316   10.9709   45.3349 H   0  0  0  0  0  0  0  0  0  0  0  0
    1.6469   16.2585   41.5329 H   0  0  0  0  0  0  0  0  0  0  0  0
   -1.1332   16.9147   48.5264 H   0  0  0  0  0  0  0  0  0  0  0  0
   -0.3667   18.0152   47.3314 H   0  0  0  0  0  0  0  0  0  0  0  0
   -2.1488   17.7905   47.3314 H   0  0  0  0  0  0  0  0  0  0  0  0
    2.1301   11.3890   42.1488 H   0  0  0  0  0  0  0  0  0  0  0  0
   -0.0089   21.7277   42.6657 H   0  0  0  0  0  0  0  0  0  0  0  0
    1.6770   22.0223   41.0143 H   0  0  0  0  0  0  0  0  0  0  0  0
    0.1175   21.3270   40.1917 H   0  0  0  0  0  0  0  0  0  0  0  0
  1  5  2  0
  2 31  2  0
  3 16  1  0
  4 17  2  3
  7  9  1  0
  8 28  2  0
  9  4  1  0
 10 33  1  0
 11 20  1  0
 11 18  1  0
 11 13  1  0
 12 21  2  0
 14 12  2  0
 15 33  2  0
 15  2  1  0
 16 19  1  0
 16  6  2  0
 17  3  1  0
 17 23  1  0
 18 13  1  0
 19 25  1  0
 21 34  1  0
 21 27  1  0
 22 29  2  0
 22  8  1  0
 24  7  2  0
 26 30  2  0
 27 20  2  0
 28  9  1  0
 29 24  1  0
 30 10  1  0
 30 14  1  0
 31  5  1  0
 31 29  1  0
 32 20  1  0
 33  1  1  0
 34 32  1  0
  1 35  1  0
  2 36  1  0
  3 37  1  0
  4 38  1  0
  7 39  1  0
  8 40  1  0
  9 41  1  0
 10 42  1  0
 11 43  1  0
 14 44  1  0
 15 45  1  0
 18 46  1  0
 18 47  1  0
 22 48  1  0
 23 49  1  0
 23 50  1  0
 23 51  1  0
 24 52  1  0
 25 53  1  0
 25 54  1  0
 25 55  1  0
 28 56  1  0
 32 57  1  0
 34 58  1  0
 34 59  1  0
M  END
>  <mol_id>  (47) 
2026-08-23-6tgu-s0-n100-prep-0048

>  <rmsd_to_ref>  (47) 


$$$$

     RDKit          3D

 30 32  0  0  0  0  0  0  0  0999 V2000
    0.6640   20.5830   42.0000 C   0  0  0  0  0  0  0  0  0  0  0  0
    1.3180   18.3040   41.1390 C   0  0  0  0  0  0  0  0  0  0  0  0
    0.5610   17.8030   42.3540 C   0  0  0  0  0  0  0  0  0  0  0  0
    2.9020   20.0230   37.5410 C   0  0  0  0  0  0  0  0  0  0  0  0
    3.6980   19.5720   36.7850 O   0  0  0  0  0  0  0  0  0  0  0  0
    2.3190   21.1410   37.2980 O   0  0  0  0  0  1  0  0  0  0  0  0
   -0.0290   20.0220   43.0310 N   0  0  0  0  0  0  0  0  0  0  0  0
    3.7340   13.5060   37.7760 C   0  0  0  0  0  0  0  0  0  0  0  0
    1.2770   19.7310   40.9730 C   0  0  0  0  0  0  0  0  0  0  0  0
    1.9350   20.1890   39.8530 C   0  0  0  0  0  0  0  0  0  0  0  0
    2.5170   19.3810   38.8820 C   0  0  0  0  0  0  0  0  0  0  0  0
    2.1550   16.0260   40.1980 C   0  0  0  0  0  0  0  0  0  0  0  0
    3.2220   14.0800   38.9720 C   0  0  0  0  0  0  0  0  0  0  0  0
    0.6360   16.4970   42.5250 O   0  0  0  0  0  0  0  0  0  0  0  0
    0.7430   21.7900   41.8840 O   0  0  0  0  0  0  0  0  0  0  0  0
    3.6170   16.7320   38.1860 S   0  0  0  0  0  0  0  0  0  0  0  0
   -0.0920   18.6700   43.1920 C   0  0  0  0  0  0  0  0  0  0  0  0
    2.6820   17.9810   39.0760 C   0  0  0  0  0  0  0  0  0  0  0  0
    2.8880   15.5160   39.1930 C   0  0  0  0  0  0  0  0  0  0  0  0
    2.0270   17.4670   40.2000 C   0  0  0  0  0  0  0  0  0  0  0  0
   -0.5154   20.6328   43.7027 H   0  0  0  0  0  0  0  0  0  0  0  0
    4.4467   12.7070   38.0286 H   0  0  0  0  0  0  0  0  0  0  0  0
    2.9055   13.0856   37.1871 H   0  0  0  0  0  0  0  0  0  0  0  0
    4.2460   14.2813   37.1871 H   0  0  0  0  0  0  0  0  0  0  0  0
    2.0057   21.2781   39.7159 H   0  0  0  0  0  0  0  0  0  0  0  0
    1.6856   15.3922   40.9648 H   0  0  0  0  0  0  0  0  0  0  0  0
    2.2883   13.5347   39.1741 H   0  0  0  0  0  0  0  0  0  0  0  0
    4.1148   14.0000   39.6096 H   0  0  0  0  0  0  0  0  0  0  0  0
    0.1753   16.0707   43.2906 H   0  0  0  0  0  0  0  0  0  0  0  0
   -0.6866   18.2607   44.0220 H   0  0  0  0  0  0  0  0  0  0  0  0
  1  7  1  0
  2  3  1  0
  3 14  1  0
  3 17  2  0
  4 11  1  0
  5  4  2  0
  6  4  1  0
  7 17  1  0
  8 13  1  0
  9  2  2  0
  9  1  1  0
 10  9  1  0
 11 18  1  0
 11 10  2  0
 12 20  1  0
 13 19  1  0
 15  1  2  0
 16 18  1  0
 16 19  1  0
 18 20  2  0
 19 12  2  0
 20  2  1  0
  7 21  1  0
  8 22  1  0
  8 23  1  0
  8 24  1  0
 10 25  1  0
 12 26  1  0
 13 27  1  0
 13 28  1  0
 14 29  1  0
 17 30  1  0
M  CHG  1   6  -1
M  END
>  <mol_id>  (48) 
2026-08-23-6tgu-s0-n100-prep-0049

>  <rmsd_to_ref>  (48) 


$$$$

     RDKit          3D

 46 48  0  0  0  0  0  0  0  0999 V2000
    1.1430   16.4300   42.5930 O   0  0  0  0  0  0  0  0  0  0  0  0
    3.4890   20.8760   36.0490 O   0  0  0  0  0  0  0  0  0  0  0  0
    1.3360   18.4990   41.4800 C   0  0  0  0  0  0  0  0  0  0  0  0
    1.4810   20.8090   40.2090 C   0  0  0  0  0  0  0  0  0  0  0  0
    1.6630   15.2580   42.2670 C   0  0  0  0  0  0  0  0  0  0  0  0
    2.8150   19.4130   39.9710 C   0  0  0  0  0  0  0  0  0  0  0  0
    1.8070   21.2020   38.8900 C   0  0  0  0  0  0  0  0  0  0  0  0
    3.7900   18.2060   36.5450 O   0  0  0  0  0  0  0  0  0  0  0  0
   -0.2790   14.7710   43.2510 C   0  0  0  0  0  0  0  0  0  0  0  0
    3.1610   17.9700   39.9300 C   0  0  0  0  0  0  0  0  0  0  0  0
    0.0680   13.9590   44.3920 O   0  0  0  0  0  0  0  0  0  0  0  0
    2.7300   20.0640   38.1230 C   0  0  0  0  0  0  0  0  0  0  0  0
   -0.2630   19.2780   43.5010 C   0  0  0  0  0  0  0  0  0  0  0  0
    3.1890   20.4940   36.9050 C   0  0  0  0  0  0  0  0  0  0  0  0
    3.3030   18.2450   37.9470 C   0  0  0  0  0  0  0  0  0  0  0  0
   -0.5530   16.9580   44.6340 C   0  0  0  0  0  0  0  0  0  0  0  0
    2.1410   18.4910   40.0160 C   0  0  0  0  0  0  0  0  0  0  0  0
    2.9280   14.6130   41.1960 C   0  0  0  0  0  0  0  0  0  0  0  0
   -0.9120   16.2890   45.8260 O   0  0  0  0  0  0  0  0  0  0  0  0
   -0.0950   16.1400   43.3940 C   0  0  0  0  0  0  0  0  0  0  0  0
   -0.8330   18.3660   44.4650 N   0  0  0  0  0  0  0  0  0  0  0  0
    0.5140   14.3060   42.0810 C   0  0  0  0  0  0  0  0  0  0  0  0
    0.6060   18.9470   42.4770 C   0  0  0  0  0  0  0  0  0  0  0  0
    4.0910   21.6425   36.2226 H   0  0  0  0  0  0  0  0  0  0  0  0
    0.4506   20.4492   40.3459 H   0  0  0  0  0  0  0  0  0  0  0  0
    1.4998   21.5085   41.0578 H   0  0  0  0  0  0  0  0  0  0  0  0
    2.4018   15.4400   43.0614 H   0  0  0  0  0  0  0  0  0  0  0  0
    0.8768   21.3487   38.3215 H   0  0  0  0  0  0  0  0  0  0  0  0
    2.3875   22.1348   38.9438 H   0  0  0  0  0  0  0  0  0  0  0  0
    4.7768   18.1270   36.5405 H   0  0  0  0  0  0  0  0  0  0  0  0
   -1.3634   14.6387   43.1223 H   0  0  0  0  0  0  0  0  0  0  0  0
    3.4817   17.4799   38.9989 H   0  0  0  0  0  0  0  0  0  0  0  0
    3.7759   17.2435   40.4814 H   0  0  0  0  0  0  0  0  0  0  0  0
   -0.1427   14.4520   45.2242 H   0  0  0  0  0  0  0  0  0  0  0  0
   -0.5471   20.3370   43.5896 H   0  0  0  0  0  0  0  0  0  0  0  0
    2.6348   19.6982   36.3858 H   0  0  0  0  0  0  0  0  0  0  0  0
    4.1510   20.7662   37.3637 H   0  0  0  0  0  0  0  0  0  0  0  0
    2.4668   17.5466   38.0987 H   0  0  0  0  0  0  0  0  0  0  0  0
    4.0602   17.9462   38.6868 H   0  0  0  0  0  0  0  0  0  0  0  0
    1.3009   18.1891   39.3732 H   0  0  0  0  0  0  0  0  0  0  0  0
    3.7451   14.1964   41.8032 H   0  0  0  0  0  0  0  0  0  0  0  0
    2.5026   13.8217   40.5612 H   0  0  0  0  0  0  0  0  0  0  0  0
    3.3186   15.4220   40.5612 H   0  0  0  0  0  0  0  0  0  0  0  0
   -0.9598   16.7213   43.0415 H   0  0  0  0  0  0  0  0  0  0  0  0
   -0.0112   14.4580   41.1265 H   0  0  0  0  0  0  0  0  0  0  0  0
    0.7576   13.2341   42.0392 H   0  0  0  0  0  0  0  0  0  0  0  0
  1 20  1  0
  2 14  1  0
  3 23  3  0
  5 18  1  0
  5  1  1  0
  6 10  1  0
  6 17  1  0
  6  4  1  0
  7  4  1  0
  8 15  1  0
  9 20  1  0
  9 11  1  0
 10 17  1  0
 12  7  1  0
 12  6  1  0
 13 21  2  3
 14 12  1  0
 15 12  1  0
 16 19  2  0
 17  3  1  0
 20 16  1  0
 21 16  1  0
 22  5  1  0
 22  9  1  0
 23 13  1  0
  2 24  1  0
  4 25  1  0
  4 26  1  0
  5 27  1  0
  7 28  1  0
  7 29  1  0
  8 30  1  0
  9 31  1  0
 10 32  1  0
 10 33  1  0
 11 34  1  0
 13 35  1  0
 14 36  1  0
 14 37  1  0
 15 38  1  0
 15 39  1  0
 17 40  1  0
 18 41  1  0
 18 42  1  0
 18 43  1  0
 20 44  1  0
 22 45  1  0
 22 46  1  0
M  END
>  <mol_id>  (49) 
2026-08-23-6tgu-s0-n100-prep-0050

>  <rmsd_to_ref>  (49) 


$$$$

     RDKit          3D

 15 15  0  0  0  0  0  0  0  0999 V2000
    1.2710   18.2150   41.2630 N   0  0  0  0  0  4  0  0  0  0  0  0
    1.8150   17.2780   41.7370 O   0  0  0  0  0  0  0  0  0  0  0  0
    1.8570   19.0370   40.2910 C   0  0  0  0  0  0  0  0  0  0  0  0
    2.6350   18.4030   39.4060 C   0  0  0  0  0  0  0  0  0  0  0  0
    0.1200   18.4360   41.6360 O   0  0  0  0  0  1  0  0  0  0  0  0
    1.8540   21.0740   39.0400 C   0  0  0  0  0  0  0  0  0  0  0  0
    1.4300   20.3670   40.1800 C   0  0  0  0  0  0  0  0  0  0  0  0
    2.6130   20.3510   38.0240 C   0  0  0  0  0  0  0  0  0  0  0  0
    3.0140   19.1340   38.1740 C   0  0  0  0  0  0  0  0  0  0  0  0
    2.7500   20.9940   36.8170 O   0  0  0  0  0  0  0  0  0  0  0  0
    2.9813   17.3747   39.5868 H   0  0  0  0  0  0  0  0  0  0  0  0
    1.6201   22.1419   38.9176 H   0  0  0  0  0  0  0  0  0  0  0  0
    0.7947   20.8351   40.9463 H   0  0  0  0  0  0  0  0  0  0  0  0
    3.6266   18.6474   37.4008 H   0  0  0  0  0  0  0  0  0  0  0  0
    2.4380   21.9281   36.7155 H   0  0  0  0  0  0  0  0  0  0  0  0
  1  5  1  0
  1  2  2  0
  3  1  1  0
  4  3  2  0
  6  7  2  0
  7  3  1  0
  8  9  2  0
  8  6  1  0
  9  4  1  0
 10  8  1  0
  4 11  1  0
  6 12  1  0
  7 13  1  0
  9 14  1  0
 10 15  1  0
M  CHG  2   1   1   5  -1
M  END
>  <mol_id>  (50) 
2026-08-23-6tgu-s0-n100-prep-0051

>  <rmsd_to_ref>  (50) 


$$$$

     RDKit          3D

 36 39  0  0  0  0  0  0  0  0999 V2000
    2.3940   21.3520   37.0720 O   0  0  0  0  0  0  0  0  0  0  0  0
    2.9390   20.0760   38.7020 C   0  0  0  0  0  0  0  0  0  0  0  0
    2.4190   17.1960   40.2190 N   0  0  0  0  0  0  0  0  0  0  0  0
    3.3620   20.4620   36.6700 C   0  0  0  0  0  0  0  0  0  0  0  0
    3.6750   19.6530   37.6960 N   0  0  0  0  0  0  0  0  0  0  0  0
    3.1150   14.7510   40.0960 N   0  0  0  0  0  0  0  0  0  0  0  0
    0.2610   20.7320   42.1740 C   0  0  0  0  0  0  0  0  0  0  0  0
    1.1360   18.9600   41.4690 C   0  0  0  0  0  0  0  0  0  0  0  0
   -0.3400   20.6210   43.2590 C   0  0  0  0  0  0  0  0  0  0  0  0
   -0.5560   19.4450   43.9510 C   0  0  0  0  0  0  0  0  0  0  0  0
    2.0730   21.1370   38.4300 C   0  0  0  0  0  0  0  0  0  0  0  0
    2.5830   13.7350   40.5810 C   0  0  0  0  0  0  0  0  0  0  0  0
    2.1480   18.4990   40.5630 C   0  0  0  0  0  0  0  0  0  0  0  0
    0.4500   18.1180   42.3430 C   0  0  0  0  0  0  0  0  0  0  0  0
    3.0610   12.5870   40.7640 O   0  0  0  0  0  0  0  0  0  0  0  0
    0.8530   16.7760   42.0010 N   0  0  0  0  0  0  0  0  0  0  0  0
    2.4110   16.0960   40.0480 C   0  0  0  0  0  0  0  0  0  0  0  0
   -0.2350   18.2620   43.5150 N   0  0  0  0  0  0  0  0  0  0  0  0
   -1.2070   19.6710   44.9370 O   0  0  0  0  0  0  0  0  0  0  0  0
    3.7780   20.4610   35.5730 O   0  0  0  0  0  0  0  0  0  0  0  0
    1.4910   13.8390   41.4300 O   0  0  0  0  0  1  0  0  0  0  0  0
    2.9290   19.5370   40.0330 O   0  0  0  0  0  0  0  0  0  0  0  0
    1.6680   16.4650   41.1200 C   0  0  0  0  0  0  0  0  0  0  0  0
    1.0510   20.1730   41.3250 N   0  0  0  0  0  4  0  0  0  0  0  0
    4.0682   14.6765   39.7130 H   0  0  0  0  0  0  0  0  0  0  0  0
   -0.5903   20.9551   41.5140 H   0  0  0  0  0  0  0  0  0  0  0  0
    1.1271   21.1638   42.6969 H   0  0  0  0  0  0  0  0  0  0  0  0
    0.2056   21.2712   43.9587 H   0  0  0  0  0  0  0  0  0  0  0  0
   -1.3668   20.8346   42.9272 H   0  0  0  0  0  0  0  0  0  0  0  0
    2.2954   22.0183   39.0495 H   0  0  0  0  0  0  0  0  0  0  0  0
    1.0104   20.9410   38.6363 H   0  0  0  0  0  0  0  0  0  0  0  0
    2.4923   15.7028   39.0239 H   0  0  0  0  0  0  0  0  0  0  0  0
   -0.4997   17.4278   44.0582 H   0  0  0  0  0  0  0  0  0  0  0  0
    0.7858   16.5722   40.4717 H   0  0  0  0  0  0  0  0  0  0  0  0
    1.9901   20.5818   41.4338 H   0  0  0  0  0  0  0  0  0  0  0  0
    0.6605   20.3425   40.3871 H   0  0  0  0  0  0  0  0  0  0  0  0
  1 11  1  0
  2 22  1  0
  3 13  1  0
  3 23  1  0
  4  1  1  0
  4  5  1  0
  5  2  2  0
  6 12  1  0
  7  9  1  0
  8 14  1  0
  9 10  1  0
 10 19  2  0
 11  2  1  0
 12 15  2  0
 12 21  1  0
 13  8  2  0
 14 18  1  0
 16 14  2  0
 17  6  1  0
 17  3  1  0
 17 23  1  0
 18 10  1  0
 20  4  2  0
 22 13  1  0
 23 16  1  0
 24  8  1  0
 24  7  1  0
  6 25  1  0
  7 26  1  0
  7 27  1  0
  9 28  1  0
  9 29  1  0
 11 30  1  0
 11 31  1  0
 17 32  1  0
 18 33  1  0
 23 34  1  0
 24 35  1  0
 24 36  1  0
M  CHG  2  21  -1  24   1
M  END
>  <mol_id>  (51) 
2026-08-23-6tgu-s0-n100-prep-0052

>  <rmsd_to_ref>  (51) 


$$$$

     RDKit          3D

 37 40  0  0  0  0  0  0  0  0999 V2000
    1.7820   19.2750   40.5270 C   0  0  0  0  0  0  0  0  0  0  0  0
    1.4760   13.5680   42.0460 N   0  0  0  0  0  0  0  0  0  0  0  0
    0.9020   12.8830   43.0200 C   0  0  0  0  0  0  0  0  0  0  0  0
    0.8710   18.9950   41.5130 C   0  0  0  0  0  0  0  0  0  0  0  0
    0.4110   16.9630   42.9190 C   0  0  0  0  0  0  0  0  0  0  0  0
    3.3300   20.6700   36.0280 C   0  0  0  0  0  0  0  0  0  0  0  0
    1.0470   21.4120   41.3430 S   0  0  0  0  0  0  0  0  0  0  0  0
    0.4950   13.3770   44.0370 O   0  0  0  0  0  0  0  0  0  0  0  0
    2.2520   18.0510   40.0820 O   0  0  0  0  0  0  0  0  0  0  0  0
    2.8530   15.0950   40.0750 O   0  0  0  0  0  0  0  0  0  0  0  0
    0.9600   17.6640   41.8350 C   0  0  0  0  0  0  0  0  0  0  0  0
    1.8810   21.5550   37.7450 C   0  0  0  0  0  0  0  0  0  0  0  0
    1.3860   14.9300   41.9960 C   0  0  0  0  0  0  0  0  0  0  0  0
    2.0470   15.6850   40.9500 C   0  0  0  0  0  0  0  0  0  0  0  0
    2.3850   21.5660   36.4470 N   0  0  0  0  0  0  0  0  0  0  0  0
    1.8330   20.6990   40.0990 C   0  0  0  0  0  0  0  0  0  0  0  0
    0.6060   15.6020   43.0020 C   0  0  0  0  0  0  0  0  0  0  0  0
    1.7880   17.0530   40.9700 C   0  0  0  0  0  0  0  0  0  0  0  0
    3.7370   19.6380   36.9180 C   0  0  0  0  0  0  0  0  0  0  0  0
    0.3610   20.2370   42.1290 C   0  0  0  0  0  0  0  0  0  0  0  0
    3.2210   19.5760   38.2770 C   0  0  0  0  0  0  0  0  0  0  0  0
    2.3170   20.6020   38.6080 C   0  0  0  0  0  0  0  0  0  0  0  0
    0.6180   11.3670   42.8000 C   0  0  0  0  0  0  0  0  0  0  0  0
    1.9991   13.0671   41.3136 H   0  0  0  0  0  0  0  0  0  0  0  0
   -0.1666   17.4923   43.6912 H   0  0  0  0  0  0  0  0  0  0  0  0
    3.7670   20.7463   35.0214 H   0  0  0  0  0  0  0  0  0  0  0  0
    2.9950   14.1160   40.1147 H   0  0  0  0  0  0  0  0  0  0  0  0
    1.1429   22.3050   38.0654 H   0  0  0  0  0  0  0  0  0  0  0  0
    2.1962   21.7226   39.9249 H   0  0  0  0  0  0  0  0  0  0  0  0
    0.1675   15.0310   43.8336 H   0  0  0  0  0  0  0  0  0  0  0  0
    4.4519   18.8760   36.5741 H   0  0  0  0  0  0  0  0  0  0  0  0
   -0.7328   20.2946   42.0278 H   0  0  0  0  0  0  0  0  0  0  0  0
    0.5875   20.2803   43.2046 H   0  0  0  0  0  0  0  0  0  0  0  0
    3.5142   18.7900   38.9885 H   0  0  0  0  0  0  0  0  0  0  0  0
    0.5242   10.8663   43.7749 H   0  0  0  0  0  0  0  0  0  0  0  0
   -0.3181   11.2476   42.2349 H   0  0  0  0  0  0  0  0  0  0  0  0
    1.4474   10.9168   42.2349 H   0  0  0  0  0  0  0  0  0  0  0  0
  1  4  2  0
  2  3  1  0
  3  8  2  0
  4 11  1  0
  4 20  1  0
  5 17  2  0
  6 15  2  0
  6 19  1  0
  7 20  1  0
  9  1  1  0
  9 18  1  0
 10 14  1  0
 11  5  1  0
 12 22  2  0
 13  2  1  0
 13 17  1  0
 14 18  1  0
 14 13  2  0
 15 12  1  0
 16 22  1  0
 16  1  1  0
 16  7  1  0
 18 11  2  0
 19 21  2  0
 21 22  1  0
 23  3  1  0
  2 24  1  0
  5 25  1  0
  6 26  1  0
 10 27  1  0
 12 28  1  0
 16 29  1  0
 17 30  1  0
 19 31  1  0
 20 32  1  0
 20 33  1  0
 21 34  1  0
 23 35  1  0
 23 36  1  0
 23 37  1  0
M  END
>  <mol_id>  (52) 
2026-08-23-6tgu-s0-n100-prep-0053

>  <rmsd_to_ref>  (52) 


$$$$

     RDKit          3D

 25 25  0  0  0  0  0  0  0  0999 V2000
    3.3980   19.5950   36.7580 F   0  0  0  0  0  0  0  0  0  0  0  0
    2.6920   18.0780   39.8650 C   0  0  0  0  0  0  0  0  0  0  0  0
    2.8490   19.6680   38.1050 C   0  0  0  0  0  0  0  0  0  0  0  0
    2.2680   20.7970   38.3280 C   0  0  0  0  0  0  0  0  0  0  0  0
    1.5550   20.1190   40.6380 C   0  0  0  0  0  0  0  0  0  0  0  0
    1.7370   20.9620   39.6020 C   0  0  0  0  0  0  0  0  0  0  0  0
    1.0370   20.6200   41.7160 O   0  0  0  0  0  0  0  0  0  0  0  0
    1.8910   18.8230   40.5280 C   0  0  0  0  0  0  0  0  0  0  0  0
    1.1120   17.8550   42.8320 C   0  0  0  0  0  0  0  0  0  0  0  0
    3.2250   18.5570   38.7250 C   0  0  0  0  0  0  0  0  0  0  0  0
    0.9790   17.9460   41.4240 N   0  0  0  0  0  4  0  0  0  0  0  0
   -0.2250   17.4530   43.4780 C   0  0  0  0  0  0  0  0  0  0  0  0
    2.9404   17.0666   40.2190 H   0  0  0  0  0  0  0  0  0  0  0  0
    2.1969   21.5802   37.5588 H   0  0  0  0  0  0  0  0  0  0  0  0
    1.3965   21.9879   39.8060 H   0  0  0  0  0  0  0  0  0  0  0  0
    0.8827   20.0429   42.5055 H   0  0  0  0  0  0  0  0  0  0  0  0
    2.6579   18.9559   41.3053 H   0  0  0  0  0  0  0  0  0  0  0  0
    1.4261   18.8315   43.2292 H   0  0  0  0  0  0  0  0  0  0  0  0
    1.8643   17.0880   43.0680 H   0  0  0  0  0  0  0  0  0  0  0  0
    4.0416   17.9779   38.2690 H   0  0  0  0  0  0  0  0  0  0  0  0
    0.0181   18.2756   41.2538 H   0  0  0  0  0  0  0  0  0  0  0  0
    1.2677   17.0002   41.1358 H   0  0  0  0  0  0  0  0  0  0  0  0
   -0.1266   17.4826   44.5732 H   0  0  0  0  0  0  0  0  0  0  0  0
   -1.0108   18.1546   43.1614 H   0  0  0  0  0  0  0  0  0  0  0  0
   -0.4936   16.4344   43.1614 H   0  0  0  0  0  0  0  0  0  0  0  0
  1  3  1  0
  2  8  1  0
  3  4  2  0
  3 10  1  0
  4  6  1  0
  5  7  1  0
  6  5  2  0
  8  5  1  0
  8 11  1  0
  9 12  1  0
 10  2  2  0
 11  9  1  0
  2 13  1  0
  4 14  1  0
  6 15  1  0
  7 16  1  0
  8 17  1  0
  9 18  1  0
  9 19  1  0
 10 20  1  0
 11 21  1  0
 11 22  1  0
 12 23  1  0
 12 24  1  0
 12 25  1  0
M  CHG  1  11   1
M  END
>  <mol_id>  (53) 
2026-08-23-6tgu-s0-n100-prep-0054

>  <rmsd_to_ref>  (53) 


$$$$

     RDKit          3D

 23 23  0  0  0  0  0  0  0  0999 V2000
    2.7180   20.4000   37.1610 O   0  0  0  0  0  0  0  0  0  0  0  0
    1.7500   21.0780   39.6100 C   0  0  0  0  0  0  0  0  0  0  0  0
    1.2520   16.9360   42.2970 C   0  0  0  0  0  0  0  0  0  0  0  0
    0.7350   20.4810   41.7130 C   0  0  0  0  0  0  0  0  0  0  0  0
    0.9750   21.4020   40.7580 C   0  0  0  0  0  0  0  0  0  0  0  0
    3.1470   17.2330   39.4660 O   0  0  0  0  0  0  0  0  0  0  0  0
    2.5880   17.6680   40.4390 N   0  0  0  0  0  0  0  0  0  0  0  0
    4.0080   18.9040   38.0530 O   0  0  0  0  0  0  0  0  0  0  0  0
    2.2790   19.8630   39.4230 C   0  0  0  0  0  0  0  0  0  0  0  0
    0.4790   15.6580   43.1640 S   0  0  0  0  0  0  0  0  0  0  0  0
   -0.1160   20.6200   42.7410 O   0  0  0  0  0  0  0  0  0  0  0  0
    2.2280   18.9750   40.4890 C   0  0  0  0  0  0  0  0  0  0  0  0
    2.8510   19.4450   37.9820 C   0  0  0  0  0  0  0  0  0  0  0  0
    1.3160   19.2430   41.5460 C   0  0  0  0  0  0  0  0  0  0  0  0
    0.9520   18.1970   42.3980 N   0  0  0  0  0  0  0  0  0  0  0  0
    2.5999   21.2482   37.6577 H   0  0  0  0  0  0  0  0  0  0  0  0
    1.9206   21.8537   38.8489 H   0  0  0  0  0  0  0  0  0  0  0  0
    2.0618   16.6616   41.6050 H   0  0  0  0  0  0  0  0  0  0  0  0
    0.5661   22.4173   40.8680 H   0  0  0  0  0  0  0  0  0  0  0  0
    4.2595   18.7864   39.0033 H   0  0  0  0  0  0  0  0  0  0  0  0
    0.6102   15.8749   44.5103 H   0  0  0  0  0  0  0  0  0  0  0  0
   -0.2261   19.8853   43.3953 H   0  0  0  0  0  0  0  0  0  0  0  0
    2.2411   18.6311   37.5629 H   0  0  0  0  0  0  0  0  0  0  0  0
  1 13  1  0
  2  5  2  0
  3 15  2  3
  3 10  1  0
  4 11  1  0
  5  4  1  0
  6  7  2  0
  7 12  1  0
  9  2  1  0
  9 12  2  0
 12 14  1  0
 13  8  1  0
 13  9  1  0
 14  4  2  0
 14 15  1  0
  1 16  1  0
  2 17  1  0
  3 18  1  0
  5 19  1  0
  8 20  1  0
 10 21  1  0
 11 22  1  0
 13 23  1  0
M  END
>  <mol_id>  (54) 
2026-08-23-6tgu-s0-n100-prep-0055

>  <rmsd_to_ref>  (54) 


$$$$

     RDKit          3D

 30 30  0  0  0  0  0  0  0  0999 V2000
   -0.0790   20.1900   42.2410 C   0  0  0  0  0  0  0  0  0  0  0  0
    1.5150   20.8590   39.6060 C   0  0  0  0  0  0  0  0  0  0  0  0
    0.4330   17.6960   43.6640 O   0  0  0  0  0  0  0  0  0  0  0  0
    2.1070   18.5370   39.6800 C   0  0  0  0  0  0  0  0  0  0  0  0
    2.1700   21.0070   38.4100 C   0  0  0  0  0  0  0  0  0  0  0  0
    3.6290   17.3280   37.8400 S   0  0  0  0  0  4  0  0  0  0  0  0
    3.1630   15.9230   37.3610 O   0  0  0  0  0  0  0  0  0  0  0  0
    3.8820   17.8430   36.8310 O   0  0  0  0  0  0  0  0  0  0  0  0
    2.7700   18.6860   38.4600 C   0  0  0  0  0  0  0  0  0  0  0  0
    0.8250   19.4370   41.5430 C   0  0  0  0  0  0  0  0  0  0  0  0
   -0.4770   18.4510   44.1070 C   0  0  0  0  0  0  0  0  0  0  0  0
    2.8280   19.9390   37.8210 C   0  0  0  0  0  0  0  0  0  0  0  0
    3.5200   20.1260   36.7020 O   0  0  0  0  0  0  0  0  0  0  0  0
   -0.7760   19.7070   43.4550 C   0  0  0  0  0  0  0  0  0  0  0  0
   -1.3100   17.8880   45.0550 N   0  0  0  0  0  0  0  0  0  0  0  0
    1.4730   19.6370   40.2450 C   0  0  0  0  0  0  0  0  0  0  0  0
    4.6820   17.1140   38.7260 O   0  0  0  0  0  0  0  0  0  0  0  0
   -0.2994   21.2062   41.8821 H   0  0  0  0  0  0  0  0  0  0  0  0
    1.0162   21.7268   40.0621 H   0  0  0  0  0  0  0  0  0  0  0  0
    2.0869   17.5612   40.1874 H   0  0  0  0  0  0  0  0  0  0  0  0
    2.1730   21.9874   37.9112 H   0  0  0  0  0  0  0  0  0  0  0  0
    2.9737   15.3522   38.1474 H   0  0  0  0  0  0  0  0  0  0  0  0
    4.3117   18.7176   37.0055 H   0  0  0  0  0  0  0  0  0  0  0  0
    1.1204   18.5076   42.0518 H   0  0  0  0  0  0  0  0  0  0  0  0
    3.9913   19.3653   36.2785 H   0  0  0  0  0  0  0  0  0  0  0  0
   -0.6221   20.4844   44.2179 H   0  0  0  0  0  0  0  0  0  0  0  0
   -1.7809   19.5047   43.0560 H   0  0  0  0  0  0  0  0  0  0  0  0
   -2.0759   18.4433   45.4625 H   0  0  0  0  0  0  0  0  0  0  0  0
   -1.1650   16.9131   45.3541 H   0  0  0  0  0  0  0  0  0  0  0  0
    4.3496   17.1816   39.6561 H   0  0  0  0  0  0  0  0  0  0  0  0
  1 14  1  0
  2 16  2  0
  3 11  2  0
  4 16  1  0
  5  2  1  0
  6  9  1  0
  6 17  1  0
  7  6  1  0
  8  6  1  0
  9  4  2  0
 10  1  2  3
 11 15  1  0
 12  5  2  0
 12  9  1  0
 13 12  1  0
 14 11  1  0
 16 10  1  0
  1 18  1  0
  2 19  1  0
  4 20  1  0
  5 21  1  0
  7 22  1  0
  8 23  1  0
 10 24  1  0
 13 25  1  0
 14 26  1  0
 14 27  1  0
 15 28  1  0
 15 29  1  0
 17 30  1  0
M  END
>  <mol_id>  (55) 
2026-08-23-6tgu-s0-n100-prep-0056

>  <rmsd_to_ref>  (55) 


$$$$

     RDKit          3D

 35 37  0  0  0  0  0  0  0  0999 V2000
    3.8760   19.7750   36.1070 O   0  0  0  0  0  1  0  0  0  0  0  0
    1.3850   20.4690   40.5640 C   0  0  0  0  0  0  0  0  0  0  0  0
    2.8510   17.3570   38.8900 C   0  0  0  0  0  0  0  0  0  0  0  0
    2.7460   16.1490   39.5910 N   0  0  0  0  0  0  0  0  0  0  0  0
    2.4810   18.6060   39.3910 N   0  0  0  0  0  0  0  0  0  0  0  0
    0.0570   20.2650   42.5490 C   0  0  0  0  0  0  0  0  0  0  0  0
    1.1470   15.8200   42.9230 S   0  0  0  0  0  0  0  0  0  0  0  0
   -0.6640   20.9120   43.5320 O   0  0  0  0  0  0  0  0  0  0  0  0
    1.1400   18.2530   41.5240 C   0  0  0  0  0  0  0  0  0  0  0  0
   -0.6310   18.1490   43.5430 C   0  0  0  0  0  0  0  0  0  0  0  0
    1.8480   14.4400   42.5490 C   0  0  0  0  0  0  0  0  0  0  0  0
    2.4590   20.5970   37.8200 C   0  0  0  0  0  0  0  0  0  0  0  0
    1.6840   19.0680   40.5480 C   0  0  0  0  0  0  0  0  0  0  0  0
    3.2190   17.0810   37.6880 O   0  0  0  0  0  0  0  0  0  0  0  0
    2.7910   21.6870   35.7470 O   0  0  0  0  0  0  0  0  0  0  0  0
    0.2310   18.8530   42.5550 C   0  0  0  0  0  0  0  0  0  0  0  0
    2.3450   14.4960   41.3130 C   0  0  0  0  0  0  0  0  0  0  0  0
    3.0760   20.7080   36.4950 C   0  0  0  0  0  0  0  0  0  0  0  0
    0.6160   21.0110   41.4840 C   0  0  0  0  0  0  0  0  0  0  0  0
    3.2480   19.6120   38.6310 C   0  0  0  0  0  0  0  0  0  0  0  0
    2.1960   15.8340   40.8000 C   0  0  0  0  0  0  0  0  0  0  0  0
    1.4970   16.6920   41.7020 C   0  0  0  0  0  0  0  0  0  0  0  0
    1.8124   21.1130   39.7813 H   0  0  0  0  0  0  0  0  0  0  0  0
    3.1634   15.3450   39.1008 H   0  0  0  0  0  0  0  0  0  0  0  0
   -0.7688   21.8960   43.5025 H   0  0  0  0  0  0  0  0  0  0  0  0
   -0.3101   18.4111   44.5620 H   0  0  0  0  0  0  0  0  0  0  0  0
   -1.6781   18.4534   43.3986 H   0  0  0  0  0  0  0  0  0  0  0  0
   -0.5419   17.0622   43.3986 H   0  0  0  0  0  0  0  0  0  0  0  0
    1.9129   13.5665   43.2144 H   0  0  0  0  0  0  0  0  0  0  0  0
    1.4212   20.2469   37.7180 H   0  0  0  0  0  0  0  0  0  0  0  0
    2.4553   21.5780   38.3176 H   0  0  0  0  0  0  0  0  0  0  0  0
    2.7977   13.6531   40.7703 H   0  0  0  0  0  0  0  0  0  0  0  0
    0.3988   22.0876   41.4229 H   0  0  0  0  0  0  0  0  0  0  0  0
    3.9133   19.0714   37.9417 H   0  0  0  0  0  0  0  0  0  0  0  0
    3.7630   20.2154   39.3930 H   0  0  0  0  0  0  0  0  0  0  0  0
  1 18  1  0
  2 19  2  0
  3  5  1  0
  3  4  1  0
  4 21  1  0
  5 13  1  0
  6 16  2  0
  6  8  1  0
  9 22  1  0
  9 16  1  0
 11  7  1  0
 12 20  1  0
 13  2  1  0
 13  9  2  0
 14  3  2  0
 15 18  2  0
 16 10  1  0
 17 11  2  0
 18 12  1  0
 19  6  1  0
 20  5  1  0
 21 17  1  0
 21 22  2  0
 22  7  1  0
  2 23  1  0
  4 24  1  0
  8 25  1  0
 10 26  1  0
 10 27  1  0
 10 28  1  0
 11 29  1  0
 12 30  1  0
 12 31  1  0
 17 32  1  0
 19 33  1  0
 20 34  1  0
 20 35  1  0
M  CHG  1   1  -1
M  END
>  <mol_id>  (56) 
2026-08-23-6tgu-s0-n100-prep-0057

>  <rmsd_to_ref>  (56) 


$$$$

     RDKit          3D

 41 43  0  0  0  0  0  0  0  0999 V2000
   -1.0820   19.2920   43.6390 S   0  0  0  0  0  6  0  0  0  0  0  0
    3.7190   20.2670   36.3010 C   0  0  0  0  0  0  0  0  0  0  0  0
    0.7980   19.4490   41.4950 C   0  0  0  0  0  0  0  0  0  0  0  0
    4.1750   21.1750   35.5840 O   0  0  0  0  0  0  0  0  0  0  0  0
    3.0190   18.3010   38.6010 C   0  0  0  0  0  0  0  0  0  0  0  0
    1.2730   16.0650   42.1640 C   0  0  0  0  0  0  0  0  0  0  0  0
    2.7730   19.7210   38.5050 C   0  0  0  0  0  0  0  0  0  0  0  0
    0.0110   20.6820   42.0740 C   0  0  0  0  0  0  0  0  0  0  0  0
   -0.3600   19.9440   44.7530 O   0  0  0  0  0  0  0  0  0  0  0  0
   -1.4180   20.5690   42.4750 C   0  0  0  0  0  0  0  0  0  0  0  0
   -2.1860   18.1080   44.1240 O   0  0  0  0  0  0  0  0  0  0  0  0
    2.3340   20.4070   39.8260 S   0  0  0  0  0  0  0  0  0  0  0  0
    0.7610   21.7750   42.0850 N   0  0  0  0  0  0  0  0  0  0  0  0
    2.9310   20.5450   37.4260 C   0  0  0  0  0  0  0  0  0  0  0  0
    1.7660   14.6940   42.0990 C   0  0  0  0  0  0  0  0  0  0  0  0
    1.7650   16.9100   40.9530 C   0  0  0  0  0  0  0  0  0  0  0  0
    0.5600   16.9820   43.0600 C   0  0  0  0  0  0  0  0  0  0  0  0
    3.6580   17.4020   37.6780 C   0  0  0  0  0  0  0  0  0  0  0  0
    4.0230   17.8610   36.4980 C   0  0  0  0  0  0  0  0  0  0  0  0
    1.9730   18.2080   40.9200 C   0  0  0  0  0  0  0  0  0  0  0  0
    0.1380   18.4150   42.6540 C   0  0  0  0  0  0  0  0  0  0  0  0
    1.7210   19.4540   40.8250 C   0  0  0  0  0  0  0  0  0  0  0  0
    2.5350   13.5880   41.6620 C   0  0  0  0  0  0  0  0  0  0  0  0
    4.0420   18.8930   35.9080 C   0  0  0  0  0  0  0  0  0  0  0  0
    3.9370   15.7330   38.0790 Cl  0  0  0  0  0  0  0  0  0  0  0  0
    2.6600   17.8319   39.5289 H   0  0  0  0  0  0  0  0  0  0  0  0
    1.7197   19.5218   38.2584 H   0  0  0  0  0  0  0  0  0  0  0  0
   -1.8177   21.4854   42.9338 H   0  0  0  0  0  0  0  0  0  0  0  0
   -2.1754   20.3925   41.6971 H   0  0  0  0  0  0  0  0  0  0  0  0
    0.3742   22.6615   42.4392 H   0  0  0  0  0  0  0  0  0  0  0  0
    3.3275   21.4865   37.8340 H   0  0  0  0  0  0  0  0  0  0  0  0
    1.9272   20.4771   36.9813 H   0  0  0  0  0  0  0  0  0  0  0  0
    2.0446   14.6188   43.1605 H   0  0  0  0  0  0  0  0  0  0  0  0
    1.1676   14.5755   41.1837 H   0  0  0  0  0  0  0  0  0  0  0  0
    1.9605   16.3600   40.0207 H   0  0  0  0  0  0  0  0  0  0  0  0
    0.3123   16.6331   44.0734 H   0  0  0  0  0  0  0  0  0  0  0  0
    4.4300   17.0506   35.8754 H   0  0  0  0  0  0  0  0  0  0  0  0
    2.9168   13.0389   42.5353 H   0  0  0  0  0  0  0  0  0  0  0  0
    1.9053   12.9203   41.0556 H   0  0  0  0  0  0  0  0  0  0  0  0
    3.3802   13.9457   41.0556 H   0  0  0  0  0  0  0  0  0  0  0  0
    4.3658   18.7975   34.8611 H   0  0  0  0  0  0  0  0  0  0  0  0
  1 11  2  0
  1  9  2  0
  2 14  1  0
  3  8  1  0
  3 21  2  0
  4  2  2  0
  6 17  2  0
  7  5  1  0
  7 12  1  0
  8 13  2  3
  8 10  1  0
 10  1  1  0
 12 22  1  0
 14  7  1  0
 15  6  1  0
 16  6  1  0
 18 25  1  0
 18  5  2  0
 19 18  1  0
 20 16  2  0
 21 17  1  0
 21  1  1  0
 22 20  2  0
 22  3  1  0
 23 15  1  0
 24  2  1  0
 24 19  2  0
  5 26  1  0
  7 27  1  0
 10 28  1  0
 10 29  1  0
 13 30  1  0
 14 31  1  0
 14 32  1  0
 15 33  1  0
 15 34  1  0
 16 35  1  0
 17 36  1  0
 19 37  1  0
 23 38  1  0
 23 39  1  0
 23 40  1  0
 24 41  1  0
M  END
>  <mol_id>  (57) 
2026-08-23-6tgu-s0-n100-prep-0058

>  <rmsd_to_ref>  (57) 


$$$$

     RDKit          3D

 32 34  0  0  0  0  0  0  0  0999 V2000
    1.4270   20.6620   39.8130 C   0  0  0  0  0  0  0  0  0  0  0  0
   -0.2220   19.2860   43.3570 N   0  0  0  0  0  0  0  0  0  0  0  0
    3.8050   18.7840   36.8650 C   0  0  0  0  0  0  0  0  0  0  0  0
    0.0750   15.5850   43.5550 C   0  0  0  0  0  0  0  0  0  0  0  0
    1.0750   17.4410   41.8490 C   0  0  0  0  0  0  0  0  0  0  0  0
    1.7360   19.2430   40.1390 C   0  0  0  0  0  0  0  0  0  0  0  0
    2.6490   20.5260   37.7540 C   0  0  0  0  0  0  0  0  0  0  0  0
   -1.0310   17.6610   44.7640 O   0  0  0  0  0  0  0  0  0  0  0  0
    3.6830   21.2830   35.6150 O   0  0  0  0  0  0  0  0  0  0  0  0
   -0.3910   17.9810   43.7200 C   0  0  0  0  0  0  0  0  0  0  0  0
    3.3690   20.3200   36.5780 N   0  0  0  0  0  0  0  0  0  0  0  0
    3.1000   19.1310   38.1440 C   0  0  0  0  0  0  0  0  0  0  0  0
    2.6050   18.5490   39.2800 C   0  0  0  0  0  0  0  0  0  0  0  0
    0.2980   16.9840   42.9290 C   0  0  0  0  0  0  0  0  0  0  0  0
    1.1150   18.7320   41.3870 C   0  0  0  0  0  0  0  0  0  0  0  0
    1.8450   16.3900   41.1600 N   0  0  0  0  0  4  0  0  0  0  0  0
    0.3900   19.6710   42.2410 C   0  0  0  0  0  0  0  0  0  0  0  0
    1.8530   21.3410   38.6230 C   0  0  0  0  0  0  0  0  0  0  0  0
    0.8277   21.2323   40.5380 H   0  0  0  0  0  0  0  0  0  0  0  0
    4.8845   18.5857   36.9378 H   0  0  0  0  0  0  0  0  0  0  0  0
    3.5940   17.9175   36.2211 H   0  0  0  0  0  0  0  0  0  0  0  0
    0.0882   15.6678   44.6518 H   0  0  0  0  0  0  0  0  0  0  0  0
   -0.8977   15.1882   43.2289 H   0  0  0  0  0  0  0  0  0  0  0  0
    0.8762   14.9054   43.2289 H   0  0  0  0  0  0  0  0  0  0  0  0
    3.9565   22.1218   36.0641 H   0  0  0  0  0  0  0  0  0  0  0  0
    2.8936   17.5163   39.5255 H   0  0  0  0  0  0  0  0  0  0  0  0
   -0.5489   16.8142   42.2479 H   0  0  0  0  0  0  0  0  0  0  0  0
    2.2927   15.7790   41.8579 H   0  0  0  0  0  0  0  0  0  0  0  0
    1.2118   15.8312   40.5703 H   0  0  0  0  0  0  0  0  0  0  0  0
    2.5686   16.8253   40.5703 H   0  0  0  0  0  0  0  0  0  0  0  0
    0.3493   20.7313   41.9509 H   0  0  0  0  0  0  0  0  0  0  0  0
    1.5936   22.3863   38.3994 H   0  0  0  0  0  0  0  0  0  0  0  0
  1  6  2  0
  2 10  1  0
  3 12  1  0
  5 14  1  0
  6 15  1  0
  7 12  1  0
  7 18  2  0
  9 11  1  0
 10  8  2  0
 11  3  1  0
 11  7  1  0
 12 13  2  0
 13  6  1  0
 14  4  1  0
 14 10  1  0
 15  5  2  0
 15 17  1  0
 16  5  1  0
 17  2  2  0
 18  1  1  0
  1 19  1  0
  3 20  1  0
  3 21  1  0
  4 22  1  0
  4 23  1  0
  4 24  1  0
  9 25  1  0
 13 26  1  0
 14 27  1  0
 16 28  1  0
 16 29  1  0
 16 30  1  0
 17 31  1  0
 18 32  1  0
M  CHG  1  16   1
M  END
>  <mol_id>  (58) 
2026-08-23-6tgu-s0-n100-prep-0059

>  <rmsd_to_ref>  (58) 


$$$$

     RDKit          3D

 49 51  0  0  0  0  0  0  0  0999 V2000
    2.2390   16.6730   40.8300 N   0  0  0  0  0  0  0  0  0  0  0  0
    3.2860   19.1850   37.4200 C   0  0  0  0  0  0  0  0  0  0  0  0
    2.5670   15.3450   38.9570 O   0  0  0  0  0  0  0  0  0  0  0  0
    1.9300   21.1390   37.8260 C   0  0  0  0  0  0  0  0  0  0  0  0
    1.4300   16.2800   41.8490 C   0  0  0  0  0  0  0  0  0  0  0  0
   -1.1290   13.5610   44.9840 C   0  0  0  0  0  0  0  0  0  0  0  0
   -0.1330   16.9480   43.5600 C   0  0  0  0  0  0  0  0  0  0  0  0
    3.7650   19.6840   36.2350 C   0  0  0  0  0  0  0  0  0  0  0  0
    3.3310   20.9340   35.8860 C   0  0  0  0  0  0  0  0  0  0  0  0
   -0.1310   15.5850   44.0210 C   0  0  0  0  0  0  0  0  0  0  0  0
    2.4170   19.8700   38.2010 C   0  0  0  0  0  0  0  0  0  0  0  0
    0.0520   12.8350   45.5270 C   0  0  0  0  0  0  0  0  0  0  0  0
   -0.8190   17.8670   44.2990 C   0  0  0  0  0  0  0  0  0  0  0  0
    3.5800   17.8090   37.8300 N   0  0  0  0  0  0  0  0  0  0  0  0
    1.3400   15.0100   42.2400 C   0  0  0  0  0  0  0  0  0  0  0  0
    2.9180   17.5160   38.7230 N   0  0  0  0  0  0  0  0  0  0  0  0
    1.8640   22.7930   36.1710 N   0  0  0  0  0  0  0  0  0  0  0  0
    0.6970   17.2990   42.4940 C   0  0  0  0  0  0  0  0  0  0  0  0
    2.5900   16.4480   39.5220 C   0  0  0  0  0  0  0  0  0  0  0  0
    0.0450   19.5960   42.8450 C   0  0  0  0  0  0  0  0  0  0  0  0
    0.1830   20.9910   42.6850 O   0  0  0  0  0  0  0  0  0  0  0  0
   -0.7260   19.2210   43.9130 C   0  0  0  0  0  0  0  0  0  0  0  0
    0.5370   14.7090   43.2590 N   0  0  0  0  0  0  0  0  0  0  0  0
    0.7680   18.6790   42.1080 C   0  0  0  0  0  0  0  0  0  0  0  0
    2.3630   21.6320   36.6230 C   0  0  0  0  0  0  0  0  0  0  0  0
    1.0200   21.5820   41.6710 C   0  0  0  0  0  0  0  0  0  0  0  0
   -0.9380   15.0350   45.0360 N   0  0  0  0  0  0  0  0  0  0  0  0
    2.8205   17.4488   41.1777 H   0  0  0  0  0  0  0  0  0  0  0  0
    1.2375   21.7046   38.4667 H   0  0  0  0  0  0  0  0  0  0  0  0
   -2.0156   13.2949   45.5782 H   0  0  0  0  0  0  0  0  0  0  0  0
   -1.2585   13.2681   43.9316 H   0  0  0  0  0  0  0  0  0  0  0  0
    4.4586   19.1117   35.6014 H   0  0  0  0  0  0  0  0  0  0  0  0
    3.7585   21.4106   34.9915 H   0  0  0  0  0  0  0  0  0  0  0  0
    2.0832   19.4258   39.1504 H   0  0  0  0  0  0  0  0  0  0  0  0
    0.0206   12.8543   46.6264 H   0  0  0  0  0  0  0  0  0  0  0  0
    0.0336   11.7920   45.1779 H   0  0  0  0  0  0  0  0  0  0  0  0
    0.9743   13.3223   45.1779 H   0  0  0  0  0  0  0  0  0  0  0  0
   -1.4238   17.5629   45.1660 H   0  0  0  0  0  0  0  0  0  0  0  0
    4.2767   17.1953   37.3840 H   0  0  0  0  0  0  0  0  0  0  0  0
    1.9179   14.2246   41.7310 H   0  0  0  0  0  0  0  0  0  0  0  0
    2.3854   18.3419   39.0313 H   0  0  0  0  0  0  0  0  0  0  0  0
    1.1535   23.2969   36.7207 H   0  0  0  0  0  0  0  0  0  0  0  0
    2.1915   23.1801   35.2745 H   0  0  0  0  0  0  0  0  0  0  0  0
   -1.2801   19.9855   44.4774 H   0  0  0  0  0  0  0  0  0  0  0  0
    1.3798   18.9969   41.2509 H   0  0  0  0  0  0  0  0  0  0  0  0
    1.8288   22.1531   42.1502 H   0  0  0  0  0  0  0  0  0  0  0  0
    1.4530   20.7883   41.0445 H   0  0  0  0  0  0  0  0  0  0  0  0
    0.4169   22.2556   41.0445 H   0  0  0  0  0  0  0  0  0  0  0  0
   -1.3689   15.6172   45.7684 H   0  0  0  0  0  0  0  0  0  0  0  0
  1  5  1  0
  2 14  1  0
  2 11  1  0
  3 19  2  0
  4 11  2  0
  5 15  1  0
  5 18  2  0
  6 27  1  0
  6 12  1  0
  7 10  2  0
  7 13  1  0
  8  2  2  0
  9  8  1  0
  9 25  2  0
 10 27  1  0
 14 16  1  0
 15 23  2  0
 16 19  1  0
 17 25  1  0
 18  7  1  0
 19  1  1  0
 20 22  1  0
 21 20  1  0
 22 13  2  0
 23 10  1  0
 24 18  1  0
 24 20  2  0
 25  4  1  0
 26 21  1  0
  1 28  1  0
  4 29  1  0
  6 30  1  0
  6 31  1  0
  8 32  1  0
  9 33  1  0
 11 34  1  0
 12 35  1  0
 12 36  1  0
 12 37  1  0
 13 38  1  0
 14 39  1  0
 15 40  1  0
 16 41  1  0
 17 42  1  0
 17 43  1  0
 22 44  1  0
 24 45  1  0
 26 46  1  0
 26 47  1  0
 26 48  1  0
 27 49  1  0
M  END
>  <mol_id>  (59) 
2026-08-23-6tgu-s0-n100-prep-0060

>  <rmsd_to_ref>  (59) 


$$$$

     RDKit          3D

 24 25  0  0  0  0  0  0  0  0999 V2000
    2.6070   21.4650   36.1240 O   0  0  0  0  0  0  0  0  0  0  0  0
    2.8350   19.3150   38.8090 N   0  0  0  0  0  0  0  0  0  0  0  0
    0.6580   19.7130   41.6710 C   0  0  0  0  0  0  0  0  0  0  0  0
    3.7550   19.5990   36.3490 O   0  0  0  0  0  1  0  0  0  0  0  0
   -0.4170   17.3940   44.2190 C   0  0  0  0  0  0  0  0  0  0  0  0
    2.5070   20.4530   38.1590 C   0  0  0  0  0  0  0  0  0  0  0  0
    1.3910   17.4460   41.6740 C   0  0  0  0  0  0  0  0  0  0  0  0
   -0.8520   19.7110   43.4760 N   0  0  0  0  0  0  0  0  0  0  0  0
    0.6820   18.4710   42.1860 C   0  0  0  0  0  0  0  0  0  0  0  0
    1.6990   21.3510   38.5790 O   0  0  0  0  0  0  0  0  0  0  0  0
    2.2020   17.6220   40.4730 C   0  0  0  0  0  0  0  0  0  0  0  0
   -0.2240   20.5470   42.5090 C   0  0  0  0  0  0  0  0  0  0  0  0
    3.0160   20.5190   36.7620 C   0  0  0  0  0  0  0  0  0  0  0  0
    1.4740   19.9700   40.4860 C   0  0  0  0  0  0  0  0  0  0  0  0
   -0.1000   18.4780   43.2610 N   0  0  0  0  0  0  0  0  0  0  0  0
    2.1730   18.9280   39.9520 C   0  0  0  0  0  0  0  0  0  0  0  0
    3.5955   18.7253   38.4420 H   0  0  0  0  0  0  0  0  0  0  0  0
   -0.3072   17.7695   45.2471 H   0  0  0  0  0  0  0  0  0  0  0  0
   -1.4517   17.0558   44.0607 H   0  0  0  0  0  0  0  0  0  0  0  0
    0.2724   16.5516   44.0607 H   0  0  0  0  0  0  0  0  0  0  0  0
    1.3583   16.4635   42.1676 H   0  0  0  0  0  0  0  0  0  0  0  0
    2.7831   16.8070   40.0169 H   0  0  0  0  0  0  0  0  0  0  0  0
   -0.3718   21.6320   42.4046 H   0  0  0  0  0  0  0  0  0  0  0  0
    1.5228   20.9736   40.0384 H   0  0  0  0  0  0  0  0  0  0  0  0
  1 13  2  0
  2 16  1  0
  3  9  1  0
  3 12  1  0
  4 13  1  0
  6 10  2  0
  6  2  1  0
  7  9  2  0
  9 15  1  0
 11  7  1  0
 12  8  2  0
 13  6  1  0
 14  3  2  0
 15  8  1  0
 15  5  1  0
 16 11  2  0
 16 14  1  0
  2 17  1  0
  5 18  1  0
  5 19  1  0
  5 20  1  0
  7 21  1  0
 11 22  1  0
 12 23  1  0
 14 24  1  0
M  CHG  1   4  -1
M  END
>  <mol_id>  (60) 
2026-08-23-6tgu-s0-n100-prep-0061

>  <rmsd_to_ref>  (60) 


$$$$

     RDKit          3D

 47 50  0  0  0  0  0  0  0  0999 V2000
    4.0330   14.5310   37.2720 C   0  0  0  0  0  0  0  0  0  0  0  0
    3.2220   14.4470   38.3540 C   0  0  0  0  0  0  0  0  0  0  0  0
    2.8470   15.6860   39.0180 C   0  0  0  0  0  0  0  0  0  0  0  0
    3.6460   20.6090   36.4770 O   0  0  0  0  0  0  0  0  0  0  0  0
   -0.4770   18.0130   44.3620 C   0  0  0  0  0  0  0  0  0  0  0  0
   -1.3350   19.7660   44.9000 N   0  0  0  0  0  0  0  0  0  0  0  0
    2.3590   20.4140   38.4870 C   0  0  0  0  0  0  0  0  0  0  0  0
    2.5560   18.0410   39.3400 C   0  0  0  0  0  0  0  0  0  0  0  0
    3.0970   16.9570   38.6010 C   0  0  0  0  0  0  0  0  0  0  0  0
   -1.7550   18.9200   46.0940 C   0  0  0  0  0  0  0  0  0  0  0  0
    0.6300   19.2230   42.0020 C   0  0  0  0  0  0  0  0  0  0  0  0
    2.0850   18.5910   40.2670 N   0  0  0  0  0  0  0  0  0  0  0  0
   -1.6760   16.9130   47.0630 C   0  0  0  0  0  0  0  0  0  0  0  0
   -0.0200   17.3080   43.3920 C   0  0  0  0  0  0  0  0  0  0  0  0
    2.8230   19.2020   38.5780 N   0  0  0  0  0  0  0  0  0  0  0  0
   -0.0270   19.9460   42.9510 C   0  0  0  0  0  0  0  0  0  0  0  0
    1.5570   20.7040   39.5720 C   0  0  0  0  0  0  0  0  0  0  0  0
    1.4800   19.6830   40.5400 C   0  0  0  0  0  0  0  0  0  0  0  0
    4.5050   15.7770   36.8080 C   0  0  0  0  0  0  0  0  0  0  0  0
    3.9570   16.9370   37.3640 C   0  0  0  0  0  0  0  0  0  0  0  0
    0.7350   17.8480   42.2150 C   0  0  0  0  0  0  0  0  0  0  0  0
    2.6740   21.0840   37.2370 C   0  0  0  0  0  0  0  0  0  0  0  0
   -1.2170   17.5860   45.7060 C   0  0  0  0  0  0  0  0  0  0  0  0
    4.3000   13.4750   36.5780 O   0  0  0  0  0  0  0  0  0  0  0  0
   -0.4270   19.2830   43.9820 C   0  0  0  0  0  0  0  0  0  0  0  0
    3.9650   18.0590   36.6650 O   0  0  0  0  0  0  0  0  0  0  0  0
    2.0850   22.0190   36.7510 O   0  0  0  0  0  1  0  0  0  0  0  0
    2.8592   13.4745   38.7183 H   0  0  0  0  0  0  0  0  0  0  0  0
    2.2984   15.5836   39.9659 H   0  0  0  0  0  0  0  0  0  0  0  0
   -1.7330   20.7080   44.7769 H   0  0  0  0  0  0  0  0  0  0  0  0
    1.4300   20.0251   38.0445 H   0  0  0  0  0  0  0  0  0  0  0  0
   -1.2982   19.2834   47.0263 H   0  0  0  0  0  0  0  0  0  0  0  0
   -2.8361   18.9296   46.2965 H   0  0  0  0  0  0  0  0  0  0  0  0
   -1.2813   17.4917   47.9112 H   0  0  0  0  0  0  0  0  0  0  0  0
   -2.7748   16.8959   47.1105 H   0  0  0  0  0  0  0  0  0  0  0  0
   -1.2908   15.8837   47.1105 H   0  0  0  0  0  0  0  0  0  0  0  0
   -0.1960   16.2227   43.4270 H   0  0  0  0  0  0  0  0  0  0  0  0
    3.5950   19.0454   37.9144 H   0  0  0  0  0  0  0  0  0  0  0  0
   -0.2050   21.0263   42.8447 H   0  0  0  0  0  0  0  0  0  0  0  0
    1.9532   21.6075   40.0585 H   0  0  0  0  0  0  0  0  0  0  0  0
    0.5383   20.8342   39.1779 H   0  0  0  0  0  0  0  0  0  0  0  0
    1.3616   20.7613   40.7225 H   0  0  0  0  0  0  0  0  0  0  0  0
    5.2817   15.8342   36.0312 H   0  0  0  0  0  0  0  0  0  0  0  0
    1.3351   17.2000   41.5593 H   0  0  0  0  0  0  0  0  0  0  0  0
   -0.9635   16.5824   45.3337 H   0  0  0  0  0  0  0  0  0  0  0  0
    4.8929   13.5389   35.7877 H   0  0  0  0  0  0  0  0  0  0  0  0
    3.5792   18.8852   37.0506 H   0  0  0  0  0  0  0  0  0  0  0  0
  1  2  2  0
  2  3  1  0
  4 22  2  0
  5 23  1  0
  6 10  1  0
  7 22  1  0
  7 15  1  0
  7 17  1  0
  8 12  2  0
  9  3  2  0
  9  8  1  0
 11 21  2  0
 11 16  1  0
 12 18  1  0
 14  5  2  0
 15  8  1  0
 16 25  2  0
 17 18  1  0
 18 11  1  0
 19  1  1  0
 19 20  2  0
 20  9  1  0
 21 14  1  0
 23 10  1  0
 23 13  1  0
 24  1  1  0
 25  5  1  0
 25  6  1  0
 26 20  1  0
 27 22  1  0
  2 28  1  0
  3 29  1  0
  6 30  1  0
  7 31  1  0
 10 32  1  0
 10 33  1  0
 13 34  1  0
 13 35  1  0
 13 36  1  0
 14 37  1  0
 15 38  1  0
 16 39  1  0
 17 40  1  0
 17 41  1  0
 18 42  1  0
 19 43  1  0
 21 44  1  0
 23 45  1  0
 24 46  1  0
 26 47  1  0
M  CHG  1  27  -1
M  END
>  <mol_id>  (61) 
2026-08-23-6tgu-s0-n100-prep-0062

>  <rmsd_to_ref>  (61) 


$$$$

     RDKit          3D

 46 49  0  0  0  0  0  0  0  0999 V2000
    3.9840   19.6820   35.6630 O   0  0  0  0  0  0  0  0  0  0  0  0
    1.6560   17.7540   40.8050 C   0  0  0  0  0  0  0  0  0  0  0  0
    3.3630   19.7880   36.7940 C   0  0  0  0  0  0  0  0  0  0  0  0
    3.0140   16.7830   38.7440 C   0  0  0  0  0  0  0  0  0  0  0  0
    2.0730   20.2560   39.1330 N   0  0  0  0  0  0  0  0  0  0  0  0
    1.0880   18.8450   41.1950 N   0  0  0  0  0  0  0  0  0  0  0  0
    3.2600   14.5530   37.6500 C   0  0  0  0  0  0  0  0  0  0  0  0
   -0.0490   20.3060   42.5390 C   0  0  0  0  0  0  0  0  0  0  0  0
    2.4140   17.7820   39.5420 C   0  0  0  0  0  0  0  0  0  0  0  0
    3.3270   15.2440   38.8530 C   0  0  0  0  0  0  0  0  0  0  0  0
   -0.2350   15.6260   44.7430 C   0  0  0  0  0  0  0  0  0  0  0  0
    2.9080   21.0680   37.0810 C   0  0  0  0  0  0  0  0  0  0  0  0
    0.1890   17.8620   43.1570 C   0  0  0  0  0  0  0  0  0  0  0  0
    2.1000   15.4780   41.2800 O   0  0  0  0  0  0  0  0  0  0  0  0
    0.4610   18.9520   42.2730 N   0  0  0  0  0  0  0  0  0  0  0  0
    0.4190   15.5180   43.5310 C   0  0  0  0  0  0  0  0  0  0  0  0
    0.6840   16.6240   42.7930 C   0  0  0  0  0  0  0  0  0  0  0  0
   -0.7130   16.9370   45.1120 C   0  0  0  0  0  0  0  0  0  0  0  0
    2.5190   18.9780   38.9100 C   0  0  0  0  0  0  0  0  0  0  0  0
   -0.4520   18.0240   44.3260 C   0  0  0  0  0  0  0  0  0  0  0  0
    3.1030   18.7540   37.7140 C   0  0  0  0  0  0  0  0  0  0  0  0
    3.2600   17.4640   37.6490 C   0  0  0  0  0  0  0  0  0  0  0  0
    2.2590   21.3000   38.2680 C   0  0  0  0  0  0  0  0  0  0  0  0
    1.5310   16.5830   41.5980 C   0  0  0  0  0  0  0  0  0  0  0  0
    0.8630   21.2460   41.7850 C   0  0  0  0  0  0  0  0  0  0  0  0
    4.3433   18.8053   35.3759 H   0  0  0  0  0  0  0  0  0  0  0  0
    3.1556   13.4765   37.8508 H   0  0  0  0  0  0  0  0  0  0  0  0
    2.3917   14.9043   37.0732 H   0  0  0  0  0  0  0  0  0  0  0  0
    4.1796   14.7309   37.0732 H   0  0  0  0  0  0  0  0  0  0  0  0
   -1.0832   20.4036   42.1771 H   0  0  0  0  0  0  0  0  0  0  0  0
   -0.0597   20.5299   43.6159 H   0  0  0  0  0  0  0  0  0  0  0  0
    1.4768   17.6704   38.9770 H   0  0  0  0  0  0  0  0  0  0  0  0
    4.3429   15.1285   39.2587 H   0  0  0  0  0  0  0  0  0  0  0  0
    2.5509   14.8136   39.5030 H   0  0  0  0  0  0  0  0  0  0  0  0
   -0.3845   14.7537   45.3963 H   0  0  0  0  0  0  0  0  0  0  0  0
    3.0660   21.8876   36.3646 H   0  0  0  0  0  0  0  0  0  0  0  0
   -0.7738   17.6931   42.6525 H   0  0  0  0  0  0  0  0  0  0  0  0
    1.9909   14.6810   41.8571 H   0  0  0  0  0  0  0  0  0  0  0  0
    0.7267   14.5284   43.1623 H   0  0  0  0  0  0  0  0  0  0  0  0
   -1.2945   17.0627   46.0372 H   0  0  0  0  0  0  0  0  0  0  0  0
   -0.7656   19.0275   44.6495 H   0  0  0  0  0  0  0  0  0  0  0  0
    3.5831   16.9682   36.7217 H   0  0  0  0  0  0  0  0  0  0  0  0
    1.8949   22.3071   38.5195 H   0  0  0  0  0  0  0  0  0  0  0  0
    1.4446   21.8454   42.5009 H   0  0  0  0  0  0  0  0  0  0  0  0
    1.5487   20.6630   41.1527 H   0  0  0  0  0  0  0  0  0  0  0  0
    0.2595   21.9138   41.1527 H   0  0  0  0  0  0  0  0  0  0  0  0
  1  3  1  0
  2  6  2  0
  2 24  1  0
  3 12  2  0
  3 21  1  0
  4 10  1  0
  4  9  1  0
  6 15  1  0
  7 10  1  0
  9  2  1  0
 11 18  1  0
 12 23  1  0
 13 20  1  0
 14 24  1  0
 15  8  1  0
 15 13  1  0
 16 11  2  0
 17 13  1  0
 17 16  1  0
 19  5  1  0
 19  9  1  0
 20 18  2  0
 21 19  2  0
 22 21  1  0
 22  4  2  0
 23  5  2  0
 24 17  2  0
 25  8  1  0
  1 26  1  0
  7 27  1  0
  7 28  1  0
  7 29  1  0
  8 30  1  0
  8 31  1  0
  9 32  1  0
 10 33  1  0
 10 34  1  0
 11 35  1  0
 12 36  1  0
 13 37  1  0
 14 38  1  0
 16 39  1  0
 18 40  1  0
 20 41  1  0
 22 42  1  0
 23 43  1  0
 25 44  1  0
 25 45  1  0
 25 46  1  0
M  END
>  <mol_id>  (62) 
2026-08-23-6tgu-s0-n100-prep-0063

>  <rmsd_to_ref>  (62) 


$$$$

     RDKit          3D

 62 67  0  0  0  0  0  0  0  0999 V2000
    2.1700   20.2300   39.5800 C   0  0  0  0  0  0  0  0  0  0  0  0
    2.3940   14.3410   41.4900 C   0  0  0  0  0  0  0  0  0  0  0  0
    0.4960   21.1660   41.2540 C   0  0  0  0  0  0  0  0  0  0  0  0
   -0.3640   14.4120   44.9500 O   0  0  0  0  0  0  0  0  0  0  0  0
    0.0320   18.4030   43.7670 C   0  0  0  0  0  0  0  0  0  0  0  0
    3.6830   20.6820   35.6640 C   0  0  0  0  0  0  0  0  0  0  0  0
   -1.8100   17.7010   47.0460 C   0  0  0  0  0  0  0  0  0  0  0  0
   -0.7780   12.9560   44.9110 C   0  0  0  0  0  0  0  0  0  0  0  0
    1.2500   18.7750   41.3500 C   0  0  0  0  0  0  0  0  0  0  0  0
   -1.1120   17.3350   45.9430 C   0  0  0  0  0  0  0  0  0  0  0  0
    2.7290   20.3820   38.2760 N   0  0  0  0  0  0  0  0  0  0  0  0
    0.7130   15.8970   43.3880 C   0  0  0  0  0  0  0  0  0  0  0  0
    3.5690   18.7130   36.9130 C   0  0  0  0  0  0  0  0  0  0  0  0
    3.9980   19.3480   35.8840 C   0  0  0  0  0  0  0  0  0  0  0  0
   -0.6730   17.4480   44.7550 C   0  0  0  0  0  0  0  0  0  0  0  0
    1.3180   15.1390   41.0720 O   0  0  0  0  0  0  0  0  0  0  0  0
    2.3450   21.5360   36.4660 C   0  0  0  0  0  0  0  0  0  0  0  0
   -2.2020   18.9260   45.7730 O   0  0  0  0  0  0  0  0  0  0  0  0
   -0.8360   20.4800   43.8160 O   0  0  0  0  0  0  0  0  0  0  0  0
    1.0580   16.2080   41.8850 C   0  0  0  0  0  0  0  0  0  0  0  0
    1.0480   17.6040   41.5720 N   0  0  0  0  0  0  0  0  0  0  0  0
    0.0180   17.1830   43.8060 N   0  0  0  0  0  0  0  0  0  0  0  0
   -2.1130   12.9940   44.2890 O   0  0  0  0  0  0  0  0  0  0  0  0
    3.9400   17.5240   37.2870 N   0  0  0  0  0  4  0  0  0  0  0  0
    2.5600   20.8250   37.4370 C   0  0  0  0  0  0  0  0  0  0  0  0
    2.1800   18.9710   40.2680 C   0  0  0  0  0  0  0  0  0  0  0  0
    1.4210   21.2910   40.1570 C   0  0  0  0  0  0  0  0  0  0  0  0
   -0.0650   19.6300   43.1280 C   0  0  0  0  0  0  0  0  0  0  0  0
    3.0350   19.4110   37.7970 C   0  0  0  0  0  0  0  0  0  0  0  0
   -1.2430   18.5960   45.7460 C   0  0  0  0  0  0  0  0  0  0  0  0
    0.5760   19.9060   41.8330 C   0  0  0  0  0  0  0  0  0  0  0  0
   -0.4000   14.8590   43.6470 C   0  0  0  0  0  0  0  0  0  0  0  0
    4.1510   21.3240   34.7620 O   0  0  0  0  0  0  0  0  0  0  0  0
    2.4270   14.3165   42.5892 H   0  0  0  0  0  0  0  0  0  0  0  0
    2.2642   13.3191   41.1042 H   0  0  0  0  0  0  0  0  0  0  0  0
    3.3342   14.7619   41.1042 H   0  0  0  0  0  0  0  0  0  0  0  0
   -0.1840   21.9631   41.5890 H   0  0  0  0  0  0  0  0  0  0  0  0
    0.6659   19.2669   43.5184 H   0  0  0  0  0  0  0  0  0  0  0  0
   -2.8772   17.4607   47.1617 H   0  0  0  0  0  0  0  0  0  0  0  0
   -1.7234   17.6676   48.1421 H   0  0  0  0  0  0  0  0  0  0  0  0
   -0.0778   12.3644   44.3030 H   0  0  0  0  0  0  0  0  0  0  0  0
   -0.7820   12.4852   45.9051 H   0  0  0  0  0  0  0  0  0  0  0  0
   -0.8979   16.2779   46.1590 H   0  0  0  0  0  0  0  0  0  0  0  0
    1.6310   15.5416   43.8789 H   0  0  0  0  0  0  0  0  0  0  0  0
    4.6327   18.8211   35.1563 H   0  0  0  0  0  0  0  0  0  0  0  0
    2.5178   22.6094   36.6334 H   0  0  0  0  0  0  0  0  0  0  0  0
    1.3469   21.6151   36.0104 H   0  0  0  0  0  0  0  0  0  0  0  0
   -2.4904   19.0253   46.7148 H   0  0  0  0  0  0  0  0  0  0  0  0
   -0.7037   20.3342   44.7862 H   0  0  0  0  0  0  0  0  0  0  0  0
   -2.8059   13.0137   44.9958 H   0  0  0  0  0  0  0  0  0  0  0  0
    3.9548   17.4767   38.3158 H   0  0  0  0  0  0  0  0  0  0  0  0
    3.2767   16.8263   36.9207 H   0  0  0  0  0  0  0  0  0  0  0  0
    4.8824   17.3273   36.9207 H   0  0  0  0  0  0  0  0  0  0  0  0
    1.6781   20.2002   37.2323 H   0  0  0  0  0  0  0  0  0  0  0  0
    3.5146   21.3558   37.5676 H   0  0  0  0  0  0  0  0  0  0  0  0
    2.8808   18.1750   39.9762 H   0  0  0  0  0  0  0  0  0  0  0  0
    1.5597   22.2947   39.7287 H   0  0  0  0  0  0  0  0  0  0  0  0
   -0.9485   19.2737   42.5780 H   0  0  0  0  0  0  0  0  0  0  0  0
    2.0349   18.9552   37.7513 H   0  0  0  0  0  0  0  0  0  0  0  0
    4.0357   19.5590   38.2290 H   0  0  0  0  0  0  0  0  0  0  0  0
   -1.3779   15.3239   43.4529 H   0  0  0  0  0  0  0  0  0  0  0  0
   -0.2420   14.0008   42.9773 H   0  0  0  0  0  0  0  0  0  0  0  0
  1 27  2  0
  1 26  1  0
  3 31  2  0
  5 22  1  0
  5 15  1  0
  6 14  1  0
  6 17  1  0
  8  4  1  0
  9 21  1  0
  9 31  1  0
 10  7  1  0
 11  1  1  0
 12 32  1  0
 12 22  1  0
 13 24  1  0
 13 29  1  0
 14 13  2  0
 15 30  1  0
 15 10  1  0
 16  2  1  0
 16 20  1  0
 17 25  1  0
 20 12  1  0
 21 20  2  0
 22 15  1  0
 23  8  1  0
 25 11  1  0
 26  9  2  0
 27  3  1  0
 28  5  1  0
 28 19  1  0
 29 11  1  0
 30 18  1  0
 30 10  1  0
 30  7  1  0
 31 28  1  0
 32  4  1  0
 33  6  2  0
  2 34  1  0
  2 35  1  0
  2 36  1  0
  3 37  1  0
  5 38  1  0
  7 39  1  0
  7 40  1  0
  8 41  1  0
  8 42  1  0
 10 43  1  0
 12 44  1  0
 14 45  1  0
 17 46  1  0
 17 47  1  0
 18 48  1  0
 19 49  1  0
 23 50  1  0
 24 51  1  0
 24 52  1  0
 24 53  1  0
 25 54  1  0
 25 55  1  0
 26 56  1  0
 27 57  1  0
 28 58  1  0
 29 59  1  0
 29 60  1  0
 32 61  1  0
 32 62  1  0
M  CHG  1  24   1
M  END
>  <mol_id>  (63) 
2026-08-23-6tgu-s0-n100-prep-0064

>  <rmsd_to_ref>  (63) 


$$$$

     RDKit          3D

 39 40  0  0  0  0  0  0  0  0999 V2000
   -0.3210   18.5780   43.4150 C   0  0  0  0  0  0  0  0  0  0  0  0
    0.4950   18.0430   42.4410 C   0  0  0  0  0  0  0  0  0  0  0  0
    3.1250   16.9920   38.5610 C   0  0  0  0  0  0  0  0  0  0  0  0
    2.9750   19.0660   39.6270 C   0  0  0  0  0  0  0  0  0  0  0  0
    2.8020   19.5460   38.5330 O   0  0  0  0  0  0  0  0  0  0  0  0
   -0.7090   19.9020   43.2500 C   0  0  0  0  0  0  0  0  0  0  0  0
    1.0350   18.8340   41.3030 C   0  0  0  0  0  0  0  0  0  0  0  0
    0.4810   20.1480   41.2210 C   0  0  0  0  0  0  0  0  0  0  0  0
    0.7800   16.8330   42.6190 O   0  0  0  0  0  0  0  0  0  0  0  0
    3.1420   20.3180   39.7630 O   0  0  0  0  0  0  0  0  0  0  0  0
    2.0620   18.2180   40.5330 C   0  0  0  0  0  0  0  0  0  0  0  0
    2.4980   16.7110   39.9720 C   0  0  0  0  0  0  0  0  0  0  0  0
    3.6470   19.3200   36.7900 C   0  0  0  0  0  0  0  0  0  0  0  0
    3.1490   20.5280   37.5390 C   0  0  0  0  0  0  0  0  0  0  0  0
   -0.3600   20.6920   42.1100 C   0  0  0  0  0  0  0  0  0  0  0  0
    4.3170   16.8990   36.4990 O   0  0  0  0  0  0  0  0  0  0  0  0
    3.8510   19.5860   35.4570 O   0  0  0  0  0  0  0  0  0  0  0  0
    3.7990   17.8520   37.3000 C   0  0  0  0  0  0  0  0  0  0  0  0
   -1.2620   20.2940   44.2550 O   0  0  0  0  0  0  0  0  0  0  0  0
    4.5250   15.6960   36.9690 C   0  0  0  0  0  0  0  0  0  0  0  0
    2.0850   15.3770   40.3290 C   0  0  0  0  0  0  0  0  0  0  0  0
   -1.2343   17.9664   43.4567 H   0  0  0  0  0  0  0  0  0  0  0  0
    0.2833   18.5677   44.3341 H   0  0  0  0  0  0  0  0  0  0  0  0
    3.6080   18.1940   39.8481 H   0  0  0  0  0  0  0  0  0  0  0  0
    1.8402   19.2138   41.9491 H   0  0  0  0  0  0  0  0  0  0  0  0
    0.7689   20.7639   40.3563 H   0  0  0  0  0  0  0  0  0  0  0  0
    3.1722   20.5442   40.7263 H   0  0  0  0  0  0  0  0  0  0  0  0
    1.7086   18.0092   41.5535 H   0  0  0  0  0  0  0  0  0  0  0  0
    2.5802   19.1404   36.5909 H   0  0  0  0  0  0  0  0  0  0  0  0
    3.9193   21.2548   37.8363 H   0  0  0  0  0  0  0  0  0  0  0  0
    2.4435   21.2635   37.1251 H   0  0  0  0  0  0  0  0  0  0  0  0
   -0.7656   21.7047   41.9692 H   0  0  0  0  0  0  0  0  0  0  0  0
    4.4508   20.3681   35.3646 H   0  0  0  0  0  0  0  0  0  0  0  0
    4.5198   15.7260   38.0686 H   0  0  0  0  0  0  0  0  0  0  0  0
    3.7300   15.0222   36.6168 H   0  0  0  0  0  0  0  0  0  0  0  0
    5.5001   15.3283   36.6168 H   0  0  0  0  0  0  0  0  0  0  0  0
    2.0559   15.2830   41.4246 H   0  0  0  0  0  0  0  0  0  0  0  0
    1.0840   15.1806   39.9174 H   0  0  0  0  0  0  0  0  0  0  0  0
    2.7999   14.6493   39.9174 H   0  0  0  0  0  0  0  0  0  0  0  0
  2  9  2  0
  2  1  1  0
  3 12  2  0
  4 10  1  0
  4 11  1  0
  5  4  1  0
  6  1  1  0
  6 19  2  0
  7  8  1  0
  7  2  1  0
  8 15  2  0
 11 12  1  0
 11  7  1  0
 12 21  1  0
 13 17  1  0
 13 18  1  0
 13 14  1  0
 14  5  1  0
 15  6  1  0
 16 20  1  0
 16 18  1  0
 18  3  2  0
  1 22  1  0
  1 23  1  0
  4 24  1  0
  7 25  1  0
  8 26  1  0
 10 27  1  0
 11 28  1  0
 13 29  1  0
 14 30  1  0
 14 31  1  0
 15 32  1  0
 17 33  1  0
 20 34  1  0
 20 35  1  0
 20 36  1  0
 21 37  1  0
 21 38  1  0
 21 39  1  0
M  END
>  <mol_id>  (64) 
2026-08-23-6tgu-s0-n100-prep-0065

>  <rmsd_to_ref>  (64) 


$$$$

     RDKit          3D

 22 23  0  0  0  0  0  0  0  0999 V2000
    1.3890   17.3780   41.6710 N   0  0  0  0  0  0  0  0  0  0  0  0
    1.9160   21.3890   38.7500 C   0  0  0  0  0  0  0  0  0  0  0  0
   -0.1520   17.9220   43.2980 C   0  0  0  0  0  0  0  0  0  0  0  0
    1.1410   18.7170   41.3880 C   0  0  0  0  0  0  0  0  0  0  0  0
    0.6860   15.6080   43.1490 N   0  0  0  0  0  0  0  0  0  0  0  0
    2.8090   19.2820   38.0390 C   0  0  0  0  0  0  0  0  0  0  0  0
    0.5880   16.9890   42.7270 N   0  0  0  0  0  0  0  0  0  0  0  0
    2.4330   18.6860   39.2390 C   0  0  0  0  0  0  0  0  0  0  0  0
    2.5560   20.5760   37.7550 C   0  0  0  0  0  0  0  0  0  0  0  0
    1.6890   19.3820   40.1980 C   0  0  0  0  0  0  0  0  0  0  0  0
    2.7910   21.1800   36.5520 O   0  0  0  0  0  0  0  0  0  0  0  0
   -0.0270   19.4040   42.4600 S   0  0  0  0  0  0  0  0  0  0  0  0
    1.4790   20.7080   39.9290 C   0  0  0  0  0  0  0  0  0  0  0  0
    1.7705   22.4708   38.6137 H   0  0  0  0  0  0  0  0  0  0  0  0
   -1.2029   17.5969   43.2982 H   0  0  0  0  0  0  0  0  0  0  0  0
    0.2067   18.0712   44.3271 H   0  0  0  0  0  0  0  0  0  0  0  0
    0.6892   15.5628   44.1780 H   0  0  0  0  0  0  0  0  0  0  0  0
   -0.1196   15.0797   42.7847 H   0  0  0  0  0  0  0  0  0  0  0  0
    3.3350   18.6717   37.2901 H   0  0  0  0  0  0  0  0  0  0  0  0
    2.7272   17.6449   39.4379 H   0  0  0  0  0  0  0  0  0  0  0  0
    2.5750   22.1382   36.4286 H   0  0  0  0  0  0  0  0  0  0  0  0
    0.9305   21.2962   40.6795 H   0  0  0  0  0  0  0  0  0  0  0  0
  1  7  1  0
  2 13  2  0
  4  1  2  0
  4 12  1  0
  6  8  1  0
  7  5  1  0
  7  3  1  0
  8 10  2  0
  9  6  2  0
  9  2  1  0
 10  4  1  0
 11  9  1  0
 12  3  1  0
 13 10  1  0
  2 14  1  0
  3 15  1  0
  3 16  1  0
  5 17  1  0
  5 18  1  0
  6 19  1  0
  8 20  1  0
 11 21  1  0
 13 22  1  0
M  END
>  <mol_id>  (65) 
2026-08-23-6tgu-s0-n100-prep-0066

>  <rmsd_to_ref>  (65) 


$$$$

     RDKit          3D

 41 45  0  0  0  0  0  0  0  0999 V2000
    0.5990   16.2360   42.9470 C   0  0  0  0  0  0  0  0  0  0  0  0
   -0.7920   15.5900   44.9790 N   0  0  0  0  0  0  0  0  0  0  0  0
   -0.1150   14.4250   44.6810 C   0  0  0  0  0  0  0  0  0  0  0  0
    2.9640   18.9180   37.9670 C   0  0  0  0  0  0  0  0  0  0  0  0
    1.4330   19.1520   40.1770 C   0  0  0  0  0  0  0  0  0  0  0  0
    1.9710   16.3410   40.7780 C   0  0  0  0  0  0  0  0  0  0  0  0
    1.4960   14.0880   42.1390 C   0  0  0  0  0  0  0  0  0  0  0  0
    2.8430   20.3600   37.6360 C   0  0  0  0  0  0  0  0  0  0  0  0
   -0.9990   18.1290   43.7880 C   0  0  0  0  0  0  0  0  0  0  0  0
    1.0780   16.9330   41.8120 C   0  0  0  0  0  0  0  0  0  0  0  0
    3.7640   16.5200   37.4790 C   0  0  0  0  0  0  0  0  0  0  0  0
    3.2020   16.0660   38.6830 C   0  0  0  0  0  0  0  0  0  0  0  0
   -0.3740   16.6820   44.0070 C   0  0  0  0  0  0  0  0  0  0  0  0
    3.3370   20.8800   36.5510 O   0  0  0  0  0  0  0  0  0  0  0  0
    1.9980   21.2270   38.5950 C   0  0  0  0  0  0  0  0  0  0  0  0
    0.6570   14.7100   43.3120 C   0  0  0  0  0  0  0  0  0  0  0  0
    0.9950   21.2780   40.7570 O   0  0  0  0  0  0  0  0  0  0  0  0
    1.4490   20.6300   39.8070 C   0  0  0  0  0  0  0  0  0  0  0  0
   -0.0780   19.0260   42.7530 C   0  0  0  0  0  0  0  0  0  0  0  0
    4.0410   18.3420   35.8070 O   0  0  0  0  0  0  0  0  0  0  0  0
    3.6430   17.8990   37.1010 C   0  0  0  0  0  0  0  0  0  0  0  0
   -0.2610   13.4330   45.2270 O   0  0  0  0  0  0  0  0  0  0  0  0
    0.7810   18.5390   41.5440 C   0  0  0  0  0  0  0  0  0  0  0  0
    2.5350   16.9450   39.5230 C   0  0  0  0  0  0  0  0  0  0  0  0
    2.3320   18.3950   39.2090 C   0  0  0  0  0  0  0  0  0  0  0  0
    3.3780   14.7510   39.0910 O   0  0  0  0  0  0  0  0  0  0  0  0
   -1.4748   15.7024   45.7419 H   0  0  0  0  0  0  0  0  0  0  0  0
    2.2641   15.2968   40.9618 H   0  0  0  0  0  0  0  0  0  0  0  0
    2.3141   13.4815   42.5548 H   0  0  0  0  0  0  0  0  0  0  0  0
    0.8459   13.4519   41.5203 H   0  0  0  0  0  0  0  0  0  0  0  0
    1.9157   14.8949   41.5203 H   0  0  0  0  0  0  0  0  0  0  0  0
   -2.0105   18.0234   43.3687 H   0  0  0  0  0  0  0  0  0  0  0  0
   -1.0339   18.6442   44.7593 H   0  0  0  0  0  0  0  0  0  0  0  0
    4.2985   15.8166   36.8237 H   0  0  0  0  0  0  0  0  0  0  0  0
    3.2310   21.8481   36.3733 H   0  0  0  0  0  0  0  0  0  0  0  0
    1.8117   22.2866   38.3656 H   0  0  0  0  0  0  0  0  0  0  0  0
   -0.2677   14.5384   42.7416 H   0  0  0  0  0  0  0  0  0  0  0  0
   -0.7804   19.7519   42.3175 H   0  0  0  0  0  0  0  0  0  0  0  0
    0.7423   19.2742   43.4426 H   0  0  0  0  0  0  0  0  0  0  0  0
    3.9512   19.2968   35.5614 H   0  0  0  0  0  0  0  0  0  0  0  0
    2.9784   14.4388   39.9413 H   0  0  0  0  0  0  0  0  0  0  0  0
  1 16  1  0
  1 13  2  0
  3  2  1  0
  3 22  2  0
  4 25  2  0
  5 23  2  0
  6 10  2  0
  8  4  1  0
  8 15  2  0
  9 13  1  0
 10  1  1  0
 11 12  1  0
 12 26  1  0
 12 24  2  0
 13  2  1  0
 14  8  1  0
 15 18  1  0
 16  7  1  0
 16  3  1  0
 18  5  1  0
 18 17  2  0
 19  9  1  0
 20 21  1  0
 21 11  2  0
 21  4  1  0
 23 10  1  0
 23 19  1  0
 24  6  1  0
 25 24  1  0
 25  5  1  0
  2 27  1  0
  6 28  1  0
  7 29  1  0
  7 30  1  0
  7 31  1  0
  9 32  1  0
  9 33  1  0
 11 34  1  0
 14 35  1  0
 15 36  1  0
 16 37  1  0
 19 38  1  0
 19 39  1  0
 20 40  1  0
 26 41  1  0
M  END
>  <mol_id>  (66) 
2026-08-23-6tgu-s0-n100-prep-0067

>  <rmsd_to_ref>  (66) 


$$$$

     RDKit          3D

 23 25  0  0  0  0  0  0  0  0999 V2000
    2.5230   20.3420   38.4120 N   0  0  0  0  0  0  0  0  0  0  0  0
    0.4940   20.4310   41.6120 C   0  0  0  0  0  0  0  0  0  0  0  0
   -0.8840   18.0830   44.1140 C   0  0  0  0  0  0  0  0  0  0  0  0
    1.5230   18.1960   41.3990 C   0  0  0  0  0  0  0  0  0  0  0  0
    2.8970   17.7190   39.4900 O   0  0  0  0  0  0  0  0  0  0  0  0
    3.7500   18.5300   37.4260 O   0  0  0  0  0  1  0  0  0  0  0  0
   -0.0280   16.0280   43.8570 C   0  0  0  0  0  0  0  0  0  0  0  0
    3.3100   19.7610   37.3820 C   0  0  0  0  0  0  0  0  0  0  0  0
    1.5460   16.8900   41.9200 N   0  0  0  0  0  0  0  0  0  0  0  0
    0.0040   18.1780   43.0420 C   0  0  0  0  0  0  0  0  0  0  0  0
   -0.8880   16.8310   44.4580 N   0  0  0  0  0  0  0  0  0  0  0  0
    3.5620   20.4570   36.3780 O   0  0  0  0  0  0  0  0  0  0  0  0
    1.1690   20.8340   40.4740 C   0  0  0  0  0  0  0  0  0  0  0  0
    0.6590   19.0650   42.0460 C   0  0  0  0  0  0  0  0  0  0  0  0
    1.9350   19.9270   39.6670 C   0  0  0  0  0  0  0  0  0  0  0  0
    0.5700   16.8930   42.9210 C   0  0  0  0  0  0  0  0  0  0  0  0
    2.1350   18.6280   40.1090 C   0  0  0  0  0  0  0  0  0  0  0  0
    2.3134   21.3300   38.2098 H   0  0  0  0  0  0  0  0  0  0  0  0
   -0.1481   21.1297   42.1684 H   0  0  0  0  0  0  0  0  0  0  0  0
   -1.4611   18.8995   44.5726 H   0  0  0  0  0  0  0  0  0  0  0  0
    2.9898   16.8095   39.8699 H   0  0  0  0  0  0  0  0  0  0  0  0
    0.1693   14.9615   44.0402 H   0  0  0  0  0  0  0  0  0  0  0  0
    1.1168   21.8914   40.1755 H   0  0  0  0  0  0  0  0  0  0  0  0
  1 15  1  0
  2 14  2  0
  3 11  1  0
  4  9  1  0
  4 14  1  0
  5 17  1  0
  7 11  2  0
  8  6  1  0
  8  1  1  0
  9 16  2  0
 10  3  2  0
 12  8  2  0
 13  2  1  0
 14 10  1  0
 15 17  1  0
 15 13  2  0
 16 10  1  0
 16  7  1  0
 17  4  2  0
  1 18  1  0
  2 19  1  0
  3 20  1  0
  5 21  1  0
  7 22  1  0
 13 23  1  0
M  CHG  1   6  -1
M  END
>  <mol_id>  (67) 
2026-08-23-6tgu-s0-n100-prep-0068

>  <rmsd_to_ref>  (67) 


$$$$

     RDKit          3D

 32 33  0  0  0  0  0  0  0  0999 V2000
    2.8840   19.6840   38.1380 C   0  0  0  0  0  0  0  0  0  0  0  0
    0.9040   17.5970   42.3400 N   0  0  0  0  0  0  0  0  0  0  0  0
    3.0870   18.2860   38.4050 C   0  0  0  0  0  0  0  0  0  0  0  0
   -0.5750   18.5270   45.1540 N   0  0  0  0  0  0  0  0  0  0  0  0
    4.0320   20.4000   36.1850 O   0  0  0  0  0  0  0  0  0  0  0  0
   -0.0300   18.9010   44.1310 N   0  0  0  0  0  0  0  0  0  0  0  0
    1.8940   20.0620   40.2630 C   0  0  0  0  0  0  0  0  0  0  0  0
   -1.8580   16.6770   46.2870 N   0  0  0  0  0  0  0  0  0  0  0  0
   -0.9490   17.1480   45.1810 C   0  0  0  0  0  0  0  0  0  0  0  0
    0.1760   17.8480   43.3980 C   0  0  0  0  0  0  0  0  0  0  0  0
   -0.3000   16.6490   44.1110 C   0  0  0  0  0  0  0  0  0  0  0  0
    3.0840   20.4740   36.8530 C   0  0  0  0  0  0  0  0  0  0  0  0
    2.3010   21.4260   36.7070 O   0  0  0  0  0  1  0  0  0  0  0  0
    0.0770   15.2060   43.8010 C   0  0  0  0  0  0  0  0  0  0  0  0
    2.2920   20.5580   39.0560 C   0  0  0  0  0  0  0  0  0  0  0  0
    3.7790   17.3580   37.4120 C   0  0  0  0  0  0  0  0  0  0  0  0
    2.5190   17.8420   39.5800 C   0  0  0  0  0  0  0  0  0  0  0  0
    1.3090   18.3610   41.6030 C   0  0  0  0  0  0  0  0  0  0  0  0
    2.0210   18.6670   40.4820 C   0  0  0  0  0  0  0  0  0  0  0  0
    1.4873   20.7237   41.0419 H   0  0  0  0  0  0  0  0  0  0  0  0
   -2.1446   15.6887   46.3324 H   0  0  0  0  0  0  0  0  0  0  0  0
   -2.1927   17.3434   46.9975 H   0  0  0  0  0  0  0  0  0  0  0  0
   -0.6557   15.7005   43.6821 H   0  0  0  0  0  0  0  0  0  0  0  0
    0.2211   14.6545   44.7418 H   0  0  0  0  0  0  0  0  0  0  0  0
   -0.7279   14.7337   43.2187 H   0  0  0  0  0  0  0  0  0  0  0  0
    1.0100   15.1878   43.2187 H   0  0  0  0  0  0  0  0  0  0  0  0
    2.1506   21.6208   38.8103 H   0  0  0  0  0  0  0  0  0  0  0  0
    4.3490   16.5936   37.9604 H   0  0  0  0  0  0  0  0  0  0  0  0
    3.0235   16.8686   36.7797 H   0  0  0  0  0  0  0  0  0  0  0  0
    4.4635   17.9424   36.7797 H   0  0  0  0  0  0  0  0  0  0  0  0
    2.4793   16.7598   39.7731 H   0  0  0  0  0  0  0  0  0  0  0  0
    0.9498   19.3302   41.9793 H   0  0  0  0  0  0  0  0  0  0  0  0
  1  3  2  0
  1 15  1  0
  2 10  1  0
  3 17  1  0
  4  9  2  0
  5 12  2  0
  6  4  1  0
  7 19  1  0
  9  8  1  0
 10 11  1  0
 10  6  2  0
 11 14  1  0
 11  9  1  0
 12  1  1  0
 13 12  1  0
 15  7  2  0
 16  3  1  0
 17 19  2  0
 18  2  2  3
 19 18  1  0
  7 20  1  0
  8 21  1  0
  8 22  1  0
 11 23  1  0
 14 24  1  0
 14 25  1  0
 14 26  1  0
 15 27  1  0
 16 28  1  0
 16 29  1  0
 16 30  1  0
 17 31  1  0
 18 32  1  0
M  CHG  1  13  -1
M  END
>  <mol_id>  (68) 
2026-08-23-6tgu-s0-n100-prep-0069

>  <rmsd_to_ref>  (68) 


$$$$

     RDKit          3D

 46 47  0  0  0  0  0  0  0  0999 V2000
    0.0750   18.5120   46.3180 F   0  0  0  0  0  0  0  0  0  0  0  0
    3.7440   12.8690   39.9110 C   0  0  0  0  0  0  0  0  0  0  0  0
    2.1360   20.8840   39.1770 N   0  0  0  0  0  0  0  0  0  0  0  0
    3.0820   16.7620   38.2530 C   0  0  0  0  0  0  0  0  0  0  0  0
   -0.1250   20.9810   42.1190 C   0  0  0  0  0  0  0  0  0  0  0  0
    3.7050   11.8240   39.5100 F   0  0  0  0  0  0  0  0  0  0  0  0
    2.7810   15.1660   40.0470 C   0  0  0  0  0  0  0  0  0  0  0  0
   -0.9290   17.3540   44.7840 F   0  0  0  0  0  0  0  0  0  0  0  0
    2.5340   16.4710   39.6270 C   0  0  0  0  0  0  0  0  0  0  0  0
    3.7090   19.2380   38.5350 C   0  0  0  0  0  0  0  0  0  0  0  0
   -0.2560   19.6280   42.4030 C   0  0  0  0  0  0  0  0  0  0  0  0
    0.7290   21.3390   41.0750 C   0  0  0  0  0  0  0  0  0  0  0  0
   -0.6150   18.5270   45.2710 C   0  0  0  0  0  0  0  0  0  0  0  0
   -2.4760   18.8410   43.2030 C   0  0  0  0  0  0  0  0  0  0  0  0
    4.2960   13.6310   37.3220 O   0  0  0  0  0  0  0  0  0  0  0  0
    3.2120   18.1230   37.6200 C   0  0  0  0  0  0  0  0  0  0  0  0
    1.4500   20.4220   40.3730 C   0  0  0  0  0  0  0  0  0  0  0  0
   -0.8680   19.6840   44.6990 N   0  0  0  0  0  0  0  0  0  0  0  0
    1.4400   19.0610   40.7220 C   0  0  0  0  0  0  0  0  0  0  0  0
    3.6780   15.7970   37.5320 N   0  0  0  0  0  0  0  0  0  0  0  0
    2.7510   20.7400   37.0510 O   0  0  0  0  0  0  0  0  0  0  0  0
    0.5300   18.6960   41.7240 C   0  0  0  0  0  0  0  0  0  0  0  0
    2.7720   20.4100   38.1470 C   0  0  0  0  0  0  0  0  0  0  0  0
   -1.1940   19.3820   43.3960 N   0  0  0  0  0  0  0  0  0  0  0  0
    3.7310   14.5510   38.0050 C   0  0  0  0  0  0  0  0  0  0  0  0
    5.1350   12.8910   39.8880 F   0  0  0  0  0  0  0  0  0  0  0  0
    3.1950   12.7350   41.0580 F   0  0  0  0  0  0  0  0  0  0  0  0
    3.4050   14.2090   39.2810 C   0  0  0  0  0  0  0  0  0  0  0  0
    4.0700   17.9510   36.5820 O   0  0  0  0  0  0  0  0  0  0  0  0
    2.1097   21.9127   39.1315 H   0  0  0  0  0  0  0  0  0  0  0  0
   -0.6732   21.7412   42.6948 H   0  0  0  0  0  0  0  0  0  0  0  0
    2.4554   14.8819   41.0586 H   0  0  0  0  0  0  0  0  0  0  0  0
    2.9992   17.1637   40.3437 H   0  0  0  0  0  0  0  0  0  0  0  0
    1.4426   16.6001   39.5798 H   0  0  0  0  0  0  0  0  0  0  0  0
    3.5936   18.9673   39.5949 H   0  0  0  0  0  0  0  0  0  0  0  0
    4.7787   19.4661   38.4178 H   0  0  0  0  0  0  0  0  0  0  0  0
    0.8232   22.4022   40.8092 H   0  0  0  0  0  0  0  0  0  0  0  0
   -1.5335   18.5216   45.8762 H   0  0  0  0  0  0  0  0  0  0  0  0
   -2.9419   18.6444   44.1799 H   0  0  0  0  0  0  0  0  0  0  0  0
   -3.0942   19.5550   42.6390 H   0  0  0  0  0  0  0  0  0  0  0  0
   -2.3958   17.9000   42.6390 H   0  0  0  0  0  0  0  0  0  0  0  0
    2.2094   18.4672   37.3262 H   0  0  0  0  0  0  0  0  0  0  0  0
   -1.6554   20.1538   45.1682 H   0  0  0  0  0  0  0  0  0  0  0  0
    2.1040   18.3285   40.2397 H   0  0  0  0  0  0  0  0  0  0  0  0
    0.4316   17.6321   41.9855 H   0  0  0  0  0  0  0  0  0  0  0  0
    4.9783   17.7689   36.9313 H   0  0  0  0  0  0  0  0  0  0  0  0
  2 27  1  0
  3 17  1  0
  4  9  1  0
  5 11  2  0
  6  2  1  0
  8 13  1  0
  9  7  1  0
 11 24  1  0
 12  5  1  0
 13  1  1  0
 14 24  1  0
 15 25  2  0
 16 29  1  0
 16  4  1  0
 16 10  1  0
 17 19  1  0
 17 12  2  0
 18 13  1  0
 19 22  2  0
 20 25  1  0
 20  4  2  0
 21 23  2  0
 22 11  1  0
 23 10  1  0
 23  3  1  0
 24 18  1  0
 25 28  1  0
 26  2  1  0
 28  2  1  0
 28  7  2  0
  3 30  1  0
  5 31  1  0
  7 32  1  0
  9 33  1  0
  9 34  1  0
 10 35  1  0
 10 36  1  0
 12 37  1  0
 13 38  1  0
 14 39  1  0
 14 40  1  0
 14 41  1  0
 16 42  1  0
 18 43  1  0
 19 44  1  0
 22 45  1  0
 29 46  1  0
M  END
>  <mol_id>  (69) 
2026-08-23-6tgu-s0-n100-prep-0070

>  <rmsd_to_ref>  (69) 


$$$$

     RDKit          3D

 48 50  0  0  0  0  0  0  0  0999 V2000
   -0.3740   16.1870   45.5980 O   0  0  0  0  0  0  0  0  0  0  0  0
   -0.5090   18.4240   44.0410 N   0  0  0  0  0  4  0  0  0  0  0  0
    0.0870   17.2540   43.6040 C   0  0  0  0  0  0  0  0  0  0  0  0
    1.5350   21.0650   40.8580 C   0  0  0  0  0  0  0  0  0  0  0  0
    0.1390   12.5840   44.5930 C   0  0  0  0  0  0  0  0  0  0  0  0
   -1.1110   19.4480   43.8390 C   0  0  0  0  0  0  0  0  0  0  0  0
    3.7860   17.6640   37.0110 N   0  0  0  0  0  0  0  0  0  0  0  0
    0.0030   16.0170   44.4120 C   0  0  0  0  0  0  0  0  0  0  0  0
    2.5280   20.4580   40.1870 C   0  0  0  0  0  0  0  0  0  0  0  0
    1.4070   18.5050   40.4090 C   0  0  0  0  0  0  0  0  0  0  0  0
    3.2600   18.2150   38.5170 C   0  0  0  0  0  0  0  0  0  0  0  0
    0.7200   17.1550   42.5190 C   0  0  0  0  0  0  0  0  0  0  0  0
    3.4610   20.0920   37.0400 N   0  0  0  0  0  0  0  0  0  0  0  0
    2.4230   19.0440   39.8820 C   0  0  0  0  0  0  0  0  0  0  0  0
    3.6370   19.4140   35.8770 C   0  0  0  0  0  0  0  0  0  0  0  0
    4.0700   19.2700   38.1830 C   0  0  0  0  0  0  0  0  0  0  0  0
   -0.0460   21.2360   42.5650 C   0  0  0  0  0  0  0  0  0  0  0  0
    0.7490   20.3710   41.6510 C   0  0  0  0  0  0  0  0  0  0  0  0
   -0.3250   13.7250   44.3510 C   0  0  0  0  0  0  0  0  0  0  0  0
    0.3020   14.8790   43.9560 N   0  0  0  0  0  0  0  0  0  0  0  0
    3.7390   20.3040   34.7110 O   0  0  0  0  0  0  0  0  0  0  0  0
   -0.7950   20.7270   43.6730 N   0  0  0  0  0  4  0  0  0  0  0  0
    3.7370   18.2420   36.0300 N   0  0  0  0  0  0  0  0  0  0  0  0
    0.8340   18.8000   41.8070 C   0  0  0  0  0  0  0  0  0  0  0  0
   -1.1533   18.0102   44.7298 H   0  0  0  0  0  0  0  0  0  0  0  0
    0.3620   18.9223   43.8086 H   0  0  0  0  0  0  0  0  0  0  0  0
    1.0147   17.5318   44.1257 H   0  0  0  0  0  0  0  0  0  0  0  0
    1.3789   22.1478   40.7434 H   0  0  0  0  0  0  0  0  0  0  0  0
   -0.5340   11.7710   44.9030 H   0  0  0  0  0  0  0  0  0  0  0  0
    1.2186   12.3972   44.4951 H   0  0  0  0  0  0  0  0  0  0  0  0
   -1.6661   19.2191   42.9174 H   0  0  0  0  0  0  0  0  0  0  0  0
   -1.4182   19.5730   44.8878 H   0  0  0  0  0  0  0  0  0  0  0  0
    4.7822   17.4363   37.1402 H   0  0  0  0  0  0  0  0  0  0  0  0
    3.4137   21.0289   39.8714 H   0  0  0  0  0  0  0  0  0  0  0  0
    0.8800   17.7495   39.8077 H   0  0  0  0  0  0  0  0  0  0  0  0
    2.8106   17.2892   38.9056 H   0  0  0  0  0  0  0  0  0  0  0  0
    1.7280   16.7568   42.7074 H   0  0  0  0  0  0  0  0  0  0  0  0
    0.2031   16.4703   41.8305 H   0  0  0  0  0  0  0  0  0  0  0  0
    2.9961   21.0058   37.1384 H   0  0  0  0  0  0  0  0  0  0  0  0
    5.0501   18.8843   37.8659 H   0  0  0  0  0  0  0  0  0  0  0  0
    4.1777   19.9208   39.0632 H   0  0  0  0  0  0  0  0  0  0  0  0
   -0.7709   21.7630   41.9272 H   0  0  0  0  0  0  0  0  0  0  0  0
    0.7484   21.7969   43.0791 H   0  0  0  0  0  0  0  0  0  0  0  0
   -1.4142   13.8139   44.4765 H   0  0  0  0  0  0  0  0  0  0  0  0
    1.0526   14.8137   43.2537 H   0  0  0  0  0  0  0  0  0  0  0  0
   -0.2625   20.9928   44.5137 H   0  0  0  0  0  0  0  0  0  0  0  0
   -1.7226   21.1309   43.4800 H   0  0  0  0  0  0  0  0  0  0  0  0
    3.7855   17.6770   35.1702 H   0  0  0  0  0  0  0  0  0  0  0  0
  3  2  1  0
  3  8  1  0
  4 18  2  0
  6  2  1  0
  7 11  1  0
  8  1  2  0
  9  4  1  0
 10 24  2  0
 11 14  1  0
 12  3  1  0
 13 16  1  0
 14  9  2  0
 14 10  1  0
 15 23  1  0
 15 13  1  0
 16 11  1  0
 17 22  1  0
 18 24  1  0
 18 17  1  0
 19  5  2  3
 20 19  1  0
 20  8  1  0
 21 15  2  0
 22  6  1  0
 23  7  1  0
 24 12  1  0
  2 25  1  0
  2 26  1  0
  3 27  1  0
  4 28  1  0
  5 29  1  0
  5 30  1  0
  6 31  1  0
  6 32  1  0
  7 33  1  0
  9 34  1  0
 10 35  1  0
 11 36  1  0
 12 37  1  0
 12 38  1  0
 13 39  1  0
 16 40  1  0
 16 41  1  0
 17 42  1  0
 17 43  1  0
 19 44  1  0
 20 45  1  0
 22 46  1  0
 22 47  1  0
 23 48  1  0
M  CHG  2   2   1  22   1
M  END
>  <mol_id>  (70) 
2026-08-23-6tgu-s0-n100-prep-0071

>  <rmsd_to_ref>  (70) 


$$$$

     RDKit          3D

 39 40  0  0  0  0  0  0  0  0999 V2000
    2.5900   21.3710   36.1720 O   0  0  0  0  0  0  0  0  0  0  0  0
    0.5170   18.4310   42.5430 C   0  0  0  0  0  0  0  0  0  0  0  0
    2.5950   20.9740   37.2850 C   0  0  0  0  0  0  0  0  0  0  0  0
   -0.1520   19.2440   43.2850 N   0  0  0  0  0  0  0  0  0  0  0  0
    2.6540   15.3300   39.2320 O   0  0  0  0  0  0  0  0  0  0  0  0
    2.2620   19.4590   39.2180 C   0  0  0  0  0  0  0  0  0  0  0  0
    3.9670   16.2600   37.3640 C   0  0  0  0  0  0  0  0  0  0  0  0
    1.3900   16.3730   41.3780 N   0  0  0  0  0  0  0  0  0  0  0  0
    0.9260   19.1340   41.3450 C   0  0  0  0  0  0  0  0  0  0  0  0
   -0.7120   18.8780   44.5440 C   0  0  0  0  0  0  0  0  0  0  0  0
   -0.1980   20.4530   42.6400 C   0  0  0  0  0  0  0  0  0  0  0  0
    0.7580   16.9920   42.5510 C   0  0  0  0  0  0  0  0  0  0  0  0
    2.9320   19.0720   39.4590 C   0  0  0  0  0  0  0  0  0  0  0  0
    1.7200   21.9330   37.9560 O   0  0  0  0  0  1  0  0  0  0  0  0
    0.5550   20.4670   41.5130 C   0  0  0  0  0  0  0  0  0  0  0  0
    3.4390   17.2120   38.3960 N   0  0  0  0  0  0  0  0  0  0  0  0
    2.0600   17.1360   40.4450 C   0  0  0  0  0  0  0  0  0  0  0  0
    3.5000   18.4990   38.5230 C   0  0  0  0  0  0  0  0  0  0  0  0
    1.9960   18.4040   40.4160 C   0  0  0  0  0  0  0  0  0  0  0  0
    3.3800   20.3060   37.7230 C   0  0  0  0  0  0  0  0  0  0  0  0
    2.7140   16.5160   39.3620 C   0  0  0  0  0  0  0  0  0  0  0  0
    0.3700   15.9500   43.4760 N   0  0  0  0  0  0  0  0  0  0  0  0
    2.3170   20.2019   38.4086 H   0  0  0  0  0  0  0  0  0  0  0  0
    1.2976   19.2414   39.7003 H   0  0  0  0  0  0  0  0  0  0  0  0
    4.4421   15.4033   37.8644 H   0  0  0  0  0  0  0  0  0  0  0  0
    3.1376   15.9037   36.7354 H   0  0  0  0  0  0  0  0  0  0  0  0
    4.7085   16.7749   36.7354 H   0  0  0  0  0  0  0  0  0  0  0  0
   -0.0894   19.2849   45.3544 H   0  0  0  0  0  0  0  0  0  0  0  0
   -1.7307   19.2852   44.6245 H   0  0  0  0  0  0  0  0  0  0  0  0
   -0.7480   17.7815   44.6245 H   0  0  0  0  0  0  0  0  0  0  0  0
   -0.7807   21.3150   42.9971 H   0  0  0  0  0  0  0  0  0  0  0  0
    0.8129   21.3285   40.8795 H   0  0  0  0  0  0  0  0  0  0  0  0
    4.5668   18.7560   38.5996 H   0  0  0  0  0  0  0  0  0  0  0  0
    2.9422   18.8565   37.6449 H   0  0  0  0  0  0  0  0  0  0  0  0
    3.3281   20.3502   38.8209 H   0  0  0  0  0  0  0  0  0  0  0  0
    3.2094   19.2719   37.3892 H   0  0  0  0  0  0  0  0  0  0  0  0
    4.3735   20.6399   37.3892 H   0  0  0  0  0  0  0  0  0  0  0  0
    0.6461   14.9739   43.2975 H   0  0  0  0  0  0  0  0  0  0  0  0
   -0.1824   16.1841   44.3133 H   0  0  0  0  0  0  0  0  0  0  0  0
  1  3  2  0
  2 12  2  0
  2  4  1  0
  3 20  1  0
  3 14  1  0
  4 10  1  0
  5 21  2  0
  6 13  2  3
  7 16  1  0
  8 12  1  0
  9 15  1  0
  9  2  1  0
 11  4  1  0
 12 22  1  0
 13 19  1  0
 15 11  2  0
 16 18  1  0
 16 21  1  0
 17  8  2  0
 18 13  1  0
 19 17  1  0
 19  9  2  0
 21 17  1  0
  6 23  1  0
  6 24  1  0
  7 25  1  0
  7 26  1  0
  7 27  1  0
 10 28  1  0
 10 29  1  0
 10 30  1  0
 11 31  1  0
 15 32  1  0
 18 33  1  0
 18 34  1  0
 20 35  1  0
 20 36  1  0
 20 37  1  0
 22 38  1  0
 22 39  1  0
M  CHG  1  14  -1
M  END
>  <mol_id>  (71) 
2026-08-23-6tgu-s0-n100-prep-0072

>  <rmsd_to_ref>  (71) 


$$$$

     RDKit          3D

 23 25  0  0  0  0  0  0  0  0999 V2000
   -0.9000   20.2570   43.6260 N   0  0  0  0  0  0  0  0  0  0  0  0
    2.1170   17.4470   40.3400 S   0  0  0  0  0  0  0  0  0  0  0  0
    1.7130   19.0070   40.4950 C   0  0  0  0  0  0  0  0  0  0  0  0
   -0.5140   18.9200   43.5180 C   0  0  0  0  0  0  0  0  0  0  0  0
    3.2860   20.6220   36.6690 O   0  0  0  0  0  0  0  0  0  0  0  0
   -0.9730   18.0910   44.4270 N   0  0  0  0  0  0  0  0  0  0  0  0
    2.7560   19.0210   38.5580 C   0  0  0  0  0  0  0  0  0  0  0  0
    0.4450   18.5480   42.5200 N   0  0  0  0  0  0  0  0  0  0  0  0
    0.8820   19.4440   41.6340 C   0  0  0  0  0  0  0  0  0  0  0  0
    3.7500   17.2740   37.5980 C   0  0  0  0  0  0  0  0  0  0  0  0
    3.3190   19.4550   37.2620 C   0  0  0  0  0  0  0  0  0  0  0  0
    2.9660   17.7370   38.8330 C   0  0  0  0  0  0  0  0  0  0  0  0
    0.4980   20.8420   41.7660 C   0  0  0  0  0  0  0  0  0  0  0  0
    2.0140   21.0610   39.3880 F   0  0  0  0  0  0  0  0  0  0  0  0
   -0.3670   21.1590   42.7460 C   0  0  0  0  0  0  0  0  0  0  0  0
    2.1570   19.7570   39.5520 N   0  0  0  0  0  0  0  0  0  0  0  0
    3.8910   18.3020   36.6820 N   0  0  0  0  0  0  0  0  0  0  0  0
   -0.7170   17.0940   44.3909 H   0  0  0  0  0  0  0  0  0  0  0  0
   -1.5891   18.4377   45.1761 H   0  0  0  0  0  0  0  0  0  0  0  0
    0.7994   17.5815   42.4868 H   0  0  0  0  0  0  0  0  0  0  0  0
    4.1479   16.2580   37.4588 H   0  0  0  0  0  0  0  0  0  0  0  0
    0.9003   21.6104   41.0895 H   0  0  0  0  0  0  0  0  0  0  0  0
   -0.6656   22.2129   42.8466 H   0  0  0  0  0  0  0  0  0  0  0  0
  2  3  1  0
  3  9  2  3
  4  1  2  0
  4  6  1  0
  5 11  2  0
  7 12  2  0
  7 16  1  0
  8  4  1  0
  9 13  1  0
  9  8  1  0
 10 12  1  0
 11  7  1  0
 12  2  1  0
 13 15  2  0
 14 16  1  0
 15  1  1  0
 16  3  1  0
 17 11  1  0
 17 10  2  0
  6 18  1  0
  6 19  1  0
  8 20  1  0
 10 21  1  0
 13 22  1  0
 15 23  1  0
M  END
>  <mol_id>  (72) 
2026-08-23-6tgu-s0-n100-prep-0073

>  <rmsd_to_ref>  (72) 


$$$$

     RDKit          3D

 38 41  0  0  0  0  0  0  0  0999 V2000
    3.1990   15.5960   38.8850 C   0  0  0  0  0  0  0  0  0  0  0  0
   -0.3520   19.9140   43.1490 C   0  0  0  0  0  0  0  0  0  0  0  0
   -0.4890   16.3640   44.3150 C   0  0  0  0  0  0  0  0  0  0  0  0
    2.0510   16.1330   41.6810 O   0  0  0  0  0  0  0  0  0  0  0  0
    3.8740   21.2160   35.5590 O   0  0  0  0  0  0  0  0  0  0  0  0
    2.2860   18.9000   39.4830 C   0  0  0  0  0  0  0  0  0  0  0  0
   -0.8800   17.6570   44.2470 C   0  0  0  0  0  0  0  0  0  0  0  0
   -0.2520   18.5070   43.2780 C   0  0  0  0  0  0  0  0  0  0  0  0
    2.3450   17.6510   39.8660 N   0  0  0  0  0  0  0  0  0  0  0  0
    0.5120   15.8550   43.3670 C   0  0  0  0  0  0  0  0  0  0  0  0
    4.0100   17.6120   36.6550 C   0  0  0  0  0  0  0  0  0  0  0  0
    2.9780   20.2800   37.4020 C   0  0  0  0  0  0  0  0  0  0  0  0
    1.0240   19.2110   41.4850 N   0  0  0  0  0  0  0  0  0  0  0  0
    4.2340   18.8720   35.8520 C   0  0  0  0  0  0  0  0  0  0  0  0
    0.3910   20.3080   41.9790 C   0  0  0  0  0  0  0  0  0  0  0  0
    1.1420   16.6500   42.3860 C   0  0  0  0  0  0  0  0  0  0  0  0
    2.8560   19.0880   38.2560 C   0  0  0  0  0  0  0  0  0  0  0  0
    3.3410   17.8730   37.8460 C   0  0  0  0  0  0  0  0  0  0  0  0
    3.0670   17.0560   38.8410 C   0  0  0  0  0  0  0  0  0  0  0  0
    1.6640   19.8110   40.1690 N   0  0  0  0  0  0  0  0  0  0  0  0
    0.6740   18.0970   42.3360 C   0  0  0  0  0  0  0  0  0  0  0  0
    0.5510   21.5840   41.5810 N   0  0  0  0  0  0  0  0  0  0  0  0
    3.7340   20.2070   36.1800 C   0  0  0  0  0  0  0  0  0  0  0  0
   -0.9420   20.7850   43.8960 O   0  0  0  0  0  0  0  0  0  0  0  0
    3.2292   15.2620   39.9326 H   0  0  0  0  0  0  0  0  0  0  0  0
    2.3389   15.1346   38.3777 H   0  0  0  0  0  0  0  0  0  0  0  0
    4.1279   15.2964   38.3777 H   0  0  0  0  0  0  0  0  0  0  0  0
   -0.9184   15.6963   45.0765 H   0  0  0  0  0  0  0  0  0  0  0  0
   -1.6598   18.0465   44.9179 H   0  0  0  0  0  0  0  0  0  0  0  0
    1.3240   15.4416   43.9832 H   0  0  0  0  0  0  0  0  0  0  0  0
   -0.1077   15.1979   42.7392 H   0  0  0  0  0  0  0  0  0  0  0  0
    4.3361   16.6108   36.3366 H   0  0  0  0  0  0  0  0  0  0  0  0
    2.4934   21.2226   37.6965 H   0  0  0  0  0  0  0  0  0  0  0  0
    4.8302   18.7763   34.9326 H   0  0  0  0  0  0  0  0  0  0  0  0
    1.5961   20.8004   39.8907 H   0  0  0  0  0  0  0  0  0  0  0  0
    0.0121   22.3361   42.0336 H   0  0  0  0  0  0  0  0  0  0  0  0
    1.2124   21.8082   40.8239 H   0  0  0  0  0  0  0  0  0  0  0  0
   -0.9126   21.7448   43.6551 H   0  0  0  0  0  0  0  0  0  0  0  0
  2  8  1  0
  2 24  1  0
  4 16  2  0
  5 23  2  0
  6  9  2  0
  6 20  1  0
  7  3  2  0
  8  7  1  0
 10  3  1  0
 11 18  1  0
 12 17  2  0
 13 15  1  0
 13 21  1  0
 14 23  1  0
 14 11  2  0
 15  2  2  0
 16 10  1  0
 17  6  1  0
 18 17  1  0
 18 19  2  0
 19  1  1  0
 19  9  1  0
 20 13  1  0
 21 16  1  0
 21  8  2  0
 22 15  1  0
 23 12  1  0
  1 25  1  0
  1 26  1  0
  1 27  1  0
  3 28  1  0
  7 29  1  0
 10 30  1  0
 10 31  1  0
 11 32  1  0
 12 33  1  0
 14 34  1  0
 20 35  1  0
 22 36  1  0
 22 37  1  0
 24 38  1  0
M  END
>  <mol_id>  (73) 
2026-08-23-6tgu-s0-n100-prep-0074

>  <rmsd_to_ref>  (73) 


$$$$

     RDKit          3D

 35 38  0  0  0  0  0  0  0  0999 V2000
    0.1350   18.6350   42.8070 C   0  0  0  0  0  0  0  0  0  0  0  0
    1.0600   16.4310   42.1750 C   0  0  0  0  0  0  0  0  0  0  0  0
    4.1770   18.0970   36.0820 O   0  0  0  0  0  1  0  0  0  0  0  0
    3.7110   19.4530   36.3880 N   0  0  0  0  0  4  0  0  0  0  0  0
    3.0510   19.7600   37.5620 C   0  0  0  0  0  0  0  0  0  0  0  0
   -0.4960   19.4830   43.6720 N   0  0  0  0  0  0  0  0  0  0  0  0
   -0.0580   14.1080   44.1500 C   0  0  0  0  0  0  0  0  0  0  0  0
    2.5520   21.0600   37.7220 C   0  0  0  0  0  0  0  0  0  0  0  0
   -1.0110   18.9330   44.8100 C   0  0  0  0  0  0  0  0  0  0  0  0
    1.7470   16.9810   41.1240 C   0  0  0  0  0  0  0  0  0  0  0  0
    1.6240   20.4260   39.8930 C   0  0  0  0  0  0  0  0  0  0  0  0
    0.8460   20.5000   41.0720 C   0  0  0  0  0  0  0  0  0  0  0  0
    4.1270   20.5230   35.5860 O   0  0  0  0  0  0  0  0  0  0  0  0
    1.9210   21.3950   38.9670 C   0  0  0  0  0  0  0  0  0  0  0  0
    0.3290   17.2220   43.0720 C   0  0  0  0  0  0  0  0  0  0  0  0
   -0.9780   17.5640   45.1650 C   0  0  0  0  0  0  0  0  0  0  0  0
    2.8480   18.7640   38.5400 C   0  0  0  0  0  0  0  0  0  0  0  0
    1.5900   18.3380   40.8040 C   0  0  0  0  0  0  0  0  0  0  0  0
    2.0580   19.0990   39.7160 C   0  0  0  0  0  0  0  0  0  0  0  0
    0.8160   19.2220   41.6510 C   0  0  0  0  0  0  0  0  0  0  0  0
   -0.2610   16.6670   44.2500 C   0  0  0  0  0  0  0  0  0  0  0  0
    3.2070   17.5190   38.4600 O   0  0  0  0  0  0  0  0  0  0  0  0
   -0.1790   15.3520   44.6650 O   0  0  0  0  0  0  0  0  0  0  0  0
    1.0830   15.3406   42.3181 H   0  0  0  0  0  0  0  0  0  0  0  0
    0.0131   13.3773   44.9692 H   0  0  0  0  0  0  0  0  0  0  0  0
   -0.9382   13.8802   43.5309 H   0  0  0  0  0  0  0  0  0  0  0  0
    0.8496   14.0541   43.5309 H   0  0  0  0  0  0  0  0  0  0  0  0
    2.6415   21.8030   36.9158 H   0  0  0  0  0  0  0  0  0  0  0  0
   -1.4979   19.6194   45.5184 H   0  0  0  0  0  0  0  0  0  0  0  0
    2.4260   16.3541   40.5274 H   0  0  0  0  0  0  0  0  0  0  0  0
    0.3517   21.4004   41.4656 H   0  0  0  0  0  0  0  0  0  0  0  0
    1.6715   22.4445   39.1825 H   0  0  0  0  0  0  0  0  0  0  0  0
   -1.4640   17.1911   46.0786 H   0  0  0  0  0  0  0  0  0  0  0  0
    1.8787   18.5138   38.0840 H   0  0  0  0  0  0  0  0  0  0  0  0
    3.3142   17.1473   39.3713 H   0  0  0  0  0  0  0  0  0  0  0  0
  1 15  2  0
  1  6  1  0
  2 15  1  0
  3  4  1  0
  4  5  1  0
  5  8  2  0
  5 17  1  0
  6  9  2  0
  7 23  1  0
  8 14  1  0
  9 16  1  0
 10  2  2  0
 11 12  1  0
 12 20  2  0
 13  4  2  0
 14 11  2  0
 15 21  1  0
 17 22  1  0
 17 19  1  0
 18 10  1  0
 18 20  1  0
 19 11  1  0
 19 18  2  0
 20  1  1  0
 21 23  1  0
 21 16  2  0
  2 24  1  0
  7 25  1  0
  7 26  1  0
  7 27  1  0
  8 28  1  0
  9 29  1  0
 10 30  1  0
 12 31  1  0
 14 32  1  0
 16 33  1  0
 17 34  1  0
 22 35  1  0
M  CHG  2   3  -1   4   1
M  END
>  <mol_id>  (74) 
2026-08-23-6tgu-s0-n100-prep-0075

>  <rmsd_to_ref>  (74) 


$$$$

     RDKit          3D

 47 50  0  0  0  0  0  0  0  0999 V2000
    1.2770   18.8980   41.4200 O   0  0  0  0  0  0  0  0  0  0  0  0
    3.4230   21.0110   35.2250 O   0  0  0  0  0  0  0  0  0  0  0  0
   -0.5540   14.9880   44.8300 C   0  0  0  0  0  0  0  0  0  0  0  0
    2.9350   19.9240   37.2870 C   0  0  0  0  0  0  0  0  0  0  0  0
   -0.0680   16.1130   44.1000 C   0  0  0  0  0  0  0  0  0  0  0  0
    4.6020   14.4650   37.9800 F   0  0  0  0  0  0  0  0  0  0  0  0
    0.8460   16.0950   43.1440 N   0  0  0  0  0  0  0  0  0  0  0  0
    0.7930   21.0880   41.6680 C   0  0  0  0  0  0  0  0  0  0  0  0
    2.8000   21.0890   36.4240 C   0  0  0  0  0  0  0  0  0  0  0  0
   -0.3980   17.5190   44.4950 C   0  0  0  0  0  0  0  0  0  0  0  0
    2.8370   18.0980   38.7050 C   0  0  0  0  0  0  0  0  0  0  0  0
   -0.2120   13.7530   44.3620 C   0  0  0  0  0  0  0  0  0  0  0  0
    3.1790   15.7920   39.3730 C   0  0  0  0  0  0  0  0  0  0  0  0
    0.4510   19.1100   42.5140 C   0  0  0  0  0  0  0  0  0  0  0  0
    1.3760   20.1260   40.7900 C   0  0  0  0  0  0  0  0  0  0  0  0
    2.6200   17.0980   39.6260 C   0  0  0  0  0  0  0  0  0  0  0  0
    2.4960   19.5600   38.5630 C   0  0  0  0  0  0  0  0  0  0  0  0
    1.4670   21.5850   39.1540 O   0  0  0  0  0  0  0  0  0  0  0  0
    2.1830   22.0860   36.6160 O   0  0  0  0  0  1  0  0  0  0  0  0
   -0.0270   18.3320   43.5030 N   0  0  0  0  0  0  0  0  0  0  0  0
    2.7050   14.1830   41.5680 Cl  0  0  0  0  0  0  0  0  0  0  0  0
    3.5630   17.7280   37.4860 C   0  0  0  0  0  0  0  0  0  0  0  0
    0.6270   13.6560   43.1890 C   0  0  0  0  0  0  0  0  0  0  0  0
    1.2900   14.7560   42.5830 C   0  0  0  0  0  0  0  0  0  0  0  0
    1.7680   20.4400   39.4810 C   0  0  0  0  0  0  0  0  0  0  0  0
    3.8950   15.5440   38.2240 C   0  0  0  0  0  0  0  0  0  0  0  0
    0.1040   20.3500   42.6650 C   0  0  0  0  0  0  0  0  0  0  0  0
    4.0150   16.4960   37.1680 C   0  0  0  0  0  0  0  0  0  0  0  0
   -1.3870   15.1300   46.0530 C   0  0  0  0  0  0  0  0  0  0  0  0
    3.6620   18.8730   36.7610 N   0  0  0  0  0  0  0  0  0  0  0  0
   -0.8900   17.8610   45.5210 O   0  0  0  0  0  0  0  0  0  0  0  0
    0.0912   21.7310   41.1167 H   0  0  0  0  0  0  0  0  0  0  0  0
    1.5590   21.7412   42.1114 H   0  0  0  0  0  0  0  0  0  0  0  0
   -0.5693   12.8449   44.8696 H   0  0  0  0  0  0  0  0  0  0  0  0
    3.0313   14.9857   40.1065 H   0  0  0  0  0  0  0  0  0  0  0  0
    1.3339   19.2799   43.1477 H   0  0  0  0  0  0  0  0  0  0  0  0
    2.2835   20.0778   40.1702 H   0  0  0  0  0  0  0  0  0  0  0  0
    2.0326   17.2906   40.5359 H   0  0  0  0  0  0  0  0  0  0  0  0
   -0.9785   18.7130   43.4015 H   0  0  0  0  0  0  0  0  0  0  0  0
    2.6090   17.5074   36.9848 H   0  0  0  0  0  0  0  0  0  0  0  0
    0.7610   12.6630   42.7350 H   0  0  0  0  0  0  0  0  0  0  0  0
    0.3904   20.7051   43.6659 H   0  0  0  0  0  0  0  0  0  0  0  0
   -0.9849   20.4720   42.5674 H   0  0  0  0  0  0  0  0  0  0  0  0
    4.4378   16.2485   36.1831 H   0  0  0  0  0  0  0  0  0  0  0  0
   -0.7514   15.0216   46.9442 H   0  0  0  0  0  0  0  0  0  0  0  0
   -1.8621   16.1221   46.0599 H   0  0  0  0  0  0  0  0  0  0  0  0
   -2.1639   14.3513   46.0599 H   0  0  0  0  0  0  0  0  0  0  0  0
  1 14  1  0
  2  9  2  0
  3 29  1  0
  4 17  1  0
  5 10  1  0
  5  3  2  0
  6 26  1  0
  7  5  1  0
  8 27  1  0
  9 19  1  0
  9  4  1  0
 10 31  2  0
 11 16  1  0
 12  3  1  0
 13 16  2  0
 14 27  1  0
 14 20  1  0
 15 25  1  0
 15  1  1  0
 15  8  1  0
 17 11  2  0
 17 25  1  0
 18 25  2  0
 20 10  1  0
 21 24  1  0
 22 28  1  0
 22 11  1  0
 23 12  2  0
 24  7  2  0
 24 23  1  0
 26 13  1  0
 28 26  2  0
 30  4  2  0
 30 22  1  0
  8 32  1  0
  8 33  1  0
 12 34  1  0
 13 35  1  0
 14 36  1  0
 15 37  1  0
 16 38  1  0
 20 39  1  0
 22 40  1  0
 23 41  1  0
 27 42  1  0
 27 43  1  0
 28 44  1  0
 29 45  1  0
 29 46  1  0
 29 47  1  0
M  CHG  1  19  -1
M  END
>  <mol_id>  (75) 
2026-08-23-6tgu-s0-n100-prep-0076

>  <rmsd_to_ref>  (75) 


$$$$

     RDKit          3D

 38 41  0  0  0  0  0  0  0  0999 V2000
    2.3140   21.0880   37.9610 C   0  0  0  0  0  0  0  0  0  0  0  0
    1.0630   18.2550   41.5910 C   0  0  0  0  0  0  0  0  0  0  0  0
    2.2550   12.6340   42.2580 O   0  0  0  0  0  0  0  0  0  0  0  0
    1.8800   20.5230   39.0970 C   0  0  0  0  0  0  0  0  0  0  0  0
    0.1190   18.1990   44.6690 C   0  0  0  0  0  0  0  0  0  0  0  0
    3.4290   19.0240   37.2620 C   0  0  0  0  0  0  0  0  0  0  0  0
    3.4710   20.9660   35.8610 C   0  0  0  0  0  0  0  0  0  0  0  0
    2.8560   14.2530   40.0490 O   0  0  0  0  0  0  0  0  0  0  0  0
    2.1470   14.6190   41.0360 C   0  0  0  0  0  0  0  0  0  0  0  0
    1.6260   13.6330   42.0660 C   0  0  0  0  0  0  0  0  0  0  0  0
    0.3990   19.3720   42.2530 C   0  0  0  0  0  0  0  0  0  0  0  0
   -1.0070   20.3330   43.8380 N   0  0  0  0  0  0  0  0  0  0  0  0
   -0.1990   19.2410   43.6400 C   0  0  0  0  0  0  0  0  0  0  0  0
    2.9140   18.4080   38.4090 C   0  0  0  0  0  0  0  0  0  0  0  0
   -0.9900   21.1090   42.7220 C   0  0  0  0  0  0  0  0  0  0  0  0
    2.1780   19.1120   39.3620 C   0  0  0  0  0  0  0  0  0  0  0  0
   -0.0960   20.5690   41.8280 C   0  0  0  0  0  0  0  0  0  0  0  0
    3.8490   21.2990   34.9250 N   0  0  0  0  0  0  0  0  0  0  0  0
    2.3340   17.0150   40.0290 C   0  0  0  0  0  0  0  0  0  0  0  0
    2.9810   16.9920   38.8700 N   0  0  0  0  0  0  0  0  0  0  0  0
    0.3280   13.8380   42.7440 C   0  0  0  0  0  0  0  0  0  0  0  0
    1.8120   18.3330   40.3890 C   0  0  0  0  0  0  0  0  0  0  0  0
    1.1480   16.8560   42.0200 C   0  0  0  0  0  0  0  0  0  0  0  0
    3.1230   20.4070   37.0300 C   0  0  0  0  0  0  0  0  0  0  0  0
    1.8760   16.0840   41.0890 C   0  0  0  0  0  0  0  0  0  0  0  0
    2.0260   22.1278   37.7468 H   0  0  0  0  0  0  0  0  0  0  0  0
    1.3045   21.1138   39.8249 H   0  0  0  0  0  0  0  0  0  0  0  0
   -0.0111   18.6252   45.6747 H   0  0  0  0  0  0  0  0  0  0  0  0
   -0.5583   17.3413   44.5438 H   0  0  0  0  0  0  0  0  0  0  0  0
    1.1598   17.8657   44.5438 H   0  0  0  0  0  0  0  0  0  0  0  0
    4.0545   18.4604   36.5541 H   0  0  0  0  0  0  0  0  0  0  0  0
    0.6532   19.7955   44.0598 H   0  0  0  0  0  0  0  0  0  0  0  0
   -1.5906   22.0164   42.5613 H   0  0  0  0  0  0  0  0  0  0  0  0
    0.1873   21.0477   40.8790 H   0  0  0  0  0  0  0  0  0  0  0  0
    0.4758   13.8147   43.8338 H   0  0  0  0  0  0  0  0  0  0  0  0
   -0.0886   14.8131   42.4513 H   0  0  0  0  0  0  0  0  0  0  0  0
   -0.3688   13.0388   42.4513 H   0  0  0  0  0  0  0  0  0  0  0  0
    0.7034   16.4601   42.9450 H   0  0  0  0  0  0  0  0  0  0  0  0
  1  4  2  0
  2 23  1  0
  2 11  1  0
  4 16  1  0
  6 14  1  0
  7 24  1  0
  8  9  2  0
  9 25  1  0
  9 10  1  0
 10  3  2  0
 10 21  1  0
 11 13  1  0
 13 12  1  0
 13  5  1  0
 14 20  1  0
 14 16  2  0
 15 12  2  0
 16 22  1  0
 17 11  2  0
 17 15  1  0
 18  7  3  0
 19 22  1  0
 19 25  1  0
 20 19  2  0
 22  2  2  0
 24  6  2  0
 24  1  1  0
 25 23  2  0
  1 26  1  0
  4 27  1  0
  5 28  1  0
  5 29  1  0
  5 30  1  0
  6 31  1  0
 13 32  1  0
 15 33  1  0
 17 34  1  0
 21 35  1  0
 21 36  1  0
 21 37  1  0
 23 38  1  0
M  END
>  <mol_id>  (76) 
2026-08-23-6tgu-s0-n100-prep-0077

>  <rmsd_to_ref>  (76) 


$$$$

     RDKit          3D

 27 28  0  0  0  0  0  0  0  0999 V2000
    3.0370   20.7620   36.7470 C   0  0  0  0  0  0  0  0  0  0  0  0
    2.8490   20.0590   37.8760 C   0  0  0  0  0  0  0  0  0  0  0  0
    2.1030   19.2520   40.1100 C   0  0  0  0  0  0  0  0  0  0  0  0
    0.5370   17.9810   42.9110 C   0  0  0  0  0  0  0  0  0  0  0  0
    2.8280   15.9030   38.7870 C   0  0  0  0  0  0  0  0  0  0  0  0
   -0.8610   20.3360   43.3740 C   0  0  0  0  0  0  0  0  0  0  0  0
    1.9330   19.1340   41.3830 N   0  0  0  0  0  0  0  0  0  0  0  0
    3.1020   18.6600   38.1040 C   0  0  0  0  0  0  0  0  0  0  0  0
    4.0370   20.5910   36.0210 O   0  0  0  0  0  0  0  0  0  0  0  0
    2.1100   21.6910   36.4970 O   0  0  0  0  0  1  0  0  0  0  0  0
    2.6590   18.1950   39.3370 C   0  0  0  0  0  0  0  0  0  0  0  0
    0.0760   20.2800   42.3830 C   0  0  0  0  0  0  0  0  0  0  0  0
   -0.4090   18.0070   43.9530 C   0  0  0  0  0  0  0  0  0  0  0  0
    1.9590   20.7060   39.2520 S   0  0  0  0  0  0  0  0  0  0  0  0
    2.7040   16.9540   39.7970 O   0  0  0  0  0  0  0  0  0  0  0  0
   -1.1170   19.2370   44.1880 C   0  0  0  0  0  0  0  0  0  0  0  0
    0.8950   19.1360   42.2380 C   0  0  0  0  0  0  0  0  0  0  0  0
    1.0003   17.0248   42.6264 H   0  0  0  0  0  0  0  0  0  0  0  0
    2.9430   14.9285   39.2841 H   0  0  0  0  0  0  0  0  0  0  0  0
    1.9252   15.8899   38.1587 H   0  0  0  0  0  0  0  0  0  0  0  0
    3.7091   16.1004   38.1587 H   0  0  0  0  0  0  0  0  0  0  0  0
   -1.4243   21.2675   43.5321 H   0  0  0  0  0  0  0  0  0  0  0  0
    2.8287   19.0039   41.8746 H   0  0  0  0  0  0  0  0  0  0  0  0
    3.6024   18.0151   37.3666 H   0  0  0  0  0  0  0  0  0  0  0  0
    0.1948   21.1289   41.6936 H   0  0  0  0  0  0  0  0  0  0  0  0
   -0.6008   17.1153   44.5679 H   0  0  0  0  0  0  0  0  0  0  0  0
   -1.8529   19.3079   45.0025 H   0  0  0  0  0  0  0  0  0  0  0  0
  1  2  1  0
  2  8  2  0
  2 14  1  0
  3  7  1  0
  4 13  2  0
  5 15  1  0
  6 16  2  0
  7 17  1  0
  8 11  1  0
  9  1  2  0
 10  1  1  0
 11 15  1  0
 11  3  2  0
 12  6  1  0
 13 16  1  0
 14  3  1  0
 17 12  2  0
 17  4  1  0
  4 18  1  0
  5 19  1  0
  5 20  1  0
  5 21  1  0
  6 22  1  0
  7 23  1  0
  8 24  1  0
 12 25  1  0
 13 26  1  0
 16 27  1  0
M  CHG  1  10  -1
M  END
>  <mol_id>  (77) 
2026-08-23-6tgu-s0-n100-prep-0078

>  <rmsd_to_ref>  (77) 


$$$$

     RDKit          3D

 30 31  0  0  0  0  0  0  0  0999 V2000
    2.5860   18.6690   39.0340 C   0  0  0  0  0  0  0  0  0  0  0  0
    0.3800   19.8290   42.2130 C   0  0  0  0  0  0  0  0  0  0  0  0
   -0.8150   20.2250   44.2520 O   0  0  0  0  0  0  0  0  0  0  0  0
   -0.4090   17.9310   43.6870 C   0  0  0  0  0  0  0  0  0  0  0  0
   -1.0680   17.5830   45.0130 C   0  0  0  0  0  0  0  0  0  0  0  0
    2.0070   21.1190   39.9530 S   0  0  0  0  0  0  0  0  0  0  0  0
    2.7880   17.2990   39.1720 C   0  0  0  0  0  0  0  0  0  0  0  0
    1.7960   19.5530   40.0290 C   0  0  0  0  0  0  0  0  0  0  0  0
    3.7950   17.8910   37.3600 N   0  0  0  0  0  0  0  0  0  0  0  0
   -0.6960   17.0700   46.0710 C   0  0  0  0  0  0  0  0  0  0  0  0
    3.1810   20.1840   36.9650 C   0  0  0  0  0  0  0  0  0  0  0  0
   -0.0790   17.0860   42.7220 C   0  0  0  0  0  0  0  0  0  0  0  0
    3.5430   16.8780   38.1800 O   0  0  0  0  0  0  0  0  0  0  0  0
    1.0540   18.8840   41.2480 C   0  0  0  0  0  0  0  0  0  0  0  0
    4.1350   20.3250   36.1240 O   0  0  0  0  0  0  0  0  0  0  0  0
   -0.3210   19.4010   43.4930 C   0  0  0  0  0  0  0  0  0  0  0  0
    0.9030   17.5050   41.6740 C   0  0  0  0  0  0  0  0  0  0  0  0
    2.3450   21.0760   36.9280 O   0  0  0  0  0  1  0  0  0  0  0  0
    0.3430   21.1460   41.9290 O   0  0  0  0  0  0  0  0  0  0  0  0
    3.1230   18.9900   37.7910 C   0  0  0  0  0  0  0  0  0  0  0  0
    0.5823   17.7960   44.1442 H   0  0  0  0  0  0  0  0  0  0  0  0
   -2.1338   17.8545   45.0331 H   0  0  0  0  0  0  0  0  0  0  0  0
    2.3826   16.6706   39.9787 H   0  0  0  0  0  0  0  0  0  0  0  0
   -1.4098   16.9329   46.8966 H   0  0  0  0  0  0  0  0  0  0  0  0
    0.3496   16.7495   46.1891 H   0  0  0  0  0  0  0  0  0  0  0  0
    0.3366   16.1917   43.2093 H   0  0  0  0  0  0  0  0  0  0  0  0
   -1.0160   16.9606   42.1597 H   0  0  0  0  0  0  0  0  0  0  0  0
    0.6461   16.9334   40.7700 H   0  0  0  0  0  0  0  0  0  0  0  0
    1.8621   17.3213   42.1803 H   0  0  0  0  0  0  0  0  0  0  0  0
    0.7809   21.4882   41.1097 H   0  0  0  0  0  0  0  0  0  0  0  0
  1  7  2  0
  1  8  1  0
  2 16  1  0
  4  5  1  0
  5 10  2  3
  6  8  2  0
  8 14  1  0
  9 20  2  0
  9 13  1  0
 11 20  1  0
 12  4  1  0
 13  7  1  0
 14 17  1  0
 14  2  2  0
 15 11  2  0
 16  4  1  0
 16  3  2  0
 17 12  1  0
 18 11  1  0
 19  2  1  0
 20  1  1  0
  4 21  1  0
  5 22  1  0
  7 23  1  0
 10 24  1  0
 10 25  1  0
 12 26  1  0
 12 27  1  0
 17 28  1  0
 17 29  1  0
 19 30  1  0
M  CHG  1  18  -1
M  END
>  <mol_id>  (78) 
2026-08-23-6tgu-s0-n100-prep-0079

>  <rmsd_to_ref>  (78) 


$$$$

     RDKit          3D

 26 27  0  0  0  0  0  0  0  0999 V2000
    4.0660   19.9220   36.2580 O   0  0  0  0  0  0  0  0  0  0  0  0
    0.5240   19.3160   42.3650 C   0  0  0  0  0  0  0  0  0  0  0  0
    2.3700   19.5150   39.3390 C   0  0  0  0  0  0  0  0  0  0  0  0
    3.0640   18.4560   38.2200 S   0  0  0  0  0  0  0  0  0  0  0  0
    2.1560   19.0070   40.6120 C   0  0  0  0  0  0  0  0  0  0  0  0
   -0.1210   17.8850   44.1440 C   0  0  0  0  0  0  0  0  0  0  0  0
    0.6330   18.0990   43.0020 C   0  0  0  0  0  0  0  0  0  0  0  0
    1.2750   19.7370   41.2860 N   0  0  0  0  0  0  0  0  0  0  0  0
    1.9670   20.7470   38.8210 C   0  0  0  0  0  0  0  0  0  0  0  0
    3.2970   19.8920   37.1860 C   0  0  0  0  0  0  0  0  0  0  0  0
   -0.9870   18.8990   44.6020 C   0  0  0  0  0  0  0  0  0  0  0  0
   -0.4400   20.3060   42.8170 C   0  0  0  0  0  0  0  0  0  0  0  0
    2.4320   20.9260   37.5860 C   0  0  0  0  0  0  0  0  0  0  0  0
   -1.1350   20.0620   43.8760 N   0  0  0  0  0  0  0  0  0  0  0  0
    3.3724   19.8518   39.6419 H   0  0  0  0  0  0  0  0  0  0  0  0
    1.7769   17.9779   40.5270 H   0  0  0  0  0  0  0  0  0  0  0  0
    3.1111   19.0289   41.1572 H   0  0  0  0  0  0  0  0  0  0  0  0
   -0.0448   16.9324   44.6888 H   0  0  0  0  0  0  0  0  0  0  0  0
    1.3020   17.3171   42.6133 H   0  0  0  0  0  0  0  0  0  0  0  0
    1.1392   20.7092   40.9742 H   0  0  0  0  0  0  0  0  0  0  0  0
    0.8679   20.7848   38.7994 H   0  0  0  0  0  0  0  0  0  0  0  0
    2.3702   21.5435   39.4636 H   0  0  0  0  0  0  0  0  0  0  0  0
   -1.5454   18.7622   45.5398 H   0  0  0  0  0  0  0  0  0  0  0  0
   -0.5745   21.2478   42.2649 H   0  0  0  0  0  0  0  0  0  0  0  0
    2.9795   21.8793   37.5490 H   0  0  0  0  0  0  0  0  0  0  0  0
    1.5721   20.9294   36.9000 H   0  0  0  0  0  0  0  0  0  0  0  0
  1 10  2  0
  2 12  1  0
  2  7  2  0
  3  5  1  0
  4  3  1  0
  5  8  1  0
  6 11  2  0
  7  6  1  0
  8  2  1  0
  9  3  1  0
 10 13  1  0
 10  4  1  0
 12 14  2  0
 13  9  1  0
 14 11  1  0
  3 15  1  0
  5 16  1  0
  5 17  1  0
  6 18  1  0
  7 19  1  0
  8 20  1  0
  9 21  1  0
  9 22  1  0
 11 23  1  0
 12 24  1  0
 13 25  1  0
 13 26  1  0
M  END
>  <mol_id>  (79) 
2026-08-23-6tgu-s0-n100-prep-0080

>  <rmsd_to_ref>  (79) 


$$$$

     RDKit          3D

 29 30  0  0  0  0  0  0  0  0999 V2000
    3.5000   19.1630   37.0860 C   0  0  0  0  0  0  0  0  0  0  0  0
    0.2730   18.3770   42.9240 C   0  0  0  0  0  0  0  0  0  0  0  0
   -0.8810   20.6880   44.0030 N   0  0  0  0  0  0  0  0  0  0  0  0
    1.0900   20.8630   40.4450 C   0  0  0  0  0  0  0  0  0  0  0  0
   -0.3460   18.3770   44.2330 C   0  0  0  0  0  0  0  0  0  0  0  0
    2.4850   18.2750   39.4850 C   0  0  0  0  0  0  0  0  0  0  0  0
    2.9170   16.8540   39.3120 C   0  0  0  0  0  0  0  0  0  0  0  0
    2.7760   16.0610   40.2620 O   0  0  0  0  0  1  0  0  0  0  0  0
    1.6470   18.5520   40.5880 C   0  0  0  0  0  0  0  0  0  0  0  0
   -0.8510   19.5370   44.7320 C   0  0  0  0  0  0  0  0  0  0  0  0
    0.3180   19.5240   42.2800 C   0  0  0  0  0  0  0  0  0  0  0  0
    1.0250   19.6200   41.0760 C   0  0  0  0  0  0  0  0  0  0  0  0
    1.6600   21.2580   39.3540 C   0  0  0  0  0  0  0  0  0  0  0  0
   -0.4320   17.3460   45.0000 O   0  0  0  0  0  0  0  0  0  0  0  0
    3.6480   20.2170   36.4330 O   0  0  0  0  0  0  0  0  0  0  0  0
    3.8850   18.0040   36.7080 O   0  0  0  0  0  1  0  0  0  0  0  0
    2.3520   20.5520   38.4750 C   0  0  0  0  0  0  0  0  0  0  0  0
    3.3080   16.4070   38.2120 O   0  0  0  0  0  0  0  0  0  0  0  0
   -0.2730   20.6610   42.8040 C   0  0  0  0  0  0  0  0  0  0  0  0
    2.7690   19.2220   38.4160 C   0  0  0  0  0  0  0  0  0  0  0  0
    0.6881   17.4572   42.4863 H   0  0  0  0  0  0  0  0  0  0  0  0
    0.5525   21.6605   40.9789 H   0  0  0  0  0  0  0  0  0  0  0  0
    1.4624   17.6555   41.1981 H   0  0  0  0  0  0  0  0  0  0  0  0
   -1.2483   19.5465   45.7577 H   0  0  0  0  0  0  0  0  0  0  0  0
    0.1305   19.3680   40.4874 H   0  0  0  0  0  0  0  0  0  0  0  0
    1.5551   22.3288   39.1250 H   0  0  0  0  0  0  0  0  0  0  0  0
   -0.8706   17.4221   45.8843 H   0  0  0  0  0  0  0  0  0  0  0  0
    2.6669   21.1414   37.6012 H   0  0  0  0  0  0  0  0  0  0  0  0
   -0.2438   21.5869   42.2109 H   0  0  0  0  0  0  0  0  0  0  0  0
  1 20  1  0
  2  5  2  0
  3 10  2  0
  4 12  1  0
  5 10  1  0
  5 14  1  0
  6  9  2  0
  7  6  1  0
  7  8  1  0
  9 12  1  0
 11 19  2  0
 11  2  1  0
 12 11  1  0
 13  4  2  0
 15  1  2  0
 16  1  1  0
 17 13  1  0
 18  7  2  0
 19  3  1  0
 20 17  2  0
 20  6  1  0
  2 21  1  0
  4 22  1  0
  9 23  1  0
 10 24  1  0
 12 25  1  0
 13 26  1  0
 14 27  1  0
 17 28  1  0
 19 29  1  0
M  CHG  2   8  -1  16  -1
M  END
>  <mol_id>  (80) 
2026-08-23-6tgu-s0-n100-prep-0081

>  <rmsd_to_ref>  (80) 


$$$$

     RDKit          3D

 45 49  0  0  0  0  0  0  0  0999 V2000
    2.3740   14.1820   41.5610 C   0  0  0  0  0  0  0  0  0  0  0  0
    2.4550   19.4740   38.4170 C   0  0  0  0  0  0  0  0  0  0  0  0
   -1.0660   19.7410   43.8850 C   0  0  0  0  0  0  0  0  0  0  0  0
   -0.6290   18.4280   43.9540 C   0  0  0  0  0  0  0  0  0  0  0  0
    1.8640   17.7270   40.1370 C   0  0  0  0  0  0  0  0  0  0  0  0
    0.5180   18.8440   41.9850 C   0  0  0  0  0  0  0  0  0  0  0  0
   -1.0840   17.5560   45.2200 C   0  0  0  0  0  0  0  0  0  0  0  0
    1.2090   18.3070   40.9710 N   0  0  0  0  0  0  0  0  0  0  0  0
    2.0050   15.4180   41.4170 C   0  0  0  0  0  0  0  0  0  0  0  0
    0.1220   17.9650   42.9900 C   0  0  0  0  0  0  0  0  0  0  0  0
    2.4810   18.1730   38.8320 C   0  0  0  0  0  0  0  0  0  0  0  0
    3.1510   13.8740   40.5670 C   0  0  0  0  0  0  0  0  0  0  0  0
    0.2990   20.1590   42.0170 C   0  0  0  0  0  0  0  0  0  0  0  0
    3.4220   18.2600   36.7960 O   0  0  0  0  0  0  0  0  0  0  0  0
    1.8950   13.3520   42.6030 F   0  0  0  0  0  0  0  0  0  0  0  0
   -0.6900   22.0340   43.2490 O   0  0  0  0  0  0  0  0  0  0  0  0
   -0.4350   20.6610   43.0860 C   0  0  0  0  0  0  0  0  0  0  0  0
    3.0690   17.4310   37.8000 N   0  0  0  0  0  0  0  0  0  0  0  0
    2.0140   20.6640   38.9880 C   0  0  0  0  0  0  0  0  0  0  0  0
    4.1250   12.8480   40.3640 F   0  0  0  0  0  0  0  0  0  0  0  0
    2.9280   21.9690   37.1320 C   0  0  0  0  0  0  0  0  0  0  0  0
    3.1540   14.7030   39.5250 C   0  0  0  0  0  0  0  0  0  0  0  0
    3.3180   20.8380   36.4710 C   0  0  0  0  0  0  0  0  0  0  0  0
    2.5420   15.5540   40.1200 C   0  0  0  0  0  0  0  0  0  0  0  0
    2.3400   21.9620   38.4500 C   0  0  0  0  0  0  0  0  0  0  0  0
    2.0200   16.4480   40.4610 C   0  0  0  0  0  0  0  0  0  0  0  0
    3.1060   19.5670   37.1510 C   0  0  0  0  0  0  0  0  0  0  0  0
    1.5405   13.8585   40.9202 H   0  0  0  0  0  0  0  0  0  0  0  0
   -1.9357   20.0520   44.4824 H   0  0  0  0  0  0  0  0  0  0  0  0
    0.9439   17.4759   39.5890 H   0  0  0  0  0  0  0  0  0  0  0  0
   -0.8092   18.0826   46.1458 H   0  0  0  0  0  0  0  0  0  0  0  0
   -2.1738   17.4090   45.1914 H   0  0  0  0  0  0  0  0  0  0  0  0
   -0.5812   16.5780   45.1914 H   0  0  0  0  0  0  0  0  0  0  0  0
    0.9582   19.0684   40.3242 H   0  0  0  0  0  0  0  0  0  0  0  0
    1.0499   15.0827   40.9864 H   0  0  0  0  0  0  0  0  0  0  0  0
    0.4328   16.9100   42.9728 H   0  0  0  0  0  0  0  0  0  0  0  0
    2.3705   13.2133   40.1616 H   0  0  0  0  0  0  0  0  0  0  0  0
    0.6843   20.8214   41.2278 H   0  0  0  0  0  0  0  0  0  0  0  0
   -1.2173   22.3509   44.0246 H   0  0  0  0  0  0  0  0  0  0  0  0
    1.3881   20.6124   39.8911 H   0  0  0  0  0  0  0  0  0  0  0  0
    3.0702   22.9383   36.6317 H   0  0  0  0  0  0  0  0  0  0  0  0
    2.6159   14.3081   38.6506 H   0  0  0  0  0  0  0  0  0  0  0  0
    4.1158   14.9682   39.0617 H   0  0  0  0  0  0  0  0  0  0  0  0
    3.7718   20.8853   35.4701 H   0  0  0  0  0  0  0  0  0  0  0  0
    2.1519   22.8899   39.0101 H   0  0  0  0  0  0  0  0  0  0  0  0
  1 15  1  0
  2 11  1  0
  2 19  2  0
  3  4  2  0
  4  7  1  0
  5 26  1  0
  5  8  1  0
  6 13  1  0
  6 10  2  0
  8  6  1  0
  9 24  1  0
  9  1  1  0
 10  4  1  0
 11  5  1  0
 12 20  1  0
 12  1  1  0
 13 17  2  0
 14 27  1  0
 14 18  1  0
 17 16  1  0
 17  3  1  0
 18 11  2  0
 21 25  2  0
 22 24  1  0
 22 12  1  0
 23 21  1  0
 23 27  2  0
 24 26  2  0
 25 19  1  0
 26  9  1  0
 27  2  1  0
  1 28  1  0
  3 29  1  0
  5 30  1  0
  7 31  1  0
  7 32  1  0
  7 33  1  0
  8 34  1  0
  9 35  1  0
 10 36  1  0
 12 37  1  0
 13 38  1  0
 16 39  1  0
 19 40  1  0
 21 41  1  0
 22 42  1  0
 22 43  1  0
 23 44  1  0
 25 45  1  0
M  END
>  <mol_id>  (81) 
2026-08-23-6tgu-s0-n100-prep-0082

>  <rmsd_to_ref>  (81) 


$$$$

     RDKit          3D

 76 75  0  0  0  0  0  0  0  0999 V2000
   -0.8900   25.3590   45.0590 C   0  0  0  0  0  0  0  0  0  0  0  0
    4.5080   11.3920   34.5430 C   0  0  0  0  0  0  0  0  0  0  0  0
    1.2770   16.1800   41.6770 C   0  0  0  0  0  0  0  0  0  0  0  0
    5.5380   12.9450   36.2650 C   0  0  0  0  0  0  0  0  0  0  0  0
    3.4150   14.2400   39.9020 S   0  0  0  0  0  0  0  0  0  0  0  0
   -1.1760   25.5990   43.5730 C   0  0  0  0  0  0  0  0  0  0  0  0
    4.0360   15.9010   37.3810 N   0  0  0  0  0  0  0  0  0  0  0  0
    0.8840   22.3790   42.4800 C   0  0  0  0  0  0  0  0  0  0  0  0
    5.2500   14.3050   36.1590 C   0  0  0  0  0  0  0  0  0  0  0  0
    3.1940   18.1130   38.1220 C   0  0  0  0  0  0  0  0  0  0  0  0
    0.7720   18.4120   41.7330 C   0  0  0  0  0  0  0  0  0  0  0  0
    5.7570   12.0530   35.0560 C   0  0  0  0  0  0  0  0  0  0  0  0
    0.5150   20.5910   40.7040 O   0  0  0  0  0  0  0  0  0  0  0  0
   -0.1360   17.8690   42.5990 N   0  0  0  0  0  4  0  0  0  0  0  0
    1.6540   14.7860   41.9710 C   0  0  0  0  0  0  0  0  0  0  0  0
   -0.6780   15.6320   44.8260 C   0  0  0  0  0  0  0  0  0  0  0  0
   -0.3970   21.6810   42.6040 C   0  0  0  0  0  0  0  0  0  0  0  0
    1.2860   21.3880   39.9220 C   0  0  0  0  0  0  0  0  0  0  0  0
    2.8880   15.9540   39.7470 O   0  0  0  0  0  0  0  0  0  0  0  0
    0.7650   23.8860   44.4500 O   0  0  0  0  0  1  0  0  0  0  0  0
   -0.5590   20.9080   41.3090 C   0  0  0  0  0  0  0  0  0  0  0  0
    2.6140   18.3910   38.8800 C   0  0  0  0  0  0  0  0  0  0  0  0
    0.7850   24.7120   42.1790 O   0  0  0  0  0  0  0  0  0  0  0  0
    1.7020   17.2980   41.1090 C   0  0  0  0  0  0  0  0  0  0  0  0
    0.5130   16.5000   42.6210 C   0  0  0  0  0  0  0  0  0  0  0  0
    0.7910   14.0140   43.1480 S   0  0  0  0  0  0  0  0  0  0  0  0
   -1.0800   21.5450   43.5380 O   0  0  0  0  0  0  0  0  0  0  0  0
    4.1510   13.5710   38.4900 C   0  0  0  0  0  0  0  0  0  0  0  0
    4.5250   14.7980   37.2110 C   0  0  0  0  0  0  0  0  0  0  0  0
    0.0160   15.5220   43.6650 N   0  0  0  0  0  0  0  0  0  0  0  0
    0.7090   23.8080   43.1230 C   0  0  0  0  0  0  0  0  0  0  0  0
    3.0970   16.1400   38.5360 C   0  0  0  0  0  0  0  0  0  0  0  0
    2.5900   17.7970   40.2910 C   0  0  0  0  0  0  0  0  0  0  0  0
   -2.0300   24.7680   43.7540 C   0  0  0  0  0  0  0  0  0  0  0  0
    1.9070   21.7130   39.1290 N   0  0  0  0  0  0  0  0  0  0  0  0
    3.5970   18.4710   36.8350 O   0  0  0  0  0  0  0  0  0  0  0  0
   -1.5920   25.9481   45.6673 H   0  0  0  0  0  0  0  0  0  0  0  0
   -1.0137   24.2903   45.2883 H   0  0  0  0  0  0  0  0  0  0  0  0
    0.1410   25.6663   45.2883 H   0  0  0  0  0  0  0  0  0  0  0  0
    3.8906   11.0652   35.3927 H   0  0  0  0  0  0  0  0  0  0  0  0
    3.9397   12.1074   33.9305 H   0  0  0  0  0  0  0  0  0  0  0  0
    4.7799   10.5197   33.9305 H   0  0  0  0  0  0  0  0  0  0  0  0
    6.4575   12.8750   36.8647 H   0  0  0  0  0  0  0  0  0  0  0  0
    4.5929   12.5487   36.6646 H   0  0  0  0  0  0  0  0  0  0  0  0
   -0.3709   25.3106   42.8811 H   0  0  0  0  0  0  0  0  0  0  0  0
   -1.3638   26.5899   43.1339 H   0  0  0  0  0  0  0  0  0  0  0  0
    1.6687   21.8212   43.0121 H   0  0  0  0  0  0  0  0  0  0  0  0
    1.1789   22.4629   41.4236 H   0  0  0  0  0  0  0  0  0  0  0  0
    6.1994   14.8576   36.1023 H   0  0  0  0  0  0  0  0  0  0  0  0
    4.6348   14.4338   35.2563 H   0  0  0  0  0  0  0  0  0  0  0  0
    3.7065   17.1803   38.4001 H   0  0  0  0  0  0  0  0  0  0  0  0
    0.2330   18.9249   40.9228 H   0  0  0  0  0  0  0  0  0  0  0  0
    1.4026   19.1216   42.2887 H   0  0  0  0  0  0  0  0  0  0  0  0
    6.4745   11.2666   35.3331 H   0  0  0  0  0  0  0  0  0  0  0  0
    6.1261   12.7014   34.2477 H   0  0  0  0  0  0  0  0  0  0  0  0
   -0.1377   18.3285   43.5208 H   0  0  0  0  0  0  0  0  0  0  0  0
   -1.1331   17.9240   42.3466 H   0  0  0  0  0  0  0  0  0  0  0  0
    1.5411   14.2077   41.0421 H   0  0  0  0  0  0  0  0  0  0  0  0
    2.6824   14.8413   42.3574 H   0  0  0  0  0  0  0  0  0  0  0  0
    0.0108   15.5228   45.6767 H   0  0  0  0  0  0  0  0  0  0  0  0
   -1.1631   16.6182   44.8712 H   0  0  0  0  0  0  0  0  0  0  0  0
   -1.4443   14.8441   44.8712 H   0  0  0  0  0  0  0  0  0  0  0  0
   -1.1605   21.5237   40.6240 H   0  0  0  0  0  0  0  0  0  0  0  0
   -1.0284   19.9546   41.5929 H   0  0  0  0  0  0  0  0  0  0  0  0
    1.9128   19.2155   38.6836 H   0  0  0  0  0  0  0  0  0  0  0  0
    1.0188   17.1283   40.2638 H   0  0  0  0  0  0  0  0  0  0  0  0
    5.0905   13.0819   38.7870 H   0  0  0  0  0  0  0  0  0  0  0  0
    3.4283   12.8646   38.0555 H   0  0  0  0  0  0  0  0  0  0  0  0
    3.0359   17.2378   38.5026 H   0  0  0  0  0  0  0  0  0  0  0  0
    2.5594   15.2107   38.2964 H   0  0  0  0  0  0  0  0  0  0  0  0
    3.3149   16.9739   40.2073 H   0  0  0  0  0  0  0  0  0  0  0  0
    2.5967   18.7807   40.7833 H   0  0  0  0  0  0  0  0  0  0  0  0
   -2.1782   24.6238   44.8344 H   0  0  0  0  0  0  0  0  0  0  0  0
   -2.9720   25.1046   43.2964 H   0  0  0  0  0  0  0  0  0  0  0  0
   -1.7193   23.8172   43.2964 H   0  0  0  0  0  0  0  0  0  0  0  0
    4.2435   17.9050   36.3433 H   0  0  0  0  0  0  0  0  0  0  0  0
  2 12  1  0
  3 15  1  0
  3 25  2  0
  6 34  1  0
  6  1  1  0
  7 32  1  0
  8 17  1  0
  8 31  1  0
  9  4  1  0
  9 29  1  0
 10 22  2  3
 11 14  1  0
 12  4  1  0
 13 21  1  0
 14 25  1  0
 15 26  1  0
 17 27  2  0
 18 13  1  0
 19  5  1  0
 21 17  1  0
 22 33  1  0
 23 31  2  0
 24 33  1  0
 24  3  1  0
 24 11  1  0
 25 30  1  0
 26 30  1  0
 28  5  1  0
 29  7  2  0
 29 28  1  0
 30 16  1  0
 31 20  1  0
 32 19  1  0
 35 18  3  0
 36 10  1  0
  1 37  1  0
  1 38  1  0
  1 39  1  0
  2 40  1  0
  2 41  1  0
  2 42  1  0
  4 43  1  0
  4 44  1  0
  6 45  1  0
  6 46  1  0
  8 47  1  0
  8 48  1  0
  9 49  1  0
  9 50  1  0
 10 51  1  0
 11 52  1  0
 11 53  1  0
 12 54  1  0
 12 55  1  0
 14 56  1  0
 14 57  1  0
 15 58  1  0
 15 59  1  0
 16 60  1  0
 16 61  1  0
 16 62  1  0
 21 63  1  0
 21 64  1  0
 22 65  1  0
 24 66  1  0
 28 67  1  0
 28 68  1  0
 32 69  1  0
 32 70  1  0
 33 71  1  0
 33 72  1  0
 34 73  1  0
 34 74  1  0
 34 75  1  0
 36 76  1  0
M  CHG  2  14   1  20  -1
M  END
>  <mol_id>  (82) 
2026-08-23-6tgu-s0-n100-prep-0083

>  <rmsd_to_ref>  (82) 


$$$$

     RDKit          3D

 56 59  0  0  0  0  0  0  0  0999 V2000
    0.9560   19.2530   40.8040 C   0  0  0  0  0  0  0  0  0  0  0  0
    0.1570   17.7750   43.0410 C   0  0  0  0  0  0  0  0  0  0  0  0
   -0.5340   15.4960   45.1330 C   0  0  0  0  0  0  0  0  0  0  0  0
    1.3270   21.9860   40.1770 O   0  0  0  0  0  0  0  0  0  0  0  0
   -0.6580   19.7500   44.3120 C   0  0  0  0  0  0  0  0  0  0  0  0
    3.5470   21.0090   35.3730 C   0  0  0  0  0  0  0  0  0  0  0  0
    3.8570   20.2590   36.3420 O   0  0  0  0  0  0  0  0  0  0  0  0
    2.9160   16.6070   38.7750 C   0  0  0  0  0  0  0  0  0  0  0  0
    2.8330   17.6580   39.4640 N   0  0  0  0  0  0  0  0  0  0  0  0
    3.0830   20.1070   37.3970 C   0  0  0  0  0  0  0  0  0  0  0  0
    3.1450   14.0910   39.7030 C   0  0  0  0  0  0  0  0  0  0  0  0
   -1.0170   20.9270   44.3310 O   0  0  0  0  0  0  0  0  0  0  0  0
    0.8360   15.5860   42.9370 C   0  0  0  0  0  0  0  0  0  0  0  0
    0.0870   19.8050   41.7410 C   0  0  0  0  0  0  0  0  0  0  0  0
    2.3630   18.6010   39.0290 N   0  0  0  0  0  0  0  0  0  0  0  0
    1.8460   19.7270   39.7190 C   0  0  0  0  0  0  0  0  0  0  0  0
    2.0430   13.7330   41.8750 C   0  0  0  0  0  0  0  0  0  0  0  0
    3.7830   13.5290   38.5670 C   0  0  0  0  0  0  0  0  0  0  0  0
   -0.5160   19.0330   45.4660 N   0  0  0  0  0  0  0  0  0  0  0  0
    1.5700   15.0440   41.8550 C   0  0  0  0  0  0  0  0  0  0  0  0
    0.4790   15.0380   44.0780 C   0  0  0  0  0  0  0  0  0  0  0  0
    1.8550   21.0710   39.4300 C   0  0  0  0  0  0  0  0  0  0  0  0
    3.1410   17.2830   37.4860 C   0  0  0  0  0  0  0  0  0  0  0  0
    2.4610   21.1540   38.1100 C   0  0  0  0  0  0  0  0  0  0  0  0
    2.6700   15.4260   39.7960 C   0  0  0  0  0  0  0  0  0  0  0  0
    0.5990   16.9100   42.9780 C   0  0  0  0  0  0  0  0  0  0  0  0
    1.9160   15.8350   40.8490 N   0  0  0  0  0  0  0  0  0  0  0  0
   -0.2680   19.1530   43.0380 C   0  0  0  0  0  0  0  0  0  0  0  0
    2.9080   18.6610   37.8330 C   0  0  0  0  0  0  0  0  0  0  0  0
    2.7950   13.1510   40.8330 C   0  0  0  0  0  0  0  0  0  0  0  0
    0.9918   18.1573   40.8948 H   0  0  0  0  0  0  0  0  0  0  0  0
   -0.1259   15.3115   46.1377 H   0  0  0  0  0  0  0  0  0  0  0  0
   -0.7316   16.5710   45.0093 H   0  0  0  0  0  0  0  0  0  0  0  0
   -1.4716   14.9342   45.0093 H   0  0  0  0  0  0  0  0  0  0  0  0
    1.3729   22.9362   39.9029 H   0  0  0  0  0  0  0  0  0  0  0  0
    3.1534   21.9614   35.7578 H   0  0  0  0  0  0  0  0  0  0  0  0
    4.4390   21.2023   34.7590 H   0  0  0  0  0  0  0  0  0  0  0  0
    2.7789   20.5161   34.7590 H   0  0  0  0  0  0  0  0  0  0  0  0
    4.0017   16.5784   38.9495 H   0  0  0  0  0  0  0  0  0  0  0  0
    2.2877   17.4174   40.3040 H   0  0  0  0  0  0  0  0  0  0  0  0
    0.5083   14.7358   42.3207 H   0  0  0  0  0  0  0  0  0  0  0  0
    0.5165   20.7823   42.0064 H   0  0  0  0  0  0  0  0  0  0  0  0
   -0.8704   19.7365   41.2038 H   0  0  0  0  0  0  0  0  0  0  0  0
    1.8163   13.1150   42.7563 H   0  0  0  0  0  0  0  0  0  0  0  0
    4.5709   12.8350   38.8949 H   0  0  0  0  0  0  0  0  0  0  0  0
    3.0427   12.9842   37.9627 H   0  0  0  0  0  0  0  0  0  0  0  0
    4.2300   14.3321   37.9627 H   0  0  0  0  0  0  0  0  0  0  0  0
   -0.2143   18.0489   45.4271 H   0  0  0  0  0  0  0  0  0  0  0  0
   -0.7106   19.4764   46.3751 H   0  0  0  0  0  0  0  0  0  0  0  0
    0.1286   14.0353   43.7921 H   0  0  0  0  0  0  0  0  0  0  0  0
    1.3889   15.2900   44.6424 H   0  0  0  0  0  0  0  0  0  0  0  0
    4.1691   17.1286   37.1266 H   0  0  0  0  0  0  0  0  0  0  0  0
    2.5009   16.9139   36.6711 H   0  0  0  0  0  0  0  0  0  0  0  0
    2.4312   22.1362   37.6157 H   0  0  0  0  0  0  0  0  0  0  0  0
   -1.2832   19.5757   43.0120 H   0  0  0  0  0  0  0  0  0  0  0  0
    3.1027   12.0949   40.8424 H   0  0  0  0  0  0  0  0  0  0  0  0
  1 14  1  0
  5 12  2  0
  5 19  1  0
  6  7  1  0
  7 10  1  0
  8 23  1  0
  8  9  1  0
  8 25  1  0
 10 29  2  0
 10 24  1  0
 11 25  1  0
 11 30  2  0
 13 26  1  0
 13 21  1  0
 14 28  1  0
 15  9  1  0
 15 16  1  0
 16  1  2  0
 18 11  1  0
 20 17  2  0
 20 13  1  0
 21  3  1  0
 22 16  1  0
 22  4  1  0
 23 29  1  0
 24 22  2  0
 25 27  2  0
 26  2  3  0
 27 20  1  0
 28  2  1  0
 28  5  1  0
 29 15  1  0
 30 17  1  0
  1 31  1  0
  3 32  1  0
  3 33  1  0
  3 34  1  0
  4 35  1  0
  6 36  1  0
  6 37  1  0
  6 38  1  0
  8 39  1  0
  9 40  1  0
 13 41  1  0
 14 42  1  0
 14 43  1  0
 17 44  1  0
 18 45  1  0
 18 46  1  0
 18 47  1  0
 19 48  1  0
 19 49  1  0
 21 50  1  0
 21 51  1  0
 23 52  1  0
 23 53  1  0
 24 54  1  0
 28 55  1  0
 30 56  1  0
M  END
>  <mol_id>  (83) 
2026-08-23-6tgu-s0-n100-prep-0084

>  <rmsd_to_ref>  (83) 


$$$$

     RDKit          3D

 41 43  0  0  0  0  0  0  0  0999 V2000
    2.1260   14.9720   41.2740 C   0  0  0  0  0  0  0  0  0  0  0  0
    3.1240   21.0380   35.9230 O   0  0  0  0  0  0  0  0  0  0  0  0
    0.9360   18.5970   41.0490 C   0  0  0  0  0  0  0  0  0  0  0  0
   -0.3930   17.8570   44.4550 C   0  0  0  0  0  0  0  0  0  0  0  0
   -1.0530   18.9910   44.9390 C   0  0  0  0  0  0  0  0  0  0  0  0
    3.2460   20.2630   36.9400 C   0  0  0  0  0  0  0  0  0  0  0  0
    3.6960   19.0610   36.7690 C   0  0  0  0  0  0  0  0  0  0  0  0
    0.2600   17.7020   43.0960 C   0  0  0  0  0  0  0  0  0  0  0  0
   -0.4100   16.8480   45.1750 O   0  0  0  0  0  0  0  0  0  0  0  0
    1.5120   16.2720   41.5910 C   0  0  0  0  0  0  0  0  0  0  0  0
    1.6360   17.4320   40.7450 C   0  0  0  0  0  0  0  0  0  0  0  0
   -0.5990   20.0130   42.3430 C   0  0  0  0  0  0  0  0  0  0  0  0
    3.9750   16.8410   37.3970 O   0  0  0  0  0  0  0  0  0  0  0  0
    2.5170   19.7850   39.0640 C   0  0  0  0  0  0  0  0  0  0  0  0
   -0.2710   20.8320   43.5680 C   0  0  0  0  0  0  0  0  0  0  0  0
    2.4340   17.3960   39.6690 O   0  0  0  0  0  0  0  0  0  0  0  0
    1.7480   13.8040   42.1040 C   0  0  0  0  0  0  0  0  0  0  0  0
   -0.9970   20.3460   44.7740 O   0  0  0  0  0  0  0  0  0  0  0  0
    3.5560   18.1360   37.6930 C   0  0  0  0  0  0  0  0  0  0  0  0
    2.8340   18.4760   38.8890 C   0  0  0  0  0  0  0  0  0  0  0  0
    2.7800   20.7540   38.1120 C   0  0  0  0  0  0  0  0  0  0  0  0
    0.2050   18.7270   42.1920 C   0  0  0  0  0  0  0  0  0  0  0  0
    0.8130   16.5250   42.7720 C   0  0  0  0  0  0  0  0  0  0  0  0
    1.8647   14.7319   40.2328 H   0  0  0  0  0  0  0  0  0  0  0  0
    3.1976   15.1174   41.4756 H   0  0  0  0  0  0  0  0  0  0  0  0
    3.4439   20.7422   35.0340 H   0  0  0  0  0  0  0  0  0  0  0  0
    0.9743   19.4400   40.3434 H   0  0  0  0  0  0  0  0  0  0  0  0
   -2.0996   18.7732   44.6798 H   0  0  0  0  0  0  0  0  0  0  0  0
   -0.4706   19.0136   45.8719 H   0  0  0  0  0  0  0  0  0  0  0  0
    4.2074   18.8077   35.8286 H   0  0  0  0  0  0  0  0  0  0  0  0
   -1.6650   19.7454   42.3871 H   0  0  0  0  0  0  0  0  0  0  0  0
   -0.3407   20.6398   41.4767 H   0  0  0  0  0  0  0  0  0  0  0  0
    3.8820   16.1239   38.0732 H   0  0  0  0  0  0  0  0  0  0  0  0
    2.0303   20.0878   40.0028 H   0  0  0  0  0  0  0  0  0  0  0  0
    0.8111   20.7717   43.7564 H   0  0  0  0  0  0  0  0  0  0  0  0
   -0.5842   21.8691   43.3775 H   0  0  0  0  0  0  0  0  0  0  0  0
    1.8333   14.0677   43.1685 H   0  0  0  0  0  0  0  0  0  0  0  0
    0.7105   13.5152   41.8798 H   0  0  0  0  0  0  0  0  0  0  0  0
    2.4196   12.9621   41.8798 H   0  0  0  0  0  0  0  0  0  0  0  0
    2.6242   21.8280   38.2917 H   0  0  0  0  0  0  0  0  0  0  0  0
    0.7082   15.6978   43.4895 H   0  0  0  0  0  0  0  0  0  0  0  0
  1 10  1  0
  1 17  1  0
  2  6  1  0
  3 22  2  0
  4  5  1  0
  4  9  2  0
  6 21  2  0
  7  6  1  0
  7 19  2  0
  8  4  1  0
 10 23  1  0
 11  3  1  0
 11 10  2  0
 12 15  1  0
 13 19  1  0
 15 18  1  0
 16 11  1  0
 18  5  1  0
 19 20  1  0
 20 14  2  0
 20 16  1  0
 21 14  1  0
 22 12  1  0
 22  8  1  0
 23  8  2  0
  1 24  1  0
  1 25  1  0
  2 26  1  0
  3 27  1  0
  5 28  1  0
  5 29  1  0
  7 30  1  0
 12 31  1  0
 12 32  1  0
 13 33  1  0
 14 34  1  0
 15 35  1  0
 15 36  1  0
 17 37  1  0
 17 38  1  0
 17 39  1  0
 21 40  1  0
 23 41  1  0
M  END
>  <mol_id>  (84) 
2026-08-23-6tgu-s0-n100-prep-0085

>  <rmsd_to_ref>  (84) 


$$$$

     RDKit          3D

 46 47  0  0  0  0  0  0  0  0999 V2000
   -0.9890   16.3090   44.2150 C   0  0  0  0  0  0  0  0  0  0  0  0
    3.0220   18.3910   37.9820 C   0  0  0  0  0  0  0  0  0  0  0  0
    1.5960   14.2460   42.1470 C   0  0  0  0  0  0  0  0  0  0  0  0
    2.7890   20.8390   37.5130 C   0  0  0  0  0  0  0  0  0  0  0  0
    3.1930   14.7940   39.5070 C   0  0  0  0  0  0  0  0  0  0  0  0
    1.0130   13.9240   43.1640 O   0  0  0  0  0  0  0  0  0  0  0  0
    0.0840   19.3140   42.6670 C   0  0  0  0  0  0  0  0  0  0  0  0
    2.3830   12.1700   41.8910 O   0  0  0  0  0  0  0  0  0  0  0  0
    1.8800   20.9660   38.7340 C   0  0  0  0  0  0  0  0  0  0  0  0
    3.5690   17.5310   37.4490 O   0  0  0  0  0  0  0  0  0  0  0  0
    0.5260   21.3200   41.5420 S   0  0  0  0  0  0  0  0  0  0  0  0
    0.8910   18.9830   41.5620 C   0  0  0  0  0  0  0  0  0  0  0  0
   -0.8710   20.9260   43.8680 O   0  0  0  0  0  0  0  0  0  0  0  0
    3.8780   20.3790   36.0820 O   0  0  0  0  0  0  0  0  0  0  0  0
    1.2010   20.0430   40.7690 C   0  0  0  0  0  0  0  0  0  0  0  0
    2.4690   18.7000   39.1570 C   0  0  0  0  0  0  0  0  0  0  0  0
   -0.2030   20.5940   42.7870 C   0  0  0  0  0  0  0  0  0  0  0  0
   -0.5840   18.6420   43.6790 O   0  0  0  0  0  0  0  0  0  0  0  0
    2.0530   16.1550   40.7300 C   0  0  0  0  0  0  0  0  0  0  0  0
    2.7110   16.0010   39.6020 N   0  0  0  0  0  4  0  0  0  0  0  0
    2.4050   13.3930   41.4070 C   0  0  0  0  0  0  0  0  0  0  0  0
    1.7630   19.9020   39.4950 C   0  0  0  0  0  0  0  0  0  0  0  0
    0.0320   17.5120   44.2710 C   0  0  0  0  0  0  0  0  0  0  0  0
    3.3990   19.7930   37.1920 C   0  0  0  0  0  0  0  0  0  0  0  0
    1.4940   15.5070   41.7440 C   0  0  0  0  0  0  0  0  0  0  0  0
    3.1620   13.6890   40.3280 C   0  0  0  0  0  0  0  0  0  0  0  0
   -1.2499   16.0016   45.2384 H   0  0  0  0  0  0  0  0  0  0  0  0
   -1.8990   16.6248   43.6838 H   0  0  0  0  0  0  0  0  0  0  0  0
   -0.5294   15.4625   43.6838 H   0  0  0  0  0  0  0  0  0  0  0  0
    2.9164   21.7247   36.8732 H   0  0  0  0  0  0  0  0  0  0  0  0
    3.7425   14.6207   38.5700 H   0  0  0  0  0  0  0  0  0  0  0  0
    2.3837   12.2066   42.8803 H   0  0  0  0  0  0  0  0  0  0  0  0
    1.3499   21.9019   38.9644 H   0  0  0  0  0  0  0  0  0  0  0  0
    1.2392   17.9596   41.3586 H   0  0  0  0  0  0  0  0  0  0  0  0
    4.4656   19.8710   35.4682 H   0  0  0  0  0  0  0  0  0  0  0  0
    2.0852   20.4171   40.2321 H   0  0  0  0  0  0  0  0  0  0  0  0
    1.7540   17.8878   39.3546 H   0  0  0  0  0  0  0  0  0  0  0  0
    3.3854   18.8660   39.7423 H   0  0  0  0  0  0  0  0  0  0  0  0
    1.9121   17.2331   40.8967 H   0  0  0  0  0  0  0  0  0  0  0  0
    3.4868   16.6777   39.5688 H   0  0  0  0  0  0  0  0  0  0  0  0
    2.0623   16.1595   38.8178 H   0  0  0  0  0  0  0  0  0  0  0  0
    1.5529   13.1503   40.7551 H   0  0  0  0  0  0  0  0  0  0  0  0
    0.2897   17.7335   45.3172 H   0  0  0  0  0  0  0  0  0  0  0  0
    0.9540   17.2540   43.7294 H   0  0  0  0  0  0  0  0  0  0  0  0
    0.8262   16.1255   42.3616 H   0  0  0  0  0  0  0  0  0  0  0  0
    3.8845   12.9054   40.0560 H   0  0  0  0  0  0  0  0  0  0  0  0
  1 23  1  0
  2 16  1  0
  3  6  2  0
  4  9  1  0
  5 20  1  0
  5 26  2  0
  7 17  1  0
  7 18  1  0
  9 22  2  0
 10  2  2  0
 11 17  1  0
 12  7  2  0
 14 24  1  0
 15 22  1  0
 15 11  1  0
 15 12  1  0
 16 22  1  0
 17 13  2  0
 18 23  1  0
 19 25  2  0
 20 19  1  0
 21  8  1  0
 21  3  1  0
 24  4  2  0
 24  2  1  0
 25  3  1  0
 26 21  1  0
  1 27  1  0
  1 28  1  0
  1 29  1  0
  4 30  1  0
  5 31  1  0
  8 32  1  0
  9 33  1  0
 12 34  1  0
 14 35  1  0
 15 36  1  0
 16 37  1  0
 16 38  1  0
 19 39  1  0
 20 40  1  0
 20 41  1  0
 21 42  1  0
 23 43  1  0
 23 44  1  0
 25 45  1  0
 26 46  1  0
M  CHG  1  20   1
M  END
>  <mol_id>  (85) 
2026-08-23-6tgu-s0-n100-prep-0086

>  <rmsd_to_ref>  (85) 


$$$$

     RDKit          3D

 49 52  0  0  0  0  0  0  0  0999 V2000
    1.7380   15.2990   41.8930 C   0  0  0  0  0  0  0  0  0  0  0  0
    2.1830   12.9640   41.4490 C   0  0  0  0  0  0  0  0  0  0  0  0
    3.3990   19.1570   37.1080 C   0  0  0  0  0  0  0  0  0  0  0  0
    2.7250   19.5920   38.1970 C   0  0  0  0  0  0  0  0  0  0  0  0
   -1.6800   17.9360   44.6610 F   0  0  0  0  0  0  0  0  0  0  0  0
    2.7620   17.3280   39.1000 C   0  0  0  0  0  0  0  0  0  0  0  0
    2.7580   21.1290   36.6410 N   0  0  0  0  0  0  0  0  0  0  0  0
    2.5050   18.7410   39.3410 C   0  0  0  0  0  0  0  0  0  0  0  0
    0.3340   19.7350   42.4400 C   0  0  0  0  0  0  0  0  0  0  0  0
    1.3220   13.0220   42.5340 C   0  0  0  0  0  0  0  0  0  0  0  0
    1.7390   19.4890   40.4730 C   0  0  0  0  0  0  0  0  0  0  0  0
   -0.2390   18.9600   43.5810 C   0  0  0  0  0  0  0  0  0  0  0  0
    0.7670   21.6890   41.1390 C   0  0  0  0  0  0  0  0  0  0  0  0
    3.0970   14.4890   39.9090 O   0  0  0  0  0  0  0  0  0  0  0  0
    0.9920   17.6020   42.2890 C   0  0  0  0  0  0  0  0  0  0  0  0
    3.8210   17.8940   36.9580 C   0  0  0  0  0  0  0  0  0  0  0  0
    0.2370   17.6400   43.3930 C   0  0  0  0  0  0  0  0  0  0  0  0
    0.1200   21.0960   42.2090 C   0  0  0  0  0  0  0  0  0  0  0  0
    2.6270   11.7680   40.9580 C   0  0  0  0  0  0  0  0  0  0  0  0
    1.7300   16.5690   41.8420 N   0  0  0  0  0  4  0  0  0  0  0  0
    1.0960   18.9380   41.6490 C   0  0  0  0  0  0  0  0  0  0  0  0
    3.4760   16.9550   37.9120 C   0  0  0  0  0  0  0  0  0  0  0  0
    0.6730   14.5210   43.0340 S   0  0  0  0  0  0  0  0  0  0  0  0
   -0.8930   19.8820   44.4830 O   0  0  0  0  0  0  0  0  0  0  0  0
    3.9110   15.3240   37.5640 Cl  0  0  0  0  0  0  0  0  0  0  0  0
    3.5210   20.1590   36.2140 N   0  0  0  0  0  0  0  0  0  0  0  0
    2.3590   20.8700   37.8860 C   0  0  0  0  0  0  0  0  0  0  0  0
    1.5920   20.9000   40.3700 C   0  0  0  0  0  0  0  0  0  0  0  0
    2.3450   14.3190   40.9430 C   0  0  0  0  0  0  0  0  0  0  0  0
    2.7219   15.7801   41.9950 H   0  0  0  0  0  0  0  0  0  0  0  0
   -1.6800   17.9360   45.6020 H   0  0  0  0  0  0  0  0  0  0  0  0
    2.4168   16.5640   39.8121 H   0  0  0  0  0  0  0  0  0  0  0  0
    3.1008   18.3760   40.1906 H   0  0  0  0  0  0  0  0  0  0  0  0
    0.4682   12.3704   42.2964 H   0  0  0  0  0  0  0  0  0  0  0  0
    1.9626   12.7307   43.3794 H   0  0  0  0  0  0  0  0  0  0  0  0
   -0.9034   18.4038   44.2587 H   0  0  0  0  0  0  0  0  0  0  0  0
    0.6266   22.7558   40.9106 H   0  0  0  0  0  0  0  0  0  0  0  0
    3.2300   15.3970   39.5375 H   0  0  0  0  0  0  0  0  0  0  0  0
    4.4325   17.6089   36.0892 H   0  0  0  0  0  0  0  0  0  0  0  0
    0.0210   16.7837   44.0488 H   0  0  0  0  0  0  0  0  0  0  0  0
   -0.5455   21.6811   42.8607 H   0  0  0  0  0  0  0  0  0  0  0  0
    2.8757   11.0980   41.7942 H   0  0  0  0  0  0  0  0  0  0  0  0
    1.8393   11.3092   40.3424 H   0  0  0  0  0  0  0  0  0  0  0  0
    3.5233   11.9344   40.3424 H   0  0  0  0  0  0  0  0  0  0  0  0
    2.6591   16.7976   42.2234 H   0  0  0  0  0  0  0  0  0  0  0  0
    1.2807   16.5811   40.9152 H   0  0  0  0  0  0  0  0  0  0  0  0
   -0.7054   19.6175   45.4184 H   0  0  0  0  0  0  0  0  0  0  0  0
    1.8259   21.5668   38.5495 H   0  0  0  0  0  0  0  0  0  0  0  0
    2.1947   21.4088   39.6032 H   0  0  0  0  0  0  0  0  0  0  0  0
  1 20  1  0
  1 23  1  0
  2 10  1  0
  3  4  1  0
  4  8  1  0
  6  8  1  0
  7 27  1  0
  8 11  1  0
  9 12  1  0
 10 23  1  0
 11 21  2  0
 12 24  1  0
 13 18  1  0
 14 29  1  0
 15 17  2  0
 16  3  2  0
 16 22  1  0
 17 12  1  0
 18  9  2  0
 19  2  1  0
 20 15  1  0
 21 15  1  0
 21  9  1  0
 22  6  2  0
 25 22  1  0
 26  7  2  0
 26  3  1  0
 27  4  2  0
 28 11  1  0
 28 13  2  0
 29  2  2  0
 29  1  1  0
  1 30  1  0
  5 31  1  0
  6 32  1  0
  8 33  1  0
 10 34  1  0
 10 35  1  0
 12 36  1  0
 13 37  1  0
 14 38  1  0
 16 39  1  0
 17 40  1  0
 18 41  1  0
 19 42  1  0
 19 43  1  0
 19 44  1  0
 20 45  1  0
 20 46  1  0
 24 47  1  0
 27 48  1  0
 28 49  1  0
M  CHG  1  20   1
M  END
>  <mol_id>  (86) 
2026-08-23-6tgu-s0-n100-prep-0087

>  <rmsd_to_ref>  (86) 


$$$$

     RDKit          3D

 31 32  0  0  0  0  0  0  0  0999 V2000
    1.9500   14.4060   42.1600 C   0  0  0  0  0  0  0  0  0  0  0  0
    1.9510   21.4840   39.5110 C   0  0  0  0  0  0  0  0  0  0  0  0
    2.6300   19.1630   38.6900 C   0  0  0  0  0  0  0  0  0  0  0  0
    0.2000   17.8940   42.8730 S   0  0  0  0  0  0  0  0  0  0  0  0
    1.9360   19.9410   39.6650 C   0  0  0  0  0  0  0  0  0  0  0  0
    2.5610   16.7550   39.8060 C   0  0  0  0  0  0  0  0  0  0  0  0
    0.5180   16.2030   43.0960 C   0  0  0  0  0  0  0  0  0  0  0  0
    2.7660   20.8280   36.8320 O   0  0  0  0  0  1  0  0  0  0  0  0
    0.9790   13.3610   42.7550 C   0  0  0  0  0  0  0  0  0  0  0  0
    3.0810   13.9730   41.8260 O   0  0  0  0  0  0  0  0  0  0  0  0
    0.7690   20.6120   41.7750 C   0  0  0  0  0  0  0  0  0  0  0  0
    1.2500   18.1670   41.5270 C   0  0  0  0  0  0  0  0  0  0  0  0
    1.4760   15.7380   42.0630 C   0  0  0  0  0  0  0  0  0  0  0  0
    2.8920   17.7820   38.8870 C   0  0  0  0  0  0  0  0  0  0  0  0
    3.1420   19.7270   37.2790 C   0  0  0  0  0  0  0  0  0  0  0  0
    1.3660   19.5030   40.9230 C   0  0  0  0  0  0  0  0  0  0  0  0
    3.9470   18.9910   36.6230 O   0  0  0  0  0  0  0  0  0  0  0  0
    1.8390   16.8890   41.0490 C   0  0  0  0  0  0  0  0  0  0  0  0
    1.9555   21.9518   40.5066 H   0  0  0  0  0  0  0  0  0  0  0  0
    2.8521   21.7886   38.9586 H   0  0  0  0  0  0  0  0  0  0  0  0
    1.0559   21.8061   38.9586 H   0  0  0  0  0  0  0  0  0  0  0  0
    1.3702   19.1256   39.1907 H   0  0  0  0  0  0  0  0  0  0  0  0
    2.8921   15.7398   39.5420 H   0  0  0  0  0  0  0  0  0  0  0  0
    0.0771   15.5727   43.8823 H   0  0  0  0  0  0  0  0  0  0  0  0
    1.0204   13.4056   43.8533 H   0  0  0  0  0  0  0  0  0  0  0  0
   -0.0452   13.5782   42.4176 H   0  0  0  0  0  0  0  0  0  0  0  0
    1.2707   12.3555   42.4176 H   0  0  0  0  0  0  0  0  0  0  0  0
    0.9005   20.3678   42.8395 H   0  0  0  0  0  0  0  0  0  0  0  0
    1.2782   21.5610   41.5509 H   0  0  0  0  0  0  0  0  0  0  0  0
   -0.3035   20.7095   41.5509 H   0  0  0  0  0  0  0  0  0  0  0  0
    3.5449   17.3942   38.0912 H   0  0  0  0  0  0  0  0  0  0  0  0
  1  9  1  0
  3 14  2  0
  3  5  1  0
  4  7  1  0
  5  2  1  0
  5 16  1  0
  6 18  2  0
  8 15  1  0
 10  1  2  0
 12  4  1  0
 13  1  1  0
 13  7  2  0
 14  6  1  0
 15  3  1  0
 16 12  2  0
 16 11  1  0
 17 15  2  0
 18 12  1  0
 18 13  1  0
  2 19  1  0
  2 20  1  0
  2 21  1  0
  5 22  1  0
  6 23  1  0
  7 24  1  0
  9 25  1  0
  9 26  1  0
  9 27  1  0
 11 28  1  0
 11 29  1  0
 11 30  1  0
 14 31  1  0
M  CHG  1   8  -1
M  END
>  <mol_id>  (87) 
2026-08-23-6tgu-s0-n100-prep-0088

>  <rmsd_to_ref>  (87) 


$$$$

     RDKit          3D

 67 72  0  0  0  0  0  0  0  0999 V2000
    1.8610   21.7550   41.6620 O   0  0  0  0  0  0  0  0  0  0  0  0
    0.5730   18.7980   41.0540 N   0  0  0  0  0  0  0  0  0  0  0  0
   -0.8730   14.9340   47.5410 C   0  0  0  0  0  0  0  0  0  0  0  0
    0.2940   18.0260   42.1220 C   0  0  0  0  0  0  0  0  0  0  0  0
    4.2330   16.3360   37.4070 C   0  0  0  0  0  0  0  0  0  0  0  0
   -0.8250   15.8450   46.3770 C   0  0  0  0  0  0  0  0  0  0  0  0
    0.0630   19.9120   43.6840 O   0  0  0  0  0  0  0  0  0  0  0  0
   -0.3810   16.4600   44.0760 C   0  0  0  0  0  0  0  0  0  0  0  0
    2.6660   14.7940   40.8230 N   0  0  0  0  0  0  0  0  0  0  0  0
    3.8290   15.0970   38.5890 S   0  0  0  0  0  0  0  0  0  0  0  0
    1.5010   21.3770   39.3020 C   0  0  0  0  0  0  0  0  0  0  0  0
    3.2920   21.6330   34.2700 C   0  0  0  0  0  0  0  0  0  0  0  0
    1.8190   14.8100   41.8590 N   0  0  0  0  0  0  0  0  0  0  0  0
   -0.8170   13.7210   47.2250 O   0  0  0  0  0  0  0  0  0  0  0  0
    0.1440   15.2630   43.8480 C   0  0  0  0  0  0  0  0  0  0  0  0
   -0.4520   15.3700   45.0940 C   0  0  0  0  0  0  0  0  0  0  0  0
   -1.1270   18.0970   45.6470 C   0  0  0  0  0  0  0  0  0  0  0  0
    3.1950   19.7620   36.3310 C   0  0  0  0  0  0  0  0  0  0  0  0
    2.5930   22.2020   36.5630 C   0  0  0  0  0  0  0  0  0  0  0  0
    1.8190   16.9690   40.3940 C   0  0  0  0  0  0  0  0  0  0  0  0
    3.7390   21.2730   35.0710 O   0  0  0  0  0  0  0  0  0  0  0  0
    1.2680   15.6490   41.6460 C   0  0  0  0  0  0  0  0  0  0  0  0
    1.0830   19.7600   40.9720 N   0  0  0  0  0  0  0  0  0  0  0  0
   -0.7120   15.3540   48.7430 O   0  0  0  0  0  1  0  0  0  0  0  0
    1.0620   16.9240   41.6170 C   0  0  0  0  0  0  0  0  0  0  0  0
    3.8140   18.7080   37.2990 C   0  0  0  0  0  0  0  0  0  0  0  0
    3.2360   17.4210   37.5200 C   0  0  0  0  0  0  0  0  0  0  0  0
   -0.1190   18.7270   43.4390 C   0  0  0  0  0  0  0  0  0  0  0  0
    1.1370   21.1140   40.6850 C   0  0  0  0  0  0  0  0  0  0  0  0
    1.6990   20.6400   38.2950 C   0  0  0  0  0  0  0  0  0  0  0  0
    2.9580   21.9040   34.9400 C   0  0  0  0  0  0  0  0  0  0  0  0
    0.3850   22.1270   41.2160 C   0  0  0  0  0  0  0  0  0  0  0  0
   -1.3140   17.1930   46.6820 C   0  0  0  0  0  0  0  0  0  0  0  0
    2.6600   15.7180   39.9240 C   0  0  0  0  0  0  0  0  0  0  0  0
    2.9300   21.0500   37.3640 C   0  0  0  0  0  0  0  0  0  0  0  0
   -0.5970   17.7240   44.4420 C   0  0  0  0  0  0  0  0  0  0  0  0
    1.1200   18.1778   40.4399 H   0  0  0  0  0  0  0  0  0  0  0  0
   -0.5555   17.5651   42.6473 H   0  0  0  0  0  0  0  0  0  0  0  0
    4.2052   15.9081   36.3940 H   0  0  0  0  0  0  0  0  0  0  0  0
    5.2441   16.7265   37.5947 H   0  0  0  0  0  0  0  0  0  0  0  0
    0.7074   22.0579   38.9605 H   0  0  0  0  0  0  0  0  0  0  0  0
    2.5651   21.5666   39.5061 H   0  0  0  0  0  0  0  0  0  0  0  0
    2.7144   20.9440   33.6362 H   0  0  0  0  0  0  0  0  0  0  0  0
    3.6915   22.1629   33.3927 H   0  0  0  0  0  0  0  0  0  0  0  0
    1.7414   14.1584   42.6529 H   0  0  0  0  0  0  0  0  0  0  0  0
   -0.3220   14.6150   43.0911 H   0  0  0  0  0  0  0  0  0  0  0  0
    1.1517   14.9483   43.5390 H   0  0  0  0  0  0  0  0  0  0  0  0
   -1.4141   19.1478   45.7998 H   0  0  0  0  0  0  0  0  0  0  0  0
    3.8964   20.0297   35.5270 H   0  0  0  0  0  0  0  0  0  0  0  0
    2.2921   19.4141   35.8078 H   0  0  0  0  0  0  0  0  0  0  0  0
    3.1704   23.0705   36.9128 H   0  0  0  0  0  0  0  0  0  0  0  0
    1.5165   22.4065   36.6594 H   0  0  0  0  0  0  0  0  0  0  0  0
    1.8117   17.8826   39.7814 H   0  0  0  0  0  0  0  0  0  0  0  0
    1.1185   15.4546   40.5737 H   0  0  0  0  0  0  0  0  0  0  0  0
    0.9462   15.6589   42.6978 H   0  0  0  0  0  0  0  0  0  0  0  0
    1.4327   19.8117   41.9394 H   0  0  0  0  0  0  0  0  0  0  0  0
    4.8347   18.5230   36.9330 H   0  0  0  0  0  0  0  0  0  0  0  0
    3.6597   19.1892   38.2760 H   0  0  0  0  0  0  0  0  0  0  0  0
    2.4450   17.2547   36.7739 H   0  0  0  0  0  0  0  0  0  0  0  0
    2.8309   17.4031   38.5425 H   0  0  0  0  0  0  0  0  0  0  0  0
    1.8754   19.6160   38.6559 H   0  0  0  0  0  0  0  0  0  0  0  0
    0.8020   20.7453   37.6671 H   0  0  0  0  0  0  0  0  0  0  0  0
    2.2666   21.0485   34.9414 H   0  0  0  0  0  0  0  0  0  0  0  0
    0.1841   23.0419   40.6393 H   0  0  0  0  0  0  0  0  0  0  0  0
   -0.5994   22.2354   41.6948 H   0  0  0  0  0  0  0  0  0  0  0  0
   -1.7840   17.4616   47.6396 H   0  0  0  0  0  0  0  0  0  0  0  0
    3.8109   21.2881   37.9783 H   0  0  0  0  0  0  0  0  0  0  0  0
  2  4  1  0
  3 24  1  0
  4 28  1  0
  5 27  1  0
  5 10  1  0
  6 33  2  0
  6  3  1  0
  8 36  1  0
  8 16  2  0
  9 13  1  0
 10 34  1  0
 12 31  1  0
 12 21  1  0
 14  3  2  0
 15  8  1  0
 15 16  1  0
 16  6  1  0
 17 33  1  0
 18 26  1  0
 18 35  1  0
 20 25  2  0
 22 13  1  0
 23  2  1  0
 25 22  1  0
 25  4  1  0
 26 27  1  0
 28  7  2  0
 28 36  1  0
 29 11  1  0
 29 23  1  0
 29 32  1  0
 29  1  1  0
 30 11  1  0
 31 21  1  0
 31 19  1  0
 32  1  1  0
 34 20  1  0
 34  9  2  0
 35 19  1  0
 35 30  1  0
 36 17  2  0
  2 37  1  0
  4 38  1  0
  5 39  1  0
  5 40  1  0
 11 41  1  0
 11 42  1  0
 12 43  1  0
 12 44  1  0
 13 45  1  0
 15 46  1  0
 15 47  1  0
 17 48  1  0
 18 49  1  0
 18 50  1  0
 19 51  1  0
 19 52  1  0
 20 53  1  0
 22 54  1  0
 22 55  1  0
 23 56  1  0
 26 57  1  0
 26 58  1  0
 27 59  1  0
 27 60  1  0
 30 61  1  0
 30 62  1  0
 31 63  1  0
 32 64  1  0
 32 65  1  0
 33 66  1  0
 35 67  1  0
M  CHG  1  24  -1
M  END
>  <mol_id>  (88) 
2026-08-23-6tgu-s0-n100-prep-0089

>  <rmsd_to_ref>  (88) 


$$$$

     RDKit          3D

 36 37  0  0  0  0  0  0  0  0999 V2000
    0.8310   21.1140   41.5450 C   0  0  0  0  0  0  0  0  0  0  0  0
    1.3100   15.0840   42.2670 Cl  0  0  0  0  0  0  0  0  0  0  0  0
    0.6710   16.5330   42.7830 C   0  0  0  0  0  0  0  0  0  0  0  0
    3.0010   20.3530   37.4830 C   0  0  0  0  0  0  0  0  0  0  0  0
   -0.6530   18.6920   44.1210 C   0  0  0  0  0  0  0  0  0  0  0  0
    0.7440   17.9100   42.2000 C   0  0  0  0  0  0  0  0  0  0  0  0
    2.7990   19.6470   38.9500 C   0  0  0  0  0  0  0  0  0  0  0  0
    1.5540   18.2790   40.8610 C   0  0  0  0  0  0  0  0  0  0  0  0
    4.4870   18.0850   38.7160 C   0  0  0  0  0  0  0  0  0  0  0  0
    2.3150   21.3100   37.4380 O   0  0  0  0  0  0  0  0  0  0  0  0
    0.1420   18.9820   42.9490 C   0  0  0  0  0  0  0  0  0  0  0  0
    3.7610   20.0100   36.4720 N   0  0  0  0  0  0  0  0  0  0  0  0
   -0.7650   17.3880   44.5890 C   0  0  0  0  0  0  0  0  0  0  0  0
    0.3020   20.4250   42.4640 C   0  0  0  0  0  0  0  0  0  0  0  0
    1.8060   17.0030   40.6350 O   0  0  0  0  0  0  0  0  0  0  0  0
    1.7290   19.4720   39.9780 C   0  0  0  0  0  0  0  0  0  0  0  0
    1.3000   20.7370   40.1530 C   0  0  0  0  0  0  0  0  0  0  0  0
    3.6480   19.2480   39.6030 C   0  0  0  0  0  0  0  0  0  0  0  0
    3.5820   20.8060   35.3830 O   0  0  0  0  0  0  0  0  0  0  0  0
   -0.1880   16.2950   43.9850 C   0  0  0  0  0  0  0  0  0  0  0  0
    0.9767   22.1740   41.8004 H   0  0  0  0  0  0  0  0  0  0  0  0
   -1.1722   19.5078   44.6453 H   0  0  0  0  0  0  0  0  0  0  0  0
   -0.1543   17.7035   41.5997 H   0  0  0  0  0  0  0  0  0  0  0  0
    2.3833   19.7466   37.9365 H   0  0  0  0  0  0  0  0  0  0  0  0
    4.9886   17.3897   39.4051 H   0  0  0  0  0  0  0  0  0  0  0  0
    3.7815   17.5279   38.0821 H   0  0  0  0  0  0  0  0  0  0  0  0
    5.2382   18.5788   38.0821 H   0  0  0  0  0  0  0  0  0  0  0  0
    4.4234   19.2217   36.4988 H   0  0  0  0  0  0  0  0  0  0  0  0
   -1.3539   17.2189   45.5026 H   0  0  0  0  0  0  0  0  0  0  0  0
   -0.2276   21.0965   43.1558 H   0  0  0  0  0  0  0  0  0  0  0  0
    2.3297   16.7354   39.8386 H   0  0  0  0  0  0  0  0  0  0  0  0
    1.2904   21.4619   39.3257 H   0  0  0  0  0  0  0  0  0  0  0  0
    4.3262   20.0698   39.8763 H   0  0  0  0  0  0  0  0  0  0  0  0
    3.2443   18.8061   40.5259 H   0  0  0  0  0  0  0  0  0  0  0  0
    3.3747   21.7278   35.6785 H   0  0  0  0  0  0  0  0  0  0  0  0
   -0.3527   15.2790   44.3730 H   0  0  0  0  0  0  0  0  0  0  0  0
  1 14  1  0
  2  3  1  0
  3 20  2  0
  4  7  1  0
  5 13  2  0
  6  8  1  0
  6  3  1  0
  6 11  1  0
  7 18  1  0
  7 16  1  0
  9 18  1  0
 10  4  2  0
 11  5  1  0
 12  4  1  0
 14 11  2  0
 15  8  1  0
 16 17  1  0
 16  8  2  0
 17  1  2  0
 19 12  1  0
 20 13  1  0
  1 21  1  0
  5 22  1  0
  6 23  1  0
  7 24  1  0
  9 25  1  0
  9 26  1  0
  9 27  1  0
 12 28  1  0
 13 29  1  0
 14 30  1  0
 15 31  1  0
 17 32  1  0
 18 33  1  0
 18 34  1  0
 19 35  1  0
 20 36  1  0
M  END
>  <mol_id>  (89) 
2026-08-23-6tgu-s0-n100-prep-0090

>  <rmsd_to_ref>  (89) 


$$$$

     RDKit          3D

 52 55  0  0  0  0  0  0  0  0999 V2000
    2.8670   20.7670   37.2790 C   0  0  0  0  0  0  0  0  0  0  0  0
    1.4830   15.8100   41.9350 C   0  0  0  0  0  0  0  0  0  0  0  0
    4.6800   17.1190   36.6280 C   0  0  0  0  0  0  0  0  0  0  0  0
    1.6530   20.3630   40.3370 C   0  0  0  0  0  0  0  0  0  0  0  0
    2.6590   16.2860   39.6340 C   0  0  0  0  0  0  0  0  0  0  0  0
    1.8660   21.2810   38.1840 C   0  0  0  0  0  0  0  0  0  0  0  0
    0.4800   19.5550   42.3820 C   0  0  0  0  0  0  0  0  0  0  0  0
    3.6700   15.2350   37.8710 C   0  0  0  0  0  0  0  0  0  0  0  0
    0.1460   21.6050   41.7310 O   0  0  0  0  0  0  0  0  0  0  0  0
   -1.0120   15.7010   44.4600 C   0  0  0  0  0  0  0  0  0  0  0  0
    1.0760   16.8720   42.9590 C   0  0  0  0  0  0  0  0  0  0  0  0
    0.9530   18.1880   42.1630 N   0  0  0  0  0  0  0  0  0  0  0  0
    1.9950   16.5940   40.7800 C   0  0  0  0  0  0  0  0  0  0  0  0
    3.0100   18.6780   39.0770 C   0  0  0  0  0  0  0  0  0  0  0  0
    3.5290   20.4770   36.4080 N   0  0  0  0  0  0  0  0  0  0  0  0
    3.2320   17.2730   38.7660 C   0  0  0  0  0  0  0  0  0  0  0  0
    2.0460   21.3820   39.5680 O   0  0  0  0  0  0  0  0  0  0  0  0
    0.7580   20.5600   41.5110 C   0  0  0  0  0  0  0  0  0  0  0  0
   -0.5110   18.1030   45.3400 C   0  0  0  0  0  0  0  0  0  0  0  0
   -0.3340   19.8660   43.6130 C   0  0  0  0  0  0  0  0  0  0  0  0
   -0.1210   14.6090   44.6630 O   0  0  0  0  0  0  0  0  0  0  0  0
   -1.0940   16.6900   45.6110 C   0  0  0  0  0  0  0  0  0  0  0  0
    2.9800   14.9970   38.9680 C   0  0  0  0  0  0  0  0  0  0  0  0
    3.8310   16.5660   37.7560 N   0  0  0  0  0  0  0  0  0  0  0  0
   -1.1980   18.8400   44.2400 N   0  0  0  0  0  4  0  0  0  0  0  0
    1.7360   17.9870   40.9770 C   0  0  0  0  0  0  0  0  0  0  0  0
    2.1450   18.9840   40.0910 C   0  0  0  0  0  0  0  0  0  0  0  0
    2.2688   15.1566   42.3420 H   0  0  0  0  0  0  0  0  0  0  0  0
    0.6480   15.1494   41.6587 H   0  0  0  0  0  0  0  0  0  0  0  0
    5.5318   17.6738   37.0483 H   0  0  0  0  0  0  0  0  0  0  0  0
    5.0523   16.2896   36.0087 H   0  0  0  0  0  0  0  0  0  0  0  0
    4.0719   17.7948   36.0087 H   0  0  0  0  0  0  0  0  0  0  0  0
    2.5317   20.5109   40.9820 H   0  0  0  0  0  0  0  0  0  0  0  0
    1.6435   22.3006   37.8361 H   0  0  0  0  0  0  0  0  0  0  0  0
    1.1038   20.4899   38.1273 H   0  0  0  0  0  0  0  0  0  0  0  0
    1.4030   19.7859   42.9340 H   0  0  0  0  0  0  0  0  0  0  0  0
    4.0490   14.4766   37.1702 H   0  0  0  0  0  0  0  0  0  0  0  0
   -0.6823   16.2476   43.5642 H   0  0  0  0  0  0  0  0  0  0  0  0
   -2.0159   15.2624   44.3615 H   0  0  0  0  0  0  0  0  0  0  0  0
    0.1125   16.6109   43.4211 H   0  0  0  0  0  0  0  0  0  0  0  0
    1.8105   16.9554   43.7736 H   0  0  0  0  0  0  0  0  0  0  0  0
    3.5233   19.4705   38.5126 H   0  0  0  0  0  0  0  0  0  0  0  0
   -0.5988   18.6965   46.2620 H   0  0  0  0  0  0  0  0  0  0  0  0
    0.5338   17.9623   45.0259 H   0  0  0  0  0  0  0  0  0  0  0  0
    0.3797   20.1874   44.3859 H   0  0  0  0  0  0  0  0  0  0  0  0
   -1.0643   20.5987   43.2390 H   0  0  0  0  0  0  0  0  0  0  0  0
    0.0014   14.4590   45.6339 H   0  0  0  0  0  0  0  0  0  0  0  0
   -2.1547   16.8094   45.8766 H   0  0  0  0  0  0  0  0  0  0  0  0
   -0.4732   16.2629   46.4124 H   0  0  0  0  0  0  0  0  0  0  0  0
    2.6877   14.0014   39.3331 H   0  0  0  0  0  0  0  0  0  0  0  0
   -2.0333   19.3033   44.6253 H   0  0  0  0  0  0  0  0  0  0  0  0
   -1.4445   18.1539   43.5124 H   0  0  0  0  0  0  0  0  0  0  0  0
  1  6  1  0
  2 11  1  0
  3 24  1  0
  4 17  1  0
  4 18  1  0
  5 13  1  0
  6 17  1  0
  7 20  1  0
  8 23  2  0
 10 21  1  0
 10 22  1  0
 12  7  1  0
 12 11  1  0
 13 26  2  0
 13  2  1  0
 14 27  2  0
 15  1  3  0
 16 14  1  0
 16  5  2  0
 18  9  2  0
 18  7  1  0
 19 22  1  0
 20 25  1  0
 23  5  1  0
 24  8  1  0
 24 16  1  0
 25 19  1  0
 26 12  1  0
 27  4  1  0
 27 26  1  0
  2 28  1  0
  2 29  1  0
  3 30  1  0
  3 31  1  0
  3 32  1  0
  4 33  1  0
  6 34  1  0
  6 35  1  0
  7 36  1  0
  8 37  1  0
 10 38  1  0
 10 39  1  0
 11 40  1  0
 11 41  1  0
 14 42  1  0
 19 43  1  0
 19 44  1  0
 20 45  1  0
 20 46  1  0
 21 47  1  0
 22 48  1  0
 22 49  1  0
 23 50  1  0
 25 51  1  0
 25 52  1  0
M  CHG  1  25   1
M  END
>  <mol_id>  (90) 
2026-08-23-6tgu-s0-n100-prep-0092

>  <rmsd_to_ref>  (90) 


$$$$

     RDKit          3D

 40 42  0  0  0  0  0  0  0  0999 V2000
   -0.5060   15.9760   45.2660 C   0  0  0  0  0  0  0  0  0  0  0  0
    4.2760   15.8050   37.7730 C   0  0  0  0  0  0  0  0  0  0  0  0
    3.1750   20.8080   36.5380 C   0  0  0  0  0  0  0  0  0  0  0  0
    3.2070   16.4080   38.6650 O   0  0  0  0  0  0  0  0  0  0  0  0
   -0.8620   17.2620   45.5800 C   0  0  0  0  0  0  0  0  0  0  0  0
    0.9500   19.3910   41.8200 N   0  0  0  0  0  0  0  0  0  0  0  0
    2.3120   18.2230   39.7900 C   0  0  0  0  0  0  0  0  0  0  0  0
    0.1340   19.2770   42.8420 C   0  0  0  0  0  0  0  0  0  0  0  0
    2.8590   17.7330   38.6410 C   0  0  0  0  0  0  0  0  0  0  0  0
    3.4580   21.4730   35.6260 N   0  0  0  0  0  0  0  0  0  0  0  0
    1.3480   20.1560   40.9730 N   0  0  0  0  0  0  0  0  0  0  0  0
    1.9670   19.6480   39.8210 C   0  0  0  0  0  0  0  0  0  0  0  0
    0.2900   16.7780   43.1140 C   0  0  0  0  0  0  0  0  0  0  0  0
    0.1060   15.7210   43.9960 C   0  0  0  0  0  0  0  0  0  0  0  0
   -0.4710   20.2090   43.5260 C   0  0  0  0  0  0  0  0  0  0  0  0
    2.8470   19.9080   37.6500 C   0  0  0  0  0  0  0  0  0  0  0  0
    3.1380   18.4920   37.4780 C   0  0  0  0  0  0  0  0  0  0  0  0
    3.7820   18.0700   36.4330 O   0  0  0  0  0  0  0  0  0  0  0  0
   -0.0090   18.0300   43.4680 C   0  0  0  0  0  0  0  0  0  0  0  0
    3.7460   13.4060   36.5250 C   0  0  0  0  0  0  0  0  0  0  0  0
    2.2690   20.4910   38.7040 C   0  0  0  0  0  0  0  0  0  0  0  0
   -0.8940   19.5940   44.6720 N   0  0  0  0  0  0  0  0  0  0  0  0
    3.9420   14.5490   37.1330 C   0  0  0  0  0  0  0  0  0  0  0  0
   -0.6360   18.3530   44.7010 C   0  0  0  0  0  0  0  0  0  0  0  0
   -0.6868   15.1553   45.9758 H   0  0  0  0  0  0  0  0  0  0  0  0
    4.5036   16.5346   36.9819 H   0  0  0  0  0  0  0  0  0  0  0  0
    5.1221   15.5799   38.4389 H   0  0  0  0  0  0  0  0  0  0  0  0
   -1.9455   17.2414   45.7686 H   0  0  0  0  0  0  0  0  0  0  0  0
   -0.1719   17.4913   46.4053 H   0  0  0  0  0  0  0  0  0  0  0  0
    2.1362   17.5740   40.6606 H   0  0  0  0  0  0  0  0  0  0  0  0
    0.6884   16.5804   42.1079 H   0  0  0  0  0  0  0  0  0  0  0  0
    0.4251   14.7041   43.7237 H   0  0  0  0  0  0  0  0  0  0  0  0
   -0.6107   21.2625   43.2421 H   0  0  0  0  0  0  0  0  0  0  0  0
    3.9743   17.1047   36.3265 H   0  0  0  0  0  0  0  0  0  0  0  0
    3.6097   12.6113   37.2733 H   0  0  0  0  0  0  0  0  0  0  0  0
    2.8466   13.4750   35.8955 H   0  0  0  0  0  0  0  0  0  0  0  0
    4.6170   13.1714   35.8955 H   0  0  0  0  0  0  0  0  0  0  0  0
    2.0365   21.5661   38.7131 H   0  0  0  0  0  0  0  0  0  0  0  0
    3.1509   15.0308   36.5397 H   0  0  0  0  0  0  0  0  0  0  0  0
    4.1636   14.0136   38.0680 H   0  0  0  0  0  0  0  0  0  0  0  0
  1  5  1  0
  2  4  1  0
  3 16  1  0
  6  8  1  0
  7 12  2  0
  8 19  1  0
  8 15  2  0
  9  4  1  0
  9  7  1  0
 10  3  3  0
 11  6  2  3
 12 11  1  0
 13 19  2  0
 13 14  1  0
 14  1  2  0
 15 22  1  0
 16 21  2  0
 17 16  1  0
 17  9  2  0
 18 17  1  0
 19 24  1  0
 20 23  1  0
 21 12  1  0
 22 24  2  0
 23  2  1  0
 24  5  1  0
  1 25  1  0
  2 26  1  0
  2 27  1  0
  5 28  1  0
  5 29  1  0
  7 30  1  0
 13 31  1  0
 14 32  1  0
 15 33  1  0
 18 34  1  0
 20 35  1  0
 20 36  1  0
 20 37  1  0
 21 38  1  0
 23 39  1  0
 23 40  1  0
M  END
>  <mol_id>  (91) 
2026-08-23-6tgu-s0-n100-prep-0093

>  <rmsd_to_ref>  (91) 


$$$$

     RDKit          3D

 33 34  0  0  0  0  0  0  0  0999 V2000
    0.0210   14.6890   44.2600 C   0  0  0  0  0  0  0  0  0  0  0  0
    2.7310   18.2690   39.3540 N   0  0  0  0  0  0  0  0  0  0  0  0
   -1.3610   20.1760   44.2010 O   0  0  0  0  0  0  0  0  0  0  0  0
    2.9700   19.7740   37.6030 C   0  0  0  0  0  0  0  0  0  0  0  0
    0.1300   16.1630   43.5400 O   0  0  0  0  0  0  0  0  0  0  0  0
    3.6330   20.9180   35.6010 C   0  0  0  0  0  0  0  0  0  0  0  0
    1.8890   20.3920   39.5500 N   0  0  0  0  0  0  0  0  0  0  0  0
    0.3740   17.3890   43.0880 C   0  0  0  0  0  0  0  0  0  0  0  0
    2.3500   20.6930   38.3580 C   0  0  0  0  0  0  0  0  0  0  0  0
    3.2010   18.5560   38.2280 C   0  0  0  0  0  0  0  0  0  0  0  0
    2.0130   19.1990   40.0170 C   0  0  0  0  0  0  0  0  0  0  0  0
   -0.1810   20.2410   42.4810 C   0  0  0  0  0  0  0  0  0  0  0  0
    3.5030   19.9860   36.3760 O   0  0  0  0  0  0  0  0  0  0  0  0
    1.2520   18.8910   41.3040 C   0  0  0  0  0  0  0  0  0  0  0  0
   -0.4720   19.4750   43.4460 C   0  0  0  0  0  0  0  0  0  0  0  0
   -0.6360   15.1910   45.2860 O   0  0  0  0  0  0  0  0  0  0  0  0
    0.3490   19.8430   41.6410 C   0  0  0  0  0  0  0  0  0  0  0  0
    1.1740   17.7070   41.9640 C   0  0  0  0  0  0  0  0  0  0  0  0
   -0.1510   18.3450   43.9360 C   0  0  0  0  0  0  0  0  0  0  0  0
    0.9956   14.2556   44.5289 H   0  0  0  0  0  0  0  0  0  0  0  0
   -0.4120   13.8459   43.7017 H   0  0  0  0  0  0  0  0  0  0  0  0
   -1.7369   19.7739   45.0239 H   0  0  0  0  0  0  0  0  0  0  0  0
    3.7632   21.8513   36.1684 H   0  0  0  0  0  0  0  0  0  0  0  0
    4.5161   20.7478   34.9676 H   0  0  0  0  0  0  0  0  0  0  0  0
    2.7370   20.9959   34.9676 H   0  0  0  0  0  0  0  0  0  0  0  0
    2.2257   21.7156   37.9722 H   0  0  0  0  0  0  0  0  0  0  0  0
    3.8238   17.8101   37.7124 H   0  0  0  0  0  0  0  0  0  0  0  0
   -0.4693   21.3022   42.5057 H   0  0  0  0  0  0  0  0  0  0  0  0
   -0.2231   14.8755   46.1286 H   0  0  0  0  0  0  0  0  0  0  0  0
    0.0605   20.4002   40.7375 H   0  0  0  0  0  0  0  0  0  0  0  0
    1.8097   16.8962   41.5785 H   0  0  0  0  0  0  0  0  0  0  0  0
   -1.0576   17.9167   44.3883 H   0  0  0  0  0  0  0  0  0  0  0  0
    0.6713   18.5736   44.6299 H   0  0  0  0  0  0  0  0  0  0  0  0
  1 16  1  0
  2 11  2  0
  4 10  2  0
  4  9  1  0
  5  1  1  0
  6 13  1  0
  7 11  1  0
  8  5  1  0
  8 19  1  0
  9  7  2  0
 10  2  1  0
 11 14  1  0
 12 15  2  0
 13  4  1  0
 14 17  2  0
 14 18  1  0
 15 19  1  0
 15  3  1  0
 17 12  1  0
 18  8  2  0
  1 20  1  0
  1 21  1  0
  3 22  1  0
  6 23  1  0
  6 24  1  0
  6 25  1  0
  9 26  1  0
 10 27  1  0
 12 28  1  0
 16 29  1  0
 17 30  1  0
 18 31  1  0
 19 32  1  0
 19 33  1  0
M  END
>  <mol_id>  (92) 
2026-08-23-6tgu-s0-n100-prep-0094

>  <rmsd_to_ref>  (92) 


$$$$

     RDKit          3D

 29 31  0  0  0  0  0  0  0  0999 V2000
    2.8670   19.1560   38.3450 C   0  0  0  0  0  0  0  0  0  0  0  0
    1.3680   19.8530   40.6250 C   0  0  0  0  0  0  0  0  0  0  0  0
    1.8830   21.0030   38.6400 C   0  0  0  0  0  0  0  0  0  0  0  0
    2.2850   15.3210   40.3410 C   0  0  0  0  0  0  0  0  0  0  0  0
    1.9650   19.8600   39.3130 C   0  0  0  0  0  0  0  0  0  0  0  0
    1.2710   16.4830   42.1060 C   0  0  0  0  0  0  0  0  0  0  0  0
    3.8150   19.9990   36.2980 O   0  0  0  0  0  0  0  0  0  0  0  0
    0.2870   19.0580   42.6260 N   0  0  0  0  0  0  0  0  0  0  0  0
    2.6610   16.4430   39.8410 N   0  0  0  0  0  0  0  0  0  0  0  0
    1.5660   17.5690   41.3760 N   0  0  0  0  0  0  0  0  0  0  0  0
    2.3320   17.4220   40.2670 C   0  0  0  0  0  0  0  0  0  0  0  0
    1.6410   15.2380   41.5980 C   0  0  0  0  0  0  0  0  0  0  0  0
    0.6130   16.5350   43.0750 O   0  0  0  0  0  0  0  0  0  0  0  0
    3.1500   20.0900   37.2910 C   0  0  0  0  0  0  0  0  0  0  0  0
    2.5970   14.2660   39.6280 N   0  0  0  0  0  0  0  0  0  0  0  0
    0.9310   21.1050   41.0640 C   0  0  0  0  0  0  0  0  0  0  0  0
    0.1920   21.3920   42.3010 C   0  0  0  0  0  0  0  0  0  0  0  0
    2.4970   21.2450   37.6720 N   0  0  0  0  0  0  0  0  0  0  0  0
    1.1110   18.7810   41.4870 C   0  0  0  0  0  0  0  0  0  0  0  0
   -0.2230   20.2520   42.9870 C   0  0  0  0  0  0  0  0  0  0  0  0
    3.2399   18.1243   38.4260 H   0  0  0  0  0  0  0  0  0  0  0  0
    1.1932   21.7726   39.0166 H   0  0  0  0  0  0  0  0  0  0  0  0
    2.6541   18.3363   39.7471 H   0  0  0  0  0  0  0  0  0  0  0  0
    0.7364   14.6218   41.4880 H   0  0  0  0  0  0  0  0  0  0  0  0
    2.3575   14.7948   42.3052 H   0  0  0  0  0  0  0  0  0  0  0  0
    3.0658   14.3797   38.7180 H   0  0  0  0  0  0  0  0  0  0  0  0
    1.1640   21.9639   40.4175 H   0  0  0  0  0  0  0  0  0  0  0  0
   -0.0148   22.4133   42.6535 H   0  0  0  0  0  0  0  0  0  0  0  0
   -0.9525   20.3254   43.8070 H   0  0  0  0  0  0  0  0  0  0  0  0
  1  5  2  0
  2 16  1  0
  2 19  2  0
  3  5  1  0
  4 12  1  0
  5  2  1  0
  6 13  2  0
  7 14  2  0
  8 20  2  0
  9 11  2  0
  9  4  1  0
 10 19  1  0
 10  6  1  0
 11 10  1  0
 12  6  1  0
 14 18  1  0
 14  1  1  0
 15  4  2  3
 16 17  2  0
 17 20  1  0
 18  3  2  0
 19  8  1  0
  1 21  1  0
  3 22  1  0
 11 23  1  0
 12 24  1  0
 12 25  1  0
 15 26  1  0
 16 27  1  0
 17 28  1  0
 20 29  1  0
M  END
>  <mol_id>  (93) 
2026-08-23-6tgu-s0-n100-prep-0095

>  <rmsd_to_ref>  (93) 


$$$$

     RDKit          3D

 36 39  0  0  0  0  0  0  0  0999 V2000
    2.5580   18.3520   39.2430 C   0  0  0  0  0  0  0  0  0  0  0  0
   -0.0470   17.2060   44.2120 N   0  0  0  0  0  0  0  0  0  0  0  0
    0.8180   16.5690   42.0560 C   0  0  0  0  0  0  0  0  0  0  0  0
    0.8910   18.9500   42.5490 C   0  0  0  0  0  0  0  0  0  0  0  0
    2.7580   20.4810   36.9320 O   0  0  0  0  0  0  0  0  0  0  0  0
    4.2660   18.9160   36.9240 C   0  0  0  0  0  0  0  0  0  0  0  0
    0.7370   15.4930   42.5710 O   0  0  0  0  0  0  0  0  0  0  0  0
    4.2300   20.5990   35.2400 O   0  0  0  0  0  0  0  0  0  0  0  0
   -0.5700   17.9600   45.1720 C   0  0  0  0  0  0  0  0  0  0  0  0
    1.3510   19.2920   41.2220 C   0  0  0  0  0  0  0  0  0  0  0  0
    3.7150   20.0790   36.4530 N   0  0  0  0  0  0  0  0  0  0  0  0
    0.2030   17.6290   42.8040 C   0  0  0  0  0  0  0  0  0  0  0  0
   -1.0490   17.4310   46.2770 N   0  0  0  0  0  0  0  0  0  0  0  0
    1.8140   18.2560   40.3560 C   0  0  0  0  0  0  0  0  0  0  0  0
    1.3760   20.5530   40.6480 C   0  0  0  0  0  0  0  0  0  0  0  0
    2.7770   19.9880   38.4660 C   0  0  0  0  0  0  0  0  0  0  0  0
    1.3720   16.9470   40.7880 O   0  0  0  0  0  0  0  0  0  0  0  0
    2.0120   20.8330   39.4890 C   0  0  0  0  0  0  0  0  0  0  0  0
   -0.7310   19.3150   45.0080 N   0  0  0  0  0  0  0  0  0  0  0  0
    3.5560   18.6360   38.2220 C   0  0  0  0  0  0  0  0  0  0  0  0
    2.3049   17.3245   39.5432 H   0  0  0  0  0  0  0  0  0  0  0  0
    0.1842   19.7371   42.8505 H   0  0  0  0  0  0  0  0  0  0  0  0
    1.8269   18.8564   43.1195 H   0  0  0  0  0  0  0  0  0  0  0  0
    5.3452   19.0427   37.0949 H   0  0  0  0  0  0  0  0  0  0  0  0
    4.1517   18.0890   36.2078 H   0  0  0  0  0  0  0  0  0  0  0  0
    4.9123   21.2880   35.4396 H   0  0  0  0  0  0  0  0  0  0  0  0
    2.3718   19.4240   41.6099 H   0  0  0  0  0  0  0  0  0  0  0  0
   -0.8145   17.8390   42.4425 H   0  0  0  0  0  0  0  0  0  0  0  0
   -1.4495   18.0375   47.0068 H   0  0  0  0  0  0  0  0  0  0  0  0
   -1.0235   16.4103   46.4124 H   0  0  0  0  0  0  0  0  0  0  0  0
    0.8997   18.3662   39.7543 H   0  0  0  0  0  0  0  0  0  0  0  0
    0.8499   21.3700   41.1635 H   0  0  0  0  0  0  0  0  0  0  0  0
    1.9715   21.8994   39.2224 H   0  0  0  0  0  0  0  0  0  0  0  0
   -1.1389   19.8806   45.7660 H   0  0  0  0  0  0  0  0  0  0  0  0
   -0.4437   19.7649   44.1271 H   0  0  0  0  0  0  0  0  0  0  0  0
    4.2611   17.7917   38.2281 H   0  0  0  0  0  0  0  0  0  0  0  0
  1 14  1  0
  2  9  2  3
  3  7  2  0
  3 12  1  0
  4 12  1  0
  5 16  1  0
  6 20  1  0
  8 11  1  0
  9 13  1  0
 10  4  1  0
 11  6  1  0
 11  5  1  0
 12  2  1  0
 14 17  1  0
 14 10  1  0
 15 10  1  0
 16  1  1  0
 16 18  1  0
 17  3  1  0
 18 15  2  0
 19  9  1  0
 20 16  1  0
 20  1  1  0
  1 21  1  0
  4 22  1  0
  4 23  1  0
  6 24  1  0
  6 25  1  0
  8 26  1  0
 10 27  1  0
 12 28  1  0
 13 29  1  0
 13 30  1  0
 14 31  1  0
 15 32  1  0
 18 33  1  0
 19 34  1  0
 19 35  1  0
 20 36  1  0
M  END
>  <mol_id>  (94) 
2026-08-23-6tgu-s0-n100-prep-0096

>  <rmsd_to_ref>  (94) 


$$$$

     RDKit          3D

 36 38  0  0  0  0  0  0  0  0999 V2000
    1.4800   16.2610   41.4740 C   0  0  0  0  0  0  0  0  0  0  0  0
    0.5170   19.1950   42.2710 C   0  0  0  0  0  0  0  0  0  0  0  0
    1.9330   20.7860   39.3270 C   0  0  0  0  0  0  0  0  0  0  0  0
    2.3560   19.3840   39.1020 C   0  0  0  0  0  0  0  0  0  0  0  0
    0.7270   16.6840   42.6460 C   0  0  0  0  0  0  0  0  0  0  0  0
    1.2870   20.8220   40.6270 C   0  0  0  0  0  0  0  0  0  0  0  0
    3.1950   17.8750   37.6050 O   0  0  0  0  0  0  0  0  0  0  0  0
   -0.0290   20.1750   42.7900 O   0  0  0  0  0  0  0  0  0  0  0  0
    1.5610   14.9470   41.5680 C   0  0  0  0  0  0  0  0  0  0  0  0
    1.2420   19.4070   41.0300 C   0  0  0  0  0  0  0  0  0  0  0  0
    2.8810   16.0650   39.8310 C   0  0  0  0  0  0  0  0  0  0  0  0
    0.4950   15.5440   43.4470 O   0  0  0  0  0  0  0  0  0  0  0  0
   -0.9340   17.8510   43.9030 C   0  0  0  0  0  0  0  0  0  0  0  0
    2.0870   17.0070   40.4790 C   0  0  0  0  0  0  0  0  0  0  0  0
    2.9760   19.0740   37.8680 C   0  0  0  0  0  0  0  0  0  0  0  0
    0.3550   17.9230   43.0900 C   0  0  0  0  0  0  0  0  0  0  0  0
    3.7870   20.1670   36.0850 O   0  0  0  0  0  0  0  0  0  0  0  0
    3.2710   20.0290   37.0500 N   0  0  0  0  0  0  0  0  0  0  0  0
    1.9300   18.4670   40.2540 C   0  0  0  0  0  0  0  0  0  0  0  0
    3.0100   14.7690   40.2280 C   0  0  0  0  0  0  0  0  0  0  0  0
    2.4030   13.9830   41.2290 C   0  0  0  0  0  0  0  0  0  0  0  0
    2.0797   21.6345   38.6425 H   0  0  0  0  0  0  0  0  0  0  0  0
    1.6624   16.7592   43.2199 H   0  0  0  0  0  0  0  0  0  0  0  0
    1.8758   21.4155   41.3419 H   0  0  0  0  0  0  0  0  0  0  0  0
    0.2919   21.2899   40.5972 H   0  0  0  0  0  0  0  0  0  0  0  0
    1.4629   14.7910   42.6525 H   0  0  0  0  0  0  0  0  0  0  0  0
    0.9160   14.7799   40.6927 H   0  0  0  0  0  0  0  0  0  0  0  0
    3.4403   16.3885   38.9408 H   0  0  0  0  0  0  0  0  0  0  0  0
    0.5464   15.7963   44.4029 H   0  0  0  0  0  0  0  0  0  0  0  0
   -0.6920   17.8645   44.9760 H   0  0  0  0  0  0  0  0  0  0  0  0
   -1.5698   18.7150   43.6596 H   0  0  0  0  0  0  0  0  0  0  0  0
   -1.4696   16.9215   43.6596 H   0  0  0  0  0  0  0  0  0  0  0  0
    1.2347   18.1438   43.7124 H   0  0  0  0  0  0  0  0  0  0  0  0
    3.7519   14.2119   39.6371 H   0  0  0  0  0  0  0  0  0  0  0  0
    1.9045   13.0840   40.8375 H   0  0  0  0  0  0  0  0  0  0  0  0
    3.0363   13.5328   42.0077 H   0  0  0  0  0  0  0  0  0  0  0  0
  1  9  1  0
  1  5  1  0
  2  8  2  0
  2 16  1  0
  3  6  1  0
  4  3  2  0
  4 19  1  0
  5 16  1  0
  5 12  1  0
  6 10  1  0
  7 15  2  0
 10  2  1  0
 11 20  2  0
 11 14  1  0
 14  1  2  0
 15  4  1  0
 16 13  1  0
 17 18  2  0
 18 15  1  0
 19 14  1  0
 19 10  2  0
 20 21  1  0
 21  9  1  0
  3 22  1  0
  5 23  1  0
  6 24  1  0
  6 25  1  0
  9 26  1  0
  9 27  1  0
 11 28  1  0
 12 29  1  0
 13 30  1  0
 13 31  1  0
 13 32  1  0
 16 33  1  0
 20 34  1  0
 21 35  1  0
 21 36  1  0
M  END
>  <mol_id>  (95) 
2026-08-23-6tgu-s0-n100-prep-0097

>  <rmsd_to_ref>  (95) 


$$$$

     RDKit          3D

 30 32  0  0  0  0  0  0  0  0999 V2000
    2.0940   16.7180   40.5320 C   0  0  0  0  0  0  0  0  0  0  0  0
    1.0870   18.2220   41.6320 C   0  0  0  0  0  0  0  0  0  0  0  0
    1.5620   16.1280   41.6380 N   0  0  0  0  0  0  0  0  0  0  0  0
    1.9170   18.0220   40.4930 C   0  0  0  0  0  0  0  0  0  0  0  0
    2.2130   18.9480   39.4920 C   0  0  0  0  0  0  0  0  0  0  0  0
    0.0560   16.7980   43.4160 C   0  0  0  0  0  0  0  0  0  0  0  0
   -0.1360   19.8840   43.0770 C   0  0  0  0  0  0  0  0  0  0  0  0
    2.8160   15.8980   39.8320 C   0  0  0  0  0  0  0  0  0  0  0  0
    3.3740   20.1430   36.2460 O   0  0  0  0  0  0  0  0  0  0  0  0
    2.3060   20.8410   38.1740 C   0  0  0  0  0  0  0  0  0  0  0  0
    2.9580   20.0090   37.3820 C   0  0  0  0  0  0  0  0  0  0  0  0
    0.6950   19.5580   41.9760 N   0  0  0  0  0  0  0  0  0  0  0  0
   -0.4070   20.4800   41.7140 C   0  0  0  0  0  0  0  0  0  0  0  0
    1.9920   20.2980   39.3840 C   0  0  0  0  0  0  0  0  0  0  0  0
    0.9460   17.0240   42.2450 C   0  0  0  0  0  0  0  0  0  0  0  0
    3.1030   18.5560   38.1550 S   0  0  0  0  0  0  0  0  0  0  0  0
    1.6511   15.1403   41.9162 H   0  0  0  0  0  0  0  0  0  0  0  0
    1.2385   18.7508   39.0214 H   0  0  0  0  0  0  0  0  0  0  0  0
    0.6277   16.9432   44.3445 H   0  0  0  0  0  0  0  0  0  0  0  0
   -0.7798   17.5124   43.3846 H   0  0  0  0  0  0  0  0  0  0  0  0
   -0.3377   15.7714   43.3846 H   0  0  0  0  0  0  0  0  0  0  0  0
   -0.8192   19.1294   43.4939 H   0  0  0  0  0  0  0  0  0  0  0  0
    0.0302   20.2893   44.0860 H   0  0  0  0  0  0  0  0  0  0  0  0
    3.3897   15.2464   40.5074 H   0  0  0  0  0  0  0  0  0  0  0  0
    2.1611   15.2827   39.1976 H   0  0  0  0  0  0  0  0  0  0  0  0
    3.5092   16.4698   39.1976 H   0  0  0  0  0  0  0  0  0  0  0  0
    2.0427   21.8694   37.8858 H   0  0  0  0  0  0  0  0  0  0  0  0
   -0.2101   21.5449   41.5211 H   0  0  0  0  0  0  0  0  0  0  0  0
   -1.2595   20.5239   41.0203 H   0  0  0  0  0  0  0  0  0  0  0  0
    1.5906   20.8983   40.2137 H   0  0  0  0  0  0  0  0  0  0  0  0
  1  3  1  0
  2 12  1  0
  2 15  2  0
  3 15  1  0
  4  1  2  0
  4  2  1  0
  5  4  1  0
  8  1  1  0
  9 11  2  0
 10 14  2  0
 11 16  1  0
 11 10  1  0
 12  7  1  0
 13 12  1  0
 13  7  1  0
 14  5  1  0
 15  6  1  0
 16  5  1  0
  3 17  1  0
  5 18  1  0
  6 19  1  0
  6 20  1  0
  6 21  1  0
  7 22  1  0
  7 23  1  0
  8 24  1  0
  8 25  1  0
  8 26  1  0
 10 27  1  0
 13 28  1  0
 13 29  1  0
 14 30  1  0
M  END
>  <mol_id>  (96) 
2026-08-23-6tgu-s0-n100-prep-0098

>  <rmsd_to_ref>  (96) 


$$$$

     RDKit          3D

 24 26  0  0  0  0  0  0  0  0999 V2000
    3.6540   19.2200   36.8010 N   0  0  0  0  0  0  0  0  0  0  0  0
    2.5940   16.7840   39.9330 C   0  0  0  0  0  0  0  0  0  0  0  0
    0.5460   18.7210   42.2490 C   0  0  0  0  0  0  0  0  0  0  0  0
    1.2700   21.5850   40.3110 O   0  0  0  0  0  0  0  0  0  0  0  0
    2.4860   19.0730   39.0740 C   0  0  0  0  0  0  0  0  0  0  0  0
   -0.4270   18.5950   44.2840 C   0  0  0  0  0  0  0  0  0  0  0  0
    2.9320   17.7460   38.9920 C   0  0  0  0  0  0  0  0  0  0  0  0
    2.5120   20.9030   37.4580 O   0  0  0  0  0  0  0  0  0  0  0  0
    1.3200   18.3380   41.1400 C   0  0  0  0  0  0  0  0  0  0  0  0
    1.7080   19.3160   40.3010 C   0  0  0  0  0  0  0  0  0  0  0  0
    1.7650   17.0410   41.0270 C   0  0  0  0  0  0  0  0  0  0  0  0
   -0.8420   19.9250   44.0630 N   0  0  0  0  0  0  0  0  0  0  0  0
    1.0060   20.5270   40.9310 C   0  0  0  0  0  0  0  0  0  0  0  0
    2.8570   19.7990   37.7140 C   0  0  0  0  0  0  0  0  0  0  0  0
    0.3600   20.0500   42.1230 C   0  0  0  0  0  0  0  0  0  0  0  0
    0.2210   17.9140   43.3080 N   0  0  0  0  0  0  0  0  0  0  0  0
   -0.4190   20.7140   43.0570 C   0  0  0  0  0  0  0  0  0  0  0  0
    3.9966   18.2603   36.9510 H   0  0  0  0  0  0  0  0  0  0  0  0
    3.9226   19.7357   35.9508 H   0  0  0  0  0  0  0  0  0  0  0  0
    2.9991   15.7686   39.8112 H   0  0  0  0  0  0  0  0  0  0  0  0
   -0.6298   18.1099   45.2502 H   0  0  0  0  0  0  0  0  0  0  0  0
    3.5754   17.4563   38.1481 H   0  0  0  0  0  0  0  0  0  0  0  0
    1.4867   16.2595   41.7494 H   0  0  0  0  0  0  0  0  0  0  0  0
   -0.6680   21.7829   42.9837 H   0  0  0  0  0  0  0  0  0  0  0  0
  1 14  1  0
  2 11  2  0
  3 16  2  0
  4 13  2  0
  5 10  1  0
  7  5  2  0
  7  2  1  0
  8 14  2  0
  9  3  1  0
 10 13  1  0
 10  9  2  0
 11  9  1  0
 12  6  2  0
 13 15  1  0
 14  5  1  0
 15  3  1  0
 15 17  2  0
 16  6  1  0
 17 12  1  0
  1 18  1  0
  1 19  1  0
  2 20  1  0
  6 21  1  0
  7 22  1  0
 11 23  1  0
 17 24  1  0
M  END
>  <mol_id>  (97) 
2026-08-23-6tgu-s0-n100-prep-0099

>  <rmsd_to_ref>  (97) 


$$$$

     RDKit          3D

 25 25  0  0  0  0  0  0  0  0999 V2000
    2.2120   18.9800   40.0810 C   0  0  0  0  0  0  0  0  0  0  0  0
    1.7400   18.1440   41.1890 C   0  0  0  0  0  0  0  0  0  0  0  0
    2.9880   18.5560   38.8870 C   0  0  0  0  0  0  0  0  0  0  0  0
    3.7780   18.8950   36.7790 O   0  0  0  0  0  0  0  0  0  0  0  0
    2.4690   20.5000   37.4440 O   0  0  0  0  0  1  0  0  0  0  0  0
    3.0940   19.4270   37.6820 C   0  0  0  0  0  0  0  0  0  0  0  0
    0.9250   20.8190   41.0150 C   0  0  0  0  0  0  0  0  0  0  0  0
   -0.8240   21.6890   43.2540 O   0  0  0  0  0  0  0  0  0  0  0  0
   -0.8160   17.8020   44.0080 C   0  0  0  0  0  0  0  0  0  0  0  0
    0.7940   18.6540   42.1250 C   0  0  0  0  0  0  0  0  0  0  0  0
   -1.0390   20.5110   42.5270 C   0  0  0  0  0  0  0  0  0  0  0  0
    0.3690   17.8540   43.1760 O   0  0  0  0  0  0  0  0  0  0  0  0
    0.2870   19.9920   41.9340 C   0  0  0  0  0  0  0  0  0  0  0  0
    1.9310   20.3770   40.0950 C   0  0  0  0  0  0  0  0  0  0  0  0
    2.1183   17.1169   41.2986 H   0  0  0  0  0  0  0  0  0  0  0  0
    4.0168   18.3761   39.2323 H   0  0  0  0  0  0  0  0  0  0  0  0
    2.4030   17.7026   38.5134 H   0  0  0  0  0  0  0  0  0  0  0  0
    0.6387   21.8809   40.9931 H   0  0  0  0  0  0  0  0  0  0  0  0
   -0.8603   21.4900   44.2231 H   0  0  0  0  0  0  0  0  0  0  0  0
   -0.5209   17.8149   45.0676 H   0  0  0  0  0  0  0  0  0  0  0  0
   -1.4528   18.6731   43.7940 H   0  0  0  0  0  0  0  0  0  0  0  0
   -1.3740   16.8785   43.7940 H   0  0  0  0  0  0  0  0  0  0  0  0
   -1.4610   19.7455   43.1948 H   0  0  0  0  0  0  0  0  0  0  0  0
   -1.7374   20.7234   41.7042 H   0  0  0  0  0  0  0  0  0  0  0  0
    2.4590   21.0798   39.4338 H   0  0  0  0  0  0  0  0  0  0  0  0
  1 14  2  0
  1  2  1  0
  2 10  2  0
  3  1  1  0
  4  6  2  0
  5  6  1  0
  6  3  1  0
  7 13  2  0
 10 12  1  0
 11  8  1  0
 12  9  1  0
 13 10  1  0
 13 11  1  0
 14  7  1  0
  2 15  1  0
  3 16  1  0
  3 17  1  0
  7 18  1  0
  8 19  1  0
  9 20  1  0
  9 21  1  0
  9 22  1  0
 11 23  1  0
 11 24  1  0
 14 25  1  0
M  CHG  1   5  -1
M  END
>  <mol_id>  (98) 
2026-08-23-6tgu-s0-n100-prep-0100

>  <rmsd_to_ref>  (98) 


$$$$
