6tgu.A
     RDKit          3D

 32 34  0  0  0  0  0  0  0  0999 V2000
    3.2704   20.0816   36.9100 C   0  0  0  0  0  0  0  0  0  0  0  0
    2.7239   19.8375   38.3194 C   0  0  0  0  0  0  0  0  0  0  0  0
    1.9745   20.8172   38.9669 C   0  0  0  0  0  0  0  0  0  0  0  0
    1.3019   20.5646   40.1670 C   0  0  0  0  0  0  0  0  0  0  0  0
    1.5079   19.3565   40.8488 C   0  0  0  0  0  0  0  0  0  0  0  0
    0.4444   17.8615   42.6087 C   0  0  0  0  0  0  0  0  0  0  0  0
    0.4288   15.6073   42.9153 C   0  0  0  0  0  0  0  0  0  0  0  0
    0.8553   14.2304   42.6635 C   0  0  0  0  0  0  0  0  0  0  0  0
    0.2328   13.1351   43.2790 C   0  0  0  0  0  0  0  0  0  0  0  0
    0.6322   11.8319   42.9995 C   0  0  0  0  0  0  0  0  0  0  0  0
    1.6306   11.6302   42.0652 C   0  0  0  0  0  0  0  0  0  0  0  0
    2.2690   12.6840   41.4288 C   0  0  0  0  0  0  0  0  0  0  0  0
    1.8629   13.9810   41.7304 C   0  0  0  0  0  0  0  0  0  0  0  0
   -0.5843   15.9508   43.7709 C   0  0  0  0  0  0  0  0  0  0  0  0
    2.2504   18.3557   40.2060 C   0  0  0  0  0  0  0  0  0  0  0  0
    2.8437   18.6148   38.9691 C   0  0  0  0  0  0  0  0  0  0  0  0
    0.7803   19.0569   42.0413 N   0  0  0  0  0  0  0  0  0  0  0  0
    0.9791   16.6716   42.1626 N   0  0  0  0  0  0  0  0  0  0  0  0
    2.8674   21.1275   36.3211 O   0  0  0  0  0  0  0  0  0  0  0  0
    4.0035   19.1925   36.4244 O   0  0  0  0  0  0  0  0  0  0  0  0
    3.4800   17.5959   38.3007 O   0  0  0  0  0  0  0  0  0  0  0  0
   -0.9334   17.6347   43.6687 S   0  0  0  0  0  0  0  0  0  0  0  0
    2.1103   10.0114   41.6767 Cl  0  0  0  0  0  0  0  0  0  0  0  0
    1.9097   21.8205   38.5206 H   0  0  0  0  0  0  0  0  0  0  0  0
    0.6099   21.3151   40.5769 H   0  0  0  0  0  0  0  0  0  0  0  0
   -0.5845   13.3089   43.9944 H   0  0  0  0  0  0  0  0  0  0  0  0
    0.1628   10.9792   43.5119 H   0  0  0  0  0  0  0  0  0  0  0  0
    3.0758   12.4998   40.7041 H   0  0  0  0  0  0  0  0  0  0  0  0
    2.3468   14.8280   41.2221 H   0  0  0  0  0  0  0  0  0  0  0  0
   -1.1055   15.2454   44.4348 H   0  0  0  0  0  0  0  0  0  0  0  0
    2.3653   17.3677   40.6757 H   0  0  0  0  0  0  0  0  0  0  0  0
    0.4535   19.8836   42.5615 H   0  0  0  0  0  0  0  0  0  0  0  0
  1  2  1  0
  1 19  1  0
  1 20  2  0
  2  3  1  0
  2 16  2  0
  3  4  2  0
  4  5  1  0
  5 15  2  0
  5 17  1  0
  6 17  1  0
  6 18  2  0
  6 22  1  0
  7  8  1  0
  7 14  2  0
  7 18  1  0
  8  9  1  0
  8 13  2  0
  9 10  2  0
 10 11  1  0
 11 12  2  0
 11 23  1  0
 12 13  1  0
 14 22  1  0
 15 16  1  0
 16 21  1  0
  3 24  1  0
  4 25  1  0
  9 26  1  0
 10 27  1  0
 12 28  1  0
 13 29  1  0
 14 30  1  0
 15 31  1  0
 17 32  1  0
M  CHG  2  19  -1  21  -1
M  END
>  <mol_id>  (1) 
2026-08-24-6tgu-s0-n100-0001

>  <rmsd_to_ref>  (1) 
0.0

>  <pose_kind>  (1) 
native

$$$$
6tgu.A
     RDKit          3D

 32 34  0  0  0  0  0  0  0  0999 V2000
    2.9216   20.2785   37.1226 C   0  0  0  0  0  0  0  0  0  0  0  0
    2.3769   19.9206   38.5082 C   0  0  0  0  0  0  0  0  0  0  0  0
    1.4821   20.7686   39.1570 C   0  0  0  0  0  0  0  0  0  0  0  0
    0.8193   20.3910   40.3294 C   0  0  0  0  0  0  0  0  0  0  0  0
    1.1723   19.2035   40.9866 C   0  0  0  0  0  0  0  0  0  0  0  0
    0.2796   17.5258   42.6753 C   0  0  0  0  0  0  0  0  0  0  0  0
    0.5681   15.2829   42.9245 C   0  0  0  0  0  0  0  0  0  0  0  0
    1.1876   13.9858   42.6513 C   0  0  0  0  0  0  0  0  0  0  0  0
    0.7066   12.7978   43.2199 C   0  0  0  0  0  0  0  0  0  0  0  0
    1.2898   11.5706   42.9200 C   0  0  0  0  0  0  0  0  0  0  0  0
    2.3310   11.5355   42.0117 C   0  0  0  0  0  0  0  0  0  0  0  0
    2.8341   12.6852   41.4216 C   0  0  0  0  0  0  0  0  0  0  0  0
    2.2445   13.9047   41.7432 C   0  0  0  0  0  0  0  0  0  0  0  0
   -0.5052   15.4587   43.7574 C   0  0  0  0  0  0  0  0  0  0  0  0
    2.0631   18.3335   40.3417 C   0  0  0  0  0  0  0  0  0  0  0  0
    2.6475   18.7077   39.1303 C   0  0  0  0  0  0  0  0  0  0  0  0
    0.4618   18.7720   42.1486 N   0  0  0  0  0  0  0  0  0  0  0  0
    0.9856   16.4343   42.2159 N   0  0  0  0  0  0  0  0  0  0  0  0
    2.3935   21.2757   36.5482 O   0  0  0  0  0  0  0  0  0  0  0  0
    3.7834   19.5133   36.6373 O   0  0  0  0  0  0  0  0  0  0  0  0
    3.4362   17.8059   38.4561 O   0  0  0  0  0  0  0  0  0  0  0  0
   -1.0812   17.0807   43.6869 S   0  0  0  0  0  0  0  0  0  0  0  0
    3.0404   10.0102   41.5973 Cl  0  0  0  0  0  0  0  0  0  0  0  0
    1.2910   21.7660   38.7343 H   0  0  0  0  0  0  0  0  0  0  0  0
    0.0195   21.0269   40.7368 H   0  0  0  0  0  0  0  0  0  0  0  0
   -0.1457   12.8365   43.9143 H   0  0  0  0  0  0  0  0  0  0  0  0
    0.9295   10.6469   43.3963 H   0  0  0  0  0  0  0  0  0  0  0  0
    3.6776   12.6350   40.7173 H   0  0  0  0  0  0  0  0  0  0  0  0
    2.6198   14.8247   41.2713 H   0  0  0  0  0  0  0  0  0  0  0  0
   -0.9412   14.6692   44.3872 H   0  0  0  0  0  0  0  0  0  0  0  0
    2.3011   17.3575   40.7897 H   0  0  0  0  0  0  0  0  0  0  0  0
    0.0100   19.5304   42.6792 H   0  0  0  0  0  0  0  0  0  0  0  0
  1  2  1  0
  1 19  1  0
  1 20  2  0
  2  3  1  0
  2 16  2  0
  3  4  2  0
  4  5  1  0
  5 15  2  0
  5 17  1  0
  6 17  1  0
  6 18  2  0
  6 22  1  0
  7  8  1  0
  7 14  2  0
  7 18  1  0
  8  9  1  0
  8 13  2  0
  9 10  2  0
 10 11  1  0
 11 12  2  0
 11 23  1  0
 12 13  1  0
 14 22  1  0
 15 16  1  0
 16 21  1  0
  3 24  1  0
  4 25  1  0
  9 26  1  0
 10 27  1  0
 12 28  1  0
 13 29  1  0
 14 30  1  0
 15 31  1  0
 17 32  1  0
M  CHG  2  19  -1  21  -1
M  END
>  <mol_id>  (2) 
2026-08-24-6tgu-s0-n100-0002

>  <rmsd_to_ref>  (2) 
0.500000000006276

>  <pose_kind>  (2) 
rigid

$$$$
6tgu.A
     RDKit          3D

 32 34  0  0  0  0  0  0  0  0999 V2000
    3.0017   20.3945   37.2328 C   0  0  0  0  0  0  0  0  0  0  0  0
    2.5711   19.9941   38.6466 C   0  0  0  0  0  0  0  0  0  0  0  0
    1.9656   20.9220   39.4910 C   0  0  0  0  0  0  0  0  0  0  0  0
    1.3897   20.5505   40.7104 C   0  0  0  0  0  0  0  0  0  0  0  0
    1.5615   19.2486   41.2026 C   0  0  0  0  0  0  0  0  0  0  0  0
    0.5510   17.5978   42.8509 C   0  0  0  0  0  0  0  0  0  0  0  0
    0.3847   15.3289   42.8585 C   0  0  0  0  0  0  0  0  0  0  0  0
    0.6750   13.9750   42.3853 C   0  0  0  0  0  0  0  0  0  0  0  0
    0.0274   12.8486   42.9124 C   0  0  0  0  0  0  0  0  0  0  0  0
    0.2941   11.5731   42.4244 C   0  0  0  0  0  0  0  0  0  0  0  0
    1.1819   11.4373   41.3738 C   0  0  0  0  0  0  0  0  0  0  0  0
    1.8401   12.5245   40.8191 C   0  0  0  0  0  0  0  0  0  0  0  0
    1.5683   13.7912   41.3288 C   0  0  0  0  0  0  0  0  0  0  0  0
   -0.5138   15.6167   43.8516 C   0  0  0  0  0  0  0  0  0  0  0  0
    2.1590   18.2996   40.3608 C   0  0  0  0  0  0  0  0  0  0  0  0
    2.6533   18.6879   39.1142 C   0  0  0  0  0  0  0  0  0  0  0  0
    0.9266   18.8354   42.4139 N   0  0  0  0  0  0  0  0  0  0  0  0
    0.9455   16.4484   42.1996 N   0  0  0  0  0  0  0  0  0  0  0  0
    2.6301   21.5363   36.8311 O   0  0  0  0  0  0  0  0  0  0  0  0
    3.6134   19.5347   36.5616 O   0  0  0  0  0  0  0  0  0  0  0  0
    3.1415   17.7316   38.2557 O   0  0  0  0  0  0  0  0  0  0  0  0
   -0.7358   17.3179   44.0081 S   0  0  0  0  0  0  0  0  0  0  0  0
    1.4931    9.8598   40.7286 Cl  0  0  0  0  0  0  0  0  0  0  0  0
    1.9395   21.9795   39.1895 H   0  0  0  0  0  0  0  0  0  0  0  0
    0.8008   21.2811   41.2844 H   0  0  0  0  0  0  0  0  0  0  0  0
   -0.7033   12.9752   43.7248 H   0  0  0  0  0  0  0  0  0  0  0  0
   -0.1919   10.6906   42.8658 H   0  0  0  0  0  0  0  0  0  0  0  0
    2.5587   12.3895   39.9972 H   0  0  0  0  0  0  0  0  0  0  0  0
    2.0687   14.6666   40.8890 H   0  0  0  0  0  0  0  0  0  0  0  0
   -1.0254   14.8622   44.4672 H   0  0  0  0  0  0  0  0  0  0  0  0
    2.2381   17.2506   40.6822 H   0  0  0  0  0  0  0  0  0  0  0  0
    0.7165   19.6018   43.0692 H   0  0  0  0  0  0  0  0  0  0  0  0
  1  2  1  0
  1 19  1  0
  1 20  2  0
  2  3  1  0
  2 16  2  0
  3  4  2  0
  4  5  1  0
  5 15  2  0
  5 17  1  0
  6 17  1  0
  6 18  2  0
  6 22  1  0
  7  8  1  0
  7 14  2  0
  7 18  1  0
  8  9  1  0
  8 13  2  0
  9 10  2  0
 10 11  1  0
 11 12  2  0
 11 23  1  0
 12 13  1  0
 14 22  1  0
 15 16  1  0
 16 21  1  0
  3 24  1  0
  4 25  1  0
  9 26  1  0
 10 27  1  0
 12 28  1  0
 13 29  1  0
 14 30  1  0
 15 31  1  0
 17 32  1  0
M  CHG  2  19  -1  21  -1
M  END
>  <mol_id>  (3) 
2026-08-24-6tgu-s0-n100-0003

>  <rmsd_to_ref>  (3) 
0.5459183673493461

>  <pose_kind>  (3) 
rigid

$$$$
6tgu.A
     RDKit          3D

 32 34  0  0  0  0  0  0  0  0999 V2000
    3.4136   19.3893   36.5187 C   0  0  0  0  0  0  0  0  0  0  0  0
    2.8417   19.3558   37.9387 C   0  0  0  0  0  0  0  0  0  0  0  0
    2.1540   20.4540   38.4502 C   0  0  0  0  0  0  0  0  0  0  0  0
    1.4571   20.3946   39.6616 C   0  0  0  0  0  0  0  0  0  0  0  0
    1.5776   19.2685   40.4886 C   0  0  0  0  0  0  0  0  0  0  0  0
    0.4043   18.0727   42.4009 C   0  0  0  0  0  0  0  0  0  0  0  0
    0.2372   15.8789   42.9797 C   0  0  0  0  0  0  0  0  0  0  0  0
    0.5734   14.4568   42.9042 C   0  0  0  0  0  0  0  0  0  0  0  0
   -0.1248   13.4879   43.6389 C   0  0  0  0  0  0  0  0  0  0  0  0
    0.1895   12.1371   43.5265 C   0  0  0  0  0  0  0  0  0  0  0  0
    1.1793   11.7581   42.6394 C   0  0  0  0  0  0  0  0  0  0  0  0
    1.8908   12.6823   41.8893 C   0  0  0  0  0  0  0  0  0  0  0  0
    1.5692   14.0301   42.0242 C   0  0  0  0  0  0  0  0  0  0  0  0
   -0.7574   16.3897   43.7712 C   0  0  0  0  0  0  0  0  0  0  0  0
    2.2570   18.1504   39.9842 C   0  0  0  0  0  0  0  0  0  0  0  0
    2.8754   18.2169   38.7343 C   0  0  0  0  0  0  0  0  0  0  0  0
    0.8228   19.1652   41.6973 N   0  0  0  0  0  0  0  0  0  0  0  0
    0.8623   16.8049   42.1115 N   0  0  0  0  0  0  0  0  0  0  0  0
    3.0852   20.3790   35.8005 O   0  0  0  0  0  0  0  0  0  0  0  0
    4.0899   18.4017   36.1565 O   0  0  0  0  0  0  0  0  0  0  0  0
    3.4478   17.0846   38.2051 O   0  0  0  0  0  0  0  0  0  0  0  0
   -0.9934   18.0674   43.4591 S   0  0  0  0  0  0  0  0  0  0  0  0
    1.5536   10.0762   42.4586 Cl  0  0  0  0  0  0  0  0  0  0  0  0
    2.1591   21.3971   37.8840 H   0  0  0  0  0  0  0  0  0  0  0  0
    0.8134   21.2330   39.9661 H   0  0  0  0  0  0  0  0  0  0  0  0
   -0.9342   13.8007   44.3150 H   0  0  0  0  0  0  0  0  0  0  0  0
   -0.3392   11.3859   44.1317 H   0  0  0  0  0  0  0  0  0  0  0  0
    2.6890   12.3587   41.2051 H   0  0  0  0  0  0  0  0  0  0  0  0
    2.1120   14.7752   41.4241 H   0  0  0  0  0  0  0  0  0  0  0  0
   -1.3291   15.8063   44.5079 H   0  0  0  0  0  0  0  0  0  0  0  0
    2.3026   17.2221   40.5726 H   0  0  0  0  0  0  0  0  0  0  0  0
    0.5476   20.0689   42.1078 H   0  0  0  0  0  0  0  0  0  0  0  0
  1  2  1  0
  1 19  1  0
  1 20  2  0
  2  3  1  0
  2 16  2  0
  3  4  2  0
  4  5  1  0
  5 15  2  0
  5 17  1  0
  6 17  1  0
  6 18  2  0
  6 22  1  0
  7  8  1  0
  7 14  2  0
  7 18  1  0
  8  9  1  0
  8 13  2  0
  9 10  2  0
 10 11  1  0
 11 12  2  0
 11 23  1  0
 12 13  1  0
 14 22  1  0
 15 16  1  0
 16 21  1  0
  3 24  1  0
  4 25  1  0
  9 26  1  0
 10 27  1  0
 12 28  1  0
 13 29  1  0
 14 30  1  0
 15 31  1  0
 17 32  1  0
M  CHG  2  19  -1  21  -1
M  END
>  <mol_id>  (4) 
2026-08-24-6tgu-s0-n100-0004

>  <rmsd_to_ref>  (4) 
0.5918367346942088

>  <pose_kind>  (4) 
rigid

$$$$
6tgu.A
     RDKit          3D

 32 34  0  0  0  0  0  0  0  0999 V2000
    2.6959   20.2923   36.9825 C   0  0  0  0  0  0  0  0  0  0  0  0
    2.4648   19.9311   38.4524 C   0  0  0  0  0  0  0  0  0  0  0  0
    1.9135   20.8611   39.3310 C   0  0  0  0  0  0  0  0  0  0  0  0
    1.5131   20.5126   40.6251 C   0  0  0  0  0  0  0  0  0  0  0  0
    1.8192   19.2443   41.1393 C   0  0  0  0  0  0  0  0  0  0  0  0
    1.1150   17.6149   42.9593 C   0  0  0  0  0  0  0  0  0  0  0  0
    1.0836   15.3428   43.0702 C   0  0  0  0  0  0  0  0  0  0  0  0
    1.3926   13.9871   42.6143 C   0  0  0  0  0  0  0  0  0  0  0  0
    0.8808   12.8516   43.2583 C   0  0  0  0  0  0  0  0  0  0  0  0
    1.1601   11.5723   42.7879 C   0  0  0  0  0  0  0  0  0  0  0  0
    1.9198   11.4386   41.6410 C   0  0  0  0  0  0  0  0  0  0  0  0
    2.4409   12.5344   40.9696 C   0  0  0  0  0  0  0  0  0  0  0  0
    2.1598   13.8057   41.4625 C   0  0  0  0  0  0  0  0  0  0  0  0
    0.2975   15.6250   44.1559 C   0  0  0  0  0  0  0  0  0  0  0  0
    2.3641   18.2930   40.2651 C   0  0  0  0  0  0  0  0  0  0  0  0
    2.6794   18.6527   38.9535 C   0  0  0  0  0  0  0  0  0  0  0  0
    1.3618   18.8507   42.4343 N   0  0  0  0  0  0  0  0  0  0  0  0
    1.4936   16.4611   42.3064 N   0  0  0  0  0  0  0  0  0  0  0  0
    2.2122   21.3941   36.5886 O   0  0  0  0  0  0  0  0  0  0  0  0
    3.2704   19.4382   36.2724 O   0  0  0  0  0  0  0  0  0  0  0  0
    3.1144   17.6876   38.0765 O   0  0  0  0  0  0  0  0  0  0  0  0
   -0.0027   17.3171   44.2766 S   0  0  0  0  0  0  0  0  0  0  0  0
    2.2416    9.8536   41.0201 Cl  0  0  0  0  0  0  0  0  0  0  0  0
    1.7893   21.9017   38.9967 H   0  0  0  0  0  0  0  0  0  0  0  0
    0.9569   21.2349   41.2407 H   0  0  0  0  0  0  0  0  0  0  0  0
    0.2483   12.9742   44.1499 H   0  0  0  0  0  0  0  0  0  0  0  0
    0.7838   10.6850   43.3181 H   0  0  0  0  0  0  0  0  0  0  0  0
    3.0607   12.4025   40.0705 H   0  0  0  0  0  0  0  0  0  0  0  0
    2.5509   14.6867   40.9325 H   0  0  0  0  0  0  0  0  0  0  0  0
   -0.0904   14.8716   44.8572 H   0  0  0  0  0  0  0  0  0  0  0  0
    2.5429   17.2647   40.6122 H   0  0  0  0  0  0  0  0  0  0  0  0
    1.1886   19.6325   43.0822 H   0  0  0  0  0  0  0  0  0  0  0  0
  1  2  1  0
  1 19  1  0
  1 20  2  0
  2  3  1  0
  2 16  2  0
  3  4  2  0
  4  5  1  0
  5 15  2  0
  5 17  1  0
  6 17  1  0
  6 18  2  0
  6 22  1  0
  7  8  1  0
  7 14  2  0
  7 18  1  0
  8  9  1  0
  8 13  2  0
  9 10  2  0
 10 11  1  0
 11 12  2  0
 11 23  1  0
 12 13  1  0
 14 22  1  0
 15 16  1  0
 16 21  1  0
  3 24  1  0
  4 25  1  0
  9 26  1  0
 10 27  1  0
 12 28  1  0
 13 29  1  0
 14 30  1  0
 15 31  1  0
 17 32  1  0
M  CHG  2  19  -1  21  -1
M  END
>  <mol_id>  (5) 
2026-08-24-6tgu-s0-n100-0005

>  <rmsd_to_ref>  (5) 
0.6377551020449385

>  <pose_kind>  (5) 
rigid

$$$$
6tgu.A
     RDKit          3D

 32 34  0  0  0  0  0  0  0  0999 V2000
    3.4839   20.3234   37.4520 C   0  0  0  0  0  0  0  0  0  0  0  0
    2.9198   19.9363   38.8218 C   0  0  0  0  0  0  0  0  0  0  0  0
    2.3040   20.8906   39.6285 C   0  0  0  0  0  0  0  0  0  0  0  0
    1.6124   20.5428   40.7935 C   0  0  0  0  0  0  0  0  0  0  0  0
    1.6686   19.2286   41.2798 C   0  0  0  0  0  0  0  0  0  0  0  0
    0.4359   17.6254   42.8204 C   0  0  0  0  0  0  0  0  0  0  0  0
    0.1379   15.3703   42.7838 C   0  0  0  0  0  0  0  0  0  0  0  0
    0.3857   14.0060   42.3164 C   0  0  0  0  0  0  0  0  0  0  0  0
   -0.3661   12.9150   42.7753 C   0  0  0  0  0  0  0  0  0  0  0  0
   -0.1361   11.6305   42.2924 C   0  0  0  0  0  0  0  0  0  0  0  0
    0.8230   11.4520   41.3133 C   0  0  0  0  0  0  0  0  0  0  0  0
    1.5853   12.5035   40.8271 C   0  0  0  0  0  0  0  0  0  0  0  0
    1.3480   13.7794   41.3311 C   0  0  0  0  0  0  0  0  0  0  0  0
   -0.8184   15.7017   43.7069 C   0  0  0  0  0  0  0  0  0  0  0  0
    2.2748   18.2537   40.4747 C   0  0  0  0  0  0  0  0  0  0  0  0
    2.8884   18.6233   39.2764 C   0  0  0  0  0  0  0  0  0  0  0  0
    0.9164   18.8426   42.4315 N   0  0  0  0  0  0  0  0  0  0  0  0
    0.8134   16.4607   42.1865 N   0  0  0  0  0  0  0  0  0  0  0  0
    3.2125   21.4887   37.0380 O   0  0  0  0  0  0  0  0  0  0  0  0
    4.0960   19.4352   36.8194 O   0  0  0  0  0  0  0  0  0  0  0  0
    3.3869   17.6477   38.4460 O   0  0  0  0  0  0  0  0  0  0  0  0
   -0.9529   17.4115   43.8687 S   0  0  0  0  0  0  0  0  0  0  0  0
    1.0923    9.8649   40.6730 Cl  0  0  0  0  0  0  0  0  0  0  0  0
    2.3635   21.9506   39.3404 H   0  0  0  0  0  0  0  0  0  0  0  0
    1.0232   21.3016   41.3293 H   0  0  0  0  0  0  0  0  0  0  0  0
   -1.1505   13.0772   43.5292 H   0  0  0  0  0  0  0  0  0  0  0  0
   -0.7062   10.7743   42.6820 H   0  0  0  0  0  0  0  0  0  0  0  0
    2.3579   12.3338   40.0627 H   0  0  0  0  0  0  0  0  0  0  0  0
    1.9317   14.6276   40.9443 H   0  0  0  0  0  0  0  0  0  0  0  0
   -1.4203   14.9731   44.2698 H   0  0  0  0  0  0  0  0  0  0  0  0
    2.2671   17.1989   40.7870 H   0  0  0  0  0  0  0  0  0  0  0  0
    0.6998   19.6141   43.0786 H   0  0  0  0  0  0  0  0  0  0  0  0
  1  2  1  0
  1 19  1  0
  1 20  2  0
  2  3  1  0
  2 16  2  0
  3  4  2  0
  4  5  1  0
  5 15  2  0
  5 17  1  0
  6 17  1  0
  6 18  2  0
  6 22  1  0
  7  8  1  0
  7 14  2  0
  7 18  1  0
  8  9  1  0
  8 13  2  0
  9 10  2  0
 10 11  1  0
 11 12  2  0
 11 23  1  0
 12 13  1  0
 14 22  1  0
 15 16  1  0
 16 21  1  0
  3 24  1  0
  4 25  1  0
  9 26  1  0
 10 27  1  0
 12 28  1  0
 13 29  1  0
 14 30  1  0
 15 31  1  0
 17 32  1  0
M  CHG  2  19  -1  21  -1
M  END
>  <mol_id>  (6) 
2026-08-24-6tgu-s0-n100-0006

>  <rmsd_to_ref>  (6) 
0.6836734693923113

>  <pose_kind>  (6) 
rigid

$$$$
6tgu.A
     RDKit          3D

 32 34  0  0  0  0  0  0  0  0999 V2000
    3.6338   19.3728   36.5553 C   0  0  0  0  0  0  0  0  0  0  0  0
    3.0336   19.3889   37.9639 C   0  0  0  0  0  0  0  0  0  0  0  0
    2.2930   20.4834   38.4047 C   0  0  0  0  0  0  0  0  0  0  0  0
    1.5734   20.4581   39.6038 C   0  0  0  0  0  0  0  0  0  0  0  0
    1.7200   19.3812   40.4902 C   0  0  0  0  0  0  0  0  0  0  0  0
    0.5537   18.2385   42.4389 C   0  0  0  0  0  0  0  0  0  0  0  0
    0.4597   16.0721   43.1271 C   0  0  0  0  0  0  0  0  0  0  0  0
    0.8526   14.6626   43.1318 C   0  0  0  0  0  0  0  0  0  0  0  0
    0.1771   13.7053   43.9021 C   0  0  0  0  0  0  0  0  0  0  0  0
    0.5459   12.3642   43.8659 C   0  0  0  0  0  0  0  0  0  0  0  0
    1.5684   11.9802   43.0187 C   0  0  0  0  0  0  0  0  0  0  0  0
    2.2592   12.8927   42.2356 C   0  0  0  0  0  0  0  0  0  0  0  0
    1.8827   14.2317   42.2944 C   0  0  0  0  0  0  0  0  0  0  0  0
   -0.5704   16.5825   43.8719 C   0  0  0  0  0  0  0  0  0  0  0  0
    2.4529   18.2669   40.0575 C   0  0  0  0  0  0  0  0  0  0  0  0
    3.0946   18.2942   38.8179 C   0  0  0  0  0  0  0  0  0  0  0  0
    0.9443   19.3096   41.6879 N   0  0  0  0  0  0  0  0  0  0  0  0
    1.0667   16.9769   42.2244 N   0  0  0  0  0  0  0  0  0  0  0  0
    3.2825   20.3107   35.7808 O   0  0  0  0  0  0  0  0  0  0  0  0
    4.3555   18.3958   36.2578 O   0  0  0  0  0  0  0  0  0  0  0  0
    3.7217   17.1602   38.3591 O   0  0  0  0  0  0  0  0  0  0  0  0
   -0.8649   18.2313   43.4690 S   0  0  0  0  0  0  0  0  0  0  0  0
    2.0115   10.3076   42.9324 Cl  0  0  0  0  0  0  0  0  0  0  0  0
    2.2735   21.3958   37.7906 H   0  0  0  0  0  0  0  0  0  0  0  0
    0.8912   21.2844   39.8522 H   0  0  0  0  0  0  0  0  0  0  0  0
   -0.6580   14.0196   44.5454 H   0  0  0  0  0  0  0  0  0  0  0  0
    0.0341   11.6243   44.4988 H   0  0  0  0  0  0  0  0  0  0  0  0
    3.0837   12.5667   41.5845 H   0  0  0  0  0  0  0  0  0  0  0  0
    2.4087   14.9663   41.6670 H   0  0  0  0  0  0  0  0  0  0  0  0
   -1.1346   16.0150   44.6267 H   0  0  0  0  0  0  0  0  0  0  0  0
    2.5221   17.3723   40.6939 H   0  0  0  0  0  0  0  0  0  0  0  0
    0.6256   20.2213   42.0457 H   0  0  0  0  0  0  0  0  0  0  0  0
  1  2  1  0
  1 19  1  0
  1 20  2  0
  2  3  1  0
  2 16  2  0
  3  4  2  0
  4  5  1  0
  5 15  2  0
  5 17  1  0
  6 17  1  0
  6 18  2  0
  6 22  1  0
  7  8  1  0
  7 14  2  0
  7 18  1  0
  8  9  1  0
  8 13  2  0
  9 10  2  0
 10 11  1  0
 11 12  2  0
 11 23  1  0
 12 13  1  0
 14 22  1  0
 15 16  1  0
 16 21  1  0
  3 24  1  0
  4 25  1  0
  9 26  1  0
 10 27  1  0
 12 28  1  0
 13 29  1  0
 14 30  1  0
 15 31  1  0
 17 32  1  0
M  CHG  2  19  -1  21  -1
M  END
>  <mol_id>  (7) 
2026-08-24-6tgu-s0-n100-0007

>  <rmsd_to_ref>  (7) 
0.7295918367436727

>  <pose_kind>  (7) 
rigid

$$$$
6tgu.A
     RDKit          3D

 32 34  0  0  0  0  0  0  0  0999 V2000
    2.9625   19.6054   36.6183 C   0  0  0  0  0  0  0  0  0  0  0  0
    2.4075   19.4758   38.0394 C   0  0  0  0  0  0  0  0  0  0  0  0
    1.4692   20.3874   38.5181 C   0  0  0  0  0  0  0  0  0  0  0  0
    0.8007   20.1959   39.7318 C   0  0  0  0  0  0  0  0  0  0  0  0
    1.1876   19.1587   40.5927 C   0  0  0  0  0  0  0  0  0  0  0  0
    0.3305   17.7704   42.5424 C   0  0  0  0  0  0  0  0  0  0  0  0
    0.7010   15.6207   43.1883 C   0  0  0  0  0  0  0  0  0  0  0  0
    1.3750   14.3223   43.1559 C   0  0  0  0  0  0  0  0  0  0  0  0
    0.9302   13.2346   43.9208 C   0  0  0  0  0  0  0  0  0  0  0  0
    1.5657   11.9989   43.8494 C   0  0  0  0  0  0  0  0  0  0  0  0
    2.6235   11.8468   42.9728 C   0  0  0  0  0  0  0  0  0  0  0  0
    3.0922   12.8940   42.1938 C   0  0  0  0  0  0  0  0  0  0  0  0
    2.4502   14.1257   42.2879 C   0  0  0  0  0  0  0  0  0  0  0  0
   -0.3929   15.8964   43.9652 C   0  0  0  0  0  0  0  0  0  0  0  0
    2.1227   18.2260   40.1218 C   0  0  0  0  0  0  0  0  0  0  0  0
    2.7136   18.4040   38.8695 C   0  0  0  0  0  0  0  0  0  0  0  0
    0.4737   18.9104   41.8051 N   0  0  0  0  0  0  0  0  0  0  0  0
    1.0862   16.6449   42.2913 N   0  0  0  0  0  0  0  0  0  0  0  0
    2.4066   20.4628   35.8706 O   0  0  0  0  0  0  0  0  0  0  0  0
    3.8617   18.8027   36.2855 O   0  0  0  0  0  0  0  0  0  0  0  0
    3.5486   17.4306   38.3743 O   0  0  0  0  0  0  0  0  0  0  0  0
   -1.0299   17.4554   43.6023 S   0  0  0  0  0  0  0  0  0  0  0  0
    3.3986   10.3028   42.8430 Cl  0  0  0  0  0  0  0  0  0  0  0  0
    1.2471   21.2857   37.9233 H   0  0  0  0  0  0  0  0  0  0  0  0
   -0.0303   20.8602   40.0115 H   0  0  0  0  0  0  0  0  0  0  0  0
    0.0649   13.3603   44.5882 H   0  0  0  0  0  0  0  0  0  0  0  0
    1.2330   11.1598   44.4780 H   0  0  0  0  0  0  0  0  0  0  0  0
    3.9494   12.7549   41.5186 H   0  0  0  0  0  0  0  0  0  0  0  0
    2.7981   14.9625   41.6644 H   0  0  0  0  0  0  0  0  0  0  0  0
   -0.8093   15.2133   44.7203 H   0  0  0  0  0  0  0  0  0  0  0  0
    2.3902   17.3551   40.7382 H   0  0  0  0  0  0  0  0  0  0  0  0
   -0.0165   19.7313   42.1881 H   0  0  0  0  0  0  0  0  0  0  0  0
  1  2  1  0
  1 19  1  0
  1 20  2  0
  2  3  1  0
  2 16  2  0
  3  4  2  0
  4  5  1  0
  5 15  2  0
  5 17  1  0
  6 17  1  0
  6 18  2  0
  6 22  1  0
  7  8  1  0
  7 14  2  0
  7 18  1  0
  8  9  1  0
  8 13  2  0
  9 10  2  0
 10 11  1  0
 11 12  2  0
 11 23  1  0
 12 13  1  0
 14 22  1  0
 15 16  1  0
 16 21  1  0
  3 24  1  0
  4 25  1  0
  9 26  1  0
 10 27  1  0
 12 28  1  0
 13 29  1  0
 14 30  1  0
 15 31  1  0
 17 32  1  0
M  CHG  2  19  -1  21  -1
M  END
>  <mol_id>  (8) 
2026-08-24-6tgu-s0-n100-0008

>  <rmsd_to_ref>  (8) 
0.7755102040899304

>  <pose_kind>  (8) 
rigid

$$$$
6tgu.A
     RDKit          3D

 32 34  0  0  0  0  0  0  0  0999 V2000
    2.7261   20.9187   37.5948 C   0  0  0  0  0  0  0  0  0  0  0  0
    2.3422   20.4014   38.9839 C   0  0  0  0  0  0  0  0  0  0  0  0
    1.6422   21.2142   39.8727 C   0  0  0  0  0  0  0  0  0  0  0  0
    1.1105   20.7204   41.0685 C   0  0  0  0  0  0  0  0  0  0  0  0
    1.4205   19.4202   41.4930 C   0  0  0  0  0  0  0  0  0  0  0  0
    0.5933   17.5873   43.0485 C   0  0  0  0  0  0  0  0  0  0  0  0
    0.6696   15.3163   42.9373 C   0  0  0  0  0  0  0  0  0  0  0  0
    1.1019   14.0276   42.3955 C   0  0  0  0  0  0  0  0  0  0  0  0
    0.5784   12.8127   42.8603 C   0  0  0  0  0  0  0  0  0  0  0  0
    0.9789   11.6001   42.3077 C   0  0  0  0  0  0  0  0  0  0  0  0
    1.8750   11.6146   41.2554 C   0  0  0  0  0  0  0  0  0  0  0  0
    2.4130   12.7932   40.7610 C   0  0  0  0  0  0  0  0  0  0  0  0
    2.0085   13.9954   41.3348 C   0  0  0  0  0  0  0  0  0  0  0  0
   -0.2533   15.4547   43.9400 C   0  0  0  0  0  0  0  0  0  0  0  0
    2.1147   18.5855   40.6056 C   0  0  0  0  0  0  0  0  0  0  0  0
    2.5634   19.0887   39.3831 C   0  0  0  0  0  0  0  0  0  0  0  0
    0.8345   18.8791   42.6784 N   0  0  0  0  0  0  0  0  0  0  0  0
    1.1072   16.5221   42.3400 N   0  0  0  0  0  0  0  0  0  0  0  0
    2.2346   22.0339   37.2515 O   0  0  0  0  0  0  0  0  0  0  0  0
    3.4250   20.1651   36.8825 O   0  0  0  0  0  0  0  0  0  0  0  0
    3.1497   18.2360   38.4782 O   0  0  0  0  0  0  0  0  0  0  0  0
   -0.6551   17.1121   44.1839 S   0  0  0  0  0  0  0  0  0  0  0  0
    2.3516   10.1151   40.5303 Cl  0  0  0  0  0  0  0  0  0  0  0  0
    1.5034   22.2773   39.6266 H   0  0  0  0  0  0  0  0  0  0  0  0
    0.4478   21.3531   41.6772 H   0  0  0  0  0  0  0  0  0  0  0  0
   -0.1607   12.8183   43.6749 H   0  0  0  0  0  0  0  0  0  0  0  0
    0.5900   10.6490   42.7004 H   0  0  0  0  0  0  0  0  0  0  0  0
    3.1409   12.7786   39.9365 H   0  0  0  0  0  0  0  0  0  0  0  0
    2.4123   14.9408   40.9435 H   0  0  0  0  0  0  0  0  0  0  0  0
   -0.6810   14.6189   44.5131 H   0  0  0  0  0  0  0  0  0  0  0  0
    2.3054   17.5355   40.8723 H   0  0  0  0  0  0  0  0  0  0  0  0
    0.5448   19.5835   43.3717 H   0  0  0  0  0  0  0  0  0  0  0  0
  1  2  1  0
  1 19  1  0
  1 20  2  0
  2  3  1  0
  2 16  2  0
  3  4  2  0
  4  5  1  0
  5 15  2  0
  5 17  1  0
  6 17  1  0
  6 18  2  0
  6 22  1  0
  7  8  1  0
  7 14  2  0
  7 18  1  0
  8  9  1  0
  8 13  2  0
  9 10  2  0
 10 11  1  0
 11 12  2  0
 11 23  1  0
 12 13  1  0
 14 22  1  0
 15 16  1  0
 16 21  1  0
  3 24  1  0
  4 25  1  0
  9 26  1  0
 10 27  1  0
 12 28  1  0
 13 29  1  0
 14 30  1  0
 15 31  1  0
 17 32  1  0
M  CHG  2  19  -1  21  -1
M  END
>  <mol_id>  (9) 
2026-08-24-6tgu-s0-n100-0009

>  <rmsd_to_ref>  (9) 
0.8214285714325729

>  <pose_kind>  (9) 
rigid

$$$$
6tgu.A
     RDKit          3D

 32 34  0  0  0  0  0  0  0  0999 V2000
    2.4408   20.8121   37.5195 C   0  0  0  0  0  0  0  0  0  0  0  0
    2.1003   20.2889   38.9177 C   0  0  0  0  0  0  0  0  0  0  0  0
    1.4243   21.0962   39.8297 C   0  0  0  0  0  0  0  0  0  0  0  0
    0.9302   20.5965   41.0391 C   0  0  0  0  0  0  0  0  0  0  0  0
    1.2574   19.2961   41.4498 C   0  0  0  0  0  0  0  0  0  0  0  0
    0.4835   17.4551   43.0231 C   0  0  0  0  0  0  0  0  0  0  0  0
    0.5645   15.1848   42.9019 C   0  0  0  0  0  0  0  0  0  0  0  0
    0.9850   13.8994   42.3431 C   0  0  0  0  0  0  0  0  0  0  0  0
    0.4800   12.6811   42.8191 C   0  0  0  0  0  0  0  0  0  0  0  0
    0.8682   11.4718   42.2508 C   0  0  0  0  0  0  0  0  0  0  0  0
    1.7324   11.4930   41.1724 C   0  0  0  0  0  0  0  0  0  0  0  0
    2.2513   12.6752   40.6661 C   0  0  0  0  0  0  0  0  0  0  0  0
    1.8597   13.8740   41.2557 C   0  0  0  0  0  0  0  0  0  0  0  0
   -0.3286   15.3165   43.9321 C   0  0  0  0  0  0  0  0  0  0  0  0
    1.9278   18.4668   40.5393 C   0  0  0  0  0  0  0  0  0  0  0  0
    2.3381   18.9757   39.3057 C   0  0  0  0  0  0  0  0  0  0  0  0
    0.7089   18.7489   42.6502 N   0  0  0  0  0  0  0  0  0  0  0  0
    0.9798   16.3941   42.2959 N   0  0  0  0  0  0  0  0  0  0  0  0
    1.9353   21.9267   37.1948 O   0  0  0  0  0  0  0  0  0  0  0  0
    3.1210   20.0635   36.7841 O   0  0  0  0  0  0  0  0  0  0  0  0
    2.9002   18.1281   38.3808 O   0  0  0  0  0  0  0  0  0  0  0  0
   -0.7288   16.9716   44.1935 S   0  0  0  0  0  0  0  0  0  0  0  0
    2.1926    9.9976   40.4283 Cl  0  0  0  0  0  0  0  0  0  0  0  0
    1.2744   22.1596   39.5914 H   0  0  0  0  0  0  0  0  0  0  0  0
    0.2837   21.2248   41.6694 H   0  0  0  0  0  0  0  0  0  0  0  0
   -0.2345   12.6813   43.6554 H   0  0  0  0  0  0  0  0  0  0  0  0
    0.4946   10.5180   42.6517 H   0  0  0  0  0  0  0  0  0  0  0  0
    2.9544   12.6660   39.8202 H   0  0  0  0  0  0  0  0  0  0  0  0
    2.2483   14.8222   40.8558 H   0  0  0  0  0  0  0  0  0  0  0  0
   -0.7360   14.4772   44.5149 H   0  0  0  0  0  0  0  0  0  0  0  0
    2.1301   17.4167   40.7966 H   0  0  0  0  0  0  0  0  0  0  0  0
    0.4374   19.4500   43.3543 H   0  0  0  0  0  0  0  0  0  0  0  0
  1  2  1  0
  1 19  1  0
  1 20  2  0
  2  3  1  0
  2 16  2  0
  3  4  2  0
  4  5  1  0
  5 15  2  0
  5 17  1  0
  6 17  1  0
  6 18  2  0
  6 22  1  0
  7  8  1  0
  7 14  2  0
  7 18  1  0
  8  9  1  0
  8 13  2  0
  9 10  2  0
 10 11  1  0
 11 12  2  0
 11 23  1  0
 12 13  1  0
 14 22  1  0
 15 16  1  0
 16 21  1  0
  3 24  1  0
  4 25  1  0
  9 26  1  0
 10 27  1  0
 12 28  1  0
 13 29  1  0
 14 30  1  0
 15 31  1  0
 17 32  1  0
M  CHG  2  19  -1  21  -1
M  END
>  <mol_id>  (10) 
2026-08-24-6tgu-s0-n100-0010

>  <rmsd_to_ref>  (10) 
0.8673469387850083

>  <pose_kind>  (10) 
rigid

$$$$
6tgu.A
     RDKit          3D

 32 34  0  0  0  0  0  0  0  0999 V2000
    2.8885   19.1067   36.1028 C   0  0  0  0  0  0  0  0  0  0  0  0
    2.4435   19.1331   37.5677 C   0  0  0  0  0  0  0  0  0  0  0  0
    1.6590   20.1785   38.0499 C   0  0  0  0  0  0  0  0  0  0  0  0
    1.0772   20.1443   39.3214 C   0  0  0  0  0  0  0  0  0  0  0  0
    1.4140   19.1238   40.2225 C   0  0  0  0  0  0  0  0  0  0  0  0
    0.5704   17.9721   42.3261 C   0  0  0  0  0  0  0  0  0  0  0  0
    0.7456   15.8378   43.0943 C   0  0  0  0  0  0  0  0  0  0  0  0
    1.2617   14.4686   43.1038 C   0  0  0  0  0  0  0  0  0  0  0  0
    0.7612   13.4917   43.9763 C   0  0  0  0  0  0  0  0  0  0  0  0
    1.2431   12.1868   43.9455 C   0  0  0  0  0  0  0  0  0  0  0  0
    2.1992   11.8550   43.0042 C   0  0  0  0  0  0  0  0  0  0  0  0
    2.7175   12.7879   42.1187 C   0  0  0  0  0  0  0  0  0  0  0  0
    2.2307   14.0911   42.1729 C   0  0  0  0  0  0  0  0  0  0  0  0
   -0.2406   16.2903   43.9304 C   0  0  0  0  0  0  0  0  0  0  0  0
    2.1934   18.0584   39.7498 C   0  0  0  0  0  0  0  0  0  0  0  0
    2.6937   18.0861   38.4468 C   0  0  0  0  0  0  0  0  0  0  0  0
    0.7806   19.0387   41.5003 N   0  0  0  0  0  0  0  0  0  0  0  0
    1.1687   16.7508   42.0995 N   0  0  0  0  0  0  0  0  0  0  0  0
    2.3734   19.9762   35.3401 O   0  0  0  0  0  0  0  0  0  0  0  0
    3.6589   18.1829   35.7610 O   0  0  0  0  0  0  0  0  0  0  0  0
    3.3673   16.9909   37.9605 O   0  0  0  0  0  0  0  0  0  0  0  0
   -0.7233   17.8887   43.5063 S   0  0  0  0  0  0  0  0  0  0  0  0
    2.7790   10.2242   42.9268 Cl  0  0  0  0  0  0  0  0  0  0  0  0
    1.4920   21.0581   37.4108 H   0  0  0  0  0  0  0  0  0  0  0  0
    0.3541   20.9194   39.6152 H   0  0  0  0  0  0  0  0  0  0  0  0
   -0.0250   13.7614   44.6969 H   0  0  0  0  0  0  0  0  0  0  0  0
    0.8705   11.4343   44.6561 H   0  0  0  0  0  0  0  0  0  0  0  0
    3.4935   12.5055   41.3921 H   0  0  0  0  0  0  0  0  0  0  0  0
    2.6184   14.8398   41.4664 H   0  0  0  0  0  0  0  0  0  0  0  0
   -0.6674   15.7103   44.7620 H   0  0  0  0  0  0  0  0  0  0  0  0
    2.4104   17.2018   40.4049 H   0  0  0  0  0  0  0  0  0  0  0  0
    0.4214   19.9346   41.8597 H   0  0  0  0  0  0  0  0  0  0  0  0
  1  2  1  0
  1 19  1  0
  1 20  2  0
  2  3  1  0
  2 16  2  0
  3  4  2  0
  4  5  1  0
  5 15  2  0
  5 17  1  0
  6 17  1  0
  6 18  2  0
  6 22  1  0
  7  8  1  0
  7 14  2  0
  7 18  1  0
  8  9  1  0
  8 13  2  0
  9 10  2  0
 10 11  1  0
 11 12  2  0
 11 23  1  0
 12 13  1  0
 14 22  1  0
 15 16  1  0
 16 21  1  0
  3 24  1  0
  4 25  1  0
  9 26  1  0
 10 27  1  0
 12 28  1  0
 13 29  1  0
 14 30  1  0
 15 31  1  0
 17 32  1  0
M  CHG  2  19  -1  21  -1
M  END
>  <mol_id>  (11) 
2026-08-24-6tgu-s0-n100-0011

>  <rmsd_to_ref>  (11) 
0.913265306127796

>  <pose_kind>  (11) 
rigid

$$$$
6tgu.A
     RDKit          3D

 32 34  0  0  0  0  0  0  0  0999 V2000
    2.7360   20.4485   36.8211 C   0  0  0  0  0  0  0  0  0  0  0  0
    1.9939   20.1077   38.1164 C   0  0  0  0  0  0  0  0  0  0  0  0
    0.8651   20.8306   38.4960 C   0  0  0  0  0  0  0  0  0  0  0  0
    0.0538   20.4330   39.5637 C   0  0  0  0  0  0  0  0  0  0  0  0
    0.4561   19.3817   40.4002 C   0  0  0  0  0  0  0  0  0  0  0  0
   -0.4711   17.7077   42.0739 C   0  0  0  0  0  0  0  0  0  0  0  0
    0.1177   15.5781   42.6160 C   0  0  0  0  0  0  0  0  0  0  0  0
    0.9782   14.3947   42.6032 C   0  0  0  0  0  0  0  0  0  0  0  0
    0.5911   13.1877   43.2027 C   0  0  0  0  0  0  0  0  0  0  0  0
    1.4106   12.0644   43.1496 C   0  0  0  0  0  0  0  0  0  0  0  0
    2.6020   12.1450   42.4536 C   0  0  0  0  0  0  0  0  0  0  0  0
    3.0207   13.3167   41.8414 C   0  0  0  0  0  0  0  0  0  0  0  0
    2.1921   14.4329   41.9154 C   0  0  0  0  0  0  0  0  0  0  0  0
   -1.1124   15.6240   43.2170 C   0  0  0  0  0  0  0  0  0  0  0  0
    1.5837   18.6369   40.0262 C   0  0  0  0  0  0  0  0  0  0  0  0
    2.3273   19.0141   38.9065 C   0  0  0  0  0  0  0  0  0  0  0  0
   -0.3907   18.9219   41.4551 N   0  0  0  0  0  0  0  0  0  0  0  0
    0.4767   16.7270   41.8722 N   0  0  0  0  0  0  0  0  0  0  0  0
    2.1786   21.2883   36.0548 O   0  0  0  0  0  0  0  0  0  0  0  0
    3.7875   19.8136   36.5864 O   0  0  0  0  0  0  0  0  0  0  0  0
    3.3671   18.2177   38.4890 O   0  0  0  0  0  0  0  0  0  0  0  0
   -1.9153   17.1072   42.8660 S   0  0  0  0  0  0  0  0  0  0  0  0
    3.6136   10.7428   42.3442 Cl  0  0  0  0  0  0  0  0  0  0  0  0
    0.6038   21.7423   37.9387 H   0  0  0  0  0  0  0  0  0  0  0  0
   -0.9017   20.9459   39.7477 H   0  0  0  0  0  0  0  0  0  0  0  0
   -0.3760   13.1278   43.7233 H   0  0  0  0  0  0  0  0  0  0  0  0
    1.1161   11.1310   43.6516 H   0  0  0  0  0  0  0  0  0  0  0  0
    3.9832   13.3630   41.3108 H   0  0  0  0  0  0  0  0  0  0  0  0
    2.5008   15.3657   41.4208 H   0  0  0  0  0  0  0  0  0  0  0  0
   -1.5318   14.8207   43.8406 H   0  0  0  0  0  0  0  0  0  0  0  0
    1.8820   17.7564   40.6143 H   0  0  0  0  0  0  0  0  0  0  0  0
   -1.0534   19.6265   41.8089 H   0  0  0  0  0  0  0  0  0  0  0  0
  1  2  1  0
  1 19  1  0
  1 20  2  0
  2  3  1  0
  2 16  2  0
  3  4  2  0
  4  5  1  0
  5 15  2  0
  5 17  1  0
  6 17  1  0
  6 18  2  0
  6 22  1  0
  7  8  1  0
  7 14  2  0
  7 18  1  0
  8  9  1  0
  8 13  2  0
  9 10  2  0
 10 11  1  0
 11 12  2  0
 11 23  1  0
 12 13  1  0
 14 22  1  0
 15 16  1  0
 16 21  1  0
  3 24  1  0
  4 25  1  0
  9 26  1  0
 10 27  1  0
 12 28  1  0
 13 29  1  0
 14 30  1  0
 15 31  1  0
 17 32  1  0
M  CHG  2  19  -1  21  -1
M  END
>  <mol_id>  (12) 
2026-08-24-6tgu-s0-n100-0012

>  <rmsd_to_ref>  (12) 
0.9591836734744481

>  <pose_kind>  (12) 
rigid

$$$$
6tgu.A
     RDKit          3D

 32 34  0  0  0  0  0  0  0  0999 V2000
    2.1521   20.8894   37.5073 C   0  0  0  0  0  0  0  0  0  0  0  0
    1.8645   20.3394   38.9071 C   0  0  0  0  0  0  0  0  0  0  0  0
    1.1754   21.1092   39.8416 C   0  0  0  0  0  0  0  0  0  0  0  0
    0.7293   20.5780   41.0562 C   0  0  0  0  0  0  0  0  0  0  0  0
    1.1195   19.2887   41.4466 C   0  0  0  0  0  0  0  0  0  0  0  0
    0.4579   17.4024   43.0174 C   0  0  0  0  0  0  0  0  0  0  0  0
    0.6313   15.1387   42.8715 C   0  0  0  0  0  0  0  0  0  0  0  0
    1.0929   13.8774   42.2908 C   0  0  0  0  0  0  0  0  0  0  0  0
    0.6499   12.6346   42.7652 C   0  0  0  0  0  0  0  0  0  0  0  0
    1.0757   11.4480   42.1764 C   0  0  0  0  0  0  0  0  0  0  0  0
    1.9146   11.5155   41.0799 C   0  0  0  0  0  0  0  0  0  0  0  0
    2.3723   12.7231   40.5747 C   0  0  0  0  0  0  0  0  0  0  0  0
    1.9439   13.8988   41.1847 C   0  0  0  0  0  0  0  0  0  0  0  0
   -0.2438   15.2232   43.9220 C   0  0  0  0  0  0  0  0  0  0  0  0
    1.8039   18.4969   40.5135 C   0  0  0  0  0  0  0  0  0  0  0  0
    2.1654   19.0339   39.2766 C   0  0  0  0  0  0  0  0  0  0  0  0
    0.6209   18.7079   42.6529 N   0  0  0  0  0  0  0  0  0  0  0  0
    0.9822   16.3700   42.2690 N   0  0  0  0  0  0  0  0  0  0  0  0
    1.5934   21.9846   37.2048 O   0  0  0  0  0  0  0  0  0  0  0  0
    2.8467   20.1769   36.7500 O   0  0  0  0  0  0  0  0  0  0  0  0
    2.7422   18.2193   38.3313 O   0  0  0  0  0  0  0  0  0  0  0  0
   -0.7071   16.8575   44.2086 S   0  0  0  0  0  0  0  0  0  0  0  0
    2.4205   10.0477   40.3110 Cl  0  0  0  0  0  0  0  0  0  0  0  0
    0.9759   22.1674   39.6174 H   0  0  0  0  0  0  0  0  0  0  0  0
    0.0710   21.1727   41.7066 H   0  0  0  0  0  0  0  0  0  0  0  0
   -0.0456   12.5970   43.6166 H   0  0  0  0  0  0  0  0  0  0  0  0
    0.7513   10.4757   42.5756 H   0  0  0  0  0  0  0  0  0  0  0  0
    3.0564   12.7512   39.7138 H   0  0  0  0  0  0  0  0  0  0  0  0
    2.2836   14.8662   40.7861 H   0  0  0  0  0  0  0  0  0  0  0  0
   -0.6029   14.3622   44.5048 H   0  0  0  0  0  0  0  0  0  0  0  0
    2.0556   17.4538   40.7558 H   0  0  0  0  0  0  0  0  0  0  0  0
    0.3357   19.3904   43.3697 H   0  0  0  0  0  0  0  0  0  0  0  0
  1  2  1  0
  1 19  1  0
  1 20  2  0
  2  3  1  0
  2 16  2  0
  3  4  2  0
  4  5  1  0
  5 15  2  0
  5 17  1  0
  6 17  1  0
  6 18  2  0
  6 22  1  0
  7  8  1  0
  7 14  2  0
  7 18  1  0
  8  9  1  0
  8 13  2  0
  9 10  2  0
 10 11  1  0
 11 12  2  0
 11 23  1  0
 12 13  1  0
 14 22  1  0
 15 16  1  0
 16 21  1  0
  3 24  1  0
  4 25  1  0
  9 26  1  0
 10 27  1  0
 12 28  1  0
 13 29  1  0
 14 30  1  0
 15 31  1  0
 17 32  1  0
M  CHG  2  19  -1  21  -1
M  END
>  <mol_id>  (13) 
2026-08-24-6tgu-s0-n100-0013

>  <rmsd_to_ref>  (13) 
1.0051020408233196

>  <pose_kind>  (13) 
rigid

$$$$
6tgu.A
     RDKit          3D

 32 34  0  0  0  0  0  0  0  0999 V2000
    2.4531   20.7911   37.6690 C   0  0  0  0  0  0  0  0  0  0  0  0
    1.8925   20.2293   38.9785 C   0  0  0  0  0  0  0  0  0  0  0  0
    0.8860   20.9052   39.6646 C   0  0  0  0  0  0  0  0  0  0  0  0
    0.2190   20.3353   40.7540 C   0  0  0  0  0  0  0  0  0  0  0  0
    0.6692   19.1247   41.3004 C   0  0  0  0  0  0  0  0  0  0  0  0
   -0.1088   17.1892   42.7536 C   0  0  0  0  0  0  0  0  0  0  0  0
    0.4070   14.9736   42.7805 C   0  0  0  0  0  0  0  0  0  0  0  0
    1.1724   13.7842   42.4055 C   0  0  0  0  0  0  0  0  0  0  0  0
    0.7978   12.4980   42.8197 C   0  0  0  0  0  0  0  0  0  0  0  0
    1.5208   11.3771   42.4237 C   0  0  0  0  0  0  0  0  0  0  0  0
    2.5967   11.5484   41.5732 C   0  0  0  0  0  0  0  0  0  0  0  0
    2.9983   12.8013   41.1348 C   0  0  0  0  0  0  0  0  0  0  0  0
    2.2688   13.9115   41.5512 C   0  0  0  0  0  0  0  0  0  0  0  0
   -0.7127   14.9464   43.5691 C   0  0  0  0  0  0  0  0  0  0  0  0
    1.6739   18.4262   40.6157 C   0  0  0  0  0  0  0  0  0  0  0  0
    2.2649   18.9890   39.4830 C   0  0  0  0  0  0  0  0  0  0  0  0
   -0.0390   18.4979   42.3712 N   0  0  0  0  0  0  0  0  0  0  0  0
    0.7283   16.2324   42.2199 N   0  0  0  0  0  0  0  0  0  0  0  0
    1.8459   21.7866   37.1755 O   0  0  0  0  0  0  0  0  0  0  0  0
    3.4112   20.1757   37.1523 O   0  0  0  0  0  0  0  0  0  0  0  0
    3.1729   18.2520   38.7605 O   0  0  0  0  0  0  0  0  0  0  0  0
   -1.4553   16.4993   43.6393 S   0  0  0  0  0  0  0  0  0  0  0  0
    3.4816   10.1580   41.0389 Cl  0  0  0  0  0  0  0  0  0  0  0  0
    0.6071   21.9184   39.3396 H   0  0  0  0  0  0  0  0  0  0  0  0
   -0.6605   20.8377   41.1831 H   0  0  0  0  0  0  0  0  0  0  0  0
   -0.0819   12.3732   43.4682 H   0  0  0  0  0  0  0  0  0  0  0  0
    1.2417   10.3747   42.7804 H   0  0  0  0  0  0  0  0  0  0  0  0
    3.8709   12.9149   40.4748 H   0  0  0  0  0  0  0  0  0  0  0  0
    2.5631   14.9113   41.1992 H   0  0  0  0  0  0  0  0  0  0  0  0
   -1.0878   14.0522   44.0884 H   0  0  0  0  0  0  0  0  0  0  0  0
    1.9959   17.4361   40.9705 H   0  0  0  0  0  0  0  0  0  0  0  0
   -0.5910   19.1433   42.9541 H   0  0  0  0  0  0  0  0  0  0  0  0
  1  2  1  0
  1 19  1  0
  1 20  2  0
  2  3  1  0
  2 16  2  0
  3  4  2  0
  4  5  1  0
  5 15  2  0
  5 17  1  0
  6 17  1  0
  6 18  2  0
  6 22  1  0
  7  8  1  0
  7 14  2  0
  7 18  1  0
  8  9  1  0
  8 13  2  0
  9 10  2  0
 10 11  1  0
 11 12  2  0
 11 23  1  0
 12 13  1  0
 14 22  1  0
 15 16  1  0
 16 21  1  0
  3 24  1  0
  4 25  1  0
  9 26  1  0
 10 27  1  0
 12 28  1  0
 13 29  1  0
 14 30  1  0
 15 31  1  0
 17 32  1  0
M  CHG  2  19  -1  21  -1
M  END
>  <mol_id>  (14) 
2026-08-24-6tgu-s0-n100-0014

>  <rmsd_to_ref>  (14) 
1.0510204081651213

>  <pose_kind>  (14) 
rigid

$$$$
6tgu.A
     RDKit          3D

 32 34  0  0  0  0  0  0  0  0999 V2000
    1.4498   20.0461   36.3249 C   0  0  0  0  0  0  0  0  0  0  0  0
    1.4649   19.7789   37.8326 C   0  0  0  0  0  0  0  0  0  0  0  0
    0.9726   20.7294   38.7242 C   0  0  0  0  0  0  0  0  0  0  0  0
    0.7942   20.4497   40.0831 C   0  0  0  0  0  0  0  0  0  0  0  0
    1.2747   19.2482   40.6236 C   0  0  0  0  0  0  0  0  0  0  0  0
    0.9781   17.7115   42.6271 C   0  0  0  0  0  0  0  0  0  0  0  0
    1.1495   15.4574   42.8833 C   0  0  0  0  0  0  0  0  0  0  0  0
    1.4992   14.0975   42.4717 C   0  0  0  0  0  0  0  0  0  0  0  0
    1.1811   12.9789   43.2551 C   0  0  0  0  0  0  0  0  0  0  0  0
    1.4930   11.6916   42.8289 C   0  0  0  0  0  0  0  0  0  0  0  0
    2.0866   11.5284   41.5913 C   0  0  0  0  0  0  0  0  0  0  0  0
    2.4131   12.6061   40.7821 C   0  0  0  0  0  0  0  0  0  0  0  0
    2.1033   13.8869   41.2312 C   0  0  0  0  0  0  0  0  0  0  0  0
    0.5089   15.7620   44.0551 C   0  0  0  0  0  0  0  0  0  0  0  0
    1.7630   18.2764   39.7386 C   0  0  0  0  0  0  0  0  0  0  0  0
    1.8540   18.5598   38.3746 C   0  0  0  0  0  0  0  0  0  0  0  0
    1.0439   18.9196   41.9948 N   0  0  0  0  0  0  0  0  0  0  0  0
    1.3512   16.5427   41.9981 N   0  0  0  0  0  0  0  0  0  0  0  0
    0.8253   21.0782   35.9403 O   0  0  0  0  0  0  0  0  0  0  0  0
    1.9831   19.1852   35.5913 O   0  0  0  0  0  0  0  0  0  0  0  0
    2.2347   17.5662   37.5042 O   0  0  0  0  0  0  0  0  0  0  0  0
    0.0917   17.4325   44.1136 S   0  0  0  0  0  0  0  0  0  0  0  0
    2.4436    9.9289   41.0294 Cl  0  0  0  0  0  0  0  0  0  0  0  0
    0.7163   21.7307   38.3480 H   0  0  0  0  0  0  0  0  0  0  0  0
    0.2759   21.1737   40.7290 H   0  0  0  0  0  0  0  0  0  0  0  0
    0.6769   13.1213   44.2223 H   0  0  0  0  0  0  0  0  0  0  0  0
    1.2717   10.8213   43.4641 H   0  0  0  0  0  0  0  0  0  0  0  0
    2.9045   12.4529   39.8099 H   0  0  0  0  0  0  0  0  0  0  0  0
    2.3397   14.7520   40.5944 H   0  0  0  0  0  0  0  0  0  0  0  0
    0.2900   15.0367   44.8525 H   0  0  0  0  0  0  0  0  0  0  0  0
    2.0740   17.2921   40.1184 H   0  0  0  0  0  0  0  0  0  0  0  0
    0.9032   19.7327   42.6112 H   0  0  0  0  0  0  0  0  0  0  0  0
  1  2  1  0
  1 19  1  0
  1 20  2  0
  2  3  1  0
  2 16  2  0
  3  4  2  0
  4  5  1  0
  5 15  2  0
  5 17  1  0
  6 17  1  0
  6 18  2  0
  6 22  1  0
  7  8  1  0
  7 14  2  0
  7 18  1  0
  8  9  1  0
  8 13  2  0
  9 10  2  0
 10 11  1  0
 11 12  2  0
 11 23  1  0
 12 13  1  0
 14 22  1  0
 15 16  1  0
 16 21  1  0
  3 24  1  0
  4 25  1  0
  9 26  1  0
 10 27  1  0
 12 28  1  0
 13 29  1  0
 14 30  1  0
 15 31  1  0
 17 32  1  0
M  CHG  2  19  -1  21  -1
M  END
>  <mol_id>  (15) 
2026-08-24-6tgu-s0-n100-0015

>  <rmsd_to_ref>  (15) 
1.0969387755175013

>  <pose_kind>  (15) 
rigid

$$$$
6tgu.A
     RDKit          3D

 32 34  0  0  0  0  0  0  0  0999 V2000
    2.5887   19.0642   36.2691 C   0  0  0  0  0  0  0  0  0  0  0  0
    2.2283   19.1258   37.7560 C   0  0  0  0  0  0  0  0  0  0  0  0
    1.4355   20.1595   38.2494 C   0  0  0  0  0  0  0  0  0  0  0  0
    0.9296   20.1491   39.5534 C   0  0  0  0  0  0  0  0  0  0  0  0
    1.3547   19.1726   40.4657 C   0  0  0  0  0  0  0  0  0  0  0  0
    0.6765   18.0657   42.6516 C   0  0  0  0  0  0  0  0  0  0  0  0
    0.9733   15.9665   43.4769 C   0  0  0  0  0  0  0  0  0  0  0  0
    1.5386   14.6170   43.5004 C   0  0  0  0  0  0  0  0  0  0  0  0
    1.1252   13.6542   44.4321 C   0  0  0  0  0  0  0  0  0  0  0  0
    1.6517   12.3663   44.4152 C   0  0  0  0  0  0  0  0  0  0  0  0
    2.5634   12.0354   43.4305 C   0  0  0  0  0  0  0  0  0  0  0  0
    2.9953   12.9546   42.4863 C   0  0  0  0  0  0  0  0  0  0  0  0
    2.4654   14.2413   42.5268 C   0  0  0  0  0  0  0  0  0  0  0  0
    0.0212   16.4133   44.3546 C   0  0  0  0  0  0  0  0  0  0  0  0
    2.1439   18.1190   39.9827 C   0  0  0  0  0  0  0  0  0  0  0  0
    2.5668   18.1190   38.6523 C   0  0  0  0  0  0  0  0  0  0  0  0
    0.7997   19.1098   41.7807 N   0  0  0  0  0  0  0  0  0  0  0  0
    1.3048   16.8587   42.4299 N   0  0  0  0  0  0  0  0  0  0  0  0
    1.9992   19.8887   35.5103 O   0  0  0  0  0  0  0  0  0  0  0  0
    3.3713   18.1563   35.9126 O   0  0  0  0  0  0  0  0  0  0  0  0
    3.2507   17.0315   38.1629 O   0  0  0  0  0  0  0  0  0  0  0  0
   -0.5431   17.9785   43.9079 S   0  0  0  0  0  0  0  0  0  0  0  0
    3.1968   10.4239   43.3720 Cl  0  0  0  0  0  0  0  0  0  0  0  0
    1.1999   21.0103   37.5931 H   0  0  0  0  0  0  0  0  0  0  0  0
    0.1969   20.9085   39.8639 H   0  0  0  0  0  0  0  0  0  0  0  0
    0.3726   13.9212   45.1885 H   0  0  0  0  0  0  0  0  0  0  0  0
    1.3484   11.6263   45.1705 H   0  0  0  0  0  0  0  0  0  0  0  0
    3.7379   12.6741   41.7247 H   0  0  0  0  0  0  0  0  0  0  0  0
    2.7841   14.9781   41.7748 H   0  0  0  0  0  0  0  0  0  0  0  0
   -0.3355   15.8480   45.2281 H   0  0  0  0  0  0  0  0  0  0  0  0
    2.4294   17.2934   40.6513 H   0  0  0  0  0  0  0  0  0  0  0  0
    0.4294   20.0046   42.1314 H   0  0  0  0  0  0  0  0  0  0  0  0
  1  2  1  0
  1 19  1  0
  1 20  2  0
  2  3  1  0
  2 16  2  0
  3  4  2  0
  4  5  1  0
  5 15  2  0
  5 17  1  0
  6 17  1  0
  6 18  2  0
  6 22  1  0
  7  8  1  0
  7 14  2  0
  7 18  1  0
  8  9  1  0
  8 13  2  0
  9 10  2  0
 10 11  1  0
 11 12  2  0
 11 23  1  0
 12 13  1  0
 14 22  1  0
 15 16  1  0
 16 21  1  0
  3 24  1  0
  4 25  1  0
  9 26  1  0
 10 27  1  0
 12 28  1  0
 13 29  1  0
 14 30  1  0
 15 31  1  0
 17 32  1  0
M  CHG  2  19  -1  21  -1
M  END
>  <mol_id>  (16) 
2026-08-24-6tgu-s0-n100-0016

>  <rmsd_to_ref>  (16) 
1.1428571428618988

>  <pose_kind>  (16) 
rigid

$$$$
6tgu.A
     RDKit          3D

 32 34  0  0  0  0  0  0  0  0999 V2000
    1.5049   19.7099   36.6047 C   0  0  0  0  0  0  0  0  0  0  0  0
    1.5954   19.6140   38.1302 C   0  0  0  0  0  0  0  0  0  0  0  0
    1.2981   20.7173   38.9271 C   0  0  0  0  0  0  0  0  0  0  0  0
    1.1847   20.6191   40.3178 C   0  0  0  0  0  0  0  0  0  0  0  0
    1.5423   19.4309   40.9713 C   0  0  0  0  0  0  0  0  0  0  0  0
    1.1950   18.1844   43.1596 C   0  0  0  0  0  0  0  0  0  0  0  0
    1.0887   15.9714   43.6764 C   0  0  0  0  0  0  0  0  0  0  0  0
    1.2266   14.5387   43.4130 C   0  0  0  0  0  0  0  0  0  0  0  0
    0.8233   13.5698   44.3429 C   0  0  0  0  0  0  0  0  0  0  0  0
    0.9323   12.2122   44.0583 C   0  0  0  0  0  0  0  0  0  0  0  0
    1.4072   11.8307   42.8176 C   0  0  0  0  0  0  0  0  0  0  0  0
    1.8116   12.7553   41.8665 C   0  0  0  0  0  0  0  0  0  0  0  0
    1.7055   14.1088   42.1745 C   0  0  0  0  0  0  0  0  0  0  0  0
    0.5809   16.4912   44.8376 C   0  0  0  0  0  0  0  0  0  0  0  0
    1.8333   18.3079   40.1837 C   0  0  0  0  0  0  0  0  0  0  0  0
    1.8604   18.4212   38.7925 C   0  0  0  0  0  0  0  0  0  0  0  0
    1.3716   19.2932   42.3831 N   0  0  0  0  0  0  0  0  0  0  0  0
    1.3651   16.9122   42.6563 N   0  0  0  0  0  0  0  0  0  0  0  0
    0.9942   20.7687   36.1345 O   0  0  0  0  0  0  0  0  0  0  0  0
    1.8661   18.7067   35.9512 O   0  0  0  0  0  0  0  0  0  0  0  0
    2.0433   17.2932   38.0283 O   0  0  0  0  0  0  0  0  0  0  0  0
    0.3909   18.1992   44.7174 S   0  0  0  0  0  0  0  0  0  0  0  0
    1.5101   10.1444   42.4338 Cl  0  0  0  0  0  0  0  0  0  0  0  0
    1.1480   21.6959   38.4479 H   0  0  0  0  0  0  0  0  0  0  0  0
    0.8142   21.4757   40.9001 H   0  0  0  0  0  0  0  0  0  0  0  0
    0.4142   13.8882   45.3131 H   0  0  0  0  0  0  0  0  0  0  0  0
    0.6462   11.4576   44.8058 H   0  0  0  0  0  0  0  0  0  0  0  0
    2.2062   12.4276   40.8934 H   0  0  0  0  0  0  0  0  0  0  0  0
    2.0057   14.8560   41.4251 H   0  0  0  0  0  0  0  0  0  0  0  0
    0.3280   15.8971   45.7281 H   0  0  0  0  0  0  0  0  0  0  0  0
    2.0400   17.3388   40.6614 H   0  0  0  0  0  0  0  0  0  0  0  0
    1.3838   20.1819   42.9036 H   0  0  0  0  0  0  0  0  0  0  0  0
  1  2  1  0
  1 19  1  0
  1 20  2  0
  2  3  1  0
  2 16  2  0
  3  4  2  0
  4  5  1  0
  5 15  2  0
  5 17  1  0
  6 17  1  0
  6 18  2  0
  6 22  1  0
  7  8  1  0
  7 14  2  0
  7 18  1  0
  8  9  1  0
  8 13  2  0
  9 10  2  0
 10 11  1  0
 11 12  2  0
 11 23  1  0
 12 13  1  0
 14 22  1  0
 15 16  1  0
 16 21  1  0
  3 24  1  0
  4 25  1  0
  9 26  1  0
 10 27  1  0
 12 28  1  0
 13 29  1  0
 14 30  1  0
 15 31  1  0
 17 32  1  0
M  CHG  2  19  -1  21  -1
M  END
>  <mol_id>  (17) 
2026-08-24-6tgu-s0-n100-0017

>  <rmsd_to_ref>  (17) 
1.1887755102043018

>  <pose_kind>  (17) 
rigid

$$$$
6tgu.A
     RDKit          3D

 32 34  0  0  0  0  0  0  0  0999 V2000
    4.3922   19.6091   37.4859 C   0  0  0  0  0  0  0  0  0  0  0  0
    3.6206   19.5103   38.8049 C   0  0  0  0  0  0  0  0  0  0  0  0
    3.1026   20.6540   39.4086 C   0  0  0  0  0  0  0  0  0  0  0  0
    2.2360   20.5868   40.5044 C   0  0  0  0  0  0  0  0  0  0  0  0
    2.0003   19.3598   41.1414 C   0  0  0  0  0  0  0  0  0  0  0  0
    0.3369   18.2068   42.6800 C   0  0  0  0  0  0  0  0  0  0  0  0
   -0.3575   16.0482   42.8634 C   0  0  0  0  0  0  0  0  0  0  0  0
   -0.3105   14.6110   42.5924 C   0  0  0  0  0  0  0  0  0  0  0  0
   -1.2927   13.7319   43.0703 C   0  0  0  0  0  0  0  0  0  0  0  0
   -1.2469   12.3735   42.7724 C   0  0  0  0  0  0  0  0  0  0  0  0
   -0.2342   11.9076   41.9552 C   0  0  0  0  0  0  0  0  0  0  0  0
    0.7541   12.7427   41.4563 C   0  0  0  0  0  0  0  0  0  0  0  0
    0.6972   14.0967   41.7749 C   0  0  0  0  0  0  0  0  0  0  0  0
   -1.3337   16.6554   43.6083 C   0  0  0  0  0  0  0  0  0  0  0  0
    2.5051   18.1979   40.5404 C   0  0  0  0  0  0  0  0  0  0  0  0
    3.3030   18.2948   39.3989 C   0  0  0  0  0  0  0  0  0  0  0  0
    1.0691   19.2636   42.2207 N   0  0  0  0  0  0  0  0  0  0  0  0
    0.5651   16.9206   42.2392 N   0  0  0  0  0  0  0  0  0  0  0  0
    4.3827   20.7361   36.9089 O   0  0  0  0  0  0  0  0  0  0  0  0
    4.8994   18.5543   37.0455 O   0  0  0  0  0  0  0  0  0  0  0  0
    3.7051   17.1465   38.7589 O   0  0  0  0  0  0  0  0  0  0  0  0
   -1.1741   18.3698   43.5539 S   0  0  0  0  0  0  0  0  0  0  0  0
   -0.1875   10.2257   41.5423 Cl  0  0  0  0  0  0  0  0  0  0  0  0
    3.3838   21.6404   39.0112 H   0  0  0  0  0  0  0  0  0  0  0  0
    1.7384   21.4982   40.8674 H   0  0  0  0  0  0  0  0  0  0  0  0
   -2.1128   14.1224   43.6908 H   0  0  0  0  0  0  0  0  0  0  0  0
   -2.0014   11.6842   43.1792 H   0  0  0  0  0  0  0  0  0  0  0  0
    1.5624   12.3454   40.8248 H   0  0  0  0  0  0  0  0  0  0  0  0
    1.4634   14.7763   41.3736 H   0  0  0  0  0  0  0  0  0  0  0  0
   -2.1153   16.1196   44.1669 H   0  0  0  0  0  0  0  0  0  0  0  0
    2.2728   17.2113   40.9678 H   0  0  0  0  0  0  0  0  0  0  0  0
    0.9257   20.1410   42.7408 H   0  0  0  0  0  0  0  0  0  0  0  0
  1  2  1  0
  1 19  1  0
  1 20  2  0
  2  3  1  0
  2 16  2  0
  3  4  2  0
  4  5  1  0
  5 15  2  0
  5 17  1  0
  6 17  1  0
  6 18  2  0
  6 22  1  0
  7  8  1  0
  7 14  2  0
  7 18  1  0
  8  9  1  0
  8 13  2  0
  9 10  2  0
 10 11  1  0
 11 12  2  0
 11 23  1  0
 12 13  1  0
 14 22  1  0
 15 16  1  0
 16 21  1  0
  3 24  1  0
  4 25  1  0
  9 26  1  0
 10 27  1  0
 12 28  1  0
 13 29  1  0
 14 30  1  0
 15 31  1  0
 17 32  1  0
M  CHG  2  19  -1  21  -1
M  END
>  <mol_id>  (18) 
2026-08-24-6tgu-s0-n100-0018

>  <rmsd_to_ref>  (18) 
1.234693877551823

>  <pose_kind>  (18) 
rigid

$$$$
6tgu.A
     RDKit          3D

 32 34  0  0  0  0  0  0  0  0999 V2000
    3.1548   20.2708   37.7385 C   0  0  0  0  0  0  0  0  0  0  0  0
    2.1580   19.8213   38.8103 C   0  0  0  0  0  0  0  0  0  0  0  0
    0.9207   20.4496   38.9336 C   0  0  0  0  0  0  0  0  0  0  0  0
   -0.0857   19.9496   39.7664 C   0  0  0  0  0  0  0  0  0  0  0  0
    0.1875   18.8889   40.6422 C   0  0  0  0  0  0  0  0  0  0  0  0
   -0.9772   17.0805   41.9975 C   0  0  0  0  0  0  0  0  0  0  0  0
   -0.3733   14.9712   42.5989 C   0  0  0  0  0  0  0  0  0  0  0  0
    0.5527   13.8490   42.7545 C   0  0  0  0  0  0  0  0  0  0  0  0
    0.1279   12.5922   43.2085 C   0  0  0  0  0  0  0  0  0  0  0  0
    1.0190   11.5291   43.3170 C   0  0  0  0  0  0  0  0  0  0  0  0
    2.3307   11.7207   42.9256 C   0  0  0  0  0  0  0  0  0  0  0  0
    2.7918   12.9449   42.4656 C   0  0  0  0  0  0  0  0  0  0  0  0
    1.8874   13.9994   42.3750 C   0  0  0  0  0  0  0  0  0  0  0  0
   -1.7097   14.9076   42.8927 C   0  0  0  0  0  0  0  0  0  0  0  0
    1.4240   18.2384   40.5234 C   0  0  0  0  0  0  0  0  0  0  0  0
    2.3785   18.7161   39.6236 C   0  0  0  0  0  0  0  0  0  0  0  0
   -0.8456   18.3252   41.4522 N   0  0  0  0  0  0  0  0  0  0  0  0
    0.0624   16.1750   41.9963 N   0  0  0  0  0  0  0  0  0  0  0  0
    2.7307   21.1072   36.8877 O   0  0  0  0  0  0  0  0  0  0  0  0
    4.2766   19.7183   37.7402 O   0  0  0  0  0  0  0  0  0  0  0  0
    3.5439   18.0104   39.4402 O   0  0  0  0  0  0  0  0  0  0  0  0
   -2.5172   16.3497   42.4066 S   0  0  0  0  0  0  0  0  0  0  0  0
    3.4422   10.3948   43.0165 Cl  0  0  0  0  0  0  0  0  0  0  0  0
    0.7293   21.3673   38.3581 H   0  0  0  0  0  0  0  0  0  0  0  0
   -1.0935   20.3893   39.7344 H   0  0  0  0  0  0  0  0  0  0  0  0
   -0.9269   12.4443   43.4833 H   0  0  0  0  0  0  0  0  0  0  0  0
    0.6862   10.5557   43.7066 H   0  0  0  0  0  0  0  0  0  0  0  0
    3.8454   13.0794   42.1796 H   0  0  0  0  0  0  0  0  0  0  0  0
    2.2324   14.9727   41.9960 H   0  0  0  0  0  0  0  0  0  0  0  0
   -2.2018   14.0500   43.3748 H   0  0  0  0  0  0  0  0  0  0  0  0
    1.6416   17.3528   41.1385 H   0  0  0  0  0  0  0  0  0  0  0  0
   -1.6237   18.9672   41.6603 H   0  0  0  0  0  0  0  0  0  0  0  0
  1  2  1  0
  1 19  1  0
  1 20  2  0
  2  3  1  0
  2 16  2  0
  3  4  2  0
  4  5  1  0
  5 15  2  0
  5 17  1  0
  6 17  1  0
  6 18  2  0
  6 22  1  0
  7  8  1  0
  7 14  2  0
  7 18  1  0
  8  9  1  0
  8 13  2  0
  9 10  2  0
 10 11  1  0
 11 12  2  0
 11 23  1  0
 12 13  1  0
 14 22  1  0
 15 16  1  0
 16 21  1  0
  3 24  1  0
  4 25  1  0
  9 26  1  0
 10 27  1  0
 12 28  1  0
 13 29  1  0
 14 30  1  0
 15 31  1  0
 17 32  1  0
M  CHG  2  19  -1  21  -1
M  END
>  <mol_id>  (19) 
2026-08-24-6tgu-s0-n100-0019

>  <rmsd_to_ref>  (19) 
1.2806122449024493

>  <pose_kind>  (19) 
rigid

$$$$
6tgu.A
     RDKit          3D

 32 34  0  0  0  0  0  0  0  0999 V2000
    2.9264   20.9790   37.2546 C   0  0  0  0  0  0  0  0  0  0  0  0
    2.6069   20.4258   38.5653 C   0  0  0  0  0  0  0  0  0  0  0  0
    1.5155   20.8861   39.2298 C   0  0  0  0  0  0  0  0  0  0  0  0
    1.1754   20.3620   40.4505 C   0  0  0  0  0  0  0  0  0  0  0  0
    1.9772   19.3617   40.9707 C   0  0  0  0  0  0  0  0  0  0  0  0
    1.0918   17.4692   42.1837 C   0  0  0  0  0  0  0  0  0  0  0  0
    0.4283   15.3211   42.0616 C   0  0  0  0  0  0  0  0  0  0  0  0
    0.7089   13.9163   42.4454 C   0  0  0  0  0  0  0  0  0  0  0  0
    1.8024   13.5535   43.1929 C   0  0  0  0  0  0  0  0  0  0  0  0
    2.0275   12.2354   43.5332 C   0  0  0  0  0  0  0  0  0  0  0  0
    1.1670   11.2345   43.1364 C   0  0  0  0  0  0  0  0  0  0  0  0
    0.0480   11.5833   42.3722 C   0  0  0  0  0  0  0  0  0  0  0  0
   -0.1513   12.9075   42.0495 C   0  0  0  0  0  0  0  0  0  0  0  0
   -0.6728   15.6519   41.3387 C   0  0  0  0  0  0  0  0  0  0  0  0
    3.0916   18.8660   40.3343 C   0  0  0  0  0  0  0  0  0  0  0  0
    3.4084   19.4129   39.1062 C   0  0  0  0  0  0  0  0  0  0  0  0
    1.5223   18.8450   42.2493 N   0  0  0  0  0  0  0  0  0  0  0  0
    1.1901   16.3476   42.3921 N   0  0  0  0  0  0  0  0  0  0  0  0
    3.9932   20.5786   36.4742 O   0  0  0  0  0  0  0  0  0  0  0  0
    2.1900   21.8962   36.7673 O   0  0  0  0  0  0  0  0  0  0  0  0
    4.5174   18.9812   38.3846 O   0  0  0  0  0  0  0  0  0  0  0  0
   -0.5519   17.4769   41.1705 S   0  0  0  0  0  0  0  0  0  0  0  0
    1.4063    9.5446   43.5389 Cl  0  0  0  0  0  0  0  0  0  0  0  0
    0.8771   21.6791   38.8273 H   0  0  0  0  0  0  0  0  0  0  0  0
    0.3002   20.7202   40.9940 H   0  0  0  0  0  0  0  0  0  0  0  0
    2.5011   14.3382   43.5239 H   0  0  0  0  0  0  0  0  0  0  0  0
    2.8970   11.9839   44.1364 H   0  0  0  0  0  0  0  0  0  0  0  0
   -0.6618   10.8444   42.0341 H   0  0  0  0  0  0  0  0  0  0  0  0
   -1.0010   13.1605   41.4658 H   0  0  0  0  0  0  0  0  0  0  0  0
   -1.5092   15.0676   40.8994 H   0  0  0  0  0  0  0  0  0  0  0  0
    3.6873   18.0819   40.7764 H   0  0  0  0  0  0  0  0  0  0  0  0
    1.5188   19.4129   43.1021 H   0  0  0  0  0  0  0  0  0  0  0  0
  1  2  1  0
  1 19  1  0
  1 20  2  0
  2  3  1  0
  2 16  2  0
  3  4  2  0
  4  5  1  0
  5 15  2  0
  5 17  1  0
  6 17  1  0
  6 18  2  0
  6 22  1  0
  7  8  1  0
  7 14  2  0
  7 18  1  0
  8  9  1  0
  8 13  2  0
  9 10  2  0
 10 11  1  0
 11 12  2  0
 11 23  1  0
 12 13  1  0
 14 22  1  0
 15 16  1  0
 16 21  1  0
  3 24  1  0
  4 25  1  0
  9 26  1  0
 10 27  1  0
 12 28  1  0
 13 29  1  0
 14 30  1  0
 15 31  1  0
 17 32  1  0
M  CHG  2  19  -1  21  -1
M  END
>  <mol_id>  (20) 
2026-08-24-6tgu-s0-n100-0020

>  <rmsd_to_ref>  (20) 
1.3265306122453

>  <pose_kind>  (20) 
conformer

$$$$
6tgu.A
     RDKit          3D

 32 34  0  0  0  0  0  0  0  0999 V2000
    1.6641   19.7579   36.3492 C   0  0  0  0  0  0  0  0  0  0  0  0
    1.5950   19.7075   37.8780 C   0  0  0  0  0  0  0  0  0  0  0  0
    0.9007   20.6851   38.5872 C   0  0  0  0  0  0  0  0  0  0  0  0
    0.6545   20.5721   39.9595 C   0  0  0  0  0  0  0  0  0  0  0  0
    1.2569   19.5452   40.7007 C   0  0  0  0  0  0  0  0  0  0  0  0
    1.0221   18.2734   42.8894 C   0  0  0  0  0  0  0  0  0  0  0  0
    1.4938   16.1299   43.4883 C   0  0  0  0  0  0  0  0  0  0  0  0
    2.0672   14.7961   43.3055 C   0  0  0  0  0  0  0  0  0  0  0  0
    1.8503   13.7612   44.2264 C   0  0  0  0  0  0  0  0  0  0  0  0
    2.3773   12.4908   44.0160 C   0  0  0  0  0  0  0  0  0  0  0  0
    3.0866   12.2510   42.8542 C   0  0  0  0  0  0  0  0  0  0  0  0
    3.3198   13.2437   41.9143 C   0  0  0  0  0  0  0  0  0  0  0  0
    2.7939   14.5112   42.1484 C   0  0  0  0  0  0  0  0  0  0  0  0
    0.7230   16.4916   44.5614 C   0  0  0  0  0  0  0  0  0  0  0  0
    1.9498   18.5470   40.0009 C   0  0  0  0  0  0  0  0  0  0  0  0
    2.1096   18.6495   38.6178 C   0  0  0  0  0  0  0  0  0  0  0  0
    0.9650   19.3780   42.0892 N   0  0  0  0  0  0  0  0  0  0  0  0
    1.6089   17.1002   42.4649 N   0  0  0  0  0  0  0  0  0  0  0  0
    0.9314   20.6184   35.7786 O   0  0  0  0  0  0  0  0  0  0  0  0
    2.3732   18.8961   35.7851 O   0  0  0  0  0  0  0  0  0  0  0  0
    2.6983   17.6154   37.9294 O   0  0  0  0  0  0  0  0  0  0  0  0
    0.0672   18.0699   44.3454 S   0  0  0  0  0  0  0  0  0  0  0  0
    3.7138   10.6633   42.5591 Cl  0  0  0  0  0  0  0  0  0  0  0  0
    0.5347   21.5733   38.0514 H   0  0  0  0  0  0  0  0  0  0  0  0
   -0.0130   21.2902   40.4583 H   0  0  0  0  0  0  0  0  0  0  0  0
    1.2540   13.9569   45.1298 H   0  0  0  0  0  0  0  0  0  0  0  0
    2.2322   11.6931   44.7595 H   0  0  0  0  0  0  0  0  0  0  0  0
    3.9053   13.0348   41.0069 H   0  0  0  0  0  0  0  0  0  0  0  0
    2.9548   15.3059   41.4051 H   0  0  0  0  0  0  0  0  0  0  0  0
    0.5465   15.8586   45.4435 H   0  0  0  0  0  0  0  0  0  0  0  0
    2.3669   17.6843   40.5411 H   0  0  0  0  0  0  0  0  0  0  0  0
    0.6595   20.2372   42.5681 H   0  0  0  0  0  0  0  0  0  0  0  0
  1  2  1  0
  1 19  1  0
  1 20  2  0
  2  3  1  0
  2 16  2  0
  3  4  2  0
  4  5  1  0
  5 15  2  0
  5 17  1  0
  6 17  1  0
  6 18  2  0
  6 22  1  0
  7  8  1  0
  7 14  2  0
  7 18  1  0
  8  9  1  0
  8 13  2  0
  9 10  2  0
 10 11  1  0
 11 12  2  0
 11 23  1  0
 12 13  1  0
 14 22  1  0
 15 16  1  0
 16 21  1  0
  3 24  1  0
  4 25  1  0
  9 26  1  0
 10 27  1  0
 12 28  1  0
 13 29  1  0
 14 30  1  0
 15 31  1  0
 17 32  1  0
M  CHG  2  19  -1  21  -1
M  END
>  <mol_id>  (21) 
2026-08-24-6tgu-s0-n100-0021

>  <rmsd_to_ref>  (21) 
1.3724489796003692

>  <pose_kind>  (21) 
rigid

$$$$
6tgu.A
     RDKit          3D

 32 34  0  0  0  0  0  0  0  0999 V2000
    3.3712   20.9453   37.3631 C   0  0  0  0  0  0  0  0  0  0  0  0
    3.0046   20.3497   38.6426 C   0  0  0  0  0  0  0  0  0  0  0  0
    1.9906   20.8974   39.3612 C   0  0  0  0  0  0  0  0  0  0  0  0
    1.6057   20.3392   40.5533 C   0  0  0  0  0  0  0  0  0  0  0  0
    2.2826   19.2139   40.9886 C   0  0  0  0  0  0  0  0  0  0  0  0
    1.1837   17.3700   42.0974 C   0  0  0  0  0  0  0  0  0  0  0  0
    0.2521   15.3349   41.8526 C   0  0  0  0  0  0  0  0  0  0  0  0
    0.3587   13.8835   42.1381 C   0  0  0  0  0  0  0  0  0  0  0  0
    1.4090   13.3373   42.8344 C   0  0  0  0  0  0  0  0  0  0  0  0
    1.4707   11.9816   43.0833 C   0  0  0  0  0  0  0  0  0  0  0  0
    0.4845   11.1252   42.6433 C   0  0  0  0  0  0  0  0  0  0  0  0
   -0.5931   11.6618   41.9300 C   0  0  0  0  0  0  0  0  0  0  0  0
   -0.6283   13.0191   41.6984 C   0  0  0  0  0  0  0  0  0  0  0  0
   -0.8094   15.8487   41.1790 C   0  0  0  0  0  0  0  0  0  0  0  0
    3.3154   18.6263   40.2951 C   0  0  0  0  0  0  0  0  0  0  0  0
    3.6798   19.2104   39.0977 C   0  0  0  0  0  0  0  0  0  0  0  0
    1.7857   18.6735   42.2415 N   0  0  0  0  0  0  0  0  0  0  0  0
    1.1426   16.2334   42.2306 N   0  0  0  0  0  0  0  0  0  0  0  0
    4.3666   20.4677   36.5334 O   0  0  0  0  0  0  0  0  0  0  0  0
    2.7492   21.9780   36.9538 O   0  0  0  0  0  0  0  0  0  0  0  0
    4.7140   18.6927   38.3236 O   0  0  0  0  0  0  0  0  0  0  0  0
   -0.4612   17.6513   41.1262 S   0  0  0  0  0  0  0  0  0  0  0  0
    0.5143    9.3954   42.9300 Cl  0  0  0  0  0  0  0  0  0  0  0  0
    1.4514   21.7893   39.0261 H   0  0  0  0  0  0  0  0  0  0  0  0
    0.7915   20.7670   41.1394 H   0  0  0  0  0  0  0  0  0  0  0  0
    2.2063   14.0044   43.1986 H   0  0  0  0  0  0  0  0  0  0  0  0
    2.3106   11.5833   43.6482 H   0  0  0  0  0  0  0  0  0  0  0  0
   -1.3958   11.0419   41.5619 H   0  0  0  0  0  0  0  0  0  0  0  0
   -1.4481   13.4151   41.1527 H   0  0  0  0  0  0  0  0  0  0  0  0
   -1.7196   15.4045   40.7229 H   0  0  0  0  0  0  0  0  0  0  0  0
    3.8139   17.7460   40.6713 H   0  0  0  0  0  0  0  0  0  0  0  0
    1.8673   19.1789   43.1290 H   0  0  0  0  0  0  0  0  0  0  0  0
  1  2  1  0
  1 19  1  0
  1 20  2  0
  2  3  1  0
  2 16  2  0
  3  4  2  0
  4  5  1  0
  5 15  2  0
  5 17  1  0
  6 17  1  0
  6 18  2  0
  6 22  1  0
  7  8  1  0
  7 14  2  0
  7 18  1  0
  8  9  1  0
  8 13  2  0
  9 10  2  0
 10 11  1  0
 11 12  2  0
 11 23  1  0
 12 13  1  0
 14 22  1  0
 15 16  1  0
 16 21  1  0
  3 24  1  0
  4 25  1  0
  9 26  1  0
 10 27  1  0
 12 28  1  0
 13 29  1  0
 14 30  1  0
 15 31  1  0
 17 32  1  0
M  CHG  2  19  -1  21  -1
M  END
>  <mol_id>  (22) 
2026-08-24-6tgu-s0-n100-0022

>  <rmsd_to_ref>  (22) 
1.418367346939807

>  <pose_kind>  (22) 
conformer

$$$$
6tgu.A
     RDKit          3D

 32 34  0  0  0  0  0  0  0  0999 V2000
    4.5836   19.6401   37.7297 C   0  0  0  0  0  0  0  0  0  0  0  0
    3.7328   19.5156   38.9966 C   0  0  0  0  0  0  0  0  0  0  0  0
    3.2168   20.6515   39.6165 C   0  0  0  0  0  0  0  0  0  0  0  0
    2.2853   20.5706   40.6568 C   0  0  0  0  0  0  0  0  0  0  0  0
    1.9733   19.3281   41.2276 C   0  0  0  0  0  0  0  0  0  0  0  0
    0.1861   18.1727   42.6184 C   0  0  0  0  0  0  0  0  0  0  0  0
   -0.5864   16.0336   42.6715 C   0  0  0  0  0  0  0  0  0  0  0  0
   -0.5693   14.6075   42.3441 C   0  0  0  0  0  0  0  0  0  0  0  0
   -1.6056   13.7443   42.7276 C   0  0  0  0  0  0  0  0  0  0  0  0
   -1.5856   12.3981   42.3766 C   0  0  0  0  0  0  0  0  0  0  0  0
   -0.5418   11.9305   41.6005 C   0  0  0  0  0  0  0  0  0  0  0  0
    0.5003   12.7504   41.1946 C   0  0  0  0  0  0  0  0  0  0  0  0
    0.4680   14.0918   41.5654 C   0  0  0  0  0  0  0  0  0  0  0  0
   -1.5850   16.6438   43.3834 C   0  0  0  0  0  0  0  0  0  0  0  0
    2.4754   18.1744   40.6089 C   0  0  0  0  0  0  0  0  0  0  0  0
    3.3420   18.2890   39.5203 C   0  0  0  0  0  0  0  0  0  0  0  0
    0.9774   19.2212   42.2464 N   0  0  0  0  0  0  0  0  0  0  0  0
    0.3988   16.8979   42.1383 N   0  0  0  0  0  0  0  0  0  0  0  0
    4.6441   20.7887   37.2004 O   0  0  0  0  0  0  0  0  0  0  0  0
    5.0820   18.5868   37.2758 O   0  0  0  0  0  0  0  0  0  0  0  0
    3.7444   17.1540   38.8573 O   0  0  0  0  0  0  0  0  0  0  0  0
   -1.3679   18.3527   43.4096 S   0  0  0  0  0  0  0  0  0  0  0  0
   -0.5245   10.2656   41.1214 Cl  0  0  0  0  0  0  0  0  0  0  0  0
    3.5523   21.6426   39.2773 H   0  0  0  0  0  0  0  0  0  0  0  0
    1.7964   21.4834   41.0280 H   0  0  0  0  0  0  0  0  0  0  0  0
   -2.4480   14.1378   43.3154 H   0  0  0  0  0  0  0  0  0  0  0  0
   -2.3844   11.7194   42.7102 H   0  0  0  0  0  0  0  0  0  0  0  0
    1.3314   12.3509   40.5948 H   0  0  0  0  0  0  0  0  0  0  0  0
    1.2778   14.7602   41.2375 H   0  0  0  0  0  0  0  0  0  0  0  0
   -2.4149   16.1135   43.8732 H   0  0  0  0  0  0  0  0  0  0  0  0
    2.1869   17.1801   40.9808 H   0  0  0  0  0  0  0  0  0  0  0  0
    0.8317   20.0816   42.7934 H   0  0  0  0  0  0  0  0  0  0  0  0
  1  2  1  0
  1 19  1  0
  1 20  2  0
  2  3  1  0
  2 16  2  0
  3  4  2  0
  4  5  1  0
  5 15  2  0
  5 17  1  0
  6 17  1  0
  6 18  2  0
  6 22  1  0
  7  8  1  0
  7 14  2  0
  7 18  1  0
  8  9  1  0
  8 13  2  0
  9 10  2  0
 10 11  1  0
 11 12  2  0
 11 23  1  0
 12 13  1  0
 14 22  1  0
 15 16  1  0
 16 21  1  0
  3 24  1  0
  4 25  1  0
  9 26  1  0
 10 27  1  0
 12 28  1  0
 13 29  1  0
 14 30  1  0
 15 31  1  0
 17 32  1  0
M  CHG  2  19  -1  21  -1
M  END
>  <mol_id>  (23) 
2026-08-24-6tgu-s0-n100-0023

>  <rmsd_to_ref>  (23) 
1.4642857142957943

>  <pose_kind>  (23) 
rigid

$$$$
6tgu.A
     RDKit          3D

 32 34  0  0  0  0  0  0  0  0999 V2000
    1.7879   20.8849   37.1840 C   0  0  0  0  0  0  0  0  0  0  0  0
    1.7500   20.3161   38.5260 C   0  0  0  0  0  0  0  0  0  0  0  0
    0.6982   20.6017   39.3364 C   0  0  0  0  0  0  0  0  0  0  0  0
    0.6228   20.0560   40.5923 C   0  0  0  0  0  0  0  0  0  0  0  0
    1.6464   19.2168   40.9950 C   0  0  0  0  0  0  0  0  0  0  0  0
    1.2697   17.2308   42.3182 C   0  0  0  0  0  0  0  0  0  0  0  0
    0.9695   14.9996   42.2882 C   0  0  0  0  0  0  0  0  0  0  0  0
    1.5342   13.6711   42.6282 C   0  0  0  0  0  0  0  0  0  0  0  0
    2.7656   13.5143   43.2159 C   0  0  0  0  0  0  0  0  0  0  0  0
    3.2554   12.2608   43.5206 C   0  0  0  0  0  0  0  0  0  0  0  0
    2.5308   11.1209   43.2468 C   0  0  0  0  0  0  0  0  0  0  0  0
    1.2746   11.2591   42.6462 C   0  0  0  0  0  0  0  0  0  0  0  0
    0.8113   12.5233   42.3553 C   0  0  0  0  0  0  0  0  0  0  0  0
   -0.2605   15.1241   41.7260 C   0  0  0  0  0  0  0  0  0  0  0  0
    2.7305   18.9008   40.2092 C   0  0  0  0  0  0  0  0  0  0  0  0
    2.7782   19.4648   38.9493 C   0  0  0  0  0  0  0  0  0  0  0  0
    1.4656   18.6605   42.3241 N   0  0  0  0  0  0  0  0  0  0  0  0
    1.5844   16.1467   42.5101 N   0  0  0  0  0  0  0  0  0  0  0  0
    2.7897   20.6516   36.2623 O   0  0  0  0  0  0  0  0  0  0  0  0
    0.8468   21.6540   36.8047 O   0  0  0  0  0  0  0  0  0  0  0  0
    3.8345   19.2091   38.0800 O   0  0  0  0  0  0  0  0  0  0  0  0
   -0.4749   16.9391   41.5438 S   0  0  0  0  0  0  0  0  0  0  0  0
    3.1060    9.5047   43.6109 Cl  0  0  0  0  0  0  0  0  0  0  0  0
   -0.1145   21.2668   39.0274 H   0  0  0  0  0  0  0  0  0  0  0  0
   -0.2173   20.2746   41.2526 H   0  0  0  0  0  0  0  0  0  0  0  0
    3.3599   14.4126   43.4468 H   0  0  0  0  0  0  0  0  0  0  0  0
    4.2295   12.1728   43.9966 H   0  0  0  0  0  0  0  0  0  0  0  0
    0.6607   10.4040   42.4098 H   0  0  0  0  0  0  0  0  0  0  0  0
   -0.1410   12.6165   41.8959 H   0  0  0  0  0  0  0  0  0  0  0  0
   -1.0380   14.3977   41.4071 H   0  0  0  0  0  0  0  0  0  0  0  0
    3.5055   18.2383   40.5634 H   0  0  0  0  0  0  0  0  0  0  0  0
    1.4831   19.2391   43.1695 H   0  0  0  0  0  0  0  0  0  0  0  0
  1  2  1  0
  1 19  1  0
  1 20  2  0
  2  3  1  0
  2 16  2  0
  3  4  2  0
  4  5  1  0
  5 15  2  0
  5 17  1  0
  6 17  1  0
  6 18  2  0
  6 22  1  0
  7  8  1  0
  7 14  2  0
  7 18  1  0
  8  9  1  0
  8 13  2  0
  9 10  2  0
 10 11  1  0
 11 12  2  0
 11 23  1  0
 12 13  1  0
 14 22  1  0
 15 16  1  0
 16 21  1  0
  3 24  1  0
  4 25  1  0
  9 26  1  0
 10 27  1  0
 12 28  1  0
 13 29  1  0
 14 30  1  0
 15 31  1  0
 17 32  1  0
M  CHG  2  19  -1  21  -1
M  END
>  <mol_id>  (24) 
2026-08-24-6tgu-s0-n100-0024

>  <rmsd_to_ref>  (24) 
1.510204081635661

>  <pose_kind>  (24) 
conformer

$$$$
6tgu.A
     RDKit          3D

 32 34  0  0  0  0  0  0  0  0999 V2000
    1.7299   21.1951   37.2663 C   0  0  0  0  0  0  0  0  0  0  0  0
    1.6408   20.5895   38.6699 C   0  0  0  0  0  0  0  0  0  0  0  0
    0.9208   21.2335   39.6736 C   0  0  0  0  0  0  0  0  0  0  0  0
    0.6579   20.6250   40.9053 C   0  0  0  0  0  0  0  0  0  0  0  0
    1.2671   19.4048   41.2320 C   0  0  0  0  0  0  0  0  0  0  0  0
    1.0236   17.4195   42.8013 C   0  0  0  0  0  0  0  0  0  0  0  0
    1.5225   15.2103   42.5859 C   0  0  0  0  0  0  0  0  0  0  0  0
    2.1203   14.0413   41.9400 C   0  0  0  0  0  0  0  0  0  0  0  0
    1.9081   12.7395   42.4158 C   0  0  0  0  0  0  0  0  0  0  0  0
    2.4589   11.6391   41.7665 C   0  0  0  0  0  0  0  0  0  0  0  0
    3.1878   11.8473   40.6107 C   0  0  0  0  0  0  0  0  0  0  0  0
    3.4173   13.1168   40.1022 C   0  0  0  0  0  0  0  0  0  0  0  0
    2.8674   14.2060   40.7726 C   0  0  0  0  0  0  0  0  0  0  0  0
    0.7314   15.1474   43.7024 C   0  0  0  0  0  0  0  0  0  0  0  0
    1.9858   18.7381   40.2295 C   0  0  0  0  0  0  0  0  0  0  0  0
    2.1627   19.3399   38.9823 C   0  0  0  0  0  0  0  0  0  0  0  0
    0.9592   18.7393   42.4582 N   0  0  0  0  0  0  0  0  0  0  0  0
    1.6355   16.4884   41.9893 N   0  0  0  0  0  0  0  0  0  0  0  0
    0.9908   22.1968   37.0352 O   0  0  0  0  0  0  0  0  0  0  0  0
    2.4608   20.6060   36.4401 O   0  0  0  0  0  0  0  0  0  0  0  0
    2.7778   18.6346   37.9753 O   0  0  0  0  0  0  0  0  0  0  0  0
    0.0524   16.6887   44.0647 S   0  0  0  0  0  0  0  0  0  0  0  0
    3.8452   10.4834   39.7687 Cl  0  0  0  0  0  0  0  0  0  0  0  0
    0.5475   22.2522   39.4920 H   0  0  0  0  0  0  0  0  0  0  0  0
   -0.0282   21.1044   41.6191 H   0  0  0  0  0  0  0  0  0  0  0  0
    1.2964   12.5858   43.3170 H   0  0  0  0  0  0  0  0  0  0  0  0
    2.3170   10.6236   42.1649 H   0  0  0  0  0  0  0  0  0  0  0  0
    4.0185   13.2597   39.1922 H   0  0  0  0  0  0  0  0  0  0  0  0
    3.0251   15.2188   40.3734 H   0  0  0  0  0  0  0  0  0  0  0  0
    0.5533   14.2343   44.2894 H   0  0  0  0  0  0  0  0  0  0  0  0
    2.4097   17.7422   40.4255 H   0  0  0  0  0  0  0  0  0  0  0  0
    0.6330   19.3612   43.2117 H   0  0  0  0  0  0  0  0  0  0  0  0
  1  2  1  0
  1 19  1  0
  1 20  2  0
  2  3  1  0
  2 16  2  0
  3  4  2  0
  4  5  1  0
  5 15  2  0
  5 17  1  0
  6 17  1  0
  6 18  2  0
  6 22  1  0
  7  8  1  0
  7 14  2  0
  7 18  1  0
  8  9  1  0
  8 13  2  0
  9 10  2  0
 10 11  1  0
 11 12  2  0
 11 23  1  0
 12 13  1  0
 14 22  1  0
 15 16  1  0
 16 21  1  0
  3 24  1  0
  4 25  1  0
  9 26  1  0
 10 27  1  0
 12 28  1  0
 13 29  1  0
 14 30  1  0
 15 31  1  0
 17 32  1  0
M  CHG  2  19  -1  21  -1
M  END
>  <mol_id>  (25) 
2026-08-24-6tgu-s0-n100-0025

>  <rmsd_to_ref>  (25) 
1.5561224489799013

>  <pose_kind>  (25) 
rigid

$$$$
6tgu.A
     RDKit          3D

 32 34  0  0  0  0  0  0  0  0999 V2000
    3.4802   19.8946   36.4556 C   0  0  0  0  0  0  0  0  0  0  0  0
    3.1247   19.6741   37.8524 C   0  0  0  0  0  0  0  0  0  0  0  0
    2.0880   20.3683   38.3890 C   0  0  0  0  0  0  0  0  0  0  0  0
    1.7137   20.1582   39.6915 C   0  0  0  0  0  0  0  0  0  0  0  0
    2.4245   19.2260   40.4261 C   0  0  0  0  0  0  0  0  0  0  0  0
    1.3799   17.7359   42.0152 C   0  0  0  0  0  0  0  0  0  0  0  0
    0.5183   15.6845   42.3600 C   0  0  0  0  0  0  0  0  0  0  0  0
    0.6711   14.3780   43.0450 C   0  0  0  0  0  0  0  0  0  0  0  0
    1.7341   14.0875   43.8647 C   0  0  0  0  0  0  0  0  0  0  0  0
    1.8392   12.8608   44.4877 C   0  0  0  0  0  0  0  0  0  0  0  0
    0.8852   11.8820   44.3111 C   0  0  0  0  0  0  0  0  0  0  0  0
   -0.2046   12.1575   43.4780 C   0  0  0  0  0  0  0  0  0  0  0  0
   -0.2834   13.3915   42.8711 C   0  0  0  0  0  0  0  0  0  0  0  0
   -0.5550   15.9500   41.5713 C   0  0  0  0  0  0  0  0  0  0  0  0
    3.4811   18.5013   39.9249 C   0  0  0  0  0  0  0  0  0  0  0  0
    3.8343   18.7341   38.6100 C   0  0  0  0  0  0  0  0  0  0  0  0
    1.9372   19.0464   41.7822 N   0  0  0  0  0  0  0  0  0  0  0  0
    1.3757   16.6830   42.4653 N   0  0  0  0  0  0  0  0  0  0  0  0
    4.4968   19.2355   35.7926 O   0  0  0  0  0  0  0  0  0  0  0  0
    2.8271   20.7473   35.7719 O   0  0  0  0  0  0  0  0  0  0  0  0
    4.8905   18.0536   38.0117 O   0  0  0  0  0  0  0  0  0  0  0  0
   -0.2666   17.6744   41.0086 S   0  0  0  0  0  0  0  0  0  0  0  0
    0.9705   10.3064   45.0765 Cl  0  0  0  0  0  0  0  0  0  0  0  0
    1.5219   21.1098   37.8163 H   0  0  0  0  0  0  0  0  0  0  0  0
    0.8815   20.7067   40.1345 H   0  0  0  0  0  0  0  0  0  0  0  0
    2.5062   14.8572   44.0227 H   0  0  0  0  0  0  0  0  0  0  0  0
    2.6880   12.6678   45.1400 H   0  0  0  0  0  0  0  0  0  0  0  0
   -0.9837   11.4319   43.3029 H   0  0  0  0  0  0  0  0  0  0  0  0
   -1.1120   13.5885   42.2377 H   0  0  0  0  0  0  0  0  0  0  0  0
   -1.4467   15.3641   41.2623 H   0  0  0  0  0  0  0  0  0  0  0  0
    4.0060   17.7811   40.5339 H   0  0  0  0  0  0  0  0  0  0  0  0
    1.9956   19.7851   42.4898 H   0  0  0  0  0  0  0  0  0  0  0  0
  1  2  1  0
  1 19  1  0
  1 20  2  0
  2  3  1  0
  2 16  2  0
  3  4  2  0
  4  5  1  0
  5 15  2  0
  5 17  1  0
  6 17  1  0
  6 18  2  0
  6 22  1  0
  7  8  1  0
  7 14  2  0
  7 18  1  0
  8  9  1  0
  8 13  2  0
  9 10  2  0
 10 11  1  0
 11 12  2  0
 11 23  1  0
 12 13  1  0
 14 22  1  0
 15 16  1  0
 16 21  1  0
  3 24  1  0
  4 25  1  0
  9 26  1  0
 10 27  1  0
 12 28  1  0
 13 29  1  0
 14 30  1  0
 15 31  1  0
 17 32  1  0
M  CHG  2  19  -1  21  -1
M  END
>  <mol_id>  (26) 
2026-08-24-6tgu-s0-n100-0026

>  <rmsd_to_ref>  (26) 
1.6020408163296143

>  <pose_kind>  (26) 
conformer

$$$$
6tgu.A
     RDKit          3D

 32 34  0  0  0  0  0  0  0  0999 V2000
    3.8450   18.5132   36.4106 C   0  0  0  0  0  0  0  0  0  0  0  0
    2.9825   18.7989   37.6432 C   0  0  0  0  0  0  0  0  0  0  0  0
    2.1565   19.9199   37.6840 C   0  0  0  0  0  0  0  0  0  0  0  0
    1.2182   20.1134   38.7031 C   0  0  0  0  0  0  0  0  0  0  0  0
    1.2037   19.2624   39.8177 C   0  0  0  0  0  0  0  0  0  0  0  0
   -0.3039   18.5032   41.7187 C   0  0  0  0  0  0  0  0  0  0  0  0
   -0.5019   16.5339   42.8406 C   0  0  0  0  0  0  0  0  0  0  0  0
   -0.0993   15.1824   43.2312 C   0  0  0  0  0  0  0  0  0  0  0  0
   -0.8992   14.3775   44.0548 C   0  0  0  0  0  0  0  0  0  0  0  0
   -0.5130   13.0825   44.3865 C   0  0  0  0  0  0  0  0  0  0  0  0
    0.6593   12.5825   43.8516 C   0  0  0  0  0  0  0  0  0  0  0  0
    1.4772   13.3418   43.0285 C   0  0  0  0  0  0  0  0  0  0  0  0
    1.0792   14.6391   42.7174 C   0  0  0  0  0  0  0  0  0  0  0  0
   -1.6635   17.1348   43.2480 C   0  0  0  0  0  0  0  0  0  0  0  0
    2.0209   18.1234   39.7875 C   0  0  0  0  0  0  0  0  0  0  0  0
    2.8907   17.9188   38.7148 C   0  0  0  0  0  0  0  0  0  0  0  0
    0.2112   19.4074   40.8352 N   0  0  0  0  0  0  0  0  0  0  0  0
    0.2572   17.2554   41.8890 N   0  0  0  0  0  0  0  0  0  0  0  0
    3.6387   19.2415   35.3956 O   0  0  0  0  0  0  0  0  0  0  0  0
    4.6232   17.5366   36.4773 O   0  0  0  0  0  0  0  0  0  0  0  0
    3.6095   16.7491   38.6443 O   0  0  0  0  0  0  0  0  0  0  0  0
   -1.8953   18.6393   42.4415 S   0  0  0  0  0  0  0  0  0  0  0  0
    1.1323   10.9577   44.2228 Cl  0  0  0  0  0  0  0  0  0  0  0  0
    2.2448   20.6762   36.8901 H   0  0  0  0  0  0  0  0  0  0  0  0
    0.4902   20.9348   38.6301 H   0  0  0  0  0  0  0  0  0  0  0  0
   -1.8472   14.7762   44.4450 H   0  0  0  0  0  0  0  0  0  0  0  0
   -1.1284   12.4690   45.0610 H   0  0  0  0  0  0  0  0  0  0  0  0
    2.4166   12.9295   42.6315 H   0  0  0  0  0  0  0  0  0  0  0  0
    1.7075   15.2494   42.0521 H   0  0  0  0  0  0  0  0  0  0  0  0
   -2.3561   16.7127   43.9911 H   0  0  0  0  0  0  0  0  0  0  0  0
    1.9768   17.3921   40.6080 H   0  0  0  0  0  0  0  0  0  0  0  0
   -0.1826   20.3557   40.9158 H   0  0  0  0  0  0  0  0  0  0  0  0
  1  2  1  0
  1 19  1  0
  1 20  2  0
  2  3  1  0
  2 16  2  0
  3  4  2  0
  4  5  1  0
  5 15  2  0
  5 17  1  0
  6 17  1  0
  6 18  2  0
  6 22  1  0
  7  8  1  0
  7 14  2  0
  7 18  1  0
  8  9  1  0
  8 13  2  0
  9 10  2  0
 10 11  1  0
 11 12  2  0
 11 23  1  0
 12 13  1  0
 14 22  1  0
 15 16  1  0
 16 21  1  0
  3 24  1  0
  4 25  1  0
  9 26  1  0
 10 27  1  0
 12 28  1  0
 13 29  1  0
 14 30  1  0
 15 31  1  0
 17 32  1  0
M  CHG  2  19  -1  21  -1
M  END
>  <mol_id>  (27) 
2026-08-24-6tgu-s0-n100-0027

>  <rmsd_to_ref>  (27) 
1.647959183682618

>  <pose_kind>  (27) 
rigid

$$$$
6tgu.A
     RDKit          3D

 32 34  0  0  0  0  0  0  0  0999 V2000
    2.6878   19.6993   36.4027 C   0  0  0  0  0  0  0  0  0  0  0  0
    2.4542   19.5534   37.8346 C   0  0  0  0  0  0  0  0  0  0  0  0
    1.4298   20.2341   38.4107 C   0  0  0  0  0  0  0  0  0  0  0  0
    1.1695   20.0918   39.7496 C   0  0  0  0  0  0  0  0  0  0  0  0
    1.9807   19.2410   40.4791 C   0  0  0  0  0  0  0  0  0  0  0  0
    1.1385   17.8113   42.2351 C   0  0  0  0  0  0  0  0  0  0  0  0
    0.4085   15.7502   42.7722 C   0  0  0  0  0  0  0  0  0  0  0  0
    0.6787   14.4985   43.5202 C   0  0  0  0  0  0  0  0  0  0  0  0
    1.8157   14.3085   44.2669 C   0  0  0  0  0  0  0  0  0  0  0  0
    2.0295   13.1302   44.9523 C   0  0  0  0  0  0  0  0  0  0  0  0
    1.1140   12.1008   44.9134 C   0  0  0  0  0  0  0  0  0  0  0  0
   -0.0501   12.2738   44.1565 C   0  0  0  0  0  0  0  0  0  0  0  0
   -0.2368   13.4616   43.4846 C   0  0  0  0  0  0  0  0  0  0  0  0
   -0.7350   15.9168   42.0587 C   0  0  0  0  0  0  0  0  0  0  0  0
    3.0292   18.5331   39.9383 C   0  0  0  0  0  0  0  0  0  0  0  0
    3.2663   18.6963   38.5874 C   0  0  0  0  0  0  0  0  0  0  0  0
    1.6106   19.1275   41.8786 N   0  0  0  0  0  0  0  0  0  0  0  0
    1.2215   16.7903   42.7468 N   0  0  0  0  0  0  0  0  0  0  0  0
    3.6805   19.0446   35.7003 O   0  0  0  0  0  0  0  0  0  0  0  0
    1.9419   20.4766   35.7241 O   0  0  0  0  0  0  0  0  0  0  0  0
    4.3046   18.0262   37.9475 O   0  0  0  0  0  0  0  0  0  0  0  0
   -0.5768   17.6126   41.3712 S   0  0  0  0  0  0  0  0  0  0  0  0
    1.3365   10.5830   45.7632 Cl  0  0  0  0  0  0  0  0  0  0  0  0
    0.7847   20.9116   37.8421 H   0  0  0  0  0  0  0  0  0  0  0  0
    0.3486   20.6302   40.2249 H   0  0  0  0  0  0  0  0  0  0  0  0
    2.5590   15.1201   44.3147 H   0  0  0  0  0  0  0  0  0  0  0  0
    2.9353   13.0172   45.5439 H   0  0  0  0  0  0  0  0  0  0  0  0
   -0.8038   11.5047   44.0896 H   0  0  0  0  0  0  0  0  0  0  0  0
   -1.1212   13.5807   42.9099 H   0  0  0  0  0  0  0  0  0  0  0  0
   -1.6182   15.2734   41.8593 H   0  0  0  0  0  0  0  0  0  0  0  0
    3.6350   17.8774   40.5451 H   0  0  0  0  0  0  0  0  0  0  0  0
    1.6879   19.9120   42.5332 H   0  0  0  0  0  0  0  0  0  0  0  0
  1  2  1  0
  1 19  1  0
  1 20  2  0
  2  3  1  0
  2 16  2  0
  3  4  2  0
  4  5  1  0
  5 15  2  0
  5 17  1  0
  6 17  1  0
  6 18  2  0
  6 22  1  0
  7  8  1  0
  7 14  2  0
  7 18  1  0
  8  9  1  0
  8 13  2  0
  9 10  2  0
 10 11  1  0
 11 12  2  0
 11 23  1  0
 12 13  1  0
 14 22  1  0
 15 16  1  0
 16 21  1  0
  3 24  1  0
  4 25  1  0
  9 26  1  0
 10 27  1  0
 12 28  1  0
 13 29  1  0
 14 30  1  0
 15 31  1  0
 17 32  1  0
M  CHG  2  19  -1  21  -1
M  END
>  <mol_id>  (28) 
2026-08-24-6tgu-s0-n100-0028

>  <rmsd_to_ref>  (28) 
1.6938775510212907

>  <pose_kind>  (28) 
conformer

$$$$
6tgu.A
     RDKit          3D

 32 34  0  0  0  0  0  0  0  0999 V2000
    4.8776   19.0580   37.0305 C   0  0  0  0  0  0  0  0  0  0  0  0
    4.3258   19.1158   38.4576 C   0  0  0  0  0  0  0  0  0  0  0  0
    4.1528   20.3397   39.1000 C   0  0  0  0  0  0  0  0  0  0  0  0
    3.4794   20.4481   40.3212 C   0  0  0  0  0  0  0  0  0  0  0  0
    3.1082   19.2935   41.0254 C   0  0  0  0  0  0  0  0  0  0  0  0
    1.5185   18.5000   42.8438 C   0  0  0  0  0  0  0  0  0  0  0  0
    0.4435   16.5273   43.2023 C   0  0  0  0  0  0  0  0  0  0  0  0
    0.1563   15.1111   42.9721 C   0  0  0  0  0  0  0  0  0  0  0  0
   -0.8919   14.4491   43.6271 C   0  0  0  0  0  0  0  0  0  0  0  0
   -1.1688   13.1104   43.3682 C   0  0  0  0  0  0  0  0  0  0  0  0
   -0.4163   12.4498   42.4154 C   0  0  0  0  0  0  0  0  0  0  0  0
    0.6256   13.0675   41.7401 C   0  0  0  0  0  0  0  0  0  0  0  0
    0.8943   14.4042   42.0214 C   0  0  0  0  0  0  0  0  0  0  0  0
   -0.2571   17.3189   44.0735 C   0  0  0  0  0  0  0  0  0  0  0  0
    3.2652   18.0543   40.3884 C   0  0  0  0  0  0  0  0  0  0  0  0
    3.8708   17.9891   39.1322 C   0  0  0  0  0  0  0  0  0  0  0  0
    2.3638   19.3867   42.2414 N   0  0  0  0  0  0  0  0  0  0  0  0
    1.4092   17.1950   42.4126 N   0  0  0  0  0  0  0  0  0  0  0  0
    5.0015   20.1644   36.4274 O   0  0  0  0  0  0  0  0  0  0  0  0
    5.0844   17.9229   36.5482 O   0  0  0  0  0  0  0  0  0  0  0  0
    3.9250   16.7842   38.4724 O   0  0  0  0  0  0  0  0  0  0  0  0
    0.2328   18.9652   43.9411 S   0  0  0  0  0  0  0  0  0  0  0  0
   -0.7759   10.7943   42.0529 Cl  0  0  0  0  0  0  0  0  0  0  0  0
    4.5583   21.2491   38.6325 H   0  0  0  0  0  0  0  0  0  0  0  0
    3.2405   21.4410   40.7300 H   0  0  0  0  0  0  0  0  0  0  0  0
   -1.5054   14.9971   44.3575 H   0  0  0  0  0  0  0  0  0  0  0  0
   -1.9705   12.5881   43.9109 H   0  0  0  0  0  0  0  0  0  0  0  0
    1.2245   12.5152   41.0009 H   0  0  0  0  0  0  0  0  0  0  0  0
    1.7061   14.9145   41.4825 H   0  0  0  0  0  0  0  0  0  0  0  0
   -1.0295   16.9522   44.7656 H   0  0  0  0  0  0  0  0  0  0  0  0
    2.9117   17.1348   40.8777 H   0  0  0  0  0  0  0  0  0  0  0  0
    2.4858   20.2739   42.7501 H   0  0  0  0  0  0  0  0  0  0  0  0
  1  2  1  0
  1 19  1  0
  1 20  2  0
  2  3  1  0
  2 16  2  0
  3  4  2  0
  4  5  1  0
  5 15  2  0
  5 17  1  0
  6 17  1  0
  6 18  2  0
  6 22  1  0
  7  8  1  0
  7 14  2  0
  7 18  1  0
  8  9  1  0
  8 13  2  0
  9 10  2  0
 10 11  1  0
 11 12  2  0
 11 23  1  0
 12 13  1  0
 14 22  1  0
 15 16  1  0
 16 21  1  0
  3 24  1  0
  4 25  1  0
  9 26  1  0
 10 27  1  0
 12 28  1  0
 13 29  1  0
 14 30  1  0
 15 31  1  0
 17 32  1  0
M  CHG  2  19  -1  21  -1
M  END
>  <mol_id>  (29) 
2026-08-24-6tgu-s0-n100-0029

>  <rmsd_to_ref>  (29) 
1.7397959183722373

>  <pose_kind>  (29) 
rigid

$$$$
6tgu.A
     RDKit          3D

 32 34  0  0  0  0  0  0  0  0999 V2000
    0.9514   21.0131   36.8212 C   0  0  0  0  0  0  0  0  0  0  0  0
    1.2543   20.4445   38.1293 C   0  0  0  0  0  0  0  0  0  0  0  0
    0.4522   20.7447   39.1833 C   0  0  0  0  0  0  0  0  0  0  0  0
    0.6969   20.1997   40.4177 C   0  0  0  0  0  0  0  0  0  0  0  0
    1.7782   19.3460   40.5446 C   0  0  0  0  0  0  0  0  0  0  0  0
    1.7296   17.3651   41.9268 C   0  0  0  0  0  0  0  0  0  0  0  0
    1.4013   15.1383   41.9831 C   0  0  0  0  0  0  0  0  0  0  0  0
    2.0165   13.8019   42.1698 C   0  0  0  0  0  0  0  0  0  0  0  0
    3.3557   13.6275   42.4192 C   0  0  0  0  0  0  0  0  0  0  0  0
    3.8904   12.3671   42.5910 C   0  0  0  0  0  0  0  0  0  0  0  0
    3.1041   11.2376   42.5179 C   0  0  0  0  0  0  0  0  0  0  0  0
    1.7373   11.3938   42.2624 C   0  0  0  0  0  0  0  0  0  0  0  0
    1.2319   12.6645   42.0972 C   0  0  0  0  0  0  0  0  0  0  0  0
    0.0695   15.2804   41.7580 C   0  0  0  0  0  0  0  0  0  0  0  0
    2.6176   19.0149   39.5061 C   0  0  0  0  0  0  0  0  0  0  0  0
    2.3453   19.5786   38.2749 C   0  0  0  0  0  0  0  0  0  0  0  0
    1.9400   18.7918   41.8770 N   0  0  0  0  0  0  0  0  0  0  0  0
    2.0684   16.2766   42.0344 N   0  0  0  0  0  0  0  0  0  0  0  0
    1.6771   20.7659   35.6725 O   0  0  0  0  0  0  0  0  0  0  0  0
   -0.0452   21.7955   36.6959 O   0  0  0  0  0  0  0  0  0  0  0  0
    3.1369   19.3083   37.1627 O   0  0  0  0  0  0  0  0  0  0  0  0
   -0.1597   17.0983   41.6314 S   0  0  0  0  0  0  0  0  0  0  0  0
    3.7317    9.6134   42.7262 Cl  0  0  0  0  0  0  0  0  0  0  0  0
   -0.4037   21.4213   39.0929 H   0  0  0  0  0  0  0  0  0  0  0  0
    0.0595   20.4299   41.2723 H   0  0  0  0  0  0  0  0  0  0  0  0
    4.0018   14.5172   42.4855 H   0  0  0  0  0  0  0  0  0  0  0  0
    4.9532   12.2652   42.7990 H   0  0  0  0  0  0  0  0  0  0  0  0
    1.0714   10.5475   42.1959 H   0  0  0  0  0  0  0  0  0  0  0  0
    0.1945   12.7713   41.8995 H   0  0  0  0  0  0  0  0  0  0  0  0
   -0.7739   14.5652   41.6536 H   0  0  0  0  0  0  0  0  0  0  0  0
    3.4487   18.3414   39.6498 H   0  0  0  0  0  0  0  0  0  0  0  0
    2.1837   19.3699   42.6871 H   0  0  0  0  0  0  0  0  0  0  0  0
  1  2  1  0
  1 19  1  0
  1 20  2  0
  2  3  1  0
  2 16  2  0
  3  4  2  0
  4  5  1  0
  5 15  2  0
  5 17  1  0
  6 17  1  0
  6 18  2  0
  6 22  1  0
  7  8  1  0
  7 14  2  0
  7 18  1  0
  8  9  1  0
  8 13  2  0
  9 10  2  0
 10 11  1  0
 11 12  2  0
 11 23  1  0
 12 13  1  0
 14 22  1  0
 15 16  1  0
 16 21  1  0
  3 24  1  0
  4 25  1  0
  9 26  1  0
 10 27  1  0
 12 28  1  0
 13 29  1  0
 14 30  1  0
 15 31  1  0
 17 32  1  0
M  CHG  2  19  -1  21  -1
M  END
>  <mol_id>  (30) 
2026-08-24-6tgu-s0-n100-0030

>  <rmsd_to_ref>  (30) 
1.7857142857164865

>  <pose_kind>  (30) 
conformer

$$$$
6tgu.A
     RDKit          3D

 32 34  0  0  0  0  0  0  0  0999 V2000
    4.7950   20.2222   39.3475 C   0  0  0  0  0  0  0  0  0  0  0  0
    3.6547   19.7264   40.2410 C   0  0  0  0  0  0  0  0  0  0  0  0
    2.6862   20.6119   40.7085 C   0  0  0  0  0  0  0  0  0  0  0  0
    1.5321   20.1708   41.3642 C   0  0  0  0  0  0  0  0  0  0  0  0
    1.4004   18.8226   41.7273 C   0  0  0  0  0  0  0  0  0  0  0  0
   -0.3563   17.0984   42.3635 C   0  0  0  0  0  0  0  0  0  0  0  0
   -0.5050   14.8520   42.0360 C   0  0  0  0  0  0  0  0  0  0  0  0
   -0.0054   13.5297   41.6579 C   0  0  0  0  0  0  0  0  0  0  0  0
   -0.8392   12.4031   41.6194 C   0  0  0  0  0  0  0  0  0  0  0  0
   -0.3509   11.1615   41.2245 C   0  0  0  0  0  0  0  0  0  0  0  0
    0.9689   11.0643   40.8256 C   0  0  0  0  0  0  0  0  0  0  0  0
    1.8268   12.1537   40.8428 C   0  0  0  0  0  0  0  0  0  0  0  0
    1.3222   13.3850   41.2519 C   0  0  0  0  0  0  0  0  0  0  0  0
   -1.8016   15.1060   42.3976 C   0  0  0  0  0  0  0  0  0  0  0  0
    2.3607   17.9164   41.2554 C   0  0  0  0  0  0  0  0  0  0  0  0
    3.4618   18.3816   40.5341 C   0  0  0  0  0  0  0  0  0  0  0  0
    0.2013   18.3443   42.3396 N   0  0  0  0  0  0  0  0  0  0  0  0
    0.3291   15.9887   41.9168 N   0  0  0  0  0  0  0  0  0  0  0  0
    4.7097   21.4155   38.9327 O   0  0  0  0  0  0  0  0  0  0  0  0
    5.6732   19.3889   39.0343 O   0  0  0  0  0  0  0  0  0  0  0  0
    4.3402   17.4763   39.9876 O   0  0  0  0  0  0  0  0  0  0  0  0
   -2.0687   16.7973   42.5876 S   0  0  0  0  0  0  0  0  0  0  0  0
    1.5803    9.5335   40.2924 Cl  0  0  0  0  0  0  0  0  0  0  0  0
    2.8336   21.6914   40.5573 H   0  0  0  0  0  0  0  0  0  0  0  0
    0.7261   20.8828   41.5954 H   0  0  0  0  0  0  0  0  0  0  0  0
   -1.8966   12.5024   41.9059 H   0  0  0  0  0  0  0  0  0  0  0  0
   -1.0021   10.2750   41.2296 H   0  0  0  0  0  0  0  0  0  0  0  0
    2.8792   12.0477   40.5408 H   0  0  0  0  0  0  0  0  0  0  0  0
    1.9844   14.2634   41.2553 H   0  0  0  0  0  0  0  0  0  0  0  0
   -2.5699   14.3331   42.5469 H   0  0  0  0  0  0  0  0  0  0  0  0
    2.2466   16.8404   41.4531 H   0  0  0  0  0  0  0  0  0  0  0  0
   -0.3335   19.0617   42.8497 H   0  0  0  0  0  0  0  0  0  0  0  0
  1  2  1  0
  1 19  1  0
  1 20  2  0
  2  3  1  0
  2 16  2  0
  3  4  2  0
  4  5  1  0
  5 15  2  0
  5 17  1  0
  6 17  1  0
  6 18  2  0
  6 22  1  0
  7  8  1  0
  7 14  2  0
  7 18  1  0
  8  9  1  0
  8 13  2  0
  9 10  2  0
 10 11  1  0
 11 12  2  0
 11 23  1  0
 12 13  1  0
 14 22  1  0
 15 16  1  0
 16 21  1  0
  3 24  1  0
  4 25  1  0
  9 26  1  0
 10 27  1  0
 12 28  1  0
 13 29  1  0
 14 30  1  0
 15 31  1  0
 17 32  1  0
M  CHG  2  19  -1  21  -1
M  END
>  <mol_id>  (31) 
2026-08-24-6tgu-s0-n100-0031

>  <rmsd_to_ref>  (31) 
1.8316326530697669

>  <pose_kind>  (31) 
rigid

$$$$
6tgu.A
     RDKit          3D

 32 34  0  0  0  0  0  0  0  0999 V2000
    2.9661   19.6447   35.8347 C   0  0  0  0  0  0  0  0  0  0  0  0
    2.9918   19.5011   37.2855 C   0  0  0  0  0  0  0  0  0  0  0  0
    2.3253   20.4030   38.0517 C   0  0  0  0  0  0  0  0  0  0  0  0
    2.3083   20.2742   39.4169 C   0  0  0  0  0  0  0  0  0  0  0  0
    2.9882   19.2058   39.9740 C   0  0  0  0  0  0  0  0  0  0  0  0
    2.1585   17.9734   41.8792 C   0  0  0  0  0  0  0  0  0  0  0  0
    1.0214   16.1588   42.5747 C   0  0  0  0  0  0  0  0  0  0  0  0
    1.0869   14.8475   43.2643 C   0  0  0  0  0  0  0  0  0  0  0  0
    2.2554   14.3278   43.7651 C   0  0  0  0  0  0  0  0  0  0  0  0
    2.2753   13.1051   44.4043 C   0  0  0  0  0  0  0  0  0  0  0  0
    1.1271   12.3596   44.5635 C   0  0  0  0  0  0  0  0  0  0  0  0
   -0.0735   12.8706   44.0583 C   0  0  0  0  0  0  0  0  0  0  0  0
   -0.0625   14.0946   43.4267 C   0  0  0  0  0  0  0  0  0  0  0  0
   -0.1530   16.6562   42.1079 C   0  0  0  0  0  0  0  0  0  0  0  0
    3.6771   18.2697   39.2378 C   0  0  0  0  0  0  0  0  0  0  0  0
    3.6754   18.4253   37.8654 C   0  0  0  0  0  0  0  0  0  0  0  0
    2.8876   19.1312   41.4207 N   0  0  0  0  0  0  0  0  0  0  0  0
    2.0629   16.9449   42.3735 N   0  0  0  0  0  0  0  0  0  0  0  0
    3.5846   18.7820   34.9511 O   0  0  0  0  0  0  0  0  0  0  0  0
    2.3382   20.6227   35.3148 O   0  0  0  0  0  0  0  0  0  0  0  0
    4.3452   17.5328   37.0337 O   0  0  0  0  0  0  0  0  0  0  0  0
    0.3169   18.2782   41.3856 S   0  0  0  0  0  0  0  0  0  0  0  0
    1.0962   10.8002   45.3651 Cl  0  0  0  0  0  0  0  0  0  0  0  0
    1.7873   21.2530   37.6199 H   0  0  0  0  0  0  0  0  0  0  0  0
    1.7751   20.9895   40.0442 H   0  0  0  0  0  0  0  0  0  0  0  0
    3.1843   14.9091   43.6521 H   0  0  0  0  0  0  0  0  0  0  0  0
    3.2158   12.7281   44.7998 H   0  0  0  0  0  0  0  0  0  0  0  0
   -1.0045   12.3338   44.1543 H   0  0  0  0  0  0  0  0  0  0  0  0
   -0.9780   14.4710   43.0434 H   0  0  0  0  0  0  0  0  0  0  0  0
   -1.1985   16.2810   42.0994 H   0  0  0  0  0  0  0  0  0  0  0  0
    4.1916   17.4494   39.7147 H   0  0  0  0  0  0  0  0  0  0  0  0
    3.3026   19.8360   42.0378 H   0  0  0  0  0  0  0  0  0  0  0  0
  1  2  1  0
  1 19  1  0
  1 20  2  0
  2  3  1  0
  2 16  2  0
  3  4  2  0
  4  5  1  0
  5 15  2  0
  5 17  1  0
  6 17  1  0
  6 18  2  0
  6 22  1  0
  7  8  1  0
  7 14  2  0
  7 18  1  0
  8  9  1  0
  8 13  2  0
  9 10  2  0
 10 11  1  0
 11 12  2  0
 11 23  1  0
 12 13  1  0
 14 22  1  0
 15 16  1  0
 16 21  1  0
  3 24  1  0
  4 25  1  0
  9 26  1  0
 10 27  1  0
 12 28  1  0
 13 29  1  0
 14 30  1  0
 15 31  1  0
 17 32  1  0
M  CHG  2  19  -1  21  -1
M  END
>  <mol_id>  (32) 
2026-08-24-6tgu-s0-n100-0032

>  <rmsd_to_ref>  (32) 
1.8775510204089336

>  <pose_kind>  (32) 
conformer

$$$$
6tgu.A
     RDKit          3D

 32 34  0  0  0  0  0  0  0  0999 V2000
    3.9595   18.4308   36.9251 C   0  0  0  0  0  0  0  0  0  0  0  0
    2.9833   18.6217   38.0893 C   0  0  0  0  0  0  0  0  0  0  0  0
    1.8873   19.4720   37.9612 C   0  0  0  0  0  0  0  0  0  0  0  0
    0.8749   19.5280   38.9247 C   0  0  0  0  0  0  0  0  0  0  0  0
    1.0244   18.8500   40.1432 C   0  0  0  0  0  0  0  0  0  0  0  0
   -0.3319   17.9512   42.0966 C   0  0  0  0  0  0  0  0  0  0  0  0
   -0.0612   16.1571   43.4690 C   0  0  0  0  0  0  0  0  0  0  0  0
    0.6641   15.0250   44.0465 C   0  0  0  0  0  0  0  0  0  0  0  0
    0.0623   14.1415   44.9538 C   0  0  0  0  0  0  0  0  0  0  0  0
    0.7602   13.0517   45.4650 C   0  0  0  0  0  0  0  0  0  0  0  0
    2.0519   12.8269   45.0275 C   0  0  0  0  0  0  0  0  0  0  0  0
    2.6832   13.6718   44.1272 C   0  0  0  0  0  0  0  0  0  0  0  0
    1.9722   14.7632   43.6359 C   0  0  0  0  0  0  0  0  0  0  0  0
   -1.3623   16.4652   43.7669 C   0  0  0  0  0  0  0  0  0  0  0  0
    2.1161   17.9814   40.2841 C   0  0  0  0  0  0  0  0  0  0  0  0
    3.0686   17.8896   39.2675 C   0  0  0  0  0  0  0  0  0  0  0  0
   -0.0271   18.8447   41.1105 N   0  0  0  0  0  0  0  0  0  0  0  0
    0.5309   16.9340   42.4453 N   0  0  0  0  0  0  0  0  0  0  0  0
    3.6246   18.9440   35.8172 O   0  0  0  0  0  0  0  0  0  0  0  0
    4.9648   17.7186   37.1393 O   0  0  0  0  0  0  0  0  0  0  0  0
    4.0760   16.9600   39.3705 O   0  0  0  0  0  0  0  0  0  0  0  0
   -1.9405   17.7382   42.7604 S   0  0  0  0  0  0  0  0  0  0  0  0
    2.9190   11.4508   45.6242 Cl  0  0  0  0  0  0  0  0  0  0  0  0
    1.8159   20.1195   37.0748 H   0  0  0  0  0  0  0  0  0  0  0  0
   -0.0403   20.1050   38.7263 H   0  0  0  0  0  0  0  0  0  0  0  0
   -0.9783   14.3126   45.2664 H   0  0  0  0  0  0  0  0  0  0  0  0
    0.2933   12.3825   46.2027 H   0  0  0  0  0  0  0  0  0  0  0  0
    3.7195   13.4845   43.8095 H   0  0  0  0  0  0  0  0  0  0  0  0
    2.4518   15.4340   42.9079 H   0  0  0  0  0  0  0  0  0  0  0  0
   -1.9584   15.9662   44.5451 H   0  0  0  0  0  0  0  0  0  0  0  0
    2.2219   17.3731   41.1945 H   0  0  0  0  0  0  0  0  0  0  0  0
   -0.6634   19.6527   41.0543 H   0  0  0  0  0  0  0  0  0  0  0  0
  1  2  1  0
  1 19  1  0
  1 20  2  0
  2  3  1  0
  2 16  2  0
  3  4  2  0
  4  5  1  0
  5 15  2  0
  5 17  1  0
  6 17  1  0
  6 18  2  0
  6 22  1  0
  7  8  1  0
  7 14  2  0
  7 18  1  0
  8  9  1  0
  8 13  2  0
  9 10  2  0
 10 11  1  0
 11 12  2  0
 11 23  1  0
 12 13  1  0
 14 22  1  0
 15 16  1  0
 16 21  1  0
  3 24  1  0
  4 25  1  0
  9 26  1  0
 10 27  1  0
 12 28  1  0
 13 29  1  0
 14 30  1  0
 15 31  1  0
 17 32  1  0
M  CHG  2  19  -1  21  -1
M  END
>  <mol_id>  (33) 
2026-08-24-6tgu-s0-n100-0033

>  <rmsd_to_ref>  (33) 
1.9234693877579514

>  <pose_kind>  (33) 
rigid

$$$$
6tgu.A
     RDKit          3D

 32 34  0  0  0  0  0  0  0  0999 V2000
    4.0672   19.2258   36.1798 C   0  0  0  0  0  0  0  0  0  0  0  0
    3.5316   19.1621   37.5345 C   0  0  0  0  0  0  0  0  0  0  0  0
    2.4492   19.9175   37.8544 C   0  0  0  0  0  0  0  0  0  0  0  0
    1.9071   19.8539   39.1125 C   0  0  0  0  0  0  0  0  0  0  0  0
    2.4991   19.0035   40.0293 C   0  0  0  0  0  0  0  0  0  0  0  0
    1.2298   17.7034   41.6215 C   0  0  0  0  0  0  0  0  0  0  0  0
    0.2894   15.7077   42.0715 C   0  0  0  0  0  0  0  0  0  0  0  0
    0.3268   14.4833   42.9075 C   0  0  0  0  0  0  0  0  0  0  0  0
    1.2701   14.2779   43.8844 C   0  0  0  0  0  0  0  0  0  0  0  0
    1.2697   13.1263   44.6445 C   0  0  0  0  0  0  0  0  0  0  0  0
    0.3263   12.1400   44.4529 C   0  0  0  0  0  0  0  0  0  0  0  0
   -0.6423   12.3293   43.4610 C   0  0  0  0  0  0  0  0  0  0  0  0
   -0.6176   13.4897   42.7193 C   0  0  0  0  0  0  0  0  0  0  0  0
   -0.6685   15.8918   41.1266 C   0  0  0  0  0  0  0  0  0  0  0  0
    3.5961   18.2216   39.7501 C   0  0  0  0  0  0  0  0  0  0  0  0
    4.1191   18.3065   38.4746 C   0  0  0  0  0  0  0  0  0  0  0  0
    1.8388   18.9769   41.3223 N   0  0  0  0  0  0  0  0  0  0  0  0
    1.1466   16.7063   42.1783 N   0  0  0  0  0  0  0  0  0  0  0  0
    5.1465   18.4915   35.7289 O   0  0  0  0  0  0  0  0  0  0  0  0
    3.5243   20.0024   35.3294 O   0  0  0  0  0  0  0  0  0  0  0  0
    5.2291   17.5578   38.0948 O   0  0  0  0  0  0  0  0  0  0  0  0
   -0.2755   17.5422   40.4230 S   0  0  0  0  0  0  0  0  0  0  0  0
    0.2809   10.6574   45.3885 Cl  0  0  0  0  0  0  0  0  0  0  0  0
    1.9761   20.5952   37.1366 H   0  0  0  0  0  0  0  0  0  0  0  0
    1.0365   20.4530   39.3824 H   0  0  0  0  0  0  0  0  0  0  0  0
    2.0312   15.0553   44.0568 H   0  0  0  0  0  0  0  0  0  0  0  0
    2.0239   13.0006   45.4181 H   0  0  0  0  0  0  0  0  0  0  0  0
   -1.4072   11.5938   43.2660 H   0  0  0  0  0  0  0  0  0  0  0  0
   -1.3543   13.6212   41.9666 H   0  0  0  0  0  0  0  0  0  0  0  0
   -1.5252   15.2811   40.7700 H   0  0  0  0  0  0  0  0  0  0  0  0
    4.0241   17.5693   40.4960 H   0  0  0  0  0  0  0  0  0  0  0  0
    1.8214   19.7884   41.9476 H   0  0  0  0  0  0  0  0  0  0  0  0
  1  2  1  0
  1 19  1  0
  1 20  2  0
  2  3  1  0
  2 16  2  0
  3  4  2  0
  4  5  1  0
  5 15  2  0
  5 17  1  0
  6 17  1  0
  6 18  2  0
  6 22  1  0
  7  8  1  0
  7 14  2  0
  7 18  1  0
  8  9  1  0
  8 13  2  0
  9 10  2  0
 10 11  1  0
 11 12  2  0
 11 23  1  0
 12 13  1  0
 14 22  1  0
 15 16  1  0
 16 21  1  0
  3 24  1  0
  4 25  1  0
  9 26  1  0
 10 27  1  0
 12 28  1  0
 13 29  1  0
 14 30  1  0
 15 31  1  0
 17 32  1  0
M  CHG  2  19  -1  21  -1
M  END
>  <mol_id>  (34) 
2026-08-24-6tgu-s0-n100-0034

>  <rmsd_to_ref>  (34) 
1.9693877551053531

>  <pose_kind>  (34) 
conformer

$$$$
6tgu.A
     RDKit          3D

 32 34  0  0  0  0  0  0  0  0999 V2000
    1.6484   18.3410   35.1843 C   0  0  0  0  0  0  0  0  0  0  0  0
    1.3863   18.6480   36.6613 C   0  0  0  0  0  0  0  0  0  0  0  0
    0.5156   19.6721   37.0272 C   0  0  0  0  0  0  0  0  0  0  0  0
    0.1051   19.8594   38.3511 C   0  0  0  0  0  0  0  0  0  0  0  0
    0.7014   19.1219   39.3842 C   0  0  0  0  0  0  0  0  0  0  0  0
    0.3067   18.3889   41.7864 C   0  0  0  0  0  0  0  0  0  0  0  0
    0.8989   16.5257   42.9496 C   0  0  0  0  0  0  0  0  0  0  0  0
    1.6159   15.2688   43.1676 C   0  0  0  0  0  0  0  0  0  0  0  0
    1.3810   14.4644   44.2917 C   0  0  0  0  0  0  0  0  0  0  0  0
    2.0497   13.2562   44.4624 C   0  0  0  0  0  0  0  0  0  0  0  0
    2.9235   12.8369   43.4770 C   0  0  0  0  0  0  0  0  0  0  0  0
    3.1811   13.5982   42.3469 C   0  0  0  0  0  0  0  0  0  0  0  0
    2.5107   14.8094   42.1999 C   0  0  0  0  0  0  0  0  0  0  0  0
   -0.0357   17.0337   43.8127 C   0  0  0  0  0  0  0  0  0  0  0  0
    1.5714   18.0801   39.0325 C   0  0  0  0  0  0  0  0  0  0  0  0
    1.8991   17.8692   37.6919 C   0  0  0  0  0  0  0  0  0  0  0  0
    0.2489   19.2552   40.7328 N   0  0  0  0  0  0  0  0  0  0  0  0
    1.0529   17.2309   41.7326 N   0  0  0  0  0  0  0  0  0  0  0  0
    0.9172   18.9428   34.3438 O   0  0  0  0  0  0  0  0  0  0  0  0
    2.5038   17.4649   34.9305 O   0  0  0  0  0  0  0  0  0  0  0  0
    2.6683   16.7826   37.3494 O   0  0  0  0  0  0  0  0  0  0  0  0
   -0.8056   18.4208   43.1411 S   0  0  0  0  0  0  0  0  0  0  0  0
    3.7325   11.3154   43.6562 Cl  0  0  0  0  0  0  0  0  0  0  0  0
    0.1393   20.3545   36.2509 H   0  0  0  0  0  0  0  0  0  0  0  0
   -0.6870   20.5868   38.5825 H   0  0  0  0  0  0  0  0  0  0  0  0
    0.6564   14.7938   45.0510 H   0  0  0  0  0  0  0  0  0  0  0  0
    1.8861   12.6469   45.3635 H   0  0  0  0  0  0  0  0  0  0  0  0
    3.8968   13.2537   41.5860 H   0  0  0  0  0  0  0  0  0  0  0  0
    2.6902   15.4178   41.3012 H   0  0  0  0  0  0  0  0  0  0  0  0
   -0.2642   16.6121   44.8026 H   0  0  0  0  0  0  0  0  0  0  0  0
    1.9952   17.4297   39.8118 H   0  0  0  0  0  0  0  0  0  0  0  0
   -0.1969   20.1588   40.9466 H   0  0  0  0  0  0  0  0  0  0  0  0
  1  2  1  0
  1 19  1  0
  1 20  2  0
  2  3  1  0
  2 16  2  0
  3  4  2  0
  4  5  1  0
  5 15  2  0
  5 17  1  0
  6 17  1  0
  6 18  2  0
  6 22  1  0
  7  8  1  0
  7 14  2  0
  7 18  1  0
  8  9  1  0
  8 13  2  0
  9 10  2  0
 10 11  1  0
 11 12  2  0
 11 23  1  0
 12 13  1  0
 14 22  1  0
 15 16  1  0
 16 21  1  0
  3 24  1  0
  4 25  1  0
  9 26  1  0
 10 27  1  0
 12 28  1  0
 13 29  1  0
 14 30  1  0
 15 31  1  0
 17 32  1  0
M  CHG  2  19  -1  21  -1
M  END
>  <mol_id>  (35) 
2026-08-24-6tgu-s0-n100-0035

>  <rmsd_to_ref>  (35) 
2.015306122454228

>  <pose_kind>  (35) 
rigid

$$$$
6tgu.A
     RDKit          3D

 32 34  0  0  0  0  0  0  0  0999 V2000
    1.0706   21.9433   37.9893 C   0  0  0  0  0  0  0  0  0  0  0  0
    1.0189   21.0972   39.1757 C   0  0  0  0  0  0  0  0  0  0  0  0
   -0.1206   21.0614   39.9139 C   0  0  0  0  0  0  0  0  0  0  0  0
   -0.2064   20.2514   41.0172 C   0  0  0  0  0  0  0  0  0  0  0  0
    0.8982   19.4851   41.3440 C   0  0  0  0  0  0  0  0  0  0  0  0
    0.7247   17.2279   42.1877 C   0  0  0  0  0  0  0  0  0  0  0  0
    0.7630   15.0365   41.6720 C   0  0  0  0  0  0  0  0  0  0  0  0
    1.4925   13.7507   41.7903 C   0  0  0  0  0  0  0  0  0  0  0  0
    2.6868   13.6315   42.4579 C   0  0  0  0  0  0  0  0  0  0  0  0
    3.3339   12.4163   42.5494 C   0  0  0  0  0  0  0  0  0  0  0  0
    2.8092   11.2786   41.9751 C   0  0  0  0  0  0  0  0  0  0  0  0
    1.5942   11.3794   41.2886 C   0  0  0  0  0  0  0  0  0  0  0  0
    0.9706   12.6054   41.2155 C   0  0  0  0  0  0  0  0  0  0  0  0
   -0.4270   15.1191   41.0227 C   0  0  0  0  0  0  0  0  0  0  0  0
    2.0722   19.4903   40.6269 C   0  0  0  0  0  0  0  0  0  0  0  0
    2.1282   20.3153   39.5205 C   0  0  0  0  0  0  0  0  0  0  0  0
    0.7047   18.6353   42.5055 N   0  0  0  0  0  0  0  0  0  0  0  0
    1.1823   16.1782   42.1858 N   0  0  0  0  0  0  0  0  0  0  0  0
    2.1611   22.0473   37.1483 O   0  0  0  0  0  0  0  0  0  0  0  0
    0.0560   22.6474   37.6796 O   0  0  0  0  0  0  0  0  0  0  0  0
    3.2720   20.3934   38.7316 O   0  0  0  0  0  0  0  0  0  0  0  0
   -0.8951   16.8869   41.1936 S   0  0  0  0  0  0  0  0  0  0  0  0
    3.5901    9.7106   42.0594 Cl  0  0  0  0  0  0  0  0  0  0  0  0
   -0.9983   21.6663   39.6646 H   0  0  0  0  0  0  0  0  0  0  0  0
   -1.1160   20.2108   41.6176 H   0  0  0  0  0  0  0  0  0  0  0  0
    3.1221   14.5278   42.9276 H   0  0  0  0  0  0  0  0  0  0  0  0
    4.2724   12.3545   43.0958 H   0  0  0  0  0  0  0  0  0  0  0  0
    1.1335   10.5235   40.8203 H   0  0  0  0  0  0  0  0  0  0  0  0
    0.0516   12.6716   40.6886 H   0  0  0  0  0  0  0  0  0  0  0  0
   -1.0620   14.3844   40.4834 H   0  0  0  0  0  0  0  0  0  0  0  0
    2.9090   18.8731   40.9168 H   0  0  0  0  0  0  0  0  0  0  0  0
    0.5735   19.0143   43.4484 H   0  0  0  0  0  0  0  0  0  0  0  0
  1  2  1  0
  1 19  1  0
  1 20  2  0
  2  3  1  0
  2 16  2  0
  3  4  2  0
  4  5  1  0
  5 15  2  0
  5 17  1  0
  6 17  1  0
  6 18  2  0
  6 22  1  0
  7  8  1  0
  7 14  2  0
  7 18  1  0
  8  9  1  0
  8 13  2  0
  9 10  2  0
 10 11  1  0
 11 12  2  0
 11 23  1  0
 12 13  1  0
 14 22  1  0
 15 16  1  0
 16 21  1  0
  3 24  1  0
  4 25  1  0
  9 26  1  0
 10 27  1  0
 12 28  1  0
 13 29  1  0
 14 30  1  0
 15 31  1  0
 17 32  1  0
M  CHG  2  19  -1  21  -1
M  END
>  <mol_id>  (36) 
2026-08-24-6tgu-s0-n100-0036

>  <rmsd_to_ref>  (36) 
2.0612244897985916

>  <pose_kind>  (36) 
conformer

$$$$
6tgu.A
     RDKit          3D

 32 34  0  0  0  0  0  0  0  0999 V2000
    4.6671   20.9511   38.4603 C   0  0  0  0  0  0  0  0  0  0  0  0
    3.9364   20.4000   39.6879 C   0  0  0  0  0  0  0  0  0  0  0  0
    3.5871   21.2429   40.7406 C   0  0  0  0  0  0  0  0  0  0  0  0
    2.7582   20.8210   41.7853 C   0  0  0  0  0  0  0  0  0  0  0  0
    2.3936   19.4712   41.8936 C   0  0  0  0  0  0  0  0  0  0  0  0
    0.6546   17.9629   42.9726 C   0  0  0  0  0  0  0  0  0  0  0  0
   -0.2974   15.9987   42.3313 C   0  0  0  0  0  0  0  0  0  0  0  0
   -0.4400   14.8006   41.5034 C   0  0  0  0  0  0  0  0  0  0  0  0
   -1.5070   13.9059   41.6683 C   0  0  0  0  0  0  0  0  0  0  0  0
   -1.6419   12.7904   40.8476 C   0  0  0  0  0  0  0  0  0  0  0  0
   -0.7250   12.6002   39.8310 C   0  0  0  0  0  0  0  0  0  0  0  0
    0.3417   13.4629   39.6289 C   0  0  0  0  0  0  0  0  0  0  0  0
    0.4659   14.5671   40.4676 C   0  0  0  0  0  0  0  0  0  0  0  0
   -1.1630   16.3429   43.3357 C   0  0  0  0  0  0  0  0  0  0  0  0
    2.7276   18.6119   40.8371 C   0  0  0  0  0  0  0  0  0  0  0  0
    3.4904   19.0862   39.7684 C   0  0  0  0  0  0  0  0  0  0  0  0
    1.4964   19.0362   42.9168 N   0  0  0  0  0  0  0  0  0  0  0  0
    0.7044   16.9530   42.0353 N   0  0  0  0  0  0  0  0  0  0  0  0
    4.7782   22.2102   38.3870 O   0  0  0  0  0  0  0  0  0  0  0  0
    5.0225   20.1232   37.5931 O   0  0  0  0  0  0  0  0  0  0  0  0
    3.7229   18.2655   38.6903 O   0  0  0  0  0  0  0  0  0  0  0  0
   -0.7923   17.9049   43.9607 S   0  0  0  0  0  0  0  0  0  0  0  0
   -0.9036   11.2380   38.7755 Cl  0  0  0  0  0  0  0  0  0  0  0  0
    3.9752   22.2721   40.7505 H   0  0  0  0  0  0  0  0  0  0  0  0
    2.3916   21.5495   42.5235 H   0  0  0  0  0  0  0  0  0  0  0  0
   -2.2493   14.0888   42.4591 H   0  0  0  0  0  0  0  0  0  0  0  0
   -2.4619   12.0742   41.0048 H   0  0  0  0  0  0  0  0  0  0  0  0
    1.0711   13.2795   38.8262 H   0  0  0  0  0  0  0  0  0  0  0  0
    1.2964   15.2711   40.3105 H   0  0  0  0  0  0  0  0  0  0  0  0
   -1.9853   15.7068   43.6951 H   0  0  0  0  0  0  0  0  0  0  0  0
    2.3890   17.5654   40.8503 H   0  0  0  0  0  0  0  0  0  0  0  0
    1.4823   19.6342   43.7553 H   0  0  0  0  0  0  0  0  0  0  0  0
  1  2  1  0
  1 19  1  0
  1 20  2  0
  2  3  1  0
  2 16  2  0
  3  4  2  0
  4  5  1  0
  5 15  2  0
  5 17  1  0
  6 17  1  0
  6 18  2  0
  6 22  1  0
  7  8  1  0
  7 14  2  0
  7 18  1  0
  8  9  1  0
  8 13  2  0
  9 10  2  0
 10 11  1  0
 11 12  2  0
 11 23  1  0
 12 13  1  0
 14 22  1  0
 15 16  1  0
 16 21  1  0
  3 24  1  0
  4 25  1  0
  9 26  1  0
 10 27  1  0
 12 28  1  0
 13 29  1  0
 14 30  1  0
 15 31  1  0
 17 32  1  0
M  CHG  2  19  -1  21  -1
M  END
>  <mol_id>  (37) 
2026-08-24-6tgu-s0-n100-0037

>  <rmsd_to_ref>  (37) 
2.1071428571458637

>  <pose_kind>  (37) 
rigid

$$$$
6tgu.A
     RDKit          3D

 32 34  0  0  0  0  0  0  0  0999 V2000
    2.8892   19.5844   36.1955 C   0  0  0  0  0  0  0  0  0  0  0  0
    2.4296   19.5933   37.5792 C   0  0  0  0  0  0  0  0  0  0  0  0
    1.2040   20.1034   37.8662 C   0  0  0  0  0  0  0  0  0  0  0  0
    0.7351   20.0967   39.1549 C   0  0  0  0  0  0  0  0  0  0  0  0
    1.5487   19.5589   40.1362 C   0  0  0  0  0  0  0  0  0  0  0  0
    0.6938   18.2396   41.9706 C   0  0  0  0  0  0  0  0  0  0  0  0
    0.2940   16.1644   42.7476 C   0  0  0  0  0  0  0  0  0  0  0  0
    0.6612   15.1221   43.7366 C   0  0  0  0  0  0  0  0  0  0  0  0
    1.6565   15.2967   44.6667 C   0  0  0  0  0  0  0  0  0  0  0  0
    1.9666   14.3039   45.5734 C   0  0  0  0  0  0  0  0  0  0  0  0
    1.2926   13.1018   45.5802 C   0  0  0  0  0  0  0  0  0  0  0  0
    0.2764   12.9034   44.6390 C   0  0  0  0  0  0  0  0  0  0  0  0
   -0.0119   13.9133   43.7477 C   0  0  0  0  0  0  0  0  0  0  0  0
   -0.7091   15.9705   41.8528 C   0  0  0  0  0  0  0  0  0  0  0  0
    2.7963   19.0329   39.8920 C   0  0  0  0  0  0  0  0  0  0  0  0
    3.2410   19.0529   38.5845 C   0  0  0  0  0  0  0  0  0  0  0  0
    0.9572   19.5642   41.4623 N   0  0  0  0  0  0  0  0  0  0  0  0
    0.8789   17.3450   42.6611 N   0  0  0  0  0  0  0  0  0  0  0  0
    4.1023   19.0745   35.7763 O   0  0  0  0  0  0  0  0  0  0  0  0
    2.1436   20.0730   35.2865 O   0  0  0  0  0  0  0  0  0  0  0  0
    4.4897   18.5470   38.2356 O   0  0  0  0  0  0  0  0  0  0  0  0
   -0.7614   17.5450   40.9085 S   0  0  0  0  0  0  0  0  0  0  0  0
    1.6470   11.8065   46.7080 Cl  0  0  0  0  0  0  0  0  0  0  0  0
    0.5547   20.5336   37.0970 H   0  0  0  0  0  0  0  0  0  0  0  0
   -0.2481   20.5007   39.3994 H   0  0  0  0  0  0  0  0  0  0  0  0
    2.2055   16.2516   44.6814 H   0  0  0  0  0  0  0  0  0  0  0  0
    2.7526   14.4794   46.3046 H   0  0  0  0  0  0  0  0  0  0  0  0
   -0.2874   11.9844   44.5967 H   0  0  0  0  0  0  0  0  0  0  0  0
   -0.7816   13.7507   43.0352 H   0  0  0  0  0  0  0  0  0  0  0  0
   -1.3979   15.1254   41.6401 H   0  0  0  0  0  0  0  0  0  0  0  0
    3.3965   18.6203   40.6887 H   0  0  0  0  0  0  0  0  0  0  0  0
    0.7584   20.4303   41.9723 H   0  0  0  0  0  0  0  0  0  0  0  0
  1  2  1  0
  1 19  1  0
  1 20  2  0
  2  3  1  0
  2 16  2  0
  3  4  2  0
  4  5  1  0
  5 15  2  0
  5 17  1  0
  6 17  1  0
  6 18  2  0
  6 22  1  0
  7  8  1  0
  7 14  2  0
  7 18  1  0
  8  9  1  0
  8 13  2  0
  9 10  2  0
 10 11  1  0
 11 12  2  0
 11 23  1  0
 12 13  1  0
 14 22  1  0
 15 16  1  0
 16 21  1  0
  3 24  1  0
  4 25  1  0
  9 26  1  0
 10 27  1  0
 12 28  1  0
 13 29  1  0
 14 30  1  0
 15 31  1  0
 17 32  1  0
M  CHG  2  19  -1  21  -1
M  END
>  <mol_id>  (38) 
2026-08-24-6tgu-s0-n100-0038

>  <rmsd_to_ref>  (38) 
2.153061224496945

>  <pose_kind>  (38) 
conformer

$$$$
6tgu.A
     RDKit          3D

 32 34  0  0  0  0  0  0  0  0999 V2000
    5.2282   18.0123   37.6920 C   0  0  0  0  0  0  0  0  0  0  0  0
    4.3573   18.2336   38.9318 C   0  0  0  0  0  0  0  0  0  0  0  0
    4.0586   19.5234   39.3652 C   0  0  0  0  0  0  0  0  0  0  0  0
    3.1189   19.7690   40.3717 C   0  0  0  0  0  0  0  0  0  0  0  0
    2.5732   18.7025   41.1009 C   0  0  0  0  0  0  0  0  0  0  0  0
    0.5875   18.1132   42.5750 C   0  0  0  0  0  0  0  0  0  0  0  0
   -0.5745   16.1849   42.9023 C   0  0  0  0  0  0  0  0  0  0  0  0
   -0.8231   14.7480   42.7810 C   0  0  0  0  0  0  0  0  0  0  0  0
   -2.0069   14.1567   43.2447 C   0  0  0  0  0  0  0  0  0  0  0  0
   -2.2374   12.7934   43.0890 C   0  0  0  0  0  0  0  0  0  0  0  0
   -1.2932   12.0327   42.4256 C   0  0  0  0  0  0  0  0  0  0  0  0
   -0.1115   12.5775   41.9461 C   0  0  0  0  0  0  0  0  0  0  0  0
    0.1058   13.9413   42.1217 C   0  0  0  0  0  0  0  0  0  0  0  0
   -1.4469   17.0666   43.4836 C   0  0  0  0  0  0  0  0  0  0  0  0
    2.8549   17.3980   40.6707 C   0  0  0  0  0  0  0  0  0  0  0  0
    3.7377   17.1903   39.6093 C   0  0  0  0  0  0  0  0  0  0  0  0
    1.5655   18.9315   42.0875 N   0  0  0  0  0  0  0  0  0  0  0  0
    0.5609   16.7649   42.2885 N   0  0  0  0  0  0  0  0  0  0  0  0
    5.5089   19.0401   37.0079 O   0  0  0  0  0  0  0  0  0  0  0  0
    5.5236   16.8303   37.4104 O   0  0  0  0  0  0  0  0  0  0  0  0
    3.9254   15.9160   39.1290 O   0  0  0  0  0  0  0  0  0  0  0  0
   -0.9122   18.6909   43.2754 S   0  0  0  0  0  0  0  0  0  0  0  0
   -1.5851   10.3416   42.1881 Cl  0  0  0  0  0  0  0  0  0  0  0  0
    4.5779   20.3751   38.9016 H   0  0  0  0  0  0  0  0  0  0  0  0
    2.8072   20.8007   40.5918 H   0  0  0  0  0  0  0  0  0  0  0  0
   -2.7656   14.7807   43.7397 H   0  0  0  0  0  0  0  0  0  0  0  0
   -3.1529   12.3303   43.4859 H   0  0  0  0  0  0  0  0  0  0  0  0
    0.6351   11.9481   41.4397 H   0  0  0  0  0  0  0  0  0  0  0  0
    1.0300   14.3932   41.7324 H   0  0  0  0  0  0  0  0  0  0  0  0
   -2.3664   16.7761   44.0129 H   0  0  0  0  0  0  0  0  0  0  0  0
    2.3809   16.5395   41.1689 H   0  0  0  0  0  0  0  0  0  0  0  0
    1.5792   19.8745   42.5014 H   0  0  0  0  0  0  0  0  0  0  0  0
  1  2  1  0
  1 19  1  0
  1 20  2  0
  2  3  1  0
  2 16  2  0
  3  4  2  0
  4  5  1  0
  5 15  2  0
  5 17  1  0
  6 17  1  0
  6 18  2  0
  6 22  1  0
  7  8  1  0
  7 14  2  0
  7 18  1  0
  8  9  1  0
  8 13  2  0
  9 10  2  0
 10 11  1  0
 11 12  2  0
 11 23  1  0
 12 13  1  0
 14 22  1  0
 15 16  1  0
 16 21  1  0
  3 24  1  0
  4 25  1  0
  9 26  1  0
 10 27  1  0
 12 28  1  0
 13 29  1  0
 14 30  1  0
 15 31  1  0
 17 32  1  0
M  CHG  2  19  -1  21  -1
M  END
>  <mol_id>  (39) 
2026-08-24-6tgu-s0-n100-0039

>  <rmsd_to_ref>  (39) 
2.198979591843644

>  <pose_kind>  (39) 
rigid

$$$$
6tgu.A
     RDKit          3D

 32 34  0  0  0  0  0  0  0  0999 V2000
    4.6105   19.0454   36.7710 C   0  0  0  0  0  0  0  0  0  0  0  0
    3.9327   18.9485   38.0584 C   0  0  0  0  0  0  0  0  0  0  0  0
    2.9626   19.8483   38.3649 C   0  0  0  0  0  0  0  0  0  0  0  0
    2.2887   19.7618   39.5561 C   0  0  0  0  0  0  0  0  0  0  0  0
    2.6324   18.7377   40.4205 C   0  0  0  0  0  0  0  0  0  0  0  0
    1.0057   17.5353   41.7415 C   0  0  0  0  0  0  0  0  0  0  0  0
   -0.2937   15.7020   41.8828 C   0  0  0  0  0  0  0  0  0  0  0  0
   -0.5472   14.4164   42.5773 C   0  0  0  0  0  0  0  0  0  0  0  0
    0.2414   13.9569   43.6036 C   0  0  0  0  0  0  0  0  0  0  0  0
   -0.0292   12.7565   44.2278 C   0  0  0  0  0  0  0  0  0  0  0  0
   -1.0973   11.9737   43.8461 C   0  0  0  0  0  0  0  0  0  0  0  0
   -1.9118   12.4231   42.8009 C   0  0  0  0  0  0  0  0  0  0  0  0
   -1.6179   13.6262   42.1981 C   0  0  0  0  0  0  0  0  0  0  0  0
   -1.1036   16.1400   40.8845 C   0  0  0  0  0  0  0  0  0  0  0  0
    3.6081   17.8055   40.1526 C   0  0  0  0  0  0  0  0  0  0  0  0
    4.2688   17.9179   38.9448 C   0  0  0  0  0  0  0  0  0  0  0  0
    1.8449   18.7048   41.6401 N   0  0  0  0  0  0  0  0  0  0  0  0
    0.7008   16.5200   42.1744 N   0  0  0  0  0  0  0  0  0  0  0  0
    5.5948   18.1793   36.3368 O   0  0  0  0  0  0  0  0  0  0  0  0
    4.2958   19.9823   35.9684 O   0  0  0  0  0  0  0  0  0  0  0  0
    5.2733   17.0255   38.5822 O   0  0  0  0  0  0  0  0  0  0  0  0
   -0.3715   17.7550   40.4060 S   0  0  0  0  0  0  0  0  0  0  0  0
   -1.4851   10.4401   44.6032 Cl  0  0  0  0  0  0  0  0  0  0  0  0
    2.6861   20.6634   37.6886 H   0  0  0  0  0  0  0  0  0  0  0  0
    1.5057   20.4759   39.8142 H   0  0  0  0  0  0  0  0  0  0  0  0
    1.0983   14.5690   43.9272 H   0  0  0  0  0  0  0  0  0  0  0  0
    0.6086   12.4277   45.0453 H   0  0  0  0  0  0  0  0  0  0  0  0
   -2.7631   11.8550   42.4594 H   0  0  0  0  0  0  0  0  0  0  0  0
   -2.2397   13.9557   41.4034 H   0  0  0  0  0  0  0  0  0  0  0  0
   -2.0073   15.7257   40.3889 H   0  0  0  0  0  0  0  0  0  0  0  0
    3.8417   17.0205   40.8556 H   0  0  0  0  0  0  0  0  0  0  0  0
    1.8964   19.4438   42.3480 H   0  0  0  0  0  0  0  0  0  0  0  0
  1  2  1  0
  1 19  1  0
  1 20  2  0
  2  3  1  0
  2 16  2  0
  3  4  2  0
  4  5  1  0
  5 15  2  0
  5 17  1  0
  6 17  1  0
  6 18  2  0
  6 22  1  0
  7  8  1  0
  7 14  2  0
  7 18  1  0
  8  9  1  0
  8 13  2  0
  9 10  2  0
 10 11  1  0
 11 12  2  0
 11 23  1  0
 12 13  1  0
 14 22  1  0
 15 16  1  0
 16 21  1  0
  3 24  1  0
  4 25  1  0
  9 26  1  0
 10 27  1  0
 12 28  1  0
 13 29  1  0
 14 30  1  0
 15 31  1  0
 17 32  1  0
M  CHG  2  19  -1  21  -1
M  END
>  <mol_id>  (40) 
2026-08-24-6tgu-s0-n100-0040

>  <rmsd_to_ref>  (40) 
2.244897959191168

>  <pose_kind>  (40) 
conformer

$$$$
6tgu.A
     RDKit          3D

 32 34  0  0  0  0  0  0  0  0999 V2000
    2.1781   22.3193   39.1023 C   0  0  0  0  0  0  0  0  0  0  0  0
    1.6700   21.3251   40.1502 C   0  0  0  0  0  0  0  0  0  0  0  0
    0.6185   21.6666   40.9978 C   0  0  0  0  0  0  0  0  0  0  0  0
    0.0037   20.7278   41.8328 C   0  0  0  0  0  0  0  0  0  0  0  0
    0.5487   19.4428   41.9689 C   0  0  0  0  0  0  0  0  0  0  0  0
   -0.0698   17.0898   42.7064 C   0  0  0  0  0  0  0  0  0  0  0  0
    0.6148   15.0288   42.0285 C   0  0  0  0  0  0  0  0  0  0  0  0
    1.4672   14.0845   41.3055 C   0  0  0  0  0  0  0  0  0  0  0  0
    1.1949   12.7093   41.2763 C   0  0  0  0  0  0  0  0  0  0  0  0
    1.9995   11.8332   40.5546 C   0  0  0  0  0  0  0  0  0  0  0  0
    3.0541   12.3493   39.8253 C   0  0  0  0  0  0  0  0  0  0  0  0
    3.3556   13.7029   39.8214 C   0  0  0  0  0  0  0  0  0  0  0  0
    2.5456   14.5619   40.5589 C   0  0  0  0  0  0  0  0  0  0  0  0
   -0.4948   14.6654   42.7448 C   0  0  0  0  0  0  0  0  0  0  0  0
    1.6001   19.0794   41.1153 C   0  0  0  0  0  0  0  0  0  0  0  0
    2.1395   20.0198   40.2357 C   0  0  0  0  0  0  0  0  0  0  0  0
   -0.1030   18.4532   42.7671 N   0  0  0  0  0  0  0  0  0  0  0  0
    0.8352   16.4214   41.9094 N   0  0  0  0  0  0  0  0  0  0  0  0
    1.4934   23.3725   38.9440 O   0  0  0  0  0  0  0  0  0  0  0  0
    3.1776   21.9766   38.4335 O   0  0  0  0  0  0  0  0  0  0  0  0
    3.0972   19.6250   39.3319 O   0  0  0  0  0  0  0  0  0  0  0  0
   -1.3541   16.0528   43.2968 S   0  0  0  0  0  0  0  0  0  0  0  0
    4.0401   11.2756   38.8890 Cl  0  0  0  0  0  0  0  0  0  0  0  0
    0.2608   22.7067   41.0110 H   0  0  0  0  0  0  0  0  0  0  0  0
   -0.9093   20.9980   42.3837 H   0  0  0  0  0  0  0  0  0  0  0  0
    0.3312   12.3168   41.8330 H   0  0  0  0  0  0  0  0  0  0  0  0
    1.8003   10.7514   40.5641 H   0  0  0  0  0  0  0  0  0  0  0  0
    4.2131   14.0880   39.2501 H   0  0  0  0  0  0  0  0  0  0  0  0
    2.7601   15.6407   40.5532 H   0  0  0  0  0  0  0  0  0  0  0  0
   -0.7970   13.6261   42.9412 H   0  0  0  0  0  0  0  0  0  0  0  0
    1.9993   18.0547   41.1386 H   0  0  0  0  0  0  0  0  0  0  0  0
   -0.6995   18.8332   43.5160 H   0  0  0  0  0  0  0  0  0  0  0  0
  1  2  1  0
  1 19  1  0
  1 20  2  0
  2  3  1  0
  2 16  2  0
  3  4  2  0
  4  5  1  0
  5 15  2  0
  5 17  1  0
  6 17  1  0
  6 18  2  0
  6 22  1  0
  7  8  1  0
  7 14  2  0
  7 18  1  0
  8  9  1  0
  8 13  2  0
  9 10  2  0
 10 11  1  0
 11 12  2  0
 11 23  1  0
 12 13  1  0
 14 22  1  0
 15 16  1  0
 16 21  1  0
  3 24  1  0
  4 25  1  0
  9 26  1  0
 10 27  1  0
 12 28  1  0
 13 29  1  0
 14 30  1  0
 15 31  1  0
 17 32  1  0
M  CHG  2  19  -1  21  -1
M  END
>  <mol_id>  (41) 
2026-08-24-6tgu-s0-n100-0041

>  <rmsd_to_ref>  (41) 
2.2908163265331467

>  <pose_kind>  (41) 
rigid

$$$$
6tgu.A
     RDKit          3D

 32 34  0  0  0  0  0  0  0  0999 V2000
   -1.1026   20.5811   36.9060 C   0  0  0  0  0  0  0  0  0  0  0  0
   -0.2845   20.1848   38.0461 C   0  0  0  0  0  0  0  0  0  0  0  0
   -0.4112   20.8594   39.2180 C   0  0  0  0  0  0  0  0  0  0  0  0
    0.3242   20.4882   40.3143 C   0  0  0  0  0  0  0  0  0  0  0  0
    1.1884   19.4162   40.1803 C   0  0  0  0  0  0  0  0  0  0  0  0
    1.5320   17.7827   41.9268 C   0  0  0  0  0  0  0  0  0  0  0  0
    0.9480   15.7625   42.7316 C   0  0  0  0  0  0  0  0  0  0  0  0
    1.3698   14.3639   42.9869 C   0  0  0  0  0  0  0  0  0  0  0  0
    2.6162   13.8906   42.6570 C   0  0  0  0  0  0  0  0  0  0  0  0
    2.9729   12.5828   42.9142 C   0  0  0  0  0  0  0  0  0  0  0  0
    2.0947   11.7028   43.5090 C   0  0  0  0  0  0  0  0  0  0  0  0
    0.8190   12.1649   43.8509 C   0  0  0  0  0  0  0  0  0  0  0  0
    0.4921   13.4760   43.5835 C   0  0  0  0  0  0  0  0  0  0  0  0
   -0.2848   16.2073   43.0878 C   0  0  0  0  0  0  0  0  0  0  0  0
    1.3501   18.7051   39.0137 C   0  0  0  0  0  0  0  0  0  0  0  0
    0.5953   19.1018   37.9271 C   0  0  0  0  0  0  0  0  0  0  0  0
    1.8995   19.0746   41.3995 N   0  0  0  0  0  0  0  0  0  0  0  0
    1.7144   16.6783   42.1684 N   0  0  0  0  0  0  0  0  0  0  0  0
   -1.0801   19.9606   35.6724 O   0  0  0  0  0  0  0  0  0  0  0  0
   -1.9038   21.5636   37.0236 O   0  0  0  0  0  0  0  0  0  0  0  0
    0.6889   18.4483   36.7019 O   0  0  0  0  0  0  0  0  0  0  0  0
   -0.2746   17.9727   42.5813 S   0  0  0  0  0  0  0  0  0  0  0  0
    2.4952   10.0312   43.8563 Cl  0  0  0  0  0  0  0  0  0  0  0  0
   -1.0901   21.7105   39.3325 H   0  0  0  0  0  0  0  0  0  0  0  0
    0.2307   21.0193   41.2624 H   0  0  0  0  0  0  0  0  0  0  0  0
    3.3351   14.5783   42.1841 H   0  0  0  0  0  0  0  0  0  0  0  0
    3.9724   12.2436   42.6510 H   0  0  0  0  0  0  0  0  0  0  0  0
    0.0893   11.5236   44.3203 H   0  0  0  0  0  0  0  0  0  0  0  0
   -0.4797   13.8150   43.8430 H   0  0  0  0  0  0  0  0  0  0  0  0
   -1.1661   15.7305   43.5672 H   0  0  0  0  0  0  0  0  0  0  0  0
    2.0344   17.8724   38.9549 H   0  0  0  0  0  0  0  0  0  0  0  0
    2.5920   19.6983   41.8252 H   0  0  0  0  0  0  0  0  0  0  0  0
  1  2  1  0
  1 19  1  0
  1 20  2  0
  2  3  1  0
  2 16  2  0
  3  4  2  0
  4  5  1  0
  5 15  2  0
  5 17  1  0
  6 17  1  0
  6 18  2  0
  6 22  1  0
  7  8  1  0
  7 14  2  0
  7 18  1  0
  8  9  1  0
  8 13  2  0
  9 10  2  0
 10 11  1  0
 11 12  2  0
 11 23  1  0
 12 13  1  0
 14 22  1  0
 15 16  1  0
 16 21  1  0
  3 24  1  0
  4 25  1  0
  9 26  1  0
 10 27  1  0
 12 28  1  0
 13 29  1  0
 14 30  1  0
 15 31  1  0
 17 32  1  0
M  CHG  2  19  -1  21  -1
M  END
>  <mol_id>  (42) 
2026-08-24-6tgu-s0-n100-0042

>  <rmsd_to_ref>  (42) 
2.336734693877704

>  <pose_kind>  (42) 
conformer

$$$$
6tgu.A
     RDKit          3D

 32 34  0  0  0  0  0  0  0  0999 V2000
    3.3693   21.4187   39.5280 C   0  0  0  0  0  0  0  0  0  0  0  0
    2.5871   20.4171   40.3822 C   0  0  0  0  0  0  0  0  0  0  0  0
    1.3620   20.7709   40.9432 C   0  0  0  0  0  0  0  0  0  0  0  0
    0.5325   19.8326   41.5659 C   0  0  0  0  0  0  0  0  0  0  0  0
    0.9946   18.5293   41.7992 C   0  0  0  0  0  0  0  0  0  0  0  0
    0.1536   16.1799   42.2858 C   0  0  0  0  0  0  0  0  0  0  0  0
    0.9409   14.1150   41.7454 C   0  0  0  0  0  0  0  0  0  0  0  0
    1.9277   13.1619   41.2365 C   0  0  0  0  0  0  0  0  0  0  0  0
    1.6400   11.7965   41.0988 C   0  0  0  0  0  0  0  0  0  0  0  0
    2.5820   10.9129   40.5811 C   0  0  0  0  0  0  0  0  0  0  0  0
    3.7997   11.4134   40.1603 C   0  0  0  0  0  0  0  0  0  0  0  0
    4.1235   12.7571   40.2728 C   0  0  0  0  0  0  0  0  0  0  0  0
    3.1719   13.6233   40.8039 C   0  0  0  0  0  0  0  0  0  0  0  0
   -0.3232   13.7691   42.1439 C   0  0  0  0  0  0  0  0  0  0  0  0
    2.2206   18.1537   41.2318 C   0  0  0  0  0  0  0  0  0  0  0  0
    2.9888   19.0968   40.5466 C   0  0  0  0  0  0  0  0  0  0  0  0
    0.1376   17.5421   42.3756 N   0  0  0  0  0  0  0  0  0  0  0  0
    1.2166   15.5027   41.7269 N   0  0  0  0  0  0  0  0  0  0  0  0
    2.7724   22.4951   39.2309 O   0  0  0  0  0  0  0  0  0  0  0  0
    4.4984   21.0612   39.1266 O   0  0  0  0  0  0  0  0  0  0  0  0
    4.1363   18.6937   39.9060 O   0  0  0  0  0  0  0  0  0  0  0  0
   -1.2626   15.1689   42.4986 S   0  0  0  0  0  0  0  0  0  0  0  0
    4.9672   10.3318   39.4757 Cl  0  0  0  0  0  0  0  0  0  0  0  0
    1.0371   21.8207   40.8948 H   0  0  0  0  0  0  0  0  0  0  0  0
   -0.4845   20.1177   41.8734 H   0  0  0  0  0  0  0  0  0  0  0  0
    0.6538   11.4177   41.4052 H   0  0  0  0  0  0  0  0  0  0  0  0
    2.3619    9.8377   40.5081 H   0  0  0  0  0  0  0  0  0  0  0  0
    5.1073   13.1291   39.9505 H   0  0  0  0  0  0  0  0  0  0  0  0
    3.4057   14.6952   40.8845 H   0  0  0  0  0  0  0  0  0  0  0  0
   -0.6896   12.7352   42.2265 H   0  0  0  0  0  0  0  0  0  0  0  0
    2.5767   17.1172   41.3264 H   0  0  0  0  0  0  0  0  0  0  0  0
   -0.6216   17.9230   42.9583 H   0  0  0  0  0  0  0  0  0  0  0  0
  1  2  1  0
  1 19  1  0
  1 20  2  0
  2  3  1  0
  2 16  2  0
  3  4  2  0
  4  5  1  0
  5 15  2  0
  5 17  1  0
  6 17  1  0
  6 18  2  0
  6 22  1  0
  7  8  1  0
  7 14  2  0
  7 18  1  0
  8  9  1  0
  8 13  2  0
  9 10  2  0
 10 11  1  0
 11 12  2  0
 11 23  1  0
 12 13  1  0
 14 22  1  0
 15 16  1  0
 16 21  1  0
  3 24  1  0
  4 25  1  0
  9 26  1  0
 10 27  1  0
 12 28  1  0
 13 29  1  0
 14 30  1  0
 15 31  1  0
 17 32  1  0
M  CHG  2  19  -1  21  -1
M  END
>  <mol_id>  (43) 
2026-08-24-6tgu-s0-n100-0043

>  <rmsd_to_ref>  (43) 
2.3826530612288903

>  <pose_kind>  (43) 
rigid

$$$$
6tgu.A
     RDKit          3D

 32 34  0  0  0  0  0  0  0  0999 V2000
    3.2036   21.7877   39.5089 C   0  0  0  0  0  0  0  0  0  0  0  0
    2.6775   20.7734   40.4147 C   0  0  0  0  0  0  0  0  0  0  0  0
    1.5341   21.0286   41.1017 C   0  0  0  0  0  0  0  0  0  0  0  0
    1.0015   20.0806   41.9374 C   0  0  0  0  0  0  0  0  0  0  0  0
    1.6664   18.8728   42.0519 C   0  0  0  0  0  0  0  0  0  0  0  0
    0.5172   16.7558   42.2373 C   0  0  0  0  0  0  0  0  0  0  0  0
   -0.2455   14.9456   41.1368 C   0  0  0  0  0  0  0  0  0  0  0  0
   -0.1007   13.4883   40.9034 C   0  0  0  0  0  0  0  0  0  0  0  0
    0.8584   12.7268   41.5252 C   0  0  0  0  0  0  0  0  0  0  0  0
    0.9591   11.3719   41.2846 C   0  0  0  0  0  0  0  0  0  0  0  0
    0.1047   10.7321   40.4127 C   0  0  0  0  0  0  0  0  0  0  0  0
   -0.8781   11.4907   39.7673 C   0  0  0  0  0  0  0  0  0  0  0  0
   -0.9554   12.8408   40.0289 C   0  0  0  0  0  0  0  0  0  0  0  0
   -1.2172   15.6687   40.5225 C   0  0  0  0  0  0  0  0  0  0  0  0
    2.8268   18.5714   41.3771 C   0  0  0  0  0  0  0  0  0  0  0  0
    3.3386   19.5455   40.5424 C   0  0  0  0  0  0  0  0  0  0  0  0
    1.0129   17.9198   42.9313 N   0  0  0  0  0  0  0  0  0  0  0  0
    0.5218   15.6472   41.9506 N   0  0  0  0  0  0  0  0  0  0  0  0
    4.3419   21.6379   38.7414 O   0  0  0  0  0  0  0  0  0  0  0  0
    2.5941   22.8997   39.3945 O   0  0  0  0  0  0  0  0  0  0  0  0
    4.5089   19.3382   39.8183 O   0  0  0  0  0  0  0  0  0  0  0  0
   -0.9701   17.3697   41.1699 S   0  0  0  0  0  0  0  0  0  0  0  0
    0.1897    9.0145   40.0691 Cl  0  0  0  0  0  0  0  0  0  0  0  0
    1.0028   21.9823   41.0196 H   0  0  0  0  0  0  0  0  0  0  0  0
    0.0825   20.2710   42.4931 H   0  0  0  0  0  0  0  0  0  0  0  0
    1.5493   13.2175   42.2290 H   0  0  0  0  0  0  0  0  0  0  0  0
    1.7226   10.7960   41.8030 H   0  0  0  0  0  0  0  0  0  0  0  0
   -1.5765   11.0455   39.0758 H   0  0  0  0  0  0  0  0  0  0  0  0
   -1.7019   13.4076   39.5306 H   0  0  0  0  0  0  0  0  0  0  0  0
   -2.0181   15.4193   39.7943 H   0  0  0  0  0  0  0  0  0  0  0  0
    3.3109   17.6138   41.4944 H   0  0  0  0  0  0  0  0  0  0  0  0
    0.9259   18.0730   43.9407 H   0  0  0  0  0  0  0  0  0  0  0  0
  1  2  1  0
  1 19  1  0
  1 20  2  0
  2  3  1  0
  2 16  2  0
  3  4  2  0
  4  5  1  0
  5 15  2  0
  5 17  1  0
  6 17  1  0
  6 18  2  0
  6 22  1  0
  7  8  1  0
  7 14  2  0
  7 18  1  0
  8  9  1  0
  8 13  2  0
  9 10  2  0
 10 11  1  0
 11 12  2  0
 11 23  1  0
 12 13  1  0
 14 22  1  0
 15 16  1  0
 16 21  1  0
  3 24  1  0
  4 25  1  0
  9 26  1  0
 10 27  1  0
 12 28  1  0
 13 29  1  0
 14 30  1  0
 15 31  1  0
 17 32  1  0
M  CHG  2  19  -1  21  -1
M  END
>  <mol_id>  (44) 
2026-08-24-6tgu-s0-n100-0044

>  <rmsd_to_ref>  (44) 
2.4285714285729147

>  <pose_kind>  (44) 
conformer

$$$$
6tgu.A
     RDKit          3D

 32 34  0  0  0  0  0  0  0  0999 V2000
    4.4753   20.8722   40.4482 C   0  0  0  0  0  0  0  0  0  0  0  0
    3.4017   20.1459   41.2634 C   0  0  0  0  0  0  0  0  0  0  0  0
    2.4696   20.8668   42.0065 C   0  0  0  0  0  0  0  0  0  0  0  0
    1.3652   20.2536   42.6071 C   0  0  0  0  0  0  0  0  0  0  0  0
    1.2591   18.8553   42.6240 C   0  0  0  0  0  0  0  0  0  0  0  0
   -0.4484   16.9954   42.9216 C   0  0  0  0  0  0  0  0  0  0  0  0
   -0.6215   14.9031   42.0452 C   0  0  0  0  0  0  0  0  0  0  0  0
   -0.1509   13.7288   41.3098 C   0  0  0  0  0  0  0  0  0  0  0  0
   -0.9860   12.6342   41.0443 C   0  0  0  0  0  0  0  0  0  0  0  0
   -0.5278   11.5421   40.3140 C   0  0  0  0  0  0  0  0  0  0  0  0
    0.7600   11.5725   39.8128 C   0  0  0  0  0  0  0  0  0  0  0  0
    1.6174   12.6370   40.0467 C   0  0  0  0  0  0  0  0  0  0  0  0
    1.1441   13.7153   40.7892 C   0  0  0  0  0  0  0  0  0  0  0  0
   -1.8887   15.0342   42.5486 C   0  0  0  0  0  0  0  0  0  0  0  0
    2.1826   18.1154   41.8718 C   0  0  0  0  0  0  0  0  0  0  0  0
    3.2295   18.7676   41.2178 C   0  0  0  0  0  0  0  0  0  0  0  0
    0.1067   18.2163   43.1763 N   0  0  0  0  0  0  0  0  0  0  0  0
    0.2026   16.0474   42.1611 N   0  0  0  0  0  0  0  0  0  0  0  0
    4.3612   22.1299   40.3572 O   0  0  0  0  0  0  0  0  0  0  0  0
    5.3284   20.1611   39.8734 O   0  0  0  0  0  0  0  0  0  0  0  0
    4.0660   18.0461   40.3996 O   0  0  0  0  0  0  0  0  0  0  0  0
   -2.1405   16.6171   43.1802 S   0  0  0  0  0  0  0  0  0  0  0  0
    1.3308   10.2379   38.8671 Cl  0  0  0  0  0  0  0  0  0  0  0  0
    2.6064   21.9518   42.1247 H   0  0  0  0  0  0  0  0  0  0  0  0
    0.5783   20.8693   43.0670 H   0  0  0  0  0  0  0  0  0  0  0  0
   -2.0200   12.6390   41.4193 H   0  0  0  0  0  0  0  0  0  0  0  0
   -1.1775   10.6719   40.1389 H   0  0  0  0  0  0  0  0  0  0  0  0
    2.6454   12.6296   39.6554 H   0  0  0  0  0  0  0  0  0  0  0  0
    1.8053   14.5756   40.9697 H   0  0  0  0  0  0  0  0  0  0  0  0
   -2.6447   14.2352   42.5495 H   0  0  0  0  0  0  0  0  0  0  0  0
    2.0824   17.0226   41.7971 H   0  0  0  0  0  0  0  0  0  0  0  0
   -0.3898   18.7713   43.8879 H   0  0  0  0  0  0  0  0  0  0  0  0
  1  2  1  0
  1 19  1  0
  1 20  2  0
  2  3  1  0
  2 16  2  0
  3  4  2  0
  4  5  1  0
  5 15  2  0
  5 17  1  0
  6 17  1  0
  6 18  2  0
  6 22  1  0
  7  8  1  0
  7 14  2  0
  7 18  1  0
  8  9  1  0
  8 13  2  0
  9 10  2  0
 10 11  1  0
 11 12  2  0
 11 23  1  0
 12 13  1  0
 14 22  1  0
 15 16  1  0
 16 21  1  0
  3 24  1  0
  4 25  1  0
  9 26  1  0
 10 27  1  0
 12 28  1  0
 13 29  1  0
 14 30  1  0
 15 31  1  0
 17 32  1  0
M  CHG  2  19  -1  21  -1
M  END
>  <mol_id>  (45) 
2026-08-24-6tgu-s0-n100-0045

>  <rmsd_to_ref>  (45) 
2.4744897959273002

>  <pose_kind>  (45) 
rigid

$$$$
6tgu.A
     RDKit          3D

 32 34  0  0  0  0  0  0  0  0999 V2000
    4.5398   20.8675   38.9096 C   0  0  0  0  0  0  0  0  0  0  0  0
    3.7485   20.1894   39.9293 C   0  0  0  0  0  0  0  0  0  0  0  0
    2.7401   20.8629   40.5410 C   0  0  0  0  0  0  0  0  0  0  0  0
    1.9612   20.2396   41.4820 C   0  0  0  0  0  0  0  0  0  0  0  0
    2.2405   18.9177   41.7798 C   0  0  0  0  0  0  0  0  0  0  0  0
    0.5190   17.2804   42.2180 C   0  0  0  0  0  0  0  0  0  0  0  0
   -0.7584   15.6406   41.3526 C   0  0  0  0  0  0  0  0  0  0  0  0
   -1.0539   14.1875   41.3244 C   0  0  0  0  0  0  0  0  0  0  0  0
   -0.3554   13.2716   42.0724 C   0  0  0  0  0  0  0  0  0  0  0  0
   -0.6629   11.9274   42.0218 C   0  0  0  0  0  0  0  0  0  0  0  0
   -1.6789   11.4530   41.2204 C   0  0  0  0  0  0  0  0  0  0  0  0
   -2.4011   12.3699   40.4489 C   0  0  0  0  0  0  0  0  0  0  0  0
   -2.0725   13.7056   40.5215 C   0  0  0  0  0  0  0  0  0  0  0  0
   -1.4802   16.5251   40.6170 C   0  0  0  0  0  0  0  0  0  0  0  0
    3.2516   18.1972   41.1870 C   0  0  0  0  0  0  0  0  0  0  0  0
    4.0183   18.8515   40.2427 C   0  0  0  0  0  0  0  0  0  0  0  0
    1.3452   18.3314   42.7612 N   0  0  0  0  0  0  0  0  0  0  0  0
    0.1920   16.1910   42.0855 N   0  0  0  0  0  0  0  0  0  0  0  0
    5.5735   20.2839   38.2036 O   0  0  0  0  0  0  0  0  0  0  0  0
    4.2851   22.0825   38.6267 O   0  0  0  0  0  0  0  0  0  0  0  0
    5.0660   18.2101   39.5885 O   0  0  0  0  0  0  0  0  0  0  0  0
   -0.7332   18.1505   41.0335 S   0  0  0  0  0  0  0  0  0  0  0  0
   -2.1098    9.7562   41.1169 Cl  0  0  0  0  0  0  0  0  0  0  0  0
    2.5137   21.9096   40.3139 H   0  0  0  0  0  0  0  0  0  0  0  0
    1.1465   20.7675   41.9792 H   0  0  0  0  0  0  0  0  0  0  0  0
    0.4582   13.6298   42.7228 H   0  0  0  0  0  0  0  0  0  0  0  0
   -0.0976   11.2301   42.6362 H   0  0  0  0  0  0  0  0  0  0  0  0
   -3.2083   12.0587   39.8042 H   0  0  0  0  0  0  0  0  0  0  0  0
   -2.6240   14.3921   39.9288 H   0  0  0  0  0  0  0  0  0  0  0  0
   -2.3279   16.4239   39.9063 H   0  0  0  0  0  0  0  0  0  0  0  0
    3.4322   17.1655   41.4480 H   0  0  0  0  0  0  0  0  0  0  0  0
    1.3198   18.6421   43.7372 H   0  0  0  0  0  0  0  0  0  0  0  0
  1  2  1  0
  1 19  1  0
  1 20  2  0
  2  3  1  0
  2 16  2  0
  3  4  2  0
  4  5  1  0
  5 15  2  0
  5 17  1  0
  6 17  1  0
  6 18  2  0
  6 22  1  0
  7  8  1  0
  7 14  2  0
  7 18  1  0
  8  9  1  0
  8 13  2  0
  9 10  2  0
 10 11  1  0
 11 12  2  0
 11 23  1  0
 12 13  1  0
 14 22  1  0
 15 16  1  0
 16 21  1  0
  3 24  1  0
  4 25  1  0
  9 26  1  0
 10 27  1  0
 12 28  1  0
 13 29  1  0
 14 30  1  0
 15 31  1  0
 17 32  1  0
M  CHG  2  19  -1  21  -1
M  END
>  <mol_id>  (46) 
2026-08-24-6tgu-s0-n100-0046

>  <rmsd_to_ref>  (46) 
2.520408163269119

>  <pose_kind>  (46) 
conformer

$$$$
6tgu.A
     RDKit          3D

 32 34  0  0  0  0  0  0  0  0999 V2000
    4.3544   19.2210   36.4926 C   0  0  0  0  0  0  0  0  0  0  0  0
    3.1983   18.7541   37.3815 C   0  0  0  0  0  0  0  0  0  0  0  0
    1.8806   18.8612   36.9423 C   0  0  0  0  0  0  0  0  0  0  0  0
    0.8169   18.2768   37.6376 C   0  0  0  0  0  0  0  0  0  0  0  0
    1.0296   17.7093   38.9023 C   0  0  0  0  0  0  0  0  0  0  0  0
   -0.0093   16.0710   40.5455 C   0  0  0  0  0  0  0  0  0  0  0  0
    0.8834   14.6340   42.0666 C   0  0  0  0  0  0  0  0  0  0  0  0
    1.9568   14.0555   42.8755 C   0  0  0  0  0  0  0  0  0  0  0  0
    1.7552   12.9236   43.6782 C   0  0  0  0  0  0  0  0  0  0  0  0
    2.7985   12.3697   44.4134 C   0  0  0  0  0  0  0  0  0  0  0  0
    4.0571   12.9307   44.3051 C   0  0  0  0  0  0  0  0  0  0  0  0
    4.3021   14.0464   43.5189 C   0  0  0  0  0  0  0  0  0  0  0  0
    3.2427   14.5929   42.7997 C   0  0  0  0  0  0  0  0  0  0  0  0
   -0.3964   14.1469   42.0313 C   0  0  0  0  0  0  0  0  0  0  0  0
    2.3510   17.5838   39.3542 C   0  0  0  0  0  0  0  0  0  0  0  0
    3.3990   18.1091   38.5960 C   0  0  0  0  0  0  0  0  0  0  0  0
   -0.0322   17.0523   39.5966 N   0  0  0  0  0  0  0  0  0  0  0  0
    1.1634   15.6804   41.1563 N   0  0  0  0  0  0  0  0  0  0  0  0
    4.0593   19.5412   35.3037 O   0  0  0  0  0  0  0  0  0  0  0  0
    5.5031   19.1720   36.9844 O   0  0  0  0  0  0  0  0  0  0  0  0
    4.6958   17.8890   38.9958 O   0  0  0  0  0  0  0  0  0  0  0  0
   -1.3308   14.9549   40.8305 S   0  0  0  0  0  0  0  0  0  0  0  0
    5.3746   12.2270   45.1828 Cl  0  0  0  0  0  0  0  0  0  0  0  0
    1.6702   19.4226   36.0201 H   0  0  0  0  0  0  0  0  0  0  0  0
   -0.1885   18.2624   37.1916 H   0  0  0  0  0  0  0  0  0  0  0  0
    0.7560   12.4662   43.7274 H   0  0  0  0  0  0  0  0  0  0  0  0
    2.6252   11.5027   45.0678 H   0  0  0  0  0  0  0  0  0  0  0  0
    5.3079   14.4884   43.4648 H   0  0  0  0  0  0  0  0  0  0  0  0
    3.4230   15.4677   42.1576 H   0  0  0  0  0  0  0  0  0  0  0  0
   -0.7768   13.3465   42.6830 H   0  0  0  0  0  0  0  0  0  0  0  0
    2.5617   17.0721   40.3049 H   0  0  0  0  0  0  0  0  0  0  0  0
   -0.9757   17.3736   39.3370 H   0  0  0  0  0  0  0  0  0  0  0  0
  1  2  1  0
  1 19  1  0
  1 20  2  0
  2  3  1  0
  2 16  2  0
  3  4  2  0
  4  5  1  0
  5 15  2  0
  5 17  1  0
  6 17  1  0
  6 18  2  0
  6 22  1  0
  7  8  1  0
  7 14  2  0
  7 18  1  0
  8  9  1  0
  8 13  2  0
  9 10  2  0
 10 11  1  0
 11 12  2  0
 11 23  1  0
 12 13  1  0
 14 22  1  0
 15 16  1  0
 16 21  1  0
  3 24  1  0
  4 25  1  0
  9 26  1  0
 10 27  1  0
 12 28  1  0
 13 29  1  0
 14 30  1  0
 15 31  1  0
 17 32  1  0
M  CHG  2  19  -1  21  -1
M  END
>  <mol_id>  (47) 
2026-08-24-6tgu-s0-n100-0047

>  <rmsd_to_ref>  (47) 
2.566326530612808

>  <pose_kind>  (47) 
rigid

$$$$
6tgu.A
     RDKit          3D

 32 34  0  0  0  0  0  0  0  0999 V2000
    2.9555   18.0102   35.9497 C   0  0  0  0  0  0  0  0  0  0  0  0
    2.6523   18.2693   37.3522 C   0  0  0  0  0  0  0  0  0  0  0  0
    1.7204   19.2061   37.6657 C   0  0  0  0  0  0  0  0  0  0  0  0
    1.3946   19.4483   38.9756 C   0  0  0  0  0  0  0  0  0  0  0  0
    2.0447   18.7123   39.9501 C   0  0  0  0  0  0  0  0  0  0  0  0
    0.9384   17.9074   41.9415 C   0  0  0  0  0  0  0  0  0  0  0  0
   -0.1073   16.1705   42.9207 C   0  0  0  0  0  0  0  0  0  0  0  0
   -0.0522   15.1280   43.9740 C   0  0  0  0  0  0  0  0  0  0  0  0
    1.0170   14.9851   44.8242 C   0  0  0  0  0  0  0  0  0  0  0  0
    1.0296   14.0044   45.7947 C   0  0  0  0  0  0  0  0  0  0  0  0
   -0.0264   13.1320   45.9476 C   0  0  0  0  0  0  0  0  0  0  0  0
   -1.1244   13.2597   45.0898 C   0  0  0  0  0  0  0  0  0  0  0  0
   -1.1093   14.2493   44.1318 C   0  0  0  0  0  0  0  0  0  0  0  0
   -1.1876   16.3004   42.1079 C   0  0  0  0  0  0  0  0  0  0  0  0
    2.9952   17.7552   39.6793 C   0  0  0  0  0  0  0  0  0  0  0  0
    3.3014   17.5330   38.3510 C   0  0  0  0  0  0  0  0  0  0  0  0
    1.6126   19.0124   41.3036 N   0  0  0  0  0  0  0  0  0  0  0  0
    0.8511   17.0503   42.6957 N   0  0  0  0  0  0  0  0  0  0  0  0
    3.8644   17.0700   35.5054 O   0  0  0  0  0  0  0  0  0  0  0  0
    2.3575   18.6802   35.0472 O   0  0  0  0  0  0  0  0  0  0  0  0
    4.2510   16.5879   37.9742 O   0  0  0  0  0  0  0  0  0  0  0  0
   -0.7558   17.7259   41.0333 S   0  0  0  0  0  0  0  0  0  0  0  0
   -0.0613   11.8674   47.1620 Cl  0  0  0  0  0  0  0  0  0  0  0  0
    1.2032   19.7953   36.9016 H   0  0  0  0  0  0  0  0  0  0  0  0
    0.6463   20.1959   39.2417 H   0  0  0  0  0  0  0  0  0  0  0  0
    1.8702   15.6744   44.7218 H   0  0  0  0  0  0  0  0  0  0  0  0
    1.8871   13.9264   46.4594 H   0  0  0  0  0  0  0  0  0  0  0  0
   -1.9809   12.6076   45.1624 H   0  0  0  0  0  0  0  0  0  0  0  0
   -1.9455   14.3346   43.4836 H   0  0  0  0  0  0  0  0  0  0  0  0
   -2.1488   15.7520   42.0119 H   0  0  0  0  0  0  0  0  0  0  0  0
    3.4754   17.2019   40.4720 H   0  0  0  0  0  0  0  0  0  0  0  0
    1.7820   19.9208   41.7462 H   0  0  0  0  0  0  0  0  0  0  0  0
  1  2  1  0
  1 19  1  0
  1 20  2  0
  2  3  1  0
  2 16  2  0
  3  4  2  0
  4  5  1  0
  5 15  2  0
  5 17  1  0
  6 17  1  0
  6 18  2  0
  6 22  1  0
  7  8  1  0
  7 14  2  0
  7 18  1  0
  8  9  1  0
  8 13  2  0
  9 10  2  0
 10 11  1  0
 11 12  2  0
 11 23  1  0
 12 13  1  0
 14 22  1  0
 15 16  1  0
 16 21  1  0
  3 24  1  0
  4 25  1  0
  9 26  1  0
 10 27  1  0
 12 28  1  0
 13 29  1  0
 14 30  1  0
 15 31  1  0
 17 32  1  0
M  CHG  2  19  -1  21  -1
M  END
>  <mol_id>  (48) 
2026-08-24-6tgu-s0-n100-0048

>  <rmsd_to_ref>  (48) 
2.6122448979600668

>  <pose_kind>  (48) 
conformer

$$$$
6tgu.A
     RDKit          3D

 32 34  0  0  0  0  0  0  0  0999 V2000
    5.9007   17.9071   37.8262 C   0  0  0  0  0  0  0  0  0  0  0  0
    4.5210   18.0071   38.4827 C   0  0  0  0  0  0  0  0  0  0  0  0
    3.4722   18.6511   37.8300 C   0  0  0  0  0  0  0  0  0  0  0  0
    2.1582   18.5991   38.3065 C   0  0  0  0  0  0  0  0  0  0  0  0
    1.8863   18.0371   39.5623 C   0  0  0  0  0  0  0  0  0  0  0  0
   -0.0183   17.0531   40.9288 C   0  0  0  0  0  0  0  0  0  0  0  0
   -0.1003   15.4236   42.5142 C   0  0  0  0  0  0  0  0  0  0  0  0
    0.4668   14.4697   43.4680 C   0  0  0  0  0  0  0  0  0  0  0  0
   -0.3329   13.5589   44.1730 C   0  0  0  0  0  0  0  0  0  0  0  0
    0.2308   12.6376   45.0502 C   0  0  0  0  0  0  0  0  0  0  0  0
    1.6061   12.6047   45.1838 C   0  0  0  0  0  0  0  0  0  0  0  0
    2.4346   13.4830   44.5016 C   0  0  0  0  0  0  0  0  0  0  0  0
    1.8507   14.4049   43.6372 C   0  0  0  0  0  0  0  0  0  0  0  0
   -1.4382   15.5276   42.2391 C   0  0  0  0  0  0  0  0  0  0  0  0
    2.9283   17.3753   40.2273 C   0  0  0  0  0  0  0  0  0  0  0  0
    4.2142   17.3784   39.6836 C   0  0  0  0  0  0  0  0  0  0  0  0
    0.5432   17.9186   40.0348 N   0  0  0  0  0  0  0  0  0  0  0  0
    0.7513   16.2202   41.7129 N   0  0  0  0  0  0  0  0  0  0  0  0
    5.9810   18.2831   36.6199 O   0  0  0  0  0  0  0  0  0  0  0  0
    6.8149   17.3893   38.5044 O   0  0  0  0  0  0  0  0  0  0  0  0
    5.2031   16.6399   40.2888 O   0  0  0  0  0  0  0  0  0  0  0  0
   -1.7163   16.6168   40.9336 S   0  0  0  0  0  0  0  0  0  0  0  0
    2.3250   11.4358   46.2414 Cl  0  0  0  0  0  0  0  0  0  0  0  0
    3.6840   19.2179   36.9114 H   0  0  0  0  0  0  0  0  0  0  0  0
    1.3363   19.0000   37.6950 H   0  0  0  0  0  0  0  0  0  0  0  0
   -1.4235   13.5729   44.0303 H   0  0  0  0  0  0  0  0  0  0  0  0
   -0.4053   11.9492   45.6259 H   0  0  0  0  0  0  0  0  0  0  0  0
    3.5255   13.4520   44.6400 H   0  0  0  0  0  0  0  0  0  0  0  0
    2.4943   15.0976   43.0751 H   0  0  0  0  0  0  0  0  0  0  0  0
   -2.2295   14.9877   42.7796 H   0  0  0  0  0  0  0  0  0  0  0  0
    2.7329   16.8542   41.1761 H   0  0  0  0  0  0  0  0  0  0  0  0
   -0.1133   18.6028   39.6324 H   0  0  0  0  0  0  0  0  0  0  0  0
  1  2  1  0
  1 19  1  0
  1 20  2  0
  2  3  1  0
  2 16  2  0
  3  4  2  0
  4  5  1  0
  5 15  2  0
  5 17  1  0
  6 17  1  0
  6 18  2  0
  6 22  1  0
  7  8  1  0
  7 14  2  0
  7 18  1  0
  8  9  1  0
  8 13  2  0
  9 10  2  0
 10 11  1  0
 11 12  2  0
 11 23  1  0
 12 13  1  0
 14 22  1  0
 15 16  1  0
 16 21  1  0
  3 24  1  0
  4 25  1  0
  9 26  1  0
 10 27  1  0
 12 28  1  0
 13 29  1  0
 14 30  1  0
 15 31  1  0
 17 32  1  0
M  CHG  2  19  -1  21  -1
M  END
>  <mol_id>  (49) 
2026-08-24-6tgu-s0-n100-0049

>  <rmsd_to_ref>  (49) 
2.6581632653068232

>  <pose_kind>  (49) 
rigid

$$$$
6tgu.A
     RDKit          3D

 32 34  0  0  0  0  0  0  0  0999 V2000
    4.6955   19.4244   36.6373 C   0  0  0  0  0  0  0  0  0  0  0  0
    4.3914   19.3116   38.0589 C   0  0  0  0  0  0  0  0  0  0  0  0
    3.9613   20.4095   38.7328 C   0  0  0  0  0  0  0  0  0  0  0  0
    3.6397   20.3242   40.0632 C   0  0  0  0  0  0  0  0  0  0  0  0
    3.7705   19.0939   40.6822 C   0  0  0  0  0  0  0  0  0  0  0  0
    2.2070   18.2862   42.3375 C   0  0  0  0  0  0  0  0  0  0  0  0
    0.3832   17.0223   42.7196 C   0  0  0  0  0  0  0  0  0  0  0  0
   -0.1598   15.7912   43.3432 C   0  0  0  0  0  0  0  0  0  0  0  0
    0.6255   14.8938   44.0247 C   0  0  0  0  0  0  0  0  0  0  0  0
    0.0822   13.7607   44.5947 C   0  0  0  0  0  0  0  0  0  0  0  0
   -1.2651   13.4857   44.5017 C   0  0  0  0  0  0  0  0  0  0  0  0
   -2.0819   14.3865   43.8096 C   0  0  0  0  0  0  0  0  0  0  0  0
   -1.5115   15.5098   43.2527 C   0  0  0  0  0  0  0  0  0  0  0  0
   -0.4218   17.9018   42.0693 C   0  0  0  0  0  0  0  0  0  0  0  0
    4.2031   17.9566   40.0402 C   0  0  0  0  0  0  0  0  0  0  0  0
    4.5186   18.0735   38.7007 C   0  0  0  0  0  0  0  0  0  0  0  0
    3.3767   19.0911   42.0799 N   0  0  0  0  0  0  0  0  0  0  0  0
    1.6557   17.3730   42.7537 N   0  0  0  0  0  0  0  0  0  0  0  0
    5.1182   18.3779   35.8413 O   0  0  0  0  0  0  0  0  0  0  0  0
    4.5726   20.5524   36.0598 O   0  0  0  0  0  0  0  0  0  0  0  0
    4.9676   16.9817   37.9636 O   0  0  0  0  0  0  0  0  0  0  0  0
    0.7282   19.2276   41.5281 S   0  0  0  0  0  0  0  0  0  0  0  0
   -2.0067   12.0607   45.2051 Cl  0  0  0  0  0  0  0  0  0  0  0  0
    3.8576   21.3876   38.2520 H   0  0  0  0  0  0  0  0  0  0  0  0
    3.2906   21.1971   40.6161 H   0  0  0  0  0  0  0  0  0  0  0  0
    1.7045   15.0963   44.1144 H   0  0  0  0  0  0  0  0  0  0  0  0
    0.7306   13.0767   45.1378 H   0  0  0  0  0  0  0  0  0  0  0  0
   -3.1437   14.2260   43.7051 H   0  0  0  0  0  0  0  0  0  0  0  0
   -2.1395   16.1844   42.7262 H   0  0  0  0  0  0  0  0  0  0  0  0
   -1.5102   17.9311   41.8491 H   0  0  0  0  0  0  0  0  0  0  0  0
    4.2873   17.0157   40.5625 H   0  0  0  0  0  0  0  0  0  0  0  0
    3.8919   19.6103   42.7974 H   0  0  0  0  0  0  0  0  0  0  0  0
  1  2  1  0
  1 19  1  0
  1 20  2  0
  2  3  1  0
  2 16  2  0
  3  4  2  0
  4  5  1  0
  5 15  2  0
  5 17  1  0
  6 17  1  0
  6 18  2  0
  6 22  1  0
  7  8  1  0
  7 14  2  0
  7 18  1  0
  8  9  1  0
  8 13  2  0
  9 10  2  0
 10 11  1  0
 11 12  2  0
 11 23  1  0
 12 13  1  0
 14 22  1  0
 15 16  1  0
 16 21  1  0
  3 24  1  0
  4 25  1  0
  9 26  1  0
 10 27  1  0
 12 28  1  0
 13 29  1  0
 14 30  1  0
 15 31  1  0
 17 32  1  0
M  CHG  2  19  -1  21  -1
M  END
>  <mol_id>  (50) 
2026-08-24-6tgu-s0-n100-0050

>  <rmsd_to_ref>  (50) 
2.7040816326561994

>  <pose_kind>  (50) 
conformer

$$$$
6tgu.A
     RDKit          3D

 32 34  0  0  0  0  0  0  0  0999 V2000
    5.2909   20.4120   39.5532 C   0  0  0  0  0  0  0  0  0  0  0  0
    3.8497   19.9548   39.7952 C   0  0  0  0  0  0  0  0  0  0  0  0
    2.7855   20.8286   39.5835 C   0  0  0  0  0  0  0  0  0  0  0  0
    1.4551   20.3975   39.6090 C   0  0  0  0  0  0  0  0  0  0  0  0
    1.1450   19.0946   40.0253 C   0  0  0  0  0  0  0  0  0  0  0  0
   -0.7022   17.3529   39.8930 C   0  0  0  0  0  0  0  0  0  0  0  0
   -0.6790   15.0789   39.8297 C   0  0  0  0  0  0  0  0  0  0  0  0
   -0.0663   13.7542   39.9348 C   0  0  0  0  0  0  0  0  0  0  0  0
   -0.7706   12.5827   39.6224 C   0  0  0  0  0  0  0  0  0  0  0  0
   -0.1584   11.3354   39.6968 C   0  0  0  0  0  0  0  0  0  0  0  0
    1.1780   11.2723   40.0439 C   0  0  0  0  0  0  0  0  0  0  0  0
    1.9135   12.4059   40.3552 C   0  0  0  0  0  0  0  0  0  0  0  0
    1.2800   13.6436   40.2859 C   0  0  0  0  0  0  0  0  0  0  0  0
   -1.9751   15.2946   39.4425 C   0  0  0  0  0  0  0  0  0  0  0  0
    2.2043   18.1994   40.2316 C   0  0  0  0  0  0  0  0  0  0  0  0
    3.5231   18.6436   40.1201 C   0  0  0  0  0  0  0  0  0  0  0  0
   -0.2018   18.6189   39.9958 N   0  0  0  0  0  0  0  0  0  0  0  0
    0.1067   16.2423   40.0068 N   0  0  0  0  0  0  0  0  0  0  0  0
    5.4401   21.5423   39.0025 O   0  0  0  0  0  0  0  0  0  0  0  0
    6.1987   19.6023   39.8432 O   0  0  0  0  0  0  0  0  0  0  0  0
    4.5505   17.7358   40.2211 O   0  0  0  0  0  0  0  0  0  0  0  0
   -2.2887   16.9774   39.2486 S   0  0  0  0  0  0  0  0  0  0  0  0
    1.9646    9.7297   40.1011 Cl  0  0  0  0  0  0  0  0  0  0  0  0
    2.9981   21.8904   39.3902 H   0  0  0  0  0  0  0  0  0  0  0  0
    0.6504   21.0817   39.3020 H   0  0  0  0  0  0  0  0  0  0  0  0
   -1.8241   12.6508   39.3135 H   0  0  0  0  0  0  0  0  0  0  0  0
   -0.7266   10.4180   39.4837 H   0  0  0  0  0  0  0  0  0  0  0  0
    2.9707   12.3292   40.6493 H   0  0  0  0  0  0  0  0  0  0  0  0
    1.8532   14.5547   40.5129 H   0  0  0  0  0  0  0  0  0  0  0  0
   -2.7168   14.4993   39.2775 H   0  0  0  0  0  0  0  0  0  0  0  0
    1.9965   17.1484   40.4809 H   0  0  0  0  0  0  0  0  0  0  0  0
   -0.9172   19.3569   40.0635 H   0  0  0  0  0  0  0  0  0  0  0  0
  1  2  1  0
  1 19  1  0
  1 20  2  0
  2  3  1  0
  2 16  2  0
  3  4  2  0
  4  5  1  0
  5 15  2  0
  5 17  1  0
  6 17  1  0
  6 18  2  0
  6 22  1  0
  7  8  1  0
  7 14  2  0
  7 18  1  0
  8  9  1  0
  8 13  2  0
  9 10  2  0
 10 11  1  0
 11 12  2  0
 11 23  1  0
 12 13  1  0
 14 22  1  0
 15 16  1  0
 16 21  1  0
  3 24  1  0
  4 25  1  0
  9 26  1  0
 10 27  1  0
 12 28  1  0
 13 29  1  0
 14 30  1  0
 15 31  1  0
 17 32  1  0
M  CHG  2  19  -1  21  -1
M  END
>  <mol_id>  (51) 
2026-08-24-6tgu-s0-n100-0051

>  <rmsd_to_ref>  (51) 
2.7500000000019478

>  <pose_kind>  (51) 
rigid

$$$$
6tgu.A
     RDKit          3D

 32 34  0  0  0  0  0  0  0  0999 V2000
    5.6015   20.5514   39.6186 C   0  0  0  0  0  0  0  0  0  0  0  0
    4.7539   19.8273   40.5585 C   0  0  0  0  0  0  0  0  0  0  0  0
    3.7541   20.4907   41.1948 C   0  0  0  0  0  0  0  0  0  0  0  0
    2.9236   19.8270   42.0610 C   0  0  0  0  0  0  0  0  0  0  0  0
    3.1427   18.4753   42.2589 C   0  0  0  0  0  0  0  0  0  0  0  0
    1.3468   16.8799   42.5168 C   0  0  0  0  0  0  0  0  0  0  0  0
    0.0342   15.3675   41.4877 C   0  0  0  0  0  0  0  0  0  0  0  0
   -0.3161   13.9346   41.3346 C   0  0  0  0  0  0  0  0  0  0  0  0
    0.3235   12.9344   42.0250 C   0  0  0  0  0  0  0  0  0  0  0  0
   -0.0338   11.6121   41.8581 C   0  0  0  0  0  0  0  0  0  0  0  0
   -1.0424   11.2447   40.9937 C   0  0  0  0  0  0  0  0  0  0  0  0
   -1.7051   12.2487   40.2792 C   0  0  0  0  0  0  0  0  0  0  0  0
   -1.3276   13.5599   40.4680 C   0  0  0  0  0  0  0  0  0  0  0  0
   -0.6304   16.3363   40.8064 C   0  0  0  0  0  0  0  0  0  0  0  0
    4.1427   17.7634   41.6377 C   0  0  0  0  0  0  0  0  0  0  0  0
    4.9624   18.4588   40.7703 C   0  0  0  0  0  0  0  0  0  0  0  0
    2.1960   17.8499   43.1651 N   0  0  0  0  0  0  0  0  0  0  0  0
    0.9823   15.8188   42.2881 N   0  0  0  0  0  0  0  0  0  0  0  0
    6.6329   19.9840   38.8964 O   0  0  0  0  0  0  0  0  0  0  0  0
    5.4024   21.7943   39.4277 O   0  0  0  0  0  0  0  0  0  0  0  0
    6.0040   17.8292   40.0954 O   0  0  0  0  0  0  0  0  0  0  0  0
    0.1656   17.8917   41.3725 S   0  0  0  0  0  0  0  0  0  0  0  0
   -1.5350    9.5805   40.7422 Cl  0  0  0  0  0  0  0  0  0  0  0  0
    3.5752   21.5605   41.0467 H   0  0  0  0  0  0  0  0  0  0  0  0
    2.1151   20.3465   42.5768 H   0  0  0  0  0  0  0  0  0  0  0  0
    1.1303   13.2063   42.7241 H   0  0  0  0  0  0  0  0  0  0  0  0
    0.4853   10.8458   42.4294 H   0  0  0  0  0  0  0  0  0  0  0  0
   -2.5037   12.0228   39.5898 H   0  0  0  0  0  0  0  0  0  0  0  0
   -1.8340   14.3132   39.9178 H   0  0  0  0  0  0  0  0  0  0  0  0
   -1.4593   16.3266   40.0670 H   0  0  0  0  0  0  0  0  0  0  0  0
    4.2755   16.7078   41.8196 H   0  0  0  0  0  0  0  0  0  0  0  0
    2.1529   18.0830   44.1619 H   0  0  0  0  0  0  0  0  0  0  0  0
  1  2  1  0
  1 19  1  0
  1 20  2  0
  2  3  1  0
  2 16  2  0
  3  4  2  0
  4  5  1  0
  5 15  2  0
  5 17  1  0
  6 17  1  0
  6 18  2  0
  6 22  1  0
  7  8  1  0
  7 14  2  0
  7 18  1  0
  8  9  1  0
  8 13  2  0
  9 10  2  0
 10 11  1  0
 11 12  2  0
 11 23  1  0
 12 13  1  0
 14 22  1  0
 15 16  1  0
 16 21  1  0
  3 24  1  0
  4 25  1  0
  9 26  1  0
 10 27  1  0
 12 28  1  0
 13 29  1  0
 14 30  1  0
 15 31  1  0
 17 32  1  0
M  CHG  2  19  -1  21  -1
M  END
>  <mol_id>  (52) 
2026-08-24-6tgu-s0-n100-0052

>  <rmsd_to_ref>  (52) 
2.7959183673503465

>  <pose_kind>  (52) 
conformer

$$$$
6tgu.A
     RDKit          3D

 32 34  0  0  0  0  0  0  0  0999 V2000
    5.5069   20.0302   40.3275 C   0  0  0  0  0  0  0  0  0  0  0  0
    4.0808   19.9049   40.8710 C   0  0  0  0  0  0  0  0  0  0  0  0
    3.2968   21.0394   41.0679 C   0  0  0  0  0  0  0  0  0  0  0  0
    1.9358   20.9559   41.3794 C   0  0  0  0  0  0  0  0  0  0  0  0
    1.3565   19.7138   41.6767 C   0  0  0  0  0  0  0  0  0  0  0  0
   -0.9010   18.5500   41.7899 C   0  0  0  0  0  0  0  0  0  0  0  0
   -1.5533   16.4044   41.4071 C   0  0  0  0  0  0  0  0  0  0  0  0
   -1.3442   14.9768   41.1634 C   0  0  0  0  0  0  0  0  0  0  0  0
   -2.4079   14.1065   40.8857 C   0  0  0  0  0  0  0  0  0  0  0  0
   -2.1832   12.7586   40.6236 C   0  0  0  0  0  0  0  0  0  0  0  0
   -0.8809   12.2962   40.5978 C   0  0  0  0  0  0  0  0  0  0  0  0
    0.2008   13.1231   40.8610 C   0  0  0  0  0  0  0  0  0  0  0  0
   -0.0455   14.4662   41.1322 C   0  0  0  0  0  0  0  0  0  0  0  0
   -2.7822   17.0096   41.4054 C   0  0  0  0  0  0  0  0  0  0  0  0
    2.1286   18.5612   41.4729 C   0  0  0  0  0  0  0  0  0  0  0  0
    3.4644   18.6777   41.0842 C   0  0  0  0  0  0  0  0  0  0  0  0
   -0.0446   19.6034   41.9337 N   0  0  0  0  0  0  0  0  0  0  0  0
   -0.4447   17.2746   41.5332 N   0  0  0  0  0  0  0  0  0  0  0  0
    5.8574   21.1764   39.9197 O   0  0  0  0  0  0  0  0  0  0  0  0
    6.1803   18.9790   40.2551 O   0  0  0  0  0  0  0  0  0  0  0  0
    4.1806   17.5428   40.7865 O   0  0  0  0  0  0  0  0  0  0  0  0
   -2.6272   18.7203   41.5359 S   0  0  0  0  0  0  0  0  0  0  0  0
   -0.5829   10.6290   40.2326 Cl  0  0  0  0  0  0  0  0  0  0  0  0
    3.7625   22.0317   40.9756 H   0  0  0  0  0  0  0  0  0  0  0  0
    1.3185   21.8663   41.3912 H   0  0  0  0  0  0  0  0  0  0  0  0
   -3.4367   14.4957   40.8749 H   0  0  0  0  0  0  0  0  0  0  0  0
   -3.0251   12.0747   40.4407 H   0  0  0  0  0  0  0  0  0  0  0  0
    1.2273   12.7279   40.8556 H   0  0  0  0  0  0  0  0  0  0  0  0
    0.8021   15.1399   41.3263 H   0  0  0  0  0  0  0  0  0  0  0  0
   -3.7403   16.4744   41.3305 H   0  0  0  0  0  0  0  0  0  0  0  0
    1.6823   17.5665   41.6191 H   0  0  0  0  0  0  0  0  0  0  0  0
   -0.4833   20.4655   42.2877 H   0  0  0  0  0  0  0  0  0  0  0  0
  1  2  1  0
  1 19  1  0
  1 20  2  0
  2  3  1  0
  2 16  2  0
  3  4  2  0
  4  5  1  0
  5 15  2  0
  5 17  1  0
  6 17  1  0
  6 18  2  0
  6 22  1  0
  7  8  1  0
  7 14  2  0
  7 18  1  0
  8  9  1  0
  8 13  2  0
  9 10  2  0
 10 11  1  0
 11 12  2  0
 11 23  1  0
 12 13  1  0
 14 22  1  0
 15 16  1  0
 16 21  1  0
  3 24  1  0
  4 25  1  0
  9 26  1  0
 10 27  1  0
 12 28  1  0
 13 29  1  0
 14 30  1  0
 15 31  1  0
 17 32  1  0
M  CHG  2  19  -1  21  -1
M  END
>  <mol_id>  (53) 
2026-08-24-6tgu-s0-n100-0053

>  <rmsd_to_ref>  (53) 
2.841836734697921

>  <pose_kind>  (53) 
rigid

$$$$
6tgu.A
     RDKit          3D

 32 34  0  0  0  0  0  0  0  0999 V2000
    6.3184   19.7893   38.3596 C   0  0  0  0  0  0  0  0  0  0  0  0
    5.0498   19.5603   39.0410 C   0  0  0  0  0  0  0  0  0  0  0  0
    3.8913   19.6922   38.3446 C   0  0  0  0  0  0  0  0  0  0  0  0
    2.6858   19.4534   38.9533 C   0  0  0  0  0  0  0  0  0  0  0  0
    2.6970   19.0798   40.2854 C   0  0  0  0  0  0  0  0  0  0  0  0
    1.1830   17.4331   41.1980 C   0  0  0  0  0  0  0  0  0  0  0  0
    0.8974   15.2716   41.7601 C   0  0  0  0  0  0  0  0  0  0  0  0
    0.7268   14.2921   42.8605 C   0  0  0  0  0  0  0  0  0  0  0  0
    0.7175   14.6551   44.1850 C   0  0  0  0  0  0  0  0  0  0  0  0
    0.5524   13.7141   45.1807 C   0  0  0  0  0  0  0  0  0  0  0  0
    0.3921   12.3774   44.8857 C   0  0  0  0  0  0  0  0  0  0  0  0
    0.4008   11.9868   43.5421 C   0  0  0  0  0  0  0  0  0  0  0  0
    0.5658   12.9488   42.5702 C   0  0  0  0  0  0  0  0  0  0  0  0
    0.8818   14.8851   40.4583 C   0  0  0  0  0  0  0  0  0  0  0  0
    3.8449   18.9352   41.0297 C   0  0  0  0  0  0  0  0  0  0  0  0
    5.0435   19.1816   40.3892 C   0  0  0  0  0  0  0  0  0  0  0  0
    1.3794   18.8161   40.8359 N   0  0  0  0  0  0  0  0  0  0  0  0
    1.0575   16.5698   41.9398 N   0  0  0  0  0  0  0  0  0  0  0  0
    7.5596   19.6649   38.9524 O   0  0  0  0  0  0  0  0  0  0  0  0
    6.3160   20.1284   37.1324 O   0  0  0  0  0  0  0  0  0  0  0  0
    6.2594   19.0651   41.0563 O   0  0  0  0  0  0  0  0  0  0  0  0
    1.1017   16.4569   39.5341 S   0  0  0  0  0  0  0  0  0  0  0  0
    0.1808   11.1406   46.1108 Cl  0  0  0  0  0  0  0  0  0  0  0  0
    3.8726   19.9902   37.2914 H   0  0  0  0  0  0  0  0  0  0  0  0
    1.7479   19.5530   38.4055 H   0  0  0  0  0  0  0  0  0  0  0  0
    0.8402   15.7190   44.4429 H   0  0  0  0  0  0  0  0  0  0  0  0
    0.5380   14.0372   46.2192 H   0  0  0  0  0  0  0  0  0  0  0  0
    0.2781   10.9556   43.2495 H   0  0  0  0  0  0  0  0  0  0  0  0
    0.5752   12.6410   41.5544 H   0  0  0  0  0  0  0  0  0  0  0  0
    0.7731   13.9044   39.9480 H   0  0  0  0  0  0  0  0  0  0  0  0
    3.8069   18.6385   42.0669 H   0  0  0  0  0  0  0  0  0  0  0  0
    0.6750   19.5509   40.9524 H   0  0  0  0  0  0  0  0  0  0  0  0
  1  2  1  0
  1 19  1  0
  1 20  2  0
  2  3  1  0
  2 16  2  0
  3  4  2  0
  4  5  1  0
  5 15  2  0
  5 17  1  0
  6 17  1  0
  6 18  2  0
  6 22  1  0
  7  8  1  0
  7 14  2  0
  7 18  1  0
  8  9  1  0
  8 13  2  0
  9 10  2  0
 10 11  1  0
 11 12  2  0
 11 23  1  0
 12 13  1  0
 14 22  1  0
 15 16  1  0
 16 21  1  0
  3 24  1  0
  4 25  1  0
  9 26  1  0
 10 27  1  0
 12 28  1  0
 13 29  1  0
 14 30  1  0
 15 31  1  0
 17 32  1  0
M  CHG  2  19  -1  21  -1
M  END
>  <mol_id>  (54) 
2026-08-24-6tgu-s0-n100-0054

>  <rmsd_to_ref>  (54) 
2.887755102042873

>  <pose_kind>  (54) 
conformer

$$$$
6tgu.A
     RDKit          3D

 32 34  0  0  0  0  0  0  0  0999 V2000
    3.6389   15.9718   36.0535 C   0  0  0  0  0  0  0  0  0  0  0  0
    3.3556   16.7272   37.3549 C   0  0  0  0  0  0  0  0  0  0  0  0
    3.1859   18.1099   37.3475 C   0  0  0  0  0  0  0  0  0  0  0  0
    2.7410   18.8089   38.4744 C   0  0  0  0  0  0  0  0  0  0  0  0
    2.6190   18.1521   39.7076 C   0  0  0  0  0  0  0  0  0  0  0  0
    1.4748   18.3650   41.9678 C   0  0  0  0  0  0  0  0  0  0  0  0
    0.6801   16.8302   43.4471 C   0  0  0  0  0  0  0  0  0  0  0  0
    0.4940   15.4856   43.9936 C   0  0  0  0  0  0  0  0  0  0  0  0
   -0.3470   15.2377   45.0878 C   0  0  0  0  0  0  0  0  0  0  0  0
   -0.5357   13.9464   45.5703 C   0  0  0  0  0  0  0  0  0  0  0  0
    0.0893   12.8981   44.9216 C   0  0  0  0  0  0  0  0  0  0  0  0
    0.9246   13.0975   43.8328 C   0  0  0  0  0  0  0  0  0  0  0  0
    1.1097   14.3980   43.3720 C   0  0  0  0  0  0  0  0  0  0  0  0
    0.0782   17.9521   43.9524 C   0  0  0  0  0  0  0  0  0  0  0  0
    2.7756   16.7589   39.7301 C   0  0  0  0  0  0  0  0  0  0  0  0
    3.1436   16.0806   38.5667 C   0  0  0  0  0  0  0  0  0  0  0  0
    2.1052   18.8357   40.8521 N   0  0  0  0  0  0  0  0  0  0  0  0
    1.4150   17.0174   42.2526 N   0  0  0  0  0  0  0  0  0  0  0  0
    3.5422   16.6379   34.9811 O   0  0  0  0  0  0  0  0  0  0  0  0
    3.8625   14.7450   36.1472 O   0  0  0  0  0  0  0  0  0  0  0  0
    3.1921   14.7068   38.5747 O   0  0  0  0  0  0  0  0  0  0  0  0
    0.3736   19.3175   42.9443 S   0  0  0  0  0  0  0  0  0  0  0  0
   -0.1688   11.2805   45.4858 Cl  0  0  0  0  0  0  0  0  0  0  0  0
    3.4087   18.6693   36.4270 H   0  0  0  0  0  0  0  0  0  0  0  0
    2.4863   19.8759   38.3933 H   0  0  0  0  0  0  0  0  0  0  0  0
   -0.8660   16.0778   45.5726 H   0  0  0  0  0  0  0  0  0  0  0  0
   -1.1697   13.7635   46.4504 H   0  0  0  0  0  0  0  0  0  0  0  0
    1.4282   12.2495   43.3455 H   0  0  0  0  0  0  0  0  0  0  0  0
    1.7555   14.5725   42.4988 H   0  0  0  0  0  0  0  0  0  0  0  0
   -0.5148   17.9779   44.8786 H   0  0  0  0  0  0  0  0  0  0  0  0
    2.6087   16.2010   40.6634 H   0  0  0  0  0  0  0  0  0  0  0  0
    2.2321   19.8576   40.8321 H   0  0  0  0  0  0  0  0  0  0  0  0
  1  2  1  0
  1 19  1  0
  1 20  2  0
  2  3  1  0
  2 16  2  0
  3  4  2  0
  4  5  1  0
  5 15  2  0
  5 17  1  0
  6 17  1  0
  6 18  2  0
  6 22  1  0
  7  8  1  0
  7 14  2  0
  7 18  1  0
  8  9  1  0
  8 13  2  0
  9 10  2  0
 10 11  1  0
 11 12  2  0
 11 23  1  0
 12 13  1  0
 14 22  1  0
 15 16  1  0
 16 21  1  0
  3 24  1  0
  4 25  1  0
  9 26  1  0
 10 27  1  0
 12 28  1  0
 13 29  1  0
 14 30  1  0
 15 31  1  0
 17 32  1  0
M  CHG  2  19  -1  21  -1
M  END
>  <mol_id>  (55) 
2026-08-24-6tgu-s0-n100-0055

>  <rmsd_to_ref>  (55) 
2.9336734693958286

>  <pose_kind>  (55) 
rigid

$$$$
6tgu.A
     RDKit          3D

 32 34  0  0  0  0  0  0  0  0999 V2000
    1.5375   22.7467   39.3354 C   0  0  0  0  0  0  0  0  0  0  0  0
    1.1358   21.5545   40.0724 C   0  0  0  0  0  0  0  0  0  0  0  0
   -0.1866   21.2976   40.2453 C   0  0  0  0  0  0  0  0  0  0  0  0
   -0.5921   20.1678   40.9085 C   0  0  0  0  0  0  0  0  0  0  0  0
    0.3850   19.3140   41.3884 C   0  0  0  0  0  0  0  0  0  0  0  0
    0.1643   16.9087   41.3385 C   0  0  0  0  0  0  0  0  0  0  0  0
    0.6476   15.0147   40.2210 C   0  0  0  0  0  0  0  0  0  0  0  0
    1.4197   13.7486   40.2090 C   0  0  0  0  0  0  0  0  0  0  0  0
    2.2751   13.3892   41.2216 C   0  0  0  0  0  0  0  0  0  0  0  0
    2.9737   12.2001   41.1759 C   0  0  0  0  0  0  0  0  0  0  0  0
    2.8416   11.3302   40.1151 C   0  0  0  0  0  0  0  0  0  0  0  0
    1.9765   11.6791   39.0722 C   0  0  0  0  0  0  0  0  0  0  0  0
    1.2913   12.8716   39.1465 C   0  0  0  0  0  0  0  0  0  0  0  0
   -0.2067   15.3335   39.2144 C   0  0  0  0  0  0  0  0  0  0  0  0
    1.7347   19.5344   41.2378 C   0  0  0  0  0  0  0  0  0  0  0  0
    2.1123   20.6799   40.5649 C   0  0  0  0  0  0  0  0  0  0  0  0
   -0.1368   18.1295   42.0465 N   0  0  0  0  0  0  0  0  0  0  0  0
    0.7054   15.9107   41.1890 N   0  0  0  0  0  0  0  0  0  0  0  0
    2.8463   23.1032   39.0758 O   0  0  0  0  0  0  0  0  0  0  0  0
    0.6436   23.5344   38.8865 O   0  0  0  0  0  0  0  0  0  0  0  0
    3.4532   20.9935   40.3631 O   0  0  0  0  0  0  0  0  0  0  0  0
   -0.9044   16.9521   39.7309 S   0  0  0  0  0  0  0  0  0  0  0  0
    3.7064    9.8085   40.0056 Cl  0  0  0  0  0  0  0  0  0  0  0  0
   -0.9665   21.9688   39.8718 H   0  0  0  0  0  0  0  0  0  0  0  0
   -1.6506   19.9477   41.0524 H   0  0  0  0  0  0  0  0  0  0  0  0
    2.3927   14.0683   42.0809 H   0  0  0  0  0  0  0  0  0  0  0  0
    3.6340   11.9404   42.0004 H   0  0  0  0  0  0  0  0  0  0  0  0
    1.8304   11.0381   38.2167 H   0  0  0  0  0  0  0  0  0  0  0  0
    0.6409   13.1285   38.3479 H   0  0  0  0  0  0  0  0  0  0  0  0
   -0.4997   14.8340   38.2665 H   0  0  0  0  0  0  0  0  0  0  0  0
    2.4630   18.8389   41.6263 H   0  0  0  0  0  0  0  0  0  0  0  0
   -0.6597   18.1747   42.9265 H   0  0  0  0  0  0  0  0  0  0  0  0
  1  2  1  0
  1 19  1  0
  1 20  2  0
  2  3  1  0
  2 16  2  0
  3  4  2  0
  4  5  1  0
  5 15  2  0
  5 17  1  0
  6 17  1  0
  6 18  2  0
  6 22  1  0
  7  8  1  0
  7 14  2  0
  7 18  1  0
  8  9  1  0
  8 13  2  0
  9 10  2  0
 10 11  1  0
 11 12  2  0
 11 23  1  0
 12 13  1  0
 14 22  1  0
 15 16  1  0
 16 21  1  0
  3 24  1  0
  4 25  1  0
  9 26  1  0
 10 27  1  0
 12 28  1  0
 13 29  1  0
 14 30  1  0
 15 31  1  0
 17 32  1  0
M  CHG  2  19  -1  21  -1
M  END
>  <mol_id>  (56) 
2026-08-24-6tgu-s0-n100-0056

>  <rmsd_to_ref>  (56) 
2.9795918367365277

>  <pose_kind>  (56) 
conformer

$$$$
6tgu.A
     RDKit          3D

 32 34  0  0  0  0  0  0  0  0999 V2000
    1.1516   17.9104   34.8146 C   0  0  0  0  0  0  0  0  0  0  0  0
    0.8005   18.1009   36.2928 C   0  0  0  0  0  0  0  0  0  0  0  0
   -0.4448   18.6022   36.6650 C   0  0  0  0  0  0  0  0  0  0  0  0
   -0.8726   18.6126   37.9967 C   0  0  0  0  0  0  0  0  0  0  0  0
    0.0191   18.2755   39.0253 C   0  0  0  0  0  0  0  0  0  0  0  0
    0.0591   17.5149   41.4508 C   0  0  0  0  0  0  0  0  0  0  0  0
    1.4822   16.1883   42.6301 C   0  0  0  0  0  0  0  0  0  0  0  0
    2.7121   15.4267   42.8500 C   0  0  0  0  0  0  0  0  0  0  0  0
    2.9050   14.6406   43.9949 C   0  0  0  0  0  0  0  0  0  0  0  0
    4.0686   13.8976   44.1680 C   0  0  0  0  0  0  0  0  0  0  0  0
    5.0200   13.9120   43.1655 C   0  0  0  0  0  0  0  0  0  0  0  0
    4.8674   14.6706   42.0148 C   0  0  0  0  0  0  0  0  0  0  0  0
    3.7013   15.4162   41.8652 C   0  0  0  0  0  0  0  0  0  0  0  0
    0.4332   16.2197   43.5105 C   0  0  0  0  0  0  0  0  0  0  0  0
    1.2725   17.7587   38.6675 C   0  0  0  0  0  0  0  0  0  0  0  0
    1.6381   17.6880   37.3220 C   0  0  0  0  0  0  0  0  0  0  0  0
   -0.4196   18.2192   40.3838 N   0  0  0  0  0  0  0  0  0  0  0  0
    1.2634   16.8460   41.3965 N   0  0  0  0  0  0  0  0  0  0  0  0
    0.2086   18.0699   33.9848 O   0  0  0  0  0  0  0  0  0  0  0  0
    2.3153   17.5356   34.5520 O   0  0  0  0  0  0  0  0  0  0  0  0
    2.8241   17.0843   36.9772 O   0  0  0  0  0  0  0  0  0  0  0  0
   -0.9127   17.0575   42.8364 S   0  0  0  0  0  0  0  0  0  0  0  0
    6.4556   12.9596   43.3488 Cl  0  0  0  0  0  0  0  0  0  0  0  0
   -1.1124   19.0023   35.8877 H   0  0  0  0  0  0  0  0  0  0  0  0
   -1.9105   18.8857   38.2377 H   0  0  0  0  0  0  0  0  0  0  0  0
    2.1238   14.6108   44.7687 H   0  0  0  0  0  0  0  0  0  0  0  0
    4.2281   13.3104   45.0844 H   0  0  0  0  0  0  0  0  0  0  0  0
    5.6479   14.6829   41.2398 H   0  0  0  0  0  0  0  0  0  0  0  0
    3.5562   16.0101   40.9508 H   0  0  0  0  0  0  0  0  0  0  0  0
    0.4483   15.7698   44.5142 H   0  0  0  0  0  0  0  0  0  0  0  0
    1.9668   17.4093   39.4459 H   0  0  0  0  0  0  0  0  0  0  0  0
   -1.2362   18.8107   40.5940 H   0  0  0  0  0  0  0  0  0  0  0  0
  1  2  1  0
  1 19  1  0
  1 20  2  0
  2  3  1  0
  2 16  2  0
  3  4  2  0
  4  5  1  0
  5 15  2  0
  5 17  1  0
  6 17  1  0
  6 18  2  0
  6 22  1  0
  7  8  1  0
  7 14  2  0
  7 18  1  0
  8  9  1  0
  8 13  2  0
  9 10  2  0
 10 11  1  0
 11 12  2  0
 11 23  1  0
 12 13  1  0
 14 22  1  0
 15 16  1  0
 16 21  1  0
  3 24  1  0
  4 25  1  0
  9 26  1  0
 10 27  1  0
 12 28  1  0
 13 29  1  0
 14 30  1  0
 15 31  1  0
 17 32  1  0
M  CHG  2  19  -1  21  -1
M  END
>  <mol_id>  (57) 
2026-08-24-6tgu-s0-n100-0057

>  <rmsd_to_ref>  (57) 
3.02551020408347

>  <pose_kind>  (57) 
rigid

$$$$
6tgu.A
     RDKit          3D

 32 34  0  0  0  0  0  0  0  0999 V2000
   -0.0055   19.9266   37.4155 C   0  0  0  0  0  0  0  0  0  0  0  0
    0.1033   19.4295   38.7819 C   0  0  0  0  0  0  0  0  0  0  0  0
   -1.0232   19.0540   39.4412 C   0  0  0  0  0  0  0  0  0  0  0  0
   -0.9462   18.5549   40.7162 C   0  0  0  0  0  0  0  0  0  0  0  0
    0.3059   18.4521   41.2956 C   0  0  0  0  0  0  0  0  0  0  0  0
    0.9493   16.6001   42.7073 C   0  0  0  0  0  0  0  0  0  0  0  0
    1.9801   14.6008   42.8056 C   0  0  0  0  0  0  0  0  0  0  0  0
    3.1474   13.8344   43.3052 C   0  0  0  0  0  0  0  0  0  0  0  0
    4.1542   14.4084   44.0421 C   0  0  0  0  0  0  0  0  0  0  0  0
    5.2229   13.6608   44.4925 C   0  0  0  0  0  0  0  0  0  0  0  0
    5.3219   12.3134   44.2202 C   0  0  0  0  0  0  0  0  0  0  0  0
    4.3074   11.7101   43.4688 C   0  0  0  0  0  0  0  0  0  0  0  0
    3.2522   12.4816   43.0345 C   0  0  0  0  0  0  0  0  0  0  0  0
    0.9894   14.0010   42.0963 C   0  0  0  0  0  0  0  0  0  0  0  0
    1.4726   18.8210   40.6667 C   0  0  0  0  0  0  0  0  0  0  0  0
    1.3632   19.3193   39.3831 C   0  0  0  0  0  0  0  0  0  0  0  0
    0.2936   17.8833   42.6316 N   0  0  0  0  0  0  0  0  0  0  0  0
    1.7952   15.8915   43.0133 N   0  0  0  0  0  0  0  0  0  0  0  0
    1.0660   20.3169   36.6363 O   0  0  0  0  0  0  0  0  0  0  0  0
   -1.1540   20.0191   36.8740 O   0  0  0  0  0  0  0  0  0  0  0  0
    2.4844   19.7222   38.6638 O   0  0  0  0  0  0  0  0  0  0  0  0
   -0.1925   15.3657   41.7584 S   0  0  0  0  0  0  0  0  0  0  0  0
    6.6582   11.3174   44.7659 Cl  0  0  0  0  0  0  0  0  0  0  0  0
   -2.0182   19.1345   38.9918 H   0  0  0  0  0  0  0  0  0  0  0  0
   -1.8423   18.2472   41.2564 H   0  0  0  0  0  0  0  0  0  0  0  0
    4.0929   15.4835   44.2745 H   0  0  0  0  0  0  0  0  0  0  0  0
    5.9972   14.1443   45.0840 H   0  0  0  0  0  0  0  0  0  0  0  0
    4.3289   10.6591   43.2256 H   0  0  0  0  0  0  0  0  0  0  0  0
    2.4903   12.0148   42.4616 H   0  0  0  0  0  0  0  0  0  0  0  0
    0.8164   12.9622   41.7429 H   0  0  0  0  0  0  0  0  0  0  0  0
    2.4293   18.7206   41.1562 H   0  0  0  0  0  0  0  0  0  0  0  0
   -0.1377   18.3612   43.4288 H   0  0  0  0  0  0  0  0  0  0  0  0
  1  2  1  0
  1 19  1  0
  1 20  2  0
  2  3  1  0
  2 16  2  0
  3  4  2  0
  4  5  1  0
  5 15  2  0
  5 17  1  0
  6 17  1  0
  6 18  2  0
  6 22  1  0
  7  8  1  0
  7 14  2  0
  7 18  1  0
  8  9  1  0
  8 13  2  0
  9 10  2  0
 10 11  1  0
 11 12  2  0
 11 23  1  0
 12 13  1  0
 14 22  1  0
 15 16  1  0
 16 21  1  0
  3 24  1  0
  4 25  1  0
  9 26  1  0
 10 27  1  0
 12 28  1  0
 13 29  1  0
 14 30  1  0
 15 31  1  0
 17 32  1  0
M  CHG  2  19  -1  21  -1
M  END
>  <mol_id>  (58) 
2026-08-24-6tgu-s0-n100-0058

>  <rmsd_to_ref>  (58) 
3.071428571431358

>  <pose_kind>  (58) 
conformer

$$$$
6tgu.A
     RDKit          3D

 32 34  0  0  0  0  0  0  0  0999 V2000
    1.9956   19.0588   37.2401 C   0  0  0  0  0  0  0  0  0  0  0  0
    1.1331   18.3461   38.2854 C   0  0  0  0  0  0  0  0  0  0  0  0
   -0.2122   18.0860   38.0340 C   0  0  0  0  0  0  0  0  0  0  0  0
   -0.9812   17.2756   38.8757 C   0  0  0  0  0  0  0  0  0  0  0  0
   -0.4598   16.8397   40.1024 C   0  0  0  0  0  0  0  0  0  0  0  0
   -0.8002   15.0613   41.8870 C   0  0  0  0  0  0  0  0  0  0  0  0
    0.6349   13.9757   43.2790 C   0  0  0  0  0  0  0  0  0  0  0  0
    1.9207   13.7337   43.9341 C   0  0  0  0  0  0  0  0  0  0  0  0
    2.1343   12.6251   44.7656 C   0  0  0  0  0  0  0  0  0  0  0  0
    3.3751   12.3957   45.3518 C   0  0  0  0  0  0  0  0  0  0  0  0
    4.4144   13.2603   45.0643 C   0  0  0  0  0  0  0  0  0  0  0  0
    4.2487   14.3655   44.2432 C   0  0  0  0  0  0  0  0  0  0  0  0
    2.9967   14.5842   43.6752 C   0  0  0  0  0  0  0  0  0  0  0  0
   -0.4634   13.1704   43.4268 C   0  0  0  0  0  0  0  0  0  0  0  0
    0.8957   17.0835   40.3660 C   0  0  0  0  0  0  0  0  0  0  0  0
    1.6569   17.8301   39.4647 C   0  0  0  0  0  0  0  0  0  0  0  0
   -1.2079   15.9596   40.9433 N   0  0  0  0  0  0  0  0  0  0  0  0
    0.5044   15.0177   42.3307 N   0  0  0  0  0  0  0  0  0  0  0  0
    1.4710   19.2379   36.1018 O   0  0  0  0  0  0  0  0  0  0  0  0
    3.1712   19.3330   37.5667 O   0  0  0  0  0  0  0  0  0  0  0  0
    3.0068   17.9739   39.6809 O   0  0  0  0  0  0  0  0  0  0  0  0
   -1.7293   13.6527   42.3625 S   0  0  0  0  0  0  0  0  0  0  0  0
    5.9758   12.9644   45.7544 Cl  0  0  0  0  0  0  0  0  0  0  0  0
   -0.6844   18.5318   37.1461 H   0  0  0  0  0  0  0  0  0  0  0  0
   -1.9970   16.9796   38.5748 H   0  0  0  0  0  0  0  0  0  0  0  0
    1.3075   11.9254   44.9576 H   0  0  0  0  0  0  0  0  0  0  0  0
    3.5260   11.5432   46.0304 H   0  0  0  0  0  0  0  0  0  0  0  0
    5.0854   15.0518   44.0456 H   0  0  0  0  0  0  0  0  0  0  0  0
    2.8521   15.4465   43.0077 H   0  0  0  0  0  0  0  0  0  0  0  0
   -0.5283   12.3281   44.1312 H   0  0  0  0  0  0  0  0  0  0  0  0
    1.3586   16.6871   41.2817 H   0  0  0  0  0  0  0  0  0  0  0  0
   -2.2286   16.0118   40.8158 H   0  0  0  0  0  0  0  0  0  0  0  0
  1  2  1  0
  1 19  1  0
  1 20  2  0
  2  3  1  0
  2 16  2  0
  3  4  2  0
  4  5  1  0
  5 15  2  0
  5 17  1  0
  6 17  1  0
  6 18  2  0
  6 22  1  0
  7  8  1  0
  7 14  2  0
  7 18  1  0
  8  9  1  0
  8 13  2  0
  9 10  2  0
 10 11  1  0
 11 12  2  0
 11 23  1  0
 12 13  1  0
 14 22  1  0
 15 16  1  0
 16 21  1  0
  3 24  1  0
  4 25  1  0
  9 26  1  0
 10 27  1  0
 12 28  1  0
 13 29  1  0
 14 30  1  0
 15 31  1  0
 17 32  1  0
M  CHG  2  19  -1  21  -1
M  END
>  <mol_id>  (59) 
2026-08-24-6tgu-s0-n100-0059

>  <rmsd_to_ref>  (59) 
3.1173469387810546

>  <pose_kind>  (59) 
rigid

$$$$
6tgu.A
     RDKit          3D

 32 34  0  0  0  0  0  0  0  0999 V2000
    1.4172   21.8562   38.4947 C   0  0  0  0  0  0  0  0  0  0  0  0
    1.1843   20.7052   39.3590 C   0  0  0  0  0  0  0  0  0  0  0  0
   -0.0596   20.1630   39.4183 C   0  0  0  0  0  0  0  0  0  0  0  0
   -0.2990   19.0619   40.1999 C   0  0  0  0  0  0  0  0  0  0  0  0
    0.7608   18.5345   40.9159 C   0  0  0  0  0  0  0  0  0  0  0  0
    1.0858   16.1598   41.2191 C   0  0  0  0  0  0  0  0  0  0  0  0
    2.1341   14.3113   40.4749 C   0  0  0  0  0  0  0  0  0  0  0  0
    3.1596   13.2758   40.7497 C   0  0  0  0  0  0  0  0  0  0  0  0
    3.9146   13.2624   41.8969 C   0  0  0  0  0  0  0  0  0  0  0  0
    4.8572   12.2792   42.1182 C   0  0  0  0  0  0  0  0  0  0  0  0
    5.0778   11.2764   41.1989 C   0  0  0  0  0  0  0  0  0  0  0  0
    4.3203   11.2735   40.0225 C   0  0  0  0  0  0  0  0  0  0  0  0
    3.3856   12.2668   39.8303 C   0  0  0  0  0  0  0  0  0  0  0  0
    1.3883   14.2867   39.3401 C   0  0  0  0  0  0  0  0  0  0  0  0
    2.0357   19.0508   40.8873 C   0  0  0  0  0  0  0  0  0  0  0  0
    2.2463   20.1592   40.0905 C   0  0  0  0  0  0  0  0  0  0  0  0
    0.4220   17.3522   41.6879 N   0  0  0  0  0  0  0  0  0  0  0  0
    1.8498   15.3098   41.2906 N   0  0  0  0  0  0  0  0  0  0  0  0
    2.6387   22.4800   38.3332 O   0  0  0  0  0  0  0  0  0  0  0  0
    0.4476   22.3437   37.8289 O   0  0  0  0  0  0  0  0  0  0  0  0
    3.4996   20.7567   39.9961 O   0  0  0  0  0  0  0  0  0  0  0  0
    0.2825   15.7428   39.5135 S   0  0  0  0  0  0  0  0  0  0  0  0
    6.2634   10.0047   41.4287 Cl  0  0  0  0  0  0  0  0  0  0  0  0
   -0.9046   20.5753   38.8577 H   0  0  0  0  0  0  0  0  0  0  0  0
   -1.2923   18.6146   40.2550 H   0  0  0  0  0  0  0  0  0  0  0  0
    3.7517   14.0526   42.6468 H   0  0  0  0  0  0  0  0  0  0  0  0
    5.4297   12.2913   43.0430 H   0  0  0  0  0  0  0  0  0  0  0  0
    4.4468   10.5136   39.2672 H   0  0  0  0  0  0  0  0  0  0  0  0
    2.8195   12.2577   38.9325 H   0  0  0  0  0  0  0  0  0  0  0  0
    1.3555   13.6161   38.4552 H   0  0  0  0  0  0  0  0  0  0  0  0
    2.8342   18.6047   41.4605 H   0  0  0  0  0  0  0  0  0  0  0  0
   -0.2216   17.3815   42.4845 H   0  0  0  0  0  0  0  0  0  0  0  0
  1  2  1  0
  1 19  1  0
  1 20  2  0
  2  3  1  0
  2 16  2  0
  3  4  2  0
  4  5  1  0
  5 15  2  0
  5 17  1  0
  6 17  1  0
  6 18  2  0
  6 22  1  0
  7  8  1  0
  7 14  2  0
  7 18  1  0
  8  9  1  0
  8 13  2  0
  9 10  2  0
 10 11  1  0
 11 12  2  0
 11 23  1  0
 12 13  1  0
 14 22  1  0
 15 16  1  0
 16 21  1  0
  3 24  1  0
  4 25  1  0
  9 26  1  0
 10 27  1  0
 12 28  1  0
 13 29  1  0
 14 30  1  0
 15 31  1  0
 17 32  1  0
M  CHG  2  19  -1  21  -1
M  END
>  <mol_id>  (60) 
2026-08-24-6tgu-s0-n100-0060

>  <rmsd_to_ref>  (60) 
3.163265306129091

>  <pose_kind>  (60) 
conformer

$$$$
6tgu.A
     RDKit          3D

 32 34  0  0  0  0  0  0  0  0999 V2000
    3.0185   16.7221   36.0469 C   0  0  0  0  0  0  0  0  0  0  0  0
    2.7296   17.5810   37.2812 C   0  0  0  0  0  0  0  0  0  0  0  0
    2.5456   18.9564   37.1585 C   0  0  0  0  0  0  0  0  0  0  0  0
    2.0953   19.7427   38.2240 C   0  0  0  0  0  0  0  0  0  0  0  0
    1.9820   19.1904   39.5081 C   0  0  0  0  0  0  0  0  0  0  0  0
    0.8393   19.5802   41.7454 C   0  0  0  0  0  0  0  0  0  0  0  0
    0.0627   18.1667   43.3499 C   0  0  0  0  0  0  0  0  0  0  0  0
   -0.1086   16.8708   44.0075 C   0  0  0  0  0  0  0  0  0  0  0  0
   -0.9453   16.7070   45.1207 C   0  0  0  0  0  0  0  0  0  0  0  0
   -1.1200   15.4588   45.7101 C   0  0  0  0  0  0  0  0  0  0  0  0
   -0.4852   14.3662   45.1499 C   0  0  0  0  0  0  0  0  0  0  0  0
    0.3463   14.4821   44.0462 C   0  0  0  0  0  0  0  0  0  0  0  0
    0.5172   15.7413   43.4777 C   0  0  0  0  0  0  0  0  0  0  0  0
   -0.5499   19.3209   43.7610 C   0  0  0  0  0  0  0  0  0  0  0  0
    2.1530   17.8056   39.6469 C   0  0  0  0  0  0  0  0  0  0  0  0
    2.5261   17.0360   38.5434 C   0  0  0  0  0  0  0  0  0  0  0  0
    1.4630   19.9622   40.5926 N   0  0  0  0  0  0  0  0  0  0  0  0
    0.7938   18.2607   42.1421 N   0  0  0  0  0  0  0  0  0  0  0  0
    2.9133   17.2950   34.9228 O   0  0  0  0  0  0  0  0  0  0  0  0
    3.2549   15.5098   36.2426 O   0  0  0  0  0  0  0  0  0  0  0  0
    2.5887   15.6683   38.6664 O   0  0  0  0  0  0  0  0  0  0  0  0
   -0.2701   20.6000   42.6413 S   0  0  0  0  0  0  0  0  0  0  0  0
   -0.7258   12.7990   45.8483 Cl  0  0  0  0  0  0  0  0  0  0  0  0
    2.7612   19.4390   36.1938 H   0  0  0  0  0  0  0  0  0  0  0  0
    1.8295   20.7966   38.0544 H   0  0  0  0  0  0  0  0  0  0  0  0
   -1.4721   17.5794   45.5347 H   0  0  0  0  0  0  0  0  0  0  0  0
   -1.7506   15.3438   46.6040 H   0  0  0  0  0  0  0  0  0  0  0  0
    0.8578   13.6015   43.6305 H   0  0  0  0  0  0  0  0  0  0  0  0
    1.1598   15.8485   42.5913 H   0  0  0  0  0  0  0  0  0  0  0  0
   -1.1416   19.4182   44.6832 H   0  0  0  0  0  0  0  0  0  0  0  0
    1.9933   17.3262   40.6239 H   0  0  0  0  0  0  0  0  0  0  0  0
    1.5793   20.9801   40.4867 H   0  0  0  0  0  0  0  0  0  0  0  0
  1  2  1  0
  1 19  1  0
  1 20  2  0
  2  3  1  0
  2 16  2  0
  3  4  2  0
  4  5  1  0
  5 15  2  0
  5 17  1  0
  6 17  1  0
  6 18  2  0
  6 22  1  0
  7  8  1  0
  7 14  2  0
  7 18  1  0
  8  9  1  0
  8 13  2  0
  9 10  2  0
 10 11  1  0
 11 12  2  0
 11 23  1  0
 12 13  1  0
 14 22  1  0
 15 16  1  0
 16 21  1  0
  3 24  1  0
  4 25  1  0
  9 26  1  0
 10 27  1  0
 12 28  1  0
 13 29  1  0
 14 30  1  0
 15 31  1  0
 17 32  1  0
M  CHG  2  19  -1  21  -1
M  END
>  <mol_id>  (61) 
2026-08-24-6tgu-s0-n100-0061

>  <rmsd_to_ref>  (61) 
3.209183673472575

>  <pose_kind>  (61) 
rigid

$$$$
6tgu.A
     RDKit          3D

 32 34  0  0  0  0  0  0  0  0999 V2000
   -1.5034   19.4031   37.1927 C   0  0  0  0  0  0  0  0  0  0  0  0
   -1.0376   19.1897   38.5579 C   0  0  0  0  0  0  0  0  0  0  0  0
   -1.9463   19.1303   39.5655 C   0  0  0  0  0  0  0  0  0  0  0  0
   -1.5379   18.9008   40.8544 C   0  0  0  0  0  0  0  0  0  0  0  0
   -0.1835   18.7361   41.0837 C   0  0  0  0  0  0  0  0  0  0  0  0
    0.6928   17.1428   42.6745 C   0  0  0  0  0  0  0  0  0  0  0  0
    1.5379   15.0772   42.9718 C   0  0  0  0  0  0  0  0  0  0  0  0
    2.7332   14.2668   43.3094 C   0  0  0  0  0  0  0  0  0  0  0  0
    3.9565   14.8256   43.5883 C   0  0  0  0  0  0  0  0  0  0  0  0
    5.0450   14.0378   43.9020 C   0  0  0  0  0  0  0  0  0  0  0  0
    4.9476   12.6637   43.9464 C   0  0  0  0  0  0  0  0  0  0  0  0
    3.7104   12.0747   43.6633 C   0  0  0  0  0  0  0  0  0  0  0  0
    2.6414   12.8870   43.3552 C   0  0  0  0  0  0  0  0  0  0  0  0
    0.3360   14.4969   42.7208 C   0  0  0  0  0  0  0  0  0  0  0  0
    0.7719   18.7895   40.0952 C   0  0  0  0  0  0  0  0  0  0  0  0
    0.3300   19.0212   38.8072 C   0  0  0  0  0  0  0  0  0  0  0  0
    0.1521   18.4651   42.4703 N   0  0  0  0  0  0  0  0  0  0  0  0
    1.5297   16.3957   42.9038 N   0  0  0  0  0  0  0  0  0  0  0  0
   -0.6812   19.4601   36.0845 O   0  0  0  0  0  0  0  0  0  0  0  0
   -2.7489   19.5504   36.9735 O   0  0  0  0  0  0  0  0  0  0  0  0
    1.2183   19.0955   37.7384 O   0  0  0  0  0  0  0  0  0  0  0  0
   -0.7761   15.9215   42.3935 S   0  0  0  0  0  0  0  0  0  0  0  0
    6.2984   11.6158   44.3371 Cl  0  0  0  0  0  0  0  0  0  0  0  0
   -3.0194   19.2624   39.3939 H   0  0  0  0  0  0  0  0  0  0  0  0
   -2.2568   18.8481   41.6729 H   0  0  0  0  0  0  0  0  0  0  0  0
    4.0555   15.9224   43.5622 H   0  0  0  0  0  0  0  0  0  0  0  0
    5.9965   14.5132   44.1293 H   0  0  0  0  0  0  0  0  0  0  0  0
    3.5723   11.0049   43.6842 H   0  0  0  0  0  0  0  0  0  0  0  0
    1.7085   12.4297   43.1379 H   0  0  0  0  0  0  0  0  0  0  0  0
   -0.0187   13.4447   42.6881 H   0  0  0  0  0  0  0  0  0  0  0  0
    1.8188   18.6522   40.3193 H   0  0  0  0  0  0  0  0  0  0  0  0
    0.0163   19.1564   43.2141 H   0  0  0  0  0  0  0  0  0  0  0  0
  1  2  1  0
  1 19  1  0
  1 20  2  0
  2  3  1  0
  2 16  2  0
  3  4  2  0
  4  5  1  0
  5 15  2  0
  5 17  1  0
  6 17  1  0
  6 18  2  0
  6 22  1  0
  7  8  1  0
  7 14  2  0
  7 18  1  0
  8  9  1  0
  8 13  2  0
  9 10  2  0
 10 11  1  0
 11 12  2  0
 11 23  1  0
 12 13  1  0
 14 22  1  0
 15 16  1  0
 16 21  1  0
  3 24  1  0
  4 25  1  0
  9 26  1  0
 10 27  1  0
 12 28  1  0
 13 29  1  0
 14 30  1  0
 15 31  1  0
 17 32  1  0
M  CHG  2  19  -1  21  -1
M  END
>  <mol_id>  (62) 
2026-08-24-6tgu-s0-n100-0062

>  <rmsd_to_ref>  (62) 
3.255102040824236

>  <pose_kind>  (62) 
conformer

$$$$
6tgu.A
     RDKit          3D

 32 34  0  0  0  0  0  0  0  0999 V2000
   -0.4846   20.8604   38.3746 C   0  0  0  0  0  0  0  0  0  0  0  0
   -0.3962   19.8679   39.5372 C   0  0  0  0  0  0  0  0  0  0  0  0
   -1.3789   19.8456   40.5244 C   0  0  0  0  0  0  0  0  0  0  0  0
   -1.4364   18.8368   41.4916 C   0  0  0  0  0  0  0  0  0  0  0  0
   -0.3928   17.9063   41.6012 C   0  0  0  0  0  0  0  0  0  0  0  0
    0.1239   15.6015   42.5417 C   0  0  0  0  0  0  0  0  0  0  0  0
    1.5145   13.9334   41.8643 C   0  0  0  0  0  0  0  0  0  0  0  0
    2.5850   13.3416   41.0611 C   0  0  0  0  0  0  0  0  0  0  0  0
    2.9095   11.9799   41.1428 C   0  0  0  0  0  0  0  0  0  0  0  0
    3.9088   11.4309   40.3452 C   0  0  0  0  0  0  0  0  0  0  0  0
    4.5516   12.2459   39.4326 C   0  0  0  0  0  0  0  0  0  0  0  0
    4.2582   13.5961   39.3147 C   0  0  0  0  0  0  0  0  0  0  0  0
    3.2632   14.1291   40.1295 C   0  0  0  0  0  0  0  0  0  0  0  0
    0.7569   13.2332   42.7654 C   0  0  0  0  0  0  0  0  0  0  0  0
    0.5981   17.9080   40.6092 C   0  0  0  0  0  0  0  0  0  0  0  0
    0.5814   18.8828   39.6100 C   0  0  0  0  0  0  0  0  0  0  0  0
   -0.4669   16.8323   42.5405 N   0  0  0  0  0  0  0  0  0  0  0  0
    1.1173   15.2734   41.6438 N   0  0  0  0  0  0  0  0  0  0  0  0
   -1.5600   21.5214   38.2766 O   0  0  0  0  0  0  0  0  0  0  0  0
    0.4742   20.8802   37.5721 O   0  0  0  0  0  0  0  0  0  0  0  0
    1.4950   18.8125   38.5852 O   0  0  0  0  0  0  0  0  0  0  0  0
   -0.5259   14.2054   43.3795 S   0  0  0  0  0  0  0  0  0  0  0  0
    5.7695   11.5673   38.4041 Cl  0  0  0  0  0  0  0  0  0  0  0  0
   -2.1330   20.6463   40.5439 H   0  0  0  0  0  0  0  0  0  0  0  0
   -2.3018   18.7731   42.1675 H   0  0  0  0  0  0  0  0  0  0  0  0
    2.3654   11.3354   41.8488 H   0  0  0  0  0  0  0  0  0  0  0  0
    4.1817   10.3694   40.4391 H   0  0  0  0  0  0  0  0  0  0  0  0
    4.7979   14.2299   38.5956 H   0  0  0  0  0  0  0  0  0  0  0  0
    3.0058   15.1946   40.0371 H   0  0  0  0  0  0  0  0  0  0  0  0
    0.9427   12.1893   43.0580 H   0  0  0  0  0  0  0  0  0  0  0  0
    1.3877   17.1421   40.6183 H   0  0  0  0  0  0  0  0  0  0  0  0
   -1.0684   17.0183   43.3557 H   0  0  0  0  0  0  0  0  0  0  0  0
  1  2  1  0
  1 19  1  0
  1 20  2  0
  2  3  1  0
  2 16  2  0
  3  4  2  0
  4  5  1  0
  5 15  2  0
  5 17  1  0
  6 17  1  0
  6 18  2  0
  6 22  1  0
  7  8  1  0
  7 14  2  0
  7 18  1  0
  8  9  1  0
  8 13  2  0
  9 10  2  0
 10 11  1  0
 11 12  2  0
 11 23  1  0
 12 13  1  0
 14 22  1  0
 15 16  1  0
 16 21  1  0
  3 24  1  0
  4 25  1  0
  9 26  1  0
 10 27  1  0
 12 28  1  0
 13 29  1  0
 14 30  1  0
 15 31  1  0
 17 32  1  0
M  CHG  2  19  -1  21  -1
M  END
>  <mol_id>  (63) 
2026-08-24-6tgu-s0-n100-0063

>  <rmsd_to_ref>  (63) 
3.30102040816799

>  <pose_kind>  (63) 
rigid

$$$$
6tgu.A
     RDKit          3D

 32 34  0  0  0  0  0  0  0  0999 V2000
    5.0221   17.1875   36.9603 C   0  0  0  0  0  0  0  0  0  0  0  0
    4.3011   17.5182   38.1838 C   0  0  0  0  0  0  0  0  0  0  0  0
    3.5710   18.6623   38.2331 C   0  0  0  0  0  0  0  0  0  0  0  0
    2.8593   18.9822   39.3609 C   0  0  0  0  0  0  0  0  0  0  0  0
    2.9153   18.1067   40.4306 C   0  0  0  0  0  0  0  0  0  0  0  0
    1.0037   17.6144   41.8235 C   0  0  0  0  0  0  0  0  0  0  0  0
   -0.7079   16.2035   42.2100 C   0  0  0  0  0  0  0  0  0  0  0  0
   -1.2893   15.1834   43.1161 C   0  0  0  0  0  0  0  0  0  0  0  0
   -0.6692   14.7744   44.2713 C   0  0  0  0  0  0  0  0  0  0  0  0
   -1.2442   13.8248   45.0909 C   0  0  0  0  0  0  0  0  0  0  0  0
   -2.4587   13.2508   44.7824 C   0  0  0  0  0  0  0  0  0  0  0  0
   -3.1056   13.6525   43.6086 C   0  0  0  0  0  0  0  0  0  0  0  0
   -2.5080   14.6036   42.8113 C   0  0  0  0  0  0  0  0  0  0  0  0
   -1.3546   16.6029   41.0845 C   0  0  0  0  0  0  0  0  0  0  0  0
    3.6418   16.9383   40.4258 C   0  0  0  0  0  0  0  0  0  0  0  0
    4.3474   16.6428   39.2758 C   0  0  0  0  0  0  0  0  0  0  0  0
    2.1058   18.5097   41.5668 N   0  0  0  0  0  0  0  0  0  0  0  0
    0.4467   16.8094   42.4176 N   0  0  0  0  0  0  0  0  0  0  0  0
    5.7782   16.0458   36.7808 O   0  0  0  0  0  0  0  0  0  0  0  0
    4.9710   17.9861   35.9700 O   0  0  0  0  0  0  0  0  0  0  0  0
    5.1145   15.4861   39.1730 O   0  0  0  0  0  0  0  0  0  0  0  0
   -0.2356   17.8690   40.3648 S   0  0  0  0  0  0  0  0  0  0  0  0
   -3.2327   12.0393   45.7867 Cl  0  0  0  0  0  0  0  0  0  0  0  0
    3.5232   19.3623   37.3928 H   0  0  0  0  0  0  0  0  0  0  0  0
    2.2668   19.8964   39.4134 H   0  0  0  0  0  0  0  0  0  0  0  0
    0.3005   15.2232   44.5387 H   0  0  0  0  0  0  0  0  0  0  0  0
   -0.7320   13.5321   46.0047 H   0  0  0  0  0  0  0  0  0  0  0  0
   -4.0587   13.2405   43.3156 H   0  0  0  0  0  0  0  0  0  0  0  0
   -3.0053   14.8980   41.9209 H   0  0  0  0  0  0  0  0  0  0  0  0
   -2.3160   16.3174   40.6071 H   0  0  0  0  0  0  0  0  0  0  0  0
    3.6545   16.2825   41.2830 H   0  0  0  0  0  0  0  0  0  0  0  0
    2.3140   19.3458   42.1213 H   0  0  0  0  0  0  0  0  0  0  0  0
  1  2  1  0
  1 19  1  0
  1 20  2  0
  2  3  1  0
  2 16  2  0
  3  4  2  0
  4  5  1  0
  5 15  2  0
  5 17  1  0
  6 17  1  0
  6 18  2  0
  6 22  1  0
  7  8  1  0
  7 14  2  0
  7 18  1  0
  8  9  1  0
  8 13  2  0
  9 10  2  0
 10 11  1  0
 11 12  2  0
 11 23  1  0
 12 13  1  0
 14 22  1  0
 15 16  1  0
 16 21  1  0
  3 24  1  0
  4 25  1  0
  9 26  1  0
 10 27  1  0
 12 28  1  0
 13 29  1  0
 14 30  1  0
 15 31  1  0
 17 32  1  0
M  CHG  2  19  -1  21  -1
M  END
>  <mol_id>  (64) 
2026-08-24-6tgu-s0-n100-0064

>  <rmsd_to_ref>  (64) 
3.346938775520557

>  <pose_kind>  (64) 
conformer

$$$$
6tgu.A
     RDKit          3D

 32 34  0  0  0  0  0  0  0  0999 V2000
    4.2931   21.5615   41.2408 C   0  0  0  0  0  0  0  0  0  0  0  0
    3.1532   20.7037   41.7970 C   0  0  0  0  0  0  0  0  0  0  0  0
    2.2005   21.2591   42.6482 C   0  0  0  0  0  0  0  0  0  0  0  0
    1.0457   20.5647   43.0232 C   0  0  0  0  0  0  0  0  0  0  0  0
    0.8986   19.2107   42.6888 C   0  0  0  0  0  0  0  0  0  0  0  0
   -0.8763   17.4085   42.4326 C   0  0  0  0  0  0  0  0  0  0  0  0
   -1.0581   15.6042   41.0589 C   0  0  0  0  0  0  0  0  0  0  0  0
   -0.5794   14.6272   40.0804 C   0  0  0  0  0  0  0  0  0  0  0  0
   -1.4287   13.6675   39.5116 C   0  0  0  0  0  0  0  0  0  0  0  0
   -0.9603   12.7693   38.5577 C   0  0  0  0  0  0  0  0  0  0  0  0
    0.3549   12.8672   38.1440 C   0  0  0  0  0  0  0  0  0  0  0  0
    1.2275   13.8046   38.6758 C   0  0  0  0  0  0  0  0  0  0  0  0
    0.7429   14.6869   39.6374 C   0  0  0  0  0  0  0  0  0  0  0  0
   -2.3482   15.6614   41.5158 C   0  0  0  0  0  0  0  0  0  0  0  0
    1.8428   18.6394   41.8237 C   0  0  0  0  0  0  0  0  0  0  0  0
    2.9444   19.3871   41.4038 C   0  0  0  0  0  0  0  0  0  0  0  0
   -0.3020   18.5051   43.0083 N   0  0  0  0  0  0  0  0  0  0  0  0
   -0.2095   16.6493   41.4947 N   0  0  0  0  0  0  0  0  0  0  0  0
    4.2208   22.8068   41.4578 O   0  0  0  0  0  0  0  0  0  0  0  0
    5.1575   20.9776   40.5511 O   0  0  0  0  0  0  0  0  0  0  0  0
    3.8061   18.8535   40.4751 O   0  0  0  0  0  0  0  0  0  0  0  0
   -2.5908   17.0503   42.5056 S   0  0  0  0  0  0  0  0  0  0  0  0
    0.9412   11.7822   36.9273 Cl  0  0  0  0  0  0  0  0  0  0  0  0
    2.3614   22.2753   43.0374 H   0  0  0  0  0  0  0  0  0  0  0  0
    0.2513   21.0816   43.5815 H   0  0  0  0  0  0  0  0  0  0  0  0
   -2.4824   13.6239   39.8246 H   0  0  0  0  0  0  0  0  0  0  0  0
   -1.6235   11.9969   38.1411 H   0  0  0  0  0  0  0  0  0  0  0  0
    2.2760   13.8498   38.3462 H   0  0  0  0  0  0  0  0  0  0  0  0
    1.4169   15.4480   40.0574 H   0  0  0  0  0  0  0  0  0  0  0  0
   -3.1257   14.9193   41.2818 H   0  0  0  0  0  0  0  0  0  0  0  0
    1.7156   17.6035   41.4764 H   0  0  0  0  0  0  0  0  0  0  0  0
   -0.8230   18.8893   43.8095 H   0  0  0  0  0  0  0  0  0  0  0  0
  1  2  1  0
  1 19  1  0
  1 20  2  0
  2  3  1  0
  2 16  2  0
  3  4  2  0
  4  5  1  0
  5 15  2  0
  5 17  1  0
  6 17  1  0
  6 18  2  0
  6 22  1  0
  7  8  1  0
  7 14  2  0
  7 18  1  0
  8  9  1  0
  8 13  2  0
  9 10  2  0
 10 11  1  0
 11 12  2  0
 11 23  1  0
 12 13  1  0
 14 22  1  0
 15 16  1  0
 16 21  1  0
  3 24  1  0
  4 25  1  0
  9 26  1  0
 10 27  1  0
 12 28  1  0
 13 29  1  0
 14 30  1  0
 15 31  1  0
 17 32  1  0
M  CHG  2  19  -1  21  -1
M  END
>  <mol_id>  (65) 
2026-08-24-6tgu-s0-n100-0065

>  <rmsd_to_ref>  (65) 
3.392857142859149

>  <pose_kind>  (65) 
rigid

$$$$
6tgu.A
     RDKit          3D

 32 34  0  0  0  0  0  0  0  0999 V2000
    3.3505   21.9588   41.7214 C   0  0  0  0  0  0  0  0  0  0  0  0
    2.7556   20.7146   42.1949 C   0  0  0  0  0  0  0  0  0  0  0  0
    1.4193   20.6686   42.4330 C   0  0  0  0  0  0  0  0  0  0  0  0
    0.8295   19.5029   42.8501 C   0  0  0  0  0  0  0  0  0  0  0  0
    1.6384   18.3930   43.0174 C   0  0  0  0  0  0  0  0  0  0  0  0
    0.9359   16.1578   42.4279 C   0  0  0  0  0  0  0  0  0  0  0  0
    0.9700   14.5464   40.8557 C   0  0  0  0  0  0  0  0  0  0  0  0
    1.4700   13.2042   40.4712 C   0  0  0  0  0  0  0  0  0  0  0  0
    2.2867   12.4541   41.2815 C   0  0  0  0  0  0  0  0  0  0  0  0
    2.7284   11.2070   40.8897 C   0  0  0  0  0  0  0  0  0  0  0  0
    2.3695   10.6677   39.6732 C   0  0  0  0  0  0  0  0  0  0  0  0
    1.5397   11.4171   38.8320 C   0  0  0  0  0  0  0  0  0  0  0  0
    1.1132   12.6580   39.2510 C   0  0  0  0  0  0  0  0  0  0  0  0
    0.1467   15.2561   40.0416 C   0  0  0  0  0  0  0  0  0  0  0  0
    2.9951   18.3937   42.7896 C   0  0  0  0  0  0  0  0  0  0  0  0
    3.5603   19.5820   42.3695 C   0  0  0  0  0  0  0  0  0  0  0  0
    0.9235   17.1977   43.4283 N   0  0  0  0  0  0  0  0  0  0  0  0
    1.2568   15.1470   41.9960 N   0  0  0  0  0  0  0  0  0  0  0  0
    4.6891   22.1237   41.4240 O   0  0  0  0  0  0  0  0  0  0  0  0
    2.6114   22.9829   41.5602 O   0  0  0  0  0  0  0  0  0  0  0  0
    4.9246   19.6857   42.1149 O   0  0  0  0  0  0  0  0  0  0  0  0
   -0.1836   16.7943   40.9892 S   0  0  0  0  0  0  0  0  0  0  0  0
    2.9036    9.0898   39.1253 Cl  0  0  0  0  0  0  0  0  0  0  0  0
    0.7722   21.5423   42.3062 H   0  0  0  0  0  0  0  0  0  0  0  0
   -0.2428   19.4508   43.0426 H   0  0  0  0  0  0  0  0  0  0  0  0
    2.5826   12.8646   42.2600 H   0  0  0  0  0  0  0  0  0  0  0  0
    3.3646   10.6342   41.5609 H   0  0  0  0  0  0  0  0  0  0  0  0
    1.2237   11.0471   37.8691 H   0  0  0  0  0  0  0  0  0  0  0  0
    0.4875   13.2198   38.6033 H   0  0  0  0  0  0  0  0  0  0  0  0
   -0.2893   15.0704   39.0369 H   0  0  0  0  0  0  0  0  0  0  0  0
    3.5877   17.5026   42.9302 H   0  0  0  0  0  0  0  0  0  0  0  0
    0.4665   17.1170   44.3418 H   0  0  0  0  0  0  0  0  0  0  0  0
  1  2  1  0
  1 19  1  0
  1 20  2  0
  2  3  1  0
  2 16  2  0
  3  4  2  0
  4  5  1  0
  5 15  2  0
  5 17  1  0
  6 17  1  0
  6 18  2  0
  6 22  1  0
  7  8  1  0
  7 14  2  0
  7 18  1  0
  8  9  1  0
  8 13  2  0
  9 10  2  0
 10 11  1  0
 11 12  2  0
 11 23  1  0
 12 13  1  0
 14 22  1  0
 15 16  1  0
 16 21  1  0
  3 24  1  0
  4 25  1  0
  9 26  1  0
 10 27  1  0
 12 28  1  0
 13 29  1  0
 14 30  1  0
 15 31  1  0
 17 32  1  0
M  CHG  2  19  -1  21  -1
M  END
>  <mol_id>  (66) 
2026-08-24-6tgu-s0-n100-0066

>  <rmsd_to_ref>  (66) 
3.4387755102055872

>  <pose_kind>  (66) 
conformer

$$$$
6tgu.A
     RDKit          3D

 32 34  0  0  0  0  0  0  0  0999 V2000
    0.5849   16.4293   36.3674 C   0  0  0  0  0  0  0  0  0  0  0  0
    1.3816   16.9611   37.5620 C   0  0  0  0  0  0  0  0  0  0  0  0
    1.7007   18.3140   37.6535 C   0  0  0  0  0  0  0  0  0  0  0  0
    2.2568   18.8686   38.8109 C   0  0  0  0  0  0  0  0  0  0  0  0
    2.6743   18.0366   39.8599 C   0  0  0  0  0  0  0  0  0  0  0  0
    3.2161   18.0897   42.3432 C   0  0  0  0  0  0  0  0  0  0  0  0
    2.9923   16.5532   44.0059 C   0  0  0  0  0  0  0  0  0  0  0  0
    2.7368   15.2223   44.5579 C   0  0  0  0  0  0  0  0  0  0  0  0
    2.6717   14.9905   45.9393 C   0  0  0  0  0  0  0  0  0  0  0  0
    2.3940   13.7234   46.4424 C   0  0  0  0  0  0  0  0  0  0  0  0
    2.1380   12.6977   45.5519 C   0  0  0  0  0  0  0  0  0  0  0  0
    2.1862   12.8841   44.1786 C   0  0  0  0  0  0  0  0  0  0  0  0
    2.4769   14.1567   43.6948 C   0  0  0  0  0  0  0  0  0  0  0  0
    3.2056   17.6706   44.7689 C   0  0  0  0  0  0  0  0  0  0  0  0
    2.3509   16.6741   39.7885 C   0  0  0  0  0  0  0  0  0  0  0  0
    1.7230   16.1662   38.6498 C   0  0  0  0  0  0  0  0  0  0  0  0
    3.1845   18.5910   41.0738 N   0  0  0  0  0  0  0  0  0  0  0  0
    2.9002   16.7748   42.6114 N   0  0  0  0  0  0  0  0  0  0  0  0
    0.1021   17.2951   35.5798 O   0  0  0  0  0  0  0  0  0  0  0  0
    0.4071   15.1928   36.3098 O   0  0  0  0  0  0  0  0  0  0  0  0
    1.3171   14.8529   38.6336 O   0  0  0  0  0  0  0  0  0  0  0  0
    3.2790   19.0836   43.7860 S   0  0  0  0  0  0  0  0  0  0  0  0
    1.7505   11.1239   46.1638 Cl  0  0  0  0  0  0  0  0  0  0  0  0
    1.5094   18.9664   36.7887 H   0  0  0  0  0  0  0  0  0  0  0  0
    2.3670   19.9596   38.8985 H   0  0  0  0  0  0  0  0  0  0  0  0
    2.8429   15.8240   46.6365 H   0  0  0  0  0  0  0  0  0  0  0  0
    2.3786   13.5414   47.5271 H   0  0  0  0  0  0  0  0  0  0  0  0
    1.9995   12.0476   43.4890 H   0  0  0  0  0  0  0  0  0  0  0  0
    2.5023   14.3262   42.6082 H   0  0  0  0  0  0  0  0  0  0  0  0
    3.3154   17.6664   45.8634 H   0  0  0  0  0  0  0  0  0  0  0  0
    2.5916   16.0063   40.6288 H   0  0  0  0  0  0  0  0  0  0  0  0
    3.5993   19.5285   40.9742 H   0  0  0  0  0  0  0  0  0  0  0  0
  1  2  1  0
  1 19  1  0
  1 20  2  0
  2  3  1  0
  2 16  2  0
  3  4  2  0
  4  5  1  0
  5 15  2  0
  5 17  1  0
  6 17  1  0
  6 18  2  0
  6 22  1  0
  7  8  1  0
  7 14  2  0
  7 18  1  0
  8  9  1  0
  8 13  2  0
  9 10  2  0
 10 11  1  0
 11 12  2  0
 11 23  1  0
 12 13  1  0
 14 22  1  0
 15 16  1  0
 16 21  1  0
  3 24  1  0
  4 25  1  0
  9 26  1  0
 10 27  1  0
 12 28  1  0
 13 29  1  0
 14 30  1  0
 15 31  1  0
 17 32  1  0
M  CHG  2  19  -1  21  -1
M  END
>  <mol_id>  (67) 
2026-08-24-6tgu-s0-n100-0067

>  <rmsd_to_ref>  (67) 
3.4846938775570324

>  <pose_kind>  (67) 
rigid

$$$$
6tgu.A
     RDKit          3D

 32 34  0  0  0  0  0  0  0  0999 V2000
   -1.0488   19.9687   37.5470 C   0  0  0  0  0  0  0  0  0  0  0  0
   -0.7206   19.2679   38.7828 C   0  0  0  0  0  0  0  0  0  0  0  0
   -1.7169   18.6818   39.4958 C   0  0  0  0  0  0  0  0  0  0  0  0
   -1.4321   17.9909   40.6457 C   0  0  0  0  0  0  0  0  0  0  0  0
   -0.1096   17.9174   41.0451 C   0  0  0  0  0  0  0  0  0  0  0  0
    0.8557   15.9313   42.0250 C   0  0  0  0  0  0  0  0  0  0  0  0
    2.0390   14.0529   41.6494 C   0  0  0  0  0  0  0  0  0  0  0  0
    3.3174   13.3327   41.8649 C   0  0  0  0  0  0  0  0  0  0  0  0
    4.3674   13.8740   42.5655 C   0  0  0  0  0  0  0  0  0  0  0  0
    5.5404   13.1706   42.7480 C   0  0  0  0  0  0  0  0  0  0  0  0
    5.7039   11.9020   42.2348 C   0  0  0  0  0  0  0  0  0  0  0  0
    4.6466   11.3336   41.5159 C   0  0  0  0  0  0  0  0  0  0  0  0
    3.4873   12.0591   41.3517 C   0  0  0  0  0  0  0  0  0  0  0  0
    1.0106   13.4834   40.9694 C   0  0  0  0  0  0  0  0  0  0  0  0
    0.9310   18.4961   40.3557 C   0  0  0  0  0  0  0  0  0  0  0  0
    0.6132   19.1844   39.2012 C   0  0  0  0  0  0  0  0  0  0  0  0
    0.1003   17.1395   42.2531 N   0  0  0  0  0  0  0  0  0  0  0  0
    1.7862   15.2681   42.0997 N   0  0  0  0  0  0  0  0  0  0  0  0
   -0.1240   20.5837   36.7259 O   0  0  0  0  0  0  0  0  0  0  0  0
   -2.2632   20.0360   37.1706 O   0  0  0  0  0  0  0  0  0  0  0  0
    1.5942   19.8068   38.4349 O   0  0  0  0  0  0  0  0  0  0  0  0
   -0.3060   14.7631   41.0180 S   0  0  0  0  0  0  0  0  0  0  0  0
    7.1729   10.9653   42.4352 Cl  0  0  0  0  0  0  0  0  0  0  0  0
   -2.7663   18.7372   39.1891 H   0  0  0  0  0  0  0  0  0  0  0  0
   -2.2219   17.5131   41.2268 H   0  0  0  0  0  0  0  0  0  0  0  0
    4.2564   14.8854   42.9876 H   0  0  0  0  0  0  0  0  0  0  0  0
    6.3480   13.6241   43.3183 H   0  0  0  0  0  0  0  0  0  0  0  0
    4.7150   10.3437   41.0922 H   0  0  0  0  0  0  0  0  0  0  0  0
    2.6931   11.6201   40.8010 H   0  0  0  0  0  0  0  0  0  0  0  0
    0.8710   12.5045   40.4633 H   0  0  0  0  0  0  0  0  0  0  0  0
    1.9495   18.4108   40.7027 H   0  0  0  0  0  0  0  0  0  0  0  0
   -0.2553   17.4363   43.1670 H   0  0  0  0  0  0  0  0  0  0  0  0
  1  2  1  0
  1 19  1  0
  1 20  2  0
  2  3  1  0
  2 16  2  0
  3  4  2  0
  4  5  1  0
  5 15  2  0
  5 17  1  0
  6 17  1  0
  6 18  2  0
  6 22  1  0
  7  8  1  0
  7 14  2  0
  7 18  1  0
  8  9  1  0
  8 13  2  0
  9 10  2  0
 10 11  1  0
 11 12  2  0
 11 23  1  0
 12 13  1  0
 14 22  1  0
 15 16  1  0
 16 21  1  0
  3 24  1  0
  4 25  1  0
  9 26  1  0
 10 27  1  0
 12 28  1  0
 13 29  1  0
 14 30  1  0
 15 31  1  0
 17 32  1  0
M  CHG  2  19  -1  21  -1
M  END
>  <mol_id>  (68) 
2026-08-24-6tgu-s0-n100-0068

>  <rmsd_to_ref>  (68) 
3.530612244905563

>  <pose_kind>  (68) 
conformer

$$$$
6tgu.A
     RDKit          3D

 32 34  0  0  0  0  0  0  0  0999 V2000
    1.2770   21.3332   37.3297 C   0  0  0  0  0  0  0  0  0  0  0  0
    0.8233   20.1383   38.1730 C   0  0  0  0  0  0  0  0  0  0  0  0
   -0.5103   19.7354   38.1688 C   0  0  0  0  0  0  0  0  0  0  0  0
   -0.9271   18.5434   38.7704 C   0  0  0  0  0  0  0  0  0  0  0  0
   -0.0325   17.7996   39.5535 C   0  0  0  0  0  0  0  0  0  0  0  0
    0.3163   15.4642   40.4955 C   0  0  0  0  0  0  0  0  0  0  0  0
    2.1824   14.2426   40.9439 C   0  0  0  0  0  0  0  0  0  0  0  0
    3.6198   14.0296   41.1168 C   0  0  0  0  0  0  0  0  0  0  0  0
    4.1594   12.7574   41.3537 C   0  0  0  0  0  0  0  0  0  0  0  0
    5.5325   12.5724   41.4816 C   0  0  0  0  0  0  0  0  0  0  0  0
    6.3661   13.6639   41.3266 C   0  0  0  0  0  0  0  0  0  0  0  0
    5.8753   14.9384   41.0860 C   0  0  0  0  0  0  0  0  0  0  0  0
    4.4978   15.1050   40.9726 C   0  0  0  0  0  0  0  0  0  0  0  0
    1.2466   13.2447   41.0135 C   0  0  0  0  0  0  0  0  0  0  0  0
    1.3155   18.1852   39.5594 C   0  0  0  0  0  0  0  0  0  0  0  0
    1.7127   19.3392   38.8814 C   0  0  0  0  0  0  0  0  0  0  0  0
   -0.4241   16.5484   40.1213 N   0  0  0  0  0  0  0  0  0  0  0  0
    1.6928   15.5125   40.5570 N   0  0  0  0  0  0  0  0  0  0  0  0
    0.4265   21.8101   36.5221 O   0  0  0  0  0  0  0  0  0  0  0  0
    2.4700   21.6892   37.4468 O   0  0  0  0  0  0  0  0  0  0  0  0
    3.0497   19.6499   38.8065 O   0  0  0  0  0  0  0  0  0  0  0  0
   -0.3123   13.8294   40.5711 S   0  0  0  0  0  0  0  0  0  0  0  0
    8.0804   13.4417   41.4426 Cl  0  0  0  0  0  0  0  0  0  0  0  0
   -1.2586   20.3744   37.6771 H   0  0  0  0  0  0  0  0  0  0  0  0
   -1.9587   18.1887   38.6289 H   0  0  0  0  0  0  0  0  0  0  0  0
    3.4864   11.8916   41.4398 H   0  0  0  0  0  0  0  0  0  0  0  0
    5.9464   11.5772   41.7017 H   0  0  0  0  0  0  0  0  0  0  0  0
    6.5571   15.7960   40.9872 H   0  0  0  0  0  0  0  0  0  0  0  0
    4.0925   16.1062   40.7647 H   0  0  0  0  0  0  0  0  0  0  0  0
    1.4619   12.2082   41.3122 H   0  0  0  0  0  0  0  0  0  0  0  0
    2.0593   17.5793   40.0977 H   0  0  0  0  0  0  0  0  0  0  0  0
   -1.4376   16.4472   40.2745 H   0  0  0  0  0  0  0  0  0  0  0  0
  1  2  1  0
  1 19  1  0
  1 20  2  0
  2  3  1  0
  2 16  2  0
  3  4  2  0
  4  5  1  0
  5 15  2  0
  5 17  1  0
  6 17  1  0
  6 18  2  0
  6 22  1  0
  7  8  1  0
  7 14  2  0
  7 18  1  0
  8  9  1  0
  8 13  2  0
  9 10  2  0
 10 11  1  0
 11 12  2  0
 11 23  1  0
 12 13  1  0
 14 22  1  0
 15 16  1  0
 16 21  1  0
  3 24  1  0
  4 25  1  0
  9 26  1  0
 10 27  1  0
 12 28  1  0
 13 29  1  0
 14 30  1  0
 15 31  1  0
 17 32  1  0
M  CHG  2  19  -1  21  -1
M  END
>  <mol_id>  (69) 
2026-08-24-6tgu-s0-n100-0069

>  <rmsd_to_ref>  (69) 
3.5765306122489164

>  <pose_kind>  (69) 
rigid

$$$$
6tgu.A
     RDKit          3D

 32 34  0  0  0  0  0  0  0  0999 V2000
    3.6012   22.2053   40.6403 C   0  0  0  0  0  0  0  0  0  0  0  0
    3.7642   20.8101   41.0314 C   0  0  0  0  0  0  0  0  0  0  0  0
    3.4673   20.4406   42.3042 C   0  0  0  0  0  0  0  0  0  0  0  0
    3.5831   19.1298   42.6901 C   0  0  0  0  0  0  0  0  0  0  0  0
    4.0094   18.2131   41.7456 C   0  0  0  0  0  0  0  0  0  0  0  0
    3.1154   15.9737   41.5950 C   0  0  0  0  0  0  0  0  0  0  0  0
    1.6214   14.6265   40.5837 C   0  0  0  0  0  0  0  0  0  0  0  0
    1.4116   13.4886   39.6561 C   0  0  0  0  0  0  0  0  0  0  0  0
    2.4467   12.8383   39.0301 C   0  0  0  0  0  0  0  0  0  0  0  0
    2.2112   11.7805   38.1760 C   0  0  0  0  0  0  0  0  0  0  0  0
    0.9319   11.3376   37.9177 C   0  0  0  0  0  0  0  0  0  0  0  0
   -0.1368   11.9883   38.5440 C   0  0  0  0  0  0  0  0  0  0  0  0
    0.1295   13.0399   39.3928 C   0  0  0  0  0  0  0  0  0  0  0  0
    0.5788   15.2368   41.2041 C   0  0  0  0  0  0  0  0  0  0  0  0
    4.3221   18.5420   40.4469 C   0  0  0  0  0  0  0  0  0  0  0  0
    4.1949   19.8696   40.0876 C   0  0  0  0  0  0  0  0  0  0  0  0
    4.0702   16.8468   42.2339 N   0  0  0  0  0  0  0  0  0  0  0  0
    2.8048   15.1229   40.8944 N   0  0  0  0  0  0  0  0  0  0  0  0
    3.8486   22.6978   39.3739 O   0  0  0  0  0  0  0  0  0  0  0  0
    3.2044   23.0536   41.5028 O   0  0  0  0  0  0  0  0  0  0  0  0
    4.4895   20.3032   38.7984 O   0  0  0  0  0  0  0  0  0  0  0  0
    1.3802   16.5288   42.2346 S   0  0  0  0  0  0  0  0  0  0  0  0
    0.5761   10.0004   36.8403 Cl  0  0  0  0  0  0  0  0  0  0  0  0
    3.1322   21.1594   43.0588 H   0  0  0  0  0  0  0  0  0  0  0  0
    3.3456   18.8185   43.7081 H   0  0  0  0  0  0  0  0  0  0  0  0
    3.4776   13.1738   39.2255 H   0  0  0  0  0  0  0  0  0  0  0  0
    3.0547   11.2799   37.7058 H   0  0  0  0  0  0  0  0  0  0  0  0
   -1.1597   11.6855   38.3825 H   0  0  0  0  0  0  0  0  0  0  0  0
   -0.6888   13.5292   39.8594 H   0  0  0  0  0  0  0  0  0  0  0  0
   -0.5222   15.0913   41.1815 H   0  0  0  0  0  0  0  0  0  0  0  0
    4.6484   17.7926   39.7418 H   0  0  0  0  0  0  0  0  0  0  0  0
    4.7337   16.5501   42.9561 H   0  0  0  0  0  0  0  0  0  0  0  0
  1  2  1  0
  1 19  1  0
  1 20  2  0
  2  3  1  0
  2 16  2  0
  3  4  2  0
  4  5  1  0
  5 15  2  0
  5 17  1  0
  6 17  1  0
  6 18  2  0
  6 22  1  0
  7  8  1  0
  7 14  2  0
  7 18  1  0
  8  9  1  0
  8 13  2  0
  9 10  2  0
 10 11  1  0
 11 12  2  0
 11 23  1  0
 12 13  1  0
 14 22  1  0
 15 16  1  0
 16 21  1  0
  3 24  1  0
  4 25  1  0
  9 26  1  0
 10 27  1  0
 12 28  1  0
 13 29  1  0
 14 30  1  0
 15 31  1  0
 17 32  1  0
M  CHG  2  19  -1  21  -1
M  END
>  <mol_id>  (70) 
2026-08-24-6tgu-s0-n100-0070

>  <rmsd_to_ref>  (70) 
3.6224489795978587

>  <pose_kind>  (70) 
conformer

$$$$
6tgu.A
     RDKit          3D

 32 34  0  0  0  0  0  0  0  0999 V2000
    1.4680   18.3248   36.7302 C   0  0  0  0  0  0  0  0  0  0  0  0
    2.5232   18.0126   37.7949 C   0  0  0  0  0  0  0  0  0  0  0  0
    3.6522   18.8176   37.9292 C   0  0  0  0  0  0  0  0  0  0  0  0
    4.5374   18.6809   39.0035 C   0  0  0  0  0  0  0  0  0  0  0  0
    4.4063   17.6030   39.8911 C   0  0  0  0  0  0  0  0  0  0  0  0
    5.0750   16.8613   42.2290 C   0  0  0  0  0  0  0  0  0  0  0  0
    4.0578   15.5464   43.7821 C   0  0  0  0  0  0  0  0  0  0  0  0
    3.0496   14.6039   44.2684 C   0  0  0  0  0  0  0  0  0  0  0  0
    2.9753   14.2249   45.6163 C   0  0  0  0  0  0  0  0  0  0  0  0
    1.9873   13.3532   46.0636 C   0  0  0  0  0  0  0  0  0  0  0  0
    1.0462   12.8974   45.1597 C   0  0  0  0  0  0  0  0  0  0  0  0
    1.0791   13.2513   43.8193 C   0  0  0  0  0  0  0  0  0  0  0  0
    2.0821   14.1155   43.3889 C   0  0  0  0  0  0  0  0  0  0  0  0
    5.0149   16.1211   44.5760 C   0  0  0  0  0  0  0  0  0  0  0  0
    3.2697   16.7899   39.7766 C   0  0  0  0  0  0  0  0  0  0  0  0
    2.3624   17.0039   38.7373 C   0  0  0  0  0  0  0  0  0  0  0  0
    5.2620   17.4850   41.0291 N   0  0  0  0  0  0  0  0  0  0  0  0
    4.0059   16.0192   42.4495 N   0  0  0  0  0  0  0  0  0  0  0  0
    1.5956   19.4232   36.1134 O   0  0  0  0  0  0  0  0  0  0  0  0
    0.5244   17.5128   36.6119 O   0  0  0  0  0  0  0  0  0  0  0  0
    1.2006   16.2702   38.6958 O   0  0  0  0  0  0  0  0  0  0  0  0
    5.9000   17.3168   43.7073 S   0  0  0  0  0  0  0  0  0  0  0  0
   -0.2141   11.8439   45.7104 Cl  0  0  0  0  0  0  0  0  0  0  0  0
    3.8537   19.5845   37.1668 H   0  0  0  0  0  0  0  0  0  0  0  0
    5.3381   19.4203   39.1525 H   0  0  0  0  0  0  0  0  0  0  0  0
    3.7098   14.6232   46.3317 H   0  0  0  0  0  0  0  0  0  0  0  0
    1.9559   13.0331   47.1155 H   0  0  0  0  0  0  0  0  0  0  0  0
    0.3316   12.8592   43.1139 H   0  0  0  0  0  0  0  0  0  0  0  0
    2.1128   14.4202   42.3324 H   0  0  0  0  0  0  0  0  0  0  0  0
    5.1943   15.8546   45.6280 H   0  0  0  0  0  0  0  0  0  0  0  0
    3.0932   15.9845   40.5046 H   0  0  0  0  0  0  0  0  0  0  0  0
    6.1755   17.9497   40.9269 H   0  0  0  0  0  0  0  0  0  0  0  0
  1  2  1  0
  1 19  1  0
  1 20  2  0
  2  3  1  0
  2 16  2  0
  3  4  2  0
  4  5  1  0
  5 15  2  0
  5 17  1  0
  6 17  1  0
  6 18  2  0
  6 22  1  0
  7  8  1  0
  7 14  2  0
  7 18  1  0
  8  9  1  0
  8 13  2  0
  9 10  2  0
 10 11  1  0
 11 12  2  0
 11 23  1  0
 12 13  1  0
 14 22  1  0
 15 16  1  0
 16 21  1  0
  3 24  1  0
  4 25  1  0
  9 26  1  0
 10 27  1  0
 12 28  1  0
 13 29  1  0
 14 30  1  0
 15 31  1  0
 17 32  1  0
M  CHG  2  19  -1  21  -1
M  END
>  <mol_id>  (71) 
2026-08-24-6tgu-s0-n100-0071

>  <rmsd_to_ref>  (71) 
3.6683673469427935

>  <pose_kind>  (71) 
rigid

$$$$
6tgu.A
     RDKit          3D

 32 34  0  0  0  0  0  0  0  0999 V2000
    3.8247   18.5780   35.0408 C   0  0  0  0  0  0  0  0  0  0  0  0
    4.2400   18.1587   36.3741 C   0  0  0  0  0  0  0  0  0  0  0  0
    4.9535   19.0187   37.1461 C   0  0  0  0  0  0  0  0  0  0  0  0
    5.3310   18.6610   38.4150 C   0  0  0  0  0  0  0  0  0  0  0  0
    4.9627   17.4073   38.8698 C   0  0  0  0  0  0  0  0  0  0  0  0
    4.2665   16.9903   41.1453 C   0  0  0  0  0  0  0  0  0  0  0  0
    2.5212   16.7742   42.5513 C   0  0  0  0  0  0  0  0  0  0  0  0
    1.7259   15.8575   43.4037 C   0  0  0  0  0  0  0  0  0  0  0  0
    2.0058   14.5178   43.5186 C   0  0  0  0  0  0  0  0  0  0  0  0
    1.2443   13.6973   44.3253 C   0  0  0  0  0  0  0  0  0  0  0  0
    0.1757   14.1884   45.0439 C   0  0  0  0  0  0  0  0  0  0  0  0
   -0.1273   15.5504   44.9388 C   0  0  0  0  0  0  0  0  0  0  0  0
    0.6519   16.3449   44.1271 C   0  0  0  0  0  0  0  0  0  0  0  0
    2.2327   18.0991   42.4738 C   0  0  0  0  0  0  0  0  0  0  0  0
    4.2421   16.5039   38.1232 C   0  0  0  0  0  0  0  0  0  0  0  0
    3.8756   16.8929   36.8496 C   0  0  0  0  0  0  0  0  0  0  0  0
    5.3763   17.1287   40.2336 N   0  0  0  0  0  0  0  0  0  0  0  0
    3.5599   16.4008   41.8268 N   0  0  0  0  0  0  0  0  0  0  0  0
    3.0795   17.8041   34.1729 O   0  0  0  0  0  0  0  0  0  0  0  0
    4.1556   19.7323   34.6176 O   0  0  0  0  0  0  0  0  0  0  0  0
    3.1477   16.0498   36.0152 O   0  0  0  0  0  0  0  0  0  0  0  0
    3.5109   18.7575   41.3311 S   0  0  0  0  0  0  0  0  0  0  0  0
   -0.8256   13.1906   46.0817 Cl  0  0  0  0  0  0  0  0  0  0  0  0
    5.2518   20.0113   36.7936 H   0  0  0  0  0  0  0  0  0  0  0  0
    5.9019   19.3425   39.0468 H   0  0  0  0  0  0  0  0  0  0  0  0
    2.8580   14.1052   42.9556 H   0  0  0  0  0  0  0  0  0  0  0  0
    1.5006   12.6430   44.4029 H   0  0  0  0  0  0  0  0  0  0  0  0
   -0.9501   15.9927   45.4786 H   0  0  0  0  0  0  0  0  0  0  0  0
    0.4107   17.3758   44.0513 H   0  0  0  0  0  0  0  0  0  0  0  0
    1.4529   18.7449   42.9308 H   0  0  0  0  0  0  0  0  0  0  0  0
    3.9737   15.5366   38.5197 H   0  0  0  0  0  0  0  0  0  0  0  0
    6.3610   17.0382   40.5019 H   0  0  0  0  0  0  0  0  0  0  0  0
  1  2  1  0
  1 19  1  0
  1 20  2  0
  2  3  1  0
  2 16  2  0
  3  4  2  0
  4  5  1  0
  5 15  2  0
  5 17  1  0
  6 17  1  0
  6 18  2  0
  6 22  1  0
  7  8  1  0
  7 14  2  0
  7 18  1  0
  8  9  1  0
  8 13  2  0
  9 10  2  0
 10 11  1  0
 11 12  2  0
 11 23  1  0
 12 13  1  0
 14 22  1  0
 15 16  1  0
 16 21  1  0
  3 24  1  0
  4 25  1  0
  9 26  1  0
 10 27  1  0
 12 28  1  0
 13 29  1  0
 14 30  1  0
 15 31  1  0
 17 32  1  0
M  CHG  2  19  -1  21  -1
M  END
>  <mol_id>  (72) 
2026-08-24-6tgu-s0-n100-0072

>  <rmsd_to_ref>  (72) 
3.714285714288164

>  <pose_kind>  (72) 
conformer

$$$$
6tgu.A
     RDKit          3D

 32 34  0  0  0  0  0  0  0  0999 V2000
   -0.2421   21.6710   39.8826 C   0  0  0  0  0  0  0  0  0  0  0  0
    0.4748   20.8034   40.9209 C   0  0  0  0  0  0  0  0  0  0  0  0
    0.1881   20.9413   42.2771 C   0  0  0  0  0  0  0  0  0  0  0  0
    0.6764   20.0451   43.2336 C   0  0  0  0  0  0  0  0  0  0  0  0
    1.6207   19.0737   42.8710 C   0  0  0  0  0  0  0  0  0  0  0  0
    2.5890   16.8556   43.6491 C   0  0  0  0  0  0  0  0  0  0  0  0
    3.4034   15.0490   42.5316 C   0  0  0  0  0  0  0  0  0  0  0  0
    3.8700   14.3160   41.3543 C   0  0  0  0  0  0  0  0  0  0  0  0
    4.2003   12.9544   41.4091 C   0  0  0  0  0  0  0  0  0  0  0  0
    4.6098   12.2684   40.2700 C   0  0  0  0  0  0  0  0  0  0  0  0
    4.6441   12.9447   39.0650 C   0  0  0  0  0  0  0  0  0  0  0  0
    4.3204   14.2894   38.9645 C   0  0  0  0  0  0  0  0  0  0  0  0
    3.9240   14.9611   40.1177 C   0  0  0  0  0  0  0  0  0  0  0  0
    3.2654   14.4920   43.7754 C   0  0  0  0  0  0  0  0  0  0  0  0
    1.9120   18.9144   41.5087 C   0  0  0  0  0  0  0  0  0  0  0  0
    1.3443   19.7777   40.5697 C   0  0  0  0  0  0  0  0  0  0  0  0
    2.0806   18.1108   43.8210 N   0  0  0  0  0  0  0  0  0  0  0  0
    2.9369   16.3787   42.4032 N   0  0  0  0  0  0  0  0  0  0  0  0
   -1.2041   22.3779   40.3044 O   0  0  0  0  0  0  0  0  0  0  0  0
    0.1252   21.5516   38.6932 O   0  0  0  0  0  0  0  0  0  0  0  0
    1.5534   19.5479   39.2306 O   0  0  0  0  0  0  0  0  0  0  0  0
    2.5139   15.5948   44.8649 S   0  0  0  0  0  0  0  0  0  0  0  0
    5.1127   12.0933   37.6308 Cl  0  0  0  0  0  0  0  0  0  0  0  0
   -0.4418   21.7810   42.6061 H   0  0  0  0  0  0  0  0  0  0  0  0
    0.3190   20.1023   44.2724 H   0  0  0  0  0  0  0  0  0  0  0  0
    4.1347   12.4199   42.3683 H   0  0  0  0  0  0  0  0  0  0  0  0
    4.9005   11.2091   40.3271 H   0  0  0  0  0  0  0  0  0  0  0  0
    4.3754   14.8121   37.9982 H   0  0  0  0  0  0  0  0  0  0  0  0
    3.6471   16.0237   40.0529 H   0  0  0  0  0  0  0  0  0  0  0  0
    3.5910   13.4760   44.0430 H   0  0  0  0  0  0  0  0  0  0  0  0
    2.5868   18.1103   41.1802 H   0  0  0  0  0  0  0  0  0  0  0  0
    2.0179   18.4156   44.8029 H   0  0  0  0  0  0  0  0  0  0  0  0
  1  2  1  0
  1 19  1  0
  1 20  2  0
  2  3  1  0
  2 16  2  0
  3  4  2  0
  4  5  1  0
  5 15  2  0
  5 17  1  0
  6 17  1  0
  6 18  2  0
  6 22  1  0
  7  8  1  0
  7 14  2  0
  7 18  1  0
  8  9  1  0
  8 13  2  0
  9 10  2  0
 10 11  1  0
 11 12  2  0
 11 23  1  0
 12 13  1  0
 14 22  1  0
 15 16  1  0
 16 21  1  0
  3 24  1  0
  4 25  1  0
  9 26  1  0
 10 27  1  0
 12 28  1  0
 13 29  1  0
 14 30  1  0
 15 31  1  0
 17 32  1  0
M  CHG  2  19  -1  21  -1
M  END
>  <mol_id>  (73) 
2026-08-24-6tgu-s0-n100-0073

>  <rmsd_to_ref>  (73) 
3.760204081641252

>  <pose_kind>  (73) 
rigid

$$$$
6tgu.A
     RDKit          3D

 32 34  0  0  0  0  0  0  0  0999 V2000
    0.3334   18.1254   36.1784 C   0  0  0  0  0  0  0  0  0  0  0  0
    0.3053   18.4723   37.5944 C   0  0  0  0  0  0  0  0  0  0  0  0
   -0.8904   18.5459   38.2342 C   0  0  0  0  0  0  0  0  0  0  0  0
   -0.9434   18.8407   39.5724 C   0  0  0  0  0  0  0  0  0  0  0  0
    0.2519   19.0582   40.2343 C   0  0  0  0  0  0  0  0  0  0  0  0
    0.6586   18.2970   42.4908 C   0  0  0  0  0  0  0  0  0  0  0  0
    1.5384   16.6753   43.7814 C   0  0  0  0  0  0  0  0  0  0  0  0
    2.6093   16.2987   44.7357 C   0  0  0  0  0  0  0  0  0  0  0  0
    3.5957   17.1698   45.1288 C   0  0  0  0  0  0  0  0  0  0  0  0
    4.5735   16.7829   46.0222 C   0  0  0  0  0  0  0  0  0  0  0  0
    4.5991   15.5109   46.5521 C   0  0  0  0  0  0  0  0  0  0  0  0
    3.6041   14.6076   46.1626 C   0  0  0  0  0  0  0  0  0  0  0  0
    2.6401   15.0230   45.2706 C   0  0  0  0  0  0  0  0  0  0  0  0
    0.5641   15.7980   43.4271 C   0  0  0  0  0  0  0  0  0  0  0  0
    1.4850   18.9954   39.6272 C   0  0  0  0  0  0  0  0  0  0  0  0
    1.5063   18.6956   38.2791 C   0  0  0  0  0  0  0  0  0  0  0  0
    0.1007   19.3306   41.6526 N   0  0  0  0  0  0  0  0  0  0  0  0
    1.4282   17.8656   43.2207 N   0  0  0  0  0  0  0  0  0  0  0  0
    1.4844   17.9981   35.4258 O   0  0  0  0  0  0  0  0  0  0  0  0
   -0.7625   17.9189   35.5641 O   0  0  0  0  0  0  0  0  0  0  0  0
    2.7032   18.6114   37.5740 O   0  0  0  0  0  0  0  0  0  0  0  0
   -0.4920   16.7616   42.2741 S   0  0  0  0  0  0  0  0  0  0  0  0
    5.8188   14.9667   47.6886 Cl  0  0  0  0  0  0  0  0  0  0  0  0
   -1.8412   18.3783   37.7181 H   0  0  0  0  0  0  0  0  0  0  0  0
   -1.8964   18.9006   40.0994 H   0  0  0  0  0  0  0  0  0  0  0  0
    3.5918   18.1928   44.7203 H   0  0  0  0  0  0  0  0  0  0  0  0
    5.3333   17.5015   46.3217 H   0  0  0  0  0  0  0  0  0  0  0  0
    3.5709   13.5992   46.5449 H   0  0  0  0  0  0  0  0  0  0  0  0
    1.8925   14.3285   44.9785 H   0  0  0  0  0  0  0  0  0  0  0  0
    0.3464   14.7414   43.6920 H   0  0  0  0  0  0  0  0  0  0  0  0
    2.3933   19.1694   40.1837 H   0  0  0  0  0  0  0  0  0  0  0  0
   -0.3546   20.1785   42.0042 H   0  0  0  0  0  0  0  0  0  0  0  0
  1  2  1  0
  1 19  1  0
  1 20  2  0
  2  3  1  0
  2 16  2  0
  3  4  2  0
  4  5  1  0
  5 15  2  0
  5 17  1  0
  6 17  1  0
  6 18  2  0
  6 22  1  0
  7  8  1  0
  7 14  2  0
  7 18  1  0
  8  9  1  0
  8 13  2  0
  9 10  2  0
 10 11  1  0
 11 12  2  0
 11 23  1  0
 12 13  1  0
 14 22  1  0
 15 16  1  0
 16 21  1  0
  3 24  1  0
  4 25  1  0
  9 26  1  0
 10 27  1  0
 12 28  1  0
 13 29  1  0
 14 30  1  0
 15 31  1  0
 17 32  1  0
M  CHG  2  19  -1  21  -1
M  END
>  <mol_id>  (74) 
2026-08-24-6tgu-s0-n100-0074

>  <rmsd_to_ref>  (74) 
3.8061224489876393

>  <pose_kind>  (74) 
conformer

$$$$
6tgu.A
     RDKit          3D

 32 34  0  0  0  0  0  0  0  0999 V2000
    4.6237   20.3004   41.8365 C   0  0  0  0  0  0  0  0  0  0  0  0
    3.6709   19.2935   42.4868 C   0  0  0  0  0  0  0  0  0  0  0  0
    3.0783   19.5728   43.7162 C   0  0  0  0  0  0  0  0  0  0  0  0
    2.0635   18.7716   44.2499 C   0  0  0  0  0  0  0  0  0  0  0  0
    1.7322   17.5542   43.6375 C   0  0  0  0  0  0  0  0  0  0  0  0
   -0.1405   15.8397   43.5081 C   0  0  0  0  0  0  0  0  0  0  0  0
   -0.8662   14.4678   41.8447 C   0  0  0  0  0  0  0  0  0  0  0  0
   -0.7889   13.8040   40.5429 C   0  0  0  0  0  0  0  0  0  0  0  0
   -1.8343   13.0101   40.0502 C   0  0  0  0  0  0  0  0  0  0  0  0
   -1.7540   12.4153   38.7949 C   0  0  0  0  0  0  0  0  0  0  0  0
   -0.6375   12.6570   38.0168 C   0  0  0  0  0  0  0  0  0  0  0  0
    0.4167   13.4401   38.4624 C   0  0  0  0  0  0  0  0  0  0  0  0
    0.3224   14.0172   39.7258 C   0  0  0  0  0  0  0  0  0  0  0  0
   -1.9354   14.3644   42.6947 C   0  0  0  0  0  0  0  0  0  0  0  0
    2.3113   17.2632   42.3941 C   0  0  0  0  0  0  0  0  0  0  0  0
    3.2647   18.1264   41.8510 C   0  0  0  0  0  0  0  0  0  0  0  0
    0.6557   16.7560   44.1328 N   0  0  0  0  0  0  0  0  0  0  0  0
    0.1412   15.3798   42.2393 N   0  0  0  0  0  0  0  0  0  0  0  0
    4.7031   21.4387   42.3851 O   0  0  0  0  0  0  0  0  0  0  0  0
    5.1827   19.9478   40.7749 O   0  0  0  0  0  0  0  0  0  0  0  0
    3.7478   17.8865   40.5865 O   0  0  0  0  0  0  0  0  0  0  0  0
   -1.7601   15.4282   44.0384 S   0  0  0  0  0  0  0  0  0  0  0  0
   -0.5416   11.9565   36.4351 Cl  0  0  0  0  0  0  0  0  0  0  0  0
    3.4190   20.4506   44.2850 H   0  0  0  0  0  0  0  0  0  0  0  0
    1.5242   19.0970   45.1517 H   0  0  0  0  0  0  0  0  0  0  0  0
   -2.7325   12.8549   40.6660 H   0  0  0  0  0  0  0  0  0  0  0  0
   -2.5628   11.7658   38.4291 H   0  0  0  0  0  0  0  0  0  0  0  0
    1.3047   13.6012   37.8336 H   0  0  0  0  0  0  0  0  0  0  0  0
    1.1420   14.6552   40.0882 H   0  0  0  0  0  0  0  0  0  0  0  0
   -2.7919   13.6917   42.5399 H   0  0  0  0  0  0  0  0  0  0  0  0
    2.0147   16.3560   41.8472 H   0  0  0  0  0  0  0  0  0  0  0  0
    0.4443   16.8957   45.1311 H   0  0  0  0  0  0  0  0  0  0  0  0
  1  2  1  0
  1 19  1  0
  1 20  2  0
  2  3  1  0
  2 16  2  0
  3  4  2  0
  4  5  1  0
  5 15  2  0
  5 17  1  0
  6 17  1  0
  6 18  2  0
  6 22  1  0
  7  8  1  0
  7 14  2  0
  7 18  1  0
  8  9  1  0
  8 13  2  0
  9 10  2  0
 10 11  1  0
 11 12  2  0
 11 23  1  0
 12 13  1  0
 14 22  1  0
 15 16  1  0
 16 21  1  0
  3 24  1  0
  4 25  1  0
  9 26  1  0
 10 27  1  0
 12 28  1  0
 13 29  1  0
 14 30  1  0
 15 31  1  0
 17 32  1  0
M  CHG  2  19  -1  21  -1
M  END
>  <mol_id>  (75) 
2026-08-24-6tgu-s0-n100-0075

>  <rmsd_to_ref>  (75) 
3.852040816335722

>  <pose_kind>  (75) 
rigid

$$$$
6tgu.A
     RDKit          3D

 32 34  0  0  0  0  0  0  0  0999 V2000
    6.1222   19.7734   40.3355 C   0  0  0  0  0  0  0  0  0  0  0  0
    4.9396   19.4758   41.1347 C   0  0  0  0  0  0  0  0  0  0  0  0
    4.1520   20.4984   41.5576 C   0  0  0  0  0  0  0  0  0  0  0  0
    3.0177   20.2443   42.2852 C   0  0  0  0  0  0  0  0  0  0  0  0
    2.7132   18.9247   42.5681 C   0  0  0  0  0  0  0  0  0  0  0  0
    0.4536   18.0696   42.5592 C   0  0  0  0  0  0  0  0  0  0  0  0
   -1.1317   17.0031   41.3681 C   0  0  0  0  0  0  0  0  0  0  0  0
   -1.9361   15.7676   41.2072 C   0  0  0  0  0  0  0  0  0  0  0  0
   -1.8048   14.6809   42.0368 C   0  0  0  0  0  0  0  0  0  0  0  0
   -2.5746   13.5500   41.8570 C   0  0  0  0  0  0  0  0  0  0  0  0
   -3.5015   13.4666   40.8404 C   0  0  0  0  0  0  0  0  0  0  0  0
   -3.6490   14.5624   39.9829 C   0  0  0  0  0  0  0  0  0  0  0  0
   -2.8679   15.6782   40.1882 C   0  0  0  0  0  0  0  0  0  0  0  0
   -1.2985   18.0698   40.5442 C   0  0  0  0  0  0  0  0  0  0  0  0
    3.4815   17.8582   42.1619 C   0  0  0  0  0  0  0  0  0  0  0  0
    4.6172   18.1455   41.4301 C   0  0  0  0  0  0  0  0  0  0  0  0
    1.4789   18.7500   43.3129 N   0  0  0  0  0  0  0  0  0  0  0  0
   -0.2213   17.1793   42.3079 N   0  0  0  0  0  0  0  0  0  0  0  0
    6.9860   18.8216   39.8302 O   0  0  0  0  0  0  0  0  0  0  0  0
    6.4059   20.9852   40.0669 O   0  0  0  0  0  0  0  0  0  0  0  0
    5.4611   17.1366   40.9755 O   0  0  0  0  0  0  0  0  0  0  0  0
   -0.1033   19.3078   41.1863 S   0  0  0  0  0  0  0  0  0  0  0  0
   -4.5036   12.0539   40.5658 Cl  0  0  0  0  0  0  0  0  0  0  0  0
    4.3867   21.5455   41.3410 H   0  0  0  0  0  0  0  0  0  0  0  0
    2.3747   21.0555   42.6290 H   0  0  0  0  0  0  0  0  0  0  0  0
   -1.0725   14.7279   42.8583 H   0  0  0  0  0  0  0  0  0  0  0  0
   -2.4538   12.7117   42.5395 H   0  0  0  0  0  0  0  0  0  0  0  0
   -4.3592   14.5567   39.1707 H   0  0  0  0  0  0  0  0  0  0  0  0
   -2.9848   16.5021   39.5293 H   0  0  0  0  0  0  0  0  0  0  0  0
   -1.9528   18.2717   39.6695 H   0  0  0  0  0  0  0  0  0  0  0  0
    3.2040   16.8433   42.4029 H   0  0  0  0  0  0  0  0  0  0  0  0
    1.3672   19.0788   44.2769 H   0  0  0  0  0  0  0  0  0  0  0  0
  1  2  1  0
  1 19  1  0
  1 20  2  0
  2  3  1  0
  2 16  2  0
  3  4  2  0
  4  5  1  0
  5 15  2  0
  5 17  1  0
  6 17  1  0
  6 18  2  0
  6 22  1  0
  7  8  1  0
  7 14  2  0
  7 18  1  0
  8  9  1  0
  8 13  2  0
  9 10  2  0
 10 11  1  0
 11 12  2  0
 11 23  1  0
 12 13  1  0
 14 22  1  0
 15 16  1  0
 16 21  1  0
  3 24  1  0
  4 25  1  0
  9 26  1  0
 10 27  1  0
 12 28  1  0
 13 29  1  0
 14 30  1  0
 15 31  1  0
 17 32  1  0
M  CHG  2  19  -1  21  -1
M  END
>  <mol_id>  (76) 
2026-08-24-6tgu-s0-n100-0076

>  <rmsd_to_ref>  (76) 
3.8979591836810243

>  <pose_kind>  (76) 
conformer

$$$$
6tgu.A
     RDKit          3D

 32 34  0  0  0  0  0  0  0  0999 V2000
    5.3412   19.9235   41.2945 C   0  0  0  0  0  0  0  0  0  0  0  0
    3.8631   19.5445   41.1665 C   0  0  0  0  0  0  0  0  0  0  0  0
    2.8762   20.5274   41.1917 C   0  0  0  0  0  0  0  0  0  0  0  0
    1.5400   20.2451   40.8896 C   0  0  0  0  0  0  0  0  0  0  0  0
    1.1216   18.9171   40.7213 C   0  0  0  0  0  0  0  0  0  0  0  0
   -0.7549   17.5391   39.6999 C   0  0  0  0  0  0  0  0  0  0  0  0
   -0.8132   15.4718   38.7520 C   0  0  0  0  0  0  0  0  0  0  0  0
   -0.2752   14.1575   38.3995 C   0  0  0  0  0  0  0  0  0  0  0  0
   -0.9730   13.2663   37.5719 C   0  0  0  0  0  0  0  0  0  0  0  0
   -0.4280   12.0349   37.2218 C   0  0  0  0  0  0  0  0  0  0  0  0
    0.8408   11.7196   37.6704 C   0  0  0  0  0  0  0  0  0  0  0  0
    1.5682   12.5735   38.4858 C   0  0  0  0  0  0  0  0  0  0  0  0
    1.0009   13.7962   38.8343 C   0  0  0  0  0  0  0  0  0  0  0  0
   -2.0303   15.9390   38.3314 C   0  0  0  0  0  0  0  0  0  0  0  0
    2.1036   17.9170   40.6822 C   0  0  0  0  0  0  0  0  0  0  0  0
    3.4413   18.2455   40.9097 C   0  0  0  0  0  0  0  0  0  0  0  0
   -0.2248   18.6165   40.3495 N   0  0  0  0  0  0  0  0  0  0  0  0
   -0.0157   16.3999   39.4626 N   0  0  0  0  0  0  0  0  0  0  0  0
    5.6131   21.1595   41.2535 O   0  0  0  0  0  0  0  0  0  0  0  0
    6.1647   18.9841   41.3476 O   0  0  0  0  0  0  0  0  0  0  0  0
    4.4064   17.2771   40.7659 O   0  0  0  0  0  0  0  0  0  0  0  0
   -2.2455   17.5887   38.7785 S   0  0  0  0  0  0  0  0  0  0  0  0
    1.5490   10.2073   37.2091 Cl  0  0  0  0  0  0  0  0  0  0  0  0
    3.1564   21.5574   41.4573 H   0  0  0  0  0  0  0  0  0  0  0  0
    0.8158   21.0663   40.7838 H   0  0  0  0  0  0  0  0  0  0  0  0
   -1.9674   13.5453   37.1932 H   0  0  0  0  0  0  0  0  0  0  0  0
   -0.9955   11.3265   36.6005 H   0  0  0  0  0  0  0  0  0  0  0  0
    2.5679   12.2920   38.8480 H   0  0  0  0  0  0  0  0  0  0  0  0
    1.5711   14.4929   39.4664 H   0  0  0  0  0  0  0  0  0  0  0  0
   -2.7714   15.3405   37.7815 H   0  0  0  0  0  0  0  0  0  0  0  0
    1.8204   16.8750   40.4725 H   0  0  0  0  0  0  0  0  0  0  0  0
   -0.9125   19.3350   40.6172 H   0  0  0  0  0  0  0  0  0  0  0  0
  1  2  1  0
  1 19  1  0
  1 20  2  0
  2  3  1  0
  2 16  2  0
  3  4  2  0
  4  5  1  0
  5 15  2  0
  5 17  1  0
  6 17  1  0
  6 18  2  0
  6 22  1  0
  7  8  1  0
  7 14  2  0
  7 18  1  0
  8  9  1  0
  8 13  2  0
  9 10  2  0
 10 11  1  0
 11 12  2  0
 11 23  1  0
 12 13  1  0
 14 22  1  0
 15 16  1  0
 16 21  1  0
  3 24  1  0
  4 25  1  0
  9 26  1  0
 10 27  1  0
 12 28  1  0
 13 29  1  0
 14 30  1  0
 15 31  1  0
 17 32  1  0
M  CHG  2  19  -1  21  -1
M  END
>  <mol_id>  (77) 
2026-08-24-6tgu-s0-n100-0077

>  <rmsd_to_ref>  (77) 
3.9438775510248183

>  <pose_kind>  (77) 
rigid

$$$$
6tgu.A
     RDKit          3D

 32 34  0  0  0  0  0  0  0  0999 V2000
    0.6075   19.1644   35.1703 C   0  0  0  0  0  0  0  0  0  0  0  0
    0.3854   19.2170   36.6104 C   0  0  0  0  0  0  0  0  0  0  0  0
   -0.7937   18.7700   37.1149 C   0  0  0  0  0  0  0  0  0  0  0  0
   -1.0169   18.7803   38.4680 C   0  0  0  0  0  0  0  0  0  0  0  0
   -0.0087   19.2584   39.2859 C   0  0  0  0  0  0  0  0  0  0  0  0
    0.5165   18.2770   41.4301 C   0  0  0  0  0  0  0  0  0  0  0  0
    1.8349   16.8338   42.5475 C   0  0  0  0  0  0  0  0  0  0  0  0
    2.9176   16.6675   43.5472 C   0  0  0  0  0  0  0  0  0  0  0  0
    3.5174   17.7298   44.1781 C   0  0  0  0  0  0  0  0  0  0  0  0
    4.5197   17.5341   45.1060 C   0  0  0  0  0  0  0  0  0  0  0  0
    4.9575   16.2691   45.4339 C   0  0  0  0  0  0  0  0  0  0  0  0
    4.3606   15.1734   44.8006 C   0  0  0  0  0  0  0  0  0  0  0  0
    3.3613   15.3998   43.8800 C   0  0  0  0  0  0  0  0  0  0  0  0
    1.2466   15.7626   41.9551 C   0  0  0  0  0  0  0  0  0  0  0  0
    1.1997   19.7219   38.8194 C   0  0  0  0  0  0  0  0  0  0  0  0
    1.3956   19.6982   37.4523 C   0  0  0  0  0  0  0  0  0  0  0  0
   -0.3204   19.2007   40.7030 N   0  0  0  0  0  0  0  0  0  0  0  0
    1.3481   18.0007   42.1673 N   0  0  0  0  0  0  0  0  0  0  0  0
    1.7693   19.5676   34.5417 O   0  0  0  0  0  0  0  0  0  0  0  0
   -0.3139   18.7208   34.4119 O   0  0  0  0  0  0  0  0  0  0  0  0
    2.5829   20.1478   36.8822 O   0  0  0  0  0  0  0  0  0  0  0  0
   -0.0156   16.5132   40.8520 S   0  0  0  0  0  0  0  0  0  0  0  0
    6.2280   15.9639   46.6035 Cl  0  0  0  0  0  0  0  0  0  0  0  0
   -1.5981   18.3927   36.4753 H   0  0  0  0  0  0  0  0  0  0  0  0
   -1.9580   18.4220   38.8871 H   0  0  0  0  0  0  0  0  0  0  0  0
    3.1800   18.7495   43.9336 H   0  0  0  0  0  0  0  0  0  0  0  0
    4.9653   18.3970   45.5960 H   0  0  0  0  0  0  0  0  0  0  0  0
    4.6596   14.1597   45.0173 H   0  0  0  0  0  0  0  0  0  0  0  0
    2.9183   14.5618   43.4023 H   0  0  0  0  0  0  0  0  0  0  0  0
    1.3959   14.6644   42.0283 H   0  0  0  0  0  0  0  0  0  0  0  0
    1.9600   20.0836   39.4948 H   0  0  0  0  0  0  0  0  0  0  0  0
   -1.0600   19.7690   41.1269 H   0  0  0  0  0  0  0  0  0  0  0  0
  1  2  1  0
  1 19  1  0
  1 20  2  0
  2  3  1  0
  2 16  2  0
  3  4  2  0
  4  5  1  0
  5 15  2  0
  5 17  1  0
  6 17  1  0
  6 18  2  0
  6 22  1  0
  7  8  1  0
  7 14  2  0
  7 18  1  0
  8  9  1  0
  8 13  2  0
  9 10  2  0
 10 11  1  0
 11 12  2  0
 11 23  1  0
 12 13  1  0
 14 22  1  0
 15 16  1  0
 16 21  1  0
  3 24  1  0
  4 25  1  0
  9 26  1  0
 10 27  1  0
 12 28  1  0
 13 29  1  0
 14 30  1  0
 15 31  1  0
 17 32  1  0
M  CHG  2  19  -1  21  -1
M  END
>  <mol_id>  (78) 
2026-08-24-6tgu-s0-n100-0078

>  <rmsd_to_ref>  (78) 
3.989795918369189

>  <pose_kind>  (78) 
conformer

$$$$
6tgu.A
     RDKit          3D

 32 34  0  0  0  0  0  0  0  0999 V2000
    5.4679   22.1794   41.9876 C   0  0  0  0  0  0  0  0  0  0  0  0
    4.1955   21.7290   41.2646 C   0  0  0  0  0  0  0  0  0  0  0  0
    3.6601   22.4951   40.2317 C   0  0  0  0  0  0  0  0  0  0  0  0
    2.6169   22.0281   39.4253 C   0  0  0  0  0  0  0  0  0  0  0  0
    1.9573   20.8336   39.7491 C   0  0  0  0  0  0  0  0  0  0  0  0
    0.4867   19.0335   38.7194 C   0  0  0  0  0  0  0  0  0  0  0  0
    0.2783   16.8013   39.1062 C   0  0  0  0  0  0  0  0  0  0  0  0
    0.5011   15.5546   39.8392 C   0  0  0  0  0  0  0  0  0  0  0  0
    0.0561   14.3170   39.3533 C   0  0  0  0  0  0  0  0  0  0  0  0
    0.3082   13.1393   40.0501 C   0  0  0  0  0  0  0  0  0  0  0  0
    1.0479   13.2039   41.2159 C   0  0  0  0  0  0  0  0  0  0  0  0
    1.5121   14.4056   41.7292 C   0  0  0  0  0  0  0  0  0  0  0  0
    1.2398   15.5742   41.0233 C   0  0  0  0  0  0  0  0  0  0  0  0
   -0.3870   16.8786   37.9113 C   0  0  0  0  0  0  0  0  0  0  0  0
    2.4903   20.0451   40.7788 C   0  0  0  0  0  0  0  0  0  0  0  0
    3.5840   20.5061   41.5138 C   0  0  0  0  0  0  0  0  0  0  0  0
    0.9338   20.3106   38.9005 N   0  0  0  0  0  0  0  0  0  0  0  0
    0.8727   18.0053   39.5528 N   0  0  0  0  0  0  0  0  0  0  0  0
    6.0793   23.1705   41.4906 O   0  0  0  0  0  0  0  0  0  0  0  0
    5.8437   21.4865   42.9584 O   0  0  0  0  0  0  0  0  0  0  0  0
    4.1625   19.6815   42.4494 O   0  0  0  0  0  0  0  0  0  0  0  0
   -0.2888   18.4674   37.2526 S   0  0  0  0  0  0  0  0  0  0  0  0
    1.4046   11.7411   42.0729 Cl  0  0  0  0  0  0  0  0  0  0  0  0
    4.0704   23.4984   40.0444 H   0  0  0  0  0  0  0  0  0  0  0  0
    2.3133   22.5990   38.5354 H   0  0  0  0  0  0  0  0  0  0  0  0
   -0.5012   14.2763   38.4058 H   0  0  0  0  0  0  0  0  0  0  0  0
   -0.0737   12.1761   39.6806 H   0  0  0  0  0  0  0  0  0  0  0  0
    2.0809   14.4347   42.6702 H   0  0  0  0  0  0  0  0  0  0  0  0
    1.6152   16.5343   41.4072 H   0  0  0  0  0  0  0  0  0  0  0  0
   -0.9139   16.0382   37.4358 H   0  0  0  0  0  0  0  0  0  0  0  0
    2.0471   19.0646   41.0072 H   0  0  0  0  0  0  0  0  0  0  0  0
    0.4508   21.0176   38.3279 H   0  0  0  0  0  0  0  0  0  0  0  0
  1  2  1  0
  1 19  1  0
  1 20  2  0
  2  3  1  0
  2 16  2  0
  3  4  2  0
  4  5  1  0
  5 15  2  0
  5 17  1  0
  6 17  1  0
  6 18  2  0
  6 22  1  0
  7  8  1  0
  7 14  2  0
  7 18  1  0
  8  9  1  0
  8 13  2  0
  9 10  2  0
 10 11  1  0
 11 12  2  0
 11 23  1  0
 12 13  1  0
 14 22  1  0
 15 16  1  0
 16 21  1  0
  3 24  1  0
  4 25  1  0
  9 26  1  0
 10 27  1  0
 12 28  1  0
 13 29  1  0
 14 30  1  0
 15 31  1  0
 17 32  1  0
M  CHG  2  19  -1  21  -1
M  END
>  <mol_id>  (79) 
2026-08-24-6tgu-s0-n100-0079

>  <rmsd_to_ref>  (79) 
4.035714285718791

>  <pose_kind>  (79) 
rigid

$$$$
6tgu.A
     RDKit          3D

 32 34  0  0  0  0  0  0  0  0999 V2000
    6.5045   18.6821   38.7069 C   0  0  0  0  0  0  0  0  0  0  0  0
    5.2783   19.0805   39.3878 C   0  0  0  0  0  0  0  0  0  0  0  0
    4.5240   20.0800   38.8619 C   0  0  0  0  0  0  0  0  0  0  0  0
    3.3509   20.4541   39.4657 C   0  0  0  0  0  0  0  0  0  0  0  0
    2.9731   19.7836   40.6154 C   0  0  0  0  0  0  0  0  0  0  0  0
    0.6777   19.2105   41.1047 C   0  0  0  0  0  0  0  0  0  0  0  0
   -0.9079   17.6151   41.0042 C   0  0  0  0  0  0  0  0  0  0  0  0
   -1.7630   16.6717   41.7645 C   0  0  0  0  0  0  0  0  0  0  0  0
   -1.7165   16.5626   43.1328 C   0  0  0  0  0  0  0  0  0  0  0  0
   -2.5313   15.6749   43.8051 C   0  0  0  0  0  0  0  0  0  0  0  0
   -3.4200   14.8648   43.1317 C   0  0  0  0  0  0  0  0  0  0  0  0
   -3.4811   14.9592   41.7370 C   0  0  0  0  0  0  0  0  0  0  0  0
   -2.6567   15.8558   41.0937 C   0  0  0  0  0  0  0  0  0  0  0  0
   -0.9911   17.7151   39.6523 C   0  0  0  0  0  0  0  0  0  0  0  0
    3.7055   18.7671   41.1839 C   0  0  0  0  0  0  0  0  0  0  0  0
    4.8817   18.4121   40.5527 C   0  0  0  0  0  0  0  0  0  0  0  0
    1.7034   20.2237   41.1656 N   0  0  0  0  0  0  0  0  0  0  0  0
   -0.0282   18.4302   41.5564 N   0  0  0  0  0  0  0  0  0  0  0  0
    7.3416   17.6684   39.1301 O   0  0  0  0  0  0  0  0  0  0  0  0
    6.8558   19.2913   37.6455 O   0  0  0  0  0  0  0  0  0  0  0  0
    5.6942   17.3980   41.0509 O   0  0  0  0  0  0  0  0  0  0  0  0
    0.2350   19.0174   39.2352 S   0  0  0  0  0  0  0  0  0  0  0  0
   -4.4763   13.7188   43.9356 Cl  0  0  0  0  0  0  0  0  0  0  0  0
    4.8165   20.6180   37.9544 H   0  0  0  0  0  0  0  0  0  0  0  0
    2.7340   21.2532   39.0529 H   0  0  0  0  0  0  0  0  0  0  0  0
   -1.0159   17.2037   43.6911 H   0  0  0  0  0  0  0  0  0  0  0  0
   -2.4776   15.6223   44.8902 H   0  0  0  0  0  0  0  0  0  0  0  0
   -4.1580   14.3526   41.1556 H   0  0  0  0  0  0  0  0  0  0  0  0
   -2.7082   15.9162   40.0352 H   0  0  0  0  0  0  0  0  0  0  0  0
   -1.5998   17.2006   38.8786 H   0  0  0  0  0  0  0  0  0  0  0  0
    3.3709   18.2690   42.0811 H   0  0  0  0  0  0  0  0  0  0  0  0
    1.5691   21.1609   41.5574 H   0  0  0  0  0  0  0  0  0  0  0  0
  1  2  1  0
  1 19  1  0
  1 20  2  0
  2  3  1  0
  2 16  2  0
  3  4  2  0
  4  5  1  0
  5 15  2  0
  5 17  1  0
  6 17  1  0
  6 18  2  0
  6 22  1  0
  7  8  1  0
  7 14  2  0
  7 18  1  0
  8  9  1  0
  8 13  2  0
  9 10  2  0
 10 11  1  0
 11 12  2  0
 11 23  1  0
 12 13  1  0
 14 22  1  0
 15 16  1  0
 16 21  1  0
  3 24  1  0
  4 25  1  0
  9 26  1  0
 10 27  1  0
 12 28  1  0
 13 29  1  0
 14 30  1  0
 15 31  1  0
 17 32  1  0
M  CHG  2  19  -1  21  -1
M  END
>  <mol_id>  (80) 
2026-08-24-6tgu-s0-n100-0080

>  <rmsd_to_ref>  (80) 
4.081632653065683

>  <pose_kind>  (80) 
conformer

$$$$
6tgu.A
     RDKit          3D

 32 34  0  0  0  0  0  0  0  0999 V2000
    1.7500   15.7103   34.8324 C   0  0  0  0  0  0  0  0  0  0  0  0
    1.3342   16.7418   35.8849 C   0  0  0  0  0  0  0  0  0  0  0  0
    0.3210   17.6590   35.6147 C   0  0  0  0  0  0  0  0  0  0  0  0
   -0.2150   18.4862   36.6070 C   0  0  0  0  0  0  0  0  0  0  0  0
    0.3790   18.5389   37.8764 C   0  0  0  0  0  0  0  0  0  0  0  0
   -0.1193   19.2101   40.2773 C   0  0  0  0  0  0  0  0  0  0  0  0
    0.5941   18.4107   42.2842 C   0  0  0  0  0  0  0  0  0  0  0  0
    1.4355   17.6036   43.1684 C   0  0  0  0  0  0  0  0  0  0  0  0
    1.2076   17.5320   44.5500 C   0  0  0  0  0  0  0  0  0  0  0  0
    1.9992   16.7317   45.3678 C   0  0  0  0  0  0  0  0  0  0  0  0
    2.9939   15.9683   44.7862 C   0  0  0  0  0  0  0  0  0  0  0  0
    3.2498   16.0044   43.4237 C   0  0  0  0  0  0  0  0  0  0  0  0
    2.4542   16.8201   42.6239 C   0  0  0  0  0  0  0  0  0  0  0  0
   -0.4613   19.1705   42.7148 C   0  0  0  0  0  0  0  0  0  0  0  0
    1.3925   17.6149   38.1682 C   0  0  0  0  0  0  0  0  0  0  0  0
    1.8506   16.7472   37.1751 C   0  0  0  0  0  0  0  0  0  0  0  0
   -0.1941   19.3294   38.9194 N   0  0  0  0  0  0  0  0  0  0  0  0
    0.7613   18.3379   40.8810 N   0  0  0  0  0  0  0  0  0  0  0  0
    1.0230   15.6334   33.7986 O   0  0  0  0  0  0  0  0  0  0  0  0
    2.7213   14.9744   35.1127 O   0  0  0  0  0  0  0  0  0  0  0  0
    2.7689   15.7770   37.4996 O   0  0  0  0  0  0  0  0  0  0  0  0
   -1.3337   19.8258   41.3816 S   0  0  0  0  0  0  0  0  0  0  0  0
    3.9610   14.9358   45.7863 Cl  0  0  0  0  0  0  0  0  0  0  0  0
   -0.0697   17.7349   34.5892 H   0  0  0  0  0  0  0  0  0  0  0  0
   -1.1042   19.0968   36.3914 H   0  0  0  0  0  0  0  0  0  0  0  0
    0.3897   18.1180   44.9946 H   0  0  0  0  0  0  0  0  0  0  0  0
    1.8367   16.7070   46.4554 H   0  0  0  0  0  0  0  0  0  0  0  0
    4.0609   15.4038   42.9861 H   0  0  0  0  0  0  0  0  0  0  0  0
    2.6323   16.8477   41.5387 H   0  0  0  0  0  0  0  0  0  0  0  0
   -0.7175   19.3396   43.7710 H   0  0  0  0  0  0  0  0  0  0  0  0
    1.8260   17.5737   39.1783 H   0  0  0  0  0  0  0  0  0  0  0  0
   -0.7602   20.1247   38.5908 H   0  0  0  0  0  0  0  0  0  0  0  0
  1  2  1  0
  1 19  1  0
  1 20  2  0
  2  3  1  0
  2 16  2  0
  3  4  2  0
  4  5  1  0
  5 15  2  0
  5 17  1  0
  6 17  1  0
  6 18  2  0
  6 22  1  0
  7  8  1  0
  7 14  2  0
  7 18  1  0
  8  9  1  0
  8 13  2  0
  9 10  2  0
 10 11  1  0
 11 12  2  0
 11 23  1  0
 12 13  1  0
 14 22  1  0
 15 16  1  0
 16 21  1  0
  3 24  1  0
  4 25  1  0
  9 26  1  0
 10 27  1  0
 12 28  1  0
 13 29  1  0
 14 30  1  0
 15 31  1  0
 17 32  1  0
M  CHG  2  19  -1  21  -1
M  END
>  <mol_id>  (81) 
2026-08-24-6tgu-s0-n100-0081

>  <rmsd_to_ref>  (81) 
4.1275510204171075

>  <pose_kind>  (81) 
rigid

$$$$
6tgu.A
     RDKit          3D

 32 34  0  0  0  0  0  0  0  0999 V2000
    3.5331   18.8620   35.9264 C   0  0  0  0  0  0  0  0  0  0  0  0
    3.7683   18.7209   37.3584 C   0  0  0  0  0  0  0  0  0  0  0  0
    4.3787   19.7303   38.0315 C   0  0  0  0  0  0  0  0  0  0  0  0
    4.5850   19.6362   39.3840 C   0  0  0  0  0  0  0  0  0  0  0  0
    4.1542   18.4885   40.0253 C   0  0  0  0  0  0  0  0  0  0  0  0
    3.1639   18.5109   42.2288 C   0  0  0  0  0  0  0  0  0  0  0  0
    1.2485   18.5377   43.4121 C   0  0  0  0  0  0  0  0  0  0  0  0
    0.3440   17.7892   44.3182 C   0  0  0  0  0  0  0  0  0  0  0  0
    0.5999   16.5042   44.7299 C   0  0  0  0  0  0  0  0  0  0  0  0
   -0.2647   15.8419   45.5771 C   0  0  0  0  0  0  0  0  0  0  0  0
   -1.4157   16.4417   46.0406 C   0  0  0  0  0  0  0  0  0  0  0  0
   -1.6957   17.7500   45.6309 C   0  0  0  0  0  0  0  0  0  0  0  0
   -0.8131   18.3863   44.7863 C   0  0  0  0  0  0  0  0  0  0  0  0
    0.9791   19.8153   43.0384 C   0  0  0  0  0  0  0  0  0  0  0  0
    3.5332   17.4413   39.3845 C   0  0  0  0  0  0  0  0  0  0  0  0
    3.3385   17.5655   38.0227 C   0  0  0  0  0  0  0  0  0  0  0  0
    4.3843   18.4912   41.4591 N   0  0  0  0  0  0  0  0  0  0  0  0
    2.3713   18.0516   42.9159 N   0  0  0  0  0  0  0  0  0  0  0  0
    2.9043   17.9175   35.1390 O   0  0  0  0  0  0  0  0  0  0  0  0
    3.9223   19.9177   35.3305 O   0  0  0  0  0  0  0  0  0  0  0  0
    2.7221   16.5600   37.2839 O   0  0  0  0  0  0  0  0  0  0  0  0
    2.3992   20.2639   41.9635 S   0  0  0  0  0  0  0  0  0  0  0  0
   -2.5492   15.6456   47.1162 Cl  0  0  0  0  0  0  0  0  0  0  0  0
    4.7254   20.6406   37.5320 H   0  0  0  0  0  0  0  0  0  0  0  0
    5.0716   20.4402   39.9376 H   0  0  0  0  0  0  0  0  0  0  0  0
    1.5165   16.0073   44.3744 H   0  0  0  0  0  0  0  0  0  0  0  0
   -0.0259   14.8289   45.8934 H   0  0  0  0  0  0  0  0  0  0  0  0
   -2.5800   18.2720   45.9619 H   0  0  0  0  0  0  0  0  0  0  0  0
   -1.0373   19.3770   44.4783 H   0  0  0  0  0  0  0  0  0  0  0  0
    0.1494   20.5216   43.2544 H   0  0  0  0  0  0  0  0  0  0  0  0
    3.2105   16.5650   39.9258 H   0  0  0  0  0  0  0  0  0  0  0  0
    5.3249   18.4758   41.8650 H   0  0  0  0  0  0  0  0  0  0  0  0
  1  2  1  0
  1 19  1  0
  1 20  2  0
  2  3  1  0
  2 16  2  0
  3  4  2  0
  4  5  1  0
  5 15  2  0
  5 17  1  0
  6 17  1  0
  6 18  2  0
  6 22  1  0
  7  8  1  0
  7 14  2  0
  7 18  1  0
  8  9  1  0
  8 13  2  0
  9 10  2  0
 10 11  1  0
 11 12  2  0
 11 23  1  0
 12 13  1  0
 14 22  1  0
 15 16  1  0
 16 21  1  0
  3 24  1  0
  4 25  1  0
  9 26  1  0
 10 27  1  0
 12 28  1  0
 13 29  1  0
 14 30  1  0
 15 31  1  0
 17 32  1  0
M  CHG  2  19  -1  21  -1
M  END
>  <mol_id>  (82) 
2026-08-24-6tgu-s0-n100-0082

>  <rmsd_to_ref>  (82) 
4.173469387758752

>  <pose_kind>  (82) 
conformer

$$$$
6tgu.A
     RDKit          3D

 32 34  0  0  0  0  0  0  0  0999 V2000
    5.0564   16.4315   37.3010 C   0  0  0  0  0  0  0  0  0  0  0  0
    3.8064   16.7976   38.1059 C   0  0  0  0  0  0  0  0  0  0  0  0
    2.5538   16.8184   37.4966 C   0  0  0  0  0  0  0  0  0  0  0  0
    1.3729   16.9603   38.2327 C   0  0  0  0  0  0  0  0  0  0  0  0
    1.4281   17.2635   39.6009 C   0  0  0  0  0  0  0  0  0  0  0  0
    0.0210   17.1674   41.7160 C   0  0  0  0  0  0  0  0  0  0  0  0
    0.5454   16.8481   43.9066 C   0  0  0  0  0  0  0  0  0  0  0  0
    1.4488   16.7277   45.0514 C   0  0  0  0  0  0  0  0  0  0  0  0
    0.9880   16.3760   46.3281 C   0  0  0  0  0  0  0  0  0  0  0  0
    1.8691   16.2342   47.3956 C   0  0  0  0  0  0  0  0  0  0  0  0
    3.2215   16.4038   47.1662 C   0  0  0  0  0  0  0  0  0  0  0  0
    3.7208   16.7462   45.9186 C   0  0  0  0  0  0  0  0  0  0  0  0
    2.8220   16.8947   44.8659 C   0  0  0  0  0  0  0  0  0  0  0  0
   -0.8085   16.6510   43.9755 C   0  0  0  0  0  0  0  0  0  0  0  0
    2.6801   17.2356   40.2317 C   0  0  0  0  0  0  0  0  0  0  0  0
    3.8343   17.0119   39.4788 C   0  0  0  0  0  0  0  0  0  0  0  0
    0.2333   17.3482   40.3796 N   0  0  0  0  0  0  0  0  0  0  0  0
    1.0666   17.0553   42.6076 N   0  0  0  0  0  0  0  0  0  0  0  0
    4.8653   15.9963   36.1274 O   0  0  0  0  0  0  0  0  0  0  0  0
    6.1555   16.5145   37.8917 O   0  0  0  0  0  0  0  0  0  0  0  0
    5.0428   16.8828   40.1211 O   0  0  0  0  0  0  0  0  0  0  0  0
   -1.5174   16.6867   42.4058 S   0  0  0  0  0  0  0  0  0  0  0  0
    4.3345   16.1902   48.4767 Cl  0  0  0  0  0  0  0  0  0  0  0  0
    2.4915   16.7202   36.4028 H   0  0  0  0  0  0  0  0  0  0  0  0
    0.3989   16.8338   37.7375 H   0  0  0  0  0  0  0  0  0  0  0  0
   -0.0875   16.2096   46.4884 H   0  0  0  0  0  0  0  0  0  0  0  0
    1.4968   15.9920   48.4019 H   0  0  0  0  0  0  0  0  0  0  0  0
    4.7995   16.8966   45.7647 H   0  0  0  0  0  0  0  0  0  0  0  0
    3.2026   17.1492   43.8657 H   0  0  0  0  0  0  0  0  0  0  0  0
   -1.3684   16.4913   44.9087 H   0  0  0  0  0  0  0  0  0  0  0  0
    2.7527   17.3898   41.3184 H   0  0  0  0  0  0  0  0  0  0  0  0
   -0.6118   17.5862   39.8410 H   0  0  0  0  0  0  0  0  0  0  0  0
  1  2  1  0
  1 19  1  0
  1 20  2  0
  2  3  1  0
  2 16  2  0
  3  4  2  0
  4  5  1  0
  5 15  2  0
  5 17  1  0
  6 17  1  0
  6 18  2  0
  6 22  1  0
  7  8  1  0
  7 14  2  0
  7 18  1  0
  8  9  1  0
  8 13  2  0
  9 10  2  0
 10 11  1  0
 11 12  2  0
 11 23  1  0
 12 13  1  0
 14 22  1  0
 15 16  1  0
 16 21  1  0
  3 24  1  0
  4 25  1  0
  9 26  1  0
 10 27  1  0
 12 28  1  0
 13 29  1  0
 14 30  1  0
 15 31  1  0
 17 32  1  0
M  CHG  2  19  -1  21  -1
M  END
>  <mol_id>  (83) 
2026-08-24-6tgu-s0-n100-0083

>  <rmsd_to_ref>  (83) 
4.219387755105593

>  <pose_kind>  (83) 
rigid

$$$$
6tgu.A
     RDKit          3D

 32 34  0  0  0  0  0  0  0  0999 V2000
    4.1603   16.1227   37.1704 C   0  0  0  0  0  0  0  0  0  0  0  0
    3.2614   16.8282   38.0761 C   0  0  0  0  0  0  0  0  0  0  0  0
    2.0148   17.1564   37.6486 C   0  0  0  0  0  0  0  0  0  0  0  0
    1.1390   17.7934   38.4900 C   0  0  0  0  0  0  0  0  0  0  0  0
    1.5703   18.0852   39.7718 C   0  0  0  0  0  0  0  0  0  0  0  0
    0.1373   17.9108   41.7090 C   0  0  0  0  0  0  0  0  0  0  0  0
   -0.5166   16.6206   43.4345 C   0  0  0  0  0  0  0  0  0  0  0  0
   -0.5120   16.4263   44.9048 C   0  0  0  0  0  0  0  0  0  0  0  0
    0.1130   17.2928   45.7678 C   0  0  0  0  0  0  0  0  0  0  0  0
    0.0919   17.0798   47.1309 C   0  0  0  0  0  0  0  0  0  0  0  0
   -0.5541   15.9920   47.6776 C   0  0  0  0  0  0  0  0  0  0  0  0
   -1.1953   15.0962   46.8150 C   0  0  0  0  0  0  0  0  0  0  0  0
   -1.1587   15.3359   45.4591 C   0  0  0  0  0  0  0  0  0  0  0  0
   -1.1611   15.7573   42.6075 C   0  0  0  0  0  0  0  0  0  0  0  0
    2.8232   17.7731   40.2469 C   0  0  0  0  0  0  0  0  0  0  0  0
    3.6826   17.1312   39.3768 C   0  0  0  0  0  0  0  0  0  0  0  0
    0.5667   18.7289   40.6006 N   0  0  0  0  0  0  0  0  0  0  0  0
    0.0722   17.6280   42.8167 N   0  0  0  0  0  0  0  0  0  0  0  0
    5.4398   15.7169   37.4953 O   0  0  0  0  0  0  0  0  0  0  0  0
    3.7683   15.8463   35.9910 O   0  0  0  0  0  0  0  0  0  0  0  0
    4.9719   16.7757   39.7616 O   0  0  0  0  0  0  0  0  0  0  0  0
   -0.8801   16.4635   40.9354 S   0  0  0  0  0  0  0  0  0  0  0  0
   -0.6102   15.6728   49.4011 Cl  0  0  0  0  0  0  0  0  0  0  0  0
    1.6659   16.9321   36.6355 H   0  0  0  0  0  0  0  0  0  0  0  0
    0.1340   18.0605   38.1610 H   0  0  0  0  0  0  0  0  0  0  0  0
    0.6322   18.1709   45.3522 H   0  0  0  0  0  0  0  0  0  0  0  0
    0.5869   17.7922   47.7872 H   0  0  0  0  0  0  0  0  0  0  0  0
   -1.7188   14.2280   47.1842 H   0  0  0  0  0  0  0  0  0  0  0  0
   -1.6446   14.6477   44.8134 H   0  0  0  0  0  0  0  0  0  0  0  0
   -1.7443   14.8261   42.7703 H   0  0  0  0  0  0  0  0  0  0  0  0
    3.1167   18.0173   41.2565 H   0  0  0  0  0  0  0  0  0  0  0  0
    0.2142   19.6710   40.4055 H   0  0  0  0  0  0  0  0  0  0  0  0
  1  2  1  0
  1 19  1  0
  1 20  2  0
  2  3  1  0
  2 16  2  0
  3  4  2  0
  4  5  1  0
  5 15  2  0
  5 17  1  0
  6 17  1  0
  6 18  2  0
  6 22  1  0
  7  8  1  0
  7 14  2  0
  7 18  1  0
  8  9  1  0
  8 13  2  0
  9 10  2  0
 10 11  1  0
 11 12  2  0
 11 23  1  0
 12 13  1  0
 14 22  1  0
 15 16  1  0
 16 21  1  0
  3 24  1  0
  4 25  1  0
  9 26  1  0
 10 27  1  0
 12 28  1  0
 13 29  1  0
 14 30  1  0
 15 31  1  0
 17 32  1  0
M  CHG  2  19  -1  21  -1
M  END
>  <mol_id>  (84) 
2026-08-24-6tgu-s0-n100-0084

>  <rmsd_to_ref>  (84) 
4.265306122454264

>  <pose_kind>  (84) 
conformer

$$$$
6tgu.A
     RDKit          3D

 32 34  0  0  0  0  0  0  0  0999 V2000
   -3.1838   17.2923   37.1517 C   0  0  0  0  0  0  0  0  0  0  0  0
   -2.5521   17.7196   38.4795 C   0  0  0  0  0  0  0  0  0  0  0  0
   -3.3062   18.3951   39.4364 C   0  0  0  0  0  0  0  0  0  0  0  0
   -2.8248   18.6330   40.7280 C   0  0  0  0  0  0  0  0  0  0  0  0
   -1.4886   18.3486   41.0448 C   0  0  0  0  0  0  0  0  0  0  0  0
    0.0355   17.9281   43.0357 C   0  0  0  0  0  0  0  0  0  0  0  0
    1.8851   16.6340   43.3186 C   0  0  0  0  0  0  0  0  0  0  0  0
    2.9916   15.7850   42.8757 C   0  0  0  0  0  0  0  0  0  0  0  0
    3.8489   15.1476   43.7839 C   0  0  0  0  0  0  0  0  0  0  0  0
    4.8743   14.3175   43.3418 C   0  0  0  0  0  0  0  0  0  0  0  0
    5.0082   14.0943   41.9843 C   0  0  0  0  0  0  0  0  0  0  0  0
    4.1791   14.6995   41.0520 C   0  0  0  0  0  0  0  0  0  0  0  0
    3.1662   15.5357   41.5136 C   0  0  0  0  0  0  0  0  0  0  0  0
    1.5991   16.8958   44.6324 C   0  0  0  0  0  0  0  0  0  0  0  0
   -0.7193   17.6589   40.0969 C   0  0  0  0  0  0  0  0  0  0  0  0
   -1.2580   17.3663   38.8426 C   0  0  0  0  0  0  0  0  0  0  0  0
   -0.9993   18.5256   42.3754 N   0  0  0  0  0  0  0  0  0  0  0  0
    0.9530   17.1355   42.3795 N   0  0  0  0  0  0  0  0  0  0  0  0
   -4.4379   17.4343   37.0510 O   0  0  0  0  0  0  0  0  0  0  0  0
   -2.4268   16.7649   36.3075 O   0  0  0  0  0  0  0  0  0  0  0  0
   -0.5337   16.5999   37.9607 O   0  0  0  0  0  0  0  0  0  0  0  0
    0.1218   17.7697   44.7795 S   0  0  0  0  0  0  0  0  0  0  0  0
    6.2547   13.0307   41.4214 Cl  0  0  0  0  0  0  0  0  0  0  0  0
   -4.3113   18.7525   39.1680 H   0  0  0  0  0  0  0  0  0  0  0  0
   -3.4957   19.0439   41.4967 H   0  0  0  0  0  0  0  0  0  0  0  0
    3.7087   15.3065   44.8633 H   0  0  0  0  0  0  0  0  0  0  0  0
    5.5645   13.8482   44.0583 H   0  0  0  0  0  0  0  0  0  0  0  0
    4.3181   14.5234   39.9752 H   0  0  0  0  0  0  0  0  0  0  0  0
    2.4886   16.0105   40.7887 H   0  0  0  0  0  0  0  0  0  0  0  0
    2.2288   16.5889   45.4804 H   0  0  0  0  0  0  0  0  0  0  0  0
    0.3075   17.3488   40.3412 H   0  0  0  0  0  0  0  0  0  0  0  0
   -1.5151   19.2227   42.9312 H   0  0  0  0  0  0  0  0  0  0  0  0
  1  2  1  0
  1 19  1  0
  1 20  2  0
  2  3  1  0
  2 16  2  0
  3  4  2  0
  4  5  1  0
  5 15  2  0
  5 17  1  0
  6 17  1  0
  6 18  2  0
  6 22  1  0
  7  8  1  0
  7 14  2  0
  7 18  1  0
  8  9  1  0
  8 13  2  0
  9 10  2  0
 10 11  1  0
 11 12  2  0
 11 23  1  0
 12 13  1  0
 14 22  1  0
 15 16  1  0
 16 21  1  0
  3 24  1  0
  4 25  1  0
  9 26  1  0
 10 27  1  0
 12 28  1  0
 13 29  1  0
 14 30  1  0
 15 31  1  0
 17 32  1  0
M  CHG  2  19  -1  21  -1
M  END
>  <mol_id>  (85) 
2026-08-24-6tgu-s0-n100-0085

>  <rmsd_to_ref>  (85) 
4.311224489803983

>  <pose_kind>  (85) 
rigid

$$$$
6tgu.A
     RDKit          3D

 32 34  0  0  0  0  0  0  0  0999 V2000
    6.9543   16.6214   39.1430 C   0  0  0  0  0  0  0  0  0  0  0  0
    5.7613   17.2302   39.7195 C   0  0  0  0  0  0  0  0  0  0  0  0
    4.9187   17.9270   38.9139 C   0  0  0  0  0  0  0  0  0  0  0  0
    3.7744   18.4842   39.4244 C   0  0  0  0  0  0  0  0  0  0  0  0
    3.5174   18.3118   40.7729 C   0  0  0  0  0  0  0  0  0  0  0  0
    1.2973   17.9304   41.6462 C   0  0  0  0  0  0  0  0  0  0  0  0
   -0.2043   16.3918   42.3152 C   0  0  0  0  0  0  0  0  0  0  0  0
   -0.9504   15.8058   43.4550 C   0  0  0  0  0  0  0  0  0  0  0  0
   -0.7988   16.2441   44.7478 C   0  0  0  0  0  0  0  0  0  0  0  0
   -1.5142   15.6756   45.7816 C   0  0  0  0  0  0  0  0  0  0  0  0
   -2.4051   14.6480   45.5581 C   0  0  0  0  0  0  0  0  0  0  0  0
   -2.5724   14.1855   44.2482 C   0  0  0  0  0  0  0  0  0  0  0  0
   -1.8459   14.7738   43.2366 C   0  0  0  0  0  0  0  0  0  0  0  0
   -0.3907   15.9508   41.0443 C   0  0  0  0  0  0  0  0  0  0  0  0
    4.3422   17.6157   41.6260 C   0  0  0  0  0  0  0  0  0  0  0  0
    5.4866   17.0654   41.0827 C   0  0  0  0  0  0  0  0  0  0  0  0
    2.2694   18.9067   41.2171 N   0  0  0  0  0  0  0  0  0  0  0  0
    0.6687   17.3761   42.4265 N   0  0  0  0  0  0  0  0  0  0  0  0
    7.8727   15.8728   39.8527 O   0  0  0  0  0  0  0  0  0  0  0  0
    7.1946   16.7716   37.9017 O   0  0  0  0  0  0  0  0  0  0  0  0
    6.3860   16.3453   41.8634 O   0  0  0  0  0  0  0  0  0  0  0  0
    0.7309   17.0092   40.0466 S   0  0  0  0  0  0  0  0  0  0  0  0
   -3.3377   13.8888   46.8345 Cl  0  0  0  0  0  0  0  0  0  0  0  0
    5.1154   18.0710   37.8466 H   0  0  0  0  0  0  0  0  0  0  0  0
    3.0875   19.0441   38.7886 H   0  0  0  0  0  0  0  0  0  0  0  0
   -0.0945   17.0672   44.9482 H   0  0  0  0  0  0  0  0  0  0  0  0
   -1.3790   16.0547   46.7921 H   0  0  0  0  0  0  0  0  0  0  0  0
   -3.2565   13.3856   44.0111 H   0  0  0  0  0  0  0  0  0  0  0  0
   -1.9773   14.4124   42.2473 H   0  0  0  0  0  0  0  0  0  0  0  0
   -1.0258   15.1614   40.5890 H   0  0  0  0  0  0  0  0  0  0  0  0
    4.1006   17.5035   42.6720 H   0  0  0  0  0  0  0  0  0  0  0  0
    2.1143   19.9195   41.2226 H   0  0  0  0  0  0  0  0  0  0  0  0
  1  2  1  0
  1 19  1  0
  1 20  2  0
  2  3  1  0
  2 16  2  0
  3  4  2  0
  4  5  1  0
  5 15  2  0
  5 17  1  0
  6 17  1  0
  6 18  2  0
  6 22  1  0
  7  8  1  0
  7 14  2  0
  7 18  1  0
  8  9  1  0
  8 13  2  0
  9 10  2  0
 10 11  1  0
 11 12  2  0
 11 23  1  0
 12 13  1  0
 14 22  1  0
 15 16  1  0
 16 21  1  0
  3 24  1  0
  4 25  1  0
  9 26  1  0
 10 27  1  0
 12 28  1  0
 13 29  1  0
 14 30  1  0
 15 31  1  0
 17 32  1  0
M  CHG  2  19  -1  21  -1
M  END
>  <mol_id>  (86) 
2026-08-24-6tgu-s0-n100-0086

>  <rmsd_to_ref>  (86) 
4.357142857149978

>  <pose_kind>  (86) 
conformer

$$$$
6tgu.A
     RDKit          3D

 32 34  0  0  0  0  0  0  0  0999 V2000
   -0.3252   20.7552   37.3213 C   0  0  0  0  0  0  0  0  0  0  0  0
   -0.1640   19.8449   38.5419 C   0  0  0  0  0  0  0  0  0  0  0  0
   -1.2797   19.2773   39.1532 C   0  0  0  0  0  0  0  0  0  0  0  0
   -1.1645   18.2969   40.1442 C   0  0  0  0  0  0  0  0  0  0  0  0
    0.0928   17.9805   40.6787 C   0  0  0  0  0  0  0  0  0  0  0  0
    1.3037   16.1485   41.9597 C   0  0  0  0  0  0  0  0  0  0  0  0
    3.4570   15.4148   41.9399 C   0  0  0  0  0  0  0  0  0  0  0  0
    4.8768   15.4751   41.5911 C   0  0  0  0  0  0  0  0  0  0  0  0
    5.7649   14.4375   41.9085 C   0  0  0  0  0  0  0  0  0  0  0  0
    7.1045   14.5004   41.5375 C   0  0  0  0  0  0  0  0  0  0  0  0
    7.5400   15.5901   40.8073 C   0  0  0  0  0  0  0  0  0  0  0  0
    6.6947   16.6355   40.4671 C   0  0  0  0  0  0  0  0  0  0  0  0
    5.3605   16.5594   40.8572 C   0  0  0  0  0  0  0  0  0  0  0  0
    2.8770   14.3707   42.6107 C   0  0  0  0  0  0  0  0  0  0  0  0
    1.2268   18.5345   40.0676 C   0  0  0  0  0  0  0  0  0  0  0  0
    1.0781   19.4518   39.0258 C   0  0  0  0  0  0  0  0  0  0  0  0
    0.2350   16.9373   41.6446 N   0  0  0  0  0  0  0  0  0  0  0  0
    2.5661   16.4088   41.4706 N   0  0  0  0  0  0  0  0  0  0  0  0
   -1.4834   20.8203   36.8141 O   0  0  0  0  0  0  0  0  0  0  0  0
    0.7111   21.2954   36.8762 O   0  0  0  0  0  0  0  0  0  0  0  0
    2.1944   19.9081   38.3657 O   0  0  0  0  0  0  0  0  0  0  0  0
    1.1652   14.5539   42.6749 S   0  0  0  0  0  0  0  0  0  0  0  0
    9.1959   15.6627   40.3031 Cl  0  0  0  0  0  0  0  0  0  0  0  0
   -2.2824   19.6105   38.8471 H   0  0  0  0  0  0  0  0  0  0  0  0
   -2.0619   17.7731   40.5049 H   0  0  0  0  0  0  0  0  0  0  0  0
    5.3967   13.5596   42.4596 H   0  0  0  0  0  0  0  0  0  0  0  0
    7.8030   13.6989   41.8198 H   0  0  0  0  0  0  0  0  0  0  0  0
    7.0689   17.5028   39.9034 H   0  0  0  0  0  0  0  0  0  0  0  0
    4.6722   17.3718   40.5810 H   0  0  0  0  0  0  0  0  0  0  0  0
    3.4305   13.5276   43.0498 H   0  0  0  0  0  0  0  0  0  0  0  0
    2.2322   18.2467   40.4087 H   0  0  0  0  0  0  0  0  0  0  0  0
   -0.6134   16.7483   42.1973 H   0  0  0  0  0  0  0  0  0  0  0  0
  1  2  1  0
  1 19  1  0
  1 20  2  0
  2  3  1  0
  2 16  2  0
  3  4  2  0
  4  5  1  0
  5 15  2  0
  5 17  1  0
  6 17  1  0
  6 18  2  0
  6 22  1  0
  7  8  1  0
  7 14  2  0
  7 18  1  0
  8  9  1  0
  8 13  2  0
  9 10  2  0
 10 11  1  0
 11 12  2  0
 11 23  1  0
 12 13  1  0
 14 22  1  0
 15 16  1  0
 16 21  1  0
  3 24  1  0
  4 25  1  0
  9 26  1  0
 10 27  1  0
 12 28  1  0
 13 29  1  0
 14 30  1  0
 15 31  1  0
 17 32  1  0
M  CHG  2  19  -1  21  -1
M  END
>  <mol_id>  (87) 
2026-08-24-6tgu-s0-n100-0087

>  <rmsd_to_ref>  (87) 
4.403061224490392

>  <pose_kind>  (87) 
rigid

$$$$
6tgu.A
     RDKit          3D

 32 34  0  0  0  0  0  0  0  0999 V2000
    6.9975   17.9743   38.5633 C   0  0  0  0  0  0  0  0  0  0  0  0
    5.9417   17.5593   39.4794 C   0  0  0  0  0  0  0  0  0  0  0  0
    5.5323   18.4170   40.4496 C   0  0  0  0  0  0  0  0  0  0  0  0
    4.5207   18.0634   41.3053 C   0  0  0  0  0  0  0  0  0  0  0  0
    3.9437   16.8164   41.1441 C   0  0  0  0  0  0  0  0  0  0  0  0
    1.5770   16.4205   41.4242 C   0  0  0  0  0  0  0  0  0  0  0  0
   -0.4164   16.2304   40.3947 C   0  0  0  0  0  0  0  0  0  0  0  0
   -1.5263   15.3269   40.0058 C   0  0  0  0  0  0  0  0  0  0  0  0
   -1.5313   13.9853   40.2995 C   0  0  0  0  0  0  0  0  0  0  0  0
   -2.5848   13.1774   39.9236 C   0  0  0  0  0  0  0  0  0  0  0  0
   -3.6692   13.6835   39.2399 C   0  0  0  0  0  0  0  0  0  0  0  0
   -3.6823   15.0477   38.9292 C   0  0  0  0  0  0  0  0  0  0  0  0
   -2.6172   15.8295   39.3190 C   0  0  0  0  0  0  0  0  0  0  0  0
   -0.4492   17.5575   40.1081 C   0  0  0  0  0  0  0  0  0  0  0  0
    4.3267   15.9155   40.1774 C   0  0  0  0  0  0  0  0  0  0  0  0
    5.3473   16.3002   39.3300 C   0  0  0  0  0  0  0  0  0  0  0  0
    2.8608   16.5422   42.0718 N   0  0  0  0  0  0  0  0  0  0  0  0
    0.6624   15.8423   41.0495 N   0  0  0  0  0  0  0  0  0  0  0  0
    7.4827   17.2024   37.5260 O   0  0  0  0  0  0  0  0  0  0  0  0
    7.5295   19.1226   38.7025 O   0  0  0  0  0  0  0  0  0  0  0  0
    5.8081   15.4590   38.3215 O   0  0  0  0  0  0  0  0  0  0  0  0
    1.1189   18.1962   40.8197 S   0  0  0  0  0  0  0  0  0  0  0  0
   -5.0327   12.7021   38.7369 Cl  0  0  0  0  0  0  0  0  0  0  0  0
    5.9849   19.4043   40.5864 H   0  0  0  0  0  0  0  0  0  0  0  0
    4.1801   18.7432   42.0873 H   0  0  0  0  0  0  0  0  0  0  0  0
   -0.6760   13.5607   40.8488 H   0  0  0  0  0  0  0  0  0  0  0  0
   -2.5625   12.1212   40.1826 H   0  0  0  0  0  0  0  0  0  0  0  0
   -4.5042   15.5015   38.3976 H   0  0  0  0  0  0  0  0  0  0  0  0
   -2.6354   16.8622   39.0744 H   0  0  0  0  0  0  0  0  0  0  0  0
   -1.1760   18.2139   39.5838 H   0  0  0  0  0  0  0  0  0  0  0  0
    3.8461   14.9533   40.0859 H   0  0  0  0  0  0  0  0  0  0  0  0
    3.0123   16.4437   43.0803 H   0  0  0  0  0  0  0  0  0  0  0  0
  1  2  1  0
  1 19  1  0
  1 20  2  0
  2  3  1  0
  2 16  2  0
  3  4  2  0
  4  5  1  0
  5 15  2  0
  5 17  1  0
  6 17  1  0
  6 18  2  0
  6 22  1  0
  7  8  1  0
  7 14  2  0
  7 18  1  0
  8  9  1  0
  8 13  2  0
  9 10  2  0
 10 11  1  0
 11 12  2  0
 11 23  1  0
 12 13  1  0
 14 22  1  0
 15 16  1  0
 16 21  1  0
  3 24  1  0
  4 25  1  0
  9 26  1  0
 10 27  1  0
 12 28  1  0
 13 29  1  0
 14 30  1  0
 15 31  1  0
 17 32  1  0
M  CHG  2  19  -1  21  -1
M  END
>  <mol_id>  (88) 
2026-08-24-6tgu-s0-n100-0088

>  <rmsd_to_ref>  (88) 
4.448979591844027

>  <pose_kind>  (88) 
conformer

$$$$
6tgu.A
     RDKit          3D

 32 34  0  0  0  0  0  0  0  0999 V2000
   -1.0206   18.5819   35.3865 C   0  0  0  0  0  0  0  0  0  0  0  0
   -0.8741   18.5098   36.9090 C   0  0  0  0  0  0  0  0  0  0  0  0
   -1.9967   18.3673   37.7215 C   0  0  0  0  0  0  0  0  0  0  0  0
   -1.8925   18.1083   39.0921 C   0  0  0  0  0  0  0  0  0  0  0  0
   -0.6420   18.1585   39.7251 C   0  0  0  0  0  0  0  0  0  0  0  0
    0.5565   17.3673   41.8229 C   0  0  0  0  0  0  0  0  0  0  0  0
    2.7127   16.7722   42.2381 C   0  0  0  0  0  0  0  0  0  0  0  0
    4.1373   16.6438   41.9295 C   0  0  0  0  0  0  0  0  0  0  0  0
    5.0245   15.9702   42.7811 C   0  0  0  0  0  0  0  0  0  0  0  0
    6.3692   15.8307   42.4519 C   0  0  0  0  0  0  0  0  0  0  0  0
    6.8114   16.3322   41.2422 C   0  0  0  0  0  0  0  0  0  0  0  0
    5.9673   17.0000   40.3679 C   0  0  0  0  0  0  0  0  0  0  0  0
    4.6277   17.1393   40.7204 C   0  0  0  0  0  0  0  0  0  0  0  0
    2.1268   16.2736   43.3715 C   0  0  0  0  0  0  0  0  0  0  0  0
    0.4987   18.2900   38.9205 C   0  0  0  0  0  0  0  0  0  0  0  0
    0.3621   18.4679   37.5425 C   0  0  0  0  0  0  0  0  0  0  0  0
   -0.5103   17.8337   41.1102 N   0  0  0  0  0  0  0  0  0  0  0  0
    1.8251   17.3248   41.2847 N   0  0  0  0  0  0  0  0  0  0  0  0
   -2.1715   18.3396   34.9175 O   0  0  0  0  0  0  0  0  0  0  0  0
    0.0201   18.7935   34.7262 O   0  0  0  0  0  0  0  0  0  0  0  0
    1.4863   18.4908   36.7517 O   0  0  0  0  0  0  0  0  0  0  0  0
    0.4135   16.4419   43.3050 S   0  0  0  0  0  0  0  0  0  0  0  0
    8.4743   16.1300   40.8004 Cl  0  0  0  0  0  0  0  0  0  0  0  0
   -2.9959   18.4614   37.2714 H   0  0  0  0  0  0  0  0  0  0  0  0
   -2.7932   17.8647   39.6747 H   0  0  0  0  0  0  0  0  0  0  0  0
    4.6515   15.5452   43.7246 H   0  0  0  0  0  0  0  0  0  0  0  0
    7.0665   15.3312   43.1407 H   0  0  0  0  0  0  0  0  0  0  0  0
    6.3465   17.4092   39.4199 H   0  0  0  0  0  0  0  0  0  0  0  0
    3.9405   17.6513   40.0307 H   0  0  0  0  0  0  0  0  0  0  0  0
    2.6768   15.8256   44.2121 H   0  0  0  0  0  0  0  0  0  0  0  0
    1.5000   18.2531   39.3744 H   0  0  0  0  0  0  0  0  0  0  0  0
   -1.3661   17.9756   41.6656 H   0  0  0  0  0  0  0  0  0  0  0  0
  1  2  1  0
  1 19  1  0
  1 20  2  0
  2  3  1  0
  2 16  2  0
  3  4  2  0
  4  5  1  0
  5 15  2  0
  5 17  1  0
  6 17  1  0
  6 18  2  0
  6 22  1  0
  7  8  1  0
  7 14  2  0
  7 18  1  0
  8  9  1  0
  8 13  2  0
  9 10  2  0
 10 11  1  0
 11 12  2  0
 11 23  1  0
 12 13  1  0
 14 22  1  0
 15 16  1  0
 16 21  1  0
  3 24  1  0
  4 25  1  0
  9 26  1  0
 10 27  1  0
 12 28  1  0
 13 29  1  0
 14 30  1  0
 15 31  1  0
 17 32  1  0
M  CHG  2  19  -1  21  -1
M  END
>  <mol_id>  (89) 
2026-08-24-6tgu-s0-n100-0089

>  <rmsd_to_ref>  (89) 
4.494897959186659

>  <pose_kind>  (89) 
rigid

$$$$
6tgu.A
     RDKit          3D

 32 34  0  0  0  0  0  0  0  0999 V2000
   -1.9158   20.1661   36.7159 C   0  0  0  0  0  0  0  0  0  0  0  0
   -1.3828   19.8213   38.0286 C   0  0  0  0  0  0  0  0  0  0  0  0
   -2.1478   19.0942   38.8833 C   0  0  0  0  0  0  0  0  0  0  0  0
   -1.6596   18.7308   40.1123 C   0  0  0  0  0  0  0  0  0  0  0  0
   -0.3766   19.1298   40.4420 C   0  0  0  0  0  0  0  0  0  0  0  0
    1.1563   17.7280   41.6756 C   0  0  0  0  0  0  0  0  0  0  0  0
    2.8576   16.2590   41.5440 C   0  0  0  0  0  0  0  0  0  0  0  0
    4.2963   16.0066   41.8004 C   0  0  0  0  0  0  0  0  0  0  0  0
    5.1324   16.9519   42.3424 C   0  0  0  0  0  0  0  0  0  0  0  0
    6.4655   16.6778   42.5696 C   0  0  0  0  0  0  0  0  0  0  0  0
    7.0084   15.4490   42.2615 C   0  0  0  0  0  0  0  0  0  0  0  0
    6.1736   14.4730   41.7064 C   0  0  0  0  0  0  0  0  0  0  0  0
    4.8468   14.7751   41.4927 C   0  0  0  0  0  0  0  0  0  0  0  0
    2.0507   15.2973   41.0258 C   0  0  0  0  0  0  0  0  0  0  0  0
    0.4329   19.8675   39.6093 C   0  0  0  0  0  0  0  0  0  0  0  0
   -0.0860   20.2176   38.3780 C   0  0  0  0  0  0  0  0  0  0  0  0
    0.0675   18.6722   41.7466 N   0  0  0  0  0  0  0  0  0  0  0  0
    2.2458   17.3998   41.8039 N   0  0  0  0  0  0  0  0  0  0  0  0
   -1.2282   20.8800   35.7541 O   0  0  0  0  0  0  0  0  0  0  0  0
   -3.0939   19.7978   36.4037 O   0  0  0  0  0  0  0  0  0  0  0  0
    0.6531   20.9650   37.4658 O   0  0  0  0  0  0  0  0  0  0  0  0
    0.4050   16.1083   40.9404 S   0  0  0  0  0  0  0  0  0  0  0  0
    8.6949   15.0486   42.5275 Cl  0  0  0  0  0  0  0  0  0  0  0  0
   -3.1649   18.7766   38.6322 H   0  0  0  0  0  0  0  0  0  0  0  0
   -2.2619   18.1448   40.8076 H   0  0  0  0  0  0  0  0  0  0  0  0
    4.7181   17.9396   42.5997 H   0  0  0  0  0  0  0  0  0  0  0  0
    7.0974   17.4451   43.0113 H   0  0  0  0  0  0  0  0  0  0  0  0
    6.5408   13.4923   41.4464 H   0  0  0  0  0  0  0  0  0  0  0  0
    4.2233   14.0288   41.0673 H   0  0  0  0  0  0  0  0  0  0  0  0
    2.2162   14.2500   40.6947 H   0  0  0  0  0  0  0  0  0  0  0  0
    1.4300   20.1547   39.9067 H   0  0  0  0  0  0  0  0  0  0  0  0
   -0.3581   19.0010   42.6187 H   0  0  0  0  0  0  0  0  0  0  0  0
  1  2  1  0
  1 19  1  0
  1 20  2  0
  2  3  1  0
  2 16  2  0
  3  4  2  0
  4  5  1  0
  5 15  2  0
  5 17  1  0
  6 17  1  0
  6 18  2  0
  6 22  1  0
  7  8  1  0
  7 14  2  0
  7 18  1  0
  8  9  1  0
  8 13  2  0
  9 10  2  0
 10 11  1  0
 11 12  2  0
 11 23  1  0
 12 13  1  0
 14 22  1  0
 15 16  1  0
 16 21  1  0
  3 24  1  0
  4 25  1  0
  9 26  1  0
 10 27  1  0
 12 28  1  0
 13 29  1  0
 14 30  1  0
 15 31  1  0
 17 32  1  0
M  CHG  2  19  -1  21  -1
M  END
>  <mol_id>  (90) 
2026-08-24-6tgu-s0-n100-0090

>  <rmsd_to_ref>  (90) 
4.54081632653644

>  <pose_kind>  (90) 
conformer

$$$$
6tgu.A
     RDKit          3D

 32 34  0  0  0  0  0  0  0  0999 V2000
    4.8203   17.1995   34.8003 C   0  0  0  0  0  0  0  0  0  0  0  0
    4.6537   16.8303   36.2770 C   0  0  0  0  0  0  0  0  0  0  0  0
    5.7137   16.9825   37.1681 C   0  0  0  0  0  0  0  0  0  0  0  0
    5.5482   16.8386   38.5495 C   0  0  0  0  0  0  0  0  0  0  0  0
    4.3357   16.3607   39.0674 C   0  0  0  0  0  0  0  0  0  0  0  0
    2.9822   16.2942   41.2185 C   0  0  0  0  0  0  0  0  0  0  0  0
    0.7460   16.2918   41.6365 C   0  0  0  0  0  0  0  0  0  0  0  0
   -0.6706   16.1967   41.2823 C   0  0  0  0  0  0  0  0  0  0  0  0
   -1.6880   16.4174   42.2216 C   0  0  0  0  0  0  0  0  0  0  0  0
   -3.0290   16.3550   41.8555 C   0  0  0  0  0  0  0  0  0  0  0  0
   -3.3445   16.1135   40.5316 C   0  0  0  0  0  0  0  0  0  0  0  0
   -2.3702   15.8953   39.5692 C   0  0  0  0  0  0  0  0  0  0  0  0
   -1.0345   15.9506   39.9575 C   0  0  0  0  0  0  0  0  0  0  0  0
    1.2028   16.5810   42.8951 C   0  0  0  0  0  0  0  0  0  0  0  0
    3.2555   16.2129   38.1857 C   0  0  0  0  0  0  0  0  0  0  0  0
    3.4349   16.4418   36.8203 C   0  0  0  0  0  0  0  0  0  0  0  0
    4.1290   16.2690   40.4781 N   0  0  0  0  0  0  0  0  0  0  0  0
    1.7379   16.2122   40.6306 N   0  0  0  0  0  0  0  0  0  0  0  0
    5.8928   17.7935   34.4840 O   0  0  0  0  0  0  0  0  0  0  0  0
    3.8545   16.9587   34.0434 O   0  0  0  0  0  0  0  0  0  0  0  0
    2.3471   16.3960   35.9811 O   0  0  0  0  0  0  0  0  0  0  0  0
    2.9117   16.7991   42.8958 S   0  0  0  0  0  0  0  0  0  0  0  0
   -5.0091   16.0734   40.0531 Cl  0  0  0  0  0  0  0  0  0  0  0  0
    6.7116   17.2234   36.7730 H   0  0  0  0  0  0  0  0  0  0  0  0
    6.3708   17.1008   39.2311 H   0  0  0  0  0  0  0  0  0  0  0  0
   -1.4219   16.6435   43.2646 H   0  0  0  0  0  0  0  0  0  0  0  0
   -3.8221   16.4950   42.6047 H   0  0  0  0  0  0  0  0  0  0  0  0
   -2.6458   15.6839   38.5255 H   0  0  0  0  0  0  0  0  0  0  0  0
   -0.2484   15.7969   39.2036 H   0  0  0  0  0  0  0  0  0  0  0  0
    0.5637   16.6631   43.7866 H   0  0  0  0  0  0  0  0  0  0  0  0
    2.2680   15.9168   38.5694 H   0  0  0  0  0  0  0  0  0  0  0  0
    4.9921   16.1664   41.0307 H   0  0  0  0  0  0  0  0  0  0  0  0
  1  2  1  0
  1 19  1  0
  1 20  2  0
  2  3  1  0
  2 16  2  0
  3  4  2  0
  4  5  1  0
  5 15  2  0
  5 17  1  0
  6 17  1  0
  6 18  2  0
  6 22  1  0
  7  8  1  0
  7 14  2  0
  7 18  1  0
  8  9  1  0
  8 13  2  0
  9 10  2  0
 10 11  1  0
 11 12  2  0
 11 23  1  0
 12 13  1  0
 14 22  1  0
 15 16  1  0
 16 21  1  0
  3 24  1  0
  4 25  1  0
  9 26  1  0
 10 27  1  0
 12 28  1  0
 13 29  1  0
 14 30  1  0
 15 31  1  0
 17 32  1  0
M  CHG  2  19  -1  21  -1
M  END
>  <mol_id>  (91) 
2026-08-24-6tgu-s0-n100-0091

>  <rmsd_to_ref>  (91) 
4.586734693881312

>  <pose_kind>  (91) 
rigid

$$$$
6tgu.A
     RDKit          3D

 32 34  0  0  0  0  0  0  0  0999 V2000
    7.2547   19.0180   40.1657 C   0  0  0  0  0  0  0  0  0  0  0  0
    5.8712   19.4158   40.3976 C   0  0  0  0  0  0  0  0  0  0  0  0
    5.2988   20.3312   39.5735 C   0  0  0  0  0  0  0  0  0  0  0  0
    3.9901   20.7007   39.7509 C   0  0  0  0  0  0  0  0  0  0  0  0
    3.2875   20.1137   40.7882 C   0  0  0  0  0  0  0  0  0  0  0  0
    0.9637   19.4791   40.6037 C   0  0  0  0  0  0  0  0  0  0  0  0
   -0.4848   17.8095   40.1750 C   0  0  0  0  0  0  0  0  0  0  0  0
   -1.5162   16.8957   40.7233 C   0  0  0  0  0  0  0  0  0  0  0  0
   -1.8928   16.9057   42.0440 C   0  0  0  0  0  0  0  0  0  0  0  0
   -2.8596   16.0417   42.5159 C   0  0  0  0  0  0  0  0  0  0  0  0
   -3.4823   15.1372   41.6831 C   0  0  0  0  0  0  0  0  0  0  0  0
   -3.1113   15.1097   40.3343 C   0  0  0  0  0  0  0  0  0  0  0  0
   -2.1444   15.9854   39.8919 C   0  0  0  0  0  0  0  0  0  0  0  0
   -0.1480   17.7903   38.8594 C   0  0  0  0  0  0  0  0  0  0  0  0
    3.8263   19.1841   41.6474 C   0  0  0  0  0  0  0  0  0  0  0  0
    5.1460   18.8313   41.4432 C   0  0  0  0  0  0  0  0  0  0  0  0
    1.9024   20.5400   40.8790 N   0  0  0  0  0  0  0  0  0  0  0  0
    0.1667   18.7083   40.8898 N   0  0  0  0  0  0  0  0  0  0  0  0
    7.9378   18.0835   40.9191 O   0  0  0  0  0  0  0  0  0  0  0  0
    7.9059   19.5502   39.2099 O   0  0  0  0  0  0  0  0  0  0  0  0
    5.7826   17.9017   42.2602 O   0  0  0  0  0  0  0  0  0  0  0  0
    1.1238   19.1076   38.7157 S   0  0  0  0  0  0  0  0  0  0  0  0
   -4.7149   14.0162   42.2303 Cl  0  0  0  0  0  0  0  0  0  0  0  0
    5.8478   20.8030   38.7523 H   0  0  0  0  0  0  0  0  0  0  0  0
    3.5169   21.4326   39.0952 H   0  0  0  0  0  0  0  0  0  0  0  0
   -1.4104   17.6234   42.7264 H   0  0  0  0  0  0  0  0  0  0  0  0
   -3.1428   16.0840   43.5653 H   0  0  0  0  0  0  0  0  0  0  0  0
   -3.5645   14.4254   39.6341 H   0  0  0  0  0  0  0  0  0  0  0  0
   -1.8674   15.9532   38.8677 H   0  0  0  0  0  0  0  0  0  0  0  0
   -0.4787   17.1844   37.9892 H   0  0  0  0  0  0  0  0  0  0  0  0
    3.2397   18.7492   42.4423 H   0  0  0  0  0  0  0  0  0  0  0  0
    1.6371   21.4999   41.1199 H   0  0  0  0  0  0  0  0  0  0  0  0
  1  2  1  0
  1 19  1  0
  1 20  2  0
  2  3  1  0
  2 16  2  0
  3  4  2  0
  4  5  1  0
  5 15  2  0
  5 17  1  0
  6 17  1  0
  6 18  2  0
  6 22  1  0
  7  8  1  0
  7 14  2  0
  7 18  1  0
  8  9  1  0
  8 13  2  0
  9 10  2  0
 10 11  1  0
 11 12  2  0
 11 23  1  0
 12 13  1  0
 14 22  1  0
 15 16  1  0
 16 21  1  0
  3 24  1  0
  4 25  1  0
  9 26  1  0
 10 27  1  0
 12 28  1  0
 13 29  1  0
 14 30  1  0
 15 31  1  0
 17 32  1  0
M  CHG  2  19  -1  21  -1
M  END
>  <mol_id>  (92) 
2026-08-24-6tgu-s0-n100-0092

>  <rmsd_to_ref>  (92) 
4.632653061227428

>  <pose_kind>  (92) 
conformer

$$$$
6tgu.A
     RDKit          3D

 32 34  0  0  0  0  0  0  0  0999 V2000
   -1.1560   20.0498   41.4047 C   0  0  0  0  0  0  0  0  0  0  0  0
    0.1506   19.4934   41.9773 C   0  0  0  0  0  0  0  0  0  0  0  0
    0.5556   19.8263   43.2680 C   0  0  0  0  0  0  0  0  0  0  0  0
    1.6357   19.1943   43.8929 C   0  0  0  0  0  0  0  0  0  0  0  0
    2.4579   18.3217   43.1654 C   0  0  0  0  0  0  0  0  0  0  0  0
    4.1378   16.4411   43.4888 C   0  0  0  0  0  0  0  0  0  0  0  0
    4.6554   14.6030   42.2523 C   0  0  0  0  0  0  0  0  0  0  0  0
    4.6192   13.7487   41.0648 C   0  0  0  0  0  0  0  0  0  0  0  0
    5.2180   12.4810   41.0427 C   0  0  0  0  0  0  0  0  0  0  0  0
    5.1426   11.6710   39.9139 C   0  0  0  0  0  0  0  0  0  0  0  0
    4.4252   12.1208   38.8215 C   0  0  0  0  0  0  0  0  0  0  0  0
    3.8128   13.3649   38.8028 C   0  0  0  0  0  0  0  0  0  0  0  0
    3.9092   14.1654   39.9377 C   0  0  0  0  0  0  0  0  0  0  0  0
    5.2793   14.2611   43.4228 C   0  0  0  0  0  0  0  0  0  0  0  0
    2.0584   17.9676   41.8688 C   0  0  0  0  0  0  0  0  0  0  0  0
    0.9275   18.5591   41.3028 C   0  0  0  0  0  0  0  0  0  0  0  0
    3.5253   17.6196   43.8048 N   0  0  0  0  0  0  0  0  0  0  0  0
    3.9124   15.8067   42.2857 N   0  0  0  0  0  0  0  0  0  0  0  0
   -1.9065   20.6729   42.2120 O   0  0  0  0  0  0  0  0  0  0  0  0
   -1.4142   19.7762   40.2122 O   0  0  0  0  0  0  0  0  0  0  0  0
    0.4858   18.1286   40.0742 O   0  0  0  0  0  0  0  0  0  0  0  0
    4.9527   15.4184   44.6565 S   0  0  0  0  0  0  0  0  0  0  0  0
    4.2882   11.1060   37.4240 Cl  0  0  0  0  0  0  0  0  0  0  0  0
    0.0091   20.6103   43.8125 H   0  0  0  0  0  0  0  0  0  0  0  0
    1.8406   19.3821   44.9572 H   0  0  0  0  0  0  0  0  0  0  0  0
    5.7560   12.1211   41.9320 H   0  0  0  0  0  0  0  0  0  0  0  0
    5.6440   10.6922   39.8913 H   0  0  0  0  0  0  0  0  0  0  0  0
    3.2648   13.7104   37.9138 H   0  0  0  0  0  0  0  0  0  0  0  0
    3.4149   15.1480   39.9463 H   0  0  0  0  0  0  0  0  0  0  0  0
    5.9055   13.3668   43.5572 H   0  0  0  0  0  0  0  0  0  0  0  0
    2.6352   17.2248   41.2984 H   0  0  0  0  0  0  0  0  0  0  0  0
    3.8958   18.0811   44.6478 H   0  0  0  0  0  0  0  0  0  0  0  0
  1  2  1  0
  1 19  1  0
  1 20  2  0
  2  3  1  0
  2 16  2  0
  3  4  2  0
  4  5  1  0
  5 15  2  0
  5 17  1  0
  6 17  1  0
  6 18  2  0
  6 22  1  0
  7  8  1  0
  7 14  2  0
  7 18  1  0
  8  9  1  0
  8 13  2  0
  9 10  2  0
 10 11  1  0
 11 12  2  0
 11 23  1  0
 12 13  1  0
 14 22  1  0
 15 16  1  0
 16 21  1  0
  3 24  1  0
  4 25  1  0
  9 26  1  0
 10 27  1  0
 12 28  1  0
 13 29  1  0
 14 30  1  0
 15 31  1  0
 17 32  1  0
M  CHG  2  19  -1  21  -1
M  END
>  <mol_id>  (93) 
2026-08-24-6tgu-s0-n100-0093

>  <rmsd_to_ref>  (93) 
4.678571428571433

>  <pose_kind>  (93) 
rigid

$$$$
6tgu.A
     RDKit          3D

 32 34  0  0  0  0  0  0  0  0999 V2000
   -1.1455   22.3631   36.2438 C   0  0  0  0  0  0  0  0  0  0  0  0
   -0.5041   21.1972   36.8399 C   0  0  0  0  0  0  0  0  0  0  0  0
    0.8372   21.0358   36.6999 C   0  0  0  0  0  0  0  0  0  0  0  0
    1.4701   19.9642   37.2759 C   0  0  0  0  0  0  0  0  0  0  0  0
    0.6990   19.0670   37.9932 C   0  0  0  0  0  0  0  0  0  0  0  0
    1.4589   18.0255   40.0363 C   0  0  0  0  0  0  0  0  0  0  0  0
    1.4456   18.1048   42.2865 C   0  0  0  0  0  0  0  0  0  0  0  0
    0.9801   17.4703   43.5436 C   0  0  0  0  0  0  0  0  0  0  0  0
    0.2019   16.3388   43.5622 C   0  0  0  0  0  0  0  0  0  0  0  0
   -0.2084   15.7757   44.7532 C   0  0  0  0  0  0  0  0  0  0  0  0
    0.1446   16.3257   45.9666 C   0  0  0  0  0  0  0  0  0  0  0  0
    0.9354   17.4800   45.9691 C   0  0  0  0  0  0  0  0  0  0  0  0
    1.3312   18.0184   44.7646 C   0  0  0  0  0  0  0  0  0  0  0  0
    2.2316   19.2122   42.3002 C   0  0  0  0  0  0  0  0  0  0  0  0
   -0.6611   19.1896   38.1600 C   0  0  0  0  0  0  0  0  0  0  0  0
   -1.2702   20.2793   37.5690 C   0  0  0  0  0  0  0  0  0  0  0  0
    1.4577   17.9844   38.5939 N   0  0  0  0  0  0  0  0  0  0  0  0
    1.1614   17.6548   41.0781 N   0  0  0  0  0  0  0  0  0  0  0  0
   -2.4937   22.6480   36.3358 O   0  0  0  0  0  0  0  0  0  0  0  0
   -0.4413   23.1957   35.5866 O   0  0  0  0  0  0  0  0  0  0  0  0
   -2.6415   20.4907   37.6777 O   0  0  0  0  0  0  0  0  0  0  0  0
    2.5318   19.5559   40.5211 S   0  0  0  0  0  0  0  0  0  0  0  0
   -0.3507   15.6526   47.5083 Cl  0  0  0  0  0  0  0  0  0  0  0  0
    1.4547   21.7389   36.1318 H   0  0  0  0  0  0  0  0  0  0  0  0
    2.5469   19.8235   37.1738 H   0  0  0  0  0  0  0  0  0  0  0  0
   -0.0885   15.8806   42.6035 H   0  0  0  0  0  0  0  0  0  0  0  0
   -0.8142   14.8725   44.7323 H   0  0  0  0  0  0  0  0  0  0  0  0
    1.2449   17.9547   46.8872 H   0  0  0  0  0  0  0  0  0  0  0  0
    1.9273   18.8965   44.7779 H   0  0  0  0  0  0  0  0  0  0  0  0
    2.6546   19.8457   43.1087 H   0  0  0  0  0  0  0  0  0  0  0  0
   -1.2233   18.4665   38.7310 H   0  0  0  0  0  0  0  0  0  0  0  0
    1.9336   17.2699   38.0345 H   0  0  0  0  0  0  0  0  0  0  0  0
  1  2  1  0
  1 19  1  0
  1 20  2  0
  2  3  1  0
  2 16  2  0
  3  4  2  0
  4  5  1  0
  5 15  2  0
  5 17  1  0
  6 17  1  0
  6 18  2  0
  6 22  1  0
  7  8  1  0
  7 14  2  0
  7 18  1  0
  8  9  1  0
  8 13  2  0
  9 10  2  0
 10 11  1  0
 11 12  2  0
 11 23  1  0
 12 13  1  0
 14 22  1  0
 15 16  1  0
 16 21  1  0
  3 24  1  0
  4 25  1  0
  9 26  1  0
 10 27  1  0
 12 28  1  0
 13 29  1  0
 14 30  1  0
 15 31  1  0
 17 32  1  0
M  CHG  2  19  -1  21  -1
M  END
>  <mol_id>  (94) 
2026-08-24-6tgu-s0-n100-0094

>  <rmsd_to_ref>  (94) 
4.724489795920653

>  <pose_kind>  (94) 
conformer

$$$$
6tgu.A
     RDKit          3D

 32 34  0  0  0  0  0  0  0  0999 V2000
    4.3524   13.8061   36.1107 C   0  0  0  0  0  0  0  0  0  0  0  0
    4.4947   14.7640   37.2967 C   0  0  0  0  0  0  0  0  0  0  0  0
    5.2532   15.9267   37.1798 C   0  0  0  0  0  0  0  0  0  0  0  0
    5.2532   16.9152   38.1693 C   0  0  0  0  0  0  0  0  0  0  0  0
    4.6190   16.6814   39.3981 C   0  0  0  0  0  0  0  0  0  0  0  0
    3.6648   17.9119   41.4078 C   0  0  0  0  0  0  0  0  0  0  0  0
    1.9315   17.4652   42.8120 C   0  0  0  0  0  0  0  0  0  0  0  0
    0.8743   16.6381   43.3945 C   0  0  0  0  0  0  0  0  0  0  0  0
   -0.0312   17.1447   44.3376 C   0  0  0  0  0  0  0  0  0  0  0  0
   -1.0501   16.3501   44.8537 C   0  0  0  0  0  0  0  0  0  0  0  0
   -1.1837   15.0564   44.3859 C   0  0  0  0  0  0  0  0  0  0  0  0
   -0.3142   14.5170   43.4499 C   0  0  0  0  0  0  0  0  0  0  0  0
    0.7058   15.3244   42.9540 C   0  0  0  0  0  0  0  0  0  0  0  0
    2.1440   18.7784   43.1387 C   0  0  0  0  0  0  0  0  0  0  0  0
    3.8423   15.5213   39.5283 C   0  0  0  0  0  0  0  0  0  0  0  0
    3.8006   14.5910   38.4882 C   0  0  0  0  0  0  0  0  0  0  0  0
    4.5551   17.7040   40.3939 N   0  0  0  0  0  0  0  0  0  0  0  0
    2.7272   16.9628   41.7553 N   0  0  0  0  0  0  0  0  0  0  0  0
    4.8105   14.2088   35.0011 O   0  0  0  0  0  0  0  0  0  0  0  0
    3.7266   12.7425   36.3129 O   0  0  0  0  0  0  0  0  0  0  0  0
    2.9555   13.5110   38.5842 O   0  0  0  0  0  0  0  0  0  0  0  0
    3.3427   19.4810   42.1202 S   0  0  0  0  0  0  0  0  0  0  0  0
   -2.4726   14.0682   44.9891 Cl  0  0  0  0  0  0  0  0  0  0  0  0
    5.8712   16.0718   36.2814 H   0  0  0  0  0  0  0  0  0  0  0  0
    5.7517   17.8780   37.9833 H   0  0  0  0  0  0  0  0  0  0  0  0
    0.0655   18.1873   44.6748 H   0  0  0  0  0  0  0  0  0  0  0  0
   -1.7356   16.7436   45.6187 H   0  0  0  0  0  0  0  0  0  0  0  0
   -0.4275   13.4777   43.1080 H   0  0  0  0  0  0  0  0  0  0  0  0
    1.3941   14.9181   42.1982 H   0  0  0  0  0  0  0  0  0  0  0  0
    1.6191   19.3131   43.9440 H   0  0  0  0  0  0  0  0  0  0  0  0
    3.2666   15.3444   40.4488 H   0  0  0  0  0  0  0  0  0  0  0  0
    5.3091   18.4034   40.3372 H   0  0  0  0  0  0  0  0  0  0  0  0
  1  2  1  0
  1 19  1  0
  1 20  2  0
  2  3  1  0
  2 16  2  0
  3  4  2  0
  4  5  1  0
  5 15  2  0
  5 17  1  0
  6 17  1  0
  6 18  2  0
  6 22  1  0
  7  8  1  0
  7 14  2  0
  7 18  1  0
  8  9  1  0
  8 13  2  0
  9 10  2  0
 10 11  1  0
 11 12  2  0
 11 23  1  0
 12 13  1  0
 14 22  1  0
 15 16  1  0
 16 21  1  0
  3 24  1  0
  4 25  1  0
  9 26  1  0
 10 27  1  0
 12 28  1  0
 13 29  1  0
 14 30  1  0
 15 31  1  0
 17 32  1  0
M  CHG  2  19  -1  21  -1
M  END
>  <mol_id>  (95) 
2026-08-24-6tgu-s0-n100-0095

>  <rmsd_to_ref>  (95) 
4.770408163270237

>  <pose_kind>  (95) 
rigid

$$$$
6tgu.A
     RDKit          3D

 32 34  0  0  0  0  0  0  0  0999 V2000
    7.5589   16.3101   40.6805 C   0  0  0  0  0  0  0  0  0  0  0  0
    6.2792   16.6853   41.2700 C   0  0  0  0  0  0  0  0  0  0  0  0
    5.8313   17.9591   41.1239 C   0  0  0  0  0  0  0  0  0  0  0  0
    4.6173   18.3307   41.6425 C   0  0  0  0  0  0  0  0  0  0  0  0
    3.8791   17.3708   42.3116 C   0  0  0  0  0  0  0  0  0  0  0  0
    1.4742   17.2134   42.1436 C   0  0  0  0  0  0  0  0  0  0  0  0
   -0.2617   16.2137   41.1155 C   0  0  0  0  0  0  0  0  0  0  0  0
   -1.4054   15.2789   41.2472 C   0  0  0  0  0  0  0  0  0  0  0  0
   -1.7048   14.6300   42.4201 C   0  0  0  0  0  0  0  0  0  0  0  0
   -2.7804   13.7699   42.5041 C   0  0  0  0  0  0  0  0  0  0  0  0
   -3.5929   13.5281   41.4174 C   0  0  0  0  0  0  0  0  0  0  0  0
   -3.3034   14.1779   40.2125 C   0  0  0  0  0  0  0  0  0  0  0  0
   -2.2242   15.0322   40.1595 C   0  0  0  0  0  0  0  0  0  0  0  0
   -0.0026   16.8567   39.9477 C   0  0  0  0  0  0  0  0  0  0  0  0
    4.2933   16.0703   42.4847 C   0  0  0  0  0  0  0  0  0  0  0  0
    5.5196   15.7257   41.9506 C   0  0  0  0  0  0  0  0  0  0  0  0
    2.5952   17.8450   42.7968 N   0  0  0  0  0  0  0  0  0  0  0  0
    0.5720   16.5099   42.0956 N   0  0  0  0  0  0  0  0  0  0  0  0
    8.1087   15.0446   40.7420 O   0  0  0  0  0  0  0  0  0  0  0  0
    8.2414   17.1869   40.0589 O   0  0  0  0  0  0  0  0  0  0  0  0
    6.0278   14.4361   42.0746 O   0  0  0  0  0  0  0  0  0  0  0  0
    1.4685   17.8863   40.3338 S   0  0  0  0  0  0  0  0  0  0  0  0
   -4.9704   12.4440   41.4685 Cl  0  0  0  0  0  0  0  0  0  0  0  0
    6.4098   18.7259   40.5987 H   0  0  0  0  0  0  0  0  0  0  0  0
    4.2441   19.3494   41.5304 H   0  0  0  0  0  0  0  0  0  0  0  0
   -1.0705   14.8119   43.3022 H   0  0  0  0  0  0  0  0  0  0  0  0
   -2.9967   13.2814   43.4516 H   0  0  0  0  0  0  0  0  0  0  0  0
   -3.9043   14.0300   39.3286 H   0  0  0  0  0  0  0  0  0  0  0  0
   -2.0110   15.5165   39.2394 H   0  0  0  0  0  0  0  0  0  0  0  0
   -0.4783   16.8506   38.9439 H   0  0  0  0  0  0  0  0  0  0  0  0
    3.6828   15.3530   43.0118 H   0  0  0  0  0  0  0  0  0  0  0  0
    2.5130   18.5536   43.5323 H   0  0  0  0  0  0  0  0  0  0  0  0
  1  2  1  0
  1 19  1  0
  1 20  2  0
  2  3  1  0
  2 16  2  0
  3  4  2  0
  4  5  1  0
  5 15  2  0
  5 17  1  0
  6 17  1  0
  6 18  2  0
  6 22  1  0
  7  8  1  0
  7 14  2  0
  7 18  1  0
  8  9  1  0
  8 13  2  0
  9 10  2  0
 10 11  1  0
 11 12  2  0
 11 23  1  0
 12 13  1  0
 14 22  1  0
 15 16  1  0
 16 21  1  0
  3 24  1  0
  4 25  1  0
  9 26  1  0
 10 27  1  0
 12 28  1  0
 13 29  1  0
 14 30  1  0
 15 31  1  0
 17 32  1  0
M  CHG  2  19  -1  21  -1
M  END
>  <mol_id>  (96) 
2026-08-24-6tgu-s0-n100-0096

>  <rmsd_to_ref>  (96) 
4.816326530619494

>  <pose_kind>  (96) 
conformer

$$$$
6tgu.A
     RDKit          3D

 32 34  0  0  0  0  0  0  0  0999 V2000
    4.1026   15.2472   37.4821 C   0  0  0  0  0  0  0  0  0  0  0  0
    3.0535   16.3127   37.8122 C   0  0  0  0  0  0  0  0  0  0  0  0
    2.3781   16.9800   36.7928 C   0  0  0  0  0  0  0  0  0  0  0  0
    1.2866   17.8162   37.0493 C   0  0  0  0  0  0  0  0  0  0  0  0
    0.9476   18.1465   38.3694 C   0  0  0  0  0  0  0  0  0  0  0  0
   -0.9885   19.0242   39.7637 C   0  0  0  0  0  0  0  0  0  0  0  0
   -1.6431   18.6451   41.9093 C   0  0  0  0  0  0  0  0  0  0  0  0
   -1.4934   18.1339   43.2722 C   0  0  0  0  0  0  0  0  0  0  0  0
   -2.5326   18.2043   44.2108 C   0  0  0  0  0  0  0  0  0  0  0  0
   -2.3803   17.6816   45.4913 C   0  0  0  0  0  0  0  0  0  0  0  0
   -1.1946   17.0478   45.8121 C   0  0  0  0  0  0  0  0  0  0  0  0
   -0.1434   16.9507   44.9129 C   0  0  0  0  0  0  0  0  0  0  0  0
   -0.3111   17.4899   43.6405 C   0  0  0  0  0  0  0  0  0  0  0  0
   -2.7808   19.2440   41.4368 C   0  0  0  0  0  0  0  0  0  0  0  0
    1.6101   17.4754   39.4072 C   0  0  0  0  0  0  0  0  0  0  0  0
    2.6443   16.5852   39.1121 C   0  0  0  0  0  0  0  0  0  0  0  0
   -0.2021   18.9466   38.6505 N   0  0  0  0  0  0  0  0  0  0  0  0
   -0.6282   18.4199   40.9494 N   0  0  0  0  0  0  0  0  0  0  0  0
    4.1921   14.8996   36.2680 O   0  0  0  0  0  0  0  0  0  0  0  0
    4.7275   14.7498   38.4443 O   0  0  0  0  0  0  0  0  0  0  0  0
    3.2154   15.8558   40.1278 O   0  0  0  0  0  0  0  0  0  0  0  0
   -2.6632   19.5422   39.7441 S   0  0  0  0  0  0  0  0  0  0  0  0
   -1.0057   16.3562   47.3893 Cl  0  0  0  0  0  0  0  0  0  0  0  0
    2.7137   16.8451   35.7539 H   0  0  0  0  0  0  0  0  0  0  0  0
    0.6929   18.2155   36.2138 H   0  0  0  0  0  0  0  0  0  0  0  0
   -3.4838   18.6804   43.9303 H   0  0  0  0  0  0  0  0  0  0  0  0
   -3.1873   17.7711   46.2334 H   0  0  0  0  0  0  0  0  0  0  0  0
    0.7990   16.4601   45.1979 H   0  0  0  0  0  0  0  0  0  0  0  0
    0.5063   17.4066   42.9090 H   0  0  0  0  0  0  0  0  0  0  0  0
   -3.6533   19.5004   42.0557 H   0  0  0  0  0  0  0  0  0  0  0  0
    1.3153   17.6501   40.4524 H   0  0  0  0  0  0  0  0  0  0  0  0
   -0.4860   19.5714   37.8824 H   0  0  0  0  0  0  0  0  0  0  0  0
  1  2  1  0
  1 19  1  0
  1 20  2  0
  2  3  1  0
  2 16  2  0
  3  4  2  0
  4  5  1  0
  5 15  2  0
  5 17  1  0
  6 17  1  0
  6 18  2  0
  6 22  1  0
  7  8  1  0
  7 14  2  0
  7 18  1  0
  8  9  1  0
  8 13  2  0
  9 10  2  0
 10 11  1  0
 11 12  2  0
 11 23  1  0
 12 13  1  0
 14 22  1  0
 15 16  1  0
 16 21  1  0
  3 24  1  0
  4 25  1  0
  9 26  1  0
 10 27  1  0
 12 28  1  0
 13 29  1  0
 14 30  1  0
 15 31  1  0
 17 32  1  0
M  CHG  2  19  -1  21  -1
M  END
>  <mol_id>  (97) 
2026-08-24-6tgu-s0-n100-0097

>  <rmsd_to_ref>  (97) 
4.862244897962415

>  <pose_kind>  (97) 
rigid

$$$$
6tgu.A
     RDKit          3D

 32 34  0  0  0  0  0  0  0  0999 V2000
    6.9509   15.5228   38.1474 C   0  0  0  0  0  0  0  0  0  0  0  0
    5.8462   16.2257   38.7890 C   0  0  0  0  0  0  0  0  0  0  0  0
    5.4516   17.4282   38.2961 C   0  0  0  0  0  0  0  0  0  0  0  0
    4.3961   18.0964   38.8619 C   0  0  0  0  0  0  0  0  0  0  0  0
    3.7600   17.5061   39.9394 C   0  0  0  0  0  0  0  0  0  0  0  0
    1.3680   17.6038   40.2643 C   0  0  0  0  0  0  0  0  0  0  0  0
   -0.5988   16.5489   39.9667 C   0  0  0  0  0  0  0  0  0  0  0  0
   -1.7416   15.8579   40.6116 C   0  0  0  0  0  0  0  0  0  0  0  0
   -1.8262   15.6682   41.9693 C   0  0  0  0  0  0  0  0  0  0  0  0
   -2.9082   15.0232   42.5326 C   0  0  0  0  0  0  0  0  0  0  0  0
   -3.9422   14.5447   41.7571 C   0  0  0  0  0  0  0  0  0  0  0  0
   -3.8738   14.7261   40.3714 C   0  0  0  0  0  0  0  0  0  0  0  0
   -2.7822   15.3752   39.8381 C   0  0  0  0  0  0  0  0  0  0  0  0
   -0.5528   16.7398   38.6229 C   0  0  0  0  0  0  0  0  0  0  0  0
    4.1258   16.2916   40.4722 C   0  0  0  0  0  0  0  0  0  0  0  0
    5.1916   15.6421   39.8807 C   0  0  0  0  0  0  0  0  0  0  0  0
    2.6351   18.2684   40.4514 N   0  0  0  0  0  0  0  0  0  0  0  0
    0.4368   17.0412   40.6214 N   0  0  0  0  0  0  0  0  0  0  0  0
    7.4278   14.2880   38.5412 O   0  0  0  0  0  0  0  0  0  0  0  0
    7.5377   16.0577   37.1521 O   0  0  0  0  0  0  0  0  0  0  0  0
    5.6396   14.4101   40.3479 O   0  0  0  0  0  0  0  0  0  0  0  0
    1.0232   17.6471   38.3650 S   0  0  0  0  0  0  0  0  0  0  0  0
   -5.3386   13.7167   42.4204 Cl  0  0  0  0  0  0  0  0  0  0  0  0
    5.9507   17.9042   37.4460 H   0  0  0  0  0  0  0  0  0  0  0  0
    4.0669   19.0615   38.4749 H   0  0  0  0  0  0  0  0  0  0  0  0
   -1.0123   16.0463   42.6081 H   0  0  0  0  0  0  0  0  0  0  0  0
   -2.9495   14.9002   43.6126 H   0  0  0  0  0  0  0  0  0  0  0  0
   -4.6535   14.3752   39.7133 H   0  0  0  0  0  0  0  0  0  0  0  0
   -2.7384   15.5036   38.7853 H   0  0  0  0  0  0  0  0  0  0  0  0
   -1.2271   16.4671   37.7833 H   0  0  0  0  0  0  0  0  0  0  0  0
    3.5986   15.8665   41.3127 H   0  0  0  0  0  0  0  0  0  0  0  0
    2.7491   19.1820   40.9011 H   0  0  0  0  0  0  0  0  0  0  0  0
  1  2  1  0
  1 19  1  0
  1 20  2  0
  2  3  1  0
  2 16  2  0
  3  4  2  0
  4  5  1  0
  5 15  2  0
  5 17  1  0
  6 17  1  0
  6 18  2  0
  6 22  1  0
  7  8  1  0
  7 14  2  0
  7 18  1  0
  8  9  1  0
  8 13  2  0
  9 10  2  0
 10 11  1  0
 11 12  2  0
 11 23  1  0
 12 13  1  0
 14 22  1  0
 15 16  1  0
 16 21  1  0
  3 24  1  0
  4 25  1  0
  9 26  1  0
 10 27  1  0
 12 28  1  0
 13 29  1  0
 14 30  1  0
 15 31  1  0
 17 32  1  0
M  CHG  2  19  -1  21  -1
M  END
>  <mol_id>  (98) 
2026-08-24-6tgu-s0-n100-0098

>  <rmsd_to_ref>  (98) 
4.908163265306609

>  <pose_kind>  (98) 
conformer

$$$$
6tgu.A
     RDKit          3D

 32 34  0  0  0  0  0  0  0  0999 V2000
   -2.0555   19.3186   41.7884 C   0  0  0  0  0  0  0  0  0  0  0  0
   -0.5329   19.4437   41.8917 C   0  0  0  0  0  0  0  0  0  0  0  0
    0.0462   20.5654   42.4809 C   0  0  0  0  0  0  0  0  0  0  0  0
    1.4143   20.6317   42.7644 C   0  0  0  0  0  0  0  0  0  0  0  0
    2.2790   19.6302   42.2996 C   0  0  0  0  0  0  0  0  0  0  0  0
    4.5822   18.6400   42.7218 C   0  0  0  0  0  0  0  0  0  0  0  0
    5.4200   16.5351   42.5140 C   0  0  0  0  0  0  0  0  0  0  0  0
    5.3982   15.1329   42.0962 C   0  0  0  0  0  0  0  0  0  0  0  0
    6.4167   14.2362   42.4492 C   0  0  0  0  0  0  0  0  0  0  0  0
    6.3592   12.8988   42.0697 C   0  0  0  0  0  0  0  0  0  0  0  0
    5.2523   12.4546   41.3713 C   0  0  0  0  0  0  0  0  0  0  0  0
    4.2199   13.3057   41.0066 C   0  0  0  0  0  0  0  0  0  0  0  0
    4.3013   14.6427   41.3858 C   0  0  0  0  0  0  0  0  0  0  0  0
    6.4239   17.0971   43.2576 C   0  0  0  0  0  0  0  0  0  0  0  0
    1.7114   18.4894   41.7144 C   0  0  0  0  0  0  0  0  0  0  0  0
    0.3310   18.4213   41.5176 C   0  0  0  0  0  0  0  0  0  0  0  0
    3.6677   19.6499   42.6350 N   0  0  0  0  0  0  0  0  0  0  0  0
    4.3034   17.3685   42.2676 N   0  0  0  0  0  0  0  0  0  0  0  0
   -2.7371   20.1893   42.4052 O   0  0  0  0  0  0  0  0  0  0  0  0
   -2.5022   18.3254   41.1737 O   0  0  0  0  0  0  0  0  0  0  0  0
   -0.2248   17.2581   41.0402 O   0  0  0  0  0  0  0  0  0  0  0  0
    6.0209   18.7065   43.7213 S   0  0  0  0  0  0  0  0  0  0  0  0
    5.1475   10.7833   40.9274 Cl  0  0  0  0  0  0  0  0  0  0  0  0
   -0.5922   21.4256   42.7310 H   0  0  0  0  0  0  0  0  0  0  0  0
    1.8128   21.4711   43.3532 H   0  0  0  0  0  0  0  0  0  0  0  0
    7.2750   14.5959   43.0357 H   0  0  0  0  0  0  0  0  0  0  0  0
    7.1784   12.2088   42.3205 H   0  0  0  0  0  0  0  0  0  0  0  0
    3.3586   12.9338   40.4323 H   0  0  0  0  0  0  0  0  0  0  0  0
    3.4831   15.3280   41.1197 H   0  0  0  0  0  0  0  0  0  0  0  0
    7.3624   16.5884   43.5231 H   0  0  0  0  0  0  0  0  0  0  0  0
    2.3531   17.6491   41.4107 H   0  0  0  0  0  0  0  0  0  0  0  0
    4.0427   20.5853   42.8475 H   0  0  0  0  0  0  0  0  0  0  0  0
  1  2  1  0
  1 19  1  0
  1 20  2  0
  2  3  1  0
  2 16  2  0
  3  4  2  0
  4  5  1  0
  5 15  2  0
  5 17  1  0
  6 17  1  0
  6 18  2  0
  6 22  1  0
  7  8  1  0
  7 14  2  0
  7 18  1  0
  8  9  1  0
  8 13  2  0
  9 10  2  0
 10 11  1  0
 11 12  2  0
 11 23  1  0
 12 13  1  0
 14 22  1  0
 15 16  1  0
 16 21  1  0
  3 24  1  0
  4 25  1  0
  9 26  1  0
 10 27  1  0
 12 28  1  0
 13 29  1  0
 14 30  1  0
 15 31  1  0
 17 32  1  0
M  CHG  2  19  -1  21  -1
M  END
>  <mol_id>  (99) 
2026-08-24-6tgu-s0-n100-0099

>  <rmsd_to_ref>  (99) 
4.95408163265759

>  <pose_kind>  (99) 
rigid

$$$$
6tgu.A
     RDKit          3D

 32 34  0  0  0  0  0  0  0  0999 V2000
    8.2119   18.0954   40.9566 C   0  0  0  0  0  0  0  0  0  0  0  0
    6.8028   18.3921   40.7273 C   0  0  0  0  0  0  0  0  0  0  0  0
    6.4551   19.1848   39.6808 C   0  0  0  0  0  0  0  0  0  0  0  0
    5.1353   19.4553   39.4248 C   0  0  0  0  0  0  0  0  0  0  0  0
    4.1867   18.8978   40.2634 C   0  0  0  0  0  0  0  0  0  0  0  0
    2.0666   18.0552   39.4683 C   0  0  0  0  0  0  0  0  0  0  0  0
    0.9117   16.2392   38.8067 C   0  0  0  0  0  0  0  0  0  0  0  0
   -0.1838   15.2892   39.1178 C   0  0  0  0  0  0  0  0  0  0  0  0
   -0.9414   15.3754   40.2602 C   0  0  0  0  0  0  0  0  0  0  0  0
   -1.9552   14.4741   40.5126 C   0  0  0  0  0  0  0  0  0  0  0  0
   -2.2454   13.4547   39.6316 C   0  0  0  0  0  0  0  0  0  0  0  0
   -1.4836   13.3484   38.4628 C   0  0  0  0  0  0  0  0  0  0  0  0
   -0.4793   14.2637   38.2372 C   0  0  0  0  0  0  0  0  0  0  0  0
    1.6304   16.1408   37.6586 C   0  0  0  0  0  0  0  0  0  0  0  0
    4.4925   18.0909   41.3350 C   0  0  0  0  0  0  0  0  0  0  0  0
    5.8300   17.8359   41.5671 C   0  0  0  0  0  0  0  0  0  0  0  0
    2.8170   19.2109   39.8967 N   0  0  0  0  0  0  0  0  0  0  0  0
    1.2653   17.2456   39.5848 N   0  0  0  0  0  0  0  0  0  0  0  0
    8.6873   17.2873   41.9706 O   0  0  0  0  0  0  0  0  0  0  0  0
    9.0901   18.6009   40.1857 O   0  0  0  0  0  0  0  0  0  0  0  0
    6.2418   17.0338   42.6272 O   0  0  0  0  0  0  0  0  0  0  0  0
    2.8098   17.5450   37.7608 S   0  0  0  0  0  0  0  0  0  0  0  0
   -3.5203   12.2818   39.9039 Cl  0  0  0  0  0  0  0  0  0  0  0  0
    7.1989   19.6326   39.0138 H   0  0  0  0  0  0  0  0  0  0  0  0
    4.8416   20.0881   38.5864 H   0  0  0  0  0  0  0  0  0  0  0  0
   -0.7288   16.1851   40.9762 H   0  0  0  0  0  0  0  0  0  0  0  0
   -2.5439   14.5782   41.4214 H   0  0  0  0  0  0  0  0  0  0  0  0
   -1.6650   12.5729   37.7350 H   0  0  0  0  0  0  0  0  0  0  0  0
    0.0953   14.1713   37.3495 H   0  0  0  0  0  0  0  0  0  0  0  0
    1.6126   15.4397   36.7972 H   0  0  0  0  0  0  0  0  0  0  0  0
    3.7188   17.6744   41.9619 H   0  0  0  0  0  0  0  0  0  0  0  0
    2.4376   20.1614   39.9478 H   0  0  0  0  0  0  0  0  0  0  0  0
  1  2  1  0
  1 19  1  0
  1 20  2  0
  2  3  1  0
  2 16  2  0
  3  4  2  0
  4  5  1  0
  5 15  2  0
  5 17  1  0
  6 17  1  0
  6 18  2  0
  6 22  1  0
  7  8  1  0
  7 14  2  0
  7 18  1  0
  8  9  1  0
  8 13  2  0
  9 10  2  0
 10 11  1  0
 11 12  2  0
 11 23  1  0
 12 13  1  0
 14 22  1  0
 15 16  1  0
 16 21  1  0
  3 24  1  0
  4 25  1  0
  9 26  1  0
 10 27  1  0
 12 28  1  0
 13 29  1  0
 14 30  1  0
 15 31  1  0
 17 32  1  0
M  CHG  2  19  -1  21  -1
M  END
>  <mol_id>  (100) 
2026-08-24-6tgu-s0-n100-0100

>  <rmsd_to_ref>  (100) 
5.000000000005926

>  <pose_kind>  (100) 
conformer

$$$$
