6tgu.A
     RDKit          3D

 32 34  0  0  0  0  0  0  0  0999 V2000
    3.2704   20.0816   36.9100 C   0  0  0  0  0  0  0  0  0  0  0  0
    2.7239   19.8375   38.3194 C   0  0  0  0  0  0  0  0  0  0  0  0
    1.9745   20.8172   38.9669 C   0  0  0  0  0  0  0  0  0  0  0  0
    1.3019   20.5646   40.1670 C   0  0  0  0  0  0  0  0  0  0  0  0
    1.5079   19.3565   40.8488 C   0  0  0  0  0  0  0  0  0  0  0  0
    0.4444   17.8615   42.6087 C   0  0  0  0  0  0  0  0  0  0  0  0
    0.4288   15.6073   42.9153 C   0  0  0  0  0  0  0  0  0  0  0  0
    0.8553   14.2304   42.6635 C   0  0  0  0  0  0  0  0  0  0  0  0
    0.2328   13.1351   43.2790 C   0  0  0  0  0  0  0  0  0  0  0  0
    0.6322   11.8319   42.9995 C   0  0  0  0  0  0  0  0  0  0  0  0
    1.6306   11.6302   42.0652 C   0  0  0  0  0  0  0  0  0  0  0  0
    2.2690   12.6840   41.4288 C   0  0  0  0  0  0  0  0  0  0  0  0
    1.8629   13.9810   41.7304 C   0  0  0  0  0  0  0  0  0  0  0  0
   -0.5843   15.9508   43.7709 C   0  0  0  0  0  0  0  0  0  0  0  0
    2.2504   18.3557   40.2060 C   0  0  0  0  0  0  0  0  0  0  0  0
    2.8437   18.6148   38.9691 C   0  0  0  0  0  0  0  0  0  0  0  0
    0.7803   19.0569   42.0413 N   0  0  0  0  0  0  0  0  0  0  0  0
    0.9791   16.6716   42.1626 N   0  0  0  0  0  0  0  0  0  0  0  0
    2.8674   21.1275   36.3211 O   0  0  0  0  0  0  0  0  0  0  0  0
    4.0035   19.1925   36.4244 O   0  0  0  0  0  0  0  0  0  0  0  0
    3.4800   17.5959   38.3007 O   0  0  0  0  0  0  0  0  0  0  0  0
   -0.9334   17.6347   43.6687 S   0  0  0  0  0  0  0  0  0  0  0  0
    2.1103   10.0114   41.6767 Cl  0  0  0  0  0  0  0  0  0  0  0  0
    1.9097   21.8205   38.5206 H   0  0  0  0  0  0  0  0  0  0  0  0
    0.6099   21.3151   40.5769 H   0  0  0  0  0  0  0  0  0  0  0  0
   -0.5845   13.3089   43.9944 H   0  0  0  0  0  0  0  0  0  0  0  0
    0.1628   10.9792   43.5119 H   0  0  0  0  0  0  0  0  0  0  0  0
    3.0758   12.4998   40.7041 H   0  0  0  0  0  0  0  0  0  0  0  0
    2.3468   14.8280   41.2221 H   0  0  0  0  0  0  0  0  0  0  0  0
   -1.1055   15.2454   44.4348 H   0  0  0  0  0  0  0  0  0  0  0  0
    2.3653   17.3677   40.6757 H   0  0  0  0  0  0  0  0  0  0  0  0
    0.4535   19.8836   42.5615 H   0  0  0  0  0  0  0  0  0  0  0  0
  1  2  1  0
  1 19  1  0
  1 20  2  0
  2  3  1  0
  2 16  2  0
  3  4  2  0
  4  5  1  0
  5 15  2  0
  5 17  1  0
  6 17  1  0
  6 18  2  0
  6 22  1  0
  7  8  1  0
  7 14  2  0
  7 18  1  0
  8  9  1  0
  8 13  2  0
  9 10  2  0
 10 11  1  0
 11 12  2  0
 11 23  1  0
 12 13  1  0
 14 22  1  0
 15 16  1  0
 16 21  1  0
  3 24  1  0
  4 25  1  0
  9 26  1  0
 10 27  1  0
 12 28  1  0
 13 29  1  0
 14 30  1  0
 15 31  1  0
 17 32  1  0
M  CHG  2  19  -1  21  -1
M  END
>  <mol_id>  (1) 
2026-08-24-6tgu-s0-n20-r7-0001

>  <rmsd_to_ref>  (1) 
0.0

>  <pose_kind>  (1) 
native

$$$$
6tgu.A
     RDKit          3D

 32 34  0  0  0  0  0  0  0  0999 V2000
    3.7204   19.8653   37.2225 C   0  0  0  0  0  0  0  0  0  0  0  0
    2.9495   19.6551   38.4363 C   0  0  0  0  0  0  0  0  0  0  0  0
    2.4647   20.7234   39.1235 C   0  0  0  0  0  0  0  0  0  0  0  0
    1.7361   20.5140   40.2714 C   0  0  0  0  0  0  0  0  0  0  0  0
    1.4731   19.2289   40.7624 C   0  0  0  0  0  0  0  0  0  0  0  0
    0.4510   17.7458   42.4483 C   0  0  0  0  0  0  0  0  0  0  0  0
    0.2297   15.5639   42.9316 C   0  0  0  0  0  0  0  0  0  0  0  0
    0.5321   14.1759   42.5491 C   0  0  0  0  0  0  0  0  0  0  0  0
    1.2660   13.8523   41.4269 C   0  0  0  0  0  0  0  0  0  0  0  0
    1.5437   12.5496   41.0773 C   0  0  0  0  0  0  0  0  0  0  0  0
    1.0876   11.5092   41.8537 C   0  0  0  0  0  0  0  0  0  0  0  0
    0.3429   11.7997   42.9948 C   0  0  0  0  0  0  0  0  0  0  0  0
    0.0833   13.1186   43.3151 C   0  0  0  0  0  0  0  0  0  0  0  0
   -0.5033   15.8672   44.0538 C   0  0  0  0  0  0  0  0  0  0  0  0
    1.9899   18.1931   40.0233 C   0  0  0  0  0  0  0  0  0  0  0  0
    2.7272   18.3770   38.8635 C   0  0  0  0  0  0  0  0  0  0  0  0
    0.7193   19.0739   41.9462 N   0  0  0  0  0  0  0  0  0  0  0  0
    0.6192   16.6222   42.2578 N   0  0  0  0  0  0  0  0  0  0  0  0
    3.9685   21.1675   36.7536 O   0  0  0  0  0  0  0  0  0  0  0  0
    4.1980   18.9274   36.5382 O   0  0  0  0  0  0  0  0  0  0  0  0
    3.2353   17.2927   38.1409 O   0  0  0  0  0  0  0  0  0  0  0  0
   -0.5734   17.6966   44.0467 S   0  0  0  0  0  0  0  0  0  0  0  0
    1.4022    9.8345   41.4705 Cl  0  0  0  0  0  0  0  0  0  0  0  0
    2.6317   21.7470   38.7987 H   0  0  0  0  0  0  0  0  0  0  0  0
    1.3437   21.3790   40.8277 H   0  0  0  0  0  0  0  0  0  0  0  0
    1.6230   14.6776   40.8186 H   0  0  0  0  0  0  0  0  0  0  0  0
    2.1220   12.3091   40.1922 H   0  0  0  0  0  0  0  0  0  0  0  0
   -0.0344   11.0084   43.6326 H   0  0  0  0  0  0  0  0  0  0  0  0
   -0.4968   13.3210   44.2055 H   0  0  0  0  0  0  0  0  0  0  0  0
   -0.9716   15.2529   44.8220 H   0  0  0  0  0  0  0  0  0  0  0  0
    1.8340   17.1780   40.3303 H   0  0  0  0  0  0  0  0  0  0  0  0
    0.3795   19.9322   42.4208 H   0  0  0  0  0  0  0  0  0  0  0  0
  1  2  1  0
  1 19  1  0
  1 20  2  0
  2  3  1  0
  2 16  2  0
  3  4  2  0
  4  5  1  0
  5 15  2  0
  5 17  1  0
  6 17  1  0
  6 18  2  0
  6 22  1  0
  7  8  1  0
  7 14  2  0
  7 18  1  0
  8  9  1  0
  8 13  2  0
  9 10  2  0
 10 11  1  0
 11 12  2  0
 11 23  1  0
 12 13  1  0
 14 22  1  0
 15 16  1  0
 16 21  1  0
  3 24  1  0
  4 25  1  0
  9 26  1  0
 10 27  1  0
 12 28  1  0
 13 29  1  0
 14 30  1  0
 15 31  1  0
 17 32  1  0
M  CHG  2  19  -1  21  -1
M  END
>  <mol_id>  (2) 
2026-08-24-6tgu-s0-n20-r7-0002

>  <rmsd_to_ref>  (2) 
0.5000000000079763

>  <pose_kind>  (2) 
conformer

$$$$
6tgu.A
     RDKit          3D

 32 34  0  0  0  0  0  0  0  0999 V2000
    3.9061   20.6312   37.6465 C   0  0  0  0  0  0  0  0  0  0  0  0
    3.2503   20.2063   38.9634 C   0  0  0  0  0  0  0  0  0  0  0  0
    2.5311   21.1253   39.7242 C   0  0  0  0  0  0  0  0  0  0  0  0
    1.7633   20.7363   40.8267 C   0  0  0  0  0  0  0  0  0  0  0  0
    1.8363   19.4206   41.3067 C   0  0  0  0  0  0  0  0  0  0  0  0
    0.5532   17.7508   42.7310 C   0  0  0  0  0  0  0  0  0  0  0  0
    0.3562   15.4856   42.6544 C   0  0  0  0  0  0  0  0  0  0  0  0
    0.6992   14.1380   42.1990 C   0  0  0  0  0  0  0  0  0  0  0  0
   -0.0398   13.0115   42.5877 C   0  0  0  0  0  0  0  0  0  0  0  0
    0.2834   11.7430   42.1160 C   0  0  0  0  0  0  0  0  0  0  0  0
    1.3252   11.6154   41.2167 C   0  0  0  0  0  0  0  0  0  0  0  0
    2.0784   12.7032   40.8014 C   0  0  0  0  0  0  0  0  0  0  0  0
    1.7467   13.9625   41.2934 C   0  0  0  0  0  0  0  0  0  0  0  0
   -0.6849   15.7667   43.4991 C   0  0  0  0  0  0  0  0  0  0  0  0
    2.5469   18.4807   40.5466 C   0  0  0  0  0  0  0  0  0  0  0  0
    3.2387   18.8885   39.4046 C   0  0  0  0  0  0  0  0  0  0  0  0
    1.0109   18.9912   42.3909 N   0  0  0  0  0  0  0  0  0  0  0  0
    1.0303   16.6098   42.1216 N   0  0  0  0  0  0  0  0  0  0  0  0
    3.6192   21.7884   37.2201 O   0  0  0  0  0  0  0  0  0  0  0  0
    4.6048   19.7763   37.0594 O   0  0  0  0  0  0  0  0  0  0  0  0
    3.8440   17.9436   38.6105 O   0  0  0  0  0  0  0  0  0  0  0  0
   -0.9052   17.4675   43.6616 S   0  0  0  0  0  0  0  0  0  0  0  0
    1.7131   10.0478   40.5891 Cl  0  0  0  0  0  0  0  0  0  0  0  0
    2.5682   22.1897   39.4493 H   0  0  0  0  0  0  0  0  0  0  0  0
    1.1007   21.4639   41.3183 H   0  0  0  0  0  0  0  0  0  0  0  0
   -0.8887   13.1326   43.2766 H   0  0  0  0  0  0  0  0  0  0  0  0
   -0.2790   10.8594   42.4520 H   0  0  0  0  0  0  0  0  0  0  0  0
    2.9168   12.5743   40.1009 H   0  0  0  0  0  0  0  0  0  0  0  0
    2.3228   14.8387   40.9612 H   0  0  0  0  0  0  0  0  0  0  0  0
   -1.2984   15.0074   44.0062 H   0  0  0  0  0  0  0  0  0  0  0  0
    2.5592   17.4233   40.8497 H   0  0  0  0  0  0  0  0  0  0  0  0
    0.7098   19.7460   43.0237 H   0  0  0  0  0  0  0  0  0  0  0  0
  1  2  1  0
  1 19  1  0
  1 20  2  0
  2  3  1  0
  2 16  2  0
  3  4  2  0
  4  5  1  0
  5 15  2  0
  5 17  1  0
  6 17  1  0
  6 18  2  0
  6 22  1  0
  7  8  1  0
  7 14  2  0
  7 18  1  0
  8  9  1  0
  8 13  2  0
  9 10  2  0
 10 11  1  0
 11 12  2  0
 11 23  1  0
 12 13  1  0
 14 22  1  0
 15 16  1  0
 16 21  1  0
  3 24  1  0
  4 25  1  0
  9 26  1  0
 10 27  1  0
 12 28  1  0
 13 29  1  0
 14 30  1  0
 15 31  1  0
 17 32  1  0
M  CHG  2  19  -1  21  -1
M  END
>  <mol_id>  (3) 
2026-08-24-6tgu-s0-n20-r7-0003

>  <rmsd_to_ref>  (3) 
0.750000000008621

>  <pose_kind>  (3) 
rigid

$$$$
6tgu.A
     RDKit          3D

 32 34  0  0  0  0  0  0  0  0999 V2000
    2.7383   19.3764   36.2353 C   0  0  0  0  0  0  0  0  0  0  0  0
    2.0478   19.2863   37.5109 C   0  0  0  0  0  0  0  0  0  0  0  0
    1.3093   20.3374   37.9562 C   0  0  0  0  0  0  0  0  0  0  0  0
    0.6594   20.2423   39.1650 C   0  0  0  0  0  0  0  0  0  0  0  0
    0.7315   19.0920   39.9606 C   0  0  0  0  0  0  0  0  0  0  0  0
    0.1213   17.8613   42.0099 C   0  0  0  0  0  0  0  0  0  0  0  0
    0.4609   15.8778   43.0069 C   0  0  0  0  0  0  0  0  0  0  0  0
    1.1045   14.5564   42.9440 C   0  0  0  0  0  0  0  0  0  0  0  0
    1.8946   14.1590   41.8855 C   0  0  0  0  0  0  0  0  0  0  0  0
    2.4928   12.9196   41.8359 C   0  0  0  0  0  0  0  0  0  0  0  0
    2.3165   12.0211   42.8630 C   0  0  0  0  0  0  0  0  0  0  0  0
    1.5244   12.3894   43.9483 C   0  0  0  0  0  0  0  0  0  0  0  0
    0.9396   13.6413   43.9645 C   0  0  0  0  0  0  0  0  0  0  0  0
   -0.3232   16.2564   44.0701 C   0  0  0  0  0  0  0  0  0  0  0  0
    1.4926   18.0666   39.4553 C   0  0  0  0  0  0  0  0  0  0  0  0
    2.1574   18.1369   38.2405 C   0  0  0  0  0  0  0  0  0  0  0  0
    0.0435   19.0505   41.1929 N   0  0  0  0  0  0  0  0  0  0  0  0
    0.5685   16.8018   42.0793 N   0  0  0  0  0  0  0  0  0  0  0  0
    2.6476   20.5446   35.4580 O   0  0  0  0  0  0  0  0  0  0  0  0
    3.4369   18.4466   35.7626 O   0  0  0  0  0  0  0  0  0  0  0  0
    2.9225   17.0679   37.7631 O   0  0  0  0  0  0  0  0  0  0  0  0
   -0.8546   17.9539   43.6365 S   0  0  0  0  0  0  0  0  0  0  0  0
    3.0446   10.4335   42.8662 Cl  0  0  0  0  0  0  0  0  0  0  0  0
    1.2109   21.2594   37.3894 H   0  0  0  0  0  0  0  0  0  0  0  0
    0.0615   21.0934   39.5254 H   0  0  0  0  0  0  0  0  0  0  0  0
    2.0298   14.8723   41.0784 H   0  0  0  0  0  0  0  0  0  0  0  0
    3.1117   12.6198   40.9976 H   0  0  0  0  0  0  0  0  0  0  0  0
    1.3610   11.7101   44.7773 H   0  0  0  0  0  0  0  0  0  0  0  0
    0.3285   13.9062   44.8171 H   0  0  0  0  0  0  0  0  0  0  0  0
   -0.6193   15.7527   44.9896 H   0  0  0  0  0  0  0  0  0  0  0  0
    1.5996   17.1509   40.0022 H   0  0  0  0  0  0  0  0  0  0  0  0
   -0.5020   19.8883   41.4724 H   0  0  0  0  0  0  0  0  0  0  0  0
  1  2  1  0
  1 19  1  0
  1 20  2  0
  2  3  1  0
  2 16  2  0
  3  4  2  0
  4  5  1  0
  5 15  2  0
  5 17  1  0
  6 17  1  0
  6 18  2  0
  6 22  1  0
  7  8  1  0
  7 14  2  0
  7 18  1  0
  8  9  1  0
  8 13  2  0
  9 10  2  0
 10 11  1  0
 11 12  2  0
 11 23  1  0
 12 13  1  0
 14 22  1  0
 15 16  1  0
 16 21  1  0
  3 24  1  0
  4 25  1  0
  9 26  1  0
 10 27  1  0
 12 28  1  0
 13 29  1  0
 14 30  1  0
 15 31  1  0
 17 32  1  0
M  CHG  2  19  -1  21  -1
M  END
>  <mol_id>  (4) 
2026-08-24-6tgu-s0-n20-r7-0004

>  <rmsd_to_ref>  (4) 
1.000000000005093

>  <pose_kind>  (4) 
conformer

$$$$
6tgu.A
     RDKit          3D

 32 34  0  0  0  0  0  0  0  0999 V2000
    4.2486   19.2086   37.0656 C   0  0  0  0  0  0  0  0  0  0  0  0
    3.2854   19.2845   38.2535 C   0  0  0  0  0  0  0  0  0  0  0  0
    2.4493   20.3868   38.4168 C   0  0  0  0  0  0  0  0  0  0  0  0
    1.4289   20.4088   39.3732 C   0  0  0  0  0  0  0  0  0  0  0  0
    1.3301   19.3801   40.3213 C   0  0  0  0  0  0  0  0  0  0  0  0
   -0.3220   18.3160   41.9342 C   0  0  0  0  0  0  0  0  0  0  0  0
   -0.5946   16.1853   42.6834 C   0  0  0  0  0  0  0  0  0  0  0  0
   -0.2141   14.7847   42.8695 C   0  0  0  0  0  0  0  0  0  0  0  0
   -1.0720   13.8555   43.4750 C   0  0  0  0  0  0  0  0  0  0  0  0
   -0.7034   12.5207   43.6115 C   0  0  0  0  0  0  0  0  0  0  0  0
    0.5130   12.1127   43.0976 C   0  0  0  0  0  0  0  0  0  0  0  0
    1.3893   12.9968   42.4863 C   0  0  0  0  0  0  0  0  0  0  0  0
    1.0073   14.3303   42.3694 C   0  0  0  0  0  0  0  0  0  0  0  0
   -1.7909   16.7143   43.0903 C   0  0  0  0  0  0  0  0  0  0  0  0
    2.1567   18.2584   40.1646 C   0  0  0  0  0  0  0  0  0  0  0  0
    3.1134   18.2349   39.1480 C   0  0  0  0  0  0  0  0  0  0  0  0
    0.2563   19.3549   41.2633 N   0  0  0  0  0  0  0  0  0  0  0  0
    0.2338   17.0543   41.9347 N   0  0  0  0  0  0  0  0  0  0  0  0
    4.1202   20.1006   36.1762 O   0  0  0  0  0  0  0  0  0  0  0  0
    5.0269   18.2306   37.0285 O   0  0  0  0  0  0  0  0  0  0  0  0
    3.8454   17.0904   38.9384 O   0  0  0  0  0  0  0  0  0  0  0  0
   -1.9684   18.3358   42.5361 S   0  0  0  0  0  0  0  0  0  0  0  0
    0.9677   10.4457   43.2238 Cl  0  0  0  0  0  0  0  0  0  0  0  0
    2.5961   21.2670   37.7737 H   0  0  0  0  0  0  0  0  0  0  0  0
    0.7024   21.2347   39.3818 H   0  0  0  0  0  0  0  0  0  0  0  0
   -2.0522   14.1870   43.8480 H   0  0  0  0  0  0  0  0  0  0  0  0
   -1.3669   11.8046   44.1184 H   0  0  0  0  0  0  0  0  0  0  0  0
    2.3616   12.6530   42.1035 H   0  0  0  0  0  0  0  0  0  0  0  0
    1.6829   15.0418   41.8720 H   0  0  0  0  0  0  0  0  0  0  0  0
   -2.5386   16.1755   43.6909 H   0  0  0  0  0  0  0  0  0  0  0  0
    2.0516   17.3979   40.8418 H   0  0  0  0  0  0  0  0  0  0  0  0
   -0.1509   20.2777   41.4719 H   0  0  0  0  0  0  0  0  0  0  0  0
  1  2  1  0
  1 19  1  0
  1 20  2  0
  2  3  1  0
  2 16  2  0
  3  4  2  0
  4  5  1  0
  5 15  2  0
  5 17  1  0
  6 17  1  0
  6 18  2  0
  6 22  1  0
  7  8  1  0
  7 14  2  0
  7 18  1  0
  8  9  1  0
  8 13  2  0
  9 10  2  0
 10 11  1  0
 11 12  2  0
 11 23  1  0
 12 13  1  0
 14 22  1  0
 15 16  1  0
 16 21  1  0
  3 24  1  0
  4 25  1  0
  9 26  1  0
 10 27  1  0
 12 28  1  0
 13 29  1  0
 14 30  1  0
 15 31  1  0
 17 32  1  0
M  CHG  2  19  -1  21  -1
M  END
>  <mol_id>  (5) 
2026-08-24-6tgu-s0-n20-r7-0005

>  <rmsd_to_ref>  (5) 
1.2500000000032487

>  <pose_kind>  (5) 
rigid

$$$$
6tgu.A
     RDKit          3D

 32 34  0  0  0  0  0  0  0  0999 V2000
    3.7049   19.2225   36.6903 C   0  0  0  0  0  0  0  0  0  0  0  0
    2.9080   19.1722   37.9080 C   0  0  0  0  0  0  0  0  0  0  0  0
    2.7532   17.9805   38.5770 C   0  0  0  0  0  0  0  0  0  0  0  0
    1.9916   17.9625   39.7297 C   0  0  0  0  0  0  0  0  0  0  0  0
    1.3763   19.0907   40.2429 C   0  0  0  0  0  0  0  0  0  0  0  0
    0.3822   17.9296   42.1640 C   0  0  0  0  0  0  0  0  0  0  0  0
    0.3039   15.8316   43.0498 C   0  0  0  0  0  0  0  0  0  0  0  0
    0.6949   14.4008   42.9851 C   0  0  0  0  0  0  0  0  0  0  0  0
    0.2822   13.4994   43.9361 C   0  0  0  0  0  0  0  0  0  0  0  0
    0.6650   12.1766   43.8442 C   0  0  0  0  0  0  0  0  0  0  0  0
    1.4591   11.7104   42.8198 C   0  0  0  0  0  0  0  0  0  0  0  0
    1.8783   12.6155   41.8576 C   0  0  0  0  0  0  0  0  0  0  0  0
    1.4894   13.9186   41.9660 C   0  0  0  0  0  0  0  0  0  0  0  0
   -0.5083   16.2771   44.1090 C   0  0  0  0  0  0  0  0  0  0  0  0
    1.5761   20.2621   39.5136 C   0  0  0  0  0  0  0  0  0  0  0  0
    2.3200   20.3216   38.3724 C   0  0  0  0  0  0  0  0  0  0  0  0
    0.5930   19.0786   41.4262 N   0  0  0  0  0  0  0  0  0  0  0  0
    0.6565   16.7171   42.1950 N   0  0  0  0  0  0  0  0  0  0  0  0
    4.3143   18.0607   36.1983 O   0  0  0  0  0  0  0  0  0  0  0  0
    3.8642   20.2913   36.0595 O   0  0  0  0  0  0  0  0  0  0  0  0
    2.4830   21.5372   37.6822 O   0  0  0  0  0  0  0  0  0  0  0  0
   -0.6782   18.0744   43.7070 S   0  0  0  0  0  0  0  0  0  0  0  0
    1.9102   10.0156   42.7614 Cl  0  0  0  0  0  0  0  0  0  0  0  0
    3.2282   17.0643   38.1973 H   0  0  0  0  0  0  0  0  0  0  0  0
    1.8951   17.0102   40.2234 H   0  0  0  0  0  0  0  0  0  0  0  0
   -0.3504   13.8269   44.7682 H   0  0  0  0  0  0  0  0  0  0  0  0
    0.3033   11.5210   44.6286 H   0  0  0  0  0  0  0  0  0  0  0  0
    2.4914   12.2416   41.0718 H   0  0  0  0  0  0  0  0  0  0  0  0
    1.8417   14.6029   41.1852 H   0  0  0  0  0  0  0  0  0  0  0  0
   -0.9360   15.8081   44.9244 H   0  0  0  0  0  0  0  0  0  0  0  0
    1.1127   21.1906   39.8713 H   0  0  0  0  0  0  0  0  0  0  0  0
    0.1807   20.0199   41.7022 H   0  0  0  0  0  0  0  0  0  0  0  0
  1  2  1  0
  1 19  1  0
  1 20  2  0
  2  3  1  0
  2 16  2  0
  3  4  2  0
  4  5  1  0
  5 15  2  0
  5 17  1  0
  6 17  1  0
  6 18  2  0
  6 22  1  0
  7  8  1  0
  7 14  2  0
  7 18  1  0
  8  9  1  0
  8 13  2  0
  9 10  2  0
 10 11  1  0
 11 12  2  0
 11 23  1  0
 12 13  1  0
 14 22  1  0
 15 16  1  0
 16 21  1  0
  3 24  1  0
  4 25  1  0
  9 26  1  0
 10 27  1  0
 12 28  1  0
 13 29  1  0
 14 30  1  0
 15 31  1  0
 17 32  1  0
M  CHG  2  19  -1  21  -1
M  END
>  <mol_id>  (6) 
2026-08-24-6tgu-s0-n20-r7-0006

>  <rmsd_to_ref>  (6) 
1.5000000000015323

>  <pose_kind>  (6) 
conformer

$$$$
6tgu.A
     RDKit          3D

 32 34  0  0  0  0  0  0  0  0999 V2000
    2.9957   19.1446   36.8053 C   0  0  0  0  0  0  0  0  0  0  0  0
    2.0733   19.1090   38.0270 C   0  0  0  0  0  0  0  0  0  0  0  0
    0.8571   19.7884   38.0150 C   0  0  0  0  0  0  0  0  0  0  0  0
   -0.0929   19.6271   39.0289 C   0  0  0  0  0  0  0  0  0  0  0  0
    0.2285   18.9032   40.1862 C   0  0  0  0  0  0  0  0  0  0  0  0
   -0.8596   17.6843   42.1340 C   0  0  0  0  0  0  0  0  0  0  0  0
   -0.2430   15.8683   43.3578 C   0  0  0  0  0  0  0  0  0  0  0  0
    0.6762   14.8257   43.8152 C   0  0  0  0  0  0  0  0  0  0  0  0
    0.2680   13.8042   44.6848 C   0  0  0  0  0  0  0  0  0  0  0  0
    1.1498   12.8034   45.0806 C   0  0  0  0  0  0  0  0  0  0  0  0
    2.4320   12.8070   44.5647 C   0  0  0  0  0  0  0  0  0  0  0  0
    2.8755   13.7945   43.6980 C   0  0  0  0  0  0  0  0  0  0  0  0
    1.9817   14.7937   43.3227 C   0  0  0  0  0  0  0  0  0  0  0  0
   -1.5553   15.9543   43.7411 C   0  0  0  0  0  0  0  0  0  0  0  0
    1.4439   18.2043   40.2098 C   0  0  0  0  0  0  0  0  0  0  0  0
    2.3369   18.3245   39.1435 C   0  0  0  0  0  0  0  0  0  0  0  0
   -0.7507   18.6753   41.2013 N   0  0  0  0  0  0  0  0  0  0  0  0
    0.1645   16.7906   42.3651 N   0  0  0  0  0  0  0  0  0  0  0  0
    2.5225   19.6706   35.7553 O   0  0  0  0  0  0  0  0  0  0  0  0
    4.1068   18.5820   36.9174 O   0  0  0  0  0  0  0  0  0  0  0  0
    3.4760   17.5550   39.1289 O   0  0  0  0  0  0  0  0  0  0  0  0
   -2.3758   17.1859   42.8592 S   0  0  0  0  0  0  0  0  0  0  0  0
    3.5287   11.5441   45.0166 Cl  0  0  0  0  0  0  0  0  0  0  0  0
    0.6372   20.4729   37.1825 H   0  0  0  0  0  0  0  0  0  0  0  0
   -1.0941   20.0690   38.9182 H   0  0  0  0  0  0  0  0  0  0  0  0
   -0.7659   13.7940   45.0600 H   0  0  0  0  0  0  0  0  0  0  0  0
    0.8327   12.0248   45.7901 H   0  0  0  0  0  0  0  0  0  0  0  0
    3.9073   13.7885   43.3167 H   0  0  0  0  0  0  0  0  0  0  0  0
    2.3117   15.5752   42.6224 H   0  0  0  0  0  0  0  0  0  0  0  0
   -2.0229   15.3213   44.5096 H   0  0  0  0  0  0  0  0  0  0  0  0
    1.6933   17.5622   41.0674 H   0  0  0  0  0  0  0  0  0  0  0  0
   -1.5026   19.3785   41.2353 H   0  0  0  0  0  0  0  0  0  0  0  0
  1  2  1  0
  1 19  1  0
  1 20  2  0
  2  3  1  0
  2 16  2  0
  3  4  2  0
  4  5  1  0
  5 15  2  0
  5 17  1  0
  6 17  1  0
  6 18  2  0
  6 22  1  0
  7  8  1  0
  7 14  2  0
  7 18  1  0
  8  9  1  0
  8 13  2  0
  9 10  2  0
 10 11  1  0
 11 12  2  0
 11 23  1  0
 12 13  1  0
 14 22  1  0
 15 16  1  0
 16 21  1  0
  3 24  1  0
  4 25  1  0
  9 26  1  0
 10 27  1  0
 12 28  1  0
 13 29  1  0
 14 30  1  0
 15 31  1  0
 17 32  1  0
M  CHG  2  19  -1  21  -1
M  END
>  <mol_id>  (7) 
2026-08-24-6tgu-s0-n20-r7-0007

>  <rmsd_to_ref>  (7) 
1.7500000000011438

>  <pose_kind>  (7) 
rigid

$$$$
6tgu.A
     RDKit          3D

 32 34  0  0  0  0  0  0  0  0999 V2000
    3.2477   21.1751   37.0318 C   0  0  0  0  0  0  0  0  0  0  0  0
    2.4701   20.3129   37.9274 C   0  0  0  0  0  0  0  0  0  0  0  0
    3.0189   19.8410   39.1220 C   0  0  0  0  0  0  0  0  0  0  0  0
    2.2644   19.0372   39.9598 C   0  0  0  0  0  0  0  0  0  0  0  0
    0.9738   18.7115   39.6013 C   0  0  0  0  0  0  0  0  0  0  0  0
    0.5536   17.1569   41.5287 C   0  0  0  0  0  0  0  0  0  0  0  0
    1.0612   15.4967   42.9605 C   0  0  0  0  0  0  0  0  0  0  0  0
    1.1125   14.0429   43.2399 C   0  0  0  0  0  0  0  0  0  0  0  0
    0.7131   13.1065   42.3113 C   0  0  0  0  0  0  0  0  0  0  0  0
    0.7480   11.7355   42.5785 C   0  0  0  0  0  0  0  0  0  0  0  0
    1.1962   11.3078   43.8115 C   0  0  0  0  0  0  0  0  0  0  0  0
    1.6055   12.2197   44.7692 C   0  0  0  0  0  0  0  0  0  0  0  0
    1.5518   13.5738   44.4532 C   0  0  0  0  0  0  0  0  0  0  0  0
    1.4513   16.4261   43.9214 C   0  0  0  0  0  0  0  0  0  0  0  0
    0.4588   19.1936   38.4103 C   0  0  0  0  0  0  0  0  0  0  0  0
    1.1732   19.9968   37.5453 C   0  0  0  0  0  0  0  0  0  0  0  0
    0.1404   17.9087   40.3968 N   0  0  0  0  0  0  0  0  0  0  0  0
    0.6485   16.0166   41.8473 N   0  0  0  0  0  0  0  0  0  0  0  0
    4.5583   21.5577   37.3182 O   0  0  0  0  0  0  0  0  0  0  0  0
    2.6955   21.5696   35.9815 O   0  0  0  0  0  0  0  0  0  0  0  0
    0.6235   20.4710   36.3432 O   0  0  0  0  0  0  0  0  0  0  0  0
    1.1668   18.0371   43.0743 S   0  0  0  0  0  0  0  0  0  0  0  0
    1.2198    9.5758   44.0888 Cl  0  0  0  0  0  0  0  0  0  0  0  0
    4.0236   20.0900   39.4098 H   0  0  0  0  0  0  0  0  0  0  0  0
    2.6890   18.6729   40.8910 H   0  0  0  0  0  0  0  0  0  0  0  0
    0.3570   13.4094   41.3407 H   0  0  0  0  0  0  0  0  0  0  0  0
    0.4175   11.0442   41.8052 H   0  0  0  0  0  0  0  0  0  0  0  0
    1.9505   11.8879   45.7187 H   0  0  0  0  0  0  0  0  0  0  0  0
    1.8714   14.2767   45.2113 H   0  0  0  0  0  0  0  0  0  0  0  0
    1.8218   16.3304   44.8940 H   0  0  0  0  0  0  0  0  0  0  0  0
   -0.5730   18.9353   38.1158 H   0  0  0  0  0  0  0  0  0  0  0  0
   -0.8874   17.8327   40.1630 H   0  0  0  0  0  0  0  0  0  0  0  0
  1  2  1  0
  1 19  1  0
  1 20  2  0
  2  3  1  0
  2 16  2  0
  3  4  2  0
  4  5  1  0
  5 15  2  0
  5 17  1  0
  6 17  1  0
  6 18  2  0
  6 22  1  0
  7  8  1  0
  7 14  2  0
  7 18  1  0
  8  9  1  0
  8 13  2  0
  9 10  2  0
 10 11  1  0
 11 12  2  0
 11 23  1  0
 12 13  1  0
 14 22  1  0
 15 16  1  0
 16 21  1  0
  3 24  1  0
  4 25  1  0
  9 26  1  0
 10 27  1  0
 12 28  1  0
 13 29  1  0
 14 30  1  0
 15 31  1  0
 17 32  1  0
M  CHG  2  19  -1  21  -1
M  END
>  <mol_id>  (8) 
2026-08-24-6tgu-s0-n20-r7-0008

>  <rmsd_to_ref>  (8) 
2.0000000000017746

>  <pose_kind>  (8) 
conformer

$$$$
6tgu.A
     RDKit          3D

 32 34  0  0  0  0  0  0  0  0999 V2000
    3.4618   21.4638   40.1196 C   0  0  0  0  0  0  0  0  0  0  0  0
    2.5339   20.5479   40.9226 C   0  0  0  0  0  0  0  0  0  0  0  0
    1.3143   21.0210   41.4016 C   0  0  0  0  0  0  0  0  0  0  0  0
    0.3604   20.1708   41.9706 C   0  0  0  0  0  0  0  0  0  0  0  0
    0.6802   18.8314   42.2361 C   0  0  0  0  0  0  0  0  0  0  0  0
   -0.4105   16.5765   42.6711 C   0  0  0  0  0  0  0  0  0  0  0  0
    0.2099   14.4419   42.1873 C   0  0  0  0  0  0  0  0  0  0  0  0
    1.1323   13.3953   41.7459 C   0  0  0  0  0  0  0  0  0  0  0  0
    0.7255   12.0623   41.5924 C   0  0  0  0  0  0  0  0  0  0  0  0
    1.6107   11.0891   41.1390 C   0  0  0  0  0  0  0  0  0  0  0  0
    2.8953   11.4683   40.7979 C   0  0  0  0  0  0  0  0  0  0  0  0
    3.3376   12.7761   40.9288 C   0  0  0  0  0  0  0  0  0  0  0  0
    2.4403   13.7330   41.3948 C   0  0  0  0  0  0  0  0  0  0  0  0
   -1.1046   14.2208   42.5029 C   0  0  0  0  0  0  0  0  0  0  0  0
    1.8991   18.3365   41.7508 C   0  0  0  0  0  0  0  0  0  0  0  0
    2.7965   19.1969   41.1156 C   0  0  0  0  0  0  0  0  0  0  0  0
   -0.3025   17.9347   42.7571 N   0  0  0  0  0  0  0  0  0  0  0  0
    0.6171   15.7970   42.1842 N   0  0  0  0  0  0  0  0  0  0  0  0
    2.9908   22.5895   39.7820 O   0  0  0  0  0  0  0  0  0  0  0  0
    4.5754   20.9975   39.7936 O   0  0  0  0  0  0  0  0  0  0  0  0
    3.9396   18.6815   40.5522 O   0  0  0  0  0  0  0  0  0  0  0  0
   -1.9275   15.7063   42.7927 S   0  0  0  0  0  0  0  0  0  0  0  0
    3.9964   10.2752   40.1932 Cl  0  0  0  0  0  0  0  0  0  0  0  0
    1.0946   22.0965   41.3301 H   0  0  0  0  0  0  0  0  0  0  0  0
   -0.6426   20.5536   42.2103 H   0  0  0  0  0  0  0  0  0  0  0  0
   -0.3101   11.7813   41.8342 H   0  0  0  0  0  0  0  0  0  0  0  0
    1.2944   10.0390   41.0539 H   0  0  0  0  0  0  0  0  0  0  0  0
    4.3712   13.0503   40.6709 H   0  0  0  0  0  0  0  0  0  0  0  0
    2.7695   14.7784   41.4885 H   0  0  0  0  0  0  0  0  0  0  0  0
   -1.5725   13.2270   42.5633 H   0  0  0  0  0  0  0  0  0  0  0  0
    2.1480   17.2717   41.8705 H   0  0  0  0  0  0  0  0  0  0  0  0
   -1.0582   18.3907   43.2880 H   0  0  0  0  0  0  0  0  0  0  0  0
  1  2  1  0
  1 19  1  0
  1 20  2  0
  2  3  1  0
  2 16  2  0
  3  4  2  0
  4  5  1  0
  5 15  2  0
  5 17  1  0
  6 17  1  0
  6 18  2  0
  6 22  1  0
  7  8  1  0
  7 14  2  0
  7 18  1  0
  8  9  1  0
  8 13  2  0
  9 10  2  0
 10 11  1  0
 11 12  2  0
 11 23  1  0
 12 13  1  0
 14 22  1  0
 15 16  1  0
 16 21  1  0
  3 24  1  0
  4 25  1  0
  9 26  1  0
 10 27  1  0
 12 28  1  0
 13 29  1  0
 14 30  1  0
 15 31  1  0
 17 32  1  0
M  CHG  2  19  -1  21  -1
M  END
>  <mol_id>  (9) 
2026-08-24-6tgu-s0-n20-r7-0009

>  <rmsd_to_ref>  (9) 
2.2500000000061418

>  <pose_kind>  (9) 
rigid

$$$$
6tgu.A
     RDKit          3D

 32 34  0  0  0  0  0  0  0  0999 V2000
    2.0539   20.2203   35.5973 C   0  0  0  0  0  0  0  0  0  0  0  0
    1.5028   19.8138   36.8843 C   0  0  0  0  0  0  0  0  0  0  0  0
    0.2724   20.2879   37.2862 C   0  0  0  0  0  0  0  0  0  0  0  0
   -0.2708   19.9155   38.5105 C   0  0  0  0  0  0  0  0  0  0  0  0
    0.3946   19.0645   39.3636 C   0  0  0  0  0  0  0  0  0  0  0  0
    0.6465   17.9176   41.5612 C   0  0  0  0  0  0  0  0  0  0  0  0
    1.6262   16.5235   43.0302 C   0  0  0  0  0  0  0  0  0  0  0  0
    1.5485   15.3004   43.8181 C   0  0  0  0  0  0  0  0  0  0  0  0
    0.4553   14.4602   43.8044 C   0  0  0  0  0  0  0  0  0  0  0  0
    0.4155   13.2966   44.5716 C   0  0  0  0  0  0  0  0  0  0  0  0
    1.4894   12.9666   45.3678 C   0  0  0  0  0  0  0  0  0  0  0  0
    2.5762   13.7782   45.3979 C   0  0  0  0  0  0  0  0  0  0  0  0
    2.6017   14.9329   44.6289 C   0  0  0  0  0  0  0  0  0  0  0  0
    2.7430   17.4003   43.0346 C   0  0  0  0  0  0  0  0  0  0  0  0
    1.6217   18.5977   38.9505 C   0  0  0  0  0  0  0  0  0  0  0  0
    2.1845   18.9603   37.7244 C   0  0  0  0  0  0  0  0  0  0  0  0
   -0.1683   18.6782   40.6217 N   0  0  0  0  0  0  0  0  0  0  0  0
    0.7012   16.9935   42.2165 N   0  0  0  0  0  0  0  0  0  0  0  0
    3.2870   19.7744   35.1479 O   0  0  0  0  0  0  0  0  0  0  0  0
    1.4223   21.0085   34.8258 O   0  0  0  0  0  0  0  0  0  0  0  0
    3.4322   18.4686   37.3359 O   0  0  0  0  0  0  0  0  0  0  0  0
    2.3731   18.6990   41.9564 S   0  0  0  0  0  0  0  0  0  0  0  0
    1.4815   11.5170   46.3455 Cl  0  0  0  0  0  0  0  0  0  0  0  0
   -0.2544   20.9487   36.6360 H   0  0  0  0  0  0  0  0  0  0  0  0
   -1.2418   20.2904   38.8268 H   0  0  0  0  0  0  0  0  0  0  0  0
   -0.3869   14.7337   43.1706 H   0  0  0  0  0  0  0  0  0  0  0  0
   -0.4644   12.6878   44.5130 H   0  0  0  0  0  0  0  0  0  0  0  0
    3.4229   13.5141   46.0280 H   0  0  0  0  0  0  0  0  0  0  0  0
    3.5179   15.5204   44.7193 H   0  0  0  0  0  0  0  0  0  0  0  0
    3.7132   17.2264   43.6750 H   0  0  0  0  0  0  0  0  0  0  0  0
    2.2021   17.9274   39.5568 H   0  0  0  0  0  0  0  0  0  0  0  0
   -1.1417   18.9456   40.8436 H   0  0  0  0  0  0  0  0  0  0  0  0
  1  2  1  0
  1 19  1  0
  1 20  2  0
  2  3  1  0
  2 16  2  0
  3  4  2  0
  4  5  1  0
  5 15  2  0
  5 17  1  0
  6 17  1  0
  6 18  2  0
  6 22  1  0
  7  8  1  0
  7 14  2  0
  7 18  1  0
  8  9  1  0
  8 13  2  0
  9 10  2  0
 10 11  1  0
 11 12  2  0
 11 23  1  0
 12 13  1  0
 14 22  1  0
 15 16  1  0
 16 21  1  0
  3 24  1  0
  4 25  1  0
  9 26  1  0
 10 27  1  0
 12 28  1  0
 13 29  1  0
 14 30  1  0
 15 31  1  0
 17 32  1  0
M  CHG  2  19  -1  21  -1
M  END
>  <mol_id>  (10) 
2026-08-24-6tgu-s0-n20-r7-0010

>  <rmsd_to_ref>  (10) 
2.500000000004247

>  <pose_kind>  (10) 
conformer

$$$$
6tgu.A
     RDKit          3D

 32 34  0  0  0  0  0  0  0  0999 V2000
    2.0497   20.3883   38.4790 C   0  0  0  0  0  0  0  0  0  0  0  0
    2.6558   19.4316   39.5095 C   0  0  0  0  0  0  0  0  0  0  0  0
    3.3904   19.9243   40.5857 C   0  0  0  0  0  0  0  0  0  0  0  0
    3.7963   19.1050   41.6442 C   0  0  0  0  0  0  0  0  0  0  0  0
    3.6232   17.7155   41.5655 C   0  0  0  0  0  0  0  0  0  0  0  0
    3.5109   15.6407   43.0304 C   0  0  0  0  0  0  0  0  0  0  0  0
    2.3605   13.6860   42.8539 C   0  0  0  0  0  0  0  0  0  0  0  0
    1.5302   12.6911   42.1742 C   0  0  0  0  0  0  0  0  0  0  0  0
    1.0459   11.5520   42.8330 C   0  0  0  0  0  0  0  0  0  0  0  0
    0.2298   10.6357   42.1769 C   0  0  0  0  0  0  0  0  0  0  0  0
   -0.1347   10.8903   40.8682 C   0  0  0  0  0  0  0  0  0  0  0  0
    0.3167   12.0069   40.1808 C   0  0  0  0  0  0  0  0  0  0  0  0
    1.1415   12.9061   40.8510 C   0  0  0  0  0  0  0  0  0  0  0  0
    2.7501   13.5922   44.1638 C   0  0  0  0  0  0  0  0  0  0  0  0
    2.8763   17.2044   40.4945 C   0  0  0  0  0  0  0  0  0  0  0  0
    2.4171   18.0626   39.4936 C   0  0  0  0  0  0  0  0  0  0  0  0
    3.9734   16.8718   42.6641 N   0  0  0  0  0  0  0  0  0  0  0  0
    2.7025   14.8935   42.2004 N   0  0  0  0  0  0  0  0  0  0  0  0
    2.1101   21.6235   38.7507 O   0  0  0  0  0  0  0  0  0  0  0  0
    1.4747   19.8722   37.4957 O   0  0  0  0  0  0  0  0  0  0  0  0
    1.5989   17.5682   38.5057 O   0  0  0  0  0  0  0  0  0  0  0  0
    3.5518   15.0295   44.6730 S   0  0  0  0  0  0  0  0  0  0  0  0
   -1.1834    9.7793   40.0514 Cl  0  0  0  0  0  0  0  0  0  0  0  0
    3.6597   20.9907   40.6036 H   0  0  0  0  0  0  0  0  0  0  0  0
    4.2521   19.5514   42.5403 H   0  0  0  0  0  0  0  0  0  0  0  0
    1.3154   11.3801   43.8856 H   0  0  0  0  0  0  0  0  0  0  0  0
   -0.1182    9.7268   42.6895 H   0  0  0  0  0  0  0  0  0  0  0  0
    0.0302   12.1778   39.1326 H   0  0  0  0  0  0  0  0  0  0  0  0
    1.4948   13.8060   40.3262 H   0  0  0  0  0  0  0  0  0  0  0  0
    2.5744   12.7160   44.8051 H   0  0  0  0  0  0  0  0  0  0  0  0
    2.6525   16.1286   40.4429 H   0  0  0  0  0  0  0  0  0  0  0  0
    4.6982   17.2583   43.2855 H   0  0  0  0  0  0  0  0  0  0  0  0
  1  2  1  0
  1 19  1  0
  1 20  2  0
  2  3  1  0
  2 16  2  0
  3  4  2  0
  4  5  1  0
  5 15  2  0
  5 17  1  0
  6 17  1  0
  6 18  2  0
  6 22  1  0
  7  8  1  0
  7 14  2  0
  7 18  1  0
  8  9  1  0
  8 13  2  0
  9 10  2  0
 10 11  1  0
 11 12  2  0
 11 23  1  0
 12 13  1  0
 14 22  1  0
 15 16  1  0
 16 21  1  0
  3 24  1  0
  4 25  1  0
  9 26  1  0
 10 27  1  0
 12 28  1  0
 13 29  1  0
 14 30  1  0
 15 31  1  0
 17 32  1  0
M  CHG  2  19  -1  21  -1
M  END
>  <mol_id>  (11) 
2026-08-24-6tgu-s0-n20-r7-0011

>  <rmsd_to_ref>  (11) 
2.7500000000015277

>  <pose_kind>  (11) 
rigid

$$$$
6tgu.A
     RDKit          3D

 32 34  0  0  0  0  0  0  0  0999 V2000
    3.2074   20.7556   35.4334 C   0  0  0  0  0  0  0  0  0  0  0  0
    3.1075   19.9882   36.6633 C   0  0  0  0  0  0  0  0  0  0  0  0
    4.0165   20.1471   37.6891 C   0  0  0  0  0  0  0  0  0  0  0  0
    3.9103   19.4167   38.8451 C   0  0  0  0  0  0  0  0  0  0  0  0
    2.8928   18.4788   39.0592 C   0  0  0  0  0  0  0  0  0  0  0  0
    1.8270   17.1573   40.9265 C   0  0  0  0  0  0  0  0  0  0  0  0
    0.5166   16.0177   42.3404 C   0  0  0  0  0  0  0  0  0  0  0  0
    0.3597   15.2100   43.5719 C   0  0  0  0  0  0  0  0  0  0  0  0
   -0.8512   14.7318   43.9703 C   0  0  0  0  0  0  0  0  0  0  0  0
   -0.9749   13.9836   45.1192 C   0  0  0  0  0  0  0  0  0  0  0  0
    0.1123   13.6805   45.9222 C   0  0  0  0  0  0  0  0  0  0  0  0
    1.3322   14.1591   45.5260 C   0  0  0  0  0  0  0  0  0  0  0  0
    1.4534   14.9075   44.3761 C   0  0  0  0  0  0  0  0  0  0  0  0
   -0.6003   16.3103   41.5498 C   0  0  0  0  0  0  0  0  0  0  0  0
    1.9952   18.3248   38.0397 C   0  0  0  0  0  0  0  0  0  0  0  0
    2.1041   19.0608   36.8782 C   0  0  0  0  0  0  0  0  0  0  0  0
    2.9102   17.7928   40.2782 N   0  0  0  0  0  0  0  0  0  0  0  0
    1.6462   16.4939   41.9211 N   0  0  0  0  0  0  0  0  0  0  0  0
    2.2936   20.5851   34.4226 O   0  0  0  0  0  0  0  0  0  0  0  0
    4.1634   21.5863   35.3233 O   0  0  0  0  0  0  0  0  0  0  0  0
    1.1844   18.9104   35.8221 O   0  0  0  0  0  0  0  0  0  0  0  0
    0.0782   17.2617   40.2468 S   0  0  0  0  0  0  0  0  0  0  0  0
   -0.0596   12.7323   47.3745 Cl  0  0  0  0  0  0  0  0  0  0  0  0
    4.8133   20.8563   37.5676 H   0  0  0  0  0  0  0  0  0  0  0  0
    4.6709   19.6010   39.6127 H   0  0  0  0  0  0  0  0  0  0  0  0
   -1.7479   14.9247   43.3979 H   0  0  0  0  0  0  0  0  0  0  0  0
   -1.9518   13.6070   45.4260 H   0  0  0  0  0  0  0  0  0  0  0  0
    2.2373   13.9655   46.1008 H   0  0  0  0  0  0  0  0  0  0  0  0
    2.4142   15.2887   44.0569 H   0  0  0  0  0  0  0  0  0  0  0  0
   -1.6103   16.0314   41.6937 H   0  0  0  0  0  0  0  0  0  0  0  0
    1.1996   17.6300   38.1097 H   0  0  0  0  0  0  0  0  0  0  0  0
    3.8348   17.7209   40.8039 H   0  0  0  0  0  0  0  0  0  0  0  0
  1  2  1  0
  1 19  1  0
  1 20  2  0
  2  3  1  0
  2 16  2  0
  3  4  2  0
  4  5  1  0
  5 15  2  0
  5 17  1  0
  6 17  1  0
  6 18  2  0
  6 22  1  0
  7  8  1  0
  7 14  2  0
  7 18  1  0
  8  9  1  0
  8 13  2  0
  9 10  2  0
 10 11  1  0
 11 12  2  0
 11 23  1  0
 12 13  1  0
 14 22  1  0
 15 16  1  0
 16 21  1  0
  3 24  1  0
  4 25  1  0
  9 26  1  0
 10 27  1  0
 12 28  1  0
 13 29  1  0
 14 30  1  0
 15 31  1  0
 17 32  1  0
M  CHG  2  19  -1  21  -1
M  END
>  <mol_id>  (12) 
2026-08-24-6tgu-s0-n20-r7-0012

>  <rmsd_to_ref>  (12) 
3.0000000000048286

>  <pose_kind>  (12) 
conformer

$$$$
6tgu.A
     RDKit          3D

 32 34  0  0  0  0  0  0  0  0999 V2000
    3.1610   16.7471   36.6212 C   0  0  0  0  0  0  0  0  0  0  0  0
    3.1704   17.2735   38.0590 C   0  0  0  0  0  0  0  0  0  0  0  0
    3.6066   18.5673   38.3357 C   0  0  0  0  0  0  0  0  0  0  0  0
    3.4534   19.1477   39.5991 C   0  0  0  0  0  0  0  0  0  0  0  0
    3.0098   18.3731   40.6807 C   0  0  0  0  0  0  0  0  0  0  0  0
    1.9684   18.5951   42.9893 C   0  0  0  0  0  0  0  0  0  0  0  0
    0.5321   17.2827   44.1683 C   0  0  0  0  0  0  0  0  0  0  0  0
   -0.2327   16.0660   44.4436 C   0  0  0  0  0  0  0  0  0  0  0  0
   -1.1458   15.9861   45.5047 C   0  0  0  0  0  0  0  0  0  0  0  0
   -1.8875   14.8303   45.7282 C   0  0  0  0  0  0  0  0  0  0  0  0
   -1.7412   13.7691   44.8547 C   0  0  0  0  0  0  0  0  0  0  0  0
   -0.8542   13.8076   43.7894 C   0  0  0  0  0  0  0  0  0  0  0  0
   -0.1128   14.9688   43.5893 C   0  0  0  0  0  0  0  0  0  0  0  0
    0.4443   18.4277   44.9151 C   0  0  0  0  0  0  0  0  0  0  0  0
    2.5567   17.0725   40.4174 C   0  0  0  0  0  0  0  0  0  0  0  0
    2.6507   16.5505   39.1260 C   0  0  0  0  0  0  0  0  0  0  0  0
    2.7871   18.9656   41.9615 N   0  0  0  0  0  0  0  0  0  0  0  0
    1.3278   17.3744   43.0019 N   0  0  0  0  0  0  0  0  0  0  0  0
    3.4040   17.5909   35.7090 O   0  0  0  0  0  0  0  0  0  0  0  0
    2.8363   15.5506   36.4576 O   0  0  0  0  0  0  0  0  0  0  0  0
    2.1088   15.3159   38.8575 O   0  0  0  0  0  0  0  0  0  0  0  0
    1.3368   19.7088   44.1869 S   0  0  0  0  0  0  0  0  0  0  0  0
   -2.6882   12.3386   45.0963 Cl  0  0  0  0  0  0  0  0  0  0  0  0
    4.0862   19.1506   37.5358 H   0  0  0  0  0  0  0  0  0  0  0  0
    3.6814   20.2139   39.7445 H   0  0  0  0  0  0  0  0  0  0  0  0
   -1.2779   16.8511   46.1712 H   0  0  0  0  0  0  0  0  0  0  0  0
   -2.5766   14.7624   46.5829 H   0  0  0  0  0  0  0  0  0  0  0  0
   -0.7393   12.9426   43.1197 H   0  0  0  0  0  0  0  0  0  0  0  0
    0.5830   15.0227   42.7390 H   0  0  0  0  0  0  0  0  0  0  0  0
   -0.1208   18.5173   45.8546 H   0  0  0  0  0  0  0  0  0  0  0  0
    2.1276   16.4643   41.2274 H   0  0  0  0  0  0  0  0  0  0  0  0
    3.3380   19.8174   42.1398 H   0  0  0  0  0  0  0  0  0  0  0  0
  1  2  1  0
  1 19  1  0
  1 20  2  0
  2  3  1  0
  2 16  2  0
  3  4  2  0
  4  5  1  0
  5 15  2  0
  5 17  1  0
  6 17  1  0
  6 18  2  0
  6 22  1  0
  7  8  1  0
  7 14  2  0
  7 18  1  0
  8  9  1  0
  8 13  2  0
  9 10  2  0
 10 11  1  0
 11 12  2  0
 11 23  1  0
 12 13  1  0
 14 22  1  0
 15 16  1  0
 16 21  1  0
  3 24  1  0
  4 25  1  0
  9 26  1  0
 10 27  1  0
 12 28  1  0
 13 29  1  0
 14 30  1  0
 15 31  1  0
 17 32  1  0
M  CHG  2  19  -1  21  -1
M  END
>  <mol_id>  (13) 
2026-08-24-6tgu-s0-n20-r7-0013

>  <rmsd_to_ref>  (13) 
3.250000000001855

>  <pose_kind>  (13) 
rigid

$$$$
6tgu.A
     RDKit          3D

 32 34  0  0  0  0  0  0  0  0999 V2000
    7.1366   17.4815   37.5079 C   0  0  0  0  0  0  0  0  0  0  0  0
    5.9341   17.8437   38.2884 C   0  0  0  0  0  0  0  0  0  0  0  0
    5.7329   19.1711   38.6062 C   0  0  0  0  0  0  0  0  0  0  0  0
    4.6027   19.5358   39.3518 C   0  0  0  0  0  0  0  0  0  0  0  0
    3.6993   18.5423   39.7585 C   0  0  0  0  0  0  0  0  0  0  0  0
    1.4729   18.0611   40.8083 C   0  0  0  0  0  0  0  0  0  0  0  0
   -0.0826   16.6091   41.5091 C   0  0  0  0  0  0  0  0  0  0  0  0
   -0.4477   15.5236   42.4353 C   0  0  0  0  0  0  0  0  0  0  0  0
    0.4407   15.0337   43.3831 C   0  0  0  0  0  0  0  0  0  0  0  0
    0.1153   14.0211   44.2607 C   0  0  0  0  0  0  0  0  0  0  0  0
   -1.1615   13.4872   44.1707 C   0  0  0  0  0  0  0  0  0  0  0  0
   -2.0934   13.9287   43.2508 C   0  0  0  0  0  0  0  0  0  0  0  0
   -1.6920   14.9433   42.4087 C   0  0  0  0  0  0  0  0  0  0  0  0
   -0.9820   17.0821   40.5653 C   0  0  0  0  0  0  0  0  0  0  0  0
    3.9044   17.2084   39.4369 C   0  0  0  0  0  0  0  0  0  0  0  0
    5.0346   16.8458   38.6922 C   0  0  0  0  0  0  0  0  0  0  0  0
    2.5863   18.9276   40.5183 N   0  0  0  0  0  0  0  0  0  0  0  0
    1.0785   17.2151   41.4766 N   0  0  0  0  0  0  0  0  0  0  0  0
    7.3828   16.1565   37.1818 O   0  0  0  0  0  0  0  0  0  0  0  0
    7.9495   18.3653   37.1306 O   0  0  0  0  0  0  0  0  0  0  0  0
    5.2559   15.5040   38.3612 O   0  0  0  0  0  0  0  0  0  0  0  0
   -0.0666   18.3777   39.6988 S   0  0  0  0  0  0  0  0  0  0  0  0
   -1.6912   12.1831   45.2449 Cl  0  0  0  0  0  0  0  0  0  0  0  0
    6.4432   19.9350   38.2834 H   0  0  0  0  0  0  0  0  0  0  0  0
    4.4193   20.5802   39.6168 H   0  0  0  0  0  0  0  0  0  0  0  0
    1.4379   15.4436   43.4585 H   0  0  0  0  0  0  0  0  0  0  0  0
    0.7932   13.6298   45.0018 H   0  0  0  0  0  0  0  0  0  0  0  0
   -3.0945   13.5112   43.1812 H   0  0  0  0  0  0  0  0  0  0  0  0
   -2.4202   15.2855   41.6877 H   0  0  0  0  0  0  0  0  0  0  0  0
   -1.9936   16.7911   40.3506 H   0  0  0  0  0  0  0  0  0  0  0  0
    3.1899   16.4472   39.7605 H   0  0  0  0  0  0  0  0  0  0  0  0
    2.5072   19.8859   40.9205 H   0  0  0  0  0  0  0  0  0  0  0  0
  1  2  1  0
  1 19  1  0
  1 20  2  0
  2  3  1  0
  2 16  2  0
  3  4  2  0
  4  5  1  0
  5 15  2  0
  5 17  1  0
  6 17  1  0
  6 18  2  0
  6 22  1  0
  7  8  1  0
  7 14  2  0
  7 18  1  0
  8  9  1  0
  8 13  2  0
  9 10  2  0
 10 11  1  0
 11 12  2  0
 11 23  1  0
 12 13  1  0
 14 22  1  0
 15 16  1  0
 16 21  1  0
  3 24  1  0
  4 25  1  0
  9 26  1  0
 10 27  1  0
 12 28  1  0
 13 29  1  0
 14 30  1  0
 15 31  1  0
 17 32  1  0
M  CHG  2  19  -1  21  -1
M  END
>  <mol_id>  (14) 
2026-08-24-6tgu-s0-n20-r7-0014

>  <rmsd_to_ref>  (14) 
3.5000000000043574

>  <pose_kind>  (14) 
conformer

$$$$
6tgu.A
     RDKit          3D

 32 34  0  0  0  0  0  0  0  0999 V2000
    4.7387   20.3085   40.6392 C   0  0  0  0  0  0  0  0  0  0  0  0
    3.5977   19.5375   41.3086 C   0  0  0  0  0  0  0  0  0  0  0  0
    2.9562   20.0566   42.4310 C   0  0  0  0  0  0  0  0  0  0  0  0
    1.7940   19.4804   42.9543 C   0  0  0  0  0  0  0  0  0  0  0  0
    1.3358   18.2493   42.4630 C   0  0  0  0  0  0  0  0  0  0  0  0
   -0.7543   16.8059   42.3565 C   0  0  0  0  0  0  0  0  0  0  0  0
   -1.5396   15.3373   40.8066 C   0  0  0  0  0  0  0  0  0  0  0  0
   -1.4573   14.5018   39.6082 C   0  0  0  0  0  0  0  0  0  0  0  0
   -2.5661   13.8002   39.1137 C   0  0  0  0  0  0  0  0  0  0  0  0
   -2.4743   13.0382   37.9531 C   0  0  0  0  0  0  0  0  0  0  0  0
   -1.2753   13.0187   37.2656 C   0  0  0  0  0  0  0  0  0  0  0  0
   -0.1558   13.7021   37.7158 C   0  0  0  0  0  0  0  0  0  0  0  0
   -0.2646   14.4498   38.8851 C   0  0  0  0  0  0  0  0  0  0  0  0
   -2.6772   15.4956   41.5531 C   0  0  0  0  0  0  0  0  0  0  0  0
    1.9634   17.7187   41.3269 C   0  0  0  0  0  0  0  0  0  0  0  0
    3.0751   18.3628   40.7808 C   0  0  0  0  0  0  0  0  0  0  0  0
    0.1164   17.6794   42.9419 N   0  0  0  0  0  0  0  0  0  0  0  0
   -0.4430   16.1469   41.1862 N   0  0  0  0  0  0  0  0  0  0  0  0
    4.9420   21.4880   41.0521 O   0  0  0  0  0  0  0  0  0  0  0  0
    5.3227   19.7444   39.6882 O   0  0  0  0  0  0  0  0  0  0  0  0
    3.6173   17.8927   39.6083 O   0  0  0  0  0  0  0  0  0  0  0  0
   -2.4543   16.6947   42.7699 S   0  0  0  0  0  0  0  0  0  0  0  0
   -1.1577   12.1072   35.7970 Cl  0  0  0  0  0  0  0  0  0  0  0  0
    3.3767   20.9472   42.9209 H   0  0  0  0  0  0  0  0  0  0  0  0
    1.2383   19.9939   43.7527 H   0  0  0  0  0  0  0  0  0  0  0  0
   -3.5239   13.8531   39.6519 H   0  0  0  0  0  0  0  0  0  0  0  0
   -3.3386   12.4628   37.5900 H   0  0  0  0  0  0  0  0  0  0  0  0
    0.7940   13.6548   37.1630 H   0  0  0  0  0  0  0  0  0  0  0  0
    0.6088   15.0119   39.2472 H   0  0  0  0  0  0  0  0  0  0  0  0
   -3.6088   14.9322   41.3966 H   0  0  0  0  0  0  0  0  0  0  0  0
    1.5802   16.7960   40.8665 H   0  0  0  0  0  0  0  0  0  0  0  0
   -0.1515   17.9785   43.8905 H   0  0  0  0  0  0  0  0  0  0  0  0
  1  2  1  0
  1 19  1  0
  1 20  2  0
  2  3  1  0
  2 16  2  0
  3  4  2  0
  4  5  1  0
  5 15  2  0
  5 17  1  0
  6 17  1  0
  6 18  2  0
  6 22  1  0
  7  8  1  0
  7 14  2  0
  7 18  1  0
  8  9  1  0
  8 13  2  0
  9 10  2  0
 10 11  1  0
 11 12  2  0
 11 23  1  0
 12 13  1  0
 14 22  1  0
 15 16  1  0
 16 21  1  0
  3 24  1  0
  4 25  1  0
  9 26  1  0
 10 27  1  0
 12 28  1  0
 13 29  1  0
 14 30  1  0
 15 31  1  0
 17 32  1  0
M  CHG  2  19  -1  21  -1
M  END
>  <mol_id>  (15) 
2026-08-24-6tgu-s0-n20-r7-0015

>  <rmsd_to_ref>  (15) 
3.7500000000091642

>  <pose_kind>  (15) 
rigid

$$$$
6tgu.A
     RDKit          3D

 32 34  0  0  0  0  0  0  0  0999 V2000
    2.9561   22.8380   42.7944 C   0  0  0  0  0  0  0  0  0  0  0  0
    2.5648   21.4347   42.7335 C   0  0  0  0  0  0  0  0  0  0  0  0
    2.1561   20.7595   43.8630 C   0  0  0  0  0  0  0  0  0  0  0  0
    1.7877   19.4339   43.8054 C   0  0  0  0  0  0  0  0  0  0  0  0
    1.8076   18.7053   42.6080 C   0  0  0  0  0  0  0  0  0  0  0  0
    1.8001   16.3216   41.7904 C   0  0  0  0  0  0  0  0  0  0  0  0
    2.0795   14.3608   40.7303 C   0  0  0  0  0  0  0  0  0  0  0  0
    1.6901   12.9443   40.6056 C   0  0  0  0  0  0  0  0  0  0  0  0
    0.7376   12.3618   41.4106 C   0  0  0  0  0  0  0  0  0  0  0  0
    0.3801   11.0334   41.2898 C   0  0  0  0  0  0  0  0  0  0  0  0
    0.9999   10.2623   40.3271 C   0  0  0  0  0  0  0  0  0  0  0  0
    1.9648   10.8045   39.4932 C   0  0  0  0  0  0  0  0  0  0  0  0
    2.2818   12.1357   39.6589 C   0  0  0  0  0  0  0  0  0  0  0  0
    3.0457   14.9250   39.9055 C   0  0  0  0  0  0  0  0  0  0  0  0
    2.2158   19.3950   41.4985 C   0  0  0  0  0  0  0  0  0  0  0  0
    2.5935   20.7429   41.5424 C   0  0  0  0  0  0  0  0  0  0  0  0
    1.3989   17.3717   42.6661 N   0  0  0  0  0  0  0  0  0  0  0  0
    1.5776   15.2096   41.6004 N   0  0  0  0  0  0  0  0  0  0  0  0
    3.3651   23.5042   41.6515 O   0  0  0  0  0  0  0  0  0  0  0  0
    2.9330   23.4829   43.8871 O   0  0  0  0  0  0  0  0  0  0  0  0
    3.0016   21.4113   40.4061 O   0  0  0  0  0  0  0  0  0  0  0  0
    3.1273   16.6519   40.4859 S   0  0  0  0  0  0  0  0  0  0  0  0
    0.5723    8.5814   40.1476 Cl  0  0  0  0  0  0  0  0  0  0  0  0
    2.1332   21.3092   44.8076 H   0  0  0  0  0  0  0  0  0  0  0  0
    1.4736   18.9463   44.7201 H   0  0  0  0  0  0  0  0  0  0  0  0
    0.2414   12.9704   42.1788 H   0  0  0  0  0  0  0  0  0  0  0  0
   -0.3803   10.6274   41.9551 H   0  0  0  0  0  0  0  0  0  0  0  0
    2.4430   10.2022   38.7476 H   0  0  0  0  0  0  0  0  0  0  0  0
    3.0495   12.5248   38.9800 H   0  0  0  0  0  0  0  0  0  0  0  0
    3.6167   14.5163   39.1309 H   0  0  0  0  0  0  0  0  0  0  0  0
    2.2517   18.9346   40.5444 H   0  0  0  0  0  0  0  0  0  0  0  0
    0.7303   17.0873   43.4165 H   0  0  0  0  0  0  0  0  0  0  0  0
  1  2  1  0
  1 19  1  0
  1 20  2  0
  2  3  1  0
  2 16  2  0
  3  4  2  0
  4  5  1  0
  5 15  2  0
  5 17  1  0
  6 17  1  0
  6 18  2  0
  6 22  1  0
  7  8  1  0
  7 14  2  0
  7 18  1  0
  8  9  1  0
  8 13  2  0
  9 10  2  0
 10 11  1  0
 11 12  2  0
 11 23  1  0
 12 13  1  0
 14 22  1  0
 15 16  1  0
 16 21  1  0
  3 24  1  0
  4 25  1  0
  9 26  1  0
 10 27  1  0
 12 28  1  0
 13 29  1  0
 14 30  1  0
 15 31  1  0
 17 32  1  0
M  CHG  2  19  -1  21  -1
M  END
>  <mol_id>  (16) 
2026-08-24-6tgu-s0-n20-r7-0016

>  <rmsd_to_ref>  (16) 
4.00000000000717

>  <pose_kind>  (16) 
conformer

$$$$
6tgu.A
     RDKit          3D

 32 34  0  0  0  0  0  0  0  0999 V2000
    3.1461   16.2581   34.4545 C   0  0  0  0  0  0  0  0  0  0  0  0
    3.5253   16.1823   35.9361 C   0  0  0  0  0  0  0  0  0  0  0  0
    4.7068   16.7609   36.3943 C   0  0  0  0  0  0  0  0  0  0  0  0
    4.9950   16.8790   37.7579 C   0  0  0  0  0  0  0  0  0  0  0  0
    4.1737   16.2547   38.7078 C   0  0  0  0  0  0  0  0  0  0  0  0
    3.5761   16.3348   41.1776 C   0  0  0  0  0  0  0  0  0  0  0  0
    1.6542   15.9041   42.3162 C   0  0  0  0  0  0  0  0  0  0  0  0
    0.2852   15.4110   42.4713 C   0  0  0  0  0  0  0  0  0  0  0  0
   -0.4370   15.5844   43.6606 C   0  0  0  0  0  0  0  0  0  0  0  0
   -1.7496   15.1374   43.7752 C   0  0  0  0  0  0  0  0  0  0  0  0
   -2.3500   14.5543   42.6752 C   0  0  0  0  0  0  0  0  0  0  0  0
   -1.6747   14.3684   41.4784 C   0  0  0  0  0  0  0  0  0  0  0  0
   -0.3583   14.8122   41.3872 C   0  0  0  0  0  0  0  0  0  0  0  0
    2.3513   16.5513   43.3019 C   0  0  0  0  0  0  0  0  0  0  0  0
    2.9751   15.6775   38.2645 C   0  0  0  0  0  0  0  0  0  0  0  0
    2.6799   15.6468   36.9004 C   0  0  0  0  0  0  0  0  0  0  0  0
    4.4176   16.4191   40.1059 N   0  0  0  0  0  0  0  0  0  0  0  0
    2.2933   15.8445   41.0552 N   0  0  0  0  0  0  0  0  0  0  0  0
    3.8644   17.0031   33.7249 O   0  0  0  0  0  0  0  0  0  0  0  0
    2.1147   15.6456   34.1013 O   0  0  0  0  0  0  0  0  0  0  0  0
    1.4573   15.1736   36.4864 O   0  0  0  0  0  0  0  0  0  0  0  0
    3.8501   17.1537   42.7032 S   0  0  0  0  0  0  0  0  0  0  0  0
   -3.9972   14.0298   42.7902 Cl  0  0  0  0  0  0  0  0  0  0  0  0
    5.4356   17.1366   35.6610 H   0  0  0  0  0  0  0  0  0  0  0  0
    5.8678   17.4628   38.0859 H   0  0  0  0  0  0  0  0  0  0  0  0
    0.0419   16.0819   44.5169 H   0  0  0  0  0  0  0  0  0  0  0  0
   -2.2985   15.2459   44.7223 H   0  0  0  0  0  0  0  0  0  0  0  0
   -2.1666   13.8825   40.6228 H   0  0  0  0  0  0  0  0  0  0  0  0
    0.1867   14.6881   40.4398 H   0  0  0  0  0  0  0  0  0  0  0  0
    2.0007   16.6704   44.3377 H   0  0  0  0  0  0  0  0  0  0  0  0
    2.2685   15.2494   38.9907 H   0  0  0  0  0  0  0  0  0  0  0  0
    5.3948   16.6385   40.3462 H   0  0  0  0  0  0  0  0  0  0  0  0
  1  2  1  0
  1 19  1  0
  1 20  2  0
  2  3  1  0
  2 16  2  0
  3  4  2  0
  4  5  1  0
  5 15  2  0
  5 17  1  0
  6 17  1  0
  6 18  2  0
  6 22  1  0
  7  8  1  0
  7 14  2  0
  7 18  1  0
  8  9  1  0
  8 13  2  0
  9 10  2  0
 10 11  1  0
 11 12  2  0
 11 23  1  0
 12 13  1  0
 14 22  1  0
 15 16  1  0
 16 21  1  0
  3 24  1  0
  4 25  1  0
  9 26  1  0
 10 27  1  0
 12 28  1  0
 13 29  1  0
 14 30  1  0
 15 31  1  0
 17 32  1  0
M  CHG  2  19  -1  21  -1
M  END
>  <mol_id>  (17) 
2026-08-24-6tgu-s0-n20-r7-0017

>  <rmsd_to_ref>  (17) 
4.250000000003258

>  <pose_kind>  (17) 
rigid

$$$$
6tgu.A
     RDKit          3D

 32 34  0  0  0  0  0  0  0  0999 V2000
   -3.2916   18.7244   36.8833 C   0  0  0  0  0  0  0  0  0  0  0  0
   -2.1175   18.2705   37.6561 C   0  0  0  0  0  0  0  0  0  0  0  0
   -2.3098   17.2456   38.5388 C   0  0  0  0  0  0  0  0  0  0  0  0
   -1.2461   16.7690   39.3037 C   0  0  0  0  0  0  0  0  0  0  0  0
    0.0100   17.3040   39.1991 C   0  0  0  0  0  0  0  0  0  0  0  0
    1.1528   16.3216   41.2044 C   0  0  0  0  0  0  0  0  0  0  0  0
    1.8042   15.3525   43.1593 C   0  0  0  0  0  0  0  0  0  0  0  0
    2.8685   14.8087   44.0472 C   0  0  0  0  0  0  0  0  0  0  0  0
    2.5772   14.2963   45.2723 C   0  0  0  0  0  0  0  0  0  0  0  0
    3.5844   13.8062   46.0602 C   0  0  0  0  0  0  0  0  0  0  0  0
    4.9091   13.8067   45.6645 C   0  0  0  0  0  0  0  0  0  0  0  0
    5.2207   14.3274   44.4151 C   0  0  0  0  0  0  0  0  0  0  0  0
    4.1888   14.8125   43.6456 C   0  0  0  0  0  0  0  0  0  0  0  0
    0.4767   15.3297   43.6070 C   0  0  0  0  0  0  0  0  0  0  0  0
    0.1632   18.3463   38.2881 C   0  0  0  0  0  0  0  0  0  0  0  0
   -0.8817   18.8252   37.5262 C   0  0  0  0  0  0  0  0  0  0  0  0
    1.1439   16.9196   39.9326 N   0  0  0  0  0  0  0  0  0  0  0  0
    2.0267   15.8446   42.0012 N   0  0  0  0  0  0  0  0  0  0  0  0
   -3.0768   19.7726   35.9912 O   0  0  0  0  0  0  0  0  0  0  0  0
   -4.4245   18.1977   37.0192 O   0  0  0  0  0  0  0  0  0  0  0  0
   -0.6771   19.8695   36.6287 O   0  0  0  0  0  0  0  0  0  0  0  0
   -0.4377   16.0930   42.1870 S   0  0  0  0  0  0  0  0  0  0  0  0
    6.1383   13.1668   46.7227 Cl  0  0  0  0  0  0  0  0  0  0  0  0
   -3.3091   16.7974   38.6432 H   0  0  0  0  0  0  0  0  0  0  0  0
   -1.4545   15.9670   39.9602 H   0  0  0  0  0  0  0  0  0  0  0  0
    1.5615   14.2632   45.6469 H   0  0  0  0  0  0  0  0  0  0  0  0
    3.3268   13.4043   47.0286 H   0  0  0  0  0  0  0  0  0  0  0  0
    6.2359   14.3481   44.0642 H   0  0  0  0  0  0  0  0  0  0  0  0
    4.4769   15.2140   42.6668 H   0  0  0  0  0  0  0  0  0  0  0  0
    0.0023   14.9885   44.5074 H   0  0  0  0  0  0  0  0  0  0  0  0
    1.1251   18.8400   38.1313 H   0  0  0  0  0  0  0  0  0  0  0  0
    2.0916   17.0874   39.5008 H   0  0  0  0  0  0  0  0  0  0  0  0
  1  2  1  0
  1 19  1  0
  1 20  2  0
  2  3  1  0
  2 16  2  0
  3  4  2  0
  4  5  1  0
  5 15  2  0
  5 17  1  0
  6 17  1  0
  6 18  2  0
  6 22  1  0
  7  8  1  0
  7 14  2  0
  7 18  1  0
  8  9  1  0
  8 13  2  0
  9 10  2  0
 10 11  1  0
 11 12  2  0
 11 23  1  0
 12 13  1  0
 14 22  1  0
 15 16  1  0
 16 21  1  0
  3 24  1  0
  4 25  1  0
  9 26  1  0
 10 27  1  0
 12 28  1  0
 13 29  1  0
 14 30  1  0
 15 31  1  0
 17 32  1  0
M  CHG  2  19  -1  21  -1
M  END
>  <mol_id>  (18) 
2026-08-24-6tgu-s0-n20-r7-0018

>  <rmsd_to_ref>  (18) 
4.5000000000009965

>  <pose_kind>  (18) 
conformer

$$$$
6tgu.A
     RDKit          3D

 32 34  0  0  0  0  0  0  0  0999 V2000
    6.2219   20.4117   41.6117 C   0  0  0  0  0  0  0  0  0  0  0  0
    4.9746   19.5600   41.8638 C   0  0  0  0  0  0  0  0  0  0  0  0
    4.1534   19.8156   42.9597 C   0  0  0  0  0  0  0  0  0  0  0  0
    2.9126   19.1900   43.1190 C   0  0  0  0  0  0  0  0  0  0  0  0
    2.5345   18.1472   42.2607 C   0  0  0  0  0  0  0  0  0  0  0  0
    0.4805   16.8906   41.4452 C   0  0  0  0  0  0  0  0  0  0  0  0
   -0.0385   15.9005   39.4637 C   0  0  0  0  0  0  0  0  0  0  0  0
    0.2421   15.3880   38.1222 C   0  0  0  0  0  0  0  0  0  0  0  0
   -0.7709   14.8929   37.2887 C   0  0  0  0  0  0  0  0  0  0  0  0
   -0.4867   14.4415   36.0036 C   0  0  0  0  0  0  0  0  0  0  0  0
    0.8130   14.5304   35.5417 C   0  0  0  0  0  0  0  0  0  0  0  0
    1.8441   15.0185   36.3301 C   0  0  0  0  0  0  0  0  0  0  0  0
    1.5416   15.4547   37.6171 C   0  0  0  0  0  0  0  0  0  0  0  0
   -1.2867   15.9278   40.0274 C   0  0  0  0  0  0  0  0  0  0  0  0
    3.3442   17.8848   41.1465 C   0  0  0  0  0  0  0  0  0  0  0  0
    4.5400   18.5845   40.9745 C   0  0  0  0  0  0  0  0  0  0  0  0
    1.2449   17.5419   42.3699 N   0  0  0  0  0  0  0  0  0  0  0  0
    0.9835   16.5294   40.2134 N   0  0  0  0  0  0  0  0  0  0  0  0
    6.3620   21.4379   42.3401 O   0  0  0  0  0  0  0  0  0  0  0  0
    6.9564   20.0729   40.6580 O   0  0  0  0  0  0  0  0  0  0  0  0
    5.2727   18.3942   39.8270 O   0  0  0  0  0  0  0  0  0  0  0  0
   -1.2665   16.7708   41.5297 S   0  0  0  0  0  0  0  0  0  0  0  0
    1.1745   14.0102   33.9292 Cl  0  0  0  0  0  0  0  0  0  0  0  0
    4.4912   20.5316   43.7234 H   0  0  0  0  0  0  0  0  0  0  0  0
    2.2319   19.5165   43.9190 H   0  0  0  0  0  0  0  0  0  0  0  0
   -1.8070   14.8607   37.6568 H   0  0  0  0  0  0  0  0  0  0  0  0
   -1.2806   14.0224   35.3679 H   0  0  0  0  0  0  0  0  0  0  0  0
    2.8749   15.0601   35.9483 H   0  0  0  0  0  0  0  0  0  0  0  0
    2.3444   15.8608   38.2500 H   0  0  0  0  0  0  0  0  0  0  0  0
   -2.1825   15.4722   39.5804 H   0  0  0  0  0  0  0  0  0  0  0  0
    3.0377   17.1285   40.4089 H   0  0  0  0  0  0  0  0  0  0  0  0
    0.8196   17.6082   43.3056 H   0  0  0  0  0  0  0  0  0  0  0  0
  1  2  1  0
  1 19  1  0
  1 20  2  0
  2  3  1  0
  2 16  2  0
  3  4  2  0
  4  5  1  0
  5 15  2  0
  5 17  1  0
  6 17  1  0
  6 18  2  0
  6 22  1  0
  7  8  1  0
  7 14  2  0
  7 18  1  0
  8  9  1  0
  8 13  2  0
  9 10  2  0
 10 11  1  0
 11 12  2  0
 11 23  1  0
 12 13  1  0
 14 22  1  0
 15 16  1  0
 16 21  1  0
  3 24  1  0
  4 25  1  0
  9 26  1  0
 10 27  1  0
 12 28  1  0
 13 29  1  0
 14 30  1  0
 15 31  1  0
 17 32  1  0
M  CHG  2  19  -1  21  -1
M  END
>  <mol_id>  (19) 
2026-08-24-6tgu-s0-n20-r7-0019

>  <rmsd_to_ref>  (19) 
4.750000000000102

>  <pose_kind>  (19) 
rigid

$$$$
6tgu.A
     RDKit          3D

 32 34  0  0  0  0  0  0  0  0999 V2000
    7.2560   16.8941   38.6499 C   0  0  0  0  0  0  0  0  0  0  0  0
    5.9539   16.5663   39.2140 C   0  0  0  0  0  0  0  0  0  0  0  0
    5.1384   17.5226   39.7783 C   0  0  0  0  0  0  0  0  0  0  0  0
    3.8972   17.1917   40.3130 C   0  0  0  0  0  0  0  0  0  0  0  0
    3.4133   15.9066   40.3120 C   0  0  0  0  0  0  0  0  0  0  0  0
    1.4482   16.0638   41.8581 C   0  0  0  0  0  0  0  0  0  0  0  0
   -0.1888   16.5319   43.3830 C   0  0  0  0  0  0  0  0  0  0  0  0
   -1.4961   16.2715   44.0255 C   0  0  0  0  0  0  0  0  0  0  0  0
   -1.9448   17.0644   45.0469 C   0  0  0  0  0  0  0  0  0  0  0  0
   -3.1714   16.7651   45.5995 C   0  0  0  0  0  0  0  0  0  0  0  0
   -3.9616   15.7159   45.1782 C   0  0  0  0  0  0  0  0  0  0  0  0
   -3.4917   14.9284   44.1474 C   0  0  0  0  0  0  0  0  0  0  0  0
   -2.2654   15.2186   43.5866 C   0  0  0  0  0  0  0  0  0  0  0  0
    0.6191   17.6714   43.8746 C   0  0  0  0  0  0  0  0  0  0  0  0
    4.2541   14.9460   39.7345 C   0  0  0  0  0  0  0  0  0  0  0  0
    5.4815   15.2717   39.2054 C   0  0  0  0  0  0  0  0  0  0  0  0
    2.2056   15.4636   40.8353 N   0  0  0  0  0  0  0  0  0  0  0  0
    0.3268   15.8819   42.4464 N   0  0  0  0  0  0  0  0  0  0  0  0
    7.6736   18.2159   38.6882 O   0  0  0  0  0  0  0  0  0  0  0  0
    7.9357   15.9598   38.1562 O   0  0  0  0  0  0  0  0  0  0  0  0
    6.2672   14.2749   38.6477 O   0  0  0  0  0  0  0  0  0  0  0  0
    2.0854   17.5682   42.7956 S   0  0  0  0  0  0  0  0  0  0  0  0
   -5.5228   15.4094   45.9491 Cl  0  0  0  0  0  0  0  0  0  0  0  0
    5.5086   18.5418   39.7863 H   0  0  0  0  0  0  0  0  0  0  0  0
    3.3263   17.9904   40.7192 H   0  0  0  0  0  0  0  0  0  0  0  0
   -1.3942   17.8968   45.4323 H   0  0  0  0  0  0  0  0  0  0  0  0
   -3.5282   17.3881   46.4049 H   0  0  0  0  0  0  0  0  0  0  0  0
   -4.0866   14.1046   43.7994 H   0  0  0  0  0  0  0  0  0  0  0  0
   -1.8773   14.6160   42.7788 H   0  0  0  0  0  0  0  0  0  0  0  0
    0.4060   18.3203   44.6068 H   0  0  0  0  0  0  0  0  0  0  0  0
    3.9398   13.9037   39.6955 H   0  0  0  0  0  0  0  0  0  0  0  0
    1.7811   14.5714   40.4338 H   0  0  0  0  0  0  0  0  0  0  0  0
  1  2  1  0
  1 19  1  0
  1 20  2  0
  2  3  1  0
  2 16  2  0
  3  4  2  0
  4  5  1  0
  5 15  2  0
  5 17  1  0
  6 17  1  0
  6 18  2  0
  6 22  1  0
  7  8  1  0
  7 14  2  0
  7 18  1  0
  8  9  1  0
  8 13  2  0
  9 10  2  0
 10 11  1  0
 11 12  2  0
 11 23  1  0
 12 13  1  0
 14 22  1  0
 15 16  1  0
 16 21  1  0
  3 24  1  0
  4 25  1  0
  9 26  1  0
 10 27  1  0
 12 28  1  0
 13 29  1  0
 14 30  1  0
 15 31  1  0
 17 32  1  0
M  CHG  2  19  -1  21  -1
M  END
>  <mol_id>  (20) 
2026-08-24-6tgu-s0-n20-r7-0020

>  <rmsd_to_ref>  (20) 
5.000000000005702

>  <pose_kind>  (20) 
conformer

$$$$
