6tgu.A
     RDKit          3D

 32 34  0  0  0  0  0  0  0  0999 V2000
    3.2704   20.0816   36.9100 C   0  0  0  0  0  0  0  0  0  0  0  0
    2.7239   19.8375   38.3194 C   0  0  0  0  0  0  0  0  0  0  0  0
    1.9745   20.8172   38.9669 C   0  0  0  0  0  0  0  0  0  0  0  0
    1.3019   20.5646   40.1670 C   0  0  0  0  0  0  0  0  0  0  0  0
    1.5079   19.3565   40.8488 C   0  0  0  0  0  0  0  0  0  0  0  0
    0.4444   17.8615   42.6087 C   0  0  0  0  0  0  0  0  0  0  0  0
    0.4288   15.6073   42.9153 C   0  0  0  0  0  0  0  0  0  0  0  0
    0.8553   14.2304   42.6635 C   0  0  0  0  0  0  0  0  0  0  0  0
    0.2328   13.1351   43.2790 C   0  0  0  0  0  0  0  0  0  0  0  0
    0.6322   11.8319   42.9995 C   0  0  0  0  0  0  0  0  0  0  0  0
    1.6306   11.6302   42.0652 C   0  0  0  0  0  0  0  0  0  0  0  0
    2.2690   12.6840   41.4288 C   0  0  0  0  0  0  0  0  0  0  0  0
    1.8629   13.9810   41.7304 C   0  0  0  0  0  0  0  0  0  0  0  0
   -0.5843   15.9508   43.7709 C   0  0  0  0  0  0  0  0  0  0  0  0
    2.2504   18.3557   40.2060 C   0  0  0  0  0  0  0  0  0  0  0  0
    2.8437   18.6148   38.9691 C   0  0  0  0  0  0  0  0  0  0  0  0
    0.7803   19.0569   42.0413 N   0  0  0  0  0  0  0  0  0  0  0  0
    0.9791   16.6716   42.1626 N   0  0  0  0  0  0  0  0  0  0  0  0
    2.8674   21.1275   36.3211 O   0  0  0  0  0  0  0  0  0  0  0  0
    4.0035   19.1925   36.4244 O   0  0  0  0  0  0  0  0  0  0  0  0
    3.4800   17.5959   38.3007 O   0  0  0  0  0  0  0  0  0  0  0  0
   -0.9334   17.6347   43.6687 S   0  0  0  0  0  0  0  0  0  0  0  0
    2.1103   10.0114   41.6767 Cl  0  0  0  0  0  0  0  0  0  0  0  0
    1.9097   21.8205   38.5206 H   0  0  0  0  0  0  0  0  0  0  0  0
    0.6099   21.3151   40.5769 H   0  0  0  0  0  0  0  0  0  0  0  0
   -0.5845   13.3089   43.9944 H   0  0  0  0  0  0  0  0  0  0  0  0
    0.1628   10.9792   43.5119 H   0  0  0  0  0  0  0  0  0  0  0  0
    3.0758   12.4998   40.7041 H   0  0  0  0  0  0  0  0  0  0  0  0
    2.3468   14.8280   41.2221 H   0  0  0  0  0  0  0  0  0  0  0  0
   -1.1055   15.2454   44.4348 H   0  0  0  0  0  0  0  0  0  0  0  0
    2.3653   17.3677   40.6757 H   0  0  0  0  0  0  0  0  0  0  0  0
    0.4535   19.8836   42.5615 H   0  0  0  0  0  0  0  0  0  0  0  0
  1  2  1  0
  1 19  1  0
  1 20  2  0
  2  3  1  0
  2 16  2  0
  3  4  2  0
  4  5  1  0
  5 15  2  0
  5 17  1  0
  6 17  1  0
  6 18  2  0
  6 22  1  0
  7  8  1  0
  7 14  2  0
  7 18  1  0
  8  9  1  0
  8 13  2  0
  9 10  2  0
 10 11  1  0
 11 12  2  0
 11 23  1  0
 12 13  1  0
 14 22  1  0
 15 16  1  0
 16 21  1  0
  3 24  1  0
  4 25  1  0
  9 26  1  0
 10 27  1  0
 12 28  1  0
 13 29  1  0
 14 30  1  0
 15 31  1  0
 17 32  1  0
M  CHG  2  19  -1  21  -1
M  END
>  <mol_id>  (1) 
2026-08-23-6tgu-s0-n100-r3-0001

>  <rmsd_to_ref>  (1) 
0.0

$$$$
6tgu.A
     RDKit          3D

 32 34  0  0  0  0  0  0  0  0999 V2000
    3.3087   19.6229   36.6796 C   0  0  0  0  0  0  0  0  0  0  0  0
    2.6045   19.5319   37.9557 C   0  0  0  0  0  0  0  0  0  0  0  0
    2.0512   20.6313   38.5587 C   0  0  0  0  0  0  0  0  0  0  0  0
    1.3953   20.5062   39.7611 C   0  0  0  0  0  0  0  0  0  0  0  0
    1.2617   19.2758   40.4174 C   0  0  0  0  0  0  0  0  0  0  0  0
    0.4420   17.9709   42.3122 C   0  0  0  0  0  0  0  0  0  0  0  0
    0.4724   15.8031   42.9984 C   0  0  0  0  0  0  0  0  0  0  0  0
    0.8525   14.4129   42.8006 C   0  0  0  0  0  0  0  0  0  0  0  0
    1.5590   14.0387   41.6790 C   0  0  0  0  0  0  0  0  0  0  0  0
    1.9532   12.7441   41.4236 C   0  0  0  0  0  0  0  0  0  0  0  0
    1.6340   11.7710   42.3203 C   0  0  0  0  0  0  0  0  0  0  0  0
    0.9260   12.1331   43.4487 C   0  0  0  0  0  0  0  0  0  0  0  0
    0.5328   13.4302   43.7015 C   0  0  0  0  0  0  0  0  0  0  0  0
   -0.2788   16.1894   44.1949 C   0  0  0  0  0  0  0  0  0  0  0  0
    1.8336   18.1978   39.7744 C   0  0  0  0  0  0  0  0  0  0  0  0
    2.4977   18.3039   38.5640 C   0  0  0  0  0  0  0  0  0  0  0  0
    0.5860   19.1878   41.6423 N   0  0  0  0  0  0  0  0  0  0  0  0
    0.7029   16.8199   42.2437 N   0  0  0  0  0  0  0  0  0  0  0  0
    3.4271   20.8523   36.0505 O   0  0  0  0  0  0  0  0  0  0  0  0
    3.7904   18.5685   36.1879 O   0  0  0  0  0  0  0  0  0  0  0  0
    3.0552   17.1684   37.9660 O   0  0  0  0  0  0  0  0  0  0  0  0
   -0.4925   18.0095   43.9517 S   0  0  0  0  0  0  0  0  0  0  0  0
    2.1223   10.1091   42.0240 Cl  0  0  0  0  0  0  0  0  0  0  0  0
    2.1572   21.5818   38.0467 H   0  0  0  0  0  0  0  0  0  0  0  0
    0.9789   21.4199   40.1854 H   0  0  0  0  0  0  0  0  0  0  0  0
    1.8041   14.8322   40.9746 H   0  0  0  0  0  0  0  0  0  0  0  0
    2.5026   12.5530   40.5172 H   0  0  0  0  0  0  0  0  0  0  0  0
    0.6493   11.3765   44.1964 H   0  0  0  0  0  0  0  0  0  0  0  0
   -0.0158   13.6812   44.5859 H   0  0  0  0  0  0  0  0  0  0  0  0
   -0.6210   15.6118   44.9972 H   0  0  0  0  0  0  0  0  0  0  0  0
    1.7815   17.2151   40.2021 H   0  0  0  0  0  0  0  0  0  0  0  0
    0.1910   20.0971   42.0303 H   0  0  0  0  0  0  0  0  0  0  0  0
  1  2  1  0
  1 19  1  0
  1 20  2  0
  2  3  1  0
  2 16  2  0
  3  4  2  0
  4  5  1  0
  5 15  2  0
  5 17  1  0
  6 17  1  0
  6 18  2  0
  6 22  1  0
  7  8  1  0
  7 14  2  0
  7 18  1  0
  8  9  1  0
  8 13  2  0
  9 10  2  0
 10 11  1  0
 11 12  2  0
 11 23  1  0
 12 13  1  0
 14 22  1  0
 15 16  1  0
 16 21  1  0
  3 24  1  0
  4 25  1  0
  9 26  1  0
 10 27  1  0
 12 28  1  0
 13 29  1  0
 14 30  1  0
 15 31  1  0
 17 32  1  0
M  CHG  2  19  -1  21  -1
M  END
>  <mol_id>  (2) 
2026-08-23-6tgu-s0-n100-r3-0002

>  <rmsd_to_ref>  (2) 
0.5000000000052285

$$$$
6tgu.A
     RDKit          3D

 32 34  0  0  0  0  0  0  0  0999 V2000
    2.9426   20.1660   36.8418 C   0  0  0  0  0  0  0  0  0  0  0  0
    2.3823   19.8455   38.2303 C   0  0  0  0  0  0  0  0  0  0  0  0
    1.4526   20.6917   38.8305 C   0  0  0  0  0  0  0  0  0  0  0  0
    0.7788   20.3401   40.0047 C   0  0  0  0  0  0  0  0  0  0  0  0
    1.1523   19.1887   40.7130 C   0  0  0  0  0  0  0  0  0  0  0  0
    0.2752   17.5514   42.4488 C   0  0  0  0  0  0  0  0  0  0  0  0
    0.6209   15.3287   42.7888 C   0  0  0  0  0  0  0  0  0  0  0  0
    1.2810   14.0402   42.5764 C   0  0  0  0  0  0  0  0  0  0  0  0
    0.8226   12.8614   43.1816 C   0  0  0  0  0  0  0  0  0  0  0  0
    1.4450   11.6408   42.9392 C   0  0  0  0  0  0  0  0  0  0  0  0
    2.5035   11.6009   42.0512 C   0  0  0  0  0  0  0  0  0  0  0  0
    2.9854   12.7413   41.4264 C   0  0  0  0  0  0  0  0  0  0  0  0
    2.3564   13.9548   41.6907 C   0  0  0  0  0  0  0  0  0  0  0  0
   -0.4721   15.5053   43.5954 C   0  0  0  0  0  0  0  0  0  0  0  0
    2.0786   18.3206   40.1175 C   0  0  0  0  0  0  0  0  0  0  0  0
    2.6748   18.6651   38.9031 C   0  0  0  0  0  0  0  0  0  0  0  0
    0.4325   18.7815   41.8780 N   0  0  0  0  0  0  0  0  0  0  0  0
    1.0194   16.4638   42.0440 N   0  0  0  0  0  0  0  0  0  0  0  0
    2.3978   21.1253   36.2204 O   0  0  0  0  0  0  0  0  0  0  0  0
    3.8340   19.4077   36.4013 O   0  0  0  0  0  0  0  0  0  0  0  0
    3.5006   17.7612   38.2779 O   0  0  0  0  0  0  0  0  0  0  0  0
   -1.0914   17.1065   43.4528 S   0  0  0  0  0  0  0  0  0  0  0  0
    3.2623   10.0817   41.7081 Cl  0  0  0  0  0  0  0  0  0  0  0  0
    1.2418   21.6665   38.3665 H   0  0  0  0  0  0  0  0  0  0  0  0
   -0.0457   20.9679   40.3734 H   0  0  0  0  0  0  0  0  0  0  0  0
   -0.0431   12.9022   43.8590 H   0  0  0  0  0  0  0  0  0  0  0  0
    1.1016   10.7259   43.4441 H   0  0  0  0  0  0  0  0  0  0  0  0
    3.8429   12.6884   40.7394 H   0  0  0  0  0  0  0  0  0  0  0  0
    2.7149   14.8666   41.1905 H   0  0  0  0  0  0  0  0  0  0  0  0
   -0.8978   14.7282   44.2473 H   0  0  0  0  0  0  0  0  0  0  0  0
    2.3351   17.3693   40.6067 H   0  0  0  0  0  0  0  0  0  0  0  0
   -0.0499   19.5463   42.3713 H   0  0  0  0  0  0  0  0  0  0  0  0
  1  2  1  0
  1 19  1  0
  1 20  2  0
  2  3  1  0
  2 16  2  0
  3  4  2  0
  4  5  1  0
  5 15  2  0
  5 17  1  0
  6 17  1  0
  6 18  2  0
  6 22  1  0
  7  8  1  0
  7 14  2  0
  7 18  1  0
  8  9  1  0
  8 13  2  0
  9 10  2  0
 10 11  1  0
 11 12  2  0
 11 23  1  0
 12 13  1  0
 14 22  1  0
 15 16  1  0
 16 21  1  0
  3 24  1  0
  4 25  1  0
  9 26  1  0
 10 27  1  0
 12 28  1  0
 13 29  1  0
 14 30  1  0
 15 31  1  0
 17 32  1  0
M  CHG  2  19  -1  21  -1
M  END
>  <mol_id>  (3) 
2026-08-23-6tgu-s0-n100-r3-0003

>  <rmsd_to_ref>  (3) 
0.5459183673518632

$$$$
6tgu.A
     RDKit          3D

 32 34  0  0  0  0  0  0  0  0999 V2000
    4.1129   19.6628   37.3233 C   0  0  0  0  0  0  0  0  0  0  0  0
    3.1843   19.5492   38.4337 C   0  0  0  0  0  0  0  0  0  0  0  0
    2.5187   20.6502   38.9265 C   0  0  0  0  0  0  0  0  0  0  0  0
    1.6463   20.5021   39.9804 C   0  0  0  0  0  0  0  0  0  0  0  0
    1.4002   19.2669   40.5837 C   0  0  0  0  0  0  0  0  0  0  0  0
    0.2543   17.9055   42.2677 C   0  0  0  0  0  0  0  0  0  0  0  0
    0.1184   15.7740   42.9732 C   0  0  0  0  0  0  0  0  0  0  0  0
    0.5829   14.3812   42.7901 C   0  0  0  0  0  0  0  0  0  0  0  0
    0.1171   13.3613   43.5944 C   0  0  0  0  0  0  0  0  0  0  0  0
    0.5395   12.0570   43.4375 C   0  0  0  0  0  0  0  0  0  0  0  0
    1.4497   11.7427   42.4585 C   0  0  0  0  0  0  0  0  0  0  0  0
    1.9366   12.7401   41.6354 C   0  0  0  0  0  0  0  0  0  0  0  0
    1.4954   14.0294   41.8180 C   0  0  0  0  0  0  0  0  0  0  0  0
   -0.7947   16.0924   43.9546 C   0  0  0  0  0  0  0  0  0  0  0  0
    2.0916   18.1979   40.0527 C   0  0  0  0  0  0  0  0  0  0  0  0
    2.9733   18.3110   38.9970 C   0  0  0  0  0  0  0  0  0  0  0  0
    0.4941   19.1594   41.6665 N   0  0  0  0  0  0  0  0  0  0  0  0
    0.5139   16.7873   42.2526 N   0  0  0  0  0  0  0  0  0  0  0  0
    4.3346   20.9238   36.7419 O   0  0  0  0  0  0  0  0  0  0  0  0
    4.7068   18.6548   36.8901 O   0  0  0  0  0  0  0  0  0  0  0  0
    3.6388   17.1777   38.5127 O   0  0  0  0  0  0  0  0  0  0  0  0
   -0.9903   17.9444   43.7066 S   0  0  0  0  0  0  0  0  0  0  0  0
    2.0007   10.0852   42.2426 Cl  0  0  0  0  0  0  0  0  0  0  0  0
    2.7126   21.6043   38.4561 H   0  0  0  0  0  0  0  0  0  0  0  0
    1.1425   21.3962   40.3378 H   0  0  0  0  0  0  0  0  0  0  0  0
   -0.6083   13.5784   44.3833 H   0  0  0  0  0  0  0  0  0  0  0  0
    0.1341   11.3059   44.1024 H   0  0  0  0  0  0  0  0  0  0  0  0
    2.6566   12.5170   40.8543 H   0  0  0  0  0  0  0  0  0  0  0  0
    1.8769   14.8041   41.1748 H   0  0  0  0  0  0  0  0  0  0  0  0
   -1.3194   15.5756   44.6981 H   0  0  0  0  0  0  0  0  0  0  0  0
    1.9616   17.2047   40.4588 H   0  0  0  0  0  0  0  0  0  0  0  0
    0.0331   20.0578   41.9725 H   0  0  0  0  0  0  0  0  0  0  0  0
  1  2  1  0
  1 19  1  0
  1 20  2  0
  2  3  1  0
  2 16  2  0
  3  4  2  0
  4  5  1  0
  5 15  2  0
  5 17  1  0
  6 17  1  0
  6 18  2  0
  6 22  1  0
  7  8  1  0
  7 14  2  0
  7 18  1  0
  8  9  1  0
  8 13  2  0
  9 10  2  0
 10 11  1  0
 11 12  2  0
 11 23  1  0
 12 13  1  0
 14 22  1  0
 15 16  1  0
 16 21  1  0
  3 24  1  0
  4 25  1  0
  9 26  1  0
 10 27  1  0
 12 28  1  0
 13 29  1  0
 14 30  1  0
 15 31  1  0
 17 32  1  0
M  CHG  2  19  -1  21  -1
M  END
>  <mol_id>  (4) 
2026-08-23-6tgu-s0-n100-r3-0004

>  <rmsd_to_ref>  (4) 
0.5918367347021238

$$$$
6tgu.A
     RDKit          3D

 32 34  0  0  0  0  0  0  0  0999 V2000
    2.7734   20.1198   36.7862 C   0  0  0  0  0  0  0  0  0  0  0  0
    2.2803   19.8150   38.2034 C   0  0  0  0  0  0  0  0  0  0  0  0
    1.3685   20.6600   38.8320 C   0  0  0  0  0  0  0  0  0  0  0  0
    0.7527   20.3195   40.0408 C   0  0  0  0  0  0  0  0  0  0  0  0
    1.1716   19.1838   40.7490 C   0  0  0  0  0  0  0  0  0  0  0  0
    0.3935   17.5644   42.5478 C   0  0  0  0  0  0  0  0  0  0  0  0
    0.7810   15.3514   42.9058 C   0  0  0  0  0  0  0  0  0  0  0  0
    1.4464   14.0673   42.6834 C   0  0  0  0  0  0  0  0  0  0  0  0
    1.0300   12.8931   43.3268 C   0  0  0  0  0  0  0  0  0  0  0  0
    1.6555   11.6760   43.0752 C   0  0  0  0  0  0  0  0  0  0  0  0
    2.6732   11.6341   42.1409 C   0  0  0  0  0  0  0  0  0  0  0  0
    3.1127   12.7698   41.4775 C   0  0  0  0  0  0  0  0  0  0  0  0
    2.4817   13.9801   41.7514 C   0  0  0  0  0  0  0  0  0  0  0  0
   -0.2765   15.5284   43.7583 C   0  0  0  0  0  0  0  0  0  0  0  0
    2.0805   18.3169   40.1256 C   0  0  0  0  0  0  0  0  0  0  0  0
    2.6171   18.6489   38.8803 C   0  0  0  0  0  0  0  0  0  0  0  0
    0.5101   18.7870   41.9516 N   0  0  0  0  0  0  0  0  0  0  0  0
    1.1318   16.4790   42.1263 N   0  0  0  0  0  0  0  0  0  0  0  0
    2.1897   21.0629   36.1755 O   0  0  0  0  0  0  0  0  0  0  0  0
    3.6532   19.3648   36.3174 O   0  0  0  0  0  0  0  0  0  0  0  0
    3.4246   17.7446   38.2322 O   0  0  0  0  0  0  0  0  0  0  0  0
   -0.9209   17.1201   43.6194 S   0  0  0  0  0  0  0  0  0  0  0  0
    3.4340   10.1183   41.7871 Cl  0  0  0  0  0  0  0  0  0  0  0  0
    1.1252   21.6249   38.3632 H   0  0  0  0  0  0  0  0  0  0  0  0
   -0.0619   20.9437   40.4368 H   0  0  0  0  0  0  0  0  0  0  0  0
    0.1953   12.9349   44.0420 H   0  0  0  0  0  0  0  0  0  0  0  0
    1.3463   10.7654   43.6092 H   0  0  0  0  0  0  0  0  0  0  0  0
    3.9388   12.7157   40.7533 H   0  0  0  0  0  0  0  0  0  0  0  0
    2.8062   14.8878   41.2215 H   0  0  0  0  0  0  0  0  0  0  0  0
   -0.6629   14.7570   44.4407 H   0  0  0  0  0  0  0  0  0  0  0  0
    2.3703   17.3765   40.6172 H   0  0  0  0  0  0  0  0  0  0  0  0
    0.0413   19.5540   42.4544 H   0  0  0  0  0  0  0  0  0  0  0  0
  1  2  1  0
  1 19  1  0
  1 20  2  0
  2  3  1  0
  2 16  2  0
  3  4  2  0
  4  5  1  0
  5 15  2  0
  5 17  1  0
  6 17  1  0
  6 18  2  0
  6 22  1  0
  7  8  1  0
  7 14  2  0
  7 18  1  0
  8  9  1  0
  8 13  2  0
  9 10  2  0
 10 11  1  0
 11 12  2  0
 11 23  1  0
 12 13  1  0
 14 22  1  0
 15 16  1  0
 16 21  1  0
  3 24  1  0
  4 25  1  0
  9 26  1  0
 10 27  1  0
 12 28  1  0
 13 29  1  0
 14 30  1  0
 15 31  1  0
 17 32  1  0
M  CHG  2  19  -1  21  -1
M  END
>  <mol_id>  (5) 
2026-08-23-6tgu-s0-n100-r3-0005

>  <rmsd_to_ref>  (5) 
0.6377551020416892

$$$$
6tgu.A
     RDKit          3D

 32 34  0  0  0  0  0  0  0  0999 V2000
    3.5707   20.3863   37.5691 C   0  0  0  0  0  0  0  0  0  0  0  0
    2.8207   20.0057   38.7629 C   0  0  0  0  0  0  0  0  0  0  0  0
    2.2418   20.9383   39.5837 C   0  0  0  0  0  0  0  0  0  0  0  0
    1.5428   20.5415   40.6997 C   0  0  0  0  0  0  0  0  0  0  0  0
    1.3896   19.1932   41.0479 C   0  0  0  0  0  0  0  0  0  0  0  0
    0.5058   17.4890   42.5577 C   0  0  0  0  0  0  0  0  0  0  0  0
    0.5187   15.2212   42.7237 C   0  0  0  0  0  0  0  0  0  0  0  0
    0.9107   13.9127   42.2232 C   0  0  0  0  0  0  0  0  0  0  0  0
    1.6590   13.8048   41.0719 C   0  0  0  0  0  0  0  0  0  0  0  0
    2.0669   12.6027   40.5381 C   0  0  0  0  0  0  0  0  0  0  0  0
    1.7185   11.4499   41.1728 C   0  0  0  0  0  0  0  0  0  0  0  0
    0.9685   11.5444   42.3278 C   0  0  0  0  0  0  0  0  0  0  0  0
    0.5617   12.7497   42.8597 C   0  0  0  0  0  0  0  0  0  0  0  0
   -0.2771   15.3236   43.9490 C   0  0  0  0  0  0  0  0  0  0  0  0
    1.9884   18.2905   40.1938 C   0  0  0  0  0  0  0  0  0  0  0  0
    2.6960   18.6708   39.0659 C   0  0  0  0  0  0  0  0  0  0  0  0
    0.6699   18.8273   42.1935 N   0  0  0  0  0  0  0  0  0  0  0  0
    0.7731   16.3839   42.2339 N   0  0  0  0  0  0  0  0  0  0  0  0
    3.7077   21.7273   37.2467 O   0  0  0  0  0  0  0  0  0  0  0  0
    4.0738   19.4720   36.8644 O   0  0  0  0  0  0  0  0  0  0  0  0
    3.2789   17.7018   38.2419 O   0  0  0  0  0  0  0  0  0  0  0  0
   -0.4882   17.1516   44.1264 S   0  0  0  0  0  0  0  0  0  0  0  0
    2.2231    9.8995   40.5175 Cl  0  0  0  0  0  0  0  0  0  0  0  0
    2.3631   21.9810   39.3100 H   0  0  0  0  0  0  0  0  0  0  0  0
    1.1080   21.3341   41.3086 H   0  0  0  0  0  0  0  0  0  0  0  0
    1.9269   14.7387   40.5799 H   0  0  0  0  0  0  0  0  0  0  0  0
    2.6497   12.6239   39.6327 H   0  0  0  0  0  0  0  0  0  0  0  0
    0.6672   10.6366   42.8693 H   0  0  0  0  0  0  0  0  0  0  0  0
   -0.0198   12.7918   43.7577 H   0  0  0  0  0  0  0  0  0  0  0  0
   -0.6464   14.5777   44.5827 H   0  0  0  0  0  0  0  0  0  0  0  0
    1.9242   17.2358   40.3800 H   0  0  0  0  0  0  0  0  0  0  0  0
    0.2578   19.6240   42.7670 H   0  0  0  0  0  0  0  0  0  0  0  0
  1  2  1  0
  1 19  1  0
  1 20  2  0
  2  3  1  0
  2 16  2  0
  3  4  2  0
  4  5  1  0
  5 15  2  0
  5 17  1  0
  6 17  1  0
  6 18  2  0
  6 22  1  0
  7  8  1  0
  7 14  2  0
  7 18  1  0
  8  9  1  0
  8 13  2  0
  9 10  2  0
 10 11  1  0
 11 12  2  0
 11 23  1  0
 12 13  1  0
 14 22  1  0
 15 16  1  0
 16 21  1  0
  3 24  1  0
  4 25  1  0
  9 26  1  0
 10 27  1  0
 12 28  1  0
 13 29  1  0
 14 30  1  0
 15 31  1  0
 17 32  1  0
M  CHG  2  19  -1  21  -1
M  END
>  <mol_id>  (6) 
2026-08-23-6tgu-s0-n100-r3-0006

>  <rmsd_to_ref>  (6) 
0.6836734693905209

$$$$
6tgu.A
     RDKit          3D

 32 34  0  0  0  0  0  0  0  0999 V2000
    2.8498   20.5401   37.4164 C   0  0  0  0  0  0  0  0  0  0  0  0
    2.4625   20.0554   38.8163 C   0  0  0  0  0  0  0  0  0  0  0  0
    1.7804   20.8967   39.6925 C   0  0  0  0  0  0  0  0  0  0  0  0
    1.2450   20.4344   40.8992 C   0  0  0  0  0  0  0  0  0  0  0  0
    1.5339   19.1371   41.3467 C   0  0  0  0  0  0  0  0  0  0  0  0
    0.6811   17.3481   42.9390 C   0  0  0  0  0  0  0  0  0  0  0  0
    0.7173   15.0745   42.8696 C   0  0  0  0  0  0  0  0  0  0  0  0
    1.1249   13.7686   42.3503 C   0  0  0  0  0  0  0  0  0  0  0  0
    0.5822   12.5718   42.8395 C   0  0  0  0  0  0  0  0  0  0  0  0
    0.9592   11.3424   42.3081 C   0  0  0  0  0  0  0  0  0  0  0  0
    1.8512   11.3217   41.2525 C   0  0  0  0  0  0  0  0  0  0  0  0
    2.4077   12.4813   40.7342 C   0  0  0  0  0  0  0  0  0  0  0  0
    2.0265   13.7008   41.2870 C   0  0  0  0  0  0  0  0  0  0  0  0
   -0.1990   15.2475   43.8730 C   0  0  0  0  0  0  0  0  0  0  0  0
    2.2099   18.2741   40.4723 C   0  0  0  0  0  0  0  0  0  0  0  0
    2.6624   18.7467   39.2391 C   0  0  0  0  0  0  0  0  0  0  0  0
    0.9434   18.6283   42.5440 N   0  0  0  0  0  0  0  0  0  0  0  0
    1.1735   16.2611   42.2485 N   0  0  0  0  0  0  0  0  0  0  0  0
    2.3764   21.6572   37.0543 O   0  0  0  0  0  0  0  0  0  0  0  0
    3.5326   19.7614   36.7157 O   0  0  0  0  0  0  0  0  0  0  0  0
    3.2301   17.8672   38.3480 O   0  0  0  0  0  0  0  0  0  0  0  0
   -0.5708   16.9159   44.0876 S   0  0  0  0  0  0  0  0  0  0  0  0
    2.2986    9.8009   40.5536 Cl  0  0  0  0  0  0  0  0  0  0  0  0
    1.6591   21.9573   39.4272 H   0  0  0  0  0  0  0  0  0  0  0  0
    0.5959   21.0899   41.4985 H   0  0  0  0  0  0  0  0  0  0  0  0
   -0.1535   12.6054   43.6566 H   0  0  0  0  0  0  0  0  0  0  0  0
    0.5554   10.4057   42.7198 H   0  0  0  0  0  0  0  0  0  0  0  0
    3.1320   12.4387   39.9074 H   0  0  0  0  0  0  0  0  0  0  0  0
    2.4452   14.6316   40.8768 H   0  0  0  0  0  0  0  0  0  0  0  0
   -0.6389   14.4300   44.4632 H   0  0  0  0  0  0  0  0  0  0  0  0
    2.3833   17.2260   40.7578 H   0  0  0  0  0  0  0  0  0  0  0  0
    0.6687   19.3504   43.2252 H   0  0  0  0  0  0  0  0  0  0  0  0
  1  2  1  0
  1 19  1  0
  1 20  2  0
  2  3  1  0
  2 16  2  0
  3  4  2  0
  4  5  1  0
  5 15  2  0
  5 17  1  0
  6 17  1  0
  6 18  2  0
  6 22  1  0
  7  8  1  0
  7 14  2  0
  7 18  1  0
  8  9  1  0
  8 13  2  0
  9 10  2  0
 10 11  1  0
 11 12  2  0
 11 23  1  0
 12 13  1  0
 14 22  1  0
 15 16  1  0
 16 21  1  0
  3 24  1  0
  4 25  1  0
  9 26  1  0
 10 27  1  0
 12 28  1  0
 13 29  1  0
 14 30  1  0
 15 31  1  0
 17 32  1  0
M  CHG  2  19  -1  21  -1
M  END
>  <mol_id>  (7) 
2026-08-23-6tgu-s0-n100-r3-0007

>  <rmsd_to_ref>  (7) 
0.7295918367396382

$$$$
6tgu.A
     RDKit          3D

 32 34  0  0  0  0  0  0  0  0999 V2000
    4.2436   19.4658   36.9181 C   0  0  0  0  0  0  0  0  0  0  0  0
    3.2493   19.3842   37.9845 C   0  0  0  0  0  0  0  0  0  0  0  0
    2.4965   20.4666   38.3586 C   0  0  0  0  0  0  0  0  0  0  0  0
    1.5694   20.3511   39.3679 C   0  0  0  0  0  0  0  0  0  0  0  0
    1.3511   19.1476   40.0508 C   0  0  0  0  0  0  0  0  0  0  0  0
    0.1644   17.8784   41.7672 C   0  0  0  0  0  0  0  0  0  0  0  0
    0.1543   15.7552   42.5812 C   0  0  0  0  0  0  0  0  0  0  0  0
    0.6560   14.3897   42.5754 C   0  0  0  0  0  0  0  0  0  0  0  0
    1.6423   14.0157   41.6897 C   0  0  0  0  0  0  0  0  0  0  0  0
    2.1662   12.7437   41.6254 C   0  0  0  0  0  0  0  0  0  0  0  0
    1.6926   11.7941   42.4780 C   0  0  0  0  0  0  0  0  0  0  0  0
    0.7040   12.1563   43.3707 C   0  0  0  0  0  0  0  0  0  0  0  0
    0.1815   13.4307   43.4326 C   0  0  0  0  0  0  0  0  0  0  0  0
   -0.8947   16.1415   43.5276 C   0  0  0  0  0  0  0  0  0  0  0  0
    2.1305   18.0858   39.6411 C   0  0  0  0  0  0  0  0  0  0  0  0
    3.0688   18.1827   38.6274 C   0  0  0  0  0  0  0  0  0  0  0  0
    0.3970   19.0686   41.0745 N   0  0  0  0  0  0  0  0  0  0  0  0
    0.5039   16.7485   41.8411 N   0  0  0  0  0  0  0  0  0  0  0  0
    4.4404   20.6685   36.2578 O   0  0  0  0  0  0  0  0  0  0  0  0
    4.8966   18.4281   36.6309 O   0  0  0  0  0  0  0  0  0  0  0  0
    3.8264   17.0647   38.2615 O   0  0  0  0  0  0  0  0  0  0  0  0
   -1.1514   17.9262   43.1196 S   0  0  0  0  0  0  0  0  0  0  0  0
    2.3401   10.1614   42.4215 Cl  0  0  0  0  0  0  0  0  0  0  0  0
    2.6691   21.3964   37.8269 H   0  0  0  0  0  0  0  0  0  0  0  0
    1.0051   21.2503   39.6152 H   0  0  0  0  0  0  0  0  0  0  0  0
    2.0070   14.7902   41.0166 H   0  0  0  0  0  0  0  0  0  0  0  0
    2.9356   12.5507   40.8969 H   0  0  0  0  0  0  0  0  0  0  0  0
    0.2956   11.4183   44.0754 H   0  0  0  0  0  0  0  0  0  0  0  0
   -0.5853   13.6824   44.1361 H   0  0  0  0  0  0  0  0  0  0  0  0
   -1.3909   15.5795   44.2572 H   0  0  0  0  0  0  0  0  0  0  0  0
    2.0331   17.1241   40.1067 H   0  0  0  0  0  0  0  0  0  0  0  0
   -0.1374   19.9633   41.2923 H   0  0  0  0  0  0  0  0  0  0  0  0
  1  2  1  0
  1 19  1  0
  1 20  2  0
  2  3  1  0
  2 16  2  0
  3  4  2  0
  4  5  1  0
  5 15  2  0
  5 17  1  0
  6 17  1  0
  6 18  2  0
  6 22  1  0
  7  8  1  0
  7 14  2  0
  7 18  1  0
  8  9  1  0
  8 13  2  0
  9 10  2  0
 10 11  1  0
 11 12  2  0
 11 23  1  0
 12 13  1  0
 14 22  1  0
 15 16  1  0
 16 21  1  0
  3 24  1  0
  4 25  1  0
  9 26  1  0
 10 27  1  0
 12 28  1  0
 13 29  1  0
 14 30  1  0
 15 31  1  0
 17 32  1  0
M  CHG  2  19  -1  21  -1
M  END
>  <mol_id>  (8) 
2026-08-23-6tgu-s0-n100-r3-0008

>  <rmsd_to_ref>  (8) 
0.775510204082181

$$$$
6tgu.A
     RDKit          3D

 32 34  0  0  0  0  0  0  0  0999 V2000
    2.6213   20.4274   37.1178 C   0  0  0  0  0  0  0  0  0  0  0  0
    2.1339   20.0570   38.5213 C   0  0  0  0  0  0  0  0  0  0  0  0
    1.1746   20.8353   39.1652 C   0  0  0  0  0  0  0  0  0  0  0  0
    0.5681   20.4289   40.3583 C   0  0  0  0  0  0  0  0  0  0  0  0
    1.0402   19.2967   41.0380 C   0  0  0  0  0  0  0  0  0  0  0  0
    0.3337   17.5884   42.7832 C   0  0  0  0  0  0  0  0  0  0  0  0
    0.8331   15.3891   43.0823 C   0  0  0  0  0  0  0  0  0  0  0  0
    1.5661   14.1480   42.8299 C   0  0  0  0  0  0  0  0  0  0  0  0
    1.2065   12.9359   43.4362 C   0  0  0  0  0  0  0  0  0  0  0  0
    1.8964   11.7606   43.1561 C   0  0  0  0  0  0  0  0  0  0  0  0
    2.9220   11.7981   42.2302 C   0  0  0  0  0  0  0  0  0  0  0  0
    3.3068   12.9736   41.6031 C   0  0  0  0  0  0  0  0  0  0  0  0
    2.6116   14.1413   41.9052 C   0  0  0  0  0  0  0  0  0  0  0  0
   -0.2387   15.4866   43.9298 C   0  0  0  0  0  0  0  0  0  0  0  0
    1.9976   18.4962   40.3987 C   0  0  0  0  0  0  0  0  0  0  0  0
    2.5257   18.8910   39.1681 C   0  0  0  0  0  0  0  0  0  0  0  0
    0.3911   18.8319   42.2228 N   0  0  0  0  0  0  0  0  0  0  0  0
    1.1307   16.5552   42.3382 N   0  0  0  0  0  0  0  0  0  0  0  0
    1.9939   21.3560   36.5287 O   0  0  0  0  0  0  0  0  0  0  0  0
    3.5427   19.7327   36.6360 O   0  0  0  0  0  0  0  0  0  0  0  0
    3.3842   18.0487   38.5022 O   0  0  0  0  0  0  0  0  0  0  0  0
   -0.9639   17.0461   43.8299 S   0  0  0  0  0  0  0  0  0  0  0  0
    3.7633   10.3346   41.8408 Cl  0  0  0  0  0  0  0  0  0  0  0  0
    0.8850   21.7993   38.7216 H   0  0  0  0  0  0  0  0  0  0  0  0
   -0.2808   20.9985   40.7643 H   0  0  0  0  0  0  0  0  0  0  0  0
    0.3653   12.9139   44.1447 H   0  0  0  0  0  0  0  0  0  0  0  0
    1.6309   10.8202   43.6613 H   0  0  0  0  0  0  0  0  0  0  0  0
    4.1401   12.9831   40.8852 H   0  0  0  0  0  0  0  0  0  0  0  0
    2.8924   15.0794   41.4041 H   0  0  0  0  0  0  0  0  0  0  0  0
   -0.5896   14.6770   44.5866 H   0  0  0  0  0  0  0  0  0  0  0  0
    2.3323   17.5584   40.8662 H   0  0  0  0  0  0  0  0  0  0  0  0
   -0.1208   19.5589   42.7428 H   0  0  0  0  0  0  0  0  0  0  0  0
  1  2  1  0
  1 19  1  0
  1 20  2  0
  2  3  1  0
  2 16  2  0
  3  4  2  0
  4  5  1  0
  5 15  2  0
  5 17  1  0
  6 17  1  0
  6 18  2  0
  6 22  1  0
  7  8  1  0
  7 14  2  0
  7 18  1  0
  8  9  1  0
  8 13  2  0
  9 10  2  0
 10 11  1  0
 11 12  2  0
 11 23  1  0
 12 13  1  0
 14 22  1  0
 15 16  1  0
 16 21  1  0
  3 24  1  0
  4 25  1  0
  9 26  1  0
 10 27  1  0
 12 28  1  0
 13 29  1  0
 14 30  1  0
 15 31  1  0
 17 32  1  0
M  CHG  2  19  -1  21  -1
M  END
>  <mol_id>  (9) 
2026-08-23-6tgu-s0-n100-r3-0009

>  <rmsd_to_ref>  (9) 
0.8214285714327584

$$$$
6tgu.A
     RDKit          3D

 32 34  0  0  0  0  0  0  0  0999 V2000
    2.7824   19.3300   36.5851 C   0  0  0  0  0  0  0  0  0  0  0  0
    2.1265   19.2360   37.8771 C   0  0  0  0  0  0  0  0  0  0  0  0
    1.4295   20.3002   38.4059 C   0  0  0  0  0  0  0  0  0  0  0  0
    0.8213   20.1723   39.6336 C   0  0  0  0  0  0  0  0  0  0  0  0
    0.8787   18.9940   40.3810 C   0  0  0  0  0  0  0  0  0  0  0  0
    0.3037   17.7092   42.3863 C   0  0  0  0  0  0  0  0  0  0  0  0
    0.6137   15.6714   43.2868 C   0  0  0  0  0  0  0  0  0  0  0  0
    1.2200   14.3311   43.1282 C   0  0  0  0  0  0  0  0  0  0  0  0
    1.0758   13.3624   44.1002 C   0  0  0  0  0  0  0  0  0  0  0  0
    1.6344   12.1074   43.9687 C   0  0  0  0  0  0  0  0  0  0  0  0
    2.3589   11.7922   42.8456 C   0  0  0  0  0  0  0  0  0  0  0  0
    2.5229   12.7391   41.8526 C   0  0  0  0  0  0  0  0  0  0  0  0
    1.9535   13.9800   42.0145 C   0  0  0  0  0  0  0  0  0  0  0  0
   -0.1139   15.9905   44.4124 C   0  0  0  0  0  0  0  0  0  0  0  0
    1.5884   17.9599   39.8067 C   0  0  0  0  0  0  0  0  0  0  0  0
    2.2101   18.0542   38.5782 C   0  0  0  0  0  0  0  0  0  0  0  0
    0.2380   18.9054   41.6407 N   0  0  0  0  0  0  0  0  0  0  0  0
    0.7078   16.6349   42.4119 N   0  0  0  0  0  0  0  0  0  0  0  0
    2.7022   20.5334   35.8622 O   0  0  0  0  0  0  0  0  0  0  0  0
    3.4092   18.3559   36.1219 O   0  0  0  0  0  0  0  0  0  0  0  0
    2.9132   16.9590   38.0604 O   0  0  0  0  0  0  0  0  0  0  0  0
   -0.6121   17.7661   44.0533 S   0  0  0  0  0  0  0  0  0  0  0  0
    3.0792   10.1972   42.6593 Cl  0  0  0  0  0  0  0  0  0  0  0  0
    1.3879   21.2104   37.8236 H   0  0  0  0  0  0  0  0  0  0  0  0
    0.2821   21.0360   40.0135 H   0  0  0  0  0  0  0  0  0  0  0  0
    0.5047   13.5816   45.0066 H   0  0  0  0  0  0  0  0  0  0  0  0
    1.4827   11.3949   44.7687 H   0  0  0  0  0  0  0  0  0  0  0  0
    3.0912   12.5142   40.9556 H   0  0  0  0  0  0  0  0  0  0  0  0
    2.0832   14.7153   41.2389 H   0  0  0  0  0  0  0  0  0  0  0  0
   -0.3976   15.5041   45.2946 H   0  0  0  0  0  0  0  0  0  0  0  0
    1.6840   17.0114   40.3160 H   0  0  0  0  0  0  0  0  0  0  0  0
   -0.2708   19.7725   41.9608 H   0  0  0  0  0  0  0  0  0  0  0  0
  1  2  1  0
  1 19  1  0
  1 20  2  0
  2  3  1  0
  2 16  2  0
  3  4  2  0
  4  5  1  0
  5 15  2  0
  5 17  1  0
  6 17  1  0
  6 18  2  0
  6 22  1  0
  7  8  1  0
  7 14  2  0
  7 18  1  0
  8  9  1  0
  8 13  2  0
  9 10  2  0
 10 11  1  0
 11 12  2  0
 11 23  1  0
 12 13  1  0
 14 22  1  0
 15 16  1  0
 16 21  1  0
  3 24  1  0
  4 25  1  0
  9 26  1  0
 10 27  1  0
 12 28  1  0
 13 29  1  0
 14 30  1  0
 15 31  1  0
 17 32  1  0
M  CHG  2  19  -1  21  -1
M  END
>  <mol_id>  (10) 
2026-08-23-6tgu-s0-n100-r3-0010

>  <rmsd_to_ref>  (10) 
0.8673469387781636

$$$$
6tgu.A
     RDKit          3D

 32 34  0  0  0  0  0  0  0  0999 V2000
    2.7023   19.2261   36.0838 C   0  0  0  0  0  0  0  0  0  0  0  0
    2.2466   19.2732   37.5449 C   0  0  0  0  0  0  0  0  0  0  0  0
    1.4869   20.3422   38.0147 C   0  0  0  0  0  0  0  0  0  0  0  0
    0.8943   20.3312   39.2816 C   0  0  0  0  0  0  0  0  0  0  0  0
    1.1962   19.3074   40.1913 C   0  0  0  0  0  0  0  0  0  0  0  0
    0.3052   18.1913   42.2945 C   0  0  0  0  0  0  0  0  0  0  0  0
    0.4166   16.0577   43.0762 C   0  0  0  0  0  0  0  0  0  0  0  0
    0.8954   14.6751   43.0978 C   0  0  0  0  0  0  0  0  0  0  0  0
    0.3618   13.7173   43.9718 C   0  0  0  0  0  0  0  0  0  0  0  0
    0.8085   12.3997   43.9523 C   0  0  0  0  0  0  0  0  0  0  0  0
    1.7627   12.0366   43.0207 C   0  0  0  0  0  0  0  0  0  0  0  0
    2.3130   12.9500   42.1341 C   0  0  0  0  0  0  0  0  0  0  0  0
    1.8612   14.2661   42.1769 C   0  0  0  0  0  0  0  0  0  0  0  0
   -0.5636   16.5415   43.9018 C   0  0  0  0  0  0  0  0  0  0  0  0
    1.9503   18.2185   39.7310 C   0  0  0  0  0  0  0  0  0  0  0  0
    2.4614   18.2251   38.4319 C   0  0  0  0  0  0  0  0  0  0  0  0
    0.5506   19.2469   41.4644 N   0  0  0  0  0  0  0  0  0  0  0  0
    0.8721   16.9530   42.0797 N   0  0  0  0  0  0  0  0  0  0  0  0
    2.2170   20.1047   35.3120 O   0  0  0  0  0  0  0  0  0  0  0  0
    3.4502   18.2799   35.7535 O   0  0  0  0  0  0  0  0  0  0  0  0
    3.1091   17.1092   37.9573 O   0  0  0  0  0  0  0  0  0  0  0  0
   -0.9996   18.1498   43.4646 S   0  0  0  0  0  0  0  0  0  0  0  0
    2.2989   10.3904   42.9572 Cl  0  0  0  0  0  0  0  0  0  0  0  0
    1.3487   21.2222   37.3693 H   0  0  0  0  0  0  0  0  0  0  0  0
    0.1900   21.1272   39.5651 H   0  0  0  0  0  0  0  0  0  0  0  0
   -0.4225   14.0123   44.6844 H   0  0  0  0  0  0  0  0  0  0  0  0
    0.4101   11.6617   44.6641 H   0  0  0  0  0  0  0  0  0  0  0  0
    3.0868   12.6425   41.4153 H   0  0  0  0  0  0  0  0  0  0  0  0
    2.2745   14.9999   41.4693 H   0  0  0  0  0  0  0  0  0  0  0  0
   -1.0125   15.9782   44.7332 H   0  0  0  0  0  0  0  0  0  0  0  0
    2.1389   17.3603   40.3927 H   0  0  0  0  0  0  0  0  0  0  0  0
    0.2129   20.1543   41.8157 H   0  0  0  0  0  0  0  0  0  0  0  0
  1  2  1  0
  1 19  1  0
  1 20  2  0
  2  3  1  0
  2 16  2  0
  3  4  2  0
  4  5  1  0
  5 15  2  0
  5 17  1  0
  6 17  1  0
  6 18  2  0
  6 22  1  0
  7  8  1  0
  7 14  2  0
  7 18  1  0
  8  9  1  0
  8 13  2  0
  9 10  2  0
 10 11  1  0
 11 12  2  0
 11 23  1  0
 12 13  1  0
 14 22  1  0
 15 16  1  0
 16 21  1  0
  3 24  1  0
  4 25  1  0
  9 26  1  0
 10 27  1  0
 12 28  1  0
 13 29  1  0
 14 30  1  0
 15 31  1  0
 17 32  1  0
M  CHG  2  19  -1  21  -1
M  END
>  <mol_id>  (11) 
2026-08-23-6tgu-s0-n100-r3-0011

>  <rmsd_to_ref>  (11) 
0.9132653061318811

$$$$
6tgu.A
     RDKit          3D

 32 34  0  0  0  0  0  0  0  0999 V2000
    4.6155   20.1419   37.7636 C   0  0  0  0  0  0  0  0  0  0  0  0
    3.5648   19.9213   38.7411 C   0  0  0  0  0  0  0  0  0  0  0  0
    2.8885   20.9749   39.3161 C   0  0  0  0  0  0  0  0  0  0  0  0
    1.8988   20.7252   40.2390 C   0  0  0  0  0  0  0  0  0  0  0  0
    1.5420   19.4318   40.6263 C   0  0  0  0  0  0  0  0  0  0  0  0
    0.1660   17.9080   41.9630 C   0  0  0  0  0  0  0  0  0  0  0  0
   -0.1253   15.7083   42.3318 C   0  0  0  0  0  0  0  0  0  0  0  0
    0.3060   14.3330   41.9976 C   0  0  0  0  0  0  0  0  0  0  0  0
   -0.2837   13.2355   42.5908 C   0  0  0  0  0  0  0  0  0  0  0  0
    0.1061   11.9462   42.2908 C   0  0  0  0  0  0  0  0  0  0  0  0
    1.1082   11.7261   41.3782 C   0  0  0  0  0  0  0  0  0  0  0  0
    1.7202   12.8030   40.7654 C   0  0  0  0  0  0  0  0  0  0  0  0
    1.3083   14.0748   41.0865 C   0  0  0  0  0  0  0  0  0  0  0  0
   -1.1305   15.9322   43.2471 C   0  0  0  0  0  0  0  0  0  0  0  0
    2.2493   18.4138   40.0211 C   0  0  0  0  0  0  0  0  0  0  0  0
    3.2472   18.6286   39.0923 C   0  0  0  0  0  0  0  0  0  0  0  0
    0.5169   19.2199   41.5799 N   0  0  0  0  0  0  0  0  0  0  0  0
    0.3850   16.7911   41.8125 N   0  0  0  0  0  0  0  0  0  0  0  0
    4.9465   21.4590   37.3990 O   0  0  0  0  0  0  0  0  0  0  0  0
    5.2172   19.1755   37.2532 O   0  0  0  0  0  0  0  0  0  0  0  0
    3.9213   17.5419   38.5209 O   0  0  0  0  0  0  0  0  0  0  0  0
   -1.2298   17.8083   43.2526 S   0  0  0  0  0  0  0  0  0  0  0  0
    1.6195   10.0892   40.9822 Cl  0  0  0  0  0  0  0  0  0  0  0  0
    3.1683   21.9744   39.0131 H   0  0  0  0  0  0  0  0  0  0  0  0
    1.3909   21.5850   40.6677 H   0  0  0  0  0  0  0  0  0  0  0  0
   -1.0845   13.3766   43.3218 H   0  0  0  0  0  0  0  0  0  0  0  0
   -0.3982   11.1309   42.7925 H   0  0  0  0  0  0  0  0  0  0  0  0
    2.5146   12.6551   40.0407 H   0  0  0  0  0  0  0  0  0  0  0  0
    1.7873   14.9115   40.6072 H   0  0  0  0  0  0  0  0  0  0  0  0
   -1.7535   15.3436   43.8476 H   0  0  0  0  0  0  0  0  0  0  0  0
    2.0387   17.3814   40.2619 H   0  0  0  0  0  0  0  0  0  0  0  0
    0.0575   20.0890   41.9632 H   0  0  0  0  0  0  0  0  0  0  0  0
  1  2  1  0
  1 19  1  0
  1 20  2  0
  2  3  1  0
  2 16  2  0
  3  4  2  0
  4  5  1  0
  5 15  2  0
  5 17  1  0
  6 17  1  0
  6 18  2  0
  6 22  1  0
  7  8  1  0
  7 14  2  0
  7 18  1  0
  8  9  1  0
  8 13  2  0
  9 10  2  0
 10 11  1  0
 11 12  2  0
 11 23  1  0
 12 13  1  0
 14 22  1  0
 15 16  1  0
 16 21  1  0
  3 24  1  0
  4 25  1  0
  9 26  1  0
 10 27  1  0
 12 28  1  0
 13 29  1  0
 14 30  1  0
 15 31  1  0
 17 32  1  0
M  CHG  2  19  -1  21  -1
M  END
>  <mol_id>  (12) 
2026-08-23-6tgu-s0-n100-r3-0012

>  <rmsd_to_ref>  (12) 
0.9591836734715709

$$$$
6tgu.A
     RDKit          3D

 32 34  0  0  0  0  0  0  0  0999 V2000
    3.5816   18.9102   36.3227 C   0  0  0  0  0  0  0  0  0  0  0  0
    3.1721   18.9927   37.7959 C   0  0  0  0  0  0  0  0  0  0  0  0
    2.7001   20.1882   38.3329 C   0  0  0  0  0  0  0  0  0  0  0  0
    2.1410   20.2569   39.6132 C   0  0  0  0  0  0  0  0  0  0  0  0
    2.2000   19.1465   40.4678 C   0  0  0  0  0  0  0  0  0  0  0  0
    1.0967   18.1741   42.5416 C   0  0  0  0  0  0  0  0  0  0  0  0
    0.7010   16.0401   43.2236 C   0  0  0  0  0  0  0  0  0  0  0  0
    0.8320   14.5837   43.1706 C   0  0  0  0  0  0  0  0  0  0  0  0
    0.0958   13.7400   44.0145 C   0  0  0  0  0  0  0  0  0  0  0  0
    0.2107   12.3563   43.9242 C   0  0  0  0  0  0  0  0  0  0  0  0
    1.0353   11.8212   42.9525 C   0  0  0  0  0  0  0  0  0  0  0  0
    1.7768   12.6185   42.0937 C   0  0  0  0  0  0  0  0  0  0  0  0
    1.6569   14.0008   42.2073 C   0  0  0  0  0  0  0  0  0  0  0  0
   -0.1211   16.7038   44.0955 C   0  0  0  0  0  0  0  0  0  0  0  0
    2.6620   17.9326   39.9396 C   0  0  0  0  0  0  0  0  0  0  0  0
    3.1405   17.8808   38.6291 C   0  0  0  0  0  0  0  0  0  0  0  0
    1.5777   19.1797   41.7534 N   0  0  0  0  0  0  0  0  0  0  0  0
    1.3446   16.8481   42.2567 N   0  0  0  0  0  0  0  0  0  0  0  0
    3.3115   19.9171   35.6041 O   0  0  0  0  0  0  0  0  0  0  0  0
    4.0739   17.8296   35.9308 O   0  0  0  0  0  0  0  0  0  0  0  0
    3.4925   16.6670   38.0881 O   0  0  0  0  0  0  0  0  0  0  0  0
   -0.1622   18.3894   43.7424 S   0  0  0  0  0  0  0  0  0  0  0  0
    1.1571   10.0997   42.8013 Cl  0  0  0  0  0  0  0  0  0  0  0  0
    2.7691   21.1067   37.7315 H   0  0  0  0  0  0  0  0  0  0  0  0
    1.6541   21.1838   39.9505 H   0  0  0  0  0  0  0  0  0  0  0  0
   -0.5835   14.1790   44.7599 H   0  0  0  0  0  0  0  0  0  0  0  0
   -0.3436   11.7012   44.6124 H   0  0  0  0  0  0  0  0  0  0  0  0
    2.4429   12.1701   41.3418 H   0  0  0  0  0  0  0  0  0  0  0  0
    2.2248   14.6480   41.5227 H   0  0  0  0  0  0  0  0  0  0  0  0
   -0.6805   16.2242   44.9122 H   0  0  0  0  0  0  0  0  0  0  0  0
    2.6474   17.0223   40.5569 H   0  0  0  0  0  0  0  0  0  0  0  0
    1.4742   20.1231   42.1538 H   0  0  0  0  0  0  0  0  0  0  0  0
  1  2  1  0
  1 19  1  0
  1 20  2  0
  2  3  1  0
  2 16  2  0
  3  4  2  0
  4  5  1  0
  5 15  2  0
  5 17  1  0
  6 17  1  0
  6 18  2  0
  6 22  1  0
  7  8  1  0
  7 14  2  0
  7 18  1  0
  8  9  1  0
  8 13  2  0
  9 10  2  0
 10 11  1  0
 11 12  2  0
 11 23  1  0
 12 13  1  0
 14 22  1  0
 15 16  1  0
 16 21  1  0
  3 24  1  0
  4 25  1  0
  9 26  1  0
 10 27  1  0
 12 28  1  0
 13 29  1  0
 14 30  1  0
 15 31  1  0
 17 32  1  0
M  CHG  2  19  -1  21  -1
M  END
>  <mol_id>  (13) 
2026-08-23-6tgu-s0-n100-r3-0013

>  <rmsd_to_ref>  (13) 
1.0051020408246658

$$$$
6tgu.A
     RDKit          3D

 32 34  0  0  0  0  0  0  0  0999 V2000
    3.4075   20.8713   38.0308 C   0  0  0  0  0  0  0  0  0  0  0  0
    2.6614   20.4036   39.1957 C   0  0  0  0  0  0  0  0  0  0  0  0
    2.1406   21.2716   40.1197 C   0  0  0  0  0  0  0  0  0  0  0  0
    1.4434   20.7936   41.2045 C   0  0  0  0  0  0  0  0  0  0  0  0
    1.2339   19.4248   41.4168 C   0  0  0  0  0  0  0  0  0  0  0  0
    0.2983   17.6153   42.7642 C   0  0  0  0  0  0  0  0  0  0  0  0
    0.2089   15.3440   42.6979 C   0  0  0  0  0  0  0  0  0  0  0  0
    0.5312   14.0778   42.0582 C   0  0  0  0  0  0  0  0  0  0  0  0
    1.2537   14.0559   40.8858 C   0  0  0  0  0  0  0  0  0  0  0  0
    1.5962   12.8980   40.2234 C   0  0  0  0  0  0  0  0  0  0  0  0
    1.2057   11.7027   40.7448 C   0  0  0  0  0  0  0  0  0  0  0  0
    0.4810   11.7112   41.9197 C   0  0  0  0  0  0  0  0  0  0  0  0
    0.1397   12.8722   42.5804 C   0  0  0  0  0  0  0  0  0  0  0  0
   -0.5600   15.3552   43.9445 C   0  0  0  0  0  0  0  0  0  0  0  0
    1.7754   18.5890   40.4623 C   0  0  0  0  0  0  0  0  0  0  0  0
    2.4802   19.0515   39.3637 C   0  0  0  0  0  0  0  0  0  0  0  0
    0.5179   18.9753   42.5347 N   0  0  0  0  0  0  0  0  0  0  0  0
    0.5084   16.5386   42.3237 N   0  0  0  0  0  0  0  0  0  0  0  0
    3.6009   22.2309   37.8437 O   0  0  0  0  0  0  0  0  0  0  0  0
    3.8554   20.0129   37.2256 O   0  0  0  0  0  0  0  0  0  0  0  0
    3.0033   18.1474   38.4327 O   0  0  0  0  0  0  0  0  0  0  0  0
   -0.6830   17.1629   44.3117 S   0  0  0  0  0  0  0  0  0  0  0  0
    1.6266   10.2070   39.9241 Cl  0  0  0  0  0  0  0  0  0  0  0  0
    2.3053   22.3306   39.9511 H   0  0  0  0  0  0  0  0  0  0  0  0
    1.0563   21.5379   41.9005 H   0  0  0  0  0  0  0  0  0  0  0  0
    1.5561   15.0226   40.4857 H   0  0  0  0  0  0  0  0  0  0  0  0
    2.1636   12.9864   39.3124 H   0  0  0  0  0  0  0  0  0  0  0  0
    0.1474   10.7668   42.3723 H   0  0  0  0  0  0  0  0  0  0  0  0
   -0.4235   12.8475   43.4905 H   0  0  0  0  0  0  0  0  0  0  0  0
   -0.9524   14.5652   44.5068 H   0  0  0  0  0  0  0  0  0  0  0  0
    1.6656   17.5247   40.5415 H   0  0  0  0  0  0  0  0  0  0  0  0
    0.1531   19.7263   43.1953 H   0  0  0  0  0  0  0  0  0  0  0  0
  1  2  1  0
  1 19  1  0
  1 20  2  0
  2  3  1  0
  2 16  2  0
  3  4  2  0
  4  5  1  0
  5 15  2  0
  5 17  1  0
  6 17  1  0
  6 18  2  0
  6 22  1  0
  7  8  1  0
  7 14  2  0
  7 18  1  0
  8  9  1  0
  8 13  2  0
  9 10  2  0
 10 11  1  0
 11 12  2  0
 11 23  1  0
 12 13  1  0
 14 22  1  0
 15 16  1  0
 16 21  1  0
  3 24  1  0
  4 25  1  0
  9 26  1  0
 10 27  1  0
 12 28  1  0
 13 29  1  0
 14 30  1  0
 15 31  1  0
 17 32  1  0
M  CHG  2  19  -1  21  -1
M  END
>  <mol_id>  (14) 
2026-08-23-6tgu-s0-n100-r3-0014

>  <rmsd_to_ref>  (14) 
1.0510204081637873

$$$$
6tgu.A
     RDKit          3D

 32 34  0  0  0  0  0  0  0  0999 V2000
    1.8722   20.6126   37.0819 C   0  0  0  0  0  0  0  0  0  0  0  0
    1.7229   20.0978   38.5162 C   0  0  0  0  0  0  0  0  0  0  0  0
    1.1129   20.8849   39.4903 C   0  0  0  0  0  0  0  0  0  0  0  0
    0.7885   20.3821   40.7546 C   0  0  0  0  0  0  0  0  0  0  0  0
    1.2307   19.1084   41.1404 C   0  0  0  0  0  0  0  0  0  0  0  0
    0.7432   17.2582   42.8145 C   0  0  0  0  0  0  0  0  0  0  0  0
    0.9330   14.9935   42.7122 C   0  0  0  0  0  0  0  0  0  0  0  0
    1.3561   13.7221   42.1242 C   0  0  0  0  0  0  0  0  0  0  0  0
    0.9758   12.4877   42.6700 C   0  0  0  0  0  0  0  0  0  0  0  0
    1.3614   11.2904   42.0753 C   0  0  0  0  0  0  0  0  0  0  0  0
    2.0941   11.3373   40.9042 C   0  0  0  0  0  0  0  0  0  0  0  0
    2.4866   12.5357   40.3273 C   0  0  0  0  0  0  0  0  0  0  0  0
    2.1006   13.7228   40.9436 C   0  0  0  0  0  0  0  0  0  0  0  0
    0.1579   15.0968   43.8369 C   0  0  0  0  0  0  0  0  0  0  0  0
    1.8364   18.2991   40.1687 C   0  0  0  0  0  0  0  0  0  0  0  0
    2.0745   18.8062   38.8900 C   0  0  0  0  0  0  0  0  0  0  0  0
    0.8538   18.5551   42.4026 N   0  0  0  0  0  0  0  0  0  0  0  0
    1.2099   16.2117   42.0479 N   0  0  0  0  0  0  0  0  0  0  0  0
    1.2730   21.6929   36.8042 O   0  0  0  0  0  0  0  0  0  0  0  0
    2.5033   19.8875   36.2821 O   0  0  0  0  0  0  0  0  0  0  0  0
    2.5723   17.9727   37.9168 O   0  0  0  0  0  0  0  0  0  0  0  0
   -0.2990   16.7330   44.1227 S   0  0  0  0  0  0  0  0  0  0  0  0
    2.5466    9.8549   40.1302 Cl  0  0  0  0  0  0  0  0  0  0  0  0
    0.8791   21.9344   39.2581 H   0  0  0  0  0  0  0  0  0  0  0  0
    0.1852   20.9869   41.4476 H   0  0  0  0  0  0  0  0  0  0  0  0
    0.3628   12.4656   43.5831 H   0  0  0  0  0  0  0  0  0  0  0  0
    1.0887   10.3257   42.5281 H   0  0  0  0  0  0  0  0  0  0  0  0
    3.0876   12.5480   39.4061 H   0  0  0  0  0  0  0  0  0  0  0  0
    2.3887   14.6827   40.4901 H   0  0  0  0  0  0  0  0  0  0  0  0
   -0.1338   14.2480   44.4729 H   0  0  0  0  0  0  0  0  0  0  0  0
    2.1237   17.2659   40.4137 H   0  0  0  0  0  0  0  0  0  0  0  0
    0.6270   19.2536   43.1248 H   0  0  0  0  0  0  0  0  0  0  0  0
  1  2  1  0
  1 19  1  0
  1 20  2  0
  2  3  1  0
  2 16  2  0
  3  4  2  0
  4  5  1  0
  5 15  2  0
  5 17  1  0
  6 17  1  0
  6 18  2  0
  6 22  1  0
  7  8  1  0
  7 14  2  0
  7 18  1  0
  8  9  1  0
  8 13  2  0
  9 10  2  0
 10 11  1  0
 11 12  2  0
 11 23  1  0
 12 13  1  0
 14 22  1  0
 15 16  1  0
 16 21  1  0
  3 24  1  0
  4 25  1  0
  9 26  1  0
 10 27  1  0
 12 28  1  0
 13 29  1  0
 14 30  1  0
 15 31  1  0
 17 32  1  0
M  CHG  2  19  -1  21  -1
M  END
>  <mol_id>  (15) 
2026-08-23-6tgu-s0-n100-r3-0015

>  <rmsd_to_ref>  (15) 
1.096938775513857

$$$$
6tgu.A
     RDKit          3D

 32 34  0  0  0  0  0  0  0  0999 V2000
    4.3252   20.4790   38.5299 C   0  0  0  0  0  0  0  0  0  0  0  0
    3.2872   20.1304   39.4835 C   0  0  0  0  0  0  0  0  0  0  0  0
    2.5895   21.1004   40.1694 C   0  0  0  0  0  0  0  0  0  0  0  0
    1.6128   20.7303   41.0653 C   0  0  0  0  0  0  0  0  0  0  0  0
    1.2905   19.3948   41.3158 C   0  0  0  0  0  0  0  0  0  0  0  0
   -0.0382   17.7047   42.4907 C   0  0  0  0  0  0  0  0  0  0  0  0
   -0.2730   15.4718   42.6270 C   0  0  0  0  0  0  0  0  0  0  0  0
    0.1894   14.1505   42.1478 C   0  0  0  0  0  0  0  0  0  0  0  0
   -0.3690   12.9823   42.6247 C   0  0  0  0  0  0  0  0  0  0  0  0
    0.0501   11.7419   42.1888 C   0  0  0  0  0  0  0  0  0  0  0  0
    1.0507   11.6443   41.2535 C   0  0  0  0  0  0  0  0  0  0  0  0
    1.6317   12.7946   40.7548 C   0  0  0  0  0  0  0  0  0  0  0  0
    1.1912   14.0149   41.2100 C   0  0  0  0  0  0  0  0  0  0  0  0
   -1.2767   15.5729   43.5653 C   0  0  0  0  0  0  0  0  0  0  0  0
    2.0182   18.4642   40.6034 C   0  0  0  0  0  0  0  0  0  0  0  0
    3.0039   18.8004   39.6980 C   0  0  0  0  0  0  0  0  0  0  0  0
    0.2778   19.0581   42.2464 N   0  0  0  0  0  0  0  0  0  0  0  0
    0.2069   16.6157   42.2224 N   0  0  0  0  0  0  0  0  0  0  0  0
    4.6212   21.8349   38.3046 O   0  0  0  0  0  0  0  0  0  0  0  0
    4.9467   19.5870   37.9178 O   0  0  0  0  0  0  0  0  0  0  0  0
    3.7002   17.7971   39.0122 O   0  0  0  0  0  0  0  0  0  0  0  0
   -1.4218   17.4349   43.7690 S   0  0  0  0  0  0  0  0  0  0  0  0
    1.5990   10.0714   40.6849 Cl  0  0  0  0  0  0  0  0  0  0  0  0
    2.8426   22.1329   39.9721 H   0  0  0  0  0  0  0  0  0  0  0  0
    1.0871   21.5271   41.5845 H   0  0  0  0  0  0  0  0  0  0  0  0
   -1.1678   13.0256   43.3701 H   0  0  0  0  0  0  0  0  0  0  0  0
   -0.4305   10.8659   42.6040 H   0  0  0  0  0  0  0  0  0  0  0  0
    2.4243   12.7438   40.0149 H   0  0  0  0  0  0  0  0  0  0  0  0
    1.6462   14.9091   40.8193 H   0  0  0  0  0  0  0  0  0  0  0  0
   -1.8809   14.9090   44.1033 H   0  0  0  0  0  0  0  0  0  0  0  0
    1.8346   17.4071   40.7351 H   0  0  0  0  0  0  0  0  0  0  0  0
   -0.2000   19.8701   42.7212 H   0  0  0  0  0  0  0  0  0  0  0  0
  1  2  1  0
  1 19  1  0
  1 20  2  0
  2  3  1  0
  2 16  2  0
  3  4  2  0
  4  5  1  0
  5 15  2  0
  5 17  1  0
  6 17  1  0
  6 18  2  0
  6 22  1  0
  7  8  1  0
  7 14  2  0
  7 18  1  0
  8  9  1  0
  8 13  2  0
  9 10  2  0
 10 11  1  0
 11 12  2  0
 11 23  1  0
 12 13  1  0
 14 22  1  0
 15 16  1  0
 16 21  1  0
  3 24  1  0
  4 25  1  0
  9 26  1  0
 10 27  1  0
 12 28  1  0
 13 29  1  0
 14 30  1  0
 15 31  1  0
 17 32  1  0
M  CHG  2  19  -1  21  -1
M  END
>  <mol_id>  (16) 
2026-08-23-6tgu-s0-n100-r3-0016

>  <rmsd_to_ref>  (16) 
1.1428571428599066

$$$$
6tgu.A
     RDKit          3D

 32 34  0  0  0  0  0  0  0  0999 V2000
    4.8022   19.3909   37.0306 C   0  0  0  0  0  0  0  0  0  0  0  0
    3.8440   19.4446   38.2237 C   0  0  0  0  0  0  0  0  0  0  0  0
    2.9683   20.5168   38.3799 C   0  0  0  0  0  0  0  0  0  0  0  0
    1.9535   20.5119   39.3425 C   0  0  0  0  0  0  0  0  0  0  0  0
    1.8989   19.4912   40.3028 C   0  0  0  0  0  0  0  0  0  0  0  0
    0.2973   18.3851   41.9382 C   0  0  0  0  0  0  0  0  0  0  0  0
    0.1088   16.2545   42.7133 C   0  0  0  0  0  0  0  0  0  0  0  0
    0.5425   14.8712   42.9127 C   0  0  0  0  0  0  0  0  0  0  0  0
   -0.2765   13.9178   43.5342 C   0  0  0  0  0  0  0  0  0  0  0  0
    0.1424   12.5994   43.6835 C   0  0  0  0  0  0  0  0  0  0  0  0
    1.3702   12.2310   43.1664 C   0  0  0  0  0  0  0  0  0  0  0  0
    2.2092   13.1400   42.5396 C   0  0  0  0  0  0  0  0  0  0  0  0
    1.7769   14.4570   42.4100 C   0  0  0  0  0  0  0  0  0  0  0  0
   -1.1039   16.7432   43.1217 C   0  0  0  0  0  0  0  0  0  0  0  0
    2.7658   18.3993   40.1535 C   0  0  0  0  0  0  0  0  0  0  0  0
    3.7166   18.3998   39.1312 C   0  0  0  0  0  0  0  0  0  0  0  0
    0.8324   19.4369   41.2519 N   0  0  0  0  0  0  0  0  0  0  0  0
    0.8998   17.1450   41.9495 N   0  0  0  0  0  0  0  0  0  0  0  0
    4.6353   20.2672   36.1320 O   0  0  0  0  0  0  0  0  0  0  0  0
    5.6163   18.4422   36.9996 O   0  0  0  0  0  0  0  0  0  0  0  0
    4.4896   17.2810   38.9299 O   0  0  0  0  0  0  0  0  0  0  0  0
   -1.3451   18.3504   42.5503 S   0  0  0  0  0  0  0  0  0  0  0  0
    1.8875   10.5837   43.3087 Cl  0  0  0  0  0  0  0  0  0  0  0  0
    3.0783   21.3944   37.7259 H   0  0  0  0  0  0  0  0  0  0  0  0
    1.1968   21.3102   39.3463 H   0  0  0  0  0  0  0  0  0  0  0  0
   -1.2662   14.2169   43.9098 H   0  0  0  0  0  0  0  0  0  0  0  0
   -0.4908   11.8649   44.2027 H   0  0  0  0  0  0  0  0  0  0  0  0
    3.1913   12.8283   42.1545 H   0  0  0  0  0  0  0  0  0  0  0  0
    2.4225   15.1872   41.9003 H   0  0  0  0  0  0  0  0  0  0  0  0
   -1.8273   16.1840   43.7332 H   0  0  0  0  0  0  0  0  0  0  0  0
    2.6969   17.5434   40.8411 H   0  0  0  0  0  0  0  0  0  0  0  0
    0.3923   20.3463   41.4526 H   0  0  0  0  0  0  0  0  0  0  0  0
  1  2  1  0
  1 19  1  0
  1 20  2  0
  2  3  1  0
  2 16  2  0
  3  4  2  0
  4  5  1  0
  5 15  2  0
  5 17  1  0
  6 17  1  0
  6 18  2  0
  6 22  1  0
  7  8  1  0
  7 14  2  0
  7 18  1  0
  8  9  1  0
  8 13  2  0
  9 10  2  0
 10 11  1  0
 11 12  2  0
 11 23  1  0
 12 13  1  0
 14 22  1  0
 15 16  1  0
 16 21  1  0
  3 24  1  0
  4 25  1  0
  9 26  1  0
 10 27  1  0
 12 28  1  0
 13 29  1  0
 14 30  1  0
 15 31  1  0
 17 32  1  0
M  CHG  2  19  -1  21  -1
M  END
>  <mol_id>  (17) 
2026-08-23-6tgu-s0-n100-r3-0017

>  <rmsd_to_ref>  (17) 
1.1887755102118596

$$$$
6tgu.A
     RDKit          3D

 32 34  0  0  0  0  0  0  0  0999 V2000
    3.1531   21.0184   37.1188 C   0  0  0  0  0  0  0  0  0  0  0  0
    2.6224   20.4472   38.3502 C   0  0  0  0  0  0  0  0  0  0  0  0
    2.6387   21.1830   39.5064 C   0  0  0  0  0  0  0  0  0  0  0  0
    2.1277   20.6084   40.6498 C   0  0  0  0  0  0  0  0  0  0  0  0
    1.6015   19.3176   40.6656 C   0  0  0  0  0  0  0  0  0  0  0  0
    0.5426   17.4653   41.9756 C   0  0  0  0  0  0  0  0  0  0  0  0
    0.2131   15.2492   42.2802 C   0  0  0  0  0  0  0  0  0  0  0  0
    0.7483   13.9056   42.6120 C   0  0  0  0  0  0  0  0  0  0  0  0
    2.0825   13.7168   42.9099 C   0  0  0  0  0  0  0  0  0  0  0  0
    2.6201   12.4858   43.2237 C   0  0  0  0  0  0  0  0  0  0  0  0
    1.7995   11.3828   43.2449 C   0  0  0  0  0  0  0  0  0  0  0  0
    0.4699   11.5693   42.9484 C   0  0  0  0  0  0  0  0  0  0  0  0
   -0.0612   12.7933   42.6371 C   0  0  0  0  0  0  0  0  0  0  0  0
   -1.1340   15.4198   41.9849 C   0  0  0  0  0  0  0  0  0  0  0  0
    1.5985   18.6097   39.5015 C   0  0  0  0  0  0  0  0  0  0  0  0
    2.1111   19.1687   38.3254 C   0  0  0  0  0  0  0  0  0  0  0  0
    1.0834   18.7626   41.8651 N   0  0  0  0  0  0  0  0  0  0  0  0
    0.9337   16.3212   42.2441 N   0  0  0  0  0  0  0  0  0  0  0  0
    3.6804   22.3023   37.0868 O   0  0  0  0  0  0  0  0  0  0  0  0
    3.1340   20.3292   36.0515 O   0  0  0  0  0  0  0  0  0  0  0  0
    2.1186   18.4695   37.1322 O   0  0  0  0  0  0  0  0  0  0  0  0
   -1.2992   17.1780   41.6587 S   0  0  0  0  0  0  0  0  0  0  0  0
    2.4684    9.8160   43.6414 Cl  0  0  0  0  0  0  0  0  0  0  0  0
    3.0427   22.1923   39.5254 H   0  0  0  0  0  0  0  0  0  0  0  0
    2.1098   21.1349   41.5991 H   0  0  0  0  0  0  0  0  0  0  0  0
    2.7775   14.5710   42.9053 H   0  0  0  0  0  0  0  0  0  0  0  0
    3.6857   12.4108   43.4490 H   0  0  0  0  0  0  0  0  0  0  0  0
   -0.1856   10.7080   42.9620 H   0  0  0  0  0  0  0  0  0  0  0  0
   -1.1129   12.8694   42.4144 H   0  0  0  0  0  0  0  0  0  0  0  0
   -1.9290   14.6970   41.9479 H   0  0  0  0  0  0  0  0  0  0  0  0
    1.2158   17.6208   39.4292 H   0  0  0  0  0  0  0  0  0  0  0  0
    1.0956   19.3469   42.7446 H   0  0  0  0  0  0  0  0  0  0  0  0
  1  2  1  0
  1 19  1  0
  1 20  2  0
  2  3  1  0
  2 16  2  0
  3  4  2  0
  4  5  1  0
  5 15  2  0
  5 17  1  0
  6 17  1  0
  6 18  2  0
  6 22  1  0
  7  8  1  0
  7 14  2  0
  7 18  1  0
  8  9  1  0
  8 13  2  0
  9 10  2  0
 10 11  1  0
 11 12  2  0
 11 23  1  0
 12 13  1  0
 14 22  1  0
 15 16  1  0
 16 21  1  0
  3 24  1  0
  4 25  1  0
  9 26  1  0
 10 27  1  0
 12 28  1  0
 13 29  1  0
 14 30  1  0
 15 31  1  0
 17 32  1  0
M  CHG  2  19  -1  21  -1
M  END
>  <mol_id>  (18) 
2026-08-23-6tgu-s0-n100-r3-0018

>  <rmsd_to_ref>  (18) 
1.2346938775523641

$$$$
6tgu.A
     RDKit          3D

 32 34  0  0  0  0  0  0  0  0999 V2000
    2.1369   20.8438   36.9118 C   0  0  0  0  0  0  0  0  0  0  0  0
    1.7528   20.3482   38.3088 C   0  0  0  0  0  0  0  0  0  0  0  0
    0.7562   20.9923   39.0385 C   0  0  0  0  0  0  0  0  0  0  0  0
    0.2471   20.4615   40.2283 C   0  0  0  0  0  0  0  0  0  0  0  0
    0.8544   19.3427   40.8167 C   0  0  0  0  0  0  0  0  0  0  0  0
    0.3936   17.4768   42.4808 C   0  0  0  0  0  0  0  0  0  0  0  0
    1.1099   15.3222   42.6227 C   0  0  0  0  0  0  0  0  0  0  0  0
    1.9430   14.1740   42.2641 C   0  0  0  0  0  0  0  0  0  0  0  0
    1.7272   12.9000   42.8087 C   0  0  0  0  0  0  0  0  0  0  0  0
    2.5101   11.8145   42.4283 C   0  0  0  0  0  0  0  0  0  0  0  0
    3.4830   12.0037   41.4650 C   0  0  0  0  0  0  0  0  0  0  0  0
    3.7263   13.2448   40.8963 C   0  0  0  0  0  0  0  0  0  0  0  0
    2.9400   14.3210   41.2984 C   0  0  0  0  0  0  0  0  0  0  0  0
    0.0747   15.2673   43.5181 C   0  0  0  0  0  0  0  0  0  0  0  0
    1.8514   18.6761   40.0902 C   0  0  0  0  0  0  0  0  0  0  0  0
    2.2819   19.1900   38.8656 C   0  0  0  0  0  0  0  0  0  0  0  0
    0.3080   18.7503   41.9964 N   0  0  0  0  0  0  0  0  0  0  0  0
    1.2619   16.5524   41.9403 N   0  0  0  0  0  0  0  0  0  0  0  0
    1.3985   21.7402   36.4075 O   0  0  0  0  0  0  0  0  0  0  0  0
    3.0956   20.2698   36.3504 O   0  0  0  0  0  0  0  0  0  0  0  0
    3.1831   18.4738   38.1141 O   0  0  0  0  0  0  0  0  0  0  0  0
   -0.7970   16.7530   43.5447 S   0  0  0  0  0  0  0  0  0  0  0  0
    4.4383   10.6526   40.9516 Cl  0  0  0  0  0  0  0  0  0  0  0  0
    0.3572   21.9480   38.6676 H   0  0  0  0  0  0  0  0  0  0  0  0
   -0.6313   20.9226   40.7034 H   0  0  0  0  0  0  0  0  0  0  0  0
    0.9260   12.7565   43.5486 H   0  0  0  0  0  0  0  0  0  0  0  0
    2.3577   10.8255   42.8851 H   0  0  0  0  0  0  0  0  0  0  0  0
    4.5205   13.3757   40.1465 H   0  0  0  0  0  0  0  0  0  0  0  0
    3.1080   15.3090   40.8449 H   0  0  0  0  0  0  0  0  0  0  0  0
   -0.1677   14.3912   44.1376 H   0  0  0  0  0  0  0  0  0  0  0  0
    2.2939   17.7495   40.4847 H   0  0  0  0  0  0  0  0  0  0  0  0
   -0.2447   19.3936   42.5809 H   0  0  0  0  0  0  0  0  0  0  0  0
  1  2  1  0
  1 19  1  0
  1 20  2  0
  2  3  1  0
  2 16  2  0
  3  4  2  0
  4  5  1  0
  5 15  2  0
  5 17  1  0
  6 17  1  0
  6 18  2  0
  6 22  1  0
  7  8  1  0
  7 14  2  0
  7 18  1  0
  8  9  1  0
  8 13  2  0
  9 10  2  0
 10 11  1  0
 11 12  2  0
 11 23  1  0
 12 13  1  0
 14 22  1  0
 15 16  1  0
 16 21  1  0
  3 24  1  0
  4 25  1  0
  9 26  1  0
 10 27  1  0
 12 28  1  0
 13 29  1  0
 14 30  1  0
 15 31  1  0
 17 32  1  0
M  CHG  2  19  -1  21  -1
M  END
>  <mol_id>  (19) 
2026-08-23-6tgu-s0-n100-r3-0019

>  <rmsd_to_ref>  (19) 
1.280612244906047

$$$$
6tgu.A
     RDKit          3D

 32 34  0  0  0  0  0  0  0  0999 V2000
    3.7590   21.0299   37.9112 C   0  0  0  0  0  0  0  0  0  0  0  0
    2.6699   20.3763   38.6250 C   0  0  0  0  0  0  0  0  0  0  0  0
    1.3633   20.6035   38.2436 C   0  0  0  0  0  0  0  0  0  0  0  0
    0.3193   19.9746   38.9289 C   0  0  0  0  0  0  0  0  0  0  0  0
    0.5950   19.1229   39.9911 C   0  0  0  0  0  0  0  0  0  0  0  0
   -0.1479   17.6193   41.8066 C   0  0  0  0  0  0  0  0  0  0  0  0
    0.3944   15.6145   42.8136 C   0  0  0  0  0  0  0  0  0  0  0  0
    0.7165   14.1511   42.8209 C   0  0  0  0  0  0  0  0  0  0  0  0
    0.9826   13.4936   43.9890 C   0  0  0  0  0  0  0  0  0  0  0  0
    1.2745   12.1503   43.9306 C   0  0  0  0  0  0  0  0  0  0  0  0
    1.3152   11.4238   42.7602 C   0  0  0  0  0  0  0  0  0  0  0  0
    1.0461   12.0887   41.5797 C   0  0  0  0  0  0  0  0  0  0  0  0
    0.7545   13.4333   41.6446 C   0  0  0  0  0  0  0  0  0  0  0  0
    0.3762   16.2945   44.0235 C   0  0  0  0  0  0  0  0  0  0  0  0
    1.9251   18.9016   40.3673 C   0  0  0  0  0  0  0  0  0  0  0  0
    2.9559   19.5349   39.6756 C   0  0  0  0  0  0  0  0  0  0  0  0
   -0.4486   18.4572   40.7154 N   0  0  0  0  0  0  0  0  0  0  0  0
    0.1412   16.2475   41.7280 N   0  0  0  0  0  0  0  0  0  0  0  0
    3.5082   21.8829   36.8476 O   0  0  0  0  0  0  0  0  0  0  0  0
    4.9534   20.8012   38.2851 O   0  0  0  0  0  0  0  0  0  0  0  0
    4.2425   19.2637   40.1089 O   0  0  0  0  0  0  0  0  0  0  0  0
   -0.0477   18.0014   43.5177 S   0  0  0  0  0  0  0  0  0  0  0  0
    1.6946    9.7125   42.7589 Cl  0  0  0  0  0  0  0  0  0  0  0  0
    1.1221   21.2751   37.4040 H   0  0  0  0  0  0  0  0  0  0  0  0
   -0.7175   20.1500   38.6325 H   0  0  0  0  0  0  0  0  0  0  0  0
    0.9684   13.9992   44.9429 H   0  0  0  0  0  0  0  0  0  0  0  0
    1.4802   11.6579   44.8658 H   0  0  0  0  0  0  0  0  0  0  0  0
    1.0667   11.5588   40.6386 H   0  0  0  0  0  0  0  0  0  0  0  0
    0.5437   13.9497   40.7059 H   0  0  0  0  0  0  0  0  0  0  0  0
    0.5500   15.9868   45.0281 H   0  0  0  0  0  0  0  0  0  0  0  0
    2.1475   18.2277   41.2082 H   0  0  0  0  0  0  0  0  0  0  0  0
   -1.4298   18.6289   40.3904 H   0  0  0  0  0  0  0  0  0  0  0  0
  1  2  1  0
  1 19  1  0
  1 20  2  0
  2  3  1  0
  2 16  2  0
  3  4  2  0
  4  5  1  0
  5 15  2  0
  5 17  1  0
  6 17  1  0
  6 18  2  0
  6 22  1  0
  7  8  1  0
  7 14  2  0
  7 18  1  0
  8  9  1  0
  8 13  2  0
  9 10  2  0
 10 11  1  0
 11 12  2  0
 11 23  1  0
 12 13  1  0
 14 22  1  0
 15 16  1  0
 16 21  1  0
  3 24  1  0
  4 25  1  0
  9 26  1  0
 10 27  1  0
 12 28  1  0
 13 29  1  0
 14 30  1  0
 15 31  1  0
 17 32  1  0
M  CHG  2  19  -1  21  -1
M  END
>  <mol_id>  (20) 
2026-08-23-6tgu-s0-n100-r3-0020

>  <rmsd_to_ref>  (20) 
1.3265306122467173

$$$$
6tgu.A
     RDKit          3D

 32 34  0  0  0  0  0  0  0  0999 V2000
    4.4286   18.8409   36.9856 C   0  0  0  0  0  0  0  0  0  0  0  0
    3.6264   19.0351   38.2753 C   0  0  0  0  0  0  0  0  0  0  0  0
    2.9601   20.2338   38.5202 C   0  0  0  0  0  0  0  0  0  0  0  0
    2.0680   20.3823   39.5872 C   0  0  0  0  0  0  0  0  0  0  0  0
    1.9507   19.3720   40.5527 C   0  0  0  0  0  0  0  0  0  0  0  0
    0.3753   18.5213   42.3577 C   0  0  0  0  0  0  0  0  0  0  0  0
   -0.0750   16.4403   43.1591 C   0  0  0  0  0  0  0  0  0  0  0  0
    0.1452   15.0024   43.3173 C   0  0  0  0  0  0  0  0  0  0  0  0
   -0.7471   14.1876   44.0286 C   0  0  0  0  0  0  0  0  0  0  0  0
   -0.5362   12.8167   44.1381 C   0  0  0  0  0  0  0  0  0  0  0  0
    0.5516   12.2594   43.4928 C   0  0  0  0  0  0  0  0  0  0  0  0
    1.4557   13.0270   42.7741 C   0  0  0  0  0  0  0  0  0  0  0  0
    1.2336   14.3985   42.6857 C   0  0  0  0  0  0  0  0  0  0  0  0
   -1.1401   17.1153   43.6943 C   0  0  0  0  0  0  0  0  0  0  0  0
    2.6059   18.1551   40.3158 C   0  0  0  0  0  0  0  0  0  0  0  0
    3.4281   18.0135   39.1964 C   0  0  0  0  0  0  0  0  0  0  0  0
    0.9983   19.4804   41.6122 N   0  0  0  0  0  0  0  0  0  0  0  0
    0.7642   17.1995   42.3097 N   0  0  0  0  0  0  0  0  0  0  0  0
    4.3116   19.7442   36.1061 O   0  0  0  0  0  0  0  0  0  0  0  0
    5.0681   17.7724   36.8712 O   0  0  0  0  0  0  0  0  0  0  0  0
    3.9811   16.7861   38.9180 O   0  0  0  0  0  0  0  0  0  0  0  0
   -1.1749   18.7476   43.1445 S   0  0  0  0  0  0  0  0  0  0  0  0
    0.8044   10.5480   43.5862 Cl  0  0  0  0  0  0  0  0  0  0  0  0
    3.1413   21.0900   37.8538 H   0  0  0  0  0  0  0  0  0  0  0  0
    1.4571   21.2934   39.6691 H   0  0  0  0  0  0  0  0  0  0  0  0
   -1.6281   14.6395   44.5078 H   0  0  0  0  0  0  0  0  0  0  0  0
   -1.2215   12.1889   44.7266 H   0  0  0  0  0  0  0  0  0  0  0  0
    2.3262   12.5641   42.2864 H   0  0  0  0  0  0  0  0  0  0  0  0
    1.9313   15.0200   42.1053 H   0  0  0  0  0  0  0  0  0  0  0  0
   -1.8752   16.6739   44.3834 H   0  0  0  0  0  0  0  0  0  0  0  0
    2.4722   17.3132   41.0110 H   0  0  0  0  0  0  0  0  0  0  0  0
    0.7374   20.4468   41.8549 H   0  0  0  0  0  0  0  0  0  0  0  0
  1  2  1  0
  1 19  1  0
  1 20  2  0
  2  3  1  0
  2 16  2  0
  3  4  2  0
  4  5  1  0
  5 15  2  0
  5 17  1  0
  6 17  1  0
  6 18  2  0
  6 22  1  0
  7  8  1  0
  7 14  2  0
  7 18  1  0
  8  9  1  0
  8 13  2  0
  9 10  2  0
 10 11  1  0
 11 12  2  0
 11 23  1  0
 12 13  1  0
 14 22  1  0
 15 16  1  0
 16 21  1  0
  3 24  1  0
  4 25  1  0
  9 26  1  0
 10 27  1  0
 12 28  1  0
 13 29  1  0
 14 30  1  0
 15 31  1  0
 17 32  1  0
M  CHG  2  19  -1  21  -1
M  END
>  <mol_id>  (21) 
2026-08-23-6tgu-s0-n100-r3-0021

>  <rmsd_to_ref>  (21) 
1.3724489795934813

$$$$
6tgu.A
     RDKit          3D

 32 34  0  0  0  0  0  0  0  0999 V2000
    3.3466   21.5428   37.9943 C   0  0  0  0  0  0  0  0  0  0  0  0
    2.4238   20.7539   38.7998 C   0  0  0  0  0  0  0  0  0  0  0  0
    1.0667   20.9914   38.7218 C   0  0  0  0  0  0  0  0  0  0  0  0
    0.1823   20.2326   39.4947 C   0  0  0  0  0  0  0  0  0  0  0  0
    0.6670   19.2421   40.3394 C   0  0  0  0  0  0  0  0  0  0  0  0
    0.3058   17.4607   42.0142 C   0  0  0  0  0  0  0  0  0  0  0  0
    1.0446   15.3477   42.5770 C   0  0  0  0  0  0  0  0  0  0  0  0
    1.3666   13.9112   42.2974 C   0  0  0  0  0  0  0  0  0  0  0  0
    1.8623   13.0964   43.2761 C   0  0  0  0  0  0  0  0  0  0  0  0
    2.1412   11.7874   42.9572 C   0  0  0  0  0  0  0  0  0  0  0  0
    1.9502   11.2451   41.7048 C   0  0  0  0  0  0  0  0  0  0  0  0
    1.4490   12.0689   40.7157 C   0  0  0  0  0  0  0  0  0  0  0  0
    1.1718   13.3783   41.0411 C   0  0  0  0  0  0  0  0  0  0  0  0
    1.2657   15.8390   43.8562 C   0  0  0  0  0  0  0  0  0  0  0  0
    2.0461   19.0121   40.4086 C   0  0  0  0  0  0  0  0  0  0  0  0
    2.9163   19.7757   39.6327 C   0  0  0  0  0  0  0  0  0  0  0  0
   -0.2091   18.4412   41.1443 N   0  0  0  0  0  0  0  0  0  0  0  0
    0.5780   16.1265   41.6719 N   0  0  0  0  0  0  0  0  0  0  0  0
    2.8860   22.5358   37.1435 O   0  0  0  0  0  0  0  0  0  0  0  0
    4.5923   21.3013   38.0868 O   0  0  0  0  0  0  0  0  0  0  0  0
    4.2643   19.4863   39.7582 O   0  0  0  0  0  0  0  0  0  0  0  0
    0.7438   17.5870   43.7102 S   0  0  0  0  0  0  0  0  0  0  0  0
    2.3275    9.5668   41.3677 Cl  0  0  0  0  0  0  0  0  0  0  0  0
    0.6608   21.7719   38.0585 H   0  0  0  0  0  0  0  0  0  0  0  0
   -0.8934   20.4153   39.4381 H   0  0  0  0  0  0  0  0  0  0  0  0
    2.0369   13.4535   44.2801 H   0  0  0  0  0  0  0  0  0  0  0  0
    2.5308   11.1684   43.7474 H   0  0  0  0  0  0  0  0  0  0  0  0
    1.2835   11.6861   39.7193 H   0  0  0  0  0  0  0  0  0  0  0  0
    0.7764   14.0213   40.2521 H   0  0  0  0  0  0  0  0  0  0  0  0
    1.6372   15.3911   44.7481 H   0  0  0  0  0  0  0  0  0  0  0  0
    2.4339   18.2283   41.0764 H   0  0  0  0  0  0  0  0  0  0  0  0
   -1.2359   18.6262   41.0485 H   0  0  0  0  0  0  0  0  0  0  0  0
  1  2  1  0
  1 19  1  0
  1 20  2  0
  2  3  1  0
  2 16  2  0
  3  4  2  0
  4  5  1  0
  5 15  2  0
  5 17  1  0
  6 17  1  0
  6 18  2  0
  6 22  1  0
  7  8  1  0
  7 14  2  0
  7 18  1  0
  8  9  1  0
  8 13  2  0
  9 10  2  0
 10 11  1  0
 11 12  2  0
 11 23  1  0
 12 13  1  0
 14 22  1  0
 15 16  1  0
 16 21  1  0
  3 24  1  0
  4 25  1  0
  9 26  1  0
 10 27  1  0
 12 28  1  0
 13 29  1  0
 14 30  1  0
 15 31  1  0
 17 32  1  0
M  CHG  2  19  -1  21  -1
M  END
>  <mol_id>  (22) 
2026-08-23-6tgu-s0-n100-r3-0022

>  <rmsd_to_ref>  (22) 
1.4183673469418787

$$$$
6tgu.A
     RDKit          3D

 32 34  0  0  0  0  0  0  0  0999 V2000
    2.9667   20.2987   36.7615 C   0  0  0  0  0  0  0  0  0  0  0  0
    2.2415   19.8264   38.0246 C   0  0  0  0  0  0  0  0  0  0  0  0
    0.9936   20.3469   38.3601 C   0  0  0  0  0  0  0  0  0  0  0  0
    0.2187   19.8091   39.3929 C   0  0  0  0  0  0  0  0  0  0  0  0
    0.7578   18.8318   40.2421 C   0  0  0  0  0  0  0  0  0  0  0  0
    0.0582   17.0104   41.8720 C   0  0  0  0  0  0  0  0  0  0  0  0
    0.9730   15.0040   42.4314 C   0  0  0  0  0  0  0  0  0  0  0  0
    2.0192   13.9811   42.4502 C   0  0  0  0  0  0  0  0  0  0  0  0
    1.8161   12.7207   43.0300 C   0  0  0  0  0  0  0  0  0  0  0  0
    2.8134   11.7507   43.0071 C   0  0  0  0  0  0  0  0  0  0  0  0
    4.0011   12.0358   42.3602 C   0  0  0  0  0  0  0  0  0  0  0  0
    4.2418   13.2668   41.7688 C   0  0  0  0  0  0  0  0  0  0  0  0
    3.2358   14.2282   41.8123 C   0  0  0  0  0  0  0  0  0  0  0  0
   -0.2702   14.8380   42.9821 C   0  0  0  0  0  0  0  0  0  0  0  0
    2.0079   18.2894   39.9120 C   0  0  0  0  0  0  0  0  0  0  0  0
    2.7217   18.7963   38.8245 C   0  0  0  0  0  0  0  0  0  0  0  0
   -0.0412   18.2269   41.2604 N   0  0  0  0  0  0  0  0  0  0  0  0
    1.1639   16.2038   41.7061 N   0  0  0  0  0  0  0  0  0  0  0  0
    2.3074   21.0409   35.9756 O   0  0  0  0  0  0  0  0  0  0  0  0
    4.1180   19.8507   36.5678 O   0  0  0  0  0  0  0  0  0  0  0  0
    3.8957   18.1888   38.4472 O   0  0  0  0  0  0  0  0  0  0  0  0
   -1.2953   16.1697   42.6031 S   0  0  0  0  0  0  0  0  0  0  0  0
    5.2365   10.8234   42.2880 Cl  0  0  0  0  0  0  0  0  0  0  0  0
    0.6057   21.2074   37.7953 H   0  0  0  0  0  0  0  0  0  0  0  0
   -0.8157   20.1534   39.5395 H   0  0  0  0  0  0  0  0  0  0  0  0
    0.8528   12.4952   43.5108 H   0  0  0  0  0  0  0  0  0  0  0  0
    2.6596   10.7764   43.4940 H   0  0  0  0  0  0  0  0  0  0  0  0
    5.2032   13.4783   41.2778 H   0  0  0  0  0  0  0  0  0  0  0  0
    3.4035   15.2041   41.3333 H   0  0  0  0  0  0  0  0  0  0  0  0
   -0.5736   13.9700   43.5859 H   0  0  0  0  0  0  0  0  0  0  0  0
    2.4258   17.4655   40.5092 H   0  0  0  0  0  0  0  0  0  0  0  0
   -0.8259   18.8075   41.5891 H   0  0  0  0  0  0  0  0  0  0  0  0
  1  2  1  0
  1 19  1  0
  1 20  2  0
  2  3  1  0
  2 16  2  0
  3  4  2  0
  4  5  1  0
  5 15  2  0
  5 17  1  0
  6 17  1  0
  6 18  2  0
  6 22  1  0
  7  8  1  0
  7 14  2  0
  7 18  1  0
  8  9  1  0
  8 13  2  0
  9 10  2  0
 10 11  1  0
 11 12  2  0
 11 23  1  0
 12 13  1  0
 14 22  1  0
 15 16  1  0
 16 21  1  0
  3 24  1  0
  4 25  1  0
  9 26  1  0
 10 27  1  0
 12 28  1  0
 13 29  1  0
 14 30  1  0
 15 31  1  0
 17 32  1  0
M  CHG  2  19  -1  21  -1
M  END
>  <mol_id>  (23) 
2026-08-23-6tgu-s0-n100-r3-0023

>  <rmsd_to_ref>  (23) 
1.4642857142917398

$$$$
6tgu.A
     RDKit          3D

 32 34  0  0  0  0  0  0  0  0999 V2000
    3.3569   21.1844   37.0479 C   0  0  0  0  0  0  0  0  0  0  0  0
    2.9081   20.5207   38.2337 C   0  0  0  0  0  0  0  0  0  0  0  0
    1.7802   19.7442   38.3492 C   0  0  0  0  0  0  0  0  0  0  0  0
    1.4095   19.1147   39.5412 C   0  0  0  0  0  0  0  0  0  0  0  0
    2.1694   19.2476   40.6753 C   0  0  0  0  0  0  0  0  0  0  0  0
    1.1936   17.5335   42.2708 C   0  0  0  0  0  0  0  0  0  0  0  0
    0.3479   15.4780   42.6909 C   0  0  0  0  0  0  0  0  0  0  0  0
    0.3875   14.0188   42.5475 C   0  0  0  0  0  0  0  0  0  0  0  0
    1.3525   13.3981   41.7962 C   0  0  0  0  0  0  0  0  0  0  0  0
    1.4345   12.0217   41.6786 C   0  0  0  0  0  0  0  0  0  0  0  0
    0.5297   11.2158   42.3264 C   0  0  0  0  0  0  0  0  0  0  0  0
   -0.4522   11.8082   43.0892 C   0  0  0  0  0  0  0  0  0  0  0  0
   -0.5151   13.1880   43.1928 C   0  0  0  0  0  0  0  0  0  0  0  0
   -0.7253   16.0556   43.4634 C   0  0  0  0  0  0  0  0  0  0  0  0
    3.3266   20.0435   40.5640 C   0  0  0  0  0  0  0  0  0  0  0  0
    3.6793   20.6556   39.3812 C   0  0  0  0  0  0  0  0  0  0  0  0
    1.9414   18.6604   41.9217 N   0  0  0  0  0  0  0  0  0  0  0  0
    1.1580   16.3499   42.2048 N   0  0  0  0  0  0  0  0  0  0  0  0
    2.6130   21.0755   35.8812 O   0  0  0  0  0  0  0  0  0  0  0  0
    4.4140   21.8563   37.0647 O   0  0  0  0  0  0  0  0  0  0  0  0
    4.8507   21.4250   39.3660 O   0  0  0  0  0  0  0  0  0  0  0  0
   -0.3597   17.8668   43.3482 S   0  0  0  0  0  0  0  0  0  0  0  0
    0.5767    9.4519   42.2211 Cl  0  0  0  0  0  0  0  0  0  0  0  0
    1.1693   19.6297   37.4819 H   0  0  0  0  0  0  0  0  0  0  0  0
    0.5143   18.5041   39.6162 H   0  0  0  0  0  0  0  0  0  0  0  0
    2.0864   14.0167   41.2714 H   0  0  0  0  0  0  0  0  0  0  0  0
    2.1986   11.5633   41.0777 H   0  0  0  0  0  0  0  0  0  0  0  0
   -1.1948   11.2293   43.6294 H   0  0  0  0  0  0  0  0  0  0  0  0
   -1.2932   13.6122   43.8038 H   0  0  0  0  0  0  0  0  0  0  0  0
   -1.5078   15.6260   43.9630 H   0  0  0  0  0  0  0  0  0  0  0  0
    3.9709   20.1905   41.4189 H   0  0  0  0  0  0  0  0  0  0  0  0
    2.3993   19.1583   42.7653 H   0  0  0  0  0  0  0  0  0  0  0  0
  1  2  1  0
  1 19  1  0
  1 20  2  0
  2  3  1  0
  2 16  2  0
  3  4  2  0
  4  5  1  0
  5 15  2  0
  5 17  1  0
  6 17  1  0
  6 18  2  0
  6 22  1  0
  7  8  1  0
  7 14  2  0
  7 18  1  0
  8  9  1  0
  8 13  2  0
  9 10  2  0
 10 11  1  0
 11 12  2  0
 11 23  1  0
 12 13  1  0
 14 22  1  0
 15 16  1  0
 16 21  1  0
  3 24  1  0
  4 25  1  0
  9 26  1  0
 10 27  1  0
 12 28  1  0
 13 29  1  0
 14 30  1  0
 15 31  1  0
 17 32  1  0
M  CHG  2  19  -1  21  -1
M  END
>  <mol_id>  (24) 
2026-08-23-6tgu-s0-n100-r3-0024

>  <rmsd_to_ref>  (24) 
1.5102040816357951

$$$$
6tgu.A
     RDKit          3D

 32 34  0  0  0  0  0  0  0  0999 V2000
    5.1749   19.2406   37.2189 C   0  0  0  0  0  0  0  0  0  0  0  0
    4.2802   19.3581   38.4561 C   0  0  0  0  0  0  0  0  0  0  0  0
    3.7195   20.5833   38.8096 C   0  0  0  0  0  0  0  0  0  0  0  0
    2.7519   20.6944   39.8135 C   0  0  0  0  0  0  0  0  0  0  0  0
    2.4433   19.5890   40.6195 C   0  0  0  0  0  0  0  0  0  0  0  0
    0.6288   18.6987   42.1616 C   0  0  0  0  0  0  0  0  0  0  0  0
   -0.1032   16.5968   42.6328 C   0  0  0  0  0  0  0  0  0  0  0  0
   -0.0460   15.1349   42.6094 C   0  0  0  0  0  0  0  0  0  0  0  0
   -1.0787   14.3422   43.1302 C   0  0  0  0  0  0  0  0  0  0  0  0
   -1.0193   12.9535   43.0673 C   0  0  0  0  0  0  0  0  0  0  0  0
    0.0614   12.3637   42.4392 C   0  0  0  0  0  0  0  0  0  0  0  0
    1.1016   13.1095   41.9057 C   0  0  0  0  0  0  0  0  0  0  0  0
    1.0293   14.4973   41.9886 C   0  0  0  0  0  0  0  0  0  0  0  0
   -1.1392   17.3141   43.1700 C   0  0  0  0  0  0  0  0  0  0  0  0
    2.9905   18.3461   40.2704 C   0  0  0  0  0  0  0  0  0  0  0  0
    3.8944   18.2563   39.2102 C   0  0  0  0  0  0  0  0  0  0  0  0
    1.4127   19.6684   41.6057 N   0  0  0  0  0  0  0  0  0  0  0  0
    0.8840   17.3583   41.9638 N   0  0  0  0  0  0  0  0  0  0  0  0
    5.2325   20.2561   36.4649 O   0  0  0  0  0  0  0  0  0  0  0  0
    5.7103   18.1300   37.0099 O   0  0  0  0  0  0  0  0  0  0  0  0
    4.3433   17.0199   38.8107 O   0  0  0  0  0  0  0  0  0  0  0  0
   -0.9567   18.9966   42.8478 S   0  0  0  0  0  0  0  0  0  0  0  0
    0.1291   10.6368   42.3171 Cl  0  0  0  0  0  0  0  0  0  0  0  0
    4.0478   21.4915   38.2830 H   0  0  0  0  0  0  0  0  0  0  0  0
    2.2318   21.6508   39.9711 H   0  0  0  0  0  0  0  0  0  0  0  0
   -1.9498   14.8260   43.5961 H   0  0  0  0  0  0  0  0  0  0  0  0
   -1.8166   12.3373   43.5086 H   0  0  0  0  0  0  0  0  0  0  0  0
    1.9620   12.6171   41.4290 H   0  0  0  0  0  0  0  0  0  0  0  0
    1.8375   15.1049   41.5554 H   0  0  0  0  0  0  0  0  0  0  0  0
   -1.9762   16.8744   43.7323 H   0  0  0  0  0  0  0  0  0  0  0  0
    2.7080   17.4429   40.8311 H   0  0  0  0  0  0  0  0  0  0  0  0
    1.2299   20.6191   41.9571 H   0  0  0  0  0  0  0  0  0  0  0  0
  1  2  1  0
  1 19  1  0
  1 20  2  0
  2  3  1  0
  2 16  2  0
  3  4  2  0
  4  5  1  0
  5 15  2  0
  5 17  1  0
  6 17  1  0
  6 18  2  0
  6 22  1  0
  7  8  1  0
  7 14  2  0
  7 18  1  0
  8  9  1  0
  8 13  2  0
  9 10  2  0
 10 11  1  0
 11 12  2  0
 11 23  1  0
 12 13  1  0
 14 22  1  0
 15 16  1  0
 16 21  1  0
  3 24  1  0
  4 25  1  0
  9 26  1  0
 10 27  1  0
 12 28  1  0
 13 29  1  0
 14 30  1  0
 15 31  1  0
 17 32  1  0
M  CHG  2  19  -1  21  -1
M  END
>  <mol_id>  (25) 
2026-08-23-6tgu-s0-n100-r3-0025

>  <rmsd_to_ref>  (25) 
1.5561224489853103

$$$$
6tgu.A
     RDKit          3D

 32 34  0  0  0  0  0  0  0  0999 V2000
    3.4425   19.8751   36.7086 C   0  0  0  0  0  0  0  0  0  0  0  0
    3.0501   19.6341   38.0849 C   0  0  0  0  0  0  0  0  0  0  0  0
    2.2847   18.5505   38.4455 C   0  0  0  0  0  0  0  0  0  0  0  0
    1.8829   18.3104   39.7413 C   0  0  0  0  0  0  0  0  0  0  0  0
    2.2679   19.2004   40.7186 C   0  0  0  0  0  0  0  0  0  0  0  0
    1.0444   17.9158   42.4364 C   0  0  0  0  0  0  0  0  0  0  0  0
    0.0961   15.8730   42.6730 C   0  0  0  0  0  0  0  0  0  0  0  0
    0.0829   14.4434   42.3641 C   0  0  0  0  0  0  0  0  0  0  0  0
   -0.9071   13.6218   42.8943 C   0  0  0  0  0  0  0  0  0  0  0  0
   -0.9689   12.2770   42.6120 C   0  0  0  0  0  0  0  0  0  0  0  0
   -0.0181   11.7357   41.7740 C   0  0  0  0  0  0  0  0  0  0  0  0
    0.9790   12.5596   41.2412 C   0  0  0  0  0  0  0  0  0  0  0  0
    1.0440   13.9041   41.5225 C   0  0  0  0  0  0  0  0  0  0  0  0
   -0.8996   16.4532   43.4654 C   0  0  0  0  0  0  0  0  0  0  0  0
    3.0352   20.2975   40.4023 C   0  0  0  0  0  0  0  0  0  0  0  0
    3.4244   20.5114   39.0814 C   0  0  0  0  0  0  0  0  0  0  0  0
    1.8536   19.0226   42.0741 N   0  0  0  0  0  0  0  0  0  0  0  0
    0.9786   16.7312   42.2450 N   0  0  0  0  0  0  0  0  0  0  0  0
    3.0604   18.9929   35.6998 O   0  0  0  0  0  0  0  0  0  0  0  0
    4.1285   20.8696   36.3802 O   0  0  0  0  0  0  0  0  0  0  0  0
    4.2017   21.6366   38.8079 O   0  0  0  0  0  0  0  0  0  0  0  0
   -0.4646   18.2319   43.5210 S   0  0  0  0  0  0  0  0  0  0  0  0
   -0.1046   10.0231   41.4029 Cl  0  0  0  0  0  0  0  0  0  0  0  0
    1.9846   17.8572   37.6715 H   0  0  0  0  0  0  0  0  0  0  0  0
    1.2884   17.4736   40.0469 H   0  0  0  0  0  0  0  0  0  0  0  0
   -1.6681   14.0316   43.5613 H   0  0  0  0  0  0  0  0  0  0  0  0
   -1.7697   11.6958   43.0571 H   0  0  0  0  0  0  0  0  0  0  0  0
    1.7025   12.0748   40.5776 H   0  0  0  0  0  0  0  0  0  0  0  0
    1.8196   14.5432   41.1081 H   0  0  0  0  0  0  0  0  0  0  0  0
   -1.7854   16.0179   43.9684 H   0  0  0  0  0  0  0  0  0  0  0  0
    3.3288   20.9807   41.2013 H   0  0  0  0  0  0  0  0  0  0  0  0
    2.1151   19.6953   42.8209 H   0  0  0  0  0  0  0  0  0  0  0  0
  1  2  1  0
  1 19  1  0
  1 20  2  0
  2  3  1  0
  2 16  2  0
  3  4  2  0
  4  5  1  0
  5 15  2  0
  5 17  1  0
  6 17  1  0
  6 18  2  0
  6 22  1  0
  7  8  1  0
  7 14  2  0
  7 18  1  0
  8  9  1  0
  8 13  2  0
  9 10  2  0
 10 11  1  0
 11 12  2  0
 11 23  1  0
 12 13  1  0
 14 22  1  0
 15 16  1  0
 16 21  1  0
  3 24  1  0
  4 25  1  0
  9 26  1  0
 10 27  1  0
 12 28  1  0
 13 29  1  0
 14 30  1  0
 15 31  1  0
 17 32  1  0
M  CHG  2  19  -1  21  -1
M  END
>  <mol_id>  (26) 
2026-08-23-6tgu-s0-n100-r3-0026

>  <rmsd_to_ref>  (26) 
1.6020408163269337

$$$$
6tgu.A
     RDKit          3D

 32 34  0  0  0  0  0  0  0  0999 V2000
    5.5236   18.6500   37.2381 C   0  0  0  0  0  0  0  0  0  0  0  0
    4.4823   18.8155   38.3485 C   0  0  0  0  0  0  0  0  0  0  0  0
    3.7553   19.9980   38.4658 C   0  0  0  0  0  0  0  0  0  0  0  0
    2.6700   20.1182   39.3400 C   0  0  0  0  0  0  0  0  0  0  0  0
    2.3896   19.0965   40.2588 C   0  0  0  0  0  0  0  0  0  0  0  0
    0.5126   18.1968   41.7186 C   0  0  0  0  0  0  0  0  0  0  0  0
   -0.0393   16.0995   42.4060 C   0  0  0  0  0  0  0  0  0  0  0  0
    0.1772   14.6648   42.5960 C   0  0  0  0  0  0  0  0  0  0  0  0
   -0.8182   13.8254   43.1159 C   0  0  0  0  0  0  0  0  0  0  0  0
   -0.6028   12.4580   43.2569 C   0  0  0  0  0  0  0  0  0  0  0  0
    0.6015   11.9291   42.8321 C   0  0  0  0  0  0  0  0  0  0  0  0
    1.6109   12.7218   42.3070 C   0  0  0  0  0  0  0  0  0  0  0  0
    1.3804   14.0893   42.1846 C   0  0  0  0  0  0  0  0  0  0  0  0
   -1.2024   16.7476   42.7277 C   0  0  0  0  0  0  0  0  0  0  0  0
    3.1046   17.8955   40.1470 C   0  0  0  0  0  0  0  0  0  0  0  0
    4.1313   17.7812   39.2079 C   0  0  0  0  0  0  0  0  0  0  0  0
    1.2475   19.1754   41.1136 N   0  0  0  0  0  0  0  0  0  0  0  0
    0.9321   16.8836   41.7399 N   0  0  0  0  0  0  0  0  0  0  0  0
    5.5599   19.5591   36.3576 O   0  0  0  0  0  0  0  0  0  0  0  0
    6.1963   17.5959   37.2443 O   0  0  0  0  0  0  0  0  0  0  0  0
    4.7544   16.5681   39.0355 O   0  0  0  0  0  0  0  0  0  0  0  0
   -1.1654   18.3840   42.1905 S   0  0  0  0  0  0  0  0  0  0  0  0
    0.8685   10.2223   42.9635 Cl  0  0  0  0  0  0  0  0  0  0  0  0
    4.0437   20.8641   37.8520 H   0  0  0  0  0  0  0  0  0  0  0  0
    2.0352   21.0158   39.3066 H   0  0  0  0  0  0  0  0  0  0  0  0
   -1.7851   14.2547   43.4173 H   0  0  0  0  0  0  0  0  0  0  0  0
   -1.3755   11.8108   43.6975 H   0  0  0  0  0  0  0  0  0  0  0  0
    2.5694   12.2813   41.9951 H   0  0  0  0  0  0  0  0  0  0  0  0
    2.1639   14.7303   41.7542 H   0  0  0  0  0  0  0  0  0  0  0  0
   -2.0475   16.2848   43.2584 H   0  0  0  0  0  0  0  0  0  0  0  0
    2.8568   17.0444   40.7984 H   0  0  0  0  0  0  0  0  0  0  0  0
    0.9234   20.1339   41.3063 H   0  0  0  0  0  0  0  0  0  0  0  0
  1  2  1  0
  1 19  1  0
  1 20  2  0
  2  3  1  0
  2 16  2  0
  3  4  2  0
  4  5  1  0
  5 15  2  0
  5 17  1  0
  6 17  1  0
  6 18  2  0
  6 22  1  0
  7  8  1  0
  7 14  2  0
  7 18  1  0
  8  9  1  0
  8 13  2  0
  9 10  2  0
 10 11  1  0
 11 12  2  0
 11 23  1  0
 12 13  1  0
 14 22  1  0
 15 16  1  0
 16 21  1  0
  3 24  1  0
  4 25  1  0
  9 26  1  0
 10 27  1  0
 12 28  1  0
 13 29  1  0
 14 30  1  0
 15 31  1  0
 17 32  1  0
M  CHG  2  19  -1  21  -1
M  END
>  <mol_id>  (27) 
2026-08-23-6tgu-s0-n100-r3-0027

>  <rmsd_to_ref>  (27) 
1.647959183678464

$$$$
6tgu.A
     RDKit          3D

 32 34  0  0  0  0  0  0  0  0999 V2000
    2.3437   21.7690   38.1392 C   0  0  0  0  0  0  0  0  0  0  0  0
    1.5701   20.8625   38.9774 C   0  0  0  0  0  0  0  0  0  0  0  0
    0.1951   20.9711   39.0215 C   0  0  0  0  0  0  0  0  0  0  0  0
   -0.5460   20.0996   39.8255 C   0  0  0  0  0  0  0  0  0  0  0  0
    0.0987   19.1264   40.5784 C   0  0  0  0  0  0  0  0  0  0  0  0
    0.0484   17.2511   42.1877 C   0  0  0  0  0  0  0  0  0  0  0  0
    1.0249   15.1978   42.5844 C   0  0  0  0  0  0  0  0  0  0  0  0
    1.4534   13.8117   42.2095 C   0  0  0  0  0  0  0  0  0  0  0  0
    2.1042   13.0089   43.1037 C   0  0  0  0  0  0  0  0  0  0  0  0
    2.4747   11.7470   42.6993 C   0  0  0  0  0  0  0  0  0  0  0  0
    2.2285   11.2408   41.4415 C   0  0  0  0  0  0  0  0  0  0  0  0
    1.5705   12.0525   40.5379 C   0  0  0  0  0  0  0  0  0  0  0  0
    1.2021   13.3146   40.9486 C   0  0  0  0  0  0  0  0  0  0  0  0
    1.3080   15.6550   43.8640 C   0  0  0  0  0  0  0  0  0  0  0  0
    1.4940   19.0277   40.5241 C   0  0  0  0  0  0  0  0  0  0  0  0
    2.2203   19.9028   39.7186 C   0  0  0  0  0  0  0  0  0  0  0  0
   -0.6275   18.2124   41.4116 N   0  0  0  0  0  0  0  0  0  0  0  0
    0.4126   15.9646   41.7595 N   0  0  0  0  0  0  0  0  0  0  0  0
    1.7221   22.7472   37.3784 O   0  0  0  0  0  0  0  0  0  0  0  0
    3.6097   21.6451   38.1184 O   0  0  0  0  0  0  0  0  0  0  0  0
    3.5951   19.7397   39.7199 O   0  0  0  0  0  0  0  0  0  0  0  0
    0.6160   17.3491   43.8467 S   0  0  0  0  0  0  0  0  0  0  0  0
    2.7292    9.6220   40.9930 Cl  0  0  0  0  0  0  0  0  0  0  0  0
   -0.3365   21.7356   38.4324 H   0  0  0  0  0  0  0  0  0  0  0  0
   -1.6348   20.1799   39.8654 H   0  0  0  0  0  0  0  0  0  0  0  0
    2.3301   13.3396   44.1064 H   0  0  0  0  0  0  0  0  0  0  0  0
    2.9860   11.1365   43.4240 H   0  0  0  0  0  0  0  0  0  0  0  0
    1.3566   11.6968   39.5407 H   0  0  0  0  0  0  0  0  0  0  0  0
    0.6829   13.9485   40.2268 H   0  0  0  0  0  0  0  0  0  0  0  0
    1.7942   15.2088   44.6998 H   0  0  0  0  0  0  0  0  0  0  0  0
    2.0083   18.2581   41.1191 H   0  0  0  0  0  0  0  0  0  0  0  0
   -1.6715   18.3015   41.4086 H   0  0  0  0  0  0  0  0  0  0  0  0
  1  2  1  0
  1 19  1  0
  1 20  2  0
  2  3  1  0
  2 16  2  0
  3  4  2  0
  4  5  1  0
  5 15  2  0
  5 17  1  0
  6 17  1  0
  6 18  2  0
  6 22  1  0
  7  8  1  0
  7 14  2  0
  7 18  1  0
  8  9  1  0
  8 13  2  0
  9 10  2  0
 10 11  1  0
 11 12  2  0
 11 23  1  0
 12 13  1  0
 14 22  1  0
 15 16  1  0
 16 21  1  0
  3 24  1  0
  4 25  1  0
  9 26  1  0
 10 27  1  0
 12 28  1  0
 13 29  1  0
 14 30  1  0
 15 31  1  0
 17 32  1  0
M  CHG  2  19  -1  21  -1
M  END
>  <mol_id>  (28) 
2026-08-23-6tgu-s0-n100-r3-0028

>  <rmsd_to_ref>  (28) 
1.6938775510246207

$$$$
6tgu.A
     RDKit          3D

 32 34  0  0  0  0  0  0  0  0999 V2000
    1.2015   20.4695   37.2758 C   0  0  0  0  0  0  0  0  0  0  0  0
    1.1657   20.0588   38.7505 C   0  0  0  0  0  0  0  0  0  0  0  0
    0.3368   20.7250   39.6503 C   0  0  0  0  0  0  0  0  0  0  0  0
    0.1337   20.2623   40.9546 C   0  0  0  0  0  0  0  0  0  0  0  0
    0.9031   19.2009   41.4529 C   0  0  0  0  0  0  0  0  0  0  0  0
    0.9080   17.4394   43.2860 C   0  0  0  0  0  0  0  0  0  0  0  0
    1.7229   15.3177   43.3869 C   0  0  0  0  0  0  0  0  0  0  0  0
    2.4974   14.1693   42.9151 C   0  0  0  0  0  0  0  0  0  0  0  0
    2.4621   12.9296   43.5692 C   0  0  0  0  0  0  0  0  0  0  0  0
    3.1802   11.8411   43.0841 C   0  0  0  0  0  0  0  0  0  0  0  0
    3.8998   11.9899   41.9134 C   0  0  0  0  0  0  0  0  0  0  0  0
    3.9576   13.1960   41.2314 C   0  0  0  0  0  0  0  0  0  0  0  0
    3.2414   14.2765   41.7390 C   0  0  0  0  0  0  0  0  0  0  0  0
    0.9219   15.2968   44.4979 C   0  0  0  0  0  0  0  0  0  0  0  0
    1.7340   18.5125   40.5575 C   0  0  0  0  0  0  0  0  0  0  0  0
    1.8533   18.9540   39.2384 C   0  0  0  0  0  0  0  0  0  0  0  0
    0.6637   18.6751   42.7596 N   0  0  0  0  0  0  0  0  0  0  0  0
    1.6663   16.5029   42.6161 N   0  0  0  0  0  0  0  0  0  0  0  0
    0.3325   21.3114   36.9026 O   0  0  0  0  0  0  0  0  0  0  0  0
    2.0291   19.8835   36.5441 O   0  0  0  0  0  0  0  0  0  0  0  0
    2.5874   18.2121   38.3437 O   0  0  0  0  0  0  0  0  0  0  0  0
    0.0208   16.7585   44.6361 S   0  0  0  0  0  0  0  0  0  0  0  0
    4.7659   10.6320   41.2751 Cl  0  0  0  0  0  0  0  0  0  0  0  0
   -0.1738   21.6434   39.3251 H   0  0  0  0  0  0  0  0  0  0  0  0
   -0.6310   20.7318   41.5907 H   0  0  0  0  0  0  0  0  0  0  0  0
    1.8569   12.8158   44.4807 H   0  0  0  0  0  0  0  0  0  0  0  0
    3.1754   10.8813   43.6215 H   0  0  0  0  0  0  0  0  0  0  0  0
    4.5542   13.2964   40.3127 H   0  0  0  0  0  0  0  0  0  0  0  0
    3.2623   15.2359   41.2013 H   0  0  0  0  0  0  0  0  0  0  0  0
    0.8621   14.4582   45.2074 H   0  0  0  0  0  0  0  0  0  0  0  0
    2.2912   17.6257   40.8939 H   0  0  0  0  0  0  0  0  0  0  0  0
    0.2337   19.3419   43.4163 H   0  0  0  0  0  0  0  0  0  0  0  0
  1  2  1  0
  1 19  1  0
  1 20  2  0
  2  3  1  0
  2 16  2  0
  3  4  2  0
  4  5  1  0
  5 15  2  0
  5 17  1  0
  6 17  1  0
  6 18  2  0
  6 22  1  0
  7  8  1  0
  7 14  2  0
  7 18  1  0
  8  9  1  0
  8 13  2  0
  9 10  2  0
 10 11  1  0
 11 12  2  0
 11 23  1  0
 12 13  1  0
 14 22  1  0
 15 16  1  0
 16 21  1  0
  3 24  1  0
  4 25  1  0
  9 26  1  0
 10 27  1  0
 12 28  1  0
 13 29  1  0
 14 30  1  0
 15 31  1  0
 17 32  1  0
M  CHG  2  19  -1  21  -1
M  END
>  <mol_id>  (29) 
2026-08-23-6tgu-s0-n100-r3-0029

>  <rmsd_to_ref>  (29) 
1.7397959183761231

$$$$
6tgu.A
     RDKit          3D

 32 34  0  0  0  0  0  0  0  0999 V2000
    2.9123   20.8969   36.6623 C   0  0  0  0  0  0  0  0  0  0  0  0
    2.7952   20.3118   37.9862 C   0  0  0  0  0  0  0  0  0  0  0  0
    3.6661   20.7452   38.9754 C   0  0  0  0  0  0  0  0  0  0  0  0
    3.5928   20.2303   40.2520 C   0  0  0  0  0  0  0  0  0  0  0  0
    2.6331   19.2607   40.5602 C   0  0  0  0  0  0  0  0  0  0  0  0
    1.7692   17.6674   42.2979 C   0  0  0  0  0  0  0  0  0  0  0  0
    0.9016   15.7187   43.0074 C   0  0  0  0  0  0  0  0  0  0  0  0
    1.1740   14.3666   43.5055 C   0  0  0  0  0  0  0  0  0  0  0  0
    2.4466   13.8698   43.6861 C   0  0  0  0  0  0  0  0  0  0  0  0
    2.6754   12.6074   44.1667 C   0  0  0  0  0  0  0  0  0  0  0  0
    1.6350   11.7634   44.4965 C   0  0  0  0  0  0  0  0  0  0  0  0
    0.3419   12.2411   44.3232 C   0  0  0  0  0  0  0  0  0  0  0  0
    0.1330   13.5157   43.8377 C   0  0  0  0  0  0  0  0  0  0  0  0
   -0.3665   16.1985   42.8426 C   0  0  0  0  0  0  0  0  0  0  0  0
    1.7761   18.8416   39.5637 C   0  0  0  0  0  0  0  0  0  0  0  0
    1.8450   19.3540   38.2838 C   0  0  0  0  0  0  0  0  0  0  0  0
    2.5897   18.7948   41.8764 N   0  0  0  0  0  0  0  0  0  0  0  0
    1.8468   16.5845   42.6888 N   0  0  0  0  0  0  0  0  0  0  0  0
    2.0498   20.4930   35.6803 O   0  0  0  0  0  0  0  0  0  0  0  0
    3.7979   21.7741   36.4035 O   0  0  0  0  0  0  0  0  0  0  0  0
    0.9854   18.9364   37.2792 O   0  0  0  0  0  0  0  0  0  0  0  0
   -0.1257   17.9274   42.2171 S   0  0  0  0  0  0  0  0  0  0  0  0
    1.9347   10.1577   45.1071 Cl  0  0  0  0  0  0  0  0  0  0  0  0
    4.4100   21.4940   38.7408 H   0  0  0  0  0  0  0  0  0  0  0  0
    4.2771   20.5658   41.0398 H   0  0  0  0  0  0  0  0  0  0  0  0
    3.3026   14.4829   43.4459 H   0  0  0  0  0  0  0  0  0  0  0  0
    3.6909   12.2407   44.2982 H   0  0  0  0  0  0  0  0  0  0  0  0
   -0.4868   11.5878   44.5782 H   0  0  0  0  0  0  0  0  0  0  0  0
   -0.9104   13.8434   43.7201 H   0  0  0  0  0  0  0  0  0  0  0  0
   -1.3712   15.7811   42.9990 H   0  0  0  0  0  0  0  0  0  0  0  0
    1.0339   18.0927   39.8051 H   0  0  0  0  0  0  0  0  0  0  0  0
    3.1411   19.2231   42.6394 H   0  0  0  0  0  0  0  0  0  0  0  0
  1  2  1  0
  1 19  1  0
  1 20  2  0
  2  3  1  0
  2 16  2  0
  3  4  2  0
  4  5  1  0
  5 15  2  0
  5 17  1  0
  6 17  1  0
  6 18  2  0
  6 22  1  0
  7  8  1  0
  7 14  2  0
  7 18  1  0
  8  9  1  0
  8 13  2  0
  9 10  2  0
 10 11  1  0
 11 12  2  0
 11 23  1  0
 12 13  1  0
 14 22  1  0
 15 16  1  0
 16 21  1  0
  3 24  1  0
  4 25  1  0
  9 26  1  0
 10 27  1  0
 12 28  1  0
 13 29  1  0
 14 30  1  0
 15 31  1  0
 17 32  1  0
M  CHG  2  19  -1  21  -1
M  END
>  <mol_id>  (30) 
2026-08-23-6tgu-s0-n100-r3-0030

>  <rmsd_to_ref>  (30) 
1.7857142857158048

$$$$
6tgu.A
     RDKit          3D

 32 34  0  0  0  0  0  0  0  0999 V2000
    5.0717   20.2549   38.8752 C   0  0  0  0  0  0  0  0  0  0  0  0
    3.7998   19.7444   39.5581 C   0  0  0  0  0  0  0  0  0  0  0  0
    2.5797   20.3833   39.3492 C   0  0  0  0  0  0  0  0  0  0  0  0
    1.3714   19.8404   39.7982 C   0  0  0  0  0  0  0  0  0  0  0  0
    1.3728   18.7128   40.6321 C   0  0  0  0  0  0  0  0  0  0  0  0
   -0.1368   16.8292   41.4299 C   0  0  0  0  0  0  0  0  0  0  0  0
    0.2690   14.6707   42.0230 C   0  0  0  0  0  0  0  0  0  0  0  0
    1.1111   13.5239   42.3651 C   0  0  0  0  0  0  0  0  0  0  0  0
    0.5762   12.2445   42.5723 C   0  0  0  0  0  0  0  0  0  0  0  0
    1.3988   11.1609   42.8637 C   0  0  0  0  0  0  0  0  0  0  0  0
    2.7663   11.3580   42.9028 C   0  0  0  0  0  0  0  0  0  0  0  0
    3.3379   12.6049   42.6985 C   0  0  0  0  0  0  0  0  0  0  0  0
    2.4972   13.6788   42.4195 C   0  0  0  0  0  0  0  0  0  0  0  0
   -1.0932   14.6088   41.8934 C   0  0  0  0  0  0  0  0  0  0  0  0
    2.5910   18.0514   40.8433 C   0  0  0  0  0  0  0  0  0  0  0  0
    3.7703   18.5780   40.3132 C   0  0  0  0  0  0  0  0  0  0  0  0
    0.1463   18.1085   41.0465 N   0  0  0  0  0  0  0  0  0  0  0  0
    0.8597   15.9082   41.6740 N   0  0  0  0  0  0  0  0  0  0  0  0
    4.9201   21.1596   38.0025 O   0  0  0  0  0  0  0  0  0  0  0  0
    6.1436   19.6843   39.1739 O   0  0  0  0  0  0  0  0  0  0  0  0
    4.9407   17.8676   40.4374 O   0  0  0  0  0  0  0  0  0  0  0  0
   -1.7241   16.0970   41.2974 S   0  0  0  0  0  0  0  0  0  0  0  0
    3.8059   10.0098   43.2240 Cl  0  0  0  0  0  0  0  0  0  0  0  0
    2.5661   21.3445   38.8145 H   0  0  0  0  0  0  0  0  0  0  0  0
    0.4180   20.2988   39.4967 H   0  0  0  0  0  0  0  0  0  0  0  0
   -0.5114   12.0950   42.5033 H   0  0  0  0  0  0  0  0  0  0  0  0
    0.9695   10.1671   43.0590 H   0  0  0  0  0  0  0  0  0  0  0  0
    4.4278   12.7418   42.7554 H   0  0  0  0  0  0  0  0  0  0  0  0
    2.9349   14.6715   42.2378 H   0  0  0  0  0  0  0  0  0  0  0  0
   -1.7031   13.7264   42.1373 H   0  0  0  0  0  0  0  0  0  0  0  0
    2.6175   17.1187   41.4260 H   0  0  0  0  0  0  0  0  0  0  0  0
   -0.6620   18.7468   41.0579 H   0  0  0  0  0  0  0  0  0  0  0  0
  1  2  1  0
  1 19  1  0
  1 20  2  0
  2  3  1  0
  2 16  2  0
  3  4  2  0
  4  5  1  0
  5 15  2  0
  5 17  1  0
  6 17  1  0
  6 18  2  0
  6 22  1  0
  7  8  1  0
  7 14  2  0
  7 18  1  0
  8  9  1  0
  8 13  2  0
  9 10  2  0
 10 11  1  0
 11 12  2  0
 11 23  1  0
 12 13  1  0
 14 22  1  0
 15 16  1  0
 16 21  1  0
  3 24  1  0
  4 25  1  0
  9 26  1  0
 10 27  1  0
 12 28  1  0
 13 29  1  0
 14 30  1  0
 15 31  1  0
 17 32  1  0
M  CHG  2  19  -1  21  -1
M  END
>  <mol_id>  (31) 
2026-08-23-6tgu-s0-n100-r3-0031

>  <rmsd_to_ref>  (31) 
1.8316326530661273

$$$$
6tgu.A
     RDKit          3D

 32 34  0  0  0  0  0  0  0  0999 V2000
    1.3977   20.4549   36.2655 C   0  0  0  0  0  0  0  0  0  0  0  0
    1.8094   19.8994   37.5454 C   0  0  0  0  0  0  0  0  0  0  0  0
    3.0278   20.3686   38.0571 C   0  0  0  0  0  0  0  0  0  0  0  0
    3.4541   19.8619   39.2846 C   0  0  0  0  0  0  0  0  0  0  0  0
    2.6801   18.9197   39.9666 C   0  0  0  0  0  0  0  0  0  0  0  0
    2.3821   17.3499   41.8853 C   0  0  0  0  0  0  0  0  0  0  0  0
    1.7018   15.3019   42.5476 C   0  0  0  0  0  0  0  0  0  0  0  0
    1.8852   13.8278   42.4929 C   0  0  0  0  0  0  0  0  0  0  0  0
    1.0515   12.9897   43.2021 C   0  0  0  0  0  0  0  0  0  0  0  0
    1.1873   11.6187   43.1772 C   0  0  0  0  0  0  0  0  0  0  0  0
    2.1700   11.0397   42.4355 C   0  0  0  0  0  0  0  0  0  0  0  0
    3.0242   11.8597   41.7111 C   0  0  0  0  0  0  0  0  0  0  0  0
    2.8825   13.2482   41.7395 C   0  0  0  0  0  0  0  0  0  0  0  0
    0.7306   15.8778   43.2750 C   0  0  0  0  0  0  0  0  0  0  0  0
    1.4888   18.4682   39.4552 C   0  0  0  0  0  0  0  0  0  0  0  0
    1.0651   18.9676   38.2414 C   0  0  0  0  0  0  0  0  0  0  0  0
    3.1258   18.4124   41.2281 N   0  0  0  0  0  0  0  0  0  0  0  0
    2.4773   16.1323   41.8862 N   0  0  0  0  0  0  0  0  0  0  0  0
    0.1749   20.0418   35.6978 O   0  0  0  0  0  0  0  0  0  0  0  0
    2.0548   21.2887   35.6128 O   0  0  0  0  0  0  0  0  0  0  0  0
   -0.1362   18.5408   37.6806 O   0  0  0  0  0  0  0  0  0  0  0  0
    0.9621   17.7110   42.9790 S   0  0  0  0  0  0  0  0  0  0  0  0
    2.3072    9.2969   42.4313 Cl  0  0  0  0  0  0  0  0  0  0  0  0
    3.6081   21.0956   37.5126 H   0  0  0  0  0  0  0  0  0  0  0  0
    4.3864   20.1836   39.7343 H   0  0  0  0  0  0  0  0  0  0  0  0
    0.2804   13.4363   43.7852 H   0  0  0  0  0  0  0  0  0  0  0  0
    0.4805   11.0475   43.7701 H   0  0  0  0  0  0  0  0  0  0  0  0
    3.8028   11.4035   41.1236 H   0  0  0  0  0  0  0  0  0  0  0  0
    3.5598   13.8979   41.1655 H   0  0  0  0  0  0  0  0  0  0  0  0
   -0.0854   15.5240   43.9377 H   0  0  0  0  0  0  0  0  0  0  0  0
    0.8841   17.7399   39.9762 H   0  0  0  0  0  0  0  0  0  0  0  0
    3.9842   18.7927   41.6938 H   0  0  0  0  0  0  0  0  0  0  0  0
  1  2  1  0
  1 19  1  0
  1 20  2  0
  2  3  1  0
  2 16  2  0
  3  4  2  0
  4  5  1  0
  5 15  2  0
  5 17  1  0
  6 17  1  0
  6 18  2  0
  6 22  1  0
  7  8  1  0
  7 14  2  0
  7 18  1  0
  8  9  1  0
  8 13  2  0
  9 10  2  0
 10 11  1  0
 11 12  2  0
 11 23  1  0
 12 13  1  0
 14 22  1  0
 15 16  1  0
 16 21  1  0
  3 24  1  0
  4 25  1  0
  9 26  1  0
 10 27  1  0
 12 28  1  0
 13 29  1  0
 14 30  1  0
 15 31  1  0
 17 32  1  0
M  CHG  2  19  -1  21  -1
M  END
>  <mol_id>  (32) 
2026-08-23-6tgu-s0-n100-r3-0032

>  <rmsd_to_ref>  (32) 
1.8775510204083492

$$$$
6tgu.A
     RDKit          3D

 32 34  0  0  0  0  0  0  0  0999 V2000
    5.8385   19.0532   37.8877 C   0  0  0  0  0  0  0  0  0  0  0  0
    4.5886   19.1635   38.7653 C   0  0  0  0  0  0  0  0  0  0  0  0
    3.6389   20.1533   38.5223 C   0  0  0  0  0  0  0  0  0  0  0  0
    2.4015   20.1703   39.1743 C   0  0  0  0  0  0  0  0  0  0  0  0
    2.1493   19.2816   40.2295 C   0  0  0  0  0  0  0  0  0  0  0  0
    0.2328   18.2398   41.5352 C   0  0  0  0  0  0  0  0  0  0  0  0
   -0.0282   16.2187   42.5465 C   0  0  0  0  0  0  0  0  0  0  0  0
    0.4192   14.9234   43.0594 C   0  0  0  0  0  0  0  0  0  0  0  0
   -0.4779   13.9804   43.5810 C   0  0  0  0  0  0  0  0  0  0  0  0
   -0.0350   12.7411   44.0325 C   0  0  0  0  0  0  0  0  0  0  0  0
    1.3079   12.4346   43.9174 C   0  0  0  0  0  0  0  0  0  0  0  0
    2.2284   13.3350   43.4027 C   0  0  0  0  0  0  0  0  0  0  0  0
    1.7673   14.5741   42.9668 C   0  0  0  0  0  0  0  0  0  0  0  0
   -1.3344   16.6316   42.5438 C   0  0  0  0  0  0  0  0  0  0  0  0
    3.0900   18.2723   40.4797 C   0  0  0  0  0  0  0  0  0  0  0  0
    4.2826   18.2367   39.7547 C   0  0  0  0  0  0  0  0  0  0  0  0
    0.8691   19.2430   40.8625 N   0  0  0  0  0  0  0  0  0  0  0  0
    0.8849   17.0785   41.8914 N   0  0  0  0  0  0  0  0  0  0  0  0
    5.8701   19.7852   36.8550 O   0  0  0  0  0  0  0  0  0  0  0  0
    6.6872   18.1951   38.2151 O   0  0  0  0  0  0  0  0  0  0  0  0
    5.1490   17.1848   39.9347 O   0  0  0  0  0  0  0  0  0  0  0  0
   -1.5090   18.1193   41.6930 S   0  0  0  0  0  0  0  0  0  0  0  0
    1.8676   10.8797   44.4377 Cl  0  0  0  0  0  0  0  0  0  0  0  0
    3.8692   20.9459   37.7952 H   0  0  0  0  0  0  0  0  0  0  0  0
    1.6246   20.8823   38.8588 H   0  0  0  0  0  0  0  0  0  0  0  0
   -1.5492   14.2244   43.6341 H   0  0  0  0  0  0  0  0  0  0  0  0
   -0.7394   12.0197   44.4723 H   0  0  0  0  0  0  0  0  0  0  0  0
    3.2958   13.0766   43.3404 H   0  0  0  0  0  0  0  0  0  0  0  0
    2.4813   15.2938   42.5399 H   0  0  0  0  0  0  0  0  0  0  0  0
   -2.1615   16.0858   43.0213 H   0  0  0  0  0  0  0  0  0  0  0  0
    2.8886   17.5095   41.2463 H   0  0  0  0  0  0  0  0  0  0  0  0
    0.3353   20.1217   40.8008 H   0  0  0  0  0  0  0  0  0  0  0  0
  1  2  1  0
  1 19  1  0
  1 20  2  0
  2  3  1  0
  2 16  2  0
  3  4  2  0
  4  5  1  0
  5 15  2  0
  5 17  1  0
  6 17  1  0
  6 18  2  0
  6 22  1  0
  7  8  1  0
  7 14  2  0
  7 18  1  0
  8  9  1  0
  8 13  2  0
  9 10  2  0
 10 11  1  0
 11 12  2  0
 11 23  1  0
 12 13  1  0
 14 22  1  0
 15 16  1  0
 16 21  1  0
  3 24  1  0
  4 25  1  0
  9 26  1  0
 10 27  1  0
 12 28  1  0
 13 29  1  0
 14 30  1  0
 15 31  1  0
 17 32  1  0
M  CHG  2  19  -1  21  -1
M  END
>  <mol_id>  (33) 
2026-08-23-6tgu-s0-n100-r3-0033

>  <rmsd_to_ref>  (33) 
1.9234693877578772

$$$$
6tgu.A
     RDKit          3D

 32 34  0  0  0  0  0  0  0  0999 V2000
    3.5677   21.5862   37.8478 C   0  0  0  0  0  0  0  0  0  0  0  0
    3.1157   20.7419   38.9560 C   0  0  0  0  0  0  0  0  0  0  0  0
    3.7225   20.8735   40.1969 C   0  0  0  0  0  0  0  0  0  0  0  0
    3.3059   20.0891   41.2501 C   0  0  0  0  0  0  0  0  0  0  0  0
    2.2722   19.1682   41.0500 C   0  0  0  0  0  0  0  0  0  0  0  0
    0.8462   17.3020   41.9142 C   0  0  0  0  0  0  0  0  0  0  0  0
   -0.3578   15.4414   41.5772 C   0  0  0  0  0  0  0  0  0  0  0  0
   -0.3264   13.9788   41.4014 C   0  0  0  0  0  0  0  0  0  0  0  0
    0.8520   13.2547   41.4170 C   0  0  0  0  0  0  0  0  0  0  0  0
    0.9277   11.9001   41.2611 C   0  0  0  0  0  0  0  0  0  0  0  0
   -0.2648   11.1946   41.0730 C   0  0  0  0  0  0  0  0  0  0  0  0
   -1.4346   11.9151   41.0577 C   0  0  0  0  0  0  0  0  0  0  0  0
   -1.4855   13.2841   41.2174 C   0  0  0  0  0  0  0  0  0  0  0  0
   -1.5218   16.1742   41.5823 C   0  0  0  0  0  0  0  0  0  0  0  0
    1.6666   19.0344   39.8178 C   0  0  0  0  0  0  0  0  0  0  0  0
    2.0806   19.8255   38.7396 C   0  0  0  0  0  0  0  0  0  0  0  0
    1.8395   18.3847   42.1198 N   0  0  0  0  0  0  0  0  0  0  0  0
    0.7018   16.2022   41.7594 N   0  0  0  0  0  0  0  0  0  0  0  0
    2.9887   21.4927   36.6001 O   0  0  0  0  0  0  0  0  0  0  0  0
    4.5140   22.4260   38.0363 O   0  0  0  0  0  0  0  0  0  0  0  0
    1.4719   19.6966   37.4882 O   0  0  0  0  0  0  0  0  0  0  0  0
   -0.9785   17.9005   41.8510 S   0  0  0  0  0  0  0  0  0  0  0  0
   -0.2461    9.4341   40.8684 Cl  0  0  0  0  0  0  0  0  0  0  0  0
    4.5172   21.5963   40.3115 H   0  0  0  0  0  0  0  0  0  0  0  0
    3.7779   20.1812   42.2431 H   0  0  0  0  0  0  0  0  0  0  0  0
    1.8038   13.7933   41.5633 H   0  0  0  0  0  0  0  0  0  0  0  0
    1.8654   11.3646   41.2795 H   0  0  0  0  0  0  0  0  0  0  0  0
   -2.3518   11.3247   40.9067 H   0  0  0  0  0  0  0  0  0  0  0  0
   -2.4449   13.7915   41.1947 H   0  0  0  0  0  0  0  0  0  0  0  0
   -2.5689   15.8903   41.4624 H   0  0  0  0  0  0  0  0  0  0  0  0
    0.8649   18.3188   39.6634 H   0  0  0  0  0  0  0  0  0  0  0  0
    2.1696   18.5006   43.0926 H   0  0  0  0  0  0  0  0  0  0  0  0
  1  2  1  0
  1 19  1  0
  1 20  2  0
  2  3  1  0
  2 16  2  0
  3  4  2  0
  4  5  1  0
  5 15  2  0
  5 17  1  0
  6 17  1  0
  6 18  2  0
  6 22  1  0
  7  8  1  0
  7 14  2  0
  7 18  1  0
  8  9  1  0
  8 13  2  0
  9 10  2  0
 10 11  1  0
 11 12  2  0
 11 23  1  0
 12 13  1  0
 14 22  1  0
 15 16  1  0
 16 21  1  0
  3 24  1  0
  4 25  1  0
  9 26  1  0
 10 27  1  0
 12 28  1  0
 13 29  1  0
 14 30  1  0
 15 31  1  0
 17 32  1  0
M  CHG  2  19  -1  21  -1
M  END
>  <mol_id>  (34) 
2026-08-23-6tgu-s0-n100-r3-0034

>  <rmsd_to_ref>  (34) 
1.9693877551044308

$$$$
6tgu.A
     RDKit          3D

 32 34  0  0  0  0  0  0  0  0999 V2000
    1.4841   20.8743   38.1327 C   0  0  0  0  0  0  0  0  0  0  0  0
    1.1628   20.0846   39.4047 C   0  0  0  0  0  0  0  0  0  0  0  0
    0.1027   20.4650   40.2245 C   0  0  0  0  0  0  0  0  0  0  0  0
   -0.3394   19.6663   41.2842 C   0  0  0  0  0  0  0  0  0  0  0  0
    0.3916   18.5309   41.6628 C   0  0  0  0  0  0  0  0  0  0  0  0
    0.1489   16.3453   42.9385 C   0  0  0  0  0  0  0  0  0  0  0  0
    1.1030   14.2955   42.6860 C   0  0  0  0  0  0  0  0  0  0  0  0
    2.0585   13.3351   42.1331 C   0  0  0  0  0  0  0  0  0  0  0  0
    1.9889   11.9654   42.4248 C   0  0  0  0  0  0  0  0  0  0  0  0
    2.8873   11.0647   41.8614 C   0  0  0  0  0  0  0  0  0  0  0  0
    3.8296   11.5389   40.9682 C   0  0  0  0  0  0  0  0  0  0  0  0
    3.9301   12.8842   40.6471 C   0  0  0  0  0  0  0  0  0  0  0  0
    3.0293   13.7712   41.2300 C   0  0  0  0  0  0  0  0  0  0  0  0
    0.0836   13.9583   43.5366 C   0  0  0  0  0  0  0  0  0  0  0  0
    1.4546   18.1280   40.8419 C   0  0  0  0  0  0  0  0  0  0  0  0
    1.8205   18.9081   39.7434 C   0  0  0  0  0  0  0  0  0  0  0  0
   -0.0808   17.6698   42.7003 N   0  0  0  0  0  0  0  0  0  0  0  0
    1.1136   15.6415   42.2495 N   0  0  0  0  0  0  0  0  0  0  0  0
    0.6480   21.7622   37.7927 O   0  0  0  0  0  0  0  0  0  0  0  0
    2.4992   20.5263   37.4906 O   0  0  0  0  0  0  0  0  0  0  0  0
    2.7938   18.4510   38.8870 O   0  0  0  0  0  0  0  0  0  0  0  0
   -0.9493   15.3063   43.8262 S   0  0  0  0  0  0  0  0  0  0  0  0
    4.9287   10.4233   40.2273 Cl  0  0  0  0  0  0  0  0  0  0  0  0
   -0.4022   21.4232   40.0326 H   0  0  0  0  0  0  0  0  0  0  0  0
   -1.2624   19.9292   41.8217 H   0  0  0  0  0  0  0  0  0  0  0  0
    1.2114   11.5970   43.1103 H   0  0  0  0  0  0  0  0  0  0  0  0
    2.8485    9.9966   42.1216 H   0  0  0  0  0  0  0  0  0  0  0  0
    4.7020   13.2413   39.9495 H   0  0  0  0  0  0  0  0  0  0  0  0
    3.0838   14.8394   40.9732 H   0  0  0  0  0  0  0  0  0  0  0  0
   -0.0568   12.9598   43.9762 H   0  0  0  0  0  0  0  0  0  0  0  0
    1.9996   17.1985   41.0632 H   0  0  0  0  0  0  0  0  0  0  0  0
   -0.7001   18.1260   43.3853 H   0  0  0  0  0  0  0  0  0  0  0  0
  1  2  1  0
  1 19  1  0
  1 20  2  0
  2  3  1  0
  2 16  2  0
  3  4  2  0
  4  5  1  0
  5 15  2  0
  5 17  1  0
  6 17  1  0
  6 18  2  0
  6 22  1  0
  7  8  1  0
  7 14  2  0
  7 18  1  0
  8  9  1  0
  8 13  2  0
  9 10  2  0
 10 11  1  0
 11 12  2  0
 11 23  1  0
 12 13  1  0
 14 22  1  0
 15 16  1  0
 16 21  1  0
  3 24  1  0
  4 25  1  0
  9 26  1  0
 10 27  1  0
 12 28  1  0
 13 29  1  0
 14 30  1  0
 15 31  1  0
 17 32  1  0
M  CHG  2  19  -1  21  -1
M  END
>  <mol_id>  (35) 
2026-08-23-6tgu-s0-n100-r3-0035

>  <rmsd_to_ref>  (35) 
2.0153061224512814

$$$$
6tgu.A
     RDKit          3D

 32 34  0  0  0  0  0  0  0  0999 V2000
    4.1590   20.4878   37.1360 C   0  0  0  0  0  0  0  0  0  0  0  0
    3.0306   19.7651   37.6972 C   0  0  0  0  0  0  0  0  0  0  0  0
    2.9633   19.6399   39.0785 C   0  0  0  0  0  0  0  0  0  0  0  0
    1.9268   18.9719   39.6787 C   0  0  0  0  0  0  0  0  0  0  0  0
    0.9618   18.4350   38.8547 C   0  0  0  0  0  0  0  0  0  0  0  0
    0.0218   17.2042   40.7928 C   0  0  0  0  0  0  0  0  0  0  0  0
    0.3744   15.9152   42.5958 C   0  0  0  0  0  0  0  0  0  0  0  0
    0.6727   14.5758   43.1360 C   0  0  0  0  0  0  0  0  0  0  0  0
    0.7773   14.3676   44.4988 C   0  0  0  0  0  0  0  0  0  0  0  0
    1.0515   13.1117   44.9803 C   0  0  0  0  0  0  0  0  0  0  0  0
    1.2329   12.0234   44.1707 C   0  0  0  0  0  0  0  0  0  0  0  0
    1.1315   12.2173   42.8076 C   0  0  0  0  0  0  0  0  0  0  0  0
    0.8567   13.4728   42.3301 C   0  0  0  0  0  0  0  0  0  0  0  0
    0.1738   17.0163   43.4336 C   0  0  0  0  0  0  0  0  0  0  0  0
    0.9914   18.5377   37.4749 C   0  0  0  0  0  0  0  0  0  0  0  0
    2.0361   19.2100   36.8778 C   0  0  0  0  0  0  0  0  0  0  0  0
   -0.1312   17.7186   39.4749 N   0  0  0  0  0  0  0  0  0  0  0  0
    0.2567   16.2170   41.3293 N   0  0  0  0  0  0  0  0  0  0  0  0
    4.2509   20.5964   35.7491 O   0  0  0  0  0  0  0  0  0  0  0  0
    5.0501   21.0097   37.9014 O   0  0  0  0  0  0  0  0  0  0  0  0
    2.1102   19.3382   35.4995 O   0  0  0  0  0  0  0  0  0  0  0  0
   -0.1674   18.3753   42.2703 S   0  0  0  0  0  0  0  0  0  0  0  0
    1.5781   10.4466   44.8248 Cl  0  0  0  0  0  0  0  0  0  0  0  0
    3.7310   20.0704   39.7386 H   0  0  0  0  0  0  0  0  0  0  0  0
    1.8783   18.8801   40.7580 H   0  0  0  0  0  0  0  0  0  0  0  0
    0.6373   15.2090   45.1589 H   0  0  0  0  0  0  0  0  0  0  0  0
    1.1272   12.9771   46.0442 H   0  0  0  0  0  0  0  0  0  0  0  0
    1.2534   11.4235   42.0759 H   0  0  0  0  0  0  0  0  0  0  0  0
    0.7707   13.6483   41.2531 H   0  0  0  0  0  0  0  0  0  0  0  0
    0.2005   17.1055   44.4836 H   0  0  0  0  0  0  0  0  0  0  0  0
    0.2161   18.1063   36.8309 H   0  0  0  0  0  0  0  0  0  0  0  0
   -1.0467   17.5849   38.9339 H   0  0  0  0  0  0  0  0  0  0  0  0
  1  2  1  0
  1 19  1  0
  1 20  2  0
  2  3  1  0
  2 16  2  0
  3  4  2  0
  4  5  1  0
  5 15  2  0
  5 17  1  0
  6 17  1  0
  6 18  2  0
  6 22  1  0
  7  8  1  0
  7 14  2  0
  7 18  1  0
  8  9  1  0
  8 13  2  0
  9 10  2  0
 10 11  1  0
 11 12  2  0
 11 23  1  0
 12 13  1  0
 14 22  1  0
 15 16  1  0
 16 21  1  0
  3 24  1  0
  4 25  1  0
  9 26  1  0
 10 27  1  0
 12 28  1  0
 13 29  1  0
 14 30  1  0
 15 31  1  0
 17 32  1  0
M  CHG  2  19  -1  21  -1
M  END
>  <mol_id>  (36) 
2026-08-23-6tgu-s0-n100-r3-0036

>  <rmsd_to_ref>  (36) 
2.0612244897967256

$$$$
6tgu.A
     RDKit          3D

 32 34  0  0  0  0  0  0  0  0999 V2000
    5.2782   20.1037   39.3654 C   0  0  0  0  0  0  0  0  0  0  0  0
    3.9102   19.9861   40.0431 C   0  0  0  0  0  0  0  0  0  0  0  0
    2.9941   21.0333   39.9736 C   0  0  0  0  0  0  0  0  0  0  0  0
    1.6733   20.8940   40.4125 C   0  0  0  0  0  0  0  0  0  0  0  0
    1.2786   19.7385   41.1022 C   0  0  0  0  0  0  0  0  0  0  0  0
   -0.7969   18.4156   41.7389 C   0  0  0  0  0  0  0  0  0  0  0  0
   -1.1786   16.1939   42.0449 C   0  0  0  0  0  0  0  0  0  0  0  0
   -0.7954   14.7906   42.2034 C   0  0  0  0  0  0  0  0  0  0  0  0
   -1.7475   13.7641   42.2799 C   0  0  0  0  0  0  0  0  0  0  0  0
   -1.3602   12.4328   42.3967 C   0  0  0  0  0  0  0  0  0  0  0  0
   -0.0112   12.1317   42.3920 C   0  0  0  0  0  0  0  0  0  0  0  0
    0.9636   13.1148   42.3126 C   0  0  0  0  0  0  0  0  0  0  0  0
    0.5561   14.4418   42.2078 C   0  0  0  0  0  0  0  0  0  0  0  0
   -2.4752   16.6304   41.9760 C   0  0  0  0  0  0  0  0  0  0  0  0
    2.1850   18.6708   41.1713 C   0  0  0  0  0  0  0  0  0  0  0  0
    3.4726   18.8157   40.6516 C   0  0  0  0  0  0  0  0  0  0  0  0
   -0.0810   19.5532   41.5001 N   0  0  0  0  0  0  0  0  0  0  0  0
   -0.1897   17.1805   41.8200 N   0  0  0  0  0  0  0  0  0  0  0  0
    5.4535   21.1101   38.6175 O   0  0  0  0  0  0  0  0  0  0  0  0
    6.0800   19.1600   39.5394 O   0  0  0  0  0  0  0  0  0  0  0  0
    4.3165   17.7308   40.6308 O   0  0  0  0  0  0  0  0  0  0  0  0
   -2.5411   18.3097   41.5969 S   0  0  0  0  0  0  0  0  0  0  0  0
    0.4855   10.4752   42.4957 Cl  0  0  0  0  0  0  0  0  0  0  0  0
    3.3195   21.9996   39.5609 H   0  0  0  0  0  0  0  0  0  0  0  0
    0.9426   21.6925   40.2161 H   0  0  0  0  0  0  0  0  0  0  0  0
   -2.8179   14.0154   42.2470 H   0  0  0  0  0  0  0  0  0  0  0  0
   -2.1126   11.6359   42.4909 H   0  0  0  0  0  0  0  0  0  0  0  0
    2.0318   12.8527   42.3320 H   0  0  0  0  0  0  0  0  0  0  0  0
    1.3160   15.2330   42.1266 H   0  0  0  0  0  0  0  0  0  0  0  0
   -3.3569   15.9937   42.1408 H   0  0  0  0  0  0  0  0  0  0  0  0
    1.8818   17.7202   41.6345 H   0  0  0  0  0  0  0  0  0  0  0  0
   -0.6113   20.4268   41.6288 H   0  0  0  0  0  0  0  0  0  0  0  0
  1  2  1  0
  1 19  1  0
  1 20  2  0
  2  3  1  0
  2 16  2  0
  3  4  2  0
  4  5  1  0
  5 15  2  0
  5 17  1  0
  6 17  1  0
  6 18  2  0
  6 22  1  0
  7  8  1  0
  7 14  2  0
  7 18  1  0
  8  9  1  0
  8 13  2  0
  9 10  2  0
 10 11  1  0
 11 12  2  0
 11 23  1  0
 12 13  1  0
 14 22  1  0
 15 16  1  0
 16 21  1  0
  3 24  1  0
  4 25  1  0
  9 26  1  0
 10 27  1  0
 12 28  1  0
 13 29  1  0
 14 30  1  0
 15 31  1  0
 17 32  1  0
M  CHG  2  19  -1  21  -1
M  END
>  <mol_id>  (37) 
2026-08-23-6tgu-s0-n100-r3-0037

>  <rmsd_to_ref>  (37) 
2.1071428571447086

$$$$
6tgu.A
     RDKit          3D

 32 34  0  0  0  0  0  0  0  0999 V2000
    4.2455   20.9598   37.1054 C   0  0  0  0  0  0  0  0  0  0  0  0
    3.8080   20.1785   38.2506 C   0  0  0  0  0  0  0  0  0  0  0  0
    2.5594   19.5957   38.3397 C   0  0  0  0  0  0  0  0  0  0  0  0
    2.1853   18.8539   39.4653 C   0  0  0  0  0  0  0  0  0  0  0  0
    3.0834   18.7068   40.4984 C   0  0  0  0  0  0  0  0  0  0  0  0
    1.4659   17.2848   41.7714 C   0  0  0  0  0  0  0  0  0  0  0  0
   -0.0705   15.6435   41.9643 C   0  0  0  0  0  0  0  0  0  0  0  0
   -0.3608   14.1999   42.1285 C   0  0  0  0  0  0  0  0  0  0  0  0
    0.6357   13.2551   42.2222 C   0  0  0  0  0  0  0  0  0  0  0  0
    0.3825   11.9084   42.3801 C   0  0  0  0  0  0  0  0  0  0  0  0
   -0.9328   11.5010   42.4457 C   0  0  0  0  0  0  0  0  0  0  0  0
   -1.9786   12.4055   42.3568 C   0  0  0  0  0  0  0  0  0  0  0  0
   -1.6593   13.7419   42.1994 C   0  0  0  0  0  0  0  0  0  0  0  0
   -1.0598   16.5691   41.8859 C   0  0  0  0  0  0  0  0  0  0  0  0
    4.3280   19.2822   40.4195 C   0  0  0  0  0  0  0  0  0  0  0  0
    4.7051   20.0251   39.2945 C   0  0  0  0  0  0  0  0  0  0  0  0
    2.7609   17.9721   41.6715 N   0  0  0  0  0  0  0  0  0  0  0  0
    1.1497   16.1214   41.8952 N   0  0  0  0  0  0  0  0  0  0  0  0
    3.4726   21.2012   35.9935 O   0  0  0  0  0  0  0  0  0  0  0  0
    5.4096   21.4441   37.1412 O   0  0  0  0  0  0  0  0  0  0  0  0
    5.9787   20.5792   39.2827 O   0  0  0  0  0  0  0  0  0  0  0  0
   -0.1005   18.1688   41.7071 S   0  0  0  0  0  0  0  0  0  0  0  0
   -1.3277    9.7949   42.6481 Cl  0  0  0  0  0  0  0  0  0  0  0  0
    1.8836   19.7339   37.5095 H   0  0  0  0  0  0  0  0  0  0  0  0
    1.1869   18.4007   39.5128 H   0  0  0  0  0  0  0  0  0  0  0  0
    1.6634   13.6057   42.1678 H   0  0  0  0  0  0  0  0  0  0  0  0
    1.1737   11.1735   42.4539 H   0  0  0  0  0  0  0  0  0  0  0  0
   -3.0177   12.1205   42.4040 H   0  0  0  0  0  0  0  0  0  0  0  0
   -2.4660   14.4600   42.1284 H   0  0  0  0  0  0  0  0  0  0  0  0
   -2.1447   16.5657   41.9035 H   0  0  0  0  0  0  0  0  0  0  0  0
    5.0222   19.1569   41.2390 H   0  0  0  0  0  0  0  0  0  0  0  0
    3.4232   17.9032   42.4755 H   0  0  0  0  0  0  0  0  0  0  0  0
  1  2  1  0
  1 19  1  0
  1 20  2  0
  2  3  1  0
  2 16  2  0
  3  4  2  0
  4  5  1  0
  5 15  2  0
  5 17  1  0
  6 17  1  0
  6 18  2  0
  6 22  1  0
  7  8  1  0
  7 14  2  0
  7 18  1  0
  8  9  1  0
  8 13  2  0
  9 10  2  0
 10 11  1  0
 11 12  2  0
 11 23  1  0
 12 13  1  0
 14 22  1  0
 15 16  1  0
 16 21  1  0
  3 24  1  0
  4 25  1  0
  9 26  1  0
 10 27  1  0
 12 28  1  0
 13 29  1  0
 14 30  1  0
 15 31  1  0
 17 32  1  0
M  CHG  2  19  -1  21  -1
M  END
>  <mol_id>  (38) 
2026-08-23-6tgu-s0-n100-r3-0038

>  <rmsd_to_ref>  (38) 
2.153061224494636

$$$$
6tgu.A
     RDKit          3D

 32 34  0  0  0  0  0  0  0  0999 V2000
    3.5995   18.3314   36.5449 C   0  0  0  0  0  0  0  0  0  0  0  0
    2.6246   18.6603   37.6790 C   0  0  0  0  0  0  0  0  0  0  0  0
    1.5803   19.5595   37.4755 C   0  0  0  0  0  0  0  0  0  0  0  0
    0.5635   19.7416   38.4186 C   0  0  0  0  0  0  0  0  0  0  0  0
    0.6622   19.1457   39.6843 C   0  0  0  0  0  0  0  0  0  0  0  0
   -0.7621   18.4675   41.6780 C   0  0  0  0  0  0  0  0  0  0  0  0
   -0.6076   16.7643   43.1783 C   0  0  0  0  0  0  0  0  0  0  0  0
    0.0463   15.6378   43.8450 C   0  0  0  0  0  0  0  0  0  0  0  0
   -0.6138   14.8571   44.8046 C   0  0  0  0  0  0  0  0  0  0  0  0
    0.0157   13.7694   45.4017 C   0  0  0  0  0  0  0  0  0  0  0  0
    1.2966   13.4412   44.9991 C   0  0  0  0  0  0  0  0  0  0  0  0
    1.9839   14.1824   44.0497 C   0  0  0  0  0  0  0  0  0  0  0  0
    1.3411   15.2738   43.4721 C   0  0  0  0  0  0  0  0  0  0  0  0
   -1.8917   17.1659   43.4356 C   0  0  0  0  0  0  0  0  0  0  0  0
    1.7011   18.2294   39.9017 C   0  0  0  0  0  0  0  0  0  0  0  0
    2.6565   18.0112   38.9075 C   0  0  0  0  0  0  0  0  0  0  0  0
   -0.3971   19.2692   40.6350 N   0  0  0  0  0  0  0  0  0  0  0  0
    0.0378   17.4311   42.1101 N   0  0  0  0  0  0  0  0  0  0  0  0
    3.3053   18.7816   35.3987 O   0  0  0  0  0  0  0  0  0  0  0  0
    4.5603   17.5810   36.8231 O   0  0  0  0  0  0  0  0  0  0  0  0
    3.6082   17.0361   39.0903 O   0  0  0  0  0  0  0  0  0  0  0  0
   -2.3865   18.3937   42.3331 S   0  0  0  0  0  0  0  0  0  0  0  0
    2.0779   12.0650   45.7042 Cl  0  0  0  0  0  0  0  0  0  0  0  0
    1.5546   20.1445   36.5443 H   0  0  0  0  0  0  0  0  0  0  0  0
   -0.3153   20.3534   38.1670 H   0  0  0  0  0  0  0  0  0  0  0  0
   -1.6459   15.1086   45.0899 H   0  0  0  0  0  0  0  0  0  0  0  0
   -0.4958   13.1823   46.1787 H   0  0  0  0  0  0  0  0  0  0  0  0
    3.0108   13.9146   43.7603 H   0  0  0  0  0  0  0  0  0  0  0  0
    1.8654   15.8625   42.7048 H   0  0  0  0  0  0  0  0  0  0  0  0
   -2.5229   16.7586   44.2392 H   0  0  0  0  0  0  0  0  0  0  0  0
    1.7631   17.6831   40.8545 H   0  0  0  0  0  0  0  0  0  0  0  0
   -0.9857   20.1055   40.5125 H   0  0  0  0  0  0  0  0  0  0  0  0
  1  2  1  0
  1 19  1  0
  1 20  2  0
  2  3  1  0
  2 16  2  0
  3  4  2  0
  4  5  1  0
  5 15  2  0
  5 17  1  0
  6 17  1  0
  6 18  2  0
  6 22  1  0
  7  8  1  0
  7 14  2  0
  7 18  1  0
  8  9  1  0
  8 13  2  0
  9 10  2  0
 10 11  1  0
 11 12  2  0
 11 23  1  0
 12 13  1  0
 14 22  1  0
 15 16  1  0
 16 21  1  0
  3 24  1  0
  4 25  1  0
  9 26  1  0
 10 27  1  0
 12 28  1  0
 13 29  1  0
 14 30  1  0
 15 31  1  0
 17 32  1  0
M  CHG  2  19  -1  21  -1
M  END
>  <mol_id>  (39) 
2026-08-23-6tgu-s0-n100-r3-0039

>  <rmsd_to_ref>  (39) 
2.198979591845451

$$$$
6tgu.A
     RDKit          3D

 32 34  0  0  0  0  0  0  0  0999 V2000
    2.3224   22.2817   37.2621 C   0  0  0  0  0  0  0  0  0  0  0  0
    2.3619   21.0456   38.0272 C   0  0  0  0  0  0  0  0  0  0  0  0
    1.5933   20.9036   39.1626 C   0  0  0  0  0  0  0  0  0  0  0  0
    1.6303   19.7220   39.8939 C   0  0  0  0  0  0  0  0  0  0  0  0
    2.4097   18.6476   39.5470 C   0  0  0  0  0  0  0  0  0  0  0  0
    1.5667   16.8207   41.0670 C   0  0  0  0  0  0  0  0  0  0  0  0
    0.4840   15.4462   42.4751 C   0  0  0  0  0  0  0  0  0  0  0  0
    0.4926   14.1957   43.2546 C   0  0  0  0  0  0  0  0  0  0  0  0
   -0.5922   13.8391   44.0217 C   0  0  0  0  0  0  0  0  0  0  0  0
   -0.5915   12.6672   44.7515 C   0  0  0  0  0  0  0  0  0  0  0  0
    0.5011   11.8042   44.7403 C   0  0  0  0  0  0  0  0  0  0  0  0
    1.5896   12.1553   43.9747 C   0  0  0  0  0  0  0  0  0  0  0  0
    1.5660   13.3298   43.2548 C   0  0  0  0  0  0  0  0  0  0  0  0
   -0.6125   16.3086   42.4785 C   0  0  0  0  0  0  0  0  0  0  0  0
    3.1821   18.8208   38.3865 C   0  0  0  0  0  0  0  0  0  0  0  0
    3.1488   19.9894   37.6593 C   0  0  0  0  0  0  0  0  0  0  0  0
    2.4998   17.4245   40.1971 N   0  0  0  0  0  0  0  0  0  0  0  0
    1.4732   15.8515   41.7253 N   0  0  0  0  0  0  0  0  0  0  0  0
    3.0962   22.4236   36.1194 O   0  0  0  0  0  0  0  0  0  0  0  0
    1.5948   23.2683   37.5950 O   0  0  0  0  0  0  0  0  0  0  0  0
    3.9575   20.0729   36.5088 O   0  0  0  0  0  0  0  0  0  0  0  0
   -0.1085   17.6146   41.4025 S   0  0  0  0  0  0  0  0  0  0  0  0
    0.4750   10.3265   45.6730 Cl  0  0  0  0  0  0  0  0  0  0  0  0
    0.9619   21.7425   39.4629 H   0  0  0  0  0  0  0  0  0  0  0  0
    1.0129   19.6925   40.7709 H   0  0  0  0  0  0  0  0  0  0  0  0
   -1.4805   14.4471   44.0892 H   0  0  0  0  0  0  0  0  0  0  0  0
   -1.4328   12.3878   45.3482 H   0  0  0  0  0  0  0  0  0  0  0  0
    2.4651   11.5002   43.9430 H   0  0  0  0  0  0  0  0  0  0  0  0
    2.4334   13.5768   42.6654 H   0  0  0  0  0  0  0  0  0  0  0  0
   -1.5174   16.1796   43.0119 H   0  0  0  0  0  0  0  0  0  0  0  0
    3.8241   18.0218   38.0447 H   0  0  0  0  0  0  0  0  0  0  0  0
    3.3812   16.8483   40.0369 H   0  0  0  0  0  0  0  0  0  0  0  0
  1  2  1  0
  1 19  1  0
  1 20  2  0
  2  3  1  0
  2 16  2  0
  3  4  2  0
  4  5  1  0
  5 15  2  0
  5 17  1  0
  6 17  1  0
  6 18  2  0
  6 22  1  0
  7  8  1  0
  7 14  2  0
  7 18  1  0
  8  9  1  0
  8 13  2  0
  9 10  2  0
 10 11  1  0
 11 12  2  0
 11 23  1  0
 12 13  1  0
 14 22  1  0
 15 16  1  0
 16 21  1  0
  3 24  1  0
  4 25  1  0
  9 26  1  0
 10 27  1  0
 12 28  1  0
 13 29  1  0
 14 30  1  0
 15 31  1  0
 17 32  1  0
M  CHG  2  19  -1  21  -1
M  END
>  <mol_id>  (40) 
2026-08-23-6tgu-s0-n100-r3-0040

>  <rmsd_to_ref>  (40) 
2.244897959183831

$$$$
6tgu.A
     RDKit          3D

 32 34  0  0  0  0  0  0  0  0999 V2000
    5.6274   17.8234   36.8214 C   0  0  0  0  0  0  0  0  0  0  0  0
    4.5728   18.2592   37.8425 C   0  0  0  0  0  0  0  0  0  0  0  0
    3.7704   19.3718   37.5996 C   0  0  0  0  0  0  0  0  0  0  0  0
    2.6759   19.6885   38.4109 C   0  0  0  0  0  0  0  0  0  0  0  0
    2.4582   18.9865   39.6052 C   0  0  0  0  0  0  0  0  0  0  0  0
    0.6371   18.4676   41.3016 C   0  0  0  0  0  0  0  0  0  0  0  0
    0.2189   16.6563   42.6131 C   0  0  0  0  0  0  0  0  0  0  0  0
    0.5268   15.3677   43.2344 C   0  0  0  0  0  0  0  0  0  0  0  0
   -0.4145   14.6700   44.0045 C   0  0  0  0  0  0  0  0  0  0  0  0
   -0.1118   13.4300   44.5583 C   0  0  0  0  0  0  0  0  0  0  0  0
    1.1260   12.8722   44.2989 C   0  0  0  0  0  0  0  0  0  0  0  0
    2.0843   13.5248   43.5382 C   0  0  0  0  0  0  0  0  0  0  0  0
    1.7664   14.7697   43.0022 C   0  0  0  0  0  0  0  0  0  0  0  0
   -0.9850   17.2978   42.7369 C   0  0  0  0  0  0  0  0  0  0  0  0
    3.2497   17.8573   39.8592 C   0  0  0  0  0  0  0  0  0  0  0  0
    4.2857   17.5223   38.9854 C   0  0  0  0  0  0  0  0  0  0  0  0
    1.3098   19.2546   40.4117 N   0  0  0  0  0  0  0  0  0  0  0  0
    1.1404   17.2547   41.7215 N   0  0  0  0  0  0  0  0  0  0  0  0
    5.6087   18.4153   35.7023 O   0  0  0  0  0  0  0  0  0  0  0  0
    6.3668   16.8675   37.1429 O   0  0  0  0  0  0  0  0  0  0  0  0
    4.9866   16.3571   39.1870 O   0  0  0  0  0  0  0  0  0  0  0  0
   -1.0515   18.6861   41.7190 S   0  0  0  0  0  0  0  0  0  0  0  0
    1.5021   11.3105   44.9479 Cl  0  0  0  0  0  0  0  0  0  0  0  0
    4.0049   20.0212   36.7433 H   0  0  0  0  0  0  0  0  0  0  0  0
    1.9845   20.4900   38.1114 H   0  0  0  0  0  0  0  0  0  0  0  0
   -1.4084   15.1100   44.1735 H   0  0  0  0  0  0  0  0  0  0  0  0
   -0.8429   12.9041   45.1899 H   0  0  0  0  0  0  0  0  0  0  0  0
    3.0705   13.0704   43.3627 H   0  0  0  0  0  0  0  0  0  0  0  0
    2.5087   15.2937   42.3821 H   0  0  0  0  0  0  0  0  0  0  0  0
   -1.8007   16.9702   43.3982 H   0  0  0  0  0  0  0  0  0  0  0  0
    3.0547   17.2362   40.7459 H   0  0  0  0  0  0  0  0  0  0  0  0
    0.9236   20.2033   40.3034 H   0  0  0  0  0  0  0  0  0  0  0  0
  1  2  1  0
  1 19  1  0
  1 20  2  0
  2  3  1  0
  2 16  2  0
  3  4  2  0
  4  5  1  0
  5 15  2  0
  5 17  1  0
  6 17  1  0
  6 18  2  0
  6 22  1  0
  7  8  1  0
  7 14  2  0
  7 18  1  0
  8  9  1  0
  8 13  2  0
  9 10  2  0
 10 11  1  0
 11 12  2  0
 11 23  1  0
 12 13  1  0
 14 22  1  0
 15 16  1  0
 16 21  1  0
  3 24  1  0
  4 25  1  0
  9 26  1  0
 10 27  1  0
 12 28  1  0
 13 29  1  0
 14 30  1  0
 15 31  1  0
 17 32  1  0
M  CHG  2  19  -1  21  -1
M  END
>  <mol_id>  (41) 
2026-08-23-6tgu-s0-n100-r3-0041

>  <rmsd_to_ref>  (41) 
2.290816326538079

$$$$
6tgu.A
     RDKit          3D

 32 34  0  0  0  0  0  0  0  0999 V2000
    2.3278   22.4862   37.8387 C   0  0  0  0  0  0  0  0  0  0  0  0
    2.1568   21.1553   38.4038 C   0  0  0  0  0  0  0  0  0  0  0  0
    1.6077   20.9212   39.6461 C   0  0  0  0  0  0  0  0  0  0  0  0
    1.4699   19.6206   40.1312 C   0  0  0  0  0  0  0  0  0  0  0  0
    1.8614   18.5130   39.4252 C   0  0  0  0  0  0  0  0  0  0  0  0
    1.7202   16.6945   41.1715 C   0  0  0  0  0  0  0  0  0  0  0  0
    1.5798   15.3106   42.9366 C   0  0  0  0  0  0  0  0  0  0  0  0
    1.4485   13.9203   43.4224 C   0  0  0  0  0  0  0  0  0  0  0  0
    1.3525   12.8411   42.5740 C   0  0  0  0  0  0  0  0  0  0  0  0
    1.2339   11.5385   43.0308 C   0  0  0  0  0  0  0  0  0  0  0  0
    1.2110   11.3109   44.4007 C   0  0  0  0  0  0  0  0  0  0  0  0
    1.3051   12.3746   45.2713 C   0  0  0  0  0  0  0  0  0  0  0  0
    1.4222   13.6580   44.7738 C   0  0  0  0  0  0  0  0  0  0  0  0
    1.6775   16.3665   43.7815 C   0  0  0  0  0  0  0  0  0  0  0  0
    2.4194   18.7765   38.1590 C   0  0  0  0  0  0  0  0  0  0  0  0
    2.5572   20.0557   37.6758 C   0  0  0  0  0  0  0  0  0  0  0  0
    1.7932   17.1854   39.8089 N   0  0  0  0  0  0  0  0  0  0  0  0
    1.6157   15.6300   41.6652 N   0  0  0  0  0  0  0  0  0  0  0  0
    1.9350   23.6219   38.5507 O   0  0  0  0  0  0  0  0  0  0  0  0
    2.8375   22.5992   36.6951 O   0  0  0  0  0  0  0  0  0  0  0  0
    3.1162   20.2558   36.4154 O   0  0  0  0  0  0  0  0  0  0  0  0
    1.8212   17.8126   42.6225 S   0  0  0  0  0  0  0  0  0  0  0  0
    1.0634    9.6523   44.9561 Cl  0  0  0  0  0  0  0  0  0  0  0  0
    1.2884   21.7774   40.2292 H   0  0  0  0  0  0  0  0  0  0  0  0
    1.0238   19.5278   41.0969 H   0  0  0  0  0  0  0  0  0  0  0  0
    1.3727   13.0492   41.5140 H   0  0  0  0  0  0  0  0  0  0  0  0
    1.1600   10.7027   42.3351 H   0  0  0  0  0  0  0  0  0  0  0  0
    1.2890   12.2117   46.3357 H   0  0  0  0  0  0  0  0  0  0  0  0
    1.4965   14.4950   45.4802 H   0  0  0  0  0  0  0  0  0  0  0  0
    1.6859   16.5029   44.8771 H   0  0  0  0  0  0  0  0  0  0  0  0
    2.7600   17.9453   37.5260 H   0  0  0  0  0  0  0  0  0  0  0  0
    1.7906   16.4305   39.0901 H   0  0  0  0  0  0  0  0  0  0  0  0
  1  2  1  0
  1 19  1  0
  1 20  2  0
  2  3  1  0
  2 16  2  0
  3  4  2  0
  4  5  1  0
  5 15  2  0
  5 17  1  0
  6 17  1  0
  6 18  2  0
  6 22  1  0
  7  8  1  0
  7 14  2  0
  7 18  1  0
  8  9  1  0
  8 13  2  0
  9 10  2  0
 10 11  1  0
 11 12  2  0
 11 23  1  0
 12 13  1  0
 14 22  1  0
 15 16  1  0
 16 21  1  0
  3 24  1  0
  4 25  1  0
  9 26  1  0
 10 27  1  0
 12 28  1  0
 13 29  1  0
 14 30  1  0
 15 31  1  0
 17 32  1  0
M  CHG  2  19  -1  21  -1
M  END
>  <mol_id>  (42) 
2026-08-23-6tgu-s0-n100-r3-0042

>  <rmsd_to_ref>  (42) 
2.3367346938781663

$$$$
6tgu.A
     RDKit          3D

 32 34  0  0  0  0  0  0  0  0999 V2000
    0.5710   17.6460   35.3039 C   0  0  0  0  0  0  0  0  0  0  0  0
    0.9256   18.0041   36.7498 C   0  0  0  0  0  0  0  0  0  0  0  0
    0.5924   19.2521   37.2715 C   0  0  0  0  0  0  0  0  0  0  0  0
    0.7266   19.5475   38.6320 C   0  0  0  0  0  0  0  0  0  0  0  0
    1.3711   18.6432   39.4886 C   0  0  0  0  0  0  0  0  0  0  0  0
    1.5913   18.0507   41.9511 C   0  0  0  0  0  0  0  0  0  0  0  0
    1.9242   16.0824   43.0422 C   0  0  0  0  0  0  0  0  0  0  0  0
    2.2425   14.6577   43.1428 C   0  0  0  0  0  0  0  0  0  0  0  0
    2.1570   13.9609   44.3565 C   0  0  0  0  0  0  0  0  0  0  0  0
    2.4317   12.5985   44.4231 C   0  0  0  0  0  0  0  0  0  0  0  0
    2.7502   11.9284   43.2569 C   0  0  0  0  0  0  0  0  0  0  0  0
    2.8404   12.5771   42.0346 C   0  0  0  0  0  0  0  0  0  0  0  0
    2.5730   13.9426   41.9905 C   0  0  0  0  0  0  0  0  0  0  0  0
    1.5387   16.8577   44.1037 C   0  0  0  0  0  0  0  0  0  0  0  0
    1.7029   17.3784   38.9822 C   0  0  0  0  0  0  0  0  0  0  0  0
    1.4821   17.0882   37.6346 C   0  0  0  0  0  0  0  0  0  0  0  0
    1.4593   18.9009   40.8911 N   0  0  0  0  0  0  0  0  0  0  0  0
    1.8760   16.7131   41.7765 N   0  0  0  0  0  0  0  0  0  0  0  0
   -0.1717   18.4638   34.6852 O   0  0  0  0  0  0  0  0  0  0  0  0
    0.9742   16.5415   34.8782 O   0  0  0  0  0  0  0  0  0  0  0  0
    1.7133   15.8139   37.1734 O   0  0  0  0  0  0  0  0  0  0  0  0
    1.0628   18.4282   43.5795 S   0  0  0  0  0  0  0  0  0  0  0  0
    3.0548   10.2239   43.3176 Cl  0  0  0  0  0  0  0  0  0  0  0  0
    0.2119   20.0293   36.5924 H   0  0  0  0  0  0  0  0  0  0  0  0
    0.3259   20.4910   39.0310 H   0  0  0  0  0  0  0  0  0  0  0  0
    1.8680   14.4999   45.2707 H   0  0  0  0  0  0  0  0  0  0  0  0
    2.3962   12.0654   45.3846 H   0  0  0  0  0  0  0  0  0  0  0  0
    3.1163   12.0268   41.1230 H   0  0  0  0  0  0  0  0  0  0  0  0
    2.6232   14.4697   41.0263 H   0  0  0  0  0  0  0  0  0  0  0  0
    1.5336   16.5221   45.1512 H   0  0  0  0  0  0  0  0  0  0  0  0
    2.1366   16.6159   39.6459 H   0  0  0  0  0  0  0  0  0  0  0  0
    1.4158   19.8979   41.1459 H   0  0  0  0  0  0  0  0  0  0  0  0
  1  2  1  0
  1 19  1  0
  1 20  2  0
  2  3  1  0
  2 16  2  0
  3  4  2  0
  4  5  1  0
  5 15  2  0
  5 17  1  0
  6 17  1  0
  6 18  2  0
  6 22  1  0
  7  8  1  0
  7 14  2  0
  7 18  1  0
  8  9  1  0
  8 13  2  0
  9 10  2  0
 10 11  1  0
 11 12  2  0
 11 23  1  0
 12 13  1  0
 14 22  1  0
 15 16  1  0
 16 21  1  0
  3 24  1  0
  4 25  1  0
  9 26  1  0
 10 27  1  0
 12 28  1  0
 13 29  1  0
 14 30  1  0
 15 31  1  0
 17 32  1  0
M  CHG  2  19  -1  21  -1
M  END
>  <mol_id>  (43) 
2026-08-23-6tgu-s0-n100-r3-0043

>  <rmsd_to_ref>  (43) 
2.382653061226679

$$$$
6tgu.A
     RDKit          3D

 32 34  0  0  0  0  0  0  0  0999 V2000
    1.6265   22.5376   37.7687 C   0  0  0  0  0  0  0  0  0  0  0  0
    1.8137   21.2799   38.4761 C   0  0  0  0  0  0  0  0  0  0  0  0
    2.9621   21.1011   39.2319 C   0  0  0  0  0  0  0  0  0  0  0  0
    3.1617   19.9207   39.9108 C   0  0  0  0  0  0  0  0  0  0  0  0
    2.2485   18.8701   39.8778 C   0  0  0  0  0  0  0  0  0  0  0  0
    1.6751   16.7417   41.0914 C   0  0  0  0  0  0  0  0  0  0  0  0
    0.8291   14.8986   42.0851 C   0  0  0  0  0  0  0  0  0  0  0  0
    1.0211   13.6306   42.7774 C   0  0  0  0  0  0  0  0  0  0  0  0
   -0.0478   12.8737   43.1781 C   0  0  0  0  0  0  0  0  0  0  0  0
    0.1488   11.6744   43.8335 C   0  0  0  0  0  0  0  0  0  0  0  0
    1.4246   11.2088   44.1010 C   0  0  0  0  0  0  0  0  0  0  0  0
    2.4948   11.9518   43.7078 C   0  0  0  0  0  0  0  0  0  0  0  0
    2.2799   13.1456   43.0552 C   0  0  0  0  0  0  0  0  0  0  0  0
   -0.5036   15.4002   41.7994 C   0  0  0  0  0  0  0  0  0  0  0  0
    1.1225   19.0755   39.1216 C   0  0  0  0  0  0  0  0  0  0  0  0
    0.9067   20.2693   38.4272 C   0  0  0  0  0  0  0  0  0  0  0  0
    2.5642   17.7096   40.5966 N   0  0  0  0  0  0  0  0  0  0  0  0
    1.7456   15.6962   41.6604 N   0  0  0  0  0  0  0  0  0  0  0  0
    0.4730   22.7132   37.0125 O   0  0  0  0  0  0  0  0  0  0  0  0
    2.4642   23.4742   37.8117 O   0  0  0  0  0  0  0  0  0  0  0  0
   -0.2520   20.4194   37.6787 O   0  0  0  0  0  0  0  0  0  0  0  0
   -0.1796   16.9359   40.9678 S   0  0  0  0  0  0  0  0  0  0  0  0
    1.6850    9.6762   44.9389 Cl  0  0  0  0  0  0  0  0  0  0  0  0
    3.6962   21.9128   39.2743 H   0  0  0  0  0  0  0  0  0  0  0  0
    4.0821   19.8201   40.4962 H   0  0  0  0  0  0  0  0  0  0  0  0
   -1.0767   13.1727   43.0043 H   0  0  0  0  0  0  0  0  0  0  0  0
   -0.7049   11.0752   44.1506 H   0  0  0  0  0  0  0  0  0  0  0  0
    3.5018   11.6014   43.9095 H   0  0  0  0  0  0  0  0  0  0  0  0
    3.1362   13.7514   42.7346 H   0  0  0  0  0  0  0  0  0  0  0  0
   -1.4170   14.9364   42.0427 H   0  0  0  0  0  0  0  0  0  0  0  0
    0.3634   18.3235   39.0222 H   0  0  0  0  0  0  0  0  0  0  0  0
    3.5919   17.5221   40.7989 H   0  0  0  0  0  0  0  0  0  0  0  0
  1  2  1  0
  1 19  1  0
  1 20  2  0
  2  3  1  0
  2 16  2  0
  3  4  2  0
  4  5  1  0
  5 15  2  0
  5 17  1  0
  6 17  1  0
  6 18  2  0
  6 22  1  0
  7  8  1  0
  7 14  2  0
  7 18  1  0
  8  9  1  0
  8 13  2  0
  9 10  2  0
 10 11  1  0
 11 12  2  0
 11 23  1  0
 12 13  1  0
 14 22  1  0
 15 16  1  0
 16 21  1  0
  3 24  1  0
  4 25  1  0
  9 26  1  0
 10 27  1  0
 12 28  1  0
 13 29  1  0
 14 30  1  0
 15 31  1  0
 17 32  1  0
M  CHG  2  19  -1  21  -1
M  END
>  <mol_id>  (44) 
2026-08-23-6tgu-s0-n100-r3-0044

>  <rmsd_to_ref>  (44) 
2.4285714285730697

$$$$
6tgu.A
     RDKit          3D

 32 34  0  0  0  0  0  0  0  0999 V2000
    2.6556   22.4026   39.1263 C   0  0  0  0  0  0  0  0  0  0  0  0
    2.6326   21.3741   40.2604 C   0  0  0  0  0  0  0  0  0  0  0  0
    2.3760   21.7717   41.5707 C   0  0  0  0  0  0  0  0  0  0  0  0
    2.1594   20.8471   42.5977 C   0  0  0  0  0  0  0  0  0  0  0  0
    2.3693   19.4794   42.3696 C   0  0  0  0  0  0  0  0  0  0  0  0
    1.7680   17.1934   43.3056 C   0  0  0  0  0  0  0  0  0  0  0  0
    1.4392   15.1637   42.3320 C   0  0  0  0  0  0  0  0  0  0  0  0
    1.4728   14.1971   41.2340 C   0  0  0  0  0  0  0  0  0  0  0  0
    0.9259   12.9119   41.3580 C   0  0  0  0  0  0  0  0  0  0  0  0
    0.9387   12.0201   40.2902 C   0  0  0  0  0  0  0  0  0  0  0  0
    1.4636   12.4392   39.0822 C   0  0  0  0  0  0  0  0  0  0  0  0
    2.0093   13.7029   38.9140 C   0  0  0  0  0  0  0  0  0  0  0  0
    1.9975   14.5768   39.9976 C   0  0  0  0  0  0  0  0  0  0  0  0
    0.8987   14.9049   43.5638 C   0  0  0  0  0  0  0  0  0  0  0  0
    2.6174   19.0614   41.0544 C   0  0  0  0  0  0  0  0  0  0  0  0
    2.7495   20.0075   40.0363 C   0  0  0  0  0  0  0  0  0  0  0  0
    2.0909   18.5173   43.3884 N   0  0  0  0  0  0  0  0  0  0  0  0
    1.8638   16.4967   42.1198 N   0  0  0  0  0  0  0  0  0  0  0  0
    2.2700   23.5730   39.4171 O   0  0  0  0  0  0  0  0  0  0  0  0
    2.9744   21.9872   37.9907 O   0  0  0  0  0  0  0  0  0  0  0  0
    2.8881   19.5829   38.7361 O   0  0  0  0  0  0  0  0  0  0  0  0
    0.8630   16.3286   44.5330 S   0  0  0  0  0  0  0  0  0  0  0  0
    1.4492   11.3538   37.7320 Cl  0  0  0  0  0  0  0  0  0  0  0  0
    2.3427   22.8459   41.8048 H   0  0  0  0  0  0  0  0  0  0  0  0
    1.8238   21.1935   43.5863 H   0  0  0  0  0  0  0  0  0  0  0  0
    0.4796   12.6039   42.3151 H   0  0  0  0  0  0  0  0  0  0  0  0
    0.5390   11.0017   40.4050 H   0  0  0  0  0  0  0  0  0  0  0  0
    2.4406   14.0071   37.9488 H   0  0  0  0  0  0  0  0  0  0  0  0
    2.4108   15.5891   39.8767 H   0  0  0  0  0  0  0  0  0  0  0  0
    0.5359   13.9192   43.8905 H   0  0  0  0  0  0  0  0  0  0  0  0
    2.7078   17.9893   40.8250 H   0  0  0  0  0  0  0  0  0  0  0  0
    2.1427   18.8851   44.3491 H   0  0  0  0  0  0  0  0  0  0  0  0
  1  2  1  0
  1 19  1  0
  1 20  2  0
  2  3  1  0
  2 16  2  0
  3  4  2  0
  4  5  1  0
  5 15  2  0
  5 17  1  0
  6 17  1  0
  6 18  2  0
  6 22  1  0
  7  8  1  0
  7 14  2  0
  7 18  1  0
  8  9  1  0
  8 13  2  0
  9 10  2  0
 10 11  1  0
 11 12  2  0
 11 23  1  0
 12 13  1  0
 14 22  1  0
 15 16  1  0
 16 21  1  0
  3 24  1  0
  4 25  1  0
  9 26  1  0
 10 27  1  0
 12 28  1  0
 13 29  1  0
 14 30  1  0
 15 31  1  0
 17 32  1  0
M  CHG  2  19  -1  21  -1
M  END
>  <mol_id>  (45) 
2026-08-23-6tgu-s0-n100-r3-0045

>  <rmsd_to_ref>  (45) 
2.474489795918398

$$$$
6tgu.A
     RDKit          3D

 32 34  0  0  0  0  0  0  0  0999 V2000
    1.7956   22.8423   39.0312 C   0  0  0  0  0  0  0  0  0  0  0  0
    1.6749   21.4311   39.3372 C   0  0  0  0  0  0  0  0  0  0  0  0
    1.1714   20.9564   40.5296 C   0  0  0  0  0  0  0  0  0  0  0  0
    1.0812   19.5861   40.7638 C   0  0  0  0  0  0  0  0  0  0  0  0
    1.4749   18.6428   39.8529 C   0  0  0  0  0  0  0  0  0  0  0  0
    1.4947   16.5290   41.2273 C   0  0  0  0  0  0  0  0  0  0  0  0
    1.5148   14.9052   42.7854 C   0  0  0  0  0  0  0  0  0  0  0  0
    1.3944   13.4884   43.1136 C   0  0  0  0  0  0  0  0  0  0  0  0
    1.1567   12.5298   42.1550 C   0  0  0  0  0  0  0  0  0  0  0  0
    1.0341   11.1855   42.4275 C   0  0  0  0  0  0  0  0  0  0  0  0
    1.1565   10.7705   43.7362 C   0  0  0  0  0  0  0  0  0  0  0  0
    1.3955   11.6986   44.7266 C   0  0  0  0  0  0  0  0  0  0  0  0
    1.5136   13.0533   44.4148 C   0  0  0  0  0  0  0  0  0  0  0  0
    1.7566   15.8817   43.7624 C   0  0  0  0  0  0  0  0  0  0  0  0
    1.9841   19.1446   38.6453 C   0  0  0  0  0  0  0  0  0  0  0  0
    2.0772   20.4984   38.4043 C   0  0  0  0  0  0  0  0  0  0  0  0
    1.4415   17.2596   40.0028 N   0  0  0  0  0  0  0  0  0  0  0  0
    1.4161   15.4315   41.5867 N   0  0  0  0  0  0  0  0  0  0  0  0
    1.3848   23.7587   39.9868 O   0  0  0  0  0  0  0  0  0  0  0  0
    2.2660   23.1684   37.9167 O   0  0  0  0  0  0  0  0  0  0  0  0
    2.5915   20.9301   37.1864 O   0  0  0  0  0  0  0  0  0  0  0  0
    1.8175   17.4682   42.8463 S   0  0  0  0  0  0  0  0  0  0  0  0
    0.9959    9.0551   44.0587 Cl  0  0  0  0  0  0  0  0  0  0  0  0
    0.8581   21.6724   41.2550 H   0  0  0  0  0  0  0  0  0  0  0  0
    0.6650   19.3033   41.7116 H   0  0  0  0  0  0  0  0  0  0  0  0
    1.0564   12.8333   41.1099 H   0  0  0  0  0  0  0  0  0  0  0  0
    0.8457   10.4929   41.6118 H   0  0  0  0  0  0  0  0  0  0  0  0
    1.4928   11.3700   45.7611 H   0  0  0  0  0  0  0  0  0  0  0  0
    1.7033   13.7577   45.2388 H   0  0  0  0  0  0  0  0  0  0  0  0
    1.8957   15.7964   44.8769 H   0  0  0  0  0  0  0  0  0  0  0  0
    2.3148   18.4722   37.8765 H   0  0  0  0  0  0  0  0  0  0  0  0
    1.3684   16.6630   39.1433 H   0  0  0  0  0  0  0  0  0  0  0  0
  1  2  1  0
  1 19  1  0
  1 20  2  0
  2  3  1  0
  2 16  2  0
  3  4  2  0
  4  5  1  0
  5 15  2  0
  5 17  1  0
  6 17  1  0
  6 18  2  0
  6 22  1  0
  7  8  1  0
  7 14  2  0
  7 18  1  0
  8  9  1  0
  8 13  2  0
  9 10  2  0
 10 11  1  0
 11 12  2  0
 11 23  1  0
 12 13  1  0
 14 22  1  0
 15 16  1  0
 16 21  1  0
  3 24  1  0
  4 25  1  0
  9 26  1  0
 10 27  1  0
 12 28  1  0
 13 29  1  0
 14 30  1  0
 15 31  1  0
 17 32  1  0
M  CHG  2  19  -1  21  -1
M  END
>  <mol_id>  (46) 
2026-08-23-6tgu-s0-n100-r3-0046

>  <rmsd_to_ref>  (46) 
2.5204081632665627

$$$$
6tgu.A
     RDKit          3D

 32 34  0  0  0  0  0  0  0  0999 V2000
    1.5919   18.2646   35.7203 C   0  0  0  0  0  0  0  0  0  0  0  0
    1.1806   18.6818   37.1350 C   0  0  0  0  0  0  0  0  0  0  0  0
    0.1192   19.5623   37.3323 C   0  0  0  0  0  0  0  0  0  0  0  0
   -0.4063   19.8181   38.6030 C   0  0  0  0  0  0  0  0  0  0  0  0
    0.2405   19.3238   39.7450 C   0  0  0  0  0  0  0  0  0  0  0  0
   -0.1787   18.8048   42.1982 C   0  0  0  0  0  0  0  0  0  0  0  0
    0.6553   17.2252   43.6070 C   0  0  0  0  0  0  0  0  0  0  0  0
    1.5677   16.1546   44.0100 C   0  0  0  0  0  0  0  0  0  0  0  0
    1.4042   15.4519   45.2124 C   0  0  0  0  0  0  0  0  0  0  0  0
    2.2638   14.4146   45.5603 C   0  0  0  0  0  0  0  0  0  0  0  0
    3.2626   14.0557   44.6749 C   0  0  0  0  0  0  0  0  0  0  0  0
    3.4564   14.7197   43.4730 C   0  0  0  0  0  0  0  0  0  0  0  0
    2.5930   15.7623   43.1480 C   0  0  0  0  0  0  0  0  0  0  0  0
   -0.4107   17.6458   44.3575 C   0  0  0  0  0  0  0  0  0  0  0  0
    1.3034   18.4274   39.5639 C   0  0  0  0  0  0  0  0  0  0  0  0
    1.7529   18.1315   38.2757 C   0  0  0  0  0  0  0  0  0  0  0  0
   -0.3183   19.5218   41.0449 N   0  0  0  0  0  0  0  0  0  0  0  0
    0.7632   17.8056   42.3211 N   0  0  0  0  0  0  0  0  0  0  0  0
    0.8238   18.6231   34.7798 O   0  0  0  0  0  0  0  0  0  0  0  0
    2.6045   17.5383   35.6154 O   0  0  0  0  0  0  0  0  0  0  0  0
    2.7241   17.1738   38.1046 O   0  0  0  0  0  0  0  0  0  0  0  0
   -1.3677   18.7829   43.4864 S   0  0  0  0  0  0  0  0  0  0  0  0
    4.3150   12.7392   45.0762 Cl  0  0  0  0  0  0  0  0  0  0  0  0
   -0.3192   20.0721   36.4617 H   0  0  0  0  0  0  0  0  0  0  0  0
   -1.3287   20.4083   38.7069 H   0  0  0  0  0  0  0  0  0  0  0  0
    0.5832   15.7252   45.8915 H   0  0  0  0  0  0  0  0  0  0  0  0
    2.1507   13.8906   46.5209 H   0  0  0  0  0  0  0  0  0  0  0  0
    4.2716   14.4299   42.7937 H   0  0  0  0  0  0  0  0  0  0  0  0
    2.7217   16.2886   42.1908 H   0  0  0  0  0  0  0  0  0  0  0  0
   -0.6268   17.3031   45.3802 H   0  0  0  0  0  0  0  0  0  0  0  0
    1.7825   17.9579   40.4357 H   0  0  0  0  0  0  0  0  0  0  0  0
   -0.9308   20.3460   41.1256 H   0  0  0  0  0  0  0  0  0  0  0  0
  1  2  1  0
  1 19  1  0
  1 20  2  0
  2  3  1  0
  2 16  2  0
  3  4  2  0
  4  5  1  0
  5 15  2  0
  5 17  1  0
  6 17  1  0
  6 18  2  0
  6 22  1  0
  7  8  1  0
  7 14  2  0
  7 18  1  0
  8  9  1  0
  8 13  2  0
  9 10  2  0
 10 11  1  0
 11 12  2  0
 11 23  1  0
 12 13  1  0
 14 22  1  0
 15 16  1  0
 16 21  1  0
  3 24  1  0
  4 25  1  0
  9 26  1  0
 10 27  1  0
 12 28  1  0
 13 29  1  0
 14 30  1  0
 15 31  1  0
 17 32  1  0
M  CHG  2  19  -1  21  -1
M  END
>  <mol_id>  (47) 
2026-08-23-6tgu-s0-n100-r3-0047

>  <rmsd_to_ref>  (47) 
2.566326530612809

$$$$
6tgu.A
     RDKit          3D

 32 34  0  0  0  0  0  0  0  0999 V2000
    4.4880   19.3804   36.3742 C   0  0  0  0  0  0  0  0  0  0  0  0
    3.5096   19.4074   37.4689 C   0  0  0  0  0  0  0  0  0  0  0  0
    3.6061   18.4860   38.5043 C   0  0  0  0  0  0  0  0  0  0  0  0
    2.6805   18.5064   39.5536 C   0  0  0  0  0  0  0  0  0  0  0  0
    1.6799   19.4610   39.5268 C   0  0  0  0  0  0  0  0  0  0  0  0
    0.7953   18.5346   41.6083 C   0  0  0  0  0  0  0  0  0  0  0  0
    0.5457   16.7262   42.9219 C   0  0  0  0  0  0  0  0  0  0  0  0
   -0.1208   15.4197   43.1364 C   0  0  0  0  0  0  0  0  0  0  0  0
   -1.0312   14.9068   42.2376 C   0  0  0  0  0  0  0  0  0  0  0  0
   -1.6590   13.6894   42.4270 C   0  0  0  0  0  0  0  0  0  0  0  0
   -1.3814   12.9387   43.5506 C   0  0  0  0  0  0  0  0  0  0  0  0
   -0.4702   13.4458   44.4557 C   0  0  0  0  0  0  0  0  0  0  0  0
    0.1450   14.6566   44.2535 C   0  0  0  0  0  0  0  0  0  0  0  0
    1.4393   17.2284   43.8274 C   0  0  0  0  0  0  0  0  0  0  0  0
    1.5819   20.3879   38.4863 C   0  0  0  0  0  0  0  0  0  0  0  0
    2.5038   20.3680   37.4400 C   0  0  0  0  0  0  0  0  0  0  0  0
    0.7297   19.5023   40.5837 N   0  0  0  0  0  0  0  0  0  0  0  0
    0.3331   17.4888   41.8780 N   0  0  0  0  0  0  0  0  0  0  0  0
    5.4982   18.4273   36.3877 O   0  0  0  0  0  0  0  0  0  0  0  0
    4.3649   20.2368   35.4571 O   0  0  0  0  0  0  0  0  0  0  0  0
    2.4063   21.2869   36.4075 O   0  0  0  0  0  0  0  0  0  0  0  0
    1.9414   18.8323   43.0956 S   0  0  0  0  0  0  0  0  0  0  0  0
   -2.1547   11.3955   43.8227 Cl  0  0  0  0  0  0  0  0  0  0  0  0
    4.3965   17.7329   38.5231 H   0  0  0  0  0  0  0  0  0  0  0  0
    2.7643   17.7793   40.3625 H   0  0  0  0  0  0  0  0  0  0  0  0
   -1.2727   15.4756   41.3385 H   0  0  0  0  0  0  0  0  0  0  0  0
   -2.3757   13.3325   41.6786 H   0  0  0  0  0  0  0  0  0  0  0  0
   -0.2577   12.8564   45.3279 H   0  0  0  0  0  0  0  0  0  0  0  0
    0.8558   15.0367   44.9743 H   0  0  0  0  0  0  0  0  0  0  0  0
    1.8148   16.8615   44.7504 H   0  0  0  0  0  0  0  0  0  0  0  0
    0.7966   21.1189   38.4880 H   0  0  0  0  0  0  0  0  0  0  0  0
    0.0006   20.2256   40.6060 H   0  0  0  0  0  0  0  0  0  0  0  0
  1  2  1  0
  1 19  1  0
  1 20  2  0
  2  3  1  0
  2 16  2  0
  3  4  2  0
  4  5  1  0
  5 15  2  0
  5 17  1  0
  6 17  1  0
  6 18  2  0
  6 22  1  0
  7  8  1  0
  7 14  2  0
  7 18  1  0
  8  9  1  0
  8 13  2  0
  9 10  2  0
 10 11  1  0
 11 12  2  0
 11 23  1  0
 12 13  1  0
 14 22  1  0
 15 16  1  0
 16 21  1  0
  3 24  1  0
  4 25  1  0
  9 26  1  0
 10 27  1  0
 12 28  1  0
 13 29  1  0
 14 30  1  0
 15 31  1  0
 17 32  1  0
M  CHG  2  19  -1  21  -1
M  END
>  <mol_id>  (48) 
2026-08-23-6tgu-s0-n100-r3-0048

>  <rmsd_to_ref>  (48) 
2.6122448979608905

$$$$
6tgu.A
     RDKit          3D

 32 34  0  0  0  0  0  0  0  0999 V2000
    2.0156   21.3553   39.2602 C   0  0  0  0  0  0  0  0  0  0  0  0
    1.6484   20.2620   40.2674 C   0  0  0  0  0  0  0  0  0  0  0  0
    0.6867   20.4973   41.2475 C   0  0  0  0  0  0  0  0  0  0  0  0
    0.1891   19.4731   42.0598 C   0  0  0  0  0  0  0  0  0  0  0  0
    0.7772   18.2003   42.0277 C   0  0  0  0  0  0  0  0  0  0  0  0
    0.3003   15.7753   42.6235 C   0  0  0  0  0  0  0  0  0  0  0  0
    0.9582   13.8010   41.7041 C   0  0  0  0  0  0  0  0  0  0  0  0
    1.7503   12.9483   40.8172 C   0  0  0  0  0  0  0  0  0  0  0  0
    1.5105   11.5718   40.7001 C   0  0  0  0  0  0  0  0  0  0  0  0
    2.2537   10.7854   39.8254 C   0  0  0  0  0  0  0  0  0  0  0  0
    3.2102   11.3947   39.0353 C   0  0  0  0  0  0  0  0  0  0  0  0
    3.4760   12.7534   39.1148 C   0  0  0  0  0  0  0  0  0  0  0  0
    2.7295   13.5213   40.0042 C   0  0  0  0  0  0  0  0  0  0  0  0
   -0.0582   13.3430   42.5001 C   0  0  0  0  0  0  0  0  0  0  0  0
    1.7387   17.9437   41.0399 C   0  0  0  0  0  0  0  0  0  0  0  0
    2.1565   18.9707   40.1914 C   0  0  0  0  0  0  0  0  0  0  0  0
    0.2403   17.1272   42.8032 N   0  0  0  0  0  0  0  0  0  0  0  0
    1.1299   15.2053   41.6813 N   0  0  0  0  0  0  0  0  0  0  0  0
    1.2919   22.3943   39.2653 O   0  0  0  0  0  0  0  0  0  0  0  0
    2.9450   21.1024   38.4627 O   0  0  0  0  0  0  0  0  0  0  0  0
    3.0202   18.6837   39.1612 O   0  0  0  0  0  0  0  0  0  0  0  0
   -0.8866   14.6507   43.2559 S   0  0  0  0  0  0  0  0  0  0  0  0
    4.1152   10.4351   37.9121 Cl  0  0  0  0  0  0  0  0  0  0  0  0
    0.3070   21.5202   41.3869 H   0  0  0  0  0  0  0  0  0  0  0  0
   -0.6653   19.6663   42.7252 H   0  0  0  0  0  0  0  0  0  0  0  0
    0.7220   11.1061   41.3096 H   0  0  0  0  0  0  0  0  0  0  0  0
    2.0834    9.7003   39.7639 H   0  0  0  0  0  0  0  0  0  0  0  0
    4.2569   13.2127   38.4909 H   0  0  0  0  0  0  0  0  0  0  0  0
    2.9155   14.6036   40.0677 H   0  0  0  0  0  0  0  0  0  0  0  0
   -0.3117   12.2815   42.6382 H   0  0  0  0  0  0  0  0  0  0  0  0
    2.1632   16.9345   40.9336 H   0  0  0  0  0  0  0  0  0  0  0  0
   -0.2809   17.4242   43.6405 H   0  0  0  0  0  0  0  0  0  0  0  0
  1  2  1  0
  1 19  1  0
  1 20  2  0
  2  3  1  0
  2 16  2  0
  3  4  2  0
  4  5  1  0
  5 15  2  0
  5 17  1  0
  6 17  1  0
  6 18  2  0
  6 22  1  0
  7  8  1  0
  7 14  2  0
  7 18  1  0
  8  9  1  0
  8 13  2  0
  9 10  2  0
 10 11  1  0
 11 12  2  0
 11 23  1  0
 12 13  1  0
 14 22  1  0
 15 16  1  0
 16 21  1  0
  3 24  1  0
  4 25  1  0
  9 26  1  0
 10 27  1  0
 12 28  1  0
 13 29  1  0
 14 30  1  0
 15 31  1  0
 17 32  1  0
M  CHG  2  19  -1  21  -1
M  END
>  <mol_id>  (49) 
2026-08-23-6tgu-s0-n100-r3-0049

>  <rmsd_to_ref>  (49) 
2.6581632653134206

$$$$
6tgu.A
     RDKit          3D

 32 34  0  0  0  0  0  0  0  0999 V2000
    3.4802   20.7727   36.4661 C   0  0  0  0  0  0  0  0  0  0  0  0
    2.8299   19.9712   37.4790 C   0  0  0  0  0  0  0  0  0  0  0  0
    1.5405   20.2464   37.8346 C   0  0  0  0  0  0  0  0  0  0  0  0
    0.9246   19.4818   38.7975 C   0  0  0  0  0  0  0  0  0  0  0  0
    1.5727   18.4271   39.4299 C   0  0  0  0  0  0  0  0  0  0  0  0
    1.1324   16.4177   40.8633 C   0  0  0  0  0  0  0  0  0  0  0  0
    0.8985   14.5150   42.0947 C   0  0  0  0  0  0  0  0  0  0  0  0
    0.2304   13.7028   43.1432 C   0  0  0  0  0  0  0  0  0  0  0  0
   -0.8311   14.2547   43.8274 C   0  0  0  0  0  0  0  0  0  0  0  0
   -1.4647   13.5065   44.8085 C   0  0  0  0  0  0  0  0  0  0  0  0
   -1.0396   12.2303   45.0952 C   0  0  0  0  0  0  0  0  0  0  0  0
    0.0189   11.7235   44.3902 C   0  0  0  0  0  0  0  0  0  0  0  0
    0.6770   12.4337   43.4067 C   0  0  0  0  0  0  0  0  0  0  0  0
    2.0122   13.9718   41.3552 C   0  0  0  0  0  0  0  0  0  0  0  0
    2.8658   18.1867   39.0427 C   0  0  0  0  0  0  0  0  0  0  0  0
    3.4984   18.9446   38.0777 C   0  0  0  0  0  0  0  0  0  0  0  0
    0.8514   17.7228   40.4045 N   0  0  0  0  0  0  0  0  0  0  0  0
    0.5565   15.7034   41.7767 N   0  0  0  0  0  0  0  0  0  0  0  0
    4.7940   20.5339   36.0673 O   0  0  0  0  0  0  0  0  0  0  0  0
    2.8909   21.7428   35.8801 O   0  0  0  0  0  0  0  0  0  0  0  0
    4.8223   18.6447   37.7278 O   0  0  0  0  0  0  0  0  0  0  0  0
    2.4178   15.3124   40.2651 S   0  0  0  0  0  0  0  0  0  0  0  0
   -1.8603   11.3102   46.3390 Cl  0  0  0  0  0  0  0  0  0  0  0  0
    0.9910   21.0671   37.3632 H   0  0  0  0  0  0  0  0  0  0  0  0
   -0.0905   19.7205   39.0581 H   0  0  0  0  0  0  0  0  0  0  0  0
   -1.1563   15.2612   43.5919 H   0  0  0  0  0  0  0  0  0  0  0  0
   -2.3018   13.9758   45.3299 H   0  0  0  0  0  0  0  0  0  0  0  0
    0.3604   10.7209   44.6088 H   0  0  0  0  0  0  0  0  0  0  0  0
    1.4898   11.9725   42.9037 H   0  0  0  0  0  0  0  0  0  0  0  0
    2.4480   13.0302   41.4550 H   0  0  0  0  0  0  0  0  0  0  0  0
    3.4395   17.3979   39.4882 H   0  0  0  0  0  0  0  0  0  0  0  0
    0.0177   18.1918   40.8531 H   0  0  0  0  0  0  0  0  0  0  0  0
  1  2  1  0
  1 19  1  0
  1 20  2  0
  2  3  1  0
  2 16  2  0
  3  4  2  0
  4  5  1  0
  5 15  2  0
  5 17  1  0
  6 17  1  0
  6 18  2  0
  6 22  1  0
  7  8  1  0
  7 14  2  0
  7 18  1  0
  8  9  1  0
  8 13  2  0
  9 10  2  0
 10 11  1  0
 11 12  2  0
 11 23  1  0
 12 13  1  0
 14 22  1  0
 15 16  1  0
 16 21  1  0
  3 24  1  0
  4 25  1  0
  9 26  1  0
 10 27  1  0
 12 28  1  0
 13 29  1  0
 14 30  1  0
 15 31  1  0
 17 32  1  0
M  CHG  2  19  -1  21  -1
M  END
>  <mol_id>  (50) 
2026-08-23-6tgu-s0-n100-r3-0050

>  <rmsd_to_ref>  (50) 
2.7040816326555133

$$$$
6tgu.A
     RDKit          3D

 32 34  0  0  0  0  0  0  0  0999 V2000
    2.3139   21.9261   38.8227 C   0  0  0  0  0  0  0  0  0  0  0  0
    1.8111   20.8207   39.7553 C   0  0  0  0  0  0  0  0  0  0  0  0
    0.5871   20.9484   40.4081 C   0  0  0  0  0  0  0  0  0  0  0  0
    0.0079   19.8882   41.1129 C   0  0  0  0  0  0  0  0  0  0  0  0
    0.7331   18.7078   41.3306 C   0  0  0  0  0  0  0  0  0  0  0  0
    0.4091   16.2574   41.9254 C   0  0  0  0  0  0  0  0  0  0  0  0
    1.5423   14.3677   41.3590 C   0  0  0  0  0  0  0  0  0  0  0  0
    2.6549   13.6079   40.7882 C   0  0  0  0  0  0  0  0  0  0  0  0
    2.6310   12.2088   40.6985 C   0  0  0  0  0  0  0  0  0  0  0  0
    3.6855   11.5082   40.1212 C   0  0  0  0  0  0  0  0  0  0  0  0
    4.7455   12.2213   39.5937 C   0  0  0  0  0  0  0  0  0  0  0  0
    4.8071   13.6053   39.6558 C   0  0  0  0  0  0  0  0  0  0  0  0
    3.7476   14.2875   40.2475 C   0  0  0  0  0  0  0  0  0  0  0  0
    0.4049   13.7964   41.8654 C   0  0  0  0  0  0  0  0  0  0  0  0
    1.9619   18.5586   40.6717 C   0  0  0  0  0  0  0  0  0  0  0  0
    2.4753   19.6097   39.9097 C   0  0  0  0  0  0  0  0  0  0  0  0
    0.1331   17.5927   41.9923 N   0  0  0  0  0  0  0  0  0  0  0  0
    1.5382   15.7812   41.2937 N   0  0  0  0  0  0  0  0  0  0  0  0
    1.4966   22.8557   38.5564 O   0  0  0  0  0  0  0  0  0  0  0  0
    3.4571   21.7815   38.3369 O   0  0  0  0  0  0  0  0  0  0  0  0
    3.6272   19.4160   39.1848 O   0  0  0  0  0  0  0  0  0  0  0  0
   -0.7609   14.9983   42.2709 S   0  0  0  0  0  0  0  0  0  0  0  0
    6.0465   11.3647   38.8353 Cl  0  0  0  0  0  0  0  0  0  0  0  0
    0.0598   21.9130   40.3680 H   0  0  0  0  0  0  0  0  0  0  0  0
   -1.0187   19.9804   41.4973 H   0  0  0  0  0  0  0  0  0  0  0  0
    1.7646   11.6562   41.0909 H   0  0  0  0  0  0  0  0  0  0  0  0
    3.6756   10.4089   40.0854 H   0  0  0  0  0  0  0  0  0  0  0  0
    5.6712   14.1502   39.2479 H   0  0  0  0  0  0  0  0  0  0  0  0
    3.7721   15.3864   40.2898 H   0  0  0  0  0  0  0  0  0  0  0  0
    0.2558   12.7144   41.9958 H   0  0  0  0  0  0  0  0  0  0  0  0
    2.5205   17.6147   40.7552 H   0  0  0  0  0  0  0  0  0  0  0  0
   -0.6391   17.8381   42.6282 H   0  0  0  0  0  0  0  0  0  0  0  0
  1  2  1  0
  1 19  1  0
  1 20  2  0
  2  3  1  0
  2 16  2  0
  3  4  2  0
  4  5  1  0
  5 15  2  0
  5 17  1  0
  6 17  1  0
  6 18  2  0
  6 22  1  0
  7  8  1  0
  7 14  2  0
  7 18  1  0
  8  9  1  0
  8 13  2  0
  9 10  2  0
 10 11  1  0
 11 12  2  0
 11 23  1  0
 12 13  1  0
 14 22  1  0
 15 16  1  0
 16 21  1  0
  3 24  1  0
  4 25  1  0
  9 26  1  0
 10 27  1  0
 12 28  1  0
 13 29  1  0
 14 30  1  0
 15 31  1  0
 17 32  1  0
M  CHG  2  19  -1  21  -1
M  END
>  <mol_id>  (51) 
2026-08-23-6tgu-s0-n100-r3-0051

>  <rmsd_to_ref>  (51) 
2.7500000000007114

$$$$
6tgu.A
     RDKit          3D

 32 34  0  0  0  0  0  0  0  0999 V2000
    1.9374   21.4327   35.8787 C   0  0  0  0  0  0  0  0  0  0  0  0
    1.6020   20.5512   36.9850 C   0  0  0  0  0  0  0  0  0  0  0  0
    0.5143   20.7617   37.8054 C   0  0  0  0  0  0  0  0  0  0  0  0
    0.2225   19.9127   38.8405 C   0  0  0  0  0  0  0  0  0  0  0  0
    1.0079   18.7865   39.1252 C   0  0  0  0  0  0  0  0  0  0  0  0
    1.4271   17.1153   40.9580 C   0  0  0  0  0  0  0  0  0  0  0  0
    2.2009   15.6162   42.4505 C   0  0  0  0  0  0  0  0  0  0  0  0
    1.8555   14.6558   43.5318 C   0  0  0  0  0  0  0  0  0  0  0  0
    0.5663   14.4464   43.9505 C   0  0  0  0  0  0  0  0  0  0  0  0
    0.2576   13.5511   44.9562 C   0  0  0  0  0  0  0  0  0  0  0  0
    1.2838   12.8512   45.5513 C   0  0  0  0  0  0  0  0  0  0  0  0
    2.6022   13.0276   45.1636 C   0  0  0  0  0  0  0  0  0  0  0  0
    2.8474   13.9323   44.1574 C   0  0  0  0  0  0  0  0  0  0  0  0
    3.4849   15.8035   42.0541 C   0  0  0  0  0  0  0  0  0  0  0  0
    2.0842   18.5939   38.2980 C   0  0  0  0  0  0  0  0  0  0  0  0
    2.3886   19.4553   37.2406 C   0  0  0  0  0  0  0  0  0  0  0  0
    0.6169   17.9717   40.1932 N   0  0  0  0  0  0  0  0  0  0  0  0
    1.3027   16.3267   41.8238 N   0  0  0  0  0  0  0  0  0  0  0  0
    1.1955   22.5552   35.5667 O   0  0  0  0  0  0  0  0  0  0  0  0
    2.9596   21.1287   35.1937 O   0  0  0  0  0  0  0  0  0  0  0  0
    3.5136   19.1824   36.4409 O   0  0  0  0  0  0  0  0  0  0  0  0
    3.2958   17.0813   40.7107 S   0  0  0  0  0  0  0  0  0  0  0  0
    0.9253   11.7093   46.8320 Cl  0  0  0  0  0  0  0  0  0  0  0  0
   -0.1033   21.6282   37.5980 H   0  0  0  0  0  0  0  0  0  0  0  0
   -0.6578   20.1244   39.4673 H   0  0  0  0  0  0  0  0  0  0  0  0
   -0.2425   15.0095   43.4697 H   0  0  0  0  0  0  0  0  0  0  0  0
   -0.7553   13.3840   45.2868 H   0  0  0  0  0  0  0  0  0  0  0  0
    3.4215   12.4854   45.6202 H   0  0  0  0  0  0  0  0  0  0  0  0
    3.8988   14.0579   43.8645 H   0  0  0  0  0  0  0  0  0  0  0  0
    4.4338   15.4180   42.3244 H   0  0  0  0  0  0  0  0  0  0  0  0
    2.7313   17.7625   38.4251 H   0  0  0  0  0  0  0  0  0  0  0  0
   -0.4111   17.9860   40.4742 H   0  0  0  0  0  0  0  0  0  0  0  0
  1  2  1  0
  1 19  1  0
  1 20  2  0
  2  3  1  0
  2 16  2  0
  3  4  2  0
  4  5  1  0
  5 15  2  0
  5 17  1  0
  6 17  1  0
  6 18  2  0
  6 22  1  0
  7  8  1  0
  7 14  2  0
  7 18  1  0
  8  9  1  0
  8 13  2  0
  9 10  2  0
 10 11  1  0
 11 12  2  0
 11 23  1  0
 12 13  1  0
 14 22  1  0
 15 16  1  0
 16 21  1  0
  3 24  1  0
  4 25  1  0
  9 26  1  0
 10 27  1  0
 12 28  1  0
 13 29  1  0
 14 30  1  0
 15 31  1  0
 17 32  1  0
M  CHG  2  19  -1  21  -1
M  END
>  <mol_id>  (52) 
2026-08-23-6tgu-s0-n100-r3-0052

>  <rmsd_to_ref>  (52) 
2.79591836735191

$$$$
6tgu.A
     RDKit          3D

 32 34  0  0  0  0  0  0  0  0999 V2000
    5.5358   19.1819   39.7456 C   0  0  0  0  0  0  0  0  0  0  0  0
    4.2338   18.9066   40.5031 C   0  0  0  0  0  0  0  0  0  0  0  0
    3.5297   19.9492   41.1013 C   0  0  0  0  0  0  0  0  0  0  0  0
    2.2492   19.7696   41.6348 C   0  0  0  0  0  0  0  0  0  0  0  0
    1.7042   18.4817   41.7393 C   0  0  0  0  0  0  0  0  0  0  0  0
   -0.5213   17.2809   42.0013 C   0  0  0  0  0  0  0  0  0  0  0  0
   -1.2883   15.2711   41.2608 C   0  0  0  0  0  0  0  0  0  0  0  0
   -1.1650   13.9436   40.6578 C   0  0  0  0  0  0  0  0  0  0  0  0
   -2.2838   13.1417   40.3906 C   0  0  0  0  0  0  0  0  0  0  0  0
   -2.1465   11.8963   39.7857 C   0  0  0  0  0  0  0  0  0  0  0  0
   -0.8843   11.4773   39.4093 C   0  0  0  0  0  0  0  0  0  0  0  0
    0.2483   12.2407   39.6491 C   0  0  0  0  0  0  0  0  0  0  0  0
    0.0915   13.4790   40.2658 C   0  0  0  0  0  0  0  0  0  0  0  0
   -2.4799   15.8367   41.6302 C   0  0  0  0  0  0  0  0  0  0  0  0
    2.3948   17.4230   41.1325 C   0  0  0  0  0  0  0  0  0  0  0  0
    3.6370   17.6520   40.5377 C   0  0  0  0  0  0  0  0  0  0  0  0
    0.3735   18.2880   42.2220 N   0  0  0  0  0  0  0  0  0  0  0  0
   -0.1538   16.1090   41.3747 N   0  0  0  0  0  0  0  0  0  0  0  0
    5.8331   20.3980   39.5564 O   0  0  0  0  0  0  0  0  0  0  0  0
    6.1567   18.1893   39.3063 O   0  0  0  0  0  0  0  0  0  0  0  0
    4.2556   16.6312   39.8558 O   0  0  0  0  0  0  0  0  0  0  0  0
   -2.2596   17.4728   42.1225 S   0  0  0  0  0  0  0  0  0  0  0  0
   -0.7026    9.9467   38.6181 Cl  0  0  0  0  0  0  0  0  0  0  0  0
    3.9951   20.9444   41.1559 H   0  0  0  0  0  0  0  0  0  0  0  0
    1.6685   20.6405   41.9731 H   0  0  0  0  0  0  0  0  0  0  0  0
   -3.2862   13.5031   40.6637 H   0  0  0  0  0  0  0  0  0  0  0  0
   -3.0250   11.2578   39.6105 H   0  0  0  0  0  0  0  0  0  0  0  0
    1.2452   11.8771   39.3595 H   0  0  0  0  0  0  0  0  0  0  0  0
    0.9773   14.1051   40.4481 H   0  0  0  0  0  0  0  0  0  0  0  0
   -3.4485   15.3156   41.6145 H   0  0  0  0  0  0  0  0  0  0  0  0
    1.9586   16.4132   41.1251 H   0  0  0  0  0  0  0  0  0  0  0  0
    0.0309   19.0356   42.8422 H   0  0  0  0  0  0  0  0  0  0  0  0
  1  2  1  0
  1 19  1  0
  1 20  2  0
  2  3  1  0
  2 16  2  0
  3  4  2  0
  4  5  1  0
  5 15  2  0
  5 17  1  0
  6 17  1  0
  6 18  2  0
  6 22  1  0
  7  8  1  0
  7 14  2  0
  7 18  1  0
  8  9  1  0
  8 13  2  0
  9 10  2  0
 10 11  1  0
 11 12  2  0
 11 23  1  0
 12 13  1  0
 14 22  1  0
 15 16  1  0
 16 21  1  0
  3 24  1  0
  4 25  1  0
  9 26  1  0
 10 27  1  0
 12 28  1  0
 13 29  1  0
 14 30  1  0
 15 31  1  0
 17 32  1  0
M  CHG  2  19  -1  21  -1
M  END
>  <mol_id>  (53) 
2026-08-23-6tgu-s0-n100-r3-0053

>  <rmsd_to_ref>  (53) 
2.841836734696011

$$$$
6tgu.A
     RDKit          3D

 32 34  0  0  0  0  0  0  0  0999 V2000
    3.0983   19.0734   35.3747 C   0  0  0  0  0  0  0  0  0  0  0  0
    2.4719   18.8749   36.6824 C   0  0  0  0  0  0  0  0  0  0  0  0
    3.1956   18.6594   37.8365 C   0  0  0  0  0  0  0  0  0  0  0  0
    2.5650   18.4675   39.0540 C   0  0  0  0  0  0  0  0  0  0  0  0
    1.1992   18.4867   39.1485 C   0  0  0  0  0  0  0  0  0  0  0  0
    1.0113   17.9867   41.5985 C   0  0  0  0  0  0  0  0  0  0  0  0
    1.8621   16.9336   43.4004 C   0  0  0  0  0  0  0  0  0  0  0  0
    2.3027   15.6563   44.0084 C   0  0  0  0  0  0  0  0  0  0  0  0
    2.7886   15.6036   45.2985 C   0  0  0  0  0  0  0  0  0  0  0  0
    3.2157   14.4452   45.9089 C   0  0  0  0  0  0  0  0  0  0  0  0
    3.1369   13.2781   45.1466 C   0  0  0  0  0  0  0  0  0  0  0  0
    2.6660   13.2612   43.8633 C   0  0  0  0  0  0  0  0  0  0  0  0
    2.2555   14.4626   43.3184 C   0  0  0  0  0  0  0  0  0  0  0  0
    1.9370   18.1152   44.0960 C   0  0  0  0  0  0  0  0  0  0  0  0
    0.4918   18.7083   37.9597 C   0  0  0  0  0  0  0  0  0  0  0  0
    1.1043   18.8979   36.7557 C   0  0  0  0  0  0  0  0  0  0  0  0
    0.4539   18.2882   40.3228 N   0  0  0  0  0  0  0  0  0  0  0  0
    1.3857   17.0452   42.1894 N   0  0  0  0  0  0  0  0  0  0  0  0
    4.4681   19.0817   35.1845 O   0  0  0  0  0  0  0  0  0  0  0  0
    2.3449   19.2453   34.3713 O   0  0  0  0  0  0  0  0  0  0  0  0
    0.3192   19.1142   35.6078 O   0  0  0  0  0  0  0  0  0  0  0  0
    1.2719   19.3487   42.8608 S   0  0  0  0  0  0  0  0  0  0  0  0
    3.6806   11.8099   45.9252 Cl  0  0  0  0  0  0  0  0  0  0  0  0
    4.2772   18.6401   37.7795 H   0  0  0  0  0  0  0  0  0  0  0  0
    3.1232   18.2984   39.9563 H   0  0  0  0  0  0  0  0  0  0  0  0
    2.8370   16.5128   45.8589 H   0  0  0  0  0  0  0  0  0  0  0  0
    3.5797   14.4803   46.9084 H   0  0  0  0  0  0  0  0  0  0  0  0
    2.6119   12.3396   43.2787 H   0  0  0  0  0  0  0  0  0  0  0  0
    1.8727   14.5088   42.3008 H   0  0  0  0  0  0  0  0  0  0  0  0
    2.2531   18.3992   45.0511 H   0  0  0  0  0  0  0  0  0  0  0  0
   -0.6064   18.7355   37.9702 H   0  0  0  0  0  0  0  0  0  0  0  0
   -0.5912   18.3588   40.2970 H   0  0  0  0  0  0  0  0  0  0  0  0
  1  2  1  0
  1 19  1  0
  1 20  2  0
  2  3  1  0
  2 16  2  0
  3  4  2  0
  4  5  1  0
  5 15  2  0
  5 17  1  0
  6 17  1  0
  6 18  2  0
  6 22  1  0
  7  8  1  0
  7 14  2  0
  7 18  1  0
  8  9  1  0
  8 13  2  0
  9 10  2  0
 10 11  1  0
 11 12  2  0
 11 23  1  0
 12 13  1  0
 14 22  1  0
 15 16  1  0
 16 21  1  0
  3 24  1  0
  4 25  1  0
  9 26  1  0
 10 27  1  0
 12 28  1  0
 13 29  1  0
 14 30  1  0
 15 31  1  0
 17 32  1  0
M  CHG  2  19  -1  21  -1
M  END
>  <mol_id>  (54) 
2026-08-23-6tgu-s0-n100-r3-0054

>  <rmsd_to_ref>  (54) 
2.8877551020452605

$$$$
6tgu.A
     RDKit          3D

 32 34  0  0  0  0  0  0  0  0999 V2000
    5.0028   20.4966   37.9864 C   0  0  0  0  0  0  0  0  0  0  0  0
    4.5269   19.6143   39.1439 C   0  0  0  0  0  0  0  0  0  0  0  0
    4.6064   20.0686   40.4585 C   0  0  0  0  0  0  0  0  0  0  0  0
    4.0124   19.3774   41.5195 C   0  0  0  0  0  0  0  0  0  0  0  0
    3.4636   18.1038   41.3109 C   0  0  0  0  0  0  0  0  0  0  0  0
    1.8276   16.4520   42.3395 C   0  0  0  0  0  0  0  0  0  0  0  0
    0.4241   14.9044   41.4391 C   0  0  0  0  0  0  0  0  0  0  0  0
   -0.1264   14.0774   40.3648 C   0  0  0  0  0  0  0  0  0  0  0  0
   -1.2519   13.2632   40.5559 C   0  0  0  0  0  0  0  0  0  0  0  0
   -1.7793   12.5104   39.5113 C   0  0  0  0  0  0  0  0  0  0  0  0
   -1.1983   12.6123   38.2613 C   0  0  0  0  0  0  0  0  0  0  0  0
   -0.0880   13.4094   38.0267 C   0  0  0  0  0  0  0  0  0  0  0  0
    0.4318   14.1461   39.0874 C   0  0  0  0  0  0  0  0  0  0  0  0
   -0.0850   14.9471   42.7101 C   0  0  0  0  0  0  0  0  0  0  0  0
    3.3659   17.6366   39.9924 C   0  0  0  0  0  0  0  0  0  0  0  0
    3.8999   18.3901   38.9454 C   0  0  0  0  0  0  0  0  0  0  0  0
    2.7970   17.4128   42.3688 N   0  0  0  0  0  0  0  0  0  0  0  0
    1.4643   15.8243   41.1670 N   0  0  0  0  0  0  0  0  0  0  0  0
    5.3037   21.6923   38.2742 O   0  0  0  0  0  0  0  0  0  0  0  0
    4.9791   19.9923   36.8424 O   0  0  0  0  0  0  0  0  0  0  0  0
    3.7066   17.9741   37.6495 O   0  0  0  0  0  0  0  0  0  0  0  0
    0.6927   16.1673   43.6451 S   0  0  0  0  0  0  0  0  0  0  0  0
   -1.8691   11.7124   36.9415 Cl  0  0  0  0  0  0  0  0  0  0  0  0
    5.1531   20.9997   40.6685 H   0  0  0  0  0  0  0  0  0  0  0  0
    3.9756   19.8338   42.5197 H   0  0  0  0  0  0  0  0  0  0  0  0
   -1.7256   13.2189   41.5477 H   0  0  0  0  0  0  0  0  0  0  0  0
   -2.6413   11.8475   39.6770 H   0  0  0  0  0  0  0  0  0  0  0  0
    0.3702   13.4583   37.0279 H   0  0  0  0  0  0  0  0  0  0  0  0
    1.3018   14.7968   38.9149 H   0  0  0  0  0  0  0  0  0  0  0  0
   -0.8839   14.2899   43.0839 H   0  0  0  0  0  0  0  0  0  0  0  0
    2.8693   16.6776   39.7834 H   0  0  0  0  0  0  0  0  0  0  0  0
    3.0992   17.6862   43.3148 H   0  0  0  0  0  0  0  0  0  0  0  0
  1  2  1  0
  1 19  1  0
  1 20  2  0
  2  3  1  0
  2 16  2  0
  3  4  2  0
  4  5  1  0
  5 15  2  0
  5 17  1  0
  6 17  1  0
  6 18  2  0
  6 22  1  0
  7  8  1  0
  7 14  2  0
  7 18  1  0
  8  9  1  0
  8 13  2  0
  9 10  2  0
 10 11  1  0
 11 12  2  0
 11 23  1  0
 12 13  1  0
 14 22  1  0
 15 16  1  0
 16 21  1  0
  3 24  1  0
  4 25  1  0
  9 26  1  0
 10 27  1  0
 12 28  1  0
 13 29  1  0
 14 30  1  0
 15 31  1  0
 17 32  1  0
M  CHG  2  19  -1  21  -1
M  END
>  <mol_id>  (55) 
2026-08-23-6tgu-s0-n100-r3-0055

>  <rmsd_to_ref>  (55) 
2.933673469388833

$$$$
6tgu.A
     RDKit          3D

 32 34  0  0  0  0  0  0  0  0999 V2000
    1.5599   21.3154   39.3194 C   0  0  0  0  0  0  0  0  0  0  0  0
    0.9561   20.2801   40.1322 C   0  0  0  0  0  0  0  0  0  0  0  0
    1.5575   19.0449   40.2229 C   0  0  0  0  0  0  0  0  0  0  0  0
    0.9594   18.0684   41.0086 C   0  0  0  0  0  0  0  0  0  0  0  0
   -0.2103   18.2772   41.7037 C   0  0  0  0  0  0  0  0  0  0  0  0
   -0.2658   16.0191   42.6377 C   0  0  0  0  0  0  0  0  0  0  0  0
    0.9029   14.0876   42.6280 C   0  0  0  0  0  0  0  0  0  0  0  0
    2.0947   13.3623   42.1236 C   0  0  0  0  0  0  0  0  0  0  0  0
    2.3316   12.0544   42.4857 C   0  0  0  0  0  0  0  0  0  0  0  0
    3.4281   11.3661   42.0300 C   0  0  0  0  0  0  0  0  0  0  0  0
    4.3368   11.9785   41.1824 C   0  0  0  0  0  0  0  0  0  0  0  0
    4.1210   13.2835   40.8075 C   0  0  0  0  0  0  0  0  0  0  0  0
    3.0111   13.9503   41.2806 C   0  0  0  0  0  0  0  0  0  0  0  0
    0.0057   13.4951   43.4600 C   0  0  0  0  0  0  0  0  0  0  0  0
   -0.7720   19.5522   41.5709 C   0  0  0  0  0  0  0  0  0  0  0  0
   -0.2025   20.5352   40.8016 C   0  0  0  0  0  0  0  0  0  0  0  0
   -0.8359   17.2956   42.5097 N   0  0  0  0  0  0  0  0  0  0  0  0
    0.6362   15.3278   42.3126 N   0  0  0  0  0  0  0  0  0  0  0  0
    2.7490   21.0855   38.6198 O   0  0  0  0  0  0  0  0  0  0  0  0
    0.9984   22.4541   39.2406 O   0  0  0  0  0  0  0  0  0  0  0  0
   -0.8192   21.7780   40.7182 O   0  0  0  0  0  0  0  0  0  0  0  0
   -1.2472   14.8241   43.7651 S   0  0  0  0  0  0  0  0  0  0  0  0
    5.7509   11.1118   40.5864 Cl  0  0  0  0  0  0  0  0  0  0  0  0
    2.4807   18.8259   39.6958 H   0  0  0  0  0  0  0  0  0  0  0  0
    1.4569   17.1253   41.0523 H   0  0  0  0  0  0  0  0  0  0  0  0
    1.6300   11.5491   43.1531 H   0  0  0  0  0  0  0  0  0  0  0  0
    3.5682   10.3363   42.3460 H   0  0  0  0  0  0  0  0  0  0  0  0
    4.8264   13.7919   40.1364 H   0  0  0  0  0  0  0  0  0  0  0  0
    2.8468   14.9863   40.9783 H   0  0  0  0  0  0  0  0  0  0  0  0
   -0.0862   12.5067   43.9138 H   0  0  0  0  0  0  0  0  0  0  0  0
   -1.6961   19.7794   42.0953 H   0  0  0  0  0  0  0  0  0  0  0  0
   -1.7355   17.5960   42.9886 H   0  0  0  0  0  0  0  0  0  0  0  0
  1  2  1  0
  1 19  1  0
  1 20  2  0
  2  3  1  0
  2 16  2  0
  3  4  2  0
  4  5  1  0
  5 15  2  0
  5 17  1  0
  6 17  1  0
  6 18  2  0
  6 22  1  0
  7  8  1  0
  7 14  2  0
  7 18  1  0
  8  9  1  0
  8 13  2  0
  9 10  2  0
 10 11  1  0
 11 12  2  0
 11 23  1  0
 12 13  1  0
 14 22  1  0
 15 16  1  0
 16 21  1  0
  3 24  1  0
  4 25  1  0
  9 26  1  0
 10 27  1  0
 12 28  1  0
 13 29  1  0
 14 30  1  0
 15 31  1  0
 17 32  1  0
M  CHG  2  19  -1  21  -1
M  END
>  <mol_id>  (56) 
2026-08-23-6tgu-s0-n100-r3-0056

>  <rmsd_to_ref>  (56) 
2.9795918367352567

$$$$
6tgu.A
     RDKit          3D

 32 34  0  0  0  0  0  0  0  0999 V2000
    1.6544   17.6035   36.0886 C   0  0  0  0  0  0  0  0  0  0  0  0
    1.2727   17.8105   37.5570 C   0  0  0  0  0  0  0  0  0  0  0  0
    0.0200   18.3158   37.8976 C   0  0  0  0  0  0  0  0  0  0  0  0
   -0.4354   18.3411   39.2199 C   0  0  0  0  0  0  0  0  0  0  0  0
    0.4348   18.0157   40.2706 C   0  0  0  0  0  0  0  0  0  0  0  0
    0.4243   17.2824   42.7048 C   0  0  0  0  0  0  0  0  0  0  0  0
    1.8225   15.9694   43.9282 C   0  0  0  0  0  0  0  0  0  0  0  0
    3.0475   15.2105   44.1821 C   0  0  0  0  0  0  0  0  0  0  0  0
    3.2165   14.4374   45.3396 C   0  0  0  0  0  0  0  0  0  0  0  0
    4.3762   13.6966   45.5452 C   0  0  0  0  0  0  0  0  0  0  0  0
    5.3482   13.6999   44.5626 C   0  0  0  0  0  0  0  0  0  0  0  0
    5.2196   14.4454   43.4004 C   0  0  0  0  0  0  0  0  0  0  0  0
    4.0569   15.1891   43.2184 C   0  0  0  0  0  0  0  0  0  0  0  0
    0.7555   16.0106   44.7862 C   0  0  0  0  0  0  0  0  0  0  0  0
    1.6952   17.4951   39.9447 C   0  0  0  0  0  0  0  0  0  0  0  0
    2.0888   17.4093   38.6080 C   0  0  0  0  0  0  0  0  0  0  0  0
   -0.0321   17.9746   41.6202 N   0  0  0  0  0  0  0  0  0  0  0  0
    1.6295   16.6132   42.6831 N   0  0  0  0  0  0  0  0  0  0  0  0
    0.7288   17.7534   35.2377 O   0  0  0  0  0  0  0  0  0  0  0  0
    2.8233   17.2258   35.8546 O   0  0  0  0  0  0  0  0  0  0  0  0
    3.2815   16.8019   38.2946 O   0  0  0  0  0  0  0  0  0  0  0  0
   -0.5761   16.8406   44.0750 S   0  0  0  0  0  0  0  0  0  0  0  0
    6.7796   12.7498   44.7863 Cl  0  0  0  0  0  0  0  0  0  0  0  0
   -0.6313   18.7070   37.1021 H   0  0  0  0  0  0  0  0  0  0  0  0
   -1.4781   18.6167   39.4362 H   0  0  0  0  0  0  0  0  0  0  0  0
    2.4194   14.4162   46.0973 H   0  0  0  0  0  0  0  0  0  0  0  0
    4.5166   13.1198   46.4713 H   0  0  0  0  0  0  0  0  0  0  0  0
    6.0161   14.4491   42.6417 H   0  0  0  0  0  0  0  0  0  0  0  0
    3.9309   15.7727   42.2945 H   0  0  0  0  0  0  0  0  0  0  0  0
    0.7496   15.5720   45.7950 H   0  0  0  0  0  0  0  0  0  0  0  0
    2.3732   17.1546   40.7412 H   0  0  0  0  0  0  0  0  0  0  0  0
   -0.8529   18.5684   41.8067 H   0  0  0  0  0  0  0  0  0  0  0  0
  1  2  1  0
  1 19  1  0
  1 20  2  0
  2  3  1  0
  2 16  2  0
  3  4  2  0
  4  5  1  0
  5 15  2  0
  5 17  1  0
  6 17  1  0
  6 18  2  0
  6 22  1  0
  7  8  1  0
  7 14  2  0
  7 18  1  0
  8  9  1  0
  8 13  2  0
  9 10  2  0
 10 11  1  0
 11 12  2  0
 11 23  1  0
 12 13  1  0
 14 22  1  0
 15 16  1  0
 16 21  1  0
  3 24  1  0
  4 25  1  0
  9 26  1  0
 10 27  1  0
 12 28  1  0
 13 29  1  0
 14 30  1  0
 15 31  1  0
 17 32  1  0
M  CHG  2  19  -1  21  -1
M  END
>  <mol_id>  (57) 
2026-08-23-6tgu-s0-n100-r3-0057

>  <rmsd_to_ref>  (57) 
3.0255102040890396

$$$$
6tgu.A
     RDKit          3D

 32 34  0  0  0  0  0  0  0  0999 V2000
    0.5151   21.6125   36.7637 C   0  0  0  0  0  0  0  0  0  0  0  0
    0.9178   20.4200   37.4803 C   0  0  0  0  0  0  0  0  0  0  0  0
    0.8039   19.1811   36.9073 C   0  0  0  0  0  0  0  0  0  0  0  0
    1.1710   18.0421   37.5568 C   0  0  0  0  0  0  0  0  0  0  0  0
    1.6923   18.0514   38.8600 C   0  0  0  0  0  0  0  0  0  0  0  0
    2.0781   16.5175   40.8205 C   0  0  0  0  0  0  0  0  0  0  0  0
    2.3162   15.4837   42.8024 C   0  0  0  0  0  0  0  0  0  0  0  0
    2.7091   14.2661   43.5496 C   0  0  0  0  0  0  0  0  0  0  0  0
    2.6128   14.2488   44.9347 C   0  0  0  0  0  0  0  0  0  0  0  0
    2.9558   13.1509   45.6908 C   0  0  0  0  0  0  0  0  0  0  0  0
    3.4114   12.0350   45.0160 C   0  0  0  0  0  0  0  0  0  0  0  0
    3.5246   12.0075   43.6277 C   0  0  0  0  0  0  0  0  0  0  0  0
    3.1696   13.1330   42.8997 C   0  0  0  0  0  0  0  0  0  0  0  0
    1.8467   16.6057   43.4580 C   0  0  0  0  0  0  0  0  0  0  0  0
    1.8052   19.2963   39.4293 C   0  0  0  0  0  0  0  0  0  0  0  0
    1.4314   20.4647   38.7708 C   0  0  0  0  0  0  0  0  0  0  0  0
    2.0425   16.8363   39.4193 N   0  0  0  0  0  0  0  0  0  0  0  0
    2.3636   15.6203   41.4906 N   0  0  0  0  0  0  0  0  0  0  0  0
    0.0099   21.5053   35.4841 O   0  0  0  0  0  0  0  0  0  0  0  0
    0.6354   22.7424   37.3317 O   0  0  0  0  0  0  0  0  0  0  0  0
    1.5618   21.7174   39.3877 O   0  0  0  0  0  0  0  0  0  0  0  0
    1.5120   17.7759   42.0849 S   0  0  0  0  0  0  0  0  0  0  0  0
    3.8551   10.6265   45.9539 Cl  0  0  0  0  0  0  0  0  0  0  0  0
    0.4123   19.1102   35.9169 H   0  0  0  0  0  0  0  0  0  0  0  0
    1.0549   17.0783   37.0425 H   0  0  0  0  0  0  0  0  0  0  0  0
    2.2548   15.1211   45.4803 H   0  0  0  0  0  0  0  0  0  0  0  0
    2.8592   13.1967   46.7699 H   0  0  0  0  0  0  0  0  0  0  0  0
    3.8834   11.1267   43.1034 H   0  0  0  0  0  0  0  0  0  0  0  0
    3.2398   13.1592   41.8312 H   0  0  0  0  0  0  0  0  0  0  0  0
    1.6820   16.8373   44.4948 H   0  0  0  0  0  0  0  0  0  0  0  0
    2.2039   19.4255   40.4185 H   0  0  0  0  0  0  0  0  0  0  0  0
    2.3163   16.0432   38.7940 H   0  0  0  0  0  0  0  0  0  0  0  0
  1  2  1  0
  1 19  1  0
  1 20  2  0
  2  3  1  0
  2 16  2  0
  3  4  2  0
  4  5  1  0
  5 15  2  0
  5 17  1  0
  6 17  1  0
  6 18  2  0
  6 22  1  0
  7  8  1  0
  7 14  2  0
  7 18  1  0
  8  9  1  0
  8 13  2  0
  9 10  2  0
 10 11  1  0
 11 12  2  0
 11 23  1  0
 12 13  1  0
 14 22  1  0
 15 16  1  0
 16 21  1  0
  3 24  1  0
  4 25  1  0
  9 26  1  0
 10 27  1  0
 12 28  1  0
 13 29  1  0
 14 30  1  0
 15 31  1  0
 17 32  1  0
M  CHG  2  19  -1  21  -1
M  END
>  <mol_id>  (58) 
2026-08-23-6tgu-s0-n100-r3-0058

>  <rmsd_to_ref>  (58) 
3.0714285714315643

$$$$
6tgu.A
     RDKit          3D

 32 34  0  0  0  0  0  0  0  0999 V2000
    2.9469   22.6667   40.1687 C   0  0  0  0  0  0  0  0  0  0  0  0
    2.2001   21.4980   40.8176 C   0  0  0  0  0  0  0  0  0  0  0  0
    1.0181   21.7174   41.5214 C   0  0  0  0  0  0  0  0  0  0  0  0
    0.2112   20.6637   41.9631 C   0  0  0  0  0  0  0  0  0  0  0  0
    0.6629   19.3400   41.8607 C   0  0  0  0  0  0  0  0  0  0  0  0
   -0.1893   16.9449   41.8465 C   0  0  0  0  0  0  0  0  0  0  0  0
    0.5260   15.0574   40.7970 C   0  0  0  0  0  0  0  0  0  0  0  0
    1.4625   14.2437   40.0211 C   0  0  0  0  0  0  0  0  0  0  0  0
    1.1424   12.9479   39.5917 C   0  0  0  0  0  0  0  0  0  0  0  0
    2.0349   12.2042   38.8261 C   0  0  0  0  0  0  0  0  0  0  0  0
    3.2336   12.7838   38.4552 C   0  0  0  0  0  0  0  0  0  0  0  0
    3.5880   14.0641   38.8529 C   0  0  0  0  0  0  0  0  0  0  0  0
    2.6863   14.7880   39.6282 C   0  0  0  0  0  0  0  0  0  0  0  0
   -0.7175   14.6334   41.1847 C   0  0  0  0  0  0  0  0  0  0  0  0
    1.8451   19.1010   41.1456 C   0  0  0  0  0  0  0  0  0  0  0  0
    2.5871   20.1739   40.6483 C   0  0  0  0  0  0  0  0  0  0  0  0
   -0.1751   18.2496   42.2479 N   0  0  0  0  0  0  0  0  0  0  0  0
    0.8252   16.4110   41.0806 N   0  0  0  0  0  0  0  0  0  0  0  0
    2.3527   23.7848   40.1655 O   0  0  0  0  0  0  0  0  0  0  0  0
    4.0428   22.4074   39.6251 O   0  0  0  0  0  0  0  0  0  0  0  0
    3.6860   19.9253   39.8607 O   0  0  0  0  0  0  0  0  0  0  0  0
   -1.6081   15.9171   41.9105 S   0  0  0  0  0  0  0  0  0  0  0  0
    4.3374   11.8849   37.4677 Cl  0  0  0  0  0  0  0  0  0  0  0  0
    0.7099   22.7512   41.7365 H   0  0  0  0  0  0  0  0  0  0  0  0
   -0.7799   20.8738   42.3917 H   0  0  0  0  0  0  0  0  0  0  0  0
    0.1699   12.5122   39.8647 H   0  0  0  0  0  0  0  0  0  0  0  0
    1.7913   11.1755   38.5219 H   0  0  0  0  0  0  0  0  0  0  0  0
    4.5569   14.4968   38.5631 H   0  0  0  0  0  0  0  0  0  0  0  0
    2.9440   15.8115   39.9380 H   0  0  0  0  0  0  0  0  0  0  0  0
   -1.0969   13.6097   41.0504 H   0  0  0  0  0  0  0  0  0  0  0  0
    2.1874   18.0694   40.9766 H   0  0  0  0  0  0  0  0  0  0  0  0
   -0.8904   18.4886   42.9494 H   0  0  0  0  0  0  0  0  0  0  0  0
  1  2  1  0
  1 19  1  0
  1 20  2  0
  2  3  1  0
  2 16  2  0
  3  4  2  0
  4  5  1  0
  5 15  2  0
  5 17  1  0
  6 17  1  0
  6 18  2  0
  6 22  1  0
  7  8  1  0
  7 14  2  0
  7 18  1  0
  8  9  1  0
  8 13  2  0
  9 10  2  0
 10 11  1  0
 11 12  2  0
 11 23  1  0
 12 13  1  0
 14 22  1  0
 15 16  1  0
 16 21  1  0
  3 24  1  0
  4 25  1  0
  9 26  1  0
 10 27  1  0
 12 28  1  0
 13 29  1  0
 14 30  1  0
 15 31  1  0
 17 32  1  0
M  CHG  2  19  -1  21  -1
M  END
>  <mol_id>  (59) 
2026-08-23-6tgu-s0-n100-r3-0059

>  <rmsd_to_ref>  (59) 
3.117346938782524

$$$$
6tgu.A
     RDKit          3D

 32 34  0  0  0  0  0  0  0  0999 V2000
    7.0940   19.8488   40.3537 C   0  0  0  0  0  0  0  0  0  0  0  0
    5.7066   19.5053   40.1572 C   0  0  0  0  0  0  0  0  0  0  0  0
    4.9304   20.1732   39.2201 C   0  0  0  0  0  0  0  0  0  0  0  0
    3.5888   19.8521   39.0225 C   0  0  0  0  0  0  0  0  0  0  0  0
    2.9795   18.8494   39.7588 C   0  0  0  0  0  0  0  0  0  0  0  0
    0.9650   17.4630   40.3014 C   0  0  0  0  0  0  0  0  0  0  0  0
    0.0875   15.5899   41.1623 C   0  0  0  0  0  0  0  0  0  0  0  0
   -0.1816   14.1649   41.0005 C   0  0  0  0  0  0  0  0  0  0  0  0
   -0.8383   13.4631   41.9902 C   0  0  0  0  0  0  0  0  0  0  0  0
   -1.0974   12.1180   41.8408 C   0  0  0  0  0  0  0  0  0  0  0  0
   -0.7152   11.4253   40.7085 C   0  0  0  0  0  0  0  0  0  0  0  0
   -0.0526   12.1159   39.7014 C   0  0  0  0  0  0  0  0  0  0  0  0
    0.1886   13.4484   39.8810 C   0  0  0  0  0  0  0  0  0  0  0  0
   -0.2991   16.3116   42.2979 C   0  0  0  0  0  0  0  0  0  0  0  0
    3.7403   18.1931   40.6787 C   0  0  0  0  0  0  0  0  0  0  0  0
    5.0747   18.5052   40.8824 C   0  0  0  0  0  0  0  0  0  0  0  0
    1.6112   18.5516   39.5372 N   0  0  0  0  0  0  0  0  0  0  0  0
    0.7031   16.3684   40.2966 N   0  0  0  0  0  0  0  0  0  0  0  0
    7.6581   20.8599   39.5902 O   0  0  0  0  0  0  0  0  0  0  0  0
    7.7787   19.2335   41.2100 O   0  0  0  0  0  0  0  0  0  0  0  0
    5.7646   17.7881   41.8341 O   0  0  0  0  0  0  0  0  0  0  0  0
    0.2546   18.0104   42.0076 S   0  0  0  0  0  0  0  0  0  0  0  0
   -1.0308    9.7171   40.4915 Cl  0  0  0  0  0  0  0  0  0  0  0  0
    5.3556   20.9703   38.6130 H   0  0  0  0  0  0  0  0  0  0  0  0
    3.0134   20.4001   38.2765 H   0  0  0  0  0  0  0  0  0  0  0  0
   -1.1655   13.9572   42.9102 H   0  0  0  0  0  0  0  0  0  0  0  0
   -1.6151   11.5717   42.6248 H   0  0  0  0  0  0  0  0  0  0  0  0
    0.2718   11.6282   38.7913 H   0  0  0  0  0  0  0  0  0  0  0  0
    0.7047   13.9780   39.0921 H   0  0  0  0  0  0  0  0  0  0  0  0
   -0.8349   15.9659   43.2145 H   0  0  0  0  0  0  0  0  0  0  0  0
    3.2514   17.4049   41.2527 H   0  0  0  0  0  0  0  0  0  0  0  0
    1.0489   19.0870   38.8430 H   0  0  0  0  0  0  0  0  0  0  0  0
  1  2  1  0
  1 19  1  0
  1 20  2  0
  2  3  1  0
  2 16  2  0
  3  4  2  0
  4  5  1  0
  5 15  2  0
  5 17  1  0
  6 17  1  0
  6 18  2  0
  6 22  1  0
  7  8  1  0
  7 14  2  0
  7 18  1  0
  8  9  1  0
  8 13  2  0
  9 10  2  0
 10 11  1  0
 11 12  2  0
 11 23  1  0
 12 13  1  0
 14 22  1  0
 15 16  1  0
 16 21  1  0
  3 24  1  0
  4 25  1  0
  9 26  1  0
 10 27  1  0
 12 28  1  0
 13 29  1  0
 14 30  1  0
 15 31  1  0
 17 32  1  0
M  CHG  2  19  -1  21  -1
M  END
>  <mol_id>  (60) 
2026-08-23-6tgu-s0-n100-r3-0060

>  <rmsd_to_ref>  (60) 
3.163265306123545

$$$$
6tgu.A
     RDKit          3D

 32 34  0  0  0  0  0  0  0  0999 V2000
    0.6736   16.8883   35.5924 C   0  0  0  0  0  0  0  0  0  0  0  0
    0.6067   17.6829   36.8997 C   0  0  0  0  0  0  0  0  0  0  0  0
   -0.1316   18.8619   36.9737 C   0  0  0  0  0  0  0  0  0  0  0  0
   -0.3726   19.5114   38.1888 C   0  0  0  0  0  0  0  0  0  0  0  0
    0.2761   19.0839   39.3564 C   0  0  0  0  0  0  0  0  0  0  0  0
    0.0994   19.2144   41.8892 C   0  0  0  0  0  0  0  0  0  0  0  0
    0.6684   17.7714   43.5534 C   0  0  0  0  0  0  0  0  0  0  0  0
    1.3022   16.5793   44.1177 C   0  0  0  0  0  0  0  0  0  0  0  0
    1.1328   16.2124   45.4604 C   0  0  0  0  0  0  0  0  0  0  0  0
    1.7172   15.0563   45.9681 C   0  0  0  0  0  0  0  0  0  0  0  0
    2.4369   14.2455   45.1107 C   0  0  0  0  0  0  0  0  0  0  0  0
    2.6246   14.5673   43.7749 C   0  0  0  0  0  0  0  0  0  0  0  0
    2.0413   15.7341   43.2886 C   0  0  0  0  0  0  0  0  0  0  0  0
   -0.1181   18.6330   44.2713 C   0  0  0  0  0  0  0  0  0  0  0  0
    1.0139   17.8928   39.3016 C   0  0  0  0  0  0  0  0  0  0  0  0
    1.1690   17.2252   38.0853 C   0  0  0  0  0  0  0  0  0  0  0  0
   -0.0080   19.6953   40.6161 N   0  0  0  0  0  0  0  0  0  0  0  0
    0.7392   18.0243   42.1630 N   0  0  0  0  0  0  0  0  0  0  0  0
   -0.0976   17.2656   34.6618 O   0  0  0  0  0  0  0  0  0  0  0  0
    1.4215   15.8862   35.5758 O   0  0  0  0  0  0  0  0  0  0  0  0
    1.8045   16.0064   38.0622 O   0  0  0  0  0  0  0  0  0  0  0  0
   -0.8454   19.8072   43.2417 S   0  0  0  0  0  0  0  0  0  0  0  0
    3.1361   12.7817   45.7190 Cl  0  0  0  0  0  0  0  0  0  0  0  0
   -0.5377   19.2955   36.0479 H   0  0  0  0  0  0  0  0  0  0  0  0
   -1.0722   20.3593   38.2287 H   0  0  0  0  0  0  0  0  0  0  0  0
    0.5280   16.8489   46.1231 H   0  0  0  0  0  0  0  0  0  0  0  0
    1.6087   14.7928   47.0305 H   0  0  0  0  0  0  0  0  0  0  0  0
    3.2192   13.9171   43.1163 H   0  0  0  0  0  0  0  0  0  0  0  0
    2.1658   15.9957   42.2275 H   0  0  0  0  0  0  0  0  0  0  0  0
   -0.2657   18.5819   45.3602 H   0  0  0  0  0  0  0  0  0  0  0  0
    1.4699   17.4849   40.2157 H   0  0  0  0  0  0  0  0  0  0  0  0
   -0.3525   20.6639   40.5528 H   0  0  0  0  0  0  0  0  0  0  0  0
  1  2  1  0
  1 19  1  0
  1 20  2  0
  2  3  1  0
  2 16  2  0
  3  4  2  0
  4  5  1  0
  5 15  2  0
  5 17  1  0
  6 17  1  0
  6 18  2  0
  6 22  1  0
  7  8  1  0
  7 14  2  0
  7 18  1  0
  8  9  1  0
  8 13  2  0
  9 10  2  0
 10 11  1  0
 11 12  2  0
 11 23  1  0
 12 13  1  0
 14 22  1  0
 15 16  1  0
 16 21  1  0
  3 24  1  0
  4 25  1  0
  9 26  1  0
 10 27  1  0
 12 28  1  0
 13 29  1  0
 14 30  1  0
 15 31  1  0
 17 32  1  0
M  CHG  2  19  -1  21  -1
M  END
>  <mol_id>  (61) 
2026-08-23-6tgu-s0-n100-r3-0061

>  <rmsd_to_ref>  (61) 
3.209183673472427

$$$$
6tgu.A
     RDKit          3D

 32 34  0  0  0  0  0  0  0  0999 V2000
   -1.0363   21.0824   36.8984 C   0  0  0  0  0  0  0  0  0  0  0  0
   -0.2512   20.1179   37.6257 C   0  0  0  0  0  0  0  0  0  0  0  0
    1.0787   20.3126   37.9372 C   0  0  0  0  0  0  0  0  0  0  0  0
    1.8124   19.3827   38.6345 C   0  0  0  0  0  0  0  0  0  0  0  0
    1.2565   18.1699   39.0778 C   0  0  0  0  0  0  0  0  0  0  0  0
    1.7007   16.3148   40.7357 C   0  0  0  0  0  0  0  0  0  0  0  0
    1.6851   14.6638   42.2548 C   0  0  0  0  0  0  0  0  0  0  0  0
    2.4672   13.6534   42.9951 C   0  0  0  0  0  0  0  0  0  0  0  0
    1.8540   12.8235   43.9063 C   0  0  0  0  0  0  0  0  0  0  0  0
    2.5427   11.8684   44.6226 C   0  0  0  0  0  0  0  0  0  0  0  0
    3.9046   11.7288   44.4257 C   0  0  0  0  0  0  0  0  0  0  0  0
    4.5450   12.5584   43.5079 C   0  0  0  0  0  0  0  0  0  0  0  0
    3.8236   13.4940   42.8177 C   0  0  0  0  0  0  0  0  0  0  0  0
    0.3659   14.8382   42.4227 C   0  0  0  0  0  0  0  0  0  0  0  0
   -0.0659   17.9862   38.7620 C   0  0  0  0  0  0  0  0  0  0  0  0
   -0.8100   18.9251   38.0573 C   0  0  0  0  0  0  0  0  0  0  0  0
    2.0963   17.3083   39.7567 N   0  0  0  0  0  0  0  0  0  0  0  0
    2.2133   15.4816   41.3726 N   0  0  0  0  0  0  0  0  0  0  0  0
   -0.3786   22.2630   36.5017 O   0  0  0  0  0  0  0  0  0  0  0  0
   -2.2372   20.9110   36.6200 O   0  0  0  0  0  0  0  0  0  0  0  0
   -2.1610   18.6957   37.7559 O   0  0  0  0  0  0  0  0  0  0  0  0
   -0.1036   16.2220   41.2699 S   0  0  0  0  0  0  0  0  0  0  0  0
    4.7527   10.5120   45.3450 Cl  0  0  0  0  0  0  0  0  0  0  0  0
    1.5775   21.2268   37.6283 H   0  0  0  0  0  0  0  0  0  0  0  0
    2.8669   19.6011   38.8482 H   0  0  0  0  0  0  0  0  0  0  0  0
    0.7685   12.9319   44.0668 H   0  0  0  0  0  0  0  0  0  0  0  0
    1.9708   11.2681   45.3133 H   0  0  0  0  0  0  0  0  0  0  0  0
    5.6239   12.4486   43.3514 H   0  0  0  0  0  0  0  0  0  0  0  0
    4.3496   14.1172   42.1173 H   0  0  0  0  0  0  0  0  0  0  0  0
   -0.4258   14.3501   43.0676 H   0  0  0  0  0  0  0  0  0  0  0  0
   -0.5760   17.0911   39.0413 H   0  0  0  0  0  0  0  0  0  0  0  0
    3.1272   17.3330   39.5862 H   0  0  0  0  0  0  0  0  0  0  0  0
  1  2  1  0
  1 19  1  0
  1 20  2  0
  2  3  1  0
  2 16  2  0
  3  4  2  0
  4  5  1  0
  5 15  2  0
  5 17  1  0
  6 17  1  0
  6 18  2  0
  6 22  1  0
  7  8  1  0
  7 14  2  0
  7 18  1  0
  8  9  1  0
  8 13  2  0
  9 10  2  0
 10 11  1  0
 11 12  2  0
 11 23  1  0
 12 13  1  0
 14 22  1  0
 15 16  1  0
 16 21  1  0
  3 24  1  0
  4 25  1  0
  9 26  1  0
 10 27  1  0
 12 28  1  0
 13 29  1  0
 14 30  1  0
 15 31  1  0
 17 32  1  0
M  CHG  2  19  -1  21  -1
M  END
>  <mol_id>  (62) 
2026-08-23-6tgu-s0-n100-r3-0062

>  <rmsd_to_ref>  (62) 
3.255102040818618

$$$$
6tgu.A
     RDKit          3D

 32 34  0  0  0  0  0  0  0  0999 V2000
    1.0435   22.5435   39.7620 C   0  0  0  0  0  0  0  0  0  0  0  0
    0.7978   21.3554   40.6963 C   0  0  0  0  0  0  0  0  0  0  0  0
   -0.3872   21.2600   41.4225 C   0  0  0  0  0  0  0  0  0  0  0  0
   -0.7299   20.1062   42.1350 C   0  0  0  0  0  0  0  0  0  0  0  0
    0.2005   19.0671   42.2820 C   0  0  0  0  0  0  0  0  0  0  0  0
    0.3419   16.5902   42.8371 C   0  0  0  0  0  0  0  0  0  0  0  0
    1.7473   14.9338   42.1610 C   0  0  0  0  0  0  0  0  0  0  0  0
    2.9370   14.3864   41.5082 C   0  0  0  0  0  0  0  0  0  0  0  0
    3.1496   13.0058   41.3873 C   0  0  0  0  0  0  0  0  0  0  0  0
    4.2715   12.5067   40.7329 C   0  0  0  0  0  0  0  0  0  0  0  0
    5.1578   13.3999   40.1611 C   0  0  0  0  0  0  0  0  0  0  0  0
    4.9831   14.7726   40.2519 C   0  0  0  0  0  0  0  0  0  0  0  0
    3.8603   15.2525   40.9205 C   0  0  0  0  0  0  0  0  0  0  0  0
    0.7592   14.1670   42.7197 C   0  0  0  0  0  0  0  0  0  0  0  0
    1.3934   19.1424   41.5489 C   0  0  0  0  0  0  0  0  0  0  0  0
    1.6695   20.2765   40.7829 C   0  0  0  0  0  0  0  0  0  0  0  0
   -0.1558   17.8563   42.9514 N   0  0  0  0  0  0  0  0  0  0  0  0
    1.4951   16.3258   42.1293 N   0  0  0  0  0  0  0  0  0  0  0  0
    0.0630   23.3202   39.5659 O   0  0  0  0  0  0  0  0  0  0  0  0
    2.1622   22.6061   39.2067 O   0  0  0  0  0  0  0  0  0  0  0  0
    2.7904   20.2953   39.9874 O   0  0  0  0  0  0  0  0  0  0  0  0
   -0.5693   15.1425   43.2209 S   0  0  0  0  0  0  0  0  0  0  0  0
    6.5378   12.7925   39.3078 Cl  0  0  0  0  0  0  0  0  0  0  0  0
   -1.0746   22.1187   41.4361 H   0  0  0  0  0  0  0  0  0  0  0  0
   -1.7311   20.0136   42.5809 H   0  0  0  0  0  0  0  0  0  0  0  0
    2.4177   12.3059   41.8168 H   0  0  0  0  0  0  0  0  0  0  0  0
    4.4495   11.4229   40.6719 H   0  0  0  0  0  0  0  0  0  0  0  0
    5.7132   15.4647   39.8069 H   0  0  0  0  0  0  0  0  0  0  0  0
    3.6973   16.3383   40.9872 H   0  0  0  0  0  0  0  0  0  0  0  0
    0.8076   13.0739   42.8332 H   0  0  0  0  0  0  0  0  0  0  0  0
    2.1107   18.3090   41.5773 H   0  0  0  0  0  0  0  0  0  0  0  0
   -0.9181   17.9554   43.6370 H   0  0  0  0  0  0  0  0  0  0  0  0
  1  2  1  0
  1 19  1  0
  1 20  2  0
  2  3  1  0
  2 16  2  0
  3  4  2  0
  4  5  1  0
  5 15  2  0
  5 17  1  0
  6 17  1  0
  6 18  2  0
  6 22  1  0
  7  8  1  0
  7 14  2  0
  7 18  1  0
  8  9  1  0
  8 13  2  0
  9 10  2  0
 10 11  1  0
 11 12  2  0
 11 23  1  0
 12 13  1  0
 14 22  1  0
 15 16  1  0
 16 21  1  0
  3 24  1  0
  4 25  1  0
  9 26  1  0
 10 27  1  0
 12 28  1  0
 13 29  1  0
 14 30  1  0
 15 31  1  0
 17 32  1  0
M  CHG  2  19  -1  21  -1
M  END
>  <mol_id>  (63) 
2026-08-23-6tgu-s0-n100-r3-0063

>  <rmsd_to_ref>  (63) 
3.3010204081652748

$$$$
6tgu.A
     RDKit          3D

 32 34  0  0  0  0  0  0  0  0999 V2000
    5.2553   22.9249   41.1015 C   0  0  0  0  0  0  0  0  0  0  0  0
    4.5038   21.6858   40.9567 C   0  0  0  0  0  0  0  0  0  0  0  0
    3.3768   21.5639   40.1741 C   0  0  0  0  0  0  0  0  0  0  0  0
    2.6812   20.3822   40.0518 C   0  0  0  0  0  0  0  0  0  0  0  0
    3.0919   19.2334   40.7262 C   0  0  0  0  0  0  0  0  0  0  0  0
    2.3092   16.9406   41.3853 C   0  0  0  0  0  0  0  0  0  0  0  0
    1.7749   14.8902   42.1707 C   0  0  0  0  0  0  0  0  0  0  0  0
    1.0628   13.5941   42.0316 C   0  0  0  0  0  0  0  0  0  0  0  0
    0.2805   13.3293   40.9231 C   0  0  0  0  0  0  0  0  0  0  0  0
   -0.3956   12.1406   40.7577 C   0  0  0  0  0  0  0  0  0  0  0  0
   -0.2902   11.1808   41.7293 C   0  0  0  0  0  0  0  0  0  0  0  0
    0.4871   11.4404   42.8335 C   0  0  0  0  0  0  0  0  0  0  0  0
    1.1588   12.6336   42.9875 C   0  0  0  0  0  0  0  0  0  0  0  0
    2.5632   15.1421   43.2984 C   0  0  0  0  0  0  0  0  0  0  0  0
    4.2159   19.3641   41.5030 C   0  0  0  0  0  0  0  0  0  0  0  0
    4.9201   20.5572   41.6279 C   0  0  0  0  0  0  0  0  0  0  0  0
    2.3407   18.0719   40.5398 N   0  0  0  0  0  0  0  0  0  0  0  0
    1.7182   15.8336   41.2968 N   0  0  0  0  0  0  0  0  0  0  0  0
    4.8649   24.0721   40.4435 O   0  0  0  0  0  0  0  0  0  0  0  0
    6.2690   22.9042   41.8477 O   0  0  0  0  0  0  0  0  0  0  0  0
    6.0607   20.6062   42.4435 O   0  0  0  0  0  0  0  0  0  0  0  0
    3.1635   16.7727   42.9709 S   0  0  0  0  0  0  0  0  0  0  0  0
   -1.1293    9.6572   41.5669 Cl  0  0  0  0  0  0  0  0  0  0  0  0
    3.0518   22.4504   39.6484 H   0  0  0  0  0  0  0  0  0  0  0  0
    1.8125   20.3834   39.4172 H   0  0  0  0  0  0  0  0  0  0  0  0
    0.2007   14.0894   40.1603 H   0  0  0  0  0  0  0  0  0  0  0  0
   -0.9883   12.0031   39.8647 H   0  0  0  0  0  0  0  0  0  0  0  0
    0.5818   10.6850   43.6184 H   0  0  0  0  0  0  0  0  0  0  0  0
    1.7502   12.7638   43.8840 H   0  0  0  0  0  0  0  0  0  0  0  0
    2.7561   14.5181   44.1391 H   0  0  0  0  0  0  0  0  0  0  0  0
    4.6106   18.5291   42.0505 H   0  0  0  0  0  0  0  0  0  0  0  0
    1.7253   18.0087   39.6811 H   0  0  0  0  0  0  0  0  0  0  0  0
  1  2  1  0
  1 19  1  0
  1 20  2  0
  2  3  1  0
  2 16  2  0
  3  4  2  0
  4  5  1  0
  5 15  2  0
  5 17  1  0
  6 17  1  0
  6 18  2  0
  6 22  1  0
  7  8  1  0
  7 14  2  0
  7 18  1  0
  8  9  1  0
  8 13  2  0
  9 10  2  0
 10 11  1  0
 11 12  2  0
 11 23  1  0
 12 13  1  0
 14 22  1  0
 15 16  1  0
 16 21  1  0
  3 24  1  0
  4 25  1  0
  9 26  1  0
 10 27  1  0
 12 28  1  0
 13 29  1  0
 14 30  1  0
 15 31  1  0
 17 32  1  0
M  CHG  2  19  -1  21  -1
M  END
>  <mol_id>  (64) 
2026-08-23-6tgu-s0-n100-r3-0064

>  <rmsd_to_ref>  (64) 
3.346938775511649

$$$$
6tgu.A
     RDKit          3D

 32 34  0  0  0  0  0  0  0  0999 V2000
    6.3281   16.6201   36.9174 C   0  0  0  0  0  0  0  0  0  0  0  0
    5.5772   17.3451   38.0378 C   0  0  0  0  0  0  0  0  0  0  0  0
    5.6110   18.7349   38.1278 C   0  0  0  0  0  0  0  0  0  0  0  0
    4.7915   19.4412   39.0143 C   0  0  0  0  0  0  0  0  0  0  0  0
    4.0305   18.7527   39.9702 C   0  0  0  0  0  0  0  0  0  0  0  0
    2.0114   19.0432   41.4875 C   0  0  0  0  0  0  0  0  0  0  0  0
    0.4325   17.5943   42.2514 C   0  0  0  0  0  0  0  0  0  0  0  0
   -0.1573   16.2756   42.4846 C   0  0  0  0  0  0  0  0  0  0  0  0
   -1.4323   16.1205   43.0471 C   0  0  0  0  0  0  0  0  0  0  0  0
   -1.9880   14.8580   43.2292 C   0  0  0  0  0  0  0  0  0  0  0  0
   -1.2762   13.7524   42.8032 C   0  0  0  0  0  0  0  0  0  0  0  0
   -0.0150   13.8605   42.2369 C   0  0  0  0  0  0  0  0  0  0  0  0
    0.5287   15.1316   42.0737 C   0  0  0  0  0  0  0  0  0  0  0  0
   -0.1833   18.7757   42.5698 C   0  0  0  0  0  0  0  0  0  0  0  0
    3.9768   17.3541   39.8865 C   0  0  0  0  0  0  0  0  0  0  0  0
    4.7483   16.6833   38.9359 C   0  0  0  0  0  0  0  0  0  0  0  0
    3.1404   19.4548   40.8397 N   0  0  0  0  0  0  0  0  0  0  0  0
    1.6528   17.7132   41.5451 N   0  0  0  0  0  0  0  0  0  0  0  0
    6.8241   17.3472   36.0073 O   0  0  0  0  0  0  0  0  0  0  0  0
    6.3219   15.3700   36.9475 O   0  0  0  0  0  0  0  0  0  0  0  0
    4.6090   15.3231   38.7934 O   0  0  0  0  0  0  0  0  0  0  0  0
    0.7181   20.1197   41.9790 S   0  0  0  0  0  0  0  0  0  0  0  0
   -1.9728   12.1767   42.9860 Cl  0  0  0  0  0  0  0  0  0  0  0  0
    6.3037   19.2941   37.4817 H   0  0  0  0  0  0  0  0  0  0  0  0
    4.7437   20.5389   38.9616 H   0  0  0  0  0  0  0  0  0  0  0  0
   -2.0024   17.0114   43.3493 H   0  0  0  0  0  0  0  0  0  0  0  0
   -2.9741   14.7421   43.7026 H   0  0  0  0  0  0  0  0  0  0  0  0
    0.5417   12.9646   41.9247 H   0  0  0  0  0  0  0  0  0  0  0  0
    1.5209   15.2368   41.6105 H   0  0  0  0  0  0  0  0  0  0  0  0
   -1.1276   18.8556   43.1284 H   0  0  0  0  0  0  0  0  0  0  0  0
    3.3275   16.7861   40.5691 H   0  0  0  0  0  0  0  0  0  0  0  0
    3.3935   20.4393   41.0060 H   0  0  0  0  0  0  0  0  0  0  0  0
  1  2  1  0
  1 19  1  0
  1 20  2  0
  2  3  1  0
  2 16  2  0
  3  4  2  0
  4  5  1  0
  5 15  2  0
  5 17  1  0
  6 17  1  0
  6 18  2  0
  6 22  1  0
  7  8  1  0
  7 14  2  0
  7 18  1  0
  8  9  1  0
  8 13  2  0
  9 10  2  0
 10 11  1  0
 11 12  2  0
 11 23  1  0
 12 13  1  0
 14 22  1  0
 15 16  1  0
 16 21  1  0
  3 24  1  0
  4 25  1  0
  9 26  1  0
 10 27  1  0
 12 28  1  0
 13 29  1  0
 14 30  1  0
 15 31  1  0
 17 32  1  0
M  CHG  2  19  -1  21  -1
M  END
>  <mol_id>  (65) 
2026-08-23-6tgu-s0-n100-r3-0065

>  <rmsd_to_ref>  (65) 
3.3928571428629315

$$$$
6tgu.A
     RDKit          3D

 32 34  0  0  0  0  0  0  0  0999 V2000
   -1.3906   22.5200   38.9493 C   0  0  0  0  0  0  0  0  0  0  0  0
   -0.5653   21.3664   39.2283 C   0  0  0  0  0  0  0  0  0  0  0  0
   -0.1386   21.0684   40.5026 C   0  0  0  0  0  0  0  0  0  0  0  0
    0.6527   19.9553   40.7480 C   0  0  0  0  0  0  0  0  0  0  0  0
    1.0546   19.0940   39.7548 C   0  0  0  0  0  0  0  0  0  0  0  0
    1.7278   17.0754   41.1156 C   0  0  0  0  0  0  0  0  0  0  0  0
    1.9354   15.5157   42.7198 C   0  0  0  0  0  0  0  0  0  0  0  0
    2.6616   14.3501   43.2359 C   0  0  0  0  0  0  0  0  0  0  0  0
    2.2650   13.7579   44.4150 C   0  0  0  0  0  0  0  0  0  0  0  0
    2.9033   12.6684   44.9520 C   0  0  0  0  0  0  0  0  0  0  0  0
    3.9812   12.1635   44.2677 C   0  0  0  0  0  0  0  0  0  0  0  0
    4.3954   12.7383   43.0881 C   0  0  0  0  0  0  0  0  0  0  0  0
    3.7497   13.8180   42.5711 C   0  0  0  0  0  0  0  0  0  0  0  0
    0.8694   16.0670   43.3564 C   0  0  0  0  0  0  0  0  0  0  0  0
    0.6086   19.4170   38.4634 C   0  0  0  0  0  0  0  0  0  0  0  0
   -0.1719   20.5151   38.2220 C   0  0  0  0  0  0  0  0  0  0  0  0
    1.8199   17.9517   39.8976 N   0  0  0  0  0  0  0  0  0  0  0  0
    2.2071   16.1692   41.6124 N   0  0  0  0  0  0  0  0  0  0  0  0
   -1.7974   22.7753   37.6453 O   0  0  0  0  0  0  0  0  0  0  0  0
   -1.7195   23.2708   39.9196 O   0  0  0  0  0  0  0  0  0  0  0  0
   -0.5896   20.7897   36.9054 O   0  0  0  0  0  0  0  0  0  0  0  0
    0.3245   17.4925   42.3208 S   0  0  0  0  0  0  0  0  0  0  0  0
    4.7991   10.7795   44.9425 Cl  0  0  0  0  0  0  0  0  0  0  0  0
   -0.4161   21.7029   41.3321 H   0  0  0  0  0  0  0  0  0  0  0  0
    0.9584   19.7980   41.7582 H   0  0  0  0  0  0  0  0  0  0  0  0
    1.4002   14.1686   44.9568 H   0  0  0  0  0  0  0  0  0  0  0  0
    2.5473   12.2492   45.8744 H   0  0  0  0  0  0  0  0  0  0  0  0
    5.2436   12.3351   42.5567 H   0  0  0  0  0  0  0  0  0  0  0  0
    4.0221   14.3224   41.6434 H   0  0  0  0  0  0  0  0  0  0  0  0
    0.3178   15.8027   44.3385 H   0  0  0  0  0  0  0  0  0  0  0  0
    0.8705   18.8007   37.6086 H   0  0  0  0  0  0  0  0  0  0  0  0
    2.5002   17.5902   39.2307 H   0  0  0  0  0  0  0  0  0  0  0  0
  1  2  1  0
  1 19  1  0
  1 20  2  0
  2  3  1  0
  2 16  2  0
  3  4  2  0
  4  5  1  0
  5 15  2  0
  5 17  1  0
  6 17  1  0
  6 18  2  0
  6 22  1  0
  7  8  1  0
  7 14  2  0
  7 18  1  0
  8  9  1  0
  8 13  2  0
  9 10  2  0
 10 11  1  0
 11 12  2  0
 11 23  1  0
 12 13  1  0
 14 22  1  0
 15 16  1  0
 16 21  1  0
  3 24  1  0
  4 25  1  0
  9 26  1  0
 10 27  1  0
 12 28  1  0
 13 29  1  0
 14 30  1  0
 15 31  1  0
 17 32  1  0
M  CHG  2  19  -1  21  -1
M  END
>  <mol_id>  (66) 
2026-08-23-6tgu-s0-n100-r3-0066

>  <rmsd_to_ref>  (66) 
3.438775510208564

$$$$
6tgu.A
     RDKit          3D

 32 34  0  0  0  0  0  0  0  0999 V2000
   -0.0458   21.9744   38.5738 C   0  0  0  0  0  0  0  0  0  0  0  0
    0.3260   21.0048   39.6990 C   0  0  0  0  0  0  0  0  0  0  0  0
   -0.3445   21.0471   40.9194 C   0  0  0  0  0  0  0  0  0  0  0  0
   -0.1676   20.0632   41.8977 C   0  0  0  0  0  0  0  0  0  0  0  0
    0.8314   19.0907   41.7457 C   0  0  0  0  0  0  0  0  0  0  0  0
    1.5058   16.7869   42.5827 C   0  0  0  0  0  0  0  0  0  0  0  0
    2.5934   15.0452   41.6033 C   0  0  0  0  0  0  0  0  0  0  0  0
    3.3772   14.3898   40.5557 C   0  0  0  0  0  0  0  0  0  0  0  0
    3.6627   13.0174   40.5897 C   0  0  0  0  0  0  0  0  0  0  0  0
    4.3813   12.4080   39.5659 C   0  0  0  0  0  0  0  0  0  0  0  0
    4.7745   13.1740   38.4846 C   0  0  0  0  0  0  0  0  0  0  0  0
    4.5084   14.5328   38.4077 C   0  0  0  0  0  0  0  0  0  0  0  0
    3.7982   15.1264   39.4475 C   0  0  0  0  0  0  0  0  0  0  0  0
    2.0908   14.3987   42.7014 C   0  0  0  0  0  0  0  0  0  0  0  0
    1.5078   19.0274   40.5191 C   0  0  0  0  0  0  0  0  0  0  0  0
    1.2495   19.9799   39.5316 C   0  0  0  0  0  0  0  0  0  0  0  0
    0.9824   18.0419   42.7040 N   0  0  0  0  0  0  0  0  0  0  0  0
    2.1989   16.3961   41.4568 N   0  0  0  0  0  0  0  0  0  0  0  0
   -1.0818   22.6794   38.7548 O   0  0  0  0  0  0  0  0  0  0  0  0
    0.6529   21.9348   37.5374 O   0  0  0  0  0  0  0  0  0  0  0  0
    1.8399   19.8474   38.2972 O   0  0  0  0  0  0  0  0  0  0  0  0
    1.0643   15.4391   43.6133 S   0  0  0  0  0  0  0  0  0  0  0  0
    5.6343   12.4205   37.1829 Cl  0  0  0  0  0  0  0  0  0  0  0  0
   -1.0345   21.8800   41.1199 H   0  0  0  0  0  0  0  0  0  0  0  0
   -0.8134   20.0521   42.7882 H   0  0  0  0  0  0  0  0  0  0  0  0
    3.3131   12.4129   41.4396 H   0  0  0  0  0  0  0  0  0  0  0  0
    4.6313   11.3380   39.6159 H   0  0  0  0  0  0  0  0  0  0  0  0
    4.8499   15.1264   37.5469 H   0  0  0  0  0  0  0  0  0  0  0  0
    3.5636   16.1998   39.3945 H   0  0  0  0  0  0  0  0  0  0  0  0
    2.3131   13.3543   42.9657 H   0  0  0  0  0  0  0  0  0  0  0  0
    2.2410   18.2283   40.3351 H   0  0  0  0  0  0  0  0  0  0  0  0
    0.6375   18.2717   43.6469 H   0  0  0  0  0  0  0  0  0  0  0  0
  1  2  1  0
  1 19  1  0
  1 20  2  0
  2  3  1  0
  2 16  2  0
  3  4  2  0
  4  5  1  0
  5 15  2  0
  5 17  1  0
  6 17  1  0
  6 18  2  0
  6 22  1  0
  7  8  1  0
  7 14  2  0
  7 18  1  0
  8  9  1  0
  8 13  2  0
  9 10  2  0
 10 11  1  0
 11 12  2  0
 11 23  1  0
 12 13  1  0
 14 22  1  0
 15 16  1  0
 16 21  1  0
  3 24  1  0
  4 25  1  0
  9 26  1  0
 10 27  1  0
 12 28  1  0
 13 29  1  0
 14 30  1  0
 15 31  1  0
 17 32  1  0
M  CHG  2  19  -1  21  -1
M  END
>  <mol_id>  (67) 
2026-08-23-6tgu-s0-n100-r3-0067

>  <rmsd_to_ref>  (67) 
3.4846938775548386

$$$$
6tgu.A
     RDKit          3D

 32 34  0  0  0  0  0  0  0  0999 V2000
   -1.2992   23.0158   40.3617 C   0  0  0  0  0  0  0  0  0  0  0  0
   -0.5705   21.7606   40.4168 C   0  0  0  0  0  0  0  0  0  0  0  0
   -0.8615   20.8288   41.3929 C   0  0  0  0  0  0  0  0  0  0  0  0
   -0.1665   19.6154   41.4556 C   0  0  0  0  0  0  0  0  0  0  0  0
    0.8247   19.2816   40.5720 C   0  0  0  0  0  0  0  0  0  0  0  0
    1.2072   16.8639   41.1087 C   0  0  0  0  0  0  0  0  0  0  0  0
    1.3390   14.6770   41.7368 C   0  0  0  0  0  0  0  0  0  0  0  0
    2.0934   13.4024   41.7981 C   0  0  0  0  0  0  0  0  0  0  0  0
    1.5391   12.2992   42.3945 C   0  0  0  0  0  0  0  0  0  0  0  0
    2.2880   11.1400   42.4218 C   0  0  0  0  0  0  0  0  0  0  0  0
    3.5578   11.0482   41.8790 C   0  0  0  0  0  0  0  0  0  0  0  0
    4.1190   12.1681   41.2741 C   0  0  0  0  0  0  0  0  0  0  0  0
    3.3560   13.3080   41.2593 C   0  0  0  0  0  0  0  0  0  0  0  0
    0.0142   14.7351   42.3147 C   0  0  0  0  0  0  0  0  0  0  0  0
    1.1136   20.2317   39.5860 C   0  0  0  0  0  0  0  0  0  0  0  0
    0.4302   21.4228   39.5259 C   0  0  0  0  0  0  0  0  0  0  0  0
    1.5556   18.0852   40.5497 N   0  0  0  0  0  0  0  0  0  0  0  0
    1.7487   15.7540   41.2140 N   0  0  0  0  0  0  0  0  0  0  0  0
   -0.9640   23.9262   39.3479 O   0  0  0  0  0  0  0  0  0  0  0  0
   -2.2138   23.2979   41.1953 O   0  0  0  0  0  0  0  0  0  0  0  0
    0.7284   22.3579   38.5405 O   0  0  0  0  0  0  0  0  0  0  0  0
   -0.4165   16.5223   41.9466 S   0  0  0  0  0  0  0  0  0  0  0  0
    4.4693    9.5411   41.9424 Cl  0  0  0  0  0  0  0  0  0  0  0  0
   -1.6440   21.0398   42.1251 H   0  0  0  0  0  0  0  0  0  0  0  0
   -0.4418   18.9608   42.2377 H   0  0  0  0  0  0  0  0  0  0  0  0
    0.5514   12.3071   42.8367 H   0  0  0  0  0  0  0  0  0  0  0  0
    1.8624   10.2674   42.8874 H   0  0  0  0  0  0  0  0  0  0  0  0
    5.0877   12.1642   40.8388 H   0  0  0  0  0  0  0  0  0  0  0  0
    3.7588   14.1967   40.7987 H   0  0  0  0  0  0  0  0  0  0  0  0
   -0.5684   14.0721   42.7853 H   0  0  0  0  0  0  0  0  0  0  0  0
    1.8854   20.0347   38.8553 H   0  0  0  0  0  0  0  0  0  0  0  0
    2.4983   18.1097   40.0451 H   0  0  0  0  0  0  0  0  0  0  0  0
  1  2  1  0
  1 19  1  0
  1 20  2  0
  2  3  1  0
  2 16  2  0
  3  4  2  0
  4  5  1  0
  5 15  2  0
  5 17  1  0
  6 17  1  0
  6 18  2  0
  6 22  1  0
  7  8  1  0
  7 14  2  0
  7 18  1  0
  8  9  1  0
  8 13  2  0
  9 10  2  0
 10 11  1  0
 11 12  2  0
 11 23  1  0
 12 13  1  0
 14 22  1  0
 15 16  1  0
 16 21  1  0
  3 24  1  0
  4 25  1  0
  9 26  1  0
 10 27  1  0
 12 28  1  0
 13 29  1  0
 14 30  1  0
 15 31  1  0
 17 32  1  0
M  CHG  2  19  -1  21  -1
M  END
>  <mol_id>  (68) 
2026-08-23-6tgu-s0-n100-r3-0068

>  <rmsd_to_ref>  (68) 
3.5306122449029878

$$$$
6tgu.A
     RDKit          3D

 32 34  0  0  0  0  0  0  0  0999 V2000
   -0.1686   17.5040   36.0478 C   0  0  0  0  0  0  0  0  0  0  0  0
    0.0512   17.6830   37.5526 C   0  0  0  0  0  0  0  0  0  0  0  0
   -0.9591   18.2039   38.3579 C   0  0  0  0  0  0  0  0  0  0  0  0
   -0.8684   18.2062   39.7537 C   0  0  0  0  0  0  0  0  0  0  0  0
    0.3305   17.8391   40.3820 C   0  0  0  0  0  0  0  0  0  0  0  0
    1.2398   17.0480   42.6204 C   0  0  0  0  0  0  0  0  0  0  0  0
    2.9658   15.6795   43.1896 C   0  0  0  0  0  0  0  0  0  0  0  0
    4.1731   14.8915   42.9396 C   0  0  0  0  0  0  0  0  0  0  0  0
    4.7545   14.0877   43.9305 C   0  0  0  0  0  0  0  0  0  0  0  0
    5.8834   13.3201   43.6615 C   0  0  0  0  0  0  0  0  0  0  0  0
    6.4010   13.3284   42.3799 C   0  0  0  0  0  0  0  0  0  0  0  0
    5.8543   14.1039   41.3686 C   0  0  0  0  0  0  0  0  0  0  0  0
    4.7318   14.8738   41.6606 C   0  0  0  0  0  0  0  0  0  0  0  0
    2.3137   15.7205   44.3935 C   0  0  0  0  0  0  0  0  0  0  0  0
    1.3533   17.3024   39.5870 C   0  0  0  0  0  0  0  0  0  0  0  0
    1.1984   17.2412   38.2009 C   0  0  0  0  0  0  0  0  0  0  0  0
    0.4193   17.7746   41.8064 N   0  0  0  0  0  0  0  0  0  0  0  0
    2.3249   16.3566   42.1251 N   0  0  0  0  0  0  0  0  0  0  0  0
   -1.3463   17.6920   35.6226 O   0  0  0  0  0  0  0  0  0  0  0  0
    0.8091   17.1098   35.3750 O   0  0  0  0  0  0  0  0  0  0  0  0
    2.1613   16.6188   37.4424 O   0  0  0  0  0  0  0  0  0  0  0  0
    0.8337   16.5926   44.2639 S   0  0  0  0  0  0  0  0  0  0  0  0
    7.7818   12.3460   42.0196 Cl  0  0  0  0  0  0  0  0  0  0  0  0
   -1.8560   18.6264   37.8814 H   0  0  0  0  0  0  0  0  0  0  0  0
   -1.7392   18.4964   40.3598 H   0  0  0  0  0  0  0  0  0  0  0  0
    4.3110   14.0636   44.9369 H   0  0  0  0  0  0  0  0  0  0  0  0
    6.3545   12.7187   44.4529 H   0  0  0  0  0  0  0  0  0  0  0  0
    6.2963   14.1106   40.3614 H   0  0  0  0  0  0  0  0  0  0  0  0
    4.2750   15.4817   40.8658 H   0  0  0  0  0  0  0  0  0  0  0  0
    2.6856   15.2581   45.3198 H   0  0  0  0  0  0  0  0  0  0  0  0
    2.2765   16.9301   40.0549 H   0  0  0  0  0  0  0  0  0  0  0  0
   -0.2498   18.3793   42.3041 H   0  0  0  0  0  0  0  0  0  0  0  0
  1  2  1  0
  1 19  1  0
  1 20  2  0
  2  3  1  0
  2 16  2  0
  3  4  2  0
  4  5  1  0
  5 15  2  0
  5 17  1  0
  6 17  1  0
  6 18  2  0
  6 22  1  0
  7  8  1  0
  7 14  2  0
  7 18  1  0
  8  9  1  0
  8 13  2  0
  9 10  2  0
 10 11  1  0
 11 12  2  0
 11 23  1  0
 12 13  1  0
 14 22  1  0
 15 16  1  0
 16 21  1  0
  3 24  1  0
  4 25  1  0
  9 26  1  0
 10 27  1  0
 12 28  1  0
 13 29  1  0
 14 30  1  0
 15 31  1  0
 17 32  1  0
M  CHG  2  19  -1  21  -1
M  END
>  <mol_id>  (69) 
2026-08-23-6tgu-s0-n100-r3-0069

>  <rmsd_to_ref>  (69) 
3.5765306122472893

$$$$
6tgu.A
     RDKit          3D

 32 34  0  0  0  0  0  0  0  0999 V2000
    3.7269   22.7774   40.9805 C   0  0  0  0  0  0  0  0  0  0  0  0
    2.8073   21.6390   40.9923 C   0  0  0  0  0  0  0  0  0  0  0  0
    3.2190   20.3436   41.2259 C   0  0  0  0  0  0  0  0  0  0  0  0
    2.3185   19.2921   41.2205 C   0  0  0  0  0  0  0  0  0  0  0  0
    0.9875   19.5081   40.9828 C   0  0  0  0  0  0  0  0  0  0  0  0
    0.2224   17.1223   41.0855 C   0  0  0  0  0  0  0  0  0  0  0  0
    0.6962   14.9502   40.7150 C   0  0  0  0  0  0  0  0  0  0  0  0
    1.1278   13.9129   39.7491 C   0  0  0  0  0  0  0  0  0  0  0  0
    1.2543   12.5908   40.1222 C   0  0  0  0  0  0  0  0  0  0  0  0
    1.6561   11.5890   39.2665 C   0  0  0  0  0  0  0  0  0  0  0  0
    1.9427   11.9727   37.9550 C   0  0  0  0  0  0  0  0  0  0  0  0
    1.8381   13.2648   37.5209 C   0  0  0  0  0  0  0  0  0  0  0  0
    1.4288   14.2145   38.4370 C   0  0  0  0  0  0  0  0  0  0  0  0
    0.4218   14.6338   42.0227 C   0  0  0  0  0  0  0  0  0  0  0  0
    0.5997   20.8340   40.7496 C   0  0  0  0  0  0  0  0  0  0  0  0
    1.4797   21.8763   40.7525 C   0  0  0  0  0  0  0  0  0  0  0  0
   -0.0100   18.5198   40.9368 N   0  0  0  0  0  0  0  0  0  0  0  0
    0.5496   16.2140   40.4195 N   0  0  0  0  0  0  0  0  0  0  0  0
    5.0835   22.6576   41.2210 O   0  0  0  0  0  0  0  0  0  0  0  0
    3.2524   23.9262   40.7373 O   0  0  0  0  0  0  0  0  0  0  0  0
    1.0075   23.1795   40.5086 O   0  0  0  0  0  0  0  0  0  0  0  0
   -0.0506   16.2910   42.7440 S   0  0  0  0  0  0  0  0  0  0  0  0
    2.4530   10.6980   36.8724 Cl  0  0  0  0  0  0  0  0  0  0  0  0
    4.2689   20.1547   41.4148 H   0  0  0  0  0  0  0  0  0  0  0  0
    2.6333   18.2807   41.4010 H   0  0  0  0  0  0  0  0  0  0  0  0
    1.0275   12.3258   41.1328 H   0  0  0  0  0  0  0  0  0  0  0  0
    1.7320   10.5898   39.6249 H   0  0  0  0  0  0  0  0  0  0  0  0
    2.0676   13.5499   36.4913 H   0  0  0  0  0  0  0  0  0  0  0  0
    1.3288   15.2587   38.1473 H   0  0  0  0  0  0  0  0  0  0  0  0
    0.4300   13.7594   42.5957 H   0  0  0  0  0  0  0  0  0  0  0  0
   -0.4546   21.0721   40.5532 H   0  0  0  0  0  0  0  0  0  0  0  0
   -1.0099   18.7928   40.7832 H   0  0  0  0  0  0  0  0  0  0  0  0
  1  2  1  0
  1 19  1  0
  1 20  2  0
  2  3  1  0
  2 16  2  0
  3  4  2  0
  4  5  1  0
  5 15  2  0
  5 17  1  0
  6 17  1  0
  6 18  2  0
  6 22  1  0
  7  8  1  0
  7 14  2  0
  7 18  1  0
  8  9  1  0
  8 13  2  0
  9 10  2  0
 10 11  1  0
 11 12  2  0
 11 23  1  0
 12 13  1  0
 14 22  1  0
 15 16  1  0
 16 21  1  0
  3 24  1  0
  4 25  1  0
  9 26  1  0
 10 27  1  0
 12 28  1  0
 13 29  1  0
 14 30  1  0
 15 31  1  0
 17 32  1  0
M  CHG  2  19  -1  21  -1
M  END
>  <mol_id>  (70) 
2026-08-23-6tgu-s0-n100-r3-0070

>  <rmsd_to_ref>  (70) 
3.6224489795982877

$$$$
6tgu.A
     RDKit          3D

 32 34  0  0  0  0  0  0  0  0999 V2000
    2.9724   15.7329   36.5144 C   0  0  0  0  0  0  0  0  0  0  0  0
    2.7435   16.7009   37.6785 C   0  0  0  0  0  0  0  0  0  0  0  0
    2.7481   18.0775   37.4650 C   0  0  0  0  0  0  0  0  0  0  0  0
    2.3575   18.9834   38.4566 C   0  0  0  0  0  0  0  0  0  0  0  0
    2.1144   18.5356   39.7632 C   0  0  0  0  0  0  0  0  0  0  0  0
    0.9328   19.2151   41.9092 C   0  0  0  0  0  0  0  0  0  0  0  0
   -0.0950   18.0216   43.5507 C   0  0  0  0  0  0  0  0  0  0  0  0
   -0.4651   16.8044   44.2737 C   0  0  0  0  0  0  0  0  0  0  0  0
   -1.3656   16.8229   45.3483 C   0  0  0  0  0  0  0  0  0  0  0  0
   -1.7297   15.6489   46.0003 C   0  0  0  0  0  0  0  0  0  0  0  0
   -1.2196   14.4494   45.5405 C   0  0  0  0  0  0  0  0  0  0  0  0
   -0.3310   14.3847   44.4778 C   0  0  0  0  0  0  0  0  0  0  0  0
    0.0299   15.5715   43.8458 C   0  0  0  0  0  0  0  0  0  0  0  0
   -0.5682   19.2694   43.8595 C   0  0  0  0  0  0  0  0  0  0  0  0
    2.0950   17.1525   39.9925 C   0  0  0  0  0  0  0  0  0  0  0  0
    2.4131   16.2706   38.9580 C   0  0  0  0  0  0  0  0  0  0  0  0
    1.6530   19.4372   40.7709 N   0  0  0  0  0  0  0  0  0  0  0  0
    0.6960   17.9413   42.3803 N   0  0  0  0  0  0  0  0  0  0  0  0
    2.9946   16.2397   35.3543 O   0  0  0  0  0  0  0  0  0  0  0  0
    3.0380   14.5158   36.7937 O   0  0  0  0  0  0  0  0  0  0  0  0
    2.2894   14.9172   39.1648 O   0  0  0  0  0  0  0  0  0  0  0  0
   -0.0720   20.4256   42.6827 S   0  0  0  0  0  0  0  0  0  0  0  0
   -1.6959   12.9754   46.3164 Cl  0  0  0  0  0  0  0  0  0  0  0  0
    3.0688   18.4640   36.4864 H   0  0  0  0  0  0  0  0  0  0  0  0
    2.2407   20.0493   38.2110 H   0  0  0  0  0  0  0  0  0  0  0  0
   -1.7912   17.7811   45.6812 H   0  0  0  0  0  0  0  0  0  0  0  0
   -2.4098   15.6748   46.8644 H   0  0  0  0  0  0  0  0  0  0  0  0
    0.0783   13.4203   44.1428 H   0  0  0  0  0  0  0  0  0  0  0  0
    0.7204   15.5368   42.9903 H   0  0  0  0  0  0  0  0  0  0  0  0
   -1.1832   19.5022   44.7414 H   0  0  0  0  0  0  0  0  0  0  0  0
    1.8295   16.7627   40.9863 H   0  0  0  0  0  0  0  0  0  0  0  0
    1.9070   20.4226   40.6114 H   0  0  0  0  0  0  0  0  0  0  0  0
  1  2  1  0
  1 19  1  0
  1 20  2  0
  2  3  1  0
  2 16  2  0
  3  4  2  0
  4  5  1  0
  5 15  2  0
  5 17  1  0
  6 17  1  0
  6 18  2  0
  6 22  1  0
  7  8  1  0
  7 14  2  0
  7 18  1  0
  8  9  1  0
  8 13  2  0
  9 10  2  0
 10 11  1  0
 11 12  2  0
 11 23  1  0
 12 13  1  0
 14 22  1  0
 15 16  1  0
 16 21  1  0
  3 24  1  0
  4 25  1  0
  9 26  1  0
 10 27  1  0
 12 28  1  0
 13 29  1  0
 14 30  1  0
 15 31  1  0
 17 32  1  0
M  CHG  2  19  -1  21  -1
M  END
>  <mol_id>  (71) 
2026-08-23-6tgu-s0-n100-r3-0071

>  <rmsd_to_ref>  (71) 
3.668367346939603

$$$$
6tgu.A
     RDKit          3D

 32 34  0  0  0  0  0  0  0  0999 V2000
    3.9729   18.4414   34.8464 C   0  0  0  0  0  0  0  0  0  0  0  0
    3.7686   17.8314   36.1514 C   0  0  0  0  0  0  0  0  0  0  0  0
    2.8349   18.4045   36.9864 C   0  0  0  0  0  0  0  0  0  0  0  0
    2.6102   17.8578   38.2320 C   0  0  0  0  0  0  0  0  0  0  0  0
    3.2676   16.7539   38.7139 C   0  0  0  0  0  0  0  0  0  0  0  0
    1.9047   16.1279   40.7393 C   0  0  0  0  0  0  0  0  0  0  0  0
    0.3201   15.8570   42.3072 C   0  0  0  0  0  0  0  0  0  0  0  0
   -0.0029   15.3467   43.6647 C   0  0  0  0  0  0  0  0  0  0  0  0
    0.9153   14.7504   44.4715 C   0  0  0  0  0  0  0  0  0  0  0  0
    0.5773   14.2867   45.7388 C   0  0  0  0  0  0  0  0  0  0  0  0
   -0.7329   14.4352   46.1964 C   0  0  0  0  0  0  0  0  0  0  0  0
   -1.6795   15.0371   45.3942 C   0  0  0  0  0  0  0  0  0  0  0  0
   -1.2915   15.4787   44.1467 C   0  0  0  0  0  0  0  0  0  0  0  0
   -0.5840   16.4517   41.5136 C   0  0  0  0  0  0  0  0  0  0  0  0
    4.2144   16.1863   37.8480 C   0  0  0  0  0  0  0  0  0  0  0  0
    4.4557   16.7195   36.5916 C   0  0  0  0  0  0  0  0  0  0  0  0
    3.0816   16.1340   39.9472 N   0  0  0  0  0  0  0  0  0  0  0  0
    1.5209   15.7767   41.7629 N   0  0  0  0  0  0  0  0  0  0  0  0
    4.9262   17.8562   33.9956 O   0  0  0  0  0  0  0  0  0  0  0  0
    3.3443   19.4565   34.4478 O   0  0  0  0  0  0  0  0  0  0  0  0
    5.3971   16.1325   35.7630 O   0  0  0  0  0  0  0  0  0  0  0  0
    0.3068   16.8718   40.0280 S   0  0  0  0  0  0  0  0  0  0  0  0
   -1.2423   13.8851   47.7681 Cl  0  0  0  0  0  0  0  0  0  0  0  0
    2.2775   19.2848   36.6611 H   0  0  0  0  0  0  0  0  0  0  0  0
    1.8807   18.3512   38.8489 H   0  0  0  0  0  0  0  0  0  0  0  0
    1.9309   14.6347   44.1182 H   0  0  0  0  0  0  0  0  0  0  0  0
    1.2967   13.8159   46.3753 H   0  0  0  0  0  0  0  0  0  0  0  0
   -2.7189   15.1720   45.7209 H   0  0  0  0  0  0  0  0  0  0  0  0
   -2.0596   15.9484   43.5394 H   0  0  0  0  0  0  0  0  0  0  0  0
   -1.6834   16.6765   41.6724 H   0  0  0  0  0  0  0  0  0  0  0  0
    4.7741   15.3157   38.1516 H   0  0  0  0  0  0  0  0  0  0  0  0
    3.8951   15.5935   40.3798 H   0  0  0  0  0  0  0  0  0  0  0  0
  1  2  1  0
  1 19  1  0
  1 20  2  0
  2  3  1  0
  2 16  2  0
  3  4  2  0
  4  5  1  0
  5 15  2  0
  5 17  1  0
  6 17  1  0
  6 18  2  0
  6 22  1  0
  7  8  1  0
  7 14  2  0
  7 18  1  0
  8  9  1  0
  8 13  2  0
  9 10  2  0
 10 11  1  0
 11 12  2  0
 11 23  1  0
 12 13  1  0
 14 22  1  0
 15 16  1  0
 16 21  1  0
  3 24  1  0
  4 25  1  0
  9 26  1  0
 10 27  1  0
 12 28  1  0
 13 29  1  0
 14 30  1  0
 15 31  1  0
 17 32  1  0
M  CHG  2  19  -1  21  -1
M  END
>  <mol_id>  (72) 
2026-08-23-6tgu-s0-n100-r3-0072

>  <rmsd_to_ref>  (72) 
3.714285714287695

$$$$
6tgu.A
     RDKit          3D

 32 34  0  0  0  0  0  0  0  0999 V2000
    5.8042   19.6195   40.0252 C   0  0  0  0  0  0  0  0  0  0  0  0
    4.5671   19.3545   40.8878 C   0  0  0  0  0  0  0  0  0  0  0  0
    4.2269   20.2233   41.9223 C   0  0  0  0  0  0  0  0  0  0  0  0
    3.0105   20.1232   42.6055 C   0  0  0  0  0  0  0  0  0  0  0  0
    2.1660   19.0259   42.3826 C   0  0  0  0  0  0  0  0  0  0  0  0
   -0.2513   18.2897   42.6621 C   0  0  0  0  0  0  0  0  0  0  0  0
   -1.5886   16.8929   41.4638 C   0  0  0  0  0  0  0  0  0  0  0  0
   -1.8800   15.8847   40.4441 C   0  0  0  0  0  0  0  0  0  0  0  0
   -3.1905   15.4813   40.1508 C   0  0  0  0  0  0  0  0  0  0  0  0
   -3.4475   14.5455   39.1538 C   0  0  0  0  0  0  0  0  0  0  0  0
   -2.3861   14.0483   38.4213 C   0  0  0  0  0  0  0  0  0  0  0  0
   -1.0753   14.4240   38.6740 C   0  0  0  0  0  0  0  0  0  0  0  0
   -0.8377   15.3529   39.6833 C   0  0  0  0  0  0  0  0  0  0  0  0
   -2.5453   17.5114   42.2245 C   0  0  0  0  0  0  0  0  0  0  0  0
    2.4882   18.1483   41.3376 C   0  0  0  0  0  0  0  0  0  0  0  0
    3.6738   18.3237   40.6216 C   0  0  0  0  0  0  0  0  0  0  0  0
    0.8922   18.9418   43.0242 N   0  0  0  0  0  0  0  0  0  0  0  0
   -0.2707   17.3821   41.6245 N   0  0  0  0  0  0  0  0  0  0  0  0
    6.3830   20.7328   40.1944 O   0  0  0  0  0  0  0  0  0  0  0  0
    6.0950   18.7545   39.1702 O   0  0  0  0  0  0  0  0  0  0  0  0
    3.9284   17.5227   39.5338 O   0  0  0  0  0  0  0  0  0  0  0  0
   -1.8565   18.7710   43.1769 S   0  0  0  0  0  0  0  0  0  0  0  0
   -2.6947   12.9131   37.1494 Cl  0  0  0  0  0  0  0  0  0  0  0  0
    4.9369   21.0124   42.2108 H   0  0  0  0  0  0  0  0  0  0  0  0
    2.7157   20.9067   43.3191 H   0  0  0  0  0  0  0  0  0  0  0  0
   -4.0289   15.9117   40.7181 H   0  0  0  0  0  0  0  0  0  0  0  0
   -4.4750   14.2080   38.9525 H   0  0  0  0  0  0  0  0  0  0  0  0
   -0.2445   13.9988   38.0918 H   0  0  0  0  0  0  0  0  0  0  0  0
    0.1945   15.6750   39.8857 H   0  0  0  0  0  0  0  0  0  0  0  0
   -3.6113   17.2401   42.2269 H   0  0  0  0  0  0  0  0  0  0  0  0
    1.8076   17.3228   41.0822 H   0  0  0  0  0  0  0  0  0  0  0  0
    0.8251   19.4616   43.9108 H   0  0  0  0  0  0  0  0  0  0  0  0
  1  2  1  0
  1 19  1  0
  1 20  2  0
  2  3  1  0
  2 16  2  0
  3  4  2  0
  4  5  1  0
  5 15  2  0
  5 17  1  0
  6 17  1  0
  6 18  2  0
  6 22  1  0
  7  8  1  0
  7 14  2  0
  7 18  1  0
  8  9  1  0
  8 13  2  0
  9 10  2  0
 10 11  1  0
 11 12  2  0
 11 23  1  0
 12 13  1  0
 14 22  1  0
 15 16  1  0
 16 21  1  0
  3 24  1  0
  4 25  1  0
  9 26  1  0
 10 27  1  0
 12 28  1  0
 13 29  1  0
 14 30  1  0
 15 31  1  0
 17 32  1  0
M  CHG  2  19  -1  21  -1
M  END
>  <mol_id>  (73) 
2026-08-23-6tgu-s0-n100-r3-0073

>  <rmsd_to_ref>  (73) 
3.7602040816402487

$$$$
6tgu.A
     RDKit          3D

 32 34  0  0  0  0  0  0  0  0999 V2000
    4.8695   22.1368   42.2426 C   0  0  0  0  0  0  0  0  0  0  0  0
    3.8170   21.1472   42.3894 C   0  0  0  0  0  0  0  0  0  0  0  0
    3.4310   20.7839   43.6715 C   0  0  0  0  0  0  0  0  0  0  0  0
    2.4305   19.8562   43.8685 C   0  0  0  0  0  0  0  0  0  0  0  0
    1.7939   19.2712   42.7693 C   0  0  0  0  0  0  0  0  0  0  0  0
    0.1438   17.5429   41.9980 C   0  0  0  0  0  0  0  0  0  0  0  0
   -0.6159   15.9418   40.6149 C   0  0  0  0  0  0  0  0  0  0  0  0
   -0.6587   14.5084   40.3080 C   0  0  0  0  0  0  0  0  0  0  0  0
   -0.0169   13.5536   41.0666 C   0  0  0  0  0  0  0  0  0  0  0  0
   -0.0839   12.2183   40.7676 C   0  0  0  0  0  0  0  0  0  0  0  0
   -0.8027   11.7589   39.6833 C   0  0  0  0  0  0  0  0  0  0  0  0
   -1.4590   12.7023   38.9025 C   0  0  0  0  0  0  0  0  0  0  0  0
   -1.3788   14.0425   39.2208 C   0  0  0  0  0  0  0  0  0  0  0  0
   -1.2654   16.8743   39.8572 C   0  0  0  0  0  0  0  0  0  0  0  0
    2.1914   19.6443   41.5020 C   0  0  0  0  0  0  0  0  0  0  0  0
    3.1924   20.5728   41.2990 C   0  0  0  0  0  0  0  0  0  0  0  0
    0.7703   18.3573   43.0305 N   0  0  0  0  0  0  0  0  0  0  0  0
    0.0374   16.4498   41.6444 N   0  0  0  0  0  0  0  0  0  0  0  0
    5.2498   22.5188   40.9853 O   0  0  0  0  0  0  0  0  0  0  0  0
    5.4390   22.6515   43.2584 O   0  0  0  0  0  0  0  0  0  0  0  0
    3.5949   20.9515   40.0273 O   0  0  0  0  0  0  0  0  0  0  0  0
   -0.8904   18.4868   40.6924 S   0  0  0  0  0  0  0  0  0  0  0  0
   -0.8825   10.0575   39.3091 Cl  0  0  0  0  0  0  0  0  0  0  0  0
    3.9215   21.2332   44.5239 H   0  0  0  0  0  0  0  0  0  0  0  0
    2.1194   19.5622   44.8776 H   0  0  0  0  0  0  0  0  0  0  0  0
    0.5619   13.8510   41.9285 H   0  0  0  0  0  0  0  0  0  0  0  0
    0.4339   11.4865   41.3834 H   0  0  0  0  0  0  0  0  0  0  0  0
   -2.0284   12.3552   38.0457 H   0  0  0  0  0  0  0  0  0  0  0  0
   -1.9175   14.7463   38.5693 H   0  0  0  0  0  0  0  0  0  0  0  0
   -1.8895   16.8292   38.9536 H   0  0  0  0  0  0  0  0  0  0  0  0
    1.6964   19.1915   40.6536 H   0  0  0  0  0  0  0  0  0  0  0  0
    0.3906   18.1996   43.9796 H   0  0  0  0  0  0  0  0  0  0  0  0
  1  2  1  0
  1 19  1  0
  1 20  2  0
  2  3  1  0
  2 16  2  0
  3  4  2  0
  4  5  1  0
  5 15  2  0
  5 17  1  0
  6 17  1  0
  6 18  2  0
  6 22  1  0
  7  8  1  0
  7 14  2  0
  7 18  1  0
  8  9  1  0
  8 13  2  0
  9 10  2  0
 10 11  1  0
 11 12  2  0
 11 23  1  0
 12 13  1  0
 14 22  1  0
 15 16  1  0
 16 21  1  0
  3 24  1  0
  4 25  1  0
  9 26  1  0
 10 27  1  0
 12 28  1  0
 13 29  1  0
 14 30  1  0
 15 31  1  0
 17 32  1  0
M  CHG  2  19  -1  21  -1
M  END
>  <mol_id>  (74) 
2026-08-23-6tgu-s0-n100-r3-0074

>  <rmsd_to_ref>  (74) 
3.8061224489865695

$$$$
6tgu.A
     RDKit          3D

 32 34  0  0  0  0  0  0  0  0999 V2000
    4.5090   21.3136   42.0340 C   0  0  0  0  0  0  0  0  0  0  0  0
    3.8353   20.0672   42.6148 C   0  0  0  0  0  0  0  0  0  0  0  0
    3.1293   20.1386   43.8136 C   0  0  0  0  0  0  0  0  0  0  0  0
    2.3458   19.0769   44.2776 C   0  0  0  0  0  0  0  0  0  0  0  0
    2.3888   17.8341   43.6290 C   0  0  0  0  0  0  0  0  0  0  0  0
    1.0620   15.6811   43.3694 C   0  0  0  0  0  0  0  0  0  0  0  0
    0.8199   14.2144   41.6472 C   0  0  0  0  0  0  0  0  0  0  0  0
    1.1389   13.6357   40.3417 C   0  0  0  0  0  0  0  0  0  0  0  0
    0.3746   12.6034   39.7794 C   0  0  0  0  0  0  0  0  0  0  0  0
    0.6755   12.0905   38.5215 C   0  0  0  0  0  0  0  0  0  0  0  0
    1.7210   12.6487   37.8104 C   0  0  0  0  0  0  0  0  0  0  0  0
    2.4990   13.6744   38.3260 C   0  0  0  0  0  0  0  0  0  0  0  0
    2.1892   14.1663   39.5910 C   0  0  0  0  0  0  0  0  0  0  0  0
   -0.2214   13.7998   42.4348 C   0  0  0  0  0  0  0  0  0  0  0  0
    3.0857   17.7483   42.4154 C   0  0  0  0  0  0  0  0  0  0  0  0
    3.7939   18.8533   41.9395 C   0  0  0  0  0  0  0  0  0  0  0  0
    1.5470   16.7597   44.0513 N   0  0  0  0  0  0  0  0  0  0  0  0
    1.5203   15.3529   42.1112 N   0  0  0  0  0  0  0  0  0  0  0  0
    4.2486   22.4139   42.6037 O   0  0  0  0  0  0  0  0  0  0  0  0
    5.1945   21.1576   40.9999 O   0  0  0  0  0  0  0  0  0  0  0  0
    4.3858   18.7912   40.7003 O   0  0  0  0  0  0  0  0  0  0  0  0
   -0.4086   14.8306   43.8024 S   0  0  0  0  0  0  0  0  0  0  0  0
    2.0817   12.0480   36.2259 Cl  0  0  0  0  0  0  0  0  0  0  0  0
    3.1898   21.0584   44.4138 H   0  0  0  0  0  0  0  0  0  0  0  0
    1.6945   19.2169   45.1529 H   0  0  0  0  0  0  0  0  0  0  0  0
   -0.4767   12.1923   40.3419 H   0  0  0  0  0  0  0  0  0  0  0  0
    0.0930   11.2574   38.1013 H   0  0  0  0  0  0  0  0  0  0  0  0
    3.3396   14.0888   37.7501 H   0  0  0  0  0  0  0  0  0  0  0  0
    2.7853   14.9913   40.0081 H   0  0  0  0  0  0  0  0  0  0  0  0
   -0.8538   12.9253   42.2223 H   0  0  0  0  0  0  0  0  0  0  0  0
    3.0745   16.8115   41.8390 H   0  0  0  0  0  0  0  0  0  0  0  0
    1.2567   16.8070   45.0384 H   0  0  0  0  0  0  0  0  0  0  0  0
  1  2  1  0
  1 19  1  0
  1 20  2  0
  2  3  1  0
  2 16  2  0
  3  4  2  0
  4  5  1  0
  5 15  2  0
  5 17  1  0
  6 17  1  0
  6 18  2  0
  6 22  1  0
  7  8  1  0
  7 14  2  0
  7 18  1  0
  8  9  1  0
  8 13  2  0
  9 10  2  0
 10 11  1  0
 11 12  2  0
 11 23  1  0
 12 13  1  0
 14 22  1  0
 15 16  1  0
 16 21  1  0
  3 24  1  0
  4 25  1  0
  9 26  1  0
 10 27  1  0
 12 28  1  0
 13 29  1  0
 14 30  1  0
 15 31  1  0
 17 32  1  0
M  CHG  2  19  -1  21  -1
M  END
>  <mol_id>  (75) 
2026-08-23-6tgu-s0-n100-r3-0075

>  <rmsd_to_ref>  (75) 
3.852040816327955

$$$$
6tgu.A
     RDKit          3D

 32 34  0  0  0  0  0  0  0  0999 V2000
    3.4205   23.3358   42.7802 C   0  0  0  0  0  0  0  0  0  0  0  0
    3.1783   21.9156   42.5198 C   0  0  0  0  0  0  0  0  0  0  0  0
    1.9072   21.3930   42.6265 C   0  0  0  0  0  0  0  0  0  0  0  0
    1.6982   20.0342   42.3735 C   0  0  0  0  0  0  0  0  0  0  0  0
    2.7134   19.1829   42.0183 C   0  0  0  0  0  0  0  0  0  0  0  0
    1.3897   17.1435   41.4226 C   0  0  0  0  0  0  0  0  0  0  0  0
    0.0945   15.3327   40.8989 C   0  0  0  0  0  0  0  0  0  0  0  0
   -0.0928   13.8814   40.6294 C   0  0  0  0  0  0  0  0  0  0  0  0
    1.0113   13.0587   40.6910 C   0  0  0  0  0  0  0  0  0  0  0  0
    0.8327   11.7104   40.4395 C   0  0  0  0  0  0  0  0  0  0  0  0
   -0.4014   11.1764   40.1337 C   0  0  0  0  0  0  0  0  0  0  0  0
   -1.4648   12.0537   40.0882 C   0  0  0  0  0  0  0  0  0  0  0  0
   -1.3441   13.4067   40.3302 C   0  0  0  0  0  0  0  0  0  0  0  0
   -1.0320   16.2178   40.8428 C   0  0  0  0  0  0  0  0  0  0  0  0
    3.9787   19.7465   41.9215 C   0  0  0  0  0  0  0  0  0  0  0  0
    4.1859   21.0651   42.1664 C   0  0  0  0  0  0  0  0  0  0  0  0
    2.5880   17.8180   41.7318 N   0  0  0  0  0  0  0  0  0  0  0  0
    1.2197   15.8621   41.1845 N   0  0  0  0  0  0  0  0  0  0  0  0
    2.3560   24.1520   43.1362 O   0  0  0  0  0  0  0  0  0  0  0  0
    4.5902   23.7861   42.6754 O   0  0  0  0  0  0  0  0  0  0  0  0
    5.4845   21.5892   42.0555 O   0  0  0  0  0  0  0  0  0  0  0  0
   -0.2475   17.7958   41.2381 S   0  0  0  0  0  0  0  0  0  0  0  0
   -0.5950    9.4610   39.8196 Cl  0  0  0  0  0  0  0  0  0  0  0  0
    1.0905   22.0505   42.9062 H   0  0  0  0  0  0  0  0  0  0  0  0
    0.6951   19.6909   42.4808 H   0  0  0  0  0  0  0  0  0  0  0  0
    1.9941   13.4139   40.9231 H   0  0  0  0  0  0  0  0  0  0  0  0
    1.6880   11.0431   40.4822 H   0  0  0  0  0  0  0  0  0  0  0  0
   -2.4561   11.6772   39.8511 H   0  0  0  0  0  0  0  0  0  0  0  0
   -2.2235   14.0276   40.2757 H   0  0  0  0  0  0  0  0  0  0  0  0
   -2.0227   16.0218   40.6353 H   0  0  0  0  0  0  0  0  0  0  0  0
    4.8374   19.1364   41.6448 H   0  0  0  0  0  0  0  0  0  0  0  0
    3.4571   17.2308   41.7474 H   0  0  0  0  0  0  0  0  0  0  0  0
  1  2  1  0
  1 19  1  0
  1 20  2  0
  2  3  1  0
  2 16  2  0
  3  4  2  0
  4  5  1  0
  5 15  2  0
  5 17  1  0
  6 17  1  0
  6 18  2  0
  6 22  1  0
  7  8  1  0
  7 14  2  0
  7 18  1  0
  8  9  1  0
  8 13  2  0
  9 10  2  0
 10 11  1  0
 11 12  2  0
 11 23  1  0
 12 13  1  0
 14 22  1  0
 15 16  1  0
 16 21  1  0
  3 24  1  0
  4 25  1  0
  9 26  1  0
 10 27  1  0
 12 28  1  0
 13 29  1  0
 14 30  1  0
 15 31  1  0
 17 32  1  0
M  CHG  2  19  -1  21  -1
M  END
>  <mol_id>  (76) 
2026-08-23-6tgu-s0-n100-r3-0076

>  <rmsd_to_ref>  (76) 
3.897959183676786

$$$$
6tgu.A
     RDKit          3D

 32 34  0  0  0  0  0  0  0  0999 V2000
    5.3921   16.4632   35.7277 C   0  0  0  0  0  0  0  0  0  0  0  0
    4.9896   16.9126   37.1350 C   0  0  0  0  0  0  0  0  0  0  0  0
    5.5951   18.0203   37.7240 C   0  0  0  0  0  0  0  0  0  0  0  0
    5.1265   18.5736   38.9201 C   0  0  0  0  0  0  0  0  0  0  0  0
    4.1316   17.9159   39.6579 C   0  0  0  0  0  0  0  0  0  0  0  0
    2.3879   18.3372   41.4594 C   0  0  0  0  0  0  0  0  0  0  0  0
    0.3369   17.4396   41.8635 C   0  0  0  0  0  0  0  0  0  0  0  0
   -0.7507   16.4779   41.6806 C   0  0  0  0  0  0  0  0  0  0  0  0
   -1.9851   16.6192   42.3305 C   0  0  0  0  0  0  0  0  0  0  0  0
   -3.0175   15.7114   42.1161 C   0  0  0  0  0  0  0  0  0  0  0  0
   -2.8208   14.6848   41.2119 C   0  0  0  0  0  0  0  0  0  0  0  0
   -1.6184   14.5112   40.5432 C   0  0  0  0  0  0  0  0  0  0  0  0
   -0.5937   15.4234   40.7798 C   0  0  0  0  0  0  0  0  0  0  0  0
    0.2609   18.5348   42.6827 C   0  0  0  0  0  0  0  0  0  0  0  0
    3.5042   16.8060   39.0744 C   0  0  0  0  0  0  0  0  0  0  0  0
    3.9450   16.3263   37.8396 C   0  0  0  0  0  0  0  0  0  0  0  0
    3.5973   18.4998   40.8474 N   0  0  0  0  0  0  0  0  0  0  0  0
    1.5090   17.3464   41.0764 N   0  0  0  0  0  0  0  0  0  0  0  0
    6.1613   17.2374   35.0857 O   0  0  0  0  0  0  0  0  0  0  0  0
    4.8676   15.4132   35.2961 O   0  0  0  0  0  0  0  0  0  0  0  0
    3.2567   15.3048   37.2292 O   0  0  0  0  0  0  0  0  0  0  0  0
    1.6489   19.5388   42.5002 S   0  0  0  0  0  0  0  0  0  0  0  0
   -4.1113   13.5706   40.9040 Cl  0  0  0  0  0  0  0  0  0  0  0  0
    6.4688   18.4740   37.2332 H   0  0  0  0  0  0  0  0  0  0  0  0
    5.5392   19.5266   39.2828 H   0  0  0  0  0  0  0  0  0  0  0  0
   -2.1397   17.4614   43.0210 H   0  0  0  0  0  0  0  0  0  0  0  0
   -3.9712   15.8088   42.6556 H   0  0  0  0  0  0  0  0  0  0  0  0
   -1.4778   13.6740   39.8437 H   0  0  0  0  0  0  0  0  0  0  0  0
    0.3609   15.3106   40.2449 H   0  0  0  0  0  0  0  0  0  0  0  0
   -0.5751   18.7452   43.3660 H   0  0  0  0  0  0  0  0  0  0  0  0
    2.6657   16.3138   39.5889 H   0  0  0  0  0  0  0  0  0  0  0  0
    4.2329   19.1551   41.3244 H   0  0  0  0  0  0  0  0  0  0  0  0
  1  2  1  0
  1 19  1  0
  1 20  2  0
  2  3  1  0
  2 16  2  0
  3  4  2  0
  4  5  1  0
  5 15  2  0
  5 17  1  0
  6 17  1  0
  6 18  2  0
  6 22  1  0
  7  8  1  0
  7 14  2  0
  7 18  1  0
  8  9  1  0
  8 13  2  0
  9 10  2  0
 10 11  1  0
 11 12  2  0
 11 23  1  0
 12 13  1  0
 14 22  1  0
 15 16  1  0
 16 21  1  0
  3 24  1  0
  4 25  1  0
  9 26  1  0
 10 27  1  0
 12 28  1  0
 13 29  1  0
 14 30  1  0
 15 31  1  0
 17 32  1  0
M  CHG  2  19  -1  21  -1
M  END
>  <mol_id>  (77) 
2026-08-23-6tgu-s0-n100-r3-0077

>  <rmsd_to_ref>  (77) 
3.943877551025586

$$$$
6tgu.A
     RDKit          3D

 32 34  0  0  0  0  0  0  0  0999 V2000
    2.7140   16.3560   36.2770 C   0  0  0  0  0  0  0  0  0  0  0  0
    2.1992   17.1420   37.3828 C   0  0  0  0  0  0  0  0  0  0  0  0
    2.2334   16.6864   38.6719 C   0  0  0  0  0  0  0  0  0  0  0  0
    1.7134   17.4594   39.6978 C   0  0  0  0  0  0  0  0  0  0  0  0
    1.1539   18.6853   39.4775 C   0  0  0  0  0  0  0  0  0  0  0  0
    0.0077   19.0443   41.6917 C   0  0  0  0  0  0  0  0  0  0  0  0
   -0.4933   18.1050   43.6728 C   0  0  0  0  0  0  0  0  0  0  0  0
   -0.0819   17.2310   44.7969 C   0  0  0  0  0  0  0  0  0  0  0  0
   -0.9494   17.0215   45.8547 C   0  0  0  0  0  0  0  0  0  0  0  0
   -0.5651   16.1798   46.8848 C   0  0  0  0  0  0  0  0  0  0  0  0
    0.6595   15.5692   46.8392 C   0  0  0  0  0  0  0  0  0  0  0  0
    1.5590   15.7521   45.7989 C   0  0  0  0  0  0  0  0  0  0  0  0
    1.1730   16.5927   44.7769 C   0  0  0  0  0  0  0  0  0  0  0  0
   -1.7326   18.6792   43.6183 C   0  0  0  0  0  0  0  0  0  0  0  0
    1.1345   19.1234   38.1456 C   0  0  0  0  0  0  0  0  0  0  0  0
    1.6400   18.3808   37.1217 C   0  0  0  0  0  0  0  0  0  0  0  0
    0.5735   19.5276   40.4273 N   0  0  0  0  0  0  0  0  0  0  0  0
    0.2954   18.3635   42.6372 N   0  0  0  0  0  0  0  0  0  0  0  0
    3.3039   15.1142   36.4960 O   0  0  0  0  0  0  0  0  0  0  0  0
    2.6453   16.7662   35.1118 O   0  0  0  0  0  0  0  0  0  0  0  0
    1.5885   18.8766   35.8343 O   0  0  0  0  0  0  0  0  0  0  0  0
   -1.7318   19.6245   42.0047 S   0  0  0  0  0  0  0  0  0  0  0  0
    1.1251   14.5009   48.1430 Cl  0  0  0  0  0  0  0  0  0  0  0  0
    2.6787   15.7009   38.8722 H   0  0  0  0  0  0  0  0  0  0  0  0
    1.7632   17.0834   40.7050 H   0  0  0  0  0  0  0  0  0  0  0  0
   -1.9236   17.5108   45.8935 H   0  0  0  0  0  0  0  0  0  0  0  0
   -1.2266   16.0150   47.7037 H   0  0  0  0  0  0  0  0  0  0  0  0
    2.5222   15.2798   45.7583 H   0  0  0  0  0  0  0  0  0  0  0  0
    1.8253   16.7766   43.9476 H   0  0  0  0  0  0  0  0  0  0  0  0
   -2.6071   18.6885   44.2705 H   0  0  0  0  0  0  0  0  0  0  0  0
    0.6882   20.1076   37.9293 H   0  0  0  0  0  0  0  0  0  0  0  0
    0.5246   20.5547   40.2800 H   0  0  0  0  0  0  0  0  0  0  0  0
  1  2  1  0
  1 19  1  0
  1 20  2  0
  2  3  1  0
  2 16  2  0
  3  4  2  0
  4  5  1  0
  5 15  2  0
  5 17  1  0
  6 17  1  0
  6 18  2  0
  6 22  1  0
  7  8  1  0
  7 14  2  0
  7 18  1  0
  8  9  1  0
  8 13  2  0
  9 10  2  0
 10 11  1  0
 11 12  2  0
 11 23  1  0
 12 13  1  0
 14 22  1  0
 15 16  1  0
 16 21  1  0
  3 24  1  0
  4 25  1  0
  9 26  1  0
 10 27  1  0
 12 28  1  0
 13 29  1  0
 14 30  1  0
 15 31  1  0
 17 32  1  0
M  CHG  2  19  -1  21  -1
M  END
>  <mol_id>  (78) 
2026-08-23-6tgu-s0-n100-r3-0078

>  <rmsd_to_ref>  (78) 
3.989795918367479

$$$$
6tgu.A
     RDKit          3D

 32 34  0  0  0  0  0  0  0  0999 V2000
    6.2421   16.2968   37.9809 C   0  0  0  0  0  0  0  0  0  0  0  0
    4.7220   16.4512   38.0805 C   0  0  0  0  0  0  0  0  0  0  0  0
    3.9580   16.6797   36.9383 C   0  0  0  0  0  0  0  0  0  0  0  0
    2.5600   16.6372   36.9599 C   0  0  0  0  0  0  0  0  0  0  0  0
    1.8775   16.5347   38.1807 C   0  0  0  0  0  0  0  0  0  0  0  0
   -0.3802   15.8759   39.1460 C   0  0  0  0  0  0  0  0  0  0  0  0
   -0.9990   14.9289   41.1199 C   0  0  0  0  0  0  0  0  0  0  0  0
   -0.7910   14.4613   42.4907 C   0  0  0  0  0  0  0  0  0  0  0  0
   -1.7849   13.7718   43.1998 C   0  0  0  0  0  0  0  0  0  0  0  0
   -1.5542   13.3065   44.4906 C   0  0  0  0  0  0  0  0  0  0  0  0
   -0.3053   13.4975   45.0511 C   0  0  0  0  0  0  0  0  0  0  0  0
    0.7079   14.1689   44.3834 C   0  0  0  0  0  0  0  0  0  0  0  0
    0.4539   14.6369   43.0971 C   0  0  0  0  0  0  0  0  0  0  0  0
   -2.1645   14.7574   40.4209 C   0  0  0  0  0  0  0  0  0  0  0  0
    2.6310   16.2933   39.3384 C   0  0  0  0  0  0  0  0  0  0  0  0
    4.0250   16.2629   39.2681 C   0  0  0  0  0  0  0  0  0  0  0  0
    0.4534   16.4256   38.2151 N   0  0  0  0  0  0  0  0  0  0  0  0
    0.0761   15.4848   40.3869 N   0  0  0  0  0  0  0  0  0  0  0  0
    6.7270   16.2209   36.8138 O   0  0  0  0  0  0  0  0  0  0  0  0
    6.8713   16.1772   39.0550 O   0  0  0  0  0  0  0  0  0  0  0  0
    4.7485   15.9225   40.3863 O   0  0  0  0  0  0  0  0  0  0  0  0
   -1.9810   15.2601   38.7833 S   0  0  0  0  0  0  0  0  0  0  0  0
    0.0097   12.8877   46.6418 Cl  0  0  0  0  0  0  0  0  0  0  0  0
    4.4699   16.9003   35.9900 H   0  0  0  0  0  0  0  0  0  0  0  0
    1.9948   16.6843   36.0174 H   0  0  0  0  0  0  0  0  0  0  0  0
   -2.7629   13.5959   42.7279 H   0  0  0  0  0  0  0  0  0  0  0  0
   -2.3498   12.7967   45.0537 H   0  0  0  0  0  0  0  0  0  0  0  0
    1.6875   14.3275   44.8580 H   0  0  0  0  0  0  0  0  0  0  0  0
    1.2518   15.1565   42.5464 H   0  0  0  0  0  0  0  0  0  0  0  0
   -3.0938   14.3527   40.8482 H   0  0  0  0  0  0  0  0  0  0  0  0
    2.1244   16.1280   40.3007 H   0  0  0  0  0  0  0  0  0  0  0  0
   -0.0260   16.8307   37.3984 H   0  0  0  0  0  0  0  0  0  0  0  0
  1  2  1  0
  1 19  1  0
  1 20  2  0
  2  3  1  0
  2 16  2  0
  3  4  2  0
  4  5  1  0
  5 15  2  0
  5 17  1  0
  6 17  1  0
  6 18  2  0
  6 22  1  0
  7  8  1  0
  7 14  2  0
  7 18  1  0
  8  9  1  0
  8 13  2  0
  9 10  2  0
 10 11  1  0
 11 12  2  0
 11 23  1  0
 12 13  1  0
 14 22  1  0
 15 16  1  0
 16 21  1  0
  3 24  1  0
  4 25  1  0
  9 26  1  0
 10 27  1  0
 12 28  1  0
 13 29  1  0
 14 30  1  0
 15 31  1  0
 17 32  1  0
M  CHG  2  19  -1  21  -1
M  END
>  <mol_id>  (79) 
2026-08-23-6tgu-s0-n100-r3-0079

>  <rmsd_to_ref>  (79) 
4.0357142857176

$$$$
6tgu.A
     RDKit          3D

 32 34  0  0  0  0  0  0  0  0999 V2000
   -1.9807   21.2582   37.6289 C   0  0  0  0  0  0  0  0  0  0  0  0
   -0.9626   20.5953   38.4250 C   0  0  0  0  0  0  0  0  0  0  0  0
   -1.3107   19.9169   39.5757 C   0  0  0  0  0  0  0  0  0  0  0  0
   -0.3385   19.2737   40.3506 C   0  0  0  0  0  0  0  0  0  0  0  0
    0.9911   19.2756   40.0241 C   0  0  0  0  0  0  0  0  0  0  0  0
    1.9234   17.5934   41.6306 C   0  0  0  0  0  0  0  0  0  0  0  0
    2.5271   15.9997   43.1439 C   0  0  0  0  0  0  0  0  0  0  0  0
    3.5702   15.3351   43.9609 C   0  0  0  0  0  0  0  0  0  0  0  0
    3.2413   14.2890   44.7840 C   0  0  0  0  0  0  0  0  0  0  0  0
    4.2541   13.7090   45.5209 C   0  0  0  0  0  0  0  0  0  0  0  0
    5.5696   14.1353   45.4630 C   0  0  0  0  0  0  0  0  0  0  0  0
    5.9021   15.1966   44.6276 C   0  0  0  0  0  0  0  0  0  0  0  0
    4.8789   15.7566   43.9054 C   0  0  0  0  0  0  0  0  0  0  0  0
    1.1629   15.5265   43.2303 C   0  0  0  0  0  0  0  0  0  0  0  0
    1.3356   19.9658   38.8565 C   0  0  0  0  0  0  0  0  0  0  0  0
    0.3796   20.5970   38.0968 C   0  0  0  0  0  0  0  0  0  0  0  0
    2.0252   18.6436   40.7294 N   0  0  0  0  0  0  0  0  0  0  0  0
    2.7140   16.9697   42.3531 N   0  0  0  0  0  0  0  0  0  0  0  0
   -1.5717   21.9319   36.4678 O   0  0  0  0  0  0  0  0  0  0  0  0
   -3.2066   21.2394   37.9569 O   0  0  0  0  0  0  0  0  0  0  0  0
    0.7367   21.2795   36.9387 O   0  0  0  0  0  0  0  0  0  0  0  0
    0.3400   16.7030   42.0245 S   0  0  0  0  0  0  0  0  0  0  0  0
    6.8231   13.3570   46.4270 Cl  0  0  0  0  0  0  0  0  0  0  0  0
   -2.3574   19.8803   39.8855 H   0  0  0  0  0  0  0  0  0  0  0  0
   -0.6847   18.7852   41.2209 H   0  0  0  0  0  0  0  0  0  0  0  0
    2.2317   13.9096   44.8733 H   0  0  0  0  0  0  0  0  0  0  0  0
    4.0072   12.8865   46.1704 H   0  0  0  0  0  0  0  0  0  0  0  0
    6.8917   15.5715   44.5368 H   0  0  0  0  0  0  0  0  0  0  0  0
    5.0993   16.5822   43.2468 H   0  0  0  0  0  0  0  0  0  0  0  0
    0.7106   14.8005   43.7488 H   0  0  0  0  0  0  0  0  0  0  0  0
    2.3678   20.0091   38.5388 H   0  0  0  0  0  0  0  0  0  0  0  0
    3.0149   19.0120   40.5597 H   0  0  0  0  0  0  0  0  0  0  0  0
  1  2  1  0
  1 19  1  0
  1 20  2  0
  2  3  1  0
  2 16  2  0
  3  4  2  0
  4  5  1  0
  5 15  2  0
  5 17  1  0
  6 17  1  0
  6 18  2  0
  6 22  1  0
  7  8  1  0
  7 14  2  0
  7 18  1  0
  8  9  1  0
  8 13  2  0
  9 10  2  0
 10 11  1  0
 11 12  2  0
 11 23  1  0
 12 13  1  0
 14 22  1  0
 15 16  1  0
 16 21  1  0
  3 24  1  0
  4 25  1  0
  9 26  1  0
 10 27  1  0
 12 28  1  0
 13 29  1  0
 14 30  1  0
 15 31  1  0
 17 32  1  0
M  CHG  2  19  -1  21  -1
M  END
>  <mol_id>  (80) 
2026-08-23-6tgu-s0-n100-r3-0080

>  <rmsd_to_ref>  (80) 
4.081632653062297

$$$$
6tgu.A
     RDKit          3D

 32 34  0  0  0  0  0  0  0  0999 V2000
   -1.2898   19.8508   39.5728 C   0  0  0  0  0  0  0  0  0  0  0  0
   -0.5476   19.1355   40.7051 C   0  0  0  0  0  0  0  0  0  0  0  0
   -1.0493   19.1579   42.0045 C   0  0  0  0  0  0  0  0  0  0  0  0
   -0.5087   18.3652   43.0223 C   0  0  0  0  0  0  0  0  0  0  0  0
    0.6766   17.6486   42.8023 C   0  0  0  0  0  0  0  0  0  0  0  0
    2.0104   15.6857   43.7142 C   0  0  0  0  0  0  0  0  0  0  0  0
    3.3718   14.1526   42.7284 C   0  0  0  0  0  0  0  0  0  0  0  0
    4.1587   13.5863   41.6324 C   0  0  0  0  0  0  0  0  0  0  0  0
    4.7837   12.3354   41.7351 C   0  0  0  0  0  0  0  0  0  0  0  0
    5.4993   11.8005   40.6684 C   0  0  0  0  0  0  0  0  0  0  0  0
    5.5481   12.5074   39.4817 C   0  0  0  0  0  0  0  0  0  0  0  0
    4.9398   13.7449   39.3347 C   0  0  0  0  0  0  0  0  0  0  0  0
    4.2381   14.2683   40.4172 C   0  0  0  0  0  0  0  0  0  0  0  0
    3.1900   13.5368   43.9384 C   0  0  0  0  0  0  0  0  0  0  0  0
    1.1884   17.6066   41.4976 C   0  0  0  0  0  0  0  0  0  0  0  0
    0.5766   18.3485   40.4855 C   0  0  0  0  0  0  0  0  0  0  0  0
    1.2061   16.7847   43.8096 N   0  0  0  0  0  0  0  0  0  0  0  0
    2.6335   15.3438   42.5329 N   0  0  0  0  0  0  0  0  0  0  0  0
   -2.4394   20.3041   39.8487 O   0  0  0  0  0  0  0  0  0  0  0  0
   -0.7388   19.8592   38.4503 O   0  0  0  0  0  0  0  0  0  0  0  0
    1.0224   18.2184   39.1916 O   0  0  0  0  0  0  0  0  0  0  0  0
    2.0560   14.4006   44.9057 S   0  0  0  0  0  0  0  0  0  0  0  0
    6.4009   11.8351   38.1318 Cl  0  0  0  0  0  0  0  0  0  0  0  0
   -1.8967   19.8194   42.2374 H   0  0  0  0  0  0  0  0  0  0  0  0
   -1.0143   18.3037   43.9973 H   0  0  0  0  0  0  0  0  0  0  0  0
    4.7071   11.7677   42.6742 H   0  0  0  0  0  0  0  0  0  0  0  0
    6.0159   10.8345   40.7676 H   0  0  0  0  0  0  0  0  0  0  0  0
    5.0099   14.2988   38.3870 H   0  0  0  0  0  0  0  0  0  0  0  0
    3.7351   15.2410   40.3125 H   0  0  0  0  0  0  0  0  0  0  0  0
    3.7002   12.6137   44.2508 H   0  0  0  0  0  0  0  0  0  0  0  0
    2.0709   16.9900   41.2718 H   0  0  0  0  0  0  0  0  0  0  0  0
    0.9349   17.0335   44.7716 H   0  0  0  0  0  0  0  0  0  0  0  0
  1  2  1  0
  1 19  1  0
  1 20  2  0
  2  3  1  0
  2 16  2  0
  3  4  2  0
  4  5  1  0
  5 15  2  0
  5 17  1  0
  6 17  1  0
  6 18  2  0
  6 22  1  0
  7  8  1  0
  7 14  2  0
  7 18  1  0
  8  9  1  0
  8 13  2  0
  9 10  2  0
 10 11  1  0
 11 12  2  0
 11 23  1  0
 12 13  1  0
 14 22  1  0
 15 16  1  0
 16 21  1  0
  3 24  1  0
  4 25  1  0
  9 26  1  0
 10 27  1  0
 12 28  1  0
 13 29  1  0
 14 30  1  0
 15 31  1  0
 17 32  1  0
M  CHG  2  19  -1  21  -1
M  END
>  <mol_id>  (81) 
2026-08-23-6tgu-s0-n100-r3-0081

>  <rmsd_to_ref>  (81) 
4.127551020415602

$$$$
6tgu.A
     RDKit          3D

 32 34  0  0  0  0  0  0  0  0999 V2000
    0.8977   23.9184   42.4532 C   0  0  0  0  0  0  0  0  0  0  0  0
    1.1787   22.5597   42.0113 C   0  0  0  0  0  0  0  0  0  0  0  0
    1.7929   22.3540   40.7954 C   0  0  0  0  0  0  0  0  0  0  0  0
    2.0864   21.0982   40.3194 C   0  0  0  0  0  0  0  0  0  0  0  0
    1.7721   19.9464   41.0552 C   0  0  0  0  0  0  0  0  0  0  0  0
    1.6697   17.4415   40.8559 C   0  0  0  0  0  0  0  0  0  0  0  0
    1.4605   15.1887   40.8328 C   0  0  0  0  0  0  0  0  0  0  0  0
    1.8431   13.8695   40.2616 C   0  0  0  0  0  0  0  0  0  0  0  0
    1.2777   12.7251   40.7563 C   0  0  0  0  0  0  0  0  0  0  0  0
    1.6601   11.5100   40.1931 C   0  0  0  0  0  0  0  0  0  0  0  0
    2.5721   11.4237   39.1733 C   0  0  0  0  0  0  0  0  0  0  0  0
    3.1425   12.5690   38.6732 C   0  0  0  0  0  0  0  0  0  0  0  0
    2.7589   13.7690   39.2359 C   0  0  0  0  0  0  0  0  0  0  0  0
    0.5402   15.2811   41.8520 C   0  0  0  0  0  0  0  0  0  0  0  0
    1.1630   20.1622   42.2609 C   0  0  0  0  0  0  0  0  0  0  0  0
    0.8635   21.4381   42.7467 C   0  0  0  0  0  0  0  0  0  0  0  0
    2.1188   18.7148   40.4921 N   0  0  0  0  0  0  0  0  0  0  0  0
    1.9548   16.3084   40.4165 N   0  0  0  0  0  0  0  0  0  0  0  0
    0.2728   24.1128   43.6879 O   0  0  0  0  0  0  0  0  0  0  0  0
    1.1956   24.9246   41.7665 O   0  0  0  0  0  0  0  0  0  0  0  0
    0.2435   21.6104   43.9769 O   0  0  0  0  0  0  0  0  0  0  0  0
    0.4429   17.0790   42.1601 S   0  0  0  0  0  0  0  0  0  0  0  0
    2.9841    9.8249   38.5338 Cl  0  0  0  0  0  0  0  0  0  0  0  0
    2.0470   23.2490   40.2057 H   0  0  0  0  0  0  0  0  0  0  0  0
    2.5697   21.0445   39.3536 H   0  0  0  0  0  0  0  0  0  0  0  0
    0.5513   12.7252   41.5608 H   0  0  0  0  0  0  0  0  0  0  0  0
    1.2080   10.6078   40.5902 H   0  0  0  0  0  0  0  0  0  0  0  0
    3.8707   12.5102   37.8593 H   0  0  0  0  0  0  0  0  0  0  0  0
    3.2003   14.6685   38.8501 H   0  0  0  0  0  0  0  0  0  0  0  0
   -0.0392   14.5343   42.4042 H   0  0  0  0  0  0  0  0  0  0  0  0
    0.8976   19.3505   42.8877 H   0  0  0  0  0  0  0  0  0  0  0  0
    2.8169   18.7359   39.6824 H   0  0  0  0  0  0  0  0  0  0  0  0
  1  2  1  0
  1 19  1  0
  1 20  2  0
  2  3  1  0
  2 16  2  0
  3  4  2  0
  4  5  1  0
  5 15  2  0
  5 17  1  0
  6 17  1  0
  6 18  2  0
  6 22  1  0
  7  8  1  0
  7 14  2  0
  7 18  1  0
  8  9  1  0
  8 13  2  0
  9 10  2  0
 10 11  1  0
 11 12  2  0
 11 23  1  0
 12 13  1  0
 14 22  1  0
 15 16  1  0
 16 21  1  0
  3 24  1  0
  4 25  1  0
  9 26  1  0
 10 27  1  0
 12 28  1  0
 13 29  1  0
 14 30  1  0
 15 31  1  0
 17 32  1  0
M  CHG  2  19  -1  21  -1
M  END
>  <mol_id>  (82) 
2026-08-23-6tgu-s0-n100-r3-0082

>  <rmsd_to_ref>  (82) 
4.173469387756752

$$$$
6tgu.A
     RDKit          3D

 32 34  0  0  0  0  0  0  0  0999 V2000
    1.6632   16.0730   36.6277 C   0  0  0  0  0  0  0  0  0  0  0  0
    2.4121   16.6602   37.8273 C   0  0  0  0  0  0  0  0  0  0  0  0
    3.1561   17.8303   37.6929 C   0  0  0  0  0  0  0  0  0  0  0  0
    3.6946   18.4982   38.7976 C   0  0  0  0  0  0  0  0  0  0  0  0
    3.6478   17.9078   40.0688 C   0  0  0  0  0  0  0  0  0  0  0  0
    3.8109   18.4910   42.5380 C   0  0  0  0  0  0  0  0  0  0  0  0
    2.8400   17.6144   44.3993 C   0  0  0  0  0  0  0  0  0  0  0  0
    2.0698   16.6255   45.1542 C   0  0  0  0  0  0  0  0  0  0  0  0
    1.7310   16.8177   46.5012 C   0  0  0  0  0  0  0  0  0  0  0  0
    0.9690   15.8798   47.1909 C   0  0  0  0  0  0  0  0  0  0  0  0
    0.5104   14.7679   46.5100 C   0  0  0  0  0  0  0  0  0  0  0  0
    0.8169   14.5412   45.1766 C   0  0  0  0  0  0  0  0  0  0  0  0
    1.5900   15.4856   44.5071 C   0  0  0  0  0  0  0  0  0  0  0  0
    3.3085   18.7873   44.9295 C   0  0  0  0  0  0  0  0  0  0  0  0
    2.8937   16.7358   40.2234 C   0  0  0  0  0  0  0  0  0  0  0  0
    2.3017   16.1368   39.1100 C   0  0  0  0  0  0  0  0  0  0  0  0
    4.1355   18.6047   41.2168 N   0  0  0  0  0  0  0  0  0  0  0  0
    3.0310   17.4551   43.0063 N   0  0  0  0  0  0  0  0  0  0  0  0
    1.6231   16.7864   35.5824 O   0  0  0  0  0  0  0  0  0  0  0  0
    1.0854   14.9777   36.8010 O   0  0  0  0  0  0  0  0  0  0  0  0
    1.4798   15.0493   39.2876 O   0  0  0  0  0  0  0  0  0  0  0  0
    3.9996   19.7843   43.7063 S   0  0  0  0  0  0  0  0  0  0  0  0
   -0.4737   13.6118   47.3446 Cl  0  0  0  0  0  0  0  0  0  0  0  0
    3.3252   18.2418   36.6869 H   0  0  0  0  0  0  0  0  0  0  0  0
    4.1557   19.4886   38.6690 H   0  0  0  0  0  0  0  0  0  0  0  0
    2.0733   17.7247   47.0211 H   0  0  0  0  0  0  0  0  0  0  0  0
    0.7362   16.0205   48.2567 H   0  0  0  0  0  0  0  0  0  0  0  0
    0.4581   13.6381   44.6611 H   0  0  0  0  0  0  0  0  0  0  0  0
    1.8282   15.3301   43.4445 H   0  0  0  0  0  0  0  0  0  0  0  0
    3.2511   19.0567   45.9945 H   0  0  0  0  0  0  0  0  0  0  0  0
    2.7688   16.2890   41.2208 H   0  0  0  0  0  0  0  0  0  0  0  0
    4.8543   19.3136   41.0129 H   0  0  0  0  0  0  0  0  0  0  0  0
  1  2  1  0
  1 19  1  0
  1 20  2  0
  2  3  1  0
  2 16  2  0
  3  4  2  0
  4  5  1  0
  5 15  2  0
  5 17  1  0
  6 17  1  0
  6 18  2  0
  6 22  1  0
  7  8  1  0
  7 14  2  0
  7 18  1  0
  8  9  1  0
  8 13  2  0
  9 10  2  0
 10 11  1  0
 11 12  2  0
 11 23  1  0
 12 13  1  0
 14 22  1  0
 15 16  1  0
 16 21  1  0
  3 24  1  0
  4 25  1  0
  9 26  1  0
 10 27  1  0
 12 28  1  0
 13 29  1  0
 14 30  1  0
 15 31  1  0
 17 32  1  0
M  CHG  2  19  -1  21  -1
M  END
>  <mol_id>  (83) 
2026-08-23-6tgu-s0-n100-r3-0083

>  <rmsd_to_ref>  (83) 
4.219387755107138

$$$$
6tgu.A
     RDKit          3D

 32 34  0  0  0  0  0  0  0  0999 V2000
    2.4079   22.9093   41.0336 C   0  0  0  0  0  0  0  0  0  0  0  0
    2.2202   21.4909   41.3081 C   0  0  0  0  0  0  0  0  0  0  0  0
    1.5518   20.6490   40.4392 C   0  0  0  0  0  0  0  0  0  0  0  0
    1.3766   19.2944   40.7088 C   0  0  0  0  0  0  0  0  0  0  0  0
    1.8944   18.7989   41.8849 C   0  0  0  0  0  0  0  0  0  0  0  0
    1.0513   16.5533   41.3082 C   0  0  0  0  0  0  0  0  0  0  0  0
    0.3604   15.0975   39.7298 C   0  0  0  0  0  0  0  0  0  0  0  0
    0.6632   14.2281   38.6011 C   0  0  0  0  0  0  0  0  0  0  0  0
   -0.3259   13.5000   37.9789 C   0  0  0  0  0  0  0  0  0  0  0  0
   -0.0647   12.6598   36.8957 C   0  0  0  0  0  0  0  0  0  0  0  0
    1.2312   12.5341   36.4064 C   0  0  0  0  0  0  0  0  0  0  0  0
    2.2087   13.2708   37.0419 C   0  0  0  0  0  0  0  0  0  0  0  0
    1.9420   14.0957   38.1081 C   0  0  0  0  0  0  0  0  0  0  0  0
   -0.9735   15.2346   40.2415 C   0  0  0  0  0  0  0  0  0  0  0  0
    2.5652   19.6232   42.7659 C   0  0  0  0  0  0  0  0  0  0  0  0
    2.7361   20.9829   42.4862 C   0  0  0  0  0  0  0  0  0  0  0  0
    1.7481   17.4467   42.2063 N   0  0  0  0  0  0  0  0  0  0  0  0
    1.1899   15.8531   40.4268 N   0  0  0  0  0  0  0  0  0  0  0  0
    1.9141   23.4867   39.8658 O   0  0  0  0  0  0  0  0  0  0  0  0
    3.0336   23.5821   41.8973 O   0  0  0  0  0  0  0  0  0  0  0  0
    3.4172   21.7769   43.3996 O   0  0  0  0  0  0  0  0  0  0  0  0
   -0.8484   16.3853   41.5982 S   0  0  0  0  0  0  0  0  0  0  0  0
    1.5686   11.4871   35.0535 Cl  0  0  0  0  0  0  0  0  0  0  0  0
    1.1659   21.1068   39.5239 H   0  0  0  0  0  0  0  0  0  0  0  0
    0.8537   18.6987   40.0015 H   0  0  0  0  0  0  0  0  0  0  0  0
   -1.3574   13.5376   38.2931 H   0  0  0  0  0  0  0  0  0  0  0  0
   -0.8562   12.1061   36.4329 H   0  0  0  0  0  0  0  0  0  0  0  0
    3.2409   13.2126   36.7029 H   0  0  0  0  0  0  0  0  0  0  0  0
    2.7168   14.6800   38.6122 H   0  0  0  0  0  0  0  0  0  0  0  0
   -1.8805   14.7271   39.8640 H   0  0  0  0  0  0  0  0  0  0  0  0
    2.9592   19.2007   43.6809 H   0  0  0  0  0  0  0  0  0  0  0  0
    2.1229   17.0293   43.0826 H   0  0  0  0  0  0  0  0  0  0  0  0
  1  2  1  0
  1 19  1  0
  1 20  2  0
  2  3  1  0
  2 16  2  0
  3  4  2  0
  4  5  1  0
  5 15  2  0
  5 17  1  0
  6 17  1  0
  6 18  2  0
  6 22  1  0
  7  8  1  0
  7 14  2  0
  7 18  1  0
  8  9  1  0
  8 13  2  0
  9 10  2  0
 10 11  1  0
 11 12  2  0
 11 23  1  0
 12 13  1  0
 14 22  1  0
 15 16  1  0
 16 21  1  0
  3 24  1  0
  4 25  1  0
  9 26  1  0
 10 27  1  0
 12 28  1  0
 13 29  1  0
 14 30  1  0
 15 31  1  0
 17 32  1  0
M  CHG  2  19  -1  21  -1
M  END
>  <mol_id>  (84) 
2026-08-23-6tgu-s0-n100-r3-0084

>  <rmsd_to_ref>  (84) 
4.265306122453802

$$$$
6tgu.A
     RDKit          3D

 32 34  0  0  0  0  0  0  0  0999 V2000
    2.4220   15.1531   34.5095 C   0  0  0  0  0  0  0  0  0  0  0  0
    1.6000   15.7905   35.6332 C   0  0  0  0  0  0  0  0  0  0  0  0
    0.2425   16.0492   35.4573 C   0  0  0  0  0  0  0  0  0  0  0  0
   -0.5795   16.4511   36.5152 C   0  0  0  0  0  0  0  0  0  0  0  0
   -0.0182   16.7766   37.7585 C   0  0  0  0  0  0  0  0  0  0  0  0
   -0.6350   17.0323   40.2116 C   0  0  0  0  0  0  0  0  0  0  0  0
    0.5194   16.6768   42.1394 C   0  0  0  0  0  0  0  0  0  0  0  0
    1.7134   16.4078   42.9413 C   0  0  0  0  0  0  0  0  0  0  0  0
    1.6468   16.1954   44.3257 C   0  0  0  0  0  0  0  0  0  0  0  0
    2.7906   15.9077   45.0638 C   0  0  0  0  0  0  0  0  0  0  0  0
    3.9967   15.7903   44.3992 C   0  0  0  0  0  0  0  0  0  0  0  0
    4.1070   15.9867   43.0308 C   0  0  0  0  0  0  0  0  0  0  0  0
    2.9529   16.2849   42.3115 C   0  0  0  0  0  0  0  0  0  0  0  0
   -0.7465   16.7629   42.6559 C   0  0  0  0  0  0  0  0  0  0  0  0
    1.3446   16.5117   37.9557 C   0  0  0  0  0  0  0  0  0  0  0  0
    2.1213   16.0348   36.8982 C   0  0  0  0  0  0  0  0  0  0  0  0
   -0.8494   17.1266   38.8666 N   0  0  0  0  0  0  0  0  0  0  0  0
    0.6080   16.7349   40.7285 N   0  0  0  0  0  0  0  0  0  0  0  0
    1.7755   14.7320   33.5056 O   0  0  0  0  0  0  0  0  0  0  0  0
    3.6503   15.0269   34.7072 O   0  0  0  0  0  0  0  0  0  0  0  0
    3.4291   15.6801   37.1296 O   0  0  0  0  0  0  0  0  0  0  0  0
   -1.9173   16.8967   41.3993 S   0  0  0  0  0  0  0  0  0  0  0  0
    5.4226   15.3922   45.2991 Cl  0  0  0  0  0  0  0  0  0  0  0  0
   -0.1966   15.9338   34.4553 H   0  0  0  0  0  0  0  0  0  0  0  0
   -1.6684   16.5119   36.3717 H   0  0  0  0  0  0  0  0  0  0  0  0
    0.6745   16.2572   44.8364 H   0  0  0  0  0  0  0  0  0  0  0  0
    2.7360   15.7764   46.1546 H   0  0  0  0  0  0  0  0  0  0  0  0
    5.0815   15.9088   42.5266 H   0  0  0  0  0  0  0  0  0  0  0  0
    3.0194   16.4269   41.2228 H   0  0  0  0  0  0  0  0  0  0  0  0
   -0.9837   16.7485   43.7299 H   0  0  0  0  0  0  0  0  0  0  0  0
    1.8011   16.6796   38.9423 H   0  0  0  0  0  0  0  0  0  0  0  0
   -1.7666   17.5164   38.6064 H   0  0  0  0  0  0  0  0  0  0  0  0
  1  2  1  0
  1 19  1  0
  1 20  2  0
  2  3  1  0
  2 16  2  0
  3  4  2  0
  4  5  1  0
  5 15  2  0
  5 17  1  0
  6 17  1  0
  6 18  2  0
  6 22  1  0
  7  8  1  0
  7 14  2  0
  7 18  1  0
  8  9  1  0
  8 13  2  0
  9 10  2  0
 10 11  1  0
 11 12  2  0
 11 23  1  0
 12 13  1  0
 14 22  1  0
 15 16  1  0
 16 21  1  0
  3 24  1  0
  4 25  1  0
  9 26  1  0
 10 27  1  0
 12 28  1  0
 13 29  1  0
 14 30  1  0
 15 31  1  0
 17 32  1  0
M  CHG  2  19  -1  21  -1
M  END
>  <mol_id>  (85) 
2026-08-23-6tgu-s0-n100-r3-0085

>  <rmsd_to_ref>  (85) 
4.311224489799788

$$$$
6tgu.A
     RDKit          3D

 32 34  0  0  0  0  0  0  0  0999 V2000
    1.1738   22.1723   42.5933 C   0  0  0  0  0  0  0  0  0  0  0  0
    1.6207   20.8408   42.2231 C   0  0  0  0  0  0  0  0  0  0  0  0
    2.7612   20.2450   42.6922 C   0  0  0  0  0  0  0  0  0  0  0  0
    3.1399   18.9776   42.3079 C   0  0  0  0  0  0  0  0  0  0  0  0
    2.3698   18.2318   41.4119 C   0  0  0  0  0  0  0  0  0  0  0  0
    2.0538   15.8819   40.5882 C   0  0  0  0  0  0  0  0  0  0  0  0
    1.4312   13.8565   39.7981 C   0  0  0  0  0  0  0  0  0  0  0  0
    1.8283   12.5168   39.3067 C   0  0  0  0  0  0  0  0  0  0  0  0
    0.8774   11.6065   38.9237 C   0  0  0  0  0  0  0  0  0  0  0  0
    1.2334   10.3605   38.4622 C   0  0  0  0  0  0  0  0  0  0  0  0
    2.5515   10.0015   38.3747 C   0  0  0  0  0  0  0  0  0  0  0  0
    3.5363   10.8896   38.7503 C   0  0  0  0  0  0  0  0  0  0  0  0
    3.1447   12.1361   39.2111 C   0  0  0  0  0  0  0  0  0  0  0  0
    0.0668   14.2120   39.8759 C   0  0  0  0  0  0  0  0  0  0  0  0
    1.2320   18.8457   40.9531 C   0  0  0  0  0  0  0  0  0  0  0  0
    0.8454   20.1257   41.3383 C   0  0  0  0  0  0  0  0  0  0  0  0
    2.8251   16.9539   41.0487 N   0  0  0  0  0  0  0  0  0  0  0  0
    2.2520   14.7696   40.1767 N   0  0  0  0  0  0  0  0  0  0  0  0
    1.9017   22.9553   43.4803 O   0  0  0  0  0  0  0  0  0  0  0  0
    0.1240   22.6235   42.1119 O   0  0  0  0  0  0  0  0  0  0  0  0
   -0.3407   20.6826   40.8185 O   0  0  0  0  0  0  0  0  0  0  0  0
    0.1865   15.9465   40.5356 S   0  0  0  0  0  0  0  0  0  0  0  0
    2.9316    8.4035   37.7786 Cl  0  0  0  0  0  0  0  0  0  0  0  0
    3.3647   20.8228   43.3889 H   0  0  0  0  0  0  0  0  0  0  0  0
    4.0591   18.5814   42.7293 H   0  0  0  0  0  0  0  0  0  0  0  0
   -0.1858   11.8483   38.9775 H   0  0  0  0  0  0  0  0  0  0  0  0
    0.4461    9.6780   38.1729 H   0  0  0  0  0  0  0  0  0  0  0  0
    4.5716   10.5987   38.6772 H   0  0  0  0  0  0  0  0  0  0  0  0
    3.8985   12.8497   39.5113 H   0  0  0  0  0  0  0  0  0  0  0  0
   -0.8093   13.7276   39.6580 H   0  0  0  0  0  0  0  0  0  0  0  0
    0.5825   18.3550   40.2526 H   0  0  0  0  0  0  0  0  0  0  0  0
    3.8596   16.7775   41.1294 H   0  0  0  0  0  0  0  0  0  0  0  0
  1  2  1  0
  1 19  1  0
  1 20  2  0
  2  3  1  0
  2 16  2  0
  3  4  2  0
  4  5  1  0
  5 15  2  0
  5 17  1  0
  6 17  1  0
  6 18  2  0
  6 22  1  0
  7  8  1  0
  7 14  2  0
  7 18  1  0
  8  9  1  0
  8 13  2  0
  9 10  2  0
 10 11  1  0
 11 12  2  0
 11 23  1  0
 12 13  1  0
 14 22  1  0
 15 16  1  0
 16 21  1  0
  3 24  1  0
  4 25  1  0
  9 26  1  0
 10 27  1  0
 12 28  1  0
 13 29  1  0
 14 30  1  0
 15 31  1  0
 17 32  1  0
M  CHG  2  19  -1  21  -1
M  END
>  <mol_id>  (86) 
2026-08-23-6tgu-s0-n100-r3-0086

>  <rmsd_to_ref>  (86) 
4.357142857147537

$$$$
6tgu.A
     RDKit          3D

 32 34  0  0  0  0  0  0  0  0999 V2000
   -2.0037   16.4342   37.3245 C   0  0  0  0  0  0  0  0  0  0  0  0
   -1.1826   17.3745   38.2112 C   0  0  0  0  0  0  0  0  0  0  0  0
   -1.4198   18.7472   38.1966 C   0  0  0  0  0  0  0  0  0  0  0  0
   -0.8280   19.6123   39.1228 C   0  0  0  0  0  0  0  0  0  0  0  0
    0.1669   19.1404   39.9913 C   0  0  0  0  0  0  0  0  0  0  0  0
    1.3240   19.7073   42.1828 C   0  0  0  0  0  0  0  0  0  0  0  0
    2.2167   18.4234   43.8352 C   0  0  0  0  0  0  0  0  0  0  0  0
    2.6835   17.1761   44.4415 C   0  0  0  0  0  0  0  0  0  0  0  0
    3.1124   17.1128   45.7749 C   0  0  0  0  0  0  0  0  0  0  0  0
    3.5205   15.9094   46.3415 C   0  0  0  0  0  0  0  0  0  0  0  0
    3.4545   14.7601   45.5765 C   0  0  0  0  0  0  0  0  0  0  0  0
    3.0314   14.7764   44.2560 C   0  0  0  0  0  0  0  0  0  0  0  0
    2.6379   15.9922   43.7037 C   0  0  0  0  0  0  0  0  0  0  0  0
    2.1724   19.6246   44.4921 C   0  0  0  0  0  0  0  0  0  0  0  0
    0.4099   17.7599   40.0263 C   0  0  0  0  0  0  0  0  0  0  0  0
   -0.2578   16.9126   39.1401 C   0  0  0  0  0  0  0  0  0  0  0  0
    0.7349   19.9950   40.9853 N   0  0  0  0  0  0  0  0  0  0  0  0
    1.6511   18.4160   42.5382 N   0  0  0  0  0  0  0  0  0  0  0  0
   -2.9947   16.9453   36.7247 O   0  0  0  0  0  0  0  0  0  0  0  0
   -1.6803   15.2263   37.3270 O   0  0  0  0  0  0  0  0  0  0  0  0
   -0.0906   15.5528   39.2531 O   0  0  0  0  0  0  0  0  0  0  0  0
    1.3916   20.8237   43.5329 S   0  0  0  0  0  0  0  0  0  0  0  0
    3.9207   13.2476   46.2812 Cl  0  0  0  0  0  0  0  0  0  0  0  0
   -2.0934   19.1636   37.4332 H   0  0  0  0  0  0  0  0  0  0  0  0
   -1.1436   20.6650   39.1700 H   0  0  0  0  0  0  0  0  0  0  0  0
    3.1264   18.0294   46.3829 H   0  0  0  0  0  0  0  0  0  0  0  0
    3.8884   15.8733   47.3775 H   0  0  0  0  0  0  0  0  0  0  0  0
    3.0073   13.8521   43.6601 H   0  0  0  0  0  0  0  0  0  0  0  0
    2.2832   16.0204   42.6628 H   0  0  0  0  0  0  0  0  0  0  0  0
    2.5811   19.8001   45.4982 H   0  0  0  0  0  0  0  0  0  0  0  0
    1.1259   17.3450   40.7511 H   0  0  0  0  0  0  0  0  0  0  0  0
    0.6928   20.9992   40.7602 H   0  0  0  0  0  0  0  0  0  0  0  0
  1  2  1  0
  1 19  1  0
  1 20  2  0
  2  3  1  0
  2 16  2  0
  3  4  2  0
  4  5  1  0
  5 15  2  0
  5 17  1  0
  6 17  1  0
  6 18  2  0
  6 22  1  0
  7  8  1  0
  7 14  2  0
  7 18  1  0
  8  9  1  0
  8 13  2  0
  9 10  2  0
 10 11  1  0
 11 12  2  0
 11 23  1  0
 12 13  1  0
 14 22  1  0
 15 16  1  0
 16 21  1  0
  3 24  1  0
  4 25  1  0
  9 26  1  0
 10 27  1  0
 12 28  1  0
 13 29  1  0
 14 30  1  0
 15 31  1  0
 17 32  1  0
M  CHG  2  19  -1  21  -1
M  END
>  <mol_id>  (87) 
2026-08-23-6tgu-s0-n100-r3-0087

>  <rmsd_to_ref>  (87) 
4.403061224495639

$$$$
6tgu.A
     RDKit          3D

 32 34  0  0  0  0  0  0  0  0999 V2000
   -2.4400   19.4084   38.1000 C   0  0  0  0  0  0  0  0  0  0  0  0
   -1.2650   18.7372   38.6087 C   0  0  0  0  0  0  0  0  0  0  0  0
   -0.7842   18.9732   39.8767 C   0  0  0  0  0  0  0  0  0  0  0  0
    0.3453   18.3172   40.3451 C   0  0  0  0  0  0  0  0  0  0  0  0
    1.0445   17.4066   39.5889 C   0  0  0  0  0  0  0  0  0  0  0  0
    2.3634   16.2099   41.3801 C   0  0  0  0  0  0  0  0  0  0  0  0
    3.0799   15.3319   43.3204 C   0  0  0  0  0  0  0  0  0  0  0  0
    4.1620   14.6819   44.0680 C   0  0  0  0  0  0  0  0  0  0  0  0
    3.9790   14.3437   45.3910 C   0  0  0  0  0  0  0  0  0  0  0  0
    4.9516   13.7376   46.1456 C   0  0  0  0  0  0  0  0  0  0  0  0
    6.1510   13.4658   45.5351 C   0  0  0  0  0  0  0  0  0  0  0  0
    6.3567   13.7943   44.2148 C   0  0  0  0  0  0  0  0  0  0  0  0
    5.3802   14.3948   43.4827 C   0  0  0  0  0  0  0  0  0  0  0  0
    1.8761   15.6360   43.8717 C   0  0  0  0  0  0  0  0  0  0  0  0
    0.5371   17.1816   38.2994 C   0  0  0  0  0  0  0  0  0  0  0  0
   -0.5770   17.8290   37.8381 C   0  0  0  0  0  0  0  0  0  0  0  0
    2.1619   16.6869   39.9687 N   0  0  0  0  0  0  0  0  0  0  0  0
    3.1232   15.7019   42.0601 N   0  0  0  0  0  0  0  0  0  0  0  0
   -2.8865   19.1328   36.8133 O   0  0  0  0  0  0  0  0  0  0  0  0
   -3.0314   20.2388   38.8577 O   0  0  0  0  0  0  0  0  0  0  0  0
   -1.0403   17.5633   36.5349 O   0  0  0  0  0  0  0  0  0  0  0  0
    0.8811   16.4363   42.5409 S   0  0  0  0  0  0  0  0  0  0  0  0
    7.3932   12.6961   46.4860 Cl  0  0  0  0  0  0  0  0  0  0  0  0
   -1.2838   19.6778   40.5261 H   0  0  0  0  0  0  0  0  0  0  0  0
    0.6680   18.5638   41.3318 H   0  0  0  0  0  0  0  0  0  0  0  0
    3.0148   14.5648   45.8724 H   0  0  0  0  0  0  0  0  0  0  0  0
    4.7500   13.4968   47.1725 H   0  0  0  0  0  0  0  0  0  0  0  0
    7.3025   13.5771   43.7428 H   0  0  0  0  0  0  0  0  0  0  0  0
    5.4736   14.6816   42.4347 H   0  0  0  0  0  0  0  0  0  0  0  0
    1.4356   15.4832   44.9306 H   0  0  0  0  0  0  0  0  0  0  0  0
    1.0162   16.4809   37.6221 H   0  0  0  0  0  0  0  0  0  0  0  0
    2.9384   16.4113   39.3693 H   0  0  0  0  0  0  0  0  0  0  0  0
  1  2  1  0
  1 19  1  0
  1 20  2  0
  2  3  1  0
  2 16  2  0
  3  4  2  0
  4  5  1  0
  5 15  2  0
  5 17  1  0
  6 17  1  0
  6 18  2  0
  6 22  1  0
  7  8  1  0
  7 14  2  0
  7 18  1  0
  8  9  1  0
  8 13  2  0
  9 10  2  0
 10 11  1  0
 11 12  2  0
 11 23  1  0
 12 13  1  0
 14 22  1  0
 15 16  1  0
 16 21  1  0
  3 24  1  0
  4 25  1  0
  9 26  1  0
 10 27  1  0
 12 28  1  0
 13 29  1  0
 14 30  1  0
 15 31  1  0
 17 32  1  0
M  CHG  2  19  -1  21  -1
M  END
>  <mol_id>  (88) 
2026-08-23-6tgu-s0-n100-r3-0088

>  <rmsd_to_ref>  (88) 
4.448979591837914

$$$$
6tgu.A
     RDKit          3D

 32 34  0  0  0  0  0  0  0  0999 V2000
   -3.5884   17.4672   39.5448 C   0  0  0  0  0  0  0  0  0  0  0  0
   -2.2757   17.9619   40.1585 C   0  0  0  0  0  0  0  0  0  0  0  0
   -2.1526   19.2776   40.5993 C   0  0  0  0  0  0  0  0  0  0  0  0
   -1.0446   19.7137   41.3332 C   0  0  0  0  0  0  0  0  0  0  0  0
    0.0661   18.8735   41.4975 C   0  0  0  0  0  0  0  0  0  0  0  0
    2.1090   18.5461   42.9749 C   0  0  0  0  0  0  0  0  0  0  0  0
    3.2458   16.6948   43.6503 C   0  0  0  0  0  0  0  0  0  0  0  0
    3.5945   15.2737   43.6396 C   0  0  0  0  0  0  0  0  0  0  0  0
    4.4944   14.7222   44.5626 C   0  0  0  0  0  0  0  0  0  0  0  0
    4.7862   13.3618   44.5560 C   0  0  0  0  0  0  0  0  0  0  0  0
    4.1366   12.5486   43.6464 C   0  0  0  0  0  0  0  0  0  0  0  0
    3.2354   13.0512   42.7200 C   0  0  0  0  0  0  0  0  0  0  0  0
    2.9653   14.4168   42.7351 C   0  0  0  0  0  0  0  0  0  0  0  0
    3.7674   17.6046   44.5316 C   0  0  0  0  0  0  0  0  0  0  0  0
   -0.0455   17.5429   41.0695 C   0  0  0  0  0  0  0  0  0  0  0  0
   -1.1999   17.1184   40.4090 C   0  0  0  0  0  0  0  0  0  0  0  0
    1.1780   19.2796   42.2976 N   0  0  0  0  0  0  0  0  0  0  0  0
    2.2226   17.1828   42.8035 N   0  0  0  0  0  0  0  0  0  0  0  0
   -4.5778   18.2538   39.6175 O   0  0  0  0  0  0  0  0  0  0  0  0
   -3.5998   16.3002   39.0954 O   0  0  0  0  0  0  0  0  0  0  0  0
   -1.3418   15.7894   40.0875 O   0  0  0  0  0  0  0  0  0  0  0  0
    2.9877   19.1327   44.3739 S   0  0  0  0  0  0  0  0  0  0  0  0
    4.4591   10.8464   43.6533 Cl  0  0  0  0  0  0  0  0  0  0  0  0
   -2.9516   19.9958   40.3630 H   0  0  0  0  0  0  0  0  0  0  0  0
   -1.0445   20.7178   41.7825 H   0  0  0  0  0  0  0  0  0  0  0  0
    4.9776   15.3756   45.3040 H   0  0  0  0  0  0  0  0  0  0  0  0
    5.5192   12.9418   45.2605 H   0  0  0  0  0  0  0  0  0  0  0  0
    2.7463   12.3876   41.9916 H   0  0  0  0  0  0  0  0  0  0  0  0
    2.2401   14.8296   42.0185 H   0  0  0  0  0  0  0  0  0  0  0  0
    4.5763   17.3883   45.2449 H   0  0  0  0  0  0  0  0  0  0  0  0
    0.7756   16.8344   41.2538 H   0  0  0  0  0  0  0  0  0  0  0  0
    1.2974   20.2996   42.3769 H   0  0  0  0  0  0  0  0  0  0  0  0
  1  2  1  0
  1 19  1  0
  1 20  2  0
  2  3  1  0
  2 16  2  0
  3  4  2  0
  4  5  1  0
  5 15  2  0
  5 17  1  0
  6 17  1  0
  6 18  2  0
  6 22  1  0
  7  8  1  0
  7 14  2  0
  7 18  1  0
  8  9  1  0
  8 13  2  0
  9 10  2  0
 10 11  1  0
 11 12  2  0
 11 23  1  0
 12 13  1  0
 14 22  1  0
 15 16  1  0
 16 21  1  0
  3 24  1  0
  4 25  1  0
  9 26  1  0
 10 27  1  0
 12 28  1  0
 13 29  1  0
 14 30  1  0
 15 31  1  0
 17 32  1  0
M  CHG  2  19  -1  21  -1
M  END
>  <mol_id>  (89) 
2026-08-23-6tgu-s0-n100-r3-0089

>  <rmsd_to_ref>  (89) 
4.4948979591845495

$$$$
6tgu.A
     RDKit          3D

 32 34  0  0  0  0  0  0  0  0999 V2000
    8.1257   19.0558   39.1364 C   0  0  0  0  0  0  0  0  0  0  0  0
    6.6836   18.7379   39.1710 C   0  0  0  0  0  0  0  0  0  0  0  0
    5.7981   19.3728   38.3135 C   0  0  0  0  0  0  0  0  0  0  0  0
    4.4402   19.0429   38.3805 C   0  0  0  0  0  0  0  0  0  0  0  0
    3.9947   18.0858   39.3038 C   0  0  0  0  0  0  0  0  0  0  0  0
    1.9160   17.4510   40.5712 C   0  0  0  0  0  0  0  0  0  0  0  0
    0.4443   16.8863   42.1636 C   0  0  0  0  0  0  0  0  0  0  0  0
   -0.9089   16.3905   42.5041 C   0  0  0  0  0  0  0  0  0  0  0  0
   -1.2725   16.2291   43.8252 C   0  0  0  0  0  0  0  0  0  0  0  0
   -2.5454   15.7573   44.1685 C   0  0  0  0  0  0  0  0  0  0  0  0
   -3.4700   15.4410   43.1955 C   0  0  0  0  0  0  0  0  0  0  0  0
   -3.1021   15.6037   41.8764 C   0  0  0  0  0  0  0  0  0  0  0  0
   -1.8341   16.0745   41.5256 C   0  0  0  0  0  0  0  0  0  0  0  0
    1.3628   17.1889   43.1346 C   0  0  0  0  0  0  0  0  0  0  0  0
    4.8965   17.4690   40.1443 C   0  0  0  0  0  0  0  0  0  0  0  0
    6.2584   17.7916   40.0852 C   0  0  0  0  0  0  0  0  0  0  0  0
    2.6388   17.7763   39.3257 N   0  0  0  0  0  0  0  0  0  0  0  0
    0.8973   17.0786   40.9432 N   0  0  0  0  0  0  0  0  0  0  0  0
    8.6025   20.0092   38.2269 O   0  0  0  0  0  0  0  0  0  0  0  0
    8.8916   18.4692   39.9171 O   0  0  0  0  0  0  0  0  0  0  0  0
    7.1477   17.1482   40.9517 O   0  0  0  0  0  0  0  0  0  0  0  0
    2.8395   17.7379   42.1904 S   0  0  0  0  0  0  0  0  0  0  0  0
   -5.0624   14.8492   43.6253 Cl  0  0  0  0  0  0  0  0  0  0  0  0
    6.1500   20.1178   37.5948 H   0  0  0  0  0  0  0  0  0  0  0  0
    3.7664   19.5462   37.7047 H   0  0  0  0  0  0  0  0  0  0  0  0
   -0.5829   16.4643   44.5955 H   0  0  0  0  0  0  0  0  0  0  0  0
   -2.7959   15.6444   45.2124 H   0  0  0  0  0  0  0  0  0  0  0  0
   -3.7938   15.3670   41.0623 H   0  0  0  0  0  0  0  0  0  0  0  0
   -1.5714   16.1933   40.4735 H   0  0  0  0  0  0  0  0  0  0  0  0
    1.3400   17.1541   44.2312 H   0  0  0  0  0  0  0  0  0  0  0  0
    4.6410   16.7169   40.8673 H   0  0  0  0  0  0  0  0  0  0  0  0
    2.0364   17.7500   38.4957 H   0  0  0  0  0  0  0  0  0  0  0  0
  1  2  1  0
  1 19  1  0
  1 20  2  0
  2  3  1  0
  2 16  2  0
  3  4  2  0
  4  5  1  0
  5 15  2  0
  5 17  1  0
  6 17  1  0
  6 18  2  0
  6 22  1  0
  7  8  1  0
  7 14  2  0
  7 18  1  0
  8  9  1  0
  8 13  2  0
  9 10  2  0
 10 11  1  0
 11 12  2  0
 11 23  1  0
 12 13  1  0
 14 22  1  0
 15 16  1  0
 16 21  1  0
  3 24  1  0
  4 25  1  0
  9 26  1  0
 10 27  1  0
 12 28  1  0
 13 29  1  0
 14 30  1  0
 15 31  1  0
 17 32  1  0
M  CHG  2  19  -1  21  -1
M  END
>  <mol_id>  (90) 
2026-08-23-6tgu-s0-n100-r3-0090

>  <rmsd_to_ref>  (90) 
4.540816326533093

$$$$
6tgu.A
     RDKit          3D

 32 34  0  0  0  0  0  0  0  0999 V2000
    4.9528   21.1766   42.3223 C   0  0  0  0  0  0  0  0  0  0  0  0
    3.7442   20.2446   42.1994 C   0  0  0  0  0  0  0  0  0  0  0  0
    2.4989   20.6331   42.6882 C   0  0  0  0  0  0  0  0  0  0  0  0
    1.3376   19.8980   42.4284 C   0  0  0  0  0  0  0  0  0  0  0  0
    1.4227   18.6427   41.8088 C   0  0  0  0  0  0  0  0  0  0  0  0
    0.0144   16.9622   40.5219 C   0  0  0  0  0  0  0  0  0  0  0  0
    0.5075   15.4774   38.8704 C   0  0  0  0  0  0  0  0  0  0  0  0
    1.3961   14.7105   37.9966 C   0  0  0  0  0  0  0  0  0  0  0  0
    0.9048   13.9015   36.9622 C   0  0  0  0  0  0  0  0  0  0  0  0
    1.7691   13.2070   36.1216 C   0  0  0  0  0  0  0  0  0  0  0  0
    3.1314   13.3629   36.2958 C   0  0  0  0  0  0  0  0  0  0  0  0
    3.6601   14.1571   37.3020 C   0  0  0  0  0  0  0  0  0  0  0  0
    2.7789   14.8349   38.1400 C   0  0  0  0  0  0  0  0  0  0  0  0
   -0.8589   15.4641   38.7748 C   0  0  0  0  0  0  0  0  0  0  0  0
    2.6667   18.2417   41.3011 C   0  0  0  0  0  0  0  0  0  0  0  0
    3.7936   19.0390   41.5096 C   0  0  0  0  0  0  0  0  0  0  0  0
    0.2420   17.9089   41.4789 N   0  0  0  0  0  0  0  0  0  0  0  0
    1.0452   16.3970   39.8017 N   0  0  0  0  0  0  0  0  0  0  0  0
    4.7200   22.3532   42.7280 O   0  0  0  0  0  0  0  0  0  0  0  0
    6.0552   20.7291   41.9373 O   0  0  0  0  0  0  0  0  0  0  0  0
    4.9847   18.6892   40.9192 O   0  0  0  0  0  0  0  0  0  0  0  0
   -1.5624   16.6277   39.8326 S   0  0  0  0  0  0  0  0  0  0  0  0
    4.2198   12.5366   35.2307 Cl  0  0  0  0  0  0  0  0  0  0  0  0
    2.4266   21.5462   43.2972 H   0  0  0  0  0  0  0  0  0  0  0  0
    0.3555   20.3053   42.7106 H   0  0  0  0  0  0  0  0  0  0  0  0
   -0.1816   13.8144   36.8128 H   0  0  0  0  0  0  0  0  0  0  0  0
    1.3761   12.5471   35.3341 H   0  0  0  0  0  0  0  0  0  0  0  0
    4.7482   14.2493   37.4347 H   0  0  0  0  0  0  0  0  0  0  0  0
    3.1813   15.4828   38.9326 H   0  0  0  0  0  0  0  0  0  0  0  0
   -1.4308   14.7989   38.1111 H   0  0  0  0  0  0  0  0  0  0  0  0
    2.7546   17.3001   40.7393 H   0  0  0  0  0  0  0  0  0  0  0  0
   -0.5768   18.1320   42.0625 H   0  0  0  0  0  0  0  0  0  0  0  0
  1  2  1  0
  1 19  1  0
  1 20  2  0
  2  3  1  0
  2 16  2  0
  3  4  2  0
  4  5  1  0
  5 15  2  0
  5 17  1  0
  6 17  1  0
  6 18  2  0
  6 22  1  0
  7  8  1  0
  7 14  2  0
  7 18  1  0
  8  9  1  0
  8 13  2  0
  9 10  2  0
 10 11  1  0
 11 12  2  0
 11 23  1  0
 12 13  1  0
 14 22  1  0
 15 16  1  0
 16 21  1  0
  3 24  1  0
  4 25  1  0
  9 26  1  0
 10 27  1  0
 12 28  1  0
 13 29  1  0
 14 30  1  0
 15 31  1  0
 17 32  1  0
M  CHG  2  19  -1  21  -1
M  END
>  <mol_id>  (91) 
2026-08-23-6tgu-s0-n100-r3-0091

>  <rmsd_to_ref>  (91) 
4.586734693881297

$$$$
6tgu.A
     RDKit          3D

 32 34  0  0  0  0  0  0  0  0999 V2000
    2.6438   16.9745   35.5502 C   0  0  0  0  0  0  0  0  0  0  0  0
    2.0847   17.0256   36.8958 C   0  0  0  0  0  0  0  0  0  0  0  0
    0.7632   17.3904   37.1019 C   0  0  0  0  0  0  0  0  0  0  0  0
    0.2069   17.4485   38.3466 C   0  0  0  0  0  0  0  0  0  0  0  0
    0.9564   17.1383   39.4844 C   0  0  0  0  0  0  0  0  0  0  0  0
    0.7529   16.6530   41.9052 C   0  0  0  0  0  0  0  0  0  0  0  0
    0.6127   16.1985   44.1548 C   0  0  0  0  0  0  0  0  0  0  0  0
   -0.0499   16.3249   45.5065 C   0  0  0  0  0  0  0  0  0  0  0  0
   -1.1933   17.0864   45.6313 C   0  0  0  0  0  0  0  0  0  0  0  0
   -1.8377   17.2295   46.8610 C   0  0  0  0  0  0  0  0  0  0  0  0
   -1.3195   16.5984   47.9636 C   0  0  0  0  0  0  0  0  0  0  0  0
   -0.1789   15.8484   47.8004 C   0  0  0  0  0  0  0  0  0  0  0  0
    0.4676   15.7007   46.5838 C   0  0  0  0  0  0  0  0  0  0  0  0
    1.7396   15.4450   44.0420 C   0  0  0  0  0  0  0  0  0  0  0  0
    2.2536   16.7816   39.2699 C   0  0  0  0  0  0  0  0  0  0  0  0
    2.8265   16.7207   37.9988 C   0  0  0  0  0  0  0  0  0  0  0  0
    0.3118   17.2311   40.7339 N   0  0  0  0  0  0  0  0  0  0  0  0
    0.1031   16.8010   43.1387 N   0  0  0  0  0  0  0  0  0  0  0  0
    3.9681   16.6046   35.3968 O   0  0  0  0  0  0  0  0  0  0  0  0
    1.9843   17.2499   34.5145 O   0  0  0  0  0  0  0  0  0  0  0  0
    4.1675   16.3465   37.8405 O   0  0  0  0  0  0  0  0  0  0  0  0
    2.1543   15.6032   42.2245 S   0  0  0  0  0  0  0  0  0  0  0  0
   -2.0397   16.7041   49.5571 Cl  0  0  0  0  0  0  0  0  0  0  0  0
    0.1960   17.6289   36.1955 H   0  0  0  0  0  0  0  0  0  0  0  0
   -0.8362   17.7441   38.4166 H   0  0  0  0  0  0  0  0  0  0  0  0
   -1.6426   17.6061   44.7860 H   0  0  0  0  0  0  0  0  0  0  0  0
   -2.7287   17.8210   46.9665 H   0  0  0  0  0  0  0  0  0  0  0  0
    0.2670   15.3321   48.6406 H   0  0  0  0  0  0  0  0  0  0  0  0
    1.3652   15.0929   46.5259 H   0  0  0  0  0  0  0  0  0  0  0  0
    2.2969   14.8971   44.7016 H   0  0  0  0  0  0  0  0  0  0  0  0
    2.9018   16.5360   40.0826 H   0  0  0  0  0  0  0  0  0  0  0  0
   -0.5850   17.7969   40.7667 H   0  0  0  0  0  0  0  0  0  0  0  0
  1  2  1  0
  1 19  1  0
  1 20  2  0
  2  3  1  0
  2 16  2  0
  3  4  2  0
  4  5  1  0
  5 15  2  0
  5 17  1  0
  6 17  1  0
  6 18  2  0
  6 22  1  0
  7  8  1  0
  7 14  2  0
  7 18  1  0
  8  9  1  0
  8 13  2  0
  9 10  2  0
 10 11  1  0
 11 12  2  0
 11 23  1  0
 12 13  1  0
 14 22  1  0
 15 16  1  0
 16 21  1  0
  3 24  1  0
  4 25  1  0
  9 26  1  0
 10 27  1  0
 12 28  1  0
 13 29  1  0
 14 30  1  0
 15 31  1  0
 17 32  1  0
M  CHG  2  19  -1  21  -1
M  END
>  <mol_id>  (92) 
2026-08-23-6tgu-s0-n100-r3-0092

>  <rmsd_to_ref>  (92) 
4.632653061231097

$$$$
6tgu.A
     RDKit          3D

 32 34  0  0  0  0  0  0  0  0999 V2000
    1.7215   15.8788   34.7639 C   0  0  0  0  0  0  0  0  0  0  0  0
    1.2613   16.6699   35.9916 C   0  0  0  0  0  0  0  0  0  0  0  0
   -0.0792   17.0146   36.1491 C   0  0  0  0  0  0  0  0  0  0  0  0
   -0.5688   17.5661   37.3376 C   0  0  0  0  0  0  0  0  0  0  0  0
    0.3186   17.9528   38.3524 C   0  0  0  0  0  0  0  0  0  0  0  0
    0.3902   18.4623   40.8420 C   0  0  0  0  0  0  0  0  0  0  0  0
    1.9963   18.1859   42.4294 C   0  0  0  0  0  0  0  0  0  0  0  0
    3.3455   17.8966   42.9164 C   0  0  0  0  0  0  0  0  0  0  0  0
    3.6388   17.8085   44.2847 C   0  0  0  0  0  0  0  0  0  0  0  0
    4.9217   17.4990   44.7255 C   0  0  0  0  0  0  0  0  0  0  0  0
    5.9001   17.2345   43.7857 C   0  0  0  0  0  0  0  0  0  0  0  0
    5.6522   17.3048   42.4231 C   0  0  0  0  0  0  0  0  0  0  0  0
    4.3650   17.6272   42.0020 C   0  0  0  0  0  0  0  0  0  0  0  0
    0.9195   18.4112   43.2456 C   0  0  0  0  0  0  0  0  0  0  0  0
    1.6696   17.6034   38.2144 C   0  0  0  0  0  0  0  0  0  0  0  0
    2.1119   16.9808   37.0458 C   0  0  0  0  0  0  0  0  0  0  0  0
   -0.1691   18.4577   39.5967 N   0  0  0  0  0  0  0  0  0  0  0  0
    1.7093   18.1168   41.0456 N   0  0  0  0  0  0  0  0  0  0  0  0
    0.8109   15.4239   34.0111 O   0  0  0  0  0  0  0  0  0  0  0  0
    2.9502   15.6773   34.6473 O   0  0  0  0  0  0  0  0  0  0  0  0
    3.4145   16.5492   36.9642 O   0  0  0  0  0  0  0  0  0  0  0  0
   -0.5351   18.5258   42.3297 S   0  0  0  0  0  0  0  0  0  0  0  0
    7.4920   16.8078   44.3198 Cl  0  0  0  0  0  0  0  0  0  0  0  0
   -0.7742   16.8478   35.3129 H   0  0  0  0  0  0  0  0  0  0  0  0
   -1.6521   17.6967   37.4767 H   0  0  0  0  0  0  0  0  0  0  0  0
    2.8418   17.9869   45.0216 H   0  0  0  0  0  0  0  0  0  0  0  0
    5.1527   17.4654   45.8005 H   0  0  0  0  0  0  0  0  0  0  0  0
    6.4522   17.1108   41.6936 H   0  0  0  0  0  0  0  0  0  0  0  0
    4.1466   17.6705   40.9248 H   0  0  0  0  0  0  0  0  0  0  0  0
    0.9760   18.5062   44.3400 H   0  0  0  0  0  0  0  0  0  0  0  0
    2.3799   17.8196   39.0260 H   0  0  0  0  0  0  0  0  0  0  0  0
   -1.1015   18.8923   39.5455 H   0  0  0  0  0  0  0  0  0  0  0  0
  1  2  1  0
  1 19  1  0
  1 20  2  0
  2  3  1  0
  2 16  2  0
  3  4  2  0
  4  5  1  0
  5 15  2  0
  5 17  1  0
  6 17  1  0
  6 18  2  0
  6 22  1  0
  7  8  1  0
  7 14  2  0
  7 18  1  0
  8  9  1  0
  8 13  2  0
  9 10  2  0
 10 11  1  0
 11 12  2  0
 11 23  1  0
 12 13  1  0
 14 22  1  0
 15 16  1  0
 16 21  1  0
  3 24  1  0
  4 25  1  0
  9 26  1  0
 10 27  1  0
 12 28  1  0
 13 29  1  0
 14 30  1  0
 15 31  1  0
 17 32  1  0
M  CHG  2  19  -1  21  -1
M  END
>  <mol_id>  (93) 
2026-08-23-6tgu-s0-n100-r3-0093

>  <rmsd_to_ref>  (93) 
4.678571428572299

$$$$
6tgu.A
     RDKit          3D

 32 34  0  0  0  0  0  0  0  0999 V2000
   -3.6204   19.0239   37.8913 C   0  0  0  0  0  0  0  0  0  0  0  0
   -2.3741   18.4459   38.3969 C   0  0  0  0  0  0  0  0  0  0  0  0
   -2.3047   17.9503   39.6813 C   0  0  0  0  0  0  0  0  0  0  0  0
   -1.1046   17.4027   40.1439 C   0  0  0  0  0  0  0  0  0  0  0  0
    0.0248   17.3336   39.3684 C   0  0  0  0  0  0  0  0  0  0  0  0
    1.4794   15.9189   40.8343 C   0  0  0  0  0  0  0  0  0  0  0  0
    2.7310   14.6203   42.2407 C   0  0  0  0  0  0  0  0  0  0  0  0
    4.0249   14.0501   42.7043 C   0  0  0  0  0  0  0  0  0  0  0  0
    5.1719   14.3972   42.0235 C   0  0  0  0  0  0  0  0  0  0  0  0
    6.3723   13.8647   42.4577 C   0  0  0  0  0  0  0  0  0  0  0  0
    6.4502   13.0094   43.5366 C   0  0  0  0  0  0  0  0  0  0  0  0
    5.2660   12.7025   44.1738 C   0  0  0  0  0  0  0  0  0  0  0  0
    4.0413   13.2044   43.7837 C   0  0  0  0  0  0  0  0  0  0  0  0
    1.5179   14.2802   42.9250 C   0  0  0  0  0  0  0  0  0  0  0  0
   -0.0848   17.8430   38.0814 C   0  0  0  0  0  0  0  0  0  0  0  0
   -1.2479   18.3756   37.6285 C   0  0  0  0  0  0  0  0  0  0  0  0
    1.2575   16.7875   39.7469 N   0  0  0  0  0  0  0  0  0  0  0  0
    2.6202   15.4135   41.2476 N   0  0  0  0  0  0  0  0  0  0  0  0
   -4.7333   19.0682   38.7194 O   0  0  0  0  0  0  0  0  0  0  0  0
   -3.6557   19.4686   36.7154 O   0  0  0  0  0  0  0  0  0  0  0  0
   -1.3096   18.8785   36.3182 O   0  0  0  0  0  0  0  0  0  0  0  0
    0.3096   15.2212   41.9678 S   0  0  0  0  0  0  0  0  0  0  0  0
    7.9890   12.3506   44.0628 Cl  0  0  0  0  0  0  0  0  0  0  0  0
   -3.1876   17.9956   40.3104 H   0  0  0  0  0  0  0  0  0  0  0  0
   -1.1141   17.0444   41.1475 H   0  0  0  0  0  0  0  0  0  0  0  0
    5.1755   15.0558   41.1796 H   0  0  0  0  0  0  0  0  0  0  0  0
    7.2889   14.1239   41.9368 H   0  0  0  0  0  0  0  0  0  0  0  0
    5.2795   12.0323   45.0290 H   0  0  0  0  0  0  0  0  0  0  0  0
    3.1599   12.9171   44.3336 H   0  0  0  0  0  0  0  0  0  0  0  0
    1.3627   13.6685   43.7402 H   0  0  0  0  0  0  0  0  0  0  0  0
    0.7678   17.8251   37.4039 H   0  0  0  0  0  0  0  0  0  0  0  0
    2.1023   17.0416   39.1794 H   0  0  0  0  0  0  0  0  0  0  0  0
  1  2  1  0
  1 19  1  0
  1 20  2  0
  2  3  1  0
  2 16  2  0
  3  4  2  0
  4  5  1  0
  5 15  2  0
  5 17  1  0
  6 17  1  0
  6 18  2  0
  6 22  1  0
  7  8  1  0
  7 14  2  0
  7 18  1  0
  8  9  1  0
  8 13  2  0
  9 10  2  0
 10 11  1  0
 11 12  2  0
 11 23  1  0
 12 13  1  0
 14 22  1  0
 15 16  1  0
 16 21  1  0
  3 24  1  0
  4 25  1  0
  9 26  1  0
 10 27  1  0
 12 28  1  0
 13 29  1  0
 14 30  1  0
 15 31  1  0
 17 32  1  0
M  CHG  2  19  -1  21  -1
M  END
>  <mol_id>  (94) 
2026-08-23-6tgu-s0-n100-r3-0094

>  <rmsd_to_ref>  (94) 
4.724489795924037

$$$$
6tgu.A
     RDKit          3D

 32 34  0  0  0  0  0  0  0  0999 V2000
   -3.2596   19.0968   40.3108 C   0  0  0  0  0  0  0  0  0  0  0  0
   -2.2107   18.6695   41.3413 C   0  0  0  0  0  0  0  0  0  0  0  0
   -2.4873   18.7441   42.7046 C   0  0  0  0  0  0  0  0  0  0  0  0
   -1.6356   18.1899   43.6659 C   0  0  0  0  0  0  0  0  0  0  0  0
   -0.3797   17.6915   43.2903 C   0  0  0  0  0  0  0  0  0  0  0  0
    1.4624   16.1351   44.0952 C   0  0  0  0  0  0  0  0  0  0  0  0
    2.9325   14.7867   43.0014 C   0  0  0  0  0  0  0  0  0  0  0  0
    3.6300   14.2592   41.8282 C   0  0  0  0  0  0  0  0  0  0  0  0
    4.5089   13.1700   41.9134 C   0  0  0  0  0  0  0  0  0  0  0  0
    5.1360   12.6630   40.7795 C   0  0  0  0  0  0  0  0  0  0  0  0
    4.8429   13.2262   39.5518 C   0  0  0  0  0  0  0  0  0  0  0  0
    3.9758   14.3005   39.4213 C   0  0  0  0  0  0  0  0  0  0  0  0
    3.3671   14.8008   40.5690 C   0  0  0  0  0  0  0  0  0  0  0  0
    3.0821   14.2896   44.2690 C   0  0  0  0  0  0  0  0  0  0  0  0
   -0.0901   17.5992   41.9215 C   0  0  0  0  0  0  0  0  0  0  0  0
   -0.9990   18.0910   40.9828 C   0  0  0  0  0  0  0  0  0  0  0  0
    0.4744   17.0646   44.2488 N   0  0  0  0  0  0  0  0  0  0  0  0
    1.9416   15.7855   42.8506 N   0  0  0  0  0  0  0  0  0  0  0  0
   -4.4174   19.3516   40.7554 O   0  0  0  0  0  0  0  0  0  0  0  0
   -2.9129   19.0819   39.1094 O   0  0  0  0  0  0  0  0  0  0  0  0
   -0.7531   17.9014   39.6436 O   0  0  0  0  0  0  0  0  0  0  0  0
    1.9671   15.0265   45.3559 S   0  0  0  0  0  0  0  0  0  0  0  0
    5.5847   12.5790   38.1262 Cl  0  0  0  0  0  0  0  0  0  0  0  0
   -3.4038   19.2545   43.0354 H   0  0  0  0  0  0  0  0  0  0  0  0
   -1.9515   18.1449   44.7185 H   0  0  0  0  0  0  0  0  0  0  0  0
    4.7058   12.7089   42.8925 H   0  0  0  0  0  0  0  0  0  0  0  0
    5.8507   11.8305   40.8586 H   0  0  0  0  0  0  0  0  0  0  0  0
    3.7741   14.7459   38.4360 H   0  0  0  0  0  0  0  0  0  0  0  0
    2.6633   15.6417   40.4815 H   0  0  0  0  0  0  0  0  0  0  0  0
    3.8165   13.5221   44.5548 H   0  0  0  0  0  0  0  0  0  0  0  0
    0.8521   17.1400   41.5876 H   0  0  0  0  0  0  0  0  0  0  0  0
    0.3182   17.3653   45.2215 H   0  0  0  0  0  0  0  0  0  0  0  0
  1  2  1  0
  1 19  1  0
  1 20  2  0
  2  3  1  0
  2 16  2  0
  3  4  2  0
  4  5  1  0
  5 15  2  0
  5 17  1  0
  6 17  1  0
  6 18  2  0
  6 22  1  0
  7  8  1  0
  7 14  2  0
  7 18  1  0
  8  9  1  0
  8 13  2  0
  9 10  2  0
 10 11  1  0
 11 12  2  0
 11 23  1  0
 12 13  1  0
 14 22  1  0
 15 16  1  0
 16 21  1  0
  3 24  1  0
  4 25  1  0
  9 26  1  0
 10 27  1  0
 12 28  1  0
 13 29  1  0
 14 30  1  0
 15 31  1  0
 17 32  1  0
M  CHG  2  19  -1  21  -1
M  END
>  <mol_id>  (95) 
2026-08-23-6tgu-s0-n100-r3-0095

>  <rmsd_to_ref>  (95) 
4.770408163265723

$$$$
6tgu.A
     RDKit          3D

 32 34  0  0  0  0  0  0  0  0999 V2000
   -0.7096   17.2828   36.4126 C   0  0  0  0  0  0  0  0  0  0  0  0
    0.0988   17.7754   37.5137 C   0  0  0  0  0  0  0  0  0  0  0  0
    1.0671   18.7310   37.2417 C   0  0  0  0  0  0  0  0  0  0  0  0
    1.8562   19.2399   38.2511 C   0  0  0  0  0  0  0  0  0  0  0  0
    1.6844   18.7928   39.5650 C   0  0  0  0  0  0  0  0  0  0  0  0
    2.5515   18.8733   41.9201 C   0  0  0  0  0  0  0  0  0  0  0  0
    3.0591   17.9891   43.9236 C   0  0  0  0  0  0  0  0  0  0  0  0
    4.0806   17.3405   44.7520 C   0  0  0  0  0  0  0  0  0  0  0  0
    5.3484   17.0481   44.2978 C   0  0  0  0  0  0  0  0  0  0  0  0
    6.2903   16.4544   45.0961 C   0  0  0  0  0  0  0  0  0  0  0  0
    6.0147   16.1166   46.4051 C   0  0  0  0  0  0  0  0  0  0  0  0
    4.7430   16.4011   46.8868 C   0  0  0  0  0  0  0  0  0  0  0  0
    3.8087   16.9994   46.0664 C   0  0  0  0  0  0  0  0  0  0  0  0
    1.8098   18.2799   44.3926 C   0  0  0  0  0  0  0  0  0  0  0  0
    0.7171   17.8418   39.8164 C   0  0  0  0  0  0  0  0  0  0  0  0
   -0.0759   17.3290   38.8096 C   0  0  0  0  0  0  0  0  0  0  0  0
    2.4950   19.3630   40.5493 N   0  0  0  0  0  0  0  0  0  0  0  0
    3.2585   18.3546   42.6700 N   0  0  0  0  0  0  0  0  0  0  0  0
   -1.6804   16.3531   36.6668 O   0  0  0  0  0  0  0  0  0  0  0  0
   -0.5310   17.7004   35.2232 O   0  0  0  0  0  0  0  0  0  0  0  0
   -1.0498   16.3736   39.0573 O   0  0  0  0  0  0  0  0  0  0  0  0
    0.9582   19.0907   42.9588 S   0  0  0  0  0  0  0  0  0  0  0  0
    7.2192   15.3606   47.4145 Cl  0  0  0  0  0  0  0  0  0  0  0  0
    1.2037   19.0786   36.2270 H   0  0  0  0  0  0  0  0  0  0  0  0
    2.6243   19.9945   38.0457 H   0  0  0  0  0  0  0  0  0  0  0  0
    5.6246   17.2885   43.2818 H   0  0  0  0  0  0  0  0  0  0  0  0
    7.2832   16.2340   44.7106 H   0  0  0  0  0  0  0  0  0  0  0  0
    4.5118   16.1405   47.9151 H   0  0  0  0  0  0  0  0  0  0  0  0
    2.8177   17.2025   46.4986 H   0  0  0  0  0  0  0  0  0  0  0  0
    1.2966   18.1301   45.3530 H   0  0  0  0  0  0  0  0  0  0  0  0
    0.5852   17.4988   40.8336 H   0  0  0  0  0  0  0  0  0  0  0  0
    3.1107   20.1736   40.3659 H   0  0  0  0  0  0  0  0  0  0  0  0
  1  2  1  0
  1 19  1  0
  1 20  2  0
  2  3  1  0
  2 16  2  0
  3  4  2  0
  4  5  1  0
  5 15  2  0
  5 17  1  0
  6 17  1  0
  6 18  2  0
  6 22  1  0
  7  8  1  0
  7 14  2  0
  7 18  1  0
  8  9  1  0
  8 13  2  0
  9 10  2  0
 10 11  1  0
 11 12  2  0
 11 23  1  0
 12 13  1  0
 14 22  1  0
 15 16  1  0
 16 21  1  0
  3 24  1  0
  4 25  1  0
  9 26  1  0
 10 27  1  0
 12 28  1  0
 13 29  1  0
 14 30  1  0
 15 31  1  0
 17 32  1  0
M  CHG  2  19  -1  21  -1
M  END
>  <mol_id>  (96) 
2026-08-23-6tgu-s0-n100-r3-0096

>  <rmsd_to_ref>  (96) 
4.816326530618174

$$$$
6tgu.A
     RDKit          3D

 32 34  0  0  0  0  0  0  0  0999 V2000
    2.3704   21.6844   45.0112 C   0  0  0  0  0  0  0  0  0  0  0  0
    1.4647   20.5632   44.4944 C   0  0  0  0  0  0  0  0  0  0  0  0
    0.1017   20.7837   44.3093 C   0  0  0  0  0  0  0  0  0  0  0  0
   -0.7197   19.8530   43.6646 C   0  0  0  0  0  0  0  0  0  0  0  0
   -0.2231   18.5827   43.3383 C   0  0  0  0  0  0  0  0  0  0  0  0
   -0.6829   16.6007   41.8139 C   0  0  0  0  0  0  0  0  0  0  0  0
    0.6769   15.0883   40.7945 C   0  0  0  0  0  0  0  0  0  0  0  0
    1.9459   14.4076   40.5347 C   0  0  0  0  0  0  0  0  0  0  0  0
    2.0816   13.4505   39.5190 C   0  0  0  0  0  0  0  0  0  0  0  0
    3.3062   12.8398   39.2670 C   0  0  0  0  0  0  0  0  0  0  0  0
    4.4055   13.2263   40.0103 C   0  0  0  0  0  0  0  0  0  0  0  0
    4.3173   14.1726   41.0202 C   0  0  0  0  0  0  0  0  0  0  0  0
    3.0809   14.7639   41.2647 C   0  0  0  0  0  0  0  0  0  0  0  0
   -0.4778   14.8476   40.0980 C   0  0  0  0  0  0  0  0  0  0  0  0
    1.1488   18.3482   43.5080 C   0  0  0  0  0  0  0  0  0  0  0  0
    1.9572   19.3305   44.0830 C   0  0  0  0  0  0  0  0  0  0  0  0
   -1.0290   17.6445   42.6229 N   0  0  0  0  0  0  0  0  0  0  0  0
    0.6181   16.1534   41.7242 N   0  0  0  0  0  0  0  0  0  0  0  0
    1.8520   22.8366   45.0941 O   0  0  0  0  0  0  0  0  0  0  0  0
    3.5658   21.3911   45.2322 O   0  0  0  0  0  0  0  0  0  0  0  0
    3.3158   19.1313   44.1486 O   0  0  0  0  0  0  0  0  0  0  0  0
   -1.7119   15.9630   40.5459 S   0  0  0  0  0  0  0  0  0  0  0  0
    5.9454   12.5042   39.6803 Cl  0  0  0  0  0  0  0  0  0  0  0  0
   -0.3424   21.7187   44.6816 H   0  0  0  0  0  0  0  0  0  0  0  0
   -1.7572   20.1180   43.4131 H   0  0  0  0  0  0  0  0  0  0  0  0
    1.2059   13.1781   38.9116 H   0  0  0  0  0  0  0  0  0  0  0  0
    3.3975   12.0649   38.4916 H   0  0  0  0  0  0  0  0  0  0  0  0
    5.2017   14.4490   41.6129 H   0  0  0  0  0  0  0  0  0  0  0  0
    2.9967   15.5290   42.0506 H   0  0  0  0  0  0  0  0  0  0  0  0
   -0.6007   14.0486   39.3521 H   0  0  0  0  0  0  0  0  0  0  0  0
    1.5876   17.3914   43.1884 H   0  0  0  0  0  0  0  0  0  0  0  0
   -2.0438   17.7785   42.7370 H   0  0  0  0  0  0  0  0  0  0  0  0
  1  2  1  0
  1 19  1  0
  1 20  2  0
  2  3  1  0
  2 16  2  0
  3  4  2  0
  4  5  1  0
  5 15  2  0
  5 17  1  0
  6 17  1  0
  6 18  2  0
  6 22  1  0
  7  8  1  0
  7 14  2  0
  7 18  1  0
  8  9  1  0
  8 13  2  0
  9 10  2  0
 10 11  1  0
 11 12  2  0
 11 23  1  0
 12 13  1  0
 14 22  1  0
 15 16  1  0
 16 21  1  0
  3 24  1  0
  4 25  1  0
  9 26  1  0
 10 27  1  0
 12 28  1  0
 13 29  1  0
 14 30  1  0
 15 31  1  0
 17 32  1  0
M  CHG  2  19  -1  21  -1
M  END
>  <mol_id>  (97) 
2026-08-23-6tgu-s0-n100-r3-0097

>  <rmsd_to_ref>  (97) 
4.862244897961649

$$$$
6tgu.A
     RDKit          3D

 32 34  0  0  0  0  0  0  0  0999 V2000
    7.6342   15.9907   39.4250 C   0  0  0  0  0  0  0  0  0  0  0  0
    6.4081   16.5759   40.0059 C   0  0  0  0  0  0  0  0  0  0  0  0
    5.3209   16.8273   39.1773 C   0  0  0  0  0  0  0  0  0  0  0  0
    4.1436   17.3678   39.7088 C   0  0  0  0  0  0  0  0  0  0  0  0
    4.0326   17.6591   41.0423 C   0  0  0  0  0  0  0  0  0  0  0  0
    1.6869   17.3746   41.6070 C   0  0  0  0  0  0  0  0  0  0  0  0
   -0.2303   16.2737   42.0420 C   0  0  0  0  0  0  0  0  0  0  0  0
   -1.2438   15.8087   42.9778 C   0  0  0  0  0  0  0  0  0  0  0  0
   -1.1163   16.1295   44.3151 C   0  0  0  0  0  0  0  0  0  0  0  0
   -2.0840   15.6573   45.1641 C   0  0  0  0  0  0  0  0  0  0  0  0
   -3.1614   14.8968   44.7988 C   0  0  0  0  0  0  0  0  0  0  0  0
   -3.2882   14.5758   43.4468 C   0  0  0  0  0  0  0  0  0  0  0  0
   -2.3186   15.0418   42.5609 C   0  0  0  0  0  0  0  0  0  0  0  0
   -0.3327   15.8766   40.6469 C   0  0  0  0  0  0  0  0  0  0  0  0
    5.1302   17.4004   41.8407 C   0  0  0  0  0  0  0  0  0  0  0  0
    6.3099   16.8676   41.3535 C   0  0  0  0  0  0  0  0  0  0  0  0
    2.8787   18.1565   41.6896 N   0  0  0  0  0  0  0  0  0  0  0  0
    0.8311   16.9839   42.2234 N   0  0  0  0  0  0  0  0  0  0  0  0
    8.7126   15.7296   40.2583 O   0  0  0  0  0  0  0  0  0  0  0  0
    7.6648   15.7441   38.1747 O   0  0  0  0  0  0  0  0  0  0  0  0
    7.4020   16.6112   42.1572 O   0  0  0  0  0  0  0  0  0  0  0  0
    1.1911   16.6541   39.8987 S   0  0  0  0  0  0  0  0  0  0  0  0
   -4.3727   14.3198   45.9228 Cl  0  0  0  0  0  0  0  0  0  0  0  0
    5.3963   16.5946   38.1062 H   0  0  0  0  0  0  0  0  0  0  0  0
    3.3349   17.5636   39.0303 H   0  0  0  0  0  0  0  0  0  0  0  0
   -0.2852   16.7328   44.6824 H   0  0  0  0  0  0  0  0  0  0  0  0
   -1.9856   15.9163   46.2271 H   0  0  0  0  0  0  0  0  0  0  0  0
   -4.1267   13.9719   43.0811 H   0  0  0  0  0  0  0  0  0  0  0  0
   -2.4516   14.7701   41.5111 H   0  0  0  0  0  0  0  0  0  0  0  0
   -1.0276   15.3167   40.1522 H   0  0  0  0  0  0  0  0  0  0  0  0
    5.1106   17.6030   42.9066 H   0  0  0  0  0  0  0  0  0  0  0  0
    2.8672   19.0577   42.2144 H   0  0  0  0  0  0  0  0  0  0  0  0
  1  2  1  0
  1 19  1  0
  1 20  2  0
  2  3  1  0
  2 16  2  0
  3  4  2  0
  4  5  1  0
  5 15  2  0
  5 17  1  0
  6 17  1  0
  6 18  2  0
  6 22  1  0
  7  8  1  0
  7 14  2  0
  7 18  1  0
  8  9  1  0
  8 13  2  0
  9 10  2  0
 10 11  1  0
 11 12  2  0
 11 23  1  0
 12 13  1  0
 14 22  1  0
 15 16  1  0
 16 21  1  0
  3 24  1  0
  4 25  1  0
  9 26  1  0
 10 27  1  0
 12 28  1  0
 13 29  1  0
 14 30  1  0
 15 31  1  0
 17 32  1  0
M  CHG  2  19  -1  21  -1
M  END
>  <mol_id>  (98) 
2026-08-23-6tgu-s0-n100-r3-0098

>  <rmsd_to_ref>  (98) 
4.908163265306935

$$$$
6tgu.A
     RDKit          3D

 32 34  0  0  0  0  0  0  0  0999 V2000
    6.4292   16.2973   36.9894 C   0  0  0  0  0  0  0  0  0  0  0  0
    5.6403   16.7147   38.2336 C   0  0  0  0  0  0  0  0  0  0  0  0
    6.2229   17.5326   39.1991 C   0  0  0  0  0  0  0  0  0  0  0  0
    5.4812   18.0878   40.2469 C   0  0  0  0  0  0  0  0  0  0  0  0
    4.1523   17.6914   40.4561 C   0  0  0  0  0  0  0  0  0  0  0  0
    2.0101   18.4453   41.5989 C   0  0  0  0  0  0  0  0  0  0  0  0
   -0.1905   18.1664   41.0935 C   0  0  0  0  0  0  0  0  0  0  0  0
   -1.3229   17.5936   40.3652 C   0  0  0  0  0  0  0  0  0  0  0  0
   -2.6379   18.0358   40.5686 C   0  0  0  0  0  0  0  0  0  0  0  0
   -3.6961   17.5006   39.8407 C   0  0  0  0  0  0  0  0  0  0  0  0
   -3.4232   16.5498   38.8754 C   0  0  0  0  0  0  0  0  0  0  0  0
   -2.1374   16.0882   38.6375 C   0  0  0  0  0  0  0  0  0  0  0  0
   -1.0935   16.6278   39.3840 C   0  0  0  0  0  0  0  0  0  0  0  0
   -0.3065   19.1543   42.0354 C   0  0  0  0  0  0  0  0  0  0  0  0
    3.5475   16.8774   39.4877 C   0  0  0  0  0  0  0  0  0  0  0  0
    4.2971   16.4040   38.4093 C   0  0  0  0  0  0  0  0  0  0  0  0
    3.3620   18.2959   41.4815 N   0  0  0  0  0  0  0  0  0  0  0  0
    1.1332   17.8011   40.7523 N   0  0  0  0  0  0  0  0  0  0  0  0
    7.5484   16.8629   36.8140 O   0  0  0  0  0  0  0  0  0  0  0  0
    5.8724   15.4957   36.2076 O   0  0  0  0  0  0  0  0  0  0  0  0
    3.6698   15.6948   37.4127 O   0  0  0  0  0  0  0  0  0  0  0  0
    1.2440   19.7114   42.5388 S   0  0  0  0  0  0  0  0  0  0  0  0
   -4.7257   15.9040   37.9330 Cl  0  0  0  0  0  0  0  0  0  0  0  0
    7.2996   17.7485   39.1354 H   0  0  0  0  0  0  0  0  0  0  0  0
    5.9411   18.8368   40.9083 H   0  0  0  0  0  0  0  0  0  0  0  0
   -2.8361   18.8185   41.3156 H   0  0  0  0  0  0  0  0  0  0  0  0
   -4.7292   17.8277   40.0298 H   0  0  0  0  0  0  0  0  0  0  0  0
   -1.9471   15.3152   37.8783 H   0  0  0  0  0  0  0  0  0  0  0  0
   -0.0651   16.2854   39.1964 H   0  0  0  0  0  0  0  0  0  0  0  0
   -1.2624   19.5404   42.4191 H   0  0  0  0  0  0  0  0  0  0  0  0
    2.4837   16.6122   39.5776 H   0  0  0  0  0  0  0  0  0  0  0  0
    3.9046   18.6852   42.2656 H   0  0  0  0  0  0  0  0  0  0  0  0
  1  2  1  0
  1 19  1  0
  1 20  2  0
  2  3  1  0
  2 16  2  0
  3  4  2  0
  4  5  1  0
  5 15  2  0
  5 17  1  0
  6 17  1  0
  6 18  2  0
  6 22  1  0
  7  8  1  0
  7 14  2  0
  7 18  1  0
  8  9  1  0
  8 13  2  0
  9 10  2  0
 10 11  1  0
 11 12  2  0
 11 23  1  0
 12 13  1  0
 14 22  1  0
 15 16  1  0
 16 21  1  0
  3 24  1  0
  4 25  1  0
  9 26  1  0
 10 27  1  0
 12 28  1  0
 13 29  1  0
 14 30  1  0
 15 31  1  0
 17 32  1  0
M  CHG  2  19  -1  21  -1
M  END
>  <mol_id>  (99) 
2026-08-23-6tgu-s0-n100-r3-0099

>  <rmsd_to_ref>  (99) 
4.954081632659077

$$$$
6tgu.A
     RDKit          3D

 32 34  0  0  0  0  0  0  0  0999 V2000
    0.0448   22.8990   42.6889 C   0  0  0  0  0  0  0  0  0  0  0  0
    0.8883   21.7513   43.0109 C   0  0  0  0  0  0  0  0  0  0  0  0
    1.6620   21.7145   44.1416 C   0  0  0  0  0  0  0  0  0  0  0  0
    2.4439   20.6157   44.4115 C   0  0  0  0  0  0  0  0  0  0  0  0
    2.4892   19.5016   43.5633 C   0  0  0  0  0  0  0  0  0  0  0  0
    3.3576   17.2798   43.0396 C   0  0  0  0  0  0  0  0  0  0  0  0
    3.1154   15.7249   41.3981 C   0  0  0  0  0  0  0  0  0  0  0  0
    2.5235   15.2812   40.1454 C   0  0  0  0  0  0  0  0  0  0  0  0
    1.6329   16.0889   39.4734 C   0  0  0  0  0  0  0  0  0  0  0  0
    1.0330   15.7376   38.2846 C   0  0  0  0  0  0  0  0  0  0  0  0
    1.3273   14.5287   37.7322 C   0  0  0  0  0  0  0  0  0  0  0  0
    2.2185   13.7099   38.3960 C   0  0  0  0  0  0  0  0  0  0  0  0
    2.8175   14.0646   39.5861 C   0  0  0  0  0  0  0  0  0  0  0  0
    4.0613   14.8576   42.1040 C   0  0  0  0  0  0  0  0  0  0  0  0
    1.6951   19.5826   42.4383 C   0  0  0  0  0  0  0  0  0  0  0  0
    0.9015   20.6801   42.1498 C   0  0  0  0  0  0  0  0  0  0  0  0
    3.2986   18.3997   43.8719 N   0  0  0  0  0  0  0  0  0  0  0  0
    2.9327   16.8299   42.0324 N   0  0  0  0  0  0  0  0  0  0  0  0
    0.0179   23.9890   43.5446 O   0  0  0  0  0  0  0  0  0  0  0  0
   -0.6380   22.8592   41.6315 O   0  0  0  0  0  0  0  0  0  0  0  0
    0.1194   20.6965   40.9897 O   0  0  0  0  0  0  0  0  0  0  0  0
    4.4924   15.8742   43.5866 S   0  0  0  0  0  0  0  0  0  0  0  0
    0.5787   14.0504   36.2160 Cl  0  0  0  0  0  0  0  0  0  0  0  0
    1.6237   22.5795   44.7953 H   0  0  0  0  0  0  0  0  0  0  0  0
    3.0343   20.6518   45.3271 H   0  0  0  0  0  0  0  0  0  0  0  0
    1.4114   17.0514   39.9322 H   0  0  0  0  0  0  0  0  0  0  0  0
    0.3499   16.4395   37.8368 H   0  0  0  0  0  0  0  0  0  0  0  0
    2.4818   12.7262   37.9823 H   0  0  0  0  0  0  0  0  0  0  0  0
    3.5053   13.4082   40.0783 H   0  0  0  0  0  0  0  0  0  0  0  0
    4.4208   13.9057   41.8607 H   0  0  0  0  0  0  0  0  0  0  0  0
    1.6652   18.7767   41.7307 H   0  0  0  0  0  0  0  0  0  0  0  0
    3.8628   18.4654   44.7724 H   0  0  0  0  0  0  0  0  0  0  0  0
  1  2  1  0
  1 19  1  0
  1 20  2  0
  2  3  1  0
  2 16  2  0
  3  4  2  0
  4  5  1  0
  5 15  2  0
  5 17  1  0
  6 17  1  0
  6 18  2  0
  6 22  1  0
  7  8  1  0
  7 14  2  0
  7 18  1  0
  8  9  1  0
  8 13  2  0
  9 10  2  0
 10 11  1  0
 11 12  2  0
 11 23  1  0
 12 13  1  0
 14 22  1  0
 15 16  1  0
 16 21  1  0
  3 24  1  0
  4 25  1  0
  9 26  1  0
 10 27  1  0
 12 28  1  0
 13 29  1  0
 14 30  1  0
 15 31  1  0
 17 32  1  0
M  CHG  2  19  -1  21  -1
M  END
>  <mol_id>  (100) 
2026-08-23-6tgu-s0-n100-r3-0100

>  <rmsd_to_ref>  (100) 
5.000000000004828

$$$$
