6fnk.A
     RDKit          3D

 27 29  0  0  0  0  0  0  0  0999 V2000
    2.9034   16.1161   40.7342 C   0  0  0  0  0  0  0  0  0  0  0  0
    3.3991   14.8730   40.3406 C   0  0  0  0  0  0  0  0  0  0  0  0
    3.2111   13.7637   41.1521 C   0  0  0  0  0  0  0  0  0  0  0  0
    2.5220   13.8922   42.3612 N   0  0  0  0  0  0  0  0  0  0  0  0
    2.0259   15.1442   42.7552 C   0  0  0  0  0  0  0  0  0  0  0  0
    2.2158   16.2597   41.9417 C   0  0  0  0  0  0  0  0  0  0  0  0
    1.7222   17.5068   42.3382 C   0  0  0  0  0  0  0  0  0  0  0  0
    2.0408   18.6212   41.6654 N   0  0  0  0  0  0  0  0  0  0  0  0
    0.9145   17.5957   43.3997 N   0  0  0  0  0  0  0  0  0  0  0  0
    0.4272   18.7780   43.8163 C   0  0  0  0  0  0  0  0  0  0  0  0
   -0.3708   19.1111   44.8422 N   0  0  0  0  0  0  0  0  0  0  0  0
   -0.9468   18.1844   45.8212 C   0  0  0  0  0  0  0  0  0  0  0  0
   -0.5738   20.3259   44.8557 N   0  0  0  0  0  0  0  0  0  0  0  0
    0.0681   20.8526   43.7999 C   0  0  0  0  0  0  0  0  0  0  0  0
    0.7283   19.8866   43.1473 C   0  0  0  0  0  0  0  0  0  0  0  0
    1.5428   19.8079   42.0593 C   0  0  0  0  0  0  0  0  0  0  0  0
    1.8732   20.9182   41.3561 N   0  0  0  0  0  0  0  0  0  0  0  0
    3.0555   16.9924   40.0870 H   0  0  0  0  0  0  0  0  0  0  0  0
    3.9387   14.7724   39.3873 H   0  0  0  0  0  0  0  0  0  0  0  0
    3.6041   12.7836   40.8441 H   0  0  0  0  0  0  0  0  0  0  0  0
    1.4860   15.2454   43.7082 H   0  0  0  0  0  0  0  0  0  0  0  0
   -0.7252   18.5408   46.8380 H   0  0  0  0  0  0  0  0  0  0  0  0
   -2.0365   18.1326   45.6801 H   0  0  0  0  0  0  0  0  0  0  0  0
   -0.5109   17.1844   45.6801 H   0  0  0  0  0  0  0  0  0  0  0  0
    0.0539   21.9149   43.5146 H   0  0  0  0  0  0  0  0  0  0  0  0
    1.5034   21.8366   41.6400 H   0  0  0  0  0  0  0  0  0  0  0  0
    2.4942   20.8437   40.5377 H   0  0  0  0  0  0  0  0  0  0  0  0
  1  2  2  0
  1  6  1  0
  2  3  1  0
  3  4  2  0
  4  5  1  0
  5  6  2  0
  6  7  1  0
  7  8  2  0
  7  9  1  0
  8 16  1  0
  9 10  2  0
 10 11  1  0
 10 15  1  0
 11 12  1  0
 11 13  1  0
 13 14  2  0
 14 15  1  0
 15 16  2  0
 16 17  1  0
  1 18  1  0
  2 19  1  0
  3 20  1  0
  5 21  1  0
 12 22  1  0
 12 23  1  0
 12 24  1  0
 14 25  1  0
 17 26  1  0
 17 27  1  0
M  END
>  <mol_id>  (1) 
2026-09-18-6fnk-s0-n100-r2-0001

>  <rmsd_to_ref>  (1) 
0.0

>  <pose_kind>  (1) 
native

$$$$
6fnk.A
     RDKit          3D

 27 29  0  0  0  0  0  0  0  0999 V2000
    2.9220   15.8429   40.9311 C   0  0  0  0  0  0  0  0  0  0  0  0
    3.2442   14.5509   40.5789 C   0  0  0  0  0  0  0  0  0  0  0  0
    2.7206   13.5211   41.3567 C   0  0  0  0  0  0  0  0  0  0  0  0
    1.9342   13.8347   42.4026 N   0  0  0  0  0  0  0  0  0  0  0  0
    1.6139   15.0929   42.7544 C   0  0  0  0  0  0  0  0  0  0  0  0
    2.1179   16.1399   42.0021 C   0  0  0  0  0  0  0  0  0  0  0  0
    1.8097   17.5390   42.3284 C   0  0  0  0  0  0  0  0  0  0  0  0
    2.2919   18.5670   41.6070 N   0  0  0  0  0  0  0  0  0  0  0  0
    1.0048   17.7693   43.4049 N   0  0  0  0  0  0  0  0  0  0  0  0
    0.6929   19.0333   43.7451 C   0  0  0  0  0  0  0  0  0  0  0  0
   -0.0617   19.5371   44.7355 N   0  0  0  0  0  0  0  0  0  0  0  0
   -0.7718   18.7749   45.7484 C   0  0  0  0  0  0  0  0  0  0  0  0
   -0.0590   20.8555   44.6454 N   0  0  0  0  0  0  0  0  0  0  0  0
    0.6913   21.2467   43.6023 C   0  0  0  0  0  0  0  0  0  0  0  0
    1.1846   20.0936   43.0088 C   0  0  0  0  0  0  0  0  0  0  0  0
    2.0067   19.8489   41.9099 C   0  0  0  0  0  0  0  0  0  0  0  0
    2.5112   20.9237   41.1551 N   0  0  0  0  0  0  0  0  0  0  0  0
    3.3511   16.6256   40.2979 H   0  0  0  0  0  0  0  0  0  0  0  0
    3.8770   14.3119   39.7365 H   0  0  0  0  0  0  0  0  0  0  0  0
    2.9480   12.4834   41.1164 H   0  0  0  0  0  0  0  0  0  0  0  0
    0.9758   15.2824   43.6072 H   0  0  0  0  0  0  0  0  0  0  0  0
   -0.0387   18.4113   46.4734 H   0  0  0  0  0  0  0  0  0  0  0  0
   -1.6156   19.3439   46.1765 H   0  0  0  0  0  0  0  0  0  0  0  0
   -1.2025   17.8699   45.2279 H   0  0  0  0  0  0  0  0  0  0  0  0
    0.8933   22.2705   43.2612 H   0  0  0  0  0  0  0  0  0  0  0  0
    3.4785   21.2620   41.3687 H   0  0  0  0  0  0  0  0  0  0  0  0
    1.9371   21.3845   40.3905 H   0  0  0  0  0  0  0  0  0  0  0  0
  1  2  2  0
  1  6  1  0
  2  3  1  0
  3  4  2  0
  4  5  1  0
  5  6  2  0
  6  7  1  0
  7  8  2  0
  7  9  1  0
  8 16  1  0
  9 10  2  0
 10 11  1  0
 10 15  1  0
 11 12  1  0
 11 13  1  0
 13 14  2  0
 14 15  1  0
 15 16  2  0
 16 17  1  0
  1 18  1  0
  2 19  1  0
  3 20  1  0
  5 21  1  0
 12 22  1  0
 12 23  1  0
 12 24  1  0
 14 25  1  0
 17 26  1  0
 17 27  1  0
M  END
>  <mol_id>  (2) 
2026-09-18-6fnk-s0-n100-r2-0002

>  <rmsd_to_ref>  (2) 
0.5000000000054569

>  <pose_kind>  (2) 
conformer

$$$$
6fnk.A
     RDKit          3D

 27 29  0  0  0  0  0  0  0  0999 V2000
    2.7847   16.2421   40.3653 C   0  0  0  0  0  0  0  0  0  0  0  0
    3.1179   15.0300   39.7604 C   0  0  0  0  0  0  0  0  0  0  0  0
    2.8441   13.8342   40.4080 C   0  0  0  0  0  0  0  0  0  0  0  0
    2.2313   13.8452   41.6641 N   0  0  0  0  0  0  0  0  0  0  0  0
    1.8988   15.0659   42.2708 C   0  0  0  0  0  0  0  0  0  0  0  0
    2.1751   16.2679   41.6219 C   0  0  0  0  0  0  0  0  0  0  0  0
    1.8446   17.4832   42.2302 C   0  0  0  0  0  0  0  0  0  0  0  0
    2.2551   18.6489   41.7119 N   0  0  0  0  0  0  0  0  0  0  0  0
    1.1027   17.4905   43.3422 N   0  0  0  0  0  0  0  0  0  0  0  0
    0.7721   18.6384   43.9602 C   0  0  0  0  0  0  0  0  0  0  0  0
    0.0658   18.8901   45.0729 N   0  0  0  0  0  0  0  0  0  0  0  0
   -0.5647   17.8882   45.9377 C   0  0  0  0  0  0  0  0  0  0  0  0
    0.0021   20.1026   45.2799 N   0  0  0  0  0  0  0  0  0  0  0  0
    0.6492   20.7165   44.2756 C   0  0  0  0  0  0  0  0  0  0  0  0
    1.1648   19.7996   43.4459 C   0  0  0  0  0  0  0  0  0  0  0  0
    1.9133   19.8057   42.3088 C   0  0  0  0  0  0  0  0  0  0  0  0
    2.3337   20.9709   41.7592 N   0  0  0  0  0  0  0  0  0  0  0  0
    3.0044   17.1873   39.8474 H   0  0  0  0  0  0  0  0  0  0  0  0
    3.5975   15.0225   38.7704 H   0  0  0  0  0  0  0  0  0  0  0  0
    3.1091   12.8780   39.9333 H   0  0  0  0  0  0  0  0  0  0  0  0
    1.4189   15.0742   43.2606 H   0  0  0  0  0  0  0  0  0  0  0  0
   -0.2569   18.0577   46.9800 H   0  0  0  0  0  0  0  0  0  0  0  0
   -1.6586   17.9730   45.8599 H   0  0  0  0  0  0  0  0  0  0  0  0
   -0.2516   16.8821   45.6219 H   0  0  0  0  0  0  0  0  0  0  0  0
    0.7417   21.8057   44.1531 H   0  0  0  0  0  0  0  0  0  0  0  0
    2.0836   21.8678   42.1995 H   0  0  0  0  0  0  0  0  0  0  0  0
    2.9032   20.9596   40.9010 H   0  0  0  0  0  0  0  0  0  0  0  0
  1  2  2  0
  1  6  1  0
  2  3  1  0
  3  4  2  0
  4  5  1  0
  5  6  2  0
  6  7  1  0
  7  8  2  0
  7  9  1  0
  8 16  1  0
  9 10  2  0
 10 11  1  0
 10 15  1  0
 11 12  1  0
 11 13  1  0
 13 14  2  0
 14 15  1  0
 15 16  2  0
 16 17  1  0
  1 18  1  0
  2 19  1  0
  3 20  1  0
  5 21  1  0
 12 22  1  0
 12 23  1  0
 12 24  1  0
 14 25  1  0
 17 26  1  0
 17 27  1  0
M  END
>  <mol_id>  (3) 
2026-09-18-6fnk-s0-n100-r2-0003

>  <rmsd_to_ref>  (3) 
0.545918367352889

>  <pose_kind>  (3) 
rigid

$$$$
6fnk.A
     RDKit          3D

 27 29  0  0  0  0  0  0  0  0999 V2000
    2.8591   15.5326   41.0106 C   0  0  0  0  0  0  0  0  0  0  0  0
    3.2619   14.2192   40.8233 C   0  0  0  0  0  0  0  0  0  0  0  0
    2.9998   13.2809   41.8191 C   0  0  0  0  0  0  0  0  0  0  0  0
    2.3582   13.6518   42.9567 N   0  0  0  0  0  0  0  0  0  0  0  0
    1.9602   14.9336   43.1494 C   0  0  0  0  0  0  0  0  0  0  0  0
    2.2084   15.8917   42.1723 C   0  0  0  0  0  0  0  0  0  0  0  0
    1.7911   17.2739   42.3558 C   0  0  0  0  0  0  0  0  0  0  0  0
    2.0199   18.2243   41.4223 N   0  0  0  0  0  0  0  0  0  0  0  0
    1.1562   17.6148   43.4942 N   0  0  0  0  0  0  0  0  0  0  0  0
    0.7246   18.8566   43.7753 C   0  0  0  0  0  0  0  0  0  0  0  0
    0.0827   19.4116   44.8236 N   0  0  0  0  0  0  0  0  0  0  0  0
   -0.3073   18.6613   45.9908 C   0  0  0  0  0  0  0  0  0  0  0  0
   -0.0996   20.7153   44.5625 N   0  0  0  0  0  0  0  0  0  0  0  0
    0.4253   20.9876   43.3511 C   0  0  0  0  0  0  0  0  0  0  0  0
    0.9602   19.8306   42.8163 C   0  0  0  0  0  0  0  0  0  0  0  0
    1.6115   19.4976   41.6404 C   0  0  0  0  0  0  0  0  0  0  0  0
    1.8472   20.5163   40.6595 N   0  0  0  0  0  0  0  0  0  0  0  0
    3.0842   16.2239   40.2109 H   0  0  0  0  0  0  0  0  0  0  0  0
    3.7732   13.8941   39.9312 H   0  0  0  0  0  0  0  0  0  0  0  0
    3.3130   12.2551   41.6758 H   0  0  0  0  0  0  0  0  0  0  0  0
    1.4432   15.1972   44.0831 H   0  0  0  0  0  0  0  0  0  0  0  0
   -1.0732   19.2086   46.5717 H   0  0  0  0  0  0  0  0  0  0  0  0
   -0.6873   17.6447   45.7259 H   0  0  0  0  0  0  0  0  0  0  0  0
    0.5682   18.5159   46.6802 H   0  0  0  0  0  0  0  0  0  0  0  0
    0.4524   21.9331   42.8345 H   0  0  0  0  0  0  0  0  0  0  0  0
    2.1118   20.2126   39.6998 H   0  0  0  0  0  0  0  0  0  0  0  0
    1.7496   21.5116   40.9266 H   0  0  0  0  0  0  0  0  0  0  0  0
  1  2  2  0
  1  6  1  0
  2  3  1  0
  3  4  2  0
  4  5  1  0
  5  6  2  0
  6  7  1  0
  7  8  2  0
  7  9  1  0
  8 16  1  0
  9 10  2  0
 10 11  1  0
 10 15  1  0
 11 12  1  0
 11 13  1  0
 13 14  2  0
 14 15  1  0
 15 16  2  0
 16 17  1  0
  1 18  1  0
  2 19  1  0
  3 20  1  0
  5 21  1  0
 12 22  1  0
 12 23  1  0
 12 24  1  0
 14 25  1  0
 17 26  1  0
 17 27  1  0
M  END
>  <mol_id>  (4) 
2026-09-18-6fnk-s0-n100-r2-0004

>  <rmsd_to_ref>  (4) 
0.5918367346999266

>  <pose_kind>  (4) 
conformer

$$$$
6fnk.A
     RDKit          3D

 27 29  0  0  0  0  0  0  0  0999 V2000
    2.6585   15.8438   40.5915 C   0  0  0  0  0  0  0  0  0  0  0  0
    3.1503   14.5551   40.3836 C   0  0  0  0  0  0  0  0  0  0  0  0
    3.2158   13.6597   41.4411 C   0  0  0  0  0  0  0  0  0  0  0  0
    2.7855   14.0486   42.7127 N   0  0  0  0  0  0  0  0  0  0  0  0
    2.2927   15.3461   42.9191 C   0  0  0  0  0  0  0  0  0  0  0  0
    2.2282   16.2471   41.8579 C   0  0  0  0  0  0  0  0  0  0  0  0
    1.7388   17.5405   42.0672 C   0  0  0  0  0  0  0  0  0  0  0  0
    1.8291   18.4760   41.1118 N   0  0  0  0  0  0  0  0  0  0  0  0
    1.1650   17.8540   43.2332 N   0  0  0  0  0  0  0  0  0  0  0  0
    0.6905   19.0892   43.4745 C   0  0  0  0  0  0  0  0  0  0  0  0
    0.1011   19.6322   44.5506 N   0  0  0  0  0  0  0  0  0  0  0  0
   -0.1903   18.9442   45.8118 C   0  0  0  0  0  0  0  0  0  0  0  0
   -0.1821   20.8122   44.3394 N   0  0  0  0  0  0  0  0  0  0  0  0
    0.1866   21.0949   43.0791 C   0  0  0  0  0  0  0  0  0  0  0  0
    0.7650   20.0195   42.5278 C   0  0  0  0  0  0  0  0  0  0  0  0
    1.3392   19.7099   41.3330 C   0  0  0  0  0  0  0  0  0  0  0  0
    1.4351   20.6346   40.3470 N   0  0  0  0  0  0  0  0  0  0  0  0
    2.6090   16.5499   39.7495 H   0  0  0  0  0  0  0  0  0  0  0  0
    3.4859   14.2491   39.3818 H   0  0  0  0  0  0  0  0  0  0  0  0
    3.6062   12.6441   41.2790 H   0  0  0  0  0  0  0  0  0  0  0  0
    1.9567   15.6527   43.9206 H   0  0  0  0  0  0  0  0  0  0  0  0
    0.2113   19.5312   46.6510 H   0  0  0  0  0  0  0  0  0  0  0  0
   -1.2788   18.8363   45.9276 H   0  0  0  0  0  0  0  0  0  0  0  0
    0.2780   17.9489   45.8033 H   0  0  0  0  0  0  0  0  0  0  0  0
    0.0366   22.0617   42.5764 H   0  0  0  0  0  0  0  0  0  0  0  0
    1.0667   21.5851   40.4948 H   0  0  0  0  0  0  0  0  0  0  0  0
    1.8762   20.3870   39.4498 H   0  0  0  0  0  0  0  0  0  0  0  0
  1  2  2  0
  1  6  1  0
  2  3  1  0
  3  4  2  0
  4  5  1  0
  5  6  2  0
  6  7  1  0
  7  8  2  0
  7  9  1  0
  8 16  1  0
  9 10  2  0
 10 11  1  0
 10 15  1  0
 11 12  1  0
 11 13  1  0
 13 14  2  0
 14 15  1  0
 15 16  2  0
 16 17  1  0
  1 18  1  0
  2 19  1  0
  3 20  1  0
  5 21  1  0
 12 22  1  0
 12 23  1  0
 12 24  1  0
 14 25  1  0
 17 26  1  0
 17 27  1  0
M  END
>  <mol_id>  (5) 
2026-09-18-6fnk-s0-n100-r2-0005

>  <rmsd_to_ref>  (5) 
0.6377551020431332

>  <pose_kind>  (5) 
rigid

$$$$
6fnk.A
     RDKit          3D

 27 29  0  0  0  0  0  0  0  0999 V2000
    2.7573   16.3797   40.7235 C   0  0  0  0  0  0  0  0  0  0  0  0
    3.1067   15.1850   40.1042 C   0  0  0  0  0  0  0  0  0  0  0  0
    2.4492   14.0445   40.5214 C   0  0  0  0  0  0  0  0  0  0  0  0
    1.5080   14.0425   41.4784 N   0  0  0  0  0  0  0  0  0  0  0  0
    1.1642   15.2140   42.0869 C   0  0  0  0  0  0  0  0  0  0  0  0
    1.7844   16.3929   41.7162 C   0  0  0  0  0  0  0  0  0  0  0  0
    1.4466   17.6755   42.3431 C   0  0  0  0  0  0  0  0  0  0  0  0
    2.0425   18.8320   41.9923 N   0  0  0  0  0  0  0  0  0  0  0  0
    0.4876   17.6630   43.3160 N   0  0  0  0  0  0  0  0  0  0  0  0
    0.1335   18.8278   43.9335 C   0  0  0  0  0  0  0  0  0  0  0  0
   -0.7565   19.0862   44.8960 N   0  0  0  0  0  0  0  0  0  0  0  0
   -1.6449   18.1649   45.5965 C   0  0  0  0  0  0  0  0  0  0  0  0
   -0.7252   20.3803   45.1500 N   0  0  0  0  0  0  0  0  0  0  0  0
    0.1860   20.9812   44.3556 C   0  0  0  0  0  0  0  0  0  0  0  0
    0.7489   20.0151   43.5696 C   0  0  0  0  0  0  0  0  0  0  0  0
    1.7148   20.0049   42.5847 C   0  0  0  0  0  0  0  0  0  0  0  0
    2.3344   21.2116   42.2208 N   0  0  0  0  0  0  0  0  0  0  0  0
    3.2652   17.2905   40.4079 H   0  0  0  0  0  0  0  0  0  0  0  0
    3.8655   15.1867   39.3326 H   0  0  0  0  0  0  0  0  0  0  0  0
    2.7372   13.1197   40.0241 H   0  0  0  0  0  0  0  0  0  0  0  0
    0.4107   15.2102   42.8527 H   0  0  0  0  0  0  0  0  0  0  0  0
   -2.6850   18.5670   45.6354 H   0  0  0  0  0  0  0  0  0  0  0  0
   -1.6383   17.1884   45.0889 H   0  0  0  0  0  0  0  0  0  0  0  0
   -1.2860   18.0817   46.6468 H   0  0  0  0  0  0  0  0  0  0  0  0
    0.4190   22.0368   44.3517 H   0  0  0  0  0  0  0  0  0  0  0  0
    2.8927   21.2319   41.3337 H   0  0  0  0  0  0  0  0  0  0  0  0
    2.2495   22.0605   42.8022 H   0  0  0  0  0  0  0  0  0  0  0  0
  1  2  2  0
  1  6  1  0
  2  3  1  0
  3  4  2  0
  4  5  1  0
  5  6  2  0
  6  7  1  0
  7  8  2  0
  7  9  1  0
  8 16  1  0
  9 10  2  0
 10 11  1  0
 10 15  1  0
 11 12  1  0
 11 13  1  0
 13 14  2  0
 14 15  1  0
 15 16  2  0
 16 17  1  0
  1 18  1  0
  2 19  1  0
  3 20  1  0
  5 21  1  0
 12 22  1  0
 12 23  1  0
 12 24  1  0
 14 25  1  0
 17 26  1  0
 17 27  1  0
M  END
>  <mol_id>  (6) 
2026-09-18-6fnk-s0-n100-r2-0006

>  <rmsd_to_ref>  (6) 
0.6836734693923324

>  <pose_kind>  (6) 
conformer

$$$$
6fnk.A
     RDKit          3D

 27 29  0  0  0  0  0  0  0  0999 V2000
    2.7336   16.5642   40.4925 C   0  0  0  0  0  0  0  0  0  0  0  0
    3.2034   15.4460   39.8035 C   0  0  0  0  0  0  0  0  0  0  0  0
    3.1532   14.1939   40.3987 C   0  0  0  0  0  0  0  0  0  0  0  0
    2.6287   14.0539   41.6866 N   0  0  0  0  0  0  0  0  0  0  0  0
    2.1583   15.1808   42.3778 C   0  0  0  0  0  0  0  0  0  0  0  0
    2.2100   16.4394   41.7816 C   0  0  0  0  0  0  0  0  0  0  0  0
    1.7426   17.5611   42.4740 C   0  0  0  0  0  0  0  0  0  0  0  0
    1.9405   18.7982   41.9981 N   0  0  0  0  0  0  0  0  0  0  0  0
    1.0818   17.4045   43.6254 N   0  0  0  0  0  0  0  0  0  0  0  0
    0.6249   18.4592   44.3239 C   0  0  0  0  0  0  0  0  0  0  0  0
   -0.0371   18.5492   45.4874 N   0  0  0  0  0  0  0  0  0  0  0  0
   -0.4539   17.4246   46.3302 C   0  0  0  0  0  0  0  0  0  0  0  0
   -0.2669   19.7272   45.7644 N   0  0  0  0  0  0  0  0  0  0  0  0
    0.2150   20.4778   44.7601 C   0  0  0  0  0  0  0  0  0  0  0  0
    0.8062   19.6890   43.8528 C   0  0  0  0  0  0  0  0  0  0  0  0
    1.4699   19.8610   42.6767 C   0  0  0  0  0  0  0  0  0  0  0  0
    1.6756   21.1005   42.1690 N   0  0  0  0  0  0  0  0  0  0  0  0
    2.7760   17.5547   40.0159 H   0  0  0  0  0  0  0  0  0  0  0  0
    3.6133   15.5569   38.7888 H   0  0  0  0  0  0  0  0  0  0  0  0
    3.5261   13.3119   39.8575 H   0  0  0  0  0  0  0  0  0  0  0  0
    1.7480   15.0705   43.3924 H   0  0  0  0  0  0  0  0  0  0  0  0
   -0.1076   17.5908   47.3610 H   0  0  0  0  0  0  0  0  0  0  0  0
   -1.5510   17.3457   46.3202 H   0  0  0  0  0  0  0  0  0  0  0  0
   -0.0158   16.4933   45.9420 H   0  0  0  0  0  0  0  0  0  0  0  0
    0.1362   21.5729   44.6928 H   0  0  0  0  0  0  0  0  0  0  0  0
    1.3240   21.9278   42.6718 H   0  0  0  0  0  0  0  0  0  0  0  0
    2.1835   21.2153   41.2803 H   0  0  0  0  0  0  0  0  0  0  0  0
  1  2  2  0
  1  6  1  0
  2  3  1  0
  3  4  2  0
  4  5  1  0
  5  6  2  0
  6  7  1  0
  7  8  2  0
  7  9  1  0
  8 16  1  0
  9 10  2  0
 10 11  1  0
 10 15  1  0
 11 12  1  0
 11 13  1  0
 13 14  2  0
 14 15  1  0
 15 16  2  0
 16 17  1  0
  1 18  1  0
  2 19  1  0
  3 20  1  0
  5 21  1  0
 12 22  1  0
 12 23  1  0
 12 24  1  0
 14 25  1  0
 17 26  1  0
 17 27  1  0
M  END
>  <mol_id>  (7) 
2026-09-18-6fnk-s0-n100-r2-0007

>  <rmsd_to_ref>  (7) 
0.7295918367396356

>  <pose_kind>  (7) 
rigid

$$$$
6fnk.A
     RDKit          3D

 27 29  0  0  0  0  0  0  0  0999 V2000
    3.4656   15.6833   41.2866 C   0  0  0  0  0  0  0  0  0  0  0  0
    4.0528   14.4336   41.2280 C   0  0  0  0  0  0  0  0  0  0  0  0
    3.6906   13.5070   42.2059 C   0  0  0  0  0  0  0  0  0  0  0  0
    2.8005   13.8448   43.1582 N   0  0  0  0  0  0  0  0  0  0  0  0
    2.2286   15.0613   43.2155 C   0  0  0  0  0  0  0  0  0  0  0  0
    2.5534   16.0298   42.2623 C   0  0  0  0  0  0  0  0  0  0  0  0
    1.9512   17.3631   42.2936 C   0  0  0  0  0  0  0  0  0  0  0  0
    2.2466   18.3165   41.3864 N   0  0  0  0  0  0  0  0  0  0  0  0
    1.0686   17.6313   43.2748 N   0  0  0  0  0  0  0  0  0  0  0  0
    0.4575   18.8223   43.3965 C   0  0  0  0  0  0  0  0  0  0  0  0
   -0.4258   19.3567   44.2310 N   0  0  0  0  0  0  0  0  0  0  0  0
   -1.0173   18.6565   45.3769 C   0  0  0  0  0  0  0  0  0  0  0  0
   -0.6980   20.5987   43.8905 N   0  0  0  0  0  0  0  0  0  0  0  0
    0.0315   20.8868   42.7966 C   0  0  0  0  0  0  0  0  0  0  0  0
    0.7843   19.7793   42.4472 C   0  0  0  0  0  0  0  0  0  0  0  0
    1.6799   19.5329   41.4372 C   0  0  0  0  0  0  0  0  0  0  0  0
    2.0110   20.5180   40.4668 N   0  0  0  0  0  0  0  0  0  0  0  0
    3.7669   16.3963   40.5052 H   0  0  0  0  0  0  0  0  0  0  0  0
    4.7657   14.1965   40.4469 H   0  0  0  0  0  0  0  0  0  0  0  0
    4.1473   12.5473   42.1535 H   0  0  0  0  0  0  0  0  0  0  0  0
    1.5120   15.3564   43.9692 H   0  0  0  0  0  0  0  0  0  0  0  0
   -0.7510   17.5854   45.3533 H   0  0  0  0  0  0  0  0  0  0  0  0
   -2.1242   18.7755   45.2377 H   0  0  0  0  0  0  0  0  0  0  0  0
   -0.6372   19.1655   46.2863 H   0  0  0  0  0  0  0  0  0  0  0  0
    0.0379   21.8306   42.2649 H   0  0  0  0  0  0  0  0  0  0  0  0
    2.4029   21.4448   40.7289 H   0  0  0  0  0  0  0  0  0  0  0  0
    1.8684   20.3403   39.4295 H   0  0  0  0  0  0  0  0  0  0  0  0
  1  2  2  0
  1  6  1  0
  2  3  1  0
  3  4  2  0
  4  5  1  0
  5  6  2  0
  6  7  1  0
  7  8  2  0
  7  9  1  0
  8 16  1  0
  9 10  2  0
 10 11  1  0
 10 15  1  0
 11 12  1  0
 11 13  1  0
 13 14  2  0
 14 15  1  0
 15 16  2  0
 16 17  1  0
  1 18  1  0
  2 19  1  0
  3 20  1  0
  5 21  1  0
 12 22  1  0
 12 23  1  0
 12 24  1  0
 14 25  1  0
 17 26  1  0
 17 27  1  0
M  END
>  <mol_id>  (8) 
2026-09-18-6fnk-s0-n100-r2-0008

>  <rmsd_to_ref>  (8) 
0.7755102040822509

>  <pose_kind>  (8) 
conformer

$$$$
6fnk.A
     RDKit          3D

 27 29  0  0  0  0  0  0  0  0999 V2000
    2.3136   15.4066   40.8748 C   0  0  0  0  0  0  0  0  0  0  0  0
    2.6046   14.0717   40.5932 C   0  0  0  0  0  0  0  0  0  0  0  0
    2.6276   13.1367   41.6178 C   0  0  0  0  0  0  0  0  0  0  0  0
    2.3556   13.5326   42.9302 N   0  0  0  0  0  0  0  0  0  0  0  0
    2.0647   14.8764   43.2106 C   0  0  0  0  0  0  0  0  0  0  0  0
    2.0432   15.8170   42.1825 C   0  0  0  0  0  0  0  0  0  0  0  0
    1.7553   17.1561   42.4654 C   0  0  0  0  0  0  0  0  0  0  0  0
    1.8996   18.1057   41.5308 N   0  0  0  0  0  0  0  0  0  0  0  0
    1.3229   17.5008   43.6824 N   0  0  0  0  0  0  0  0  0  0  0  0
    1.0443   18.7790   43.9945 C   0  0  0  0  0  0  0  0  0  0  0  0
    0.6212   19.3564   45.1293 N   0  0  0  0  0  0  0  0  0  0  0  0
    0.3365   18.6677   46.3917 C   0  0  0  0  0  0  0  0  0  0  0  0
    0.4886   20.5710   44.9734 N   0  0  0  0  0  0  0  0  0  0  0  0
    0.7936   20.8480   43.6949 C   0  0  0  0  0  0  0  0  0  0  0  0
    1.1729   19.7254   43.0698 C   0  0  0  0  0  0  0  0  0  0  0  0
    1.6039   19.3856   41.8240 C   0  0  0  0  0  0  0  0  0  0  0  0
    1.7498   20.3250   40.8582 N   0  0  0  0  0  0  0  0  0  0  0  0
    2.2969   16.1439   40.0586 H   0  0  0  0  0  0  0  0  0  0  0  0
    2.8156   13.7607   39.5594 H   0  0  0  0  0  0  0  0  0  0  0  0
    2.8599   12.0844   41.3973 H   0  0  0  0  0  0  0  0  0  0  0  0
    1.8533   15.1881   44.2441 H   0  0  0  0  0  0  0  0  0  0  0  0
    0.8795   19.1629   47.2101 H   0  0  0  0  0  0  0  0  0  0  0  0
   -0.7442   18.7043   46.5937 H   0  0  0  0  0  0  0  0  0  0  0  0
    0.6604   17.6190   46.3184 H   0  0  0  0  0  0  0  0  0  0  0  0
    0.7402   21.8444   43.2319 H   0  0  0  0  0  0  0  0  0  0  0  0
    1.5292   21.3105   41.0609 H   0  0  0  0  0  0  0  0  0  0  0  0
    2.0812   20.0535   39.9215 H   0  0  0  0  0  0  0  0  0  0  0  0
  1  2  2  0
  1  6  1  0
  2  3  1  0
  3  4  2  0
  4  5  1  0
  5  6  2  0
  6  7  1  0
  7  8  2  0
  7  9  1  0
  8 16  1  0
  9 10  2  0
 10 11  1  0
 10 15  1  0
 11 12  1  0
 11 13  1  0
 13 14  2  0
 14 15  1  0
 15 16  2  0
 16 17  1  0
  1 18  1  0
  2 19  1  0
  3 20  1  0
  5 21  1  0
 12 22  1  0
 12 23  1  0
 12 24  1  0
 14 25  1  0
 17 26  1  0
 17 27  1  0
M  END
>  <mol_id>  (9) 
2026-09-18-6fnk-s0-n100-r2-0009

>  <rmsd_to_ref>  (9) 
0.821428571433537

>  <pose_kind>  (9) 
rigid

$$$$
6fnk.A
     RDKit          3D

 27 29  0  0  0  0  0  0  0  0999 V2000
    3.3988   16.1545   41.5237 C   0  0  0  0  0  0  0  0  0  0  0  0
    4.1706   15.0101   41.4228 C   0  0  0  0  0  0  0  0  0  0  0  0
    4.0972   14.0916   42.4621 C   0  0  0  0  0  0  0  0  0  0  0  0
    3.2923   14.3474   43.5069 N   0  0  0  0  0  0  0  0  0  0  0  0
    2.5451   15.4553   43.6044 C   0  0  0  0  0  0  0  0  0  0  0  0
    2.5761   16.4103   42.5971 C   0  0  0  0  0  0  0  0  0  0  0  0
    1.7725   17.6255   42.6783 C   0  0  0  0  0  0  0  0  0  0  0  0
    1.7933   18.5664   41.7018 N   0  0  0  0  0  0  0  0  0  0  0  0
    0.9923   17.8045   43.7601 N   0  0  0  0  0  0  0  0  0  0  0  0
    0.2173   18.9003   43.9146 C   0  0  0  0  0  0  0  0  0  0  0  0
   -0.6347   19.3269   44.8644 N   0  0  0  0  0  0  0  0  0  0  0  0
   -0.9625   18.6198   46.1028 C   0  0  0  0  0  0  0  0  0  0  0  0
   -1.1551   20.4994   44.5304 N   0  0  0  0  0  0  0  0  0  0  0  0
   -0.6527   20.8891   43.3278 C   0  0  0  0  0  0  0  0  0  0  0  0
    0.2133   19.8819   42.9374 C   0  0  0  0  0  0  0  0  0  0  0  0
    1.0197   19.6822   41.8340 C   0  0  0  0  0  0  0  0  0  0  0  0
    1.0637   20.6481   40.7949 N   0  0  0  0  0  0  0  0  0  0  0  0
    3.4656   16.8556   40.7131 H   0  0  0  0  0  0  0  0  0  0  0  0
    4.8098   14.8263   40.5739 H   0  0  0  0  0  0  0  0  0  0  0  0
    4.6847   13.2010   42.4049 H   0  0  0  0  0  0  0  0  0  0  0  0
    1.9095   15.5945   44.4923 H   0  0  0  0  0  0  0  0  0  0  0  0
   -1.9766   18.1755   46.0499 H   0  0  0  0  0  0  0  0  0  0  0  0
   -0.9223   19.3105   46.9628 H   0  0  0  0  0  0  0  0  0  0  0  0
   -0.2462   17.7877   46.2406 H   0  0  0  0  0  0  0  0  0  0  0  0
   -0.8701   21.7939   42.7725 H   0  0  0  0  0  0  0  0  0  0  0  0
    1.5454   21.5728   40.8850 H   0  0  0  0  0  0  0  0  0  0  0  0
    0.5804   20.3953   39.9025 H   0  0  0  0  0  0  0  0  0  0  0  0
  1  2  2  0
  1  6  1  0
  2  3  1  0
  3  4  2  0
  4  5  1  0
  5  6  2  0
  6  7  1  0
  7  8  2  0
  7  9  1  0
  8 16  1  0
  9 10  2  0
 10 11  1  0
 10 15  1  0
 11 12  1  0
 11 13  1  0
 13 14  2  0
 14 15  1  0
 15 16  2  0
 16 17  1  0
  1 18  1  0
  2 19  1  0
  3 20  1  0
  5 21  1  0
 12 22  1  0
 12 23  1  0
 12 24  1  0
 14 25  1  0
 17 26  1  0
 17 27  1  0
M  END
>  <mol_id>  (10) 
2026-09-18-6fnk-s0-n100-r2-0010

>  <rmsd_to_ref>  (10) 
0.8673469387783203

>  <pose_kind>  (10) 
conformer

$$$$
6fnk.A
     RDKit          3D

 27 29  0  0  0  0  0  0  0  0999 V2000
    2.8939   15.7866   40.5870 C   0  0  0  0  0  0  0  0  0  0  0  0
    2.9890   14.4950   40.0687 C   0  0  0  0  0  0  0  0  0  0  0  0
    2.3149   13.4502   40.6840 C   0  0  0  0  0  0  0  0  0  0  0  0
    1.5384   13.6937   41.8203 N   0  0  0  0  0  0  0  0  0  0  0  0
    1.4459   14.9937   42.3402 C   0  0  0  0  0  0  0  0  0  0  0  0
    2.1241   16.0437   41.7240 C   0  0  0  0  0  0  0  0  0  0  0  0
    2.0319   17.3380   42.2460 C   0  0  0  0  0  0  0  0  0  0  0  0
    2.8082   18.3268   41.7814 N   0  0  0  0  0  0  0  0  0  0  0  0
    1.1539   17.6020   43.2188 N   0  0  0  0  0  0  0  0  0  0  0  0
    1.0424   18.8319   43.7516 C   0  0  0  0  0  0  0  0  0  0  0  0
    0.2620   19.3227   44.7264 N   0  0  0  0  0  0  0  0  0  0  0  0
   -0.7350   18.5693   45.4928 C   0  0  0  0  0  0  0  0  0  0  0  0
    0.4857   20.5219   44.8972 N   0  0  0  0  0  0  0  0  0  0  0  0
    1.4189   20.8881   44.0032 C   0  0  0  0  0  0  0  0  0  0  0  0
    1.7999   19.8211   43.2882 C   0  0  0  0  0  0  0  0  0  0  0  0
    2.6917   19.5668   42.2915 C   0  0  0  0  0  0  0  0  0  0  0  0
    3.4820   20.5507   41.7977 N   0  0  0  0  0  0  0  0  0  0  0  0
    3.4306   16.6112   40.0952 H   0  0  0  0  0  0  0  0  0  0  0  0
    3.5980   14.3050   39.1726 H   0  0  0  0  0  0  0  0  0  0  0  0
    2.3916   12.4308   40.2780 H   0  0  0  0  0  0  0  0  0  0  0  0
    0.8368   15.1845   43.2361 H   0  0  0  0  0  0  0  0  0  0  0  0
   -0.5598   18.7184   46.5685 H   0  0  0  0  0  0  0  0  0  0  0  0
   -1.7429   18.9249   45.2327 H   0  0  0  0  0  0  0  0  0  0  0  0
   -0.6503   17.4992   45.2524 H   0  0  0  0  0  0  0  0  0  0  0  0
    1.8106   21.9083   43.8775 H   0  0  0  0  0  0  0  0  0  0  0  0
    3.4095   21.5069   42.1734 H   0  0  0  0  0  0  0  0  0  0  0  0
    4.1553   20.3422   41.0466 H   0  0  0  0  0  0  0  0  0  0  0  0
  1  2  2  0
  1  6  1  0
  2  3  1  0
  3  4  2  0
  4  5  1  0
  5  6  2  0
  6  7  1  0
  7  8  2  0
  7  9  1  0
  8 16  1  0
  9 10  2  0
 10 11  1  0
 10 15  1  0
 11 12  1  0
 11 13  1  0
 13 14  2  0
 14 15  1  0
 15 16  2  0
 16 17  1  0
  1 18  1  0
  2 19  1  0
  3 20  1  0
  5 21  1  0
 12 22  1  0
 12 23  1  0
 12 24  1  0
 14 25  1  0
 17 26  1  0
 17 27  1  0
M  END
>  <mol_id>  (11) 
2026-09-18-6fnk-s0-n100-r2-0011

>  <rmsd_to_ref>  (11) 
0.9132653061279496

>  <pose_kind>  (11) 
rigid

$$$$
6fnk.A
     RDKit          3D

 27 29  0  0  0  0  0  0  0  0999 V2000
    2.0214   15.4962   40.7258 C   0  0  0  0  0  0  0  0  0  0  0  0
    2.0808   14.1719   40.3438 C   0  0  0  0  0  0  0  0  0  0  0  0
    1.6096   13.1524   41.1776 C   0  0  0  0  0  0  0  0  0  0  0  0
    1.0838   13.4607   42.3836 N   0  0  0  0  0  0  0  0  0  0  0  0
    1.0133   14.7458   42.7824 C   0  0  0  0  0  0  0  0  0  0  0  0
    1.4733   15.7817   41.9761 C   0  0  0  0  0  0  0  0  0  0  0  0
    1.3971   17.1853   42.4100 C   0  0  0  0  0  0  0  0  0  0  0  0
    1.8475   18.1951   41.6197 N   0  0  0  0  0  0  0  0  0  0  0  0
    0.8680   17.4550   43.6156 N   0  0  0  0  0  0  0  0  0  0  0  0
    0.7656   18.7125   44.0786 C   0  0  0  0  0  0  0  0  0  0  0  0
    0.2963   19.2881   45.2122 N   0  0  0  0  0  0  0  0  0  0  0  0
   -0.2784   18.5762   46.3304 C   0  0  0  0  0  0  0  0  0  0  0  0
    0.4489   20.6134   45.1318 N   0  0  0  0  0  0  0  0  0  0  0  0
    1.0228   20.9399   43.9418 C   0  0  0  0  0  0  0  0  0  0  0  0
    1.2209   19.7452   43.2820 C   0  0  0  0  0  0  0  0  0  0  0  0
    1.7655   19.4736   42.0421 C   0  0  0  0  0  0  0  0  0  0  0  0
    2.2469   20.5051   41.1883 N   0  0  0  0  0  0  0  0  0  0  0  0
    2.3913   16.2919   40.0706 H   0  0  0  0  0  0  0  0  0  0  0  0
    2.5097   13.9536   39.3666 H   0  0  0  0  0  0  0  0  0  0  0  0
    1.6968   12.1533   40.7971 H   0  0  0  0  0  0  0  0  0  0  0  0
    0.5878   14.9502   43.7498 H   0  0  0  0  0  0  0  0  0  0  0  0
   -1.2383   18.0813   46.0306 H   0  0  0  0  0  0  0  0  0  0  0  0
    0.4291   17.7595   46.6114 H   0  0  0  0  0  0  0  0  0  0  0  0
   -0.3937   19.2666   47.1881 H   0  0  0  0  0  0  0  0  0  0  0  0
    1.2652   21.9575   43.6067 H   0  0  0  0  0  0  0  0  0  0  0  0
    1.6977   20.9021   40.3921 H   0  0  0  0  0  0  0  0  0  0  0  0
    3.2078   20.8755   41.3836 H   0  0  0  0  0  0  0  0  0  0  0  0
  1  2  2  0
  1  6  1  0
  2  3  1  0
  3  4  2  0
  4  5  1  0
  5  6  2  0
  6  7  1  0
  7  8  2  0
  7  9  1  0
  8 16  1  0
  9 10  2  0
 10 11  1  0
 10 15  1  0
 11 12  1  0
 11 13  1  0
 13 14  2  0
 14 15  1  0
 15 16  2  0
 16 17  1  0
  1 18  1  0
  2 19  1  0
  3 20  1  0
  5 21  1  0
 12 22  1  0
 12 23  1  0
 12 24  1  0
 14 25  1  0
 17 26  1  0
 17 27  1  0
M  END
>  <mol_id>  (12) 
2026-09-18-6fnk-s0-n100-r2-0012

>  <rmsd_to_ref>  (12) 
0.9591836734726293

>  <pose_kind>  (12) 
conformer

$$$$
6fnk.A
     RDKit          3D

 27 29  0  0  0  0  0  0  0  0999 V2000
    1.5152   16.3952   40.2064 C   0  0  0  0  0  0  0  0  0  0  0  0
    1.7815   15.1621   39.6109 C   0  0  0  0  0  0  0  0  0  0  0  0
    1.9564   14.0350   40.4005 C   0  0  0  0  0  0  0  0  0  0  0  0
    1.8619   14.1355   41.7912 N   0  0  0  0  0  0  0  0  0  0  0  0
    1.5955   15.3775   42.3874 C   0  0  0  0  0  0  0  0  0  0  0  0
    1.4215   16.5109   41.5954 C   0  0  0  0  0  0  0  0  0  0  0  0
    1.1584   17.7479   42.1926 C   0  0  0  0  0  0  0  0  0  0  0  0
    1.1614   18.8774   41.4713 N   0  0  0  0  0  0  0  0  0  0  0  0
    0.8927   17.8118   43.5012 N   0  0  0  0  0  0  0  0  0  0  0  0
    0.6435   18.9836   44.1124 C   0  0  0  0  0  0  0  0  0  0  0  0
    0.3728   19.2924   45.3897 N   0  0  0  0  0  0  0  0  0  0  0  0
    0.2724   18.3433   46.5024 C   0  0  0  0  0  0  0  0  0  0  0  0
    0.2049   20.5062   45.5152 N   0  0  0  0  0  0  0  0  0  0  0  0
    0.3283   21.0572   44.2964 C   0  0  0  0  0  0  0  0  0  0  0  0
    0.6323   20.1072   43.4020 C   0  0  0  0  0  0  0  0  0  0  0  0
    0.8928   20.0541   42.0669 C   0  0  0  0  0  0  0  0  0  0  0  0
    0.8931   21.1802   41.3130 N   0  0  0  0  0  0  0  0  0  0  0  0
    1.3776   17.2858   39.5756 H   0  0  0  0  0  0  0  0  0  0  0  0
    1.8527   15.0836   38.5161 H   0  0  0  0  0  0  0  0  0  0  0  0
    2.1694   13.0627   39.9322 H   0  0  0  0  0  0  0  0  0  0  0  0
    1.5239   15.4566   43.4822 H   0  0  0  0  0  0  0  0  0  0  0  0
    0.9163   18.6779   47.3291 H   0  0  0  0  0  0  0  0  0  0  0  0
   -0.7708   18.2921   46.8477 H   0  0  0  0  0  0  0  0  0  0  0  0
    0.5963   17.3475   46.1653 H   0  0  0  0  0  0  0  0  0  0  0  0
    0.1995   22.1254   44.0677 H   0  0  0  0  0  0  0  0  0  0  0  0
    0.6902   22.0914   41.7483 H   0  0  0  0  0  0  0  0  0  0  0  0
    1.0964   21.1250   40.3048 H   0  0  0  0  0  0  0  0  0  0  0  0
  1  2  2  0
  1  6  1  0
  2  3  1  0
  3  4  2  0
  4  5  1  0
  5  6  2  0
  6  7  1  0
  7  8  2  0
  7  9  1  0
  8 16  1  0
  9 10  2  0
 10 11  1  0
 10 15  1  0
 11 12  1  0
 11 13  1  0
 13 14  2  0
 14 15  1  0
 15 16  2  0
 16 17  1  0
  1 18  1  0
  2 19  1  0
  3 20  1  0
  5 21  1  0
 12 22  1  0
 12 23  1  0
 12 24  1  0
 14 25  1  0
 17 26  1  0
 17 27  1  0
M  END
>  <mol_id>  (13) 
2026-09-18-6fnk-s0-n100-r2-0013

>  <rmsd_to_ref>  (13) 
1.005102040818187

>  <pose_kind>  (13) 
rigid

$$$$
6fnk.A
     RDKit          3D

 27 29  0  0  0  0  0  0  0  0999 V2000
    2.3979   15.5320   40.2042 C   0  0  0  0  0  0  0  0  0  0  0  0
    2.8286   14.2555   39.8961 C   0  0  0  0  0  0  0  0  0  0  0  0
    3.0837   13.3511   40.9137 C   0  0  0  0  0  0  0  0  0  0  0  0
    2.9224   13.6819   42.2219 N   0  0  0  0  0  0  0  0  0  0  0  0
    2.4989   14.9338   42.5526 C   0  0  0  0  0  0  0  0  0  0  0  0
    2.2405   15.8463   41.5506 C   0  0  0  0  0  0  0  0  0  0  0  0
    1.7855   17.1967   41.8592 C   0  0  0  0  0  0  0  0  0  0  0  0
    1.5220   18.1183   40.9097 N   0  0  0  0  0  0  0  0  0  0  0  0
    1.6059   17.5871   43.1354 N   0  0  0  0  0  0  0  0  0  0  0  0
    1.1898   18.8165   43.4636 C   0  0  0  0  0  0  0  0  0  0  0  0
    0.9508   19.3991   44.6504 N   0  0  0  0  0  0  0  0  0  0  0  0
    1.1106   18.7524   45.9373 C   0  0  0  0  0  0  0  0  0  0  0  0
    0.5463   20.6600   44.4383 N   0  0  0  0  0  0  0  0  0  0  0  0
    0.5186   20.9070   43.1225 C   0  0  0  0  0  0  0  0  0  0  0  0
    0.9225   19.7536   42.4806 C   0  0  0  0  0  0  0  0  0  0  0  0
    1.1028   19.3643   41.1782 C   0  0  0  0  0  0  0  0  0  0  0  0
    0.8368   20.3036   40.1482 N   0  0  0  0  0  0  0  0  0  0  0  0
    2.1950   16.2459   39.4405 H   0  0  0  0  0  0  0  0  0  0  0  0
    2.9570   13.9940   38.8414 H   0  0  0  0  0  0  0  0  0  0  0  0
    3.4179   12.3697   40.6014 H   0  0  0  0  0  0  0  0  0  0  0  0
    2.3729   15.1881   43.6076 H   0  0  0  0  0  0  0  0  0  0  0  0
    0.3357   17.9821   46.0948 H   0  0  0  0  0  0  0  0  0  0  0  0
    1.0023   19.4951   46.7614 H   0  0  0  0  0  0  0  0  0  0  0  0
    2.1542   18.3505   46.0047 H   0  0  0  0  0  0  0  0  0  0  0  0
    0.2395   21.8183   42.6419 H   0  0  0  0  0  0  0  0  0  0  0  0
   -0.0861   20.2309   39.6697 H   0  0  0  0  0  0  0  0  0  0  0  0
    1.5260   21.0445   39.8679 H   0  0  0  0  0  0  0  0  0  0  0  0
  1  2  2  0
  1  6  1  0
  2  3  1  0
  3  4  2  0
  4  5  1  0
  5  6  2  0
  6  7  1  0
  7  8  2  0
  7  9  1  0
  8 16  1  0
  9 10  2  0
 10 11  1  0
 10 15  1  0
 11 12  1  0
 11 13  1  0
 13 14  2  0
 14 15  1  0
 15 16  2  0
 16 17  1  0
  1 18  1  0
  2 19  1  0
  3 20  1  0
  5 21  1  0
 12 22  1  0
 12 23  1  0
 12 24  1  0
 14 25  1  0
 17 26  1  0
 17 27  1  0
M  END
>  <mol_id>  (14) 
2026-09-18-6fnk-s0-n100-r2-0014

>  <rmsd_to_ref>  (14) 
1.0510204081643582

>  <pose_kind>  (14) 
conformer

$$$$
6fnk.A
     RDKit          3D

 27 29  0  0  0  0  0  0  0  0999 V2000
    2.5024   16.0741   40.3726 C   0  0  0  0  0  0  0  0  0  0  0  0
    2.6673   14.9414   39.5751 C   0  0  0  0  0  0  0  0  0  0  0  0
    2.1078   13.7330   39.9640 C   0  0  0  0  0  0  0  0  0  0  0  0
    1.3765   13.6528   41.1523 N   0  0  0  0  0  0  0  0  0  0  0  0
    1.2137   14.7934   41.9531 C   0  0  0  0  0  0  0  0  0  0  0  0
    1.7768   16.0075   41.5645 C   0  0  0  0  0  0  0  0  0  0  0  0
    1.6148   17.1421   42.3660 C   0  0  0  0  0  0  0  0  0  0  0  0
    2.2883   18.2717   42.1079 N   0  0  0  0  0  0  0  0  0  0  0  0
    0.7722   17.1091   43.4033 N   0  0  0  0  0  0  0  0  0  0  0  0
    0.5965   18.1771   44.2016 C   0  0  0  0  0  0  0  0  0  0  0  0
   -0.1660   18.3725   45.2882 N   0  0  0  0  0  0  0  0  0  0  0  0
   -1.0610   17.3862   45.9007 C   0  0  0  0  0  0  0  0  0  0  0  0
   -0.0248   19.5191   45.7153 N   0  0  0  0  0  0  0  0  0  0  0  0
    0.8292   20.1518   44.8941 C   0  0  0  0  0  0  0  0  0  0  0  0
    1.2513   19.3053   43.9453 C   0  0  0  0  0  0  0  0  0  0  0  0
    2.1056   19.3542   42.8865 C   0  0  0  0  0  0  0  0  0  0  0  0
    2.7919   20.4866   42.5983 N   0  0  0  0  0  0  0  0  0  0  0  0
    2.9484   17.0296   40.0596 H   0  0  0  0  0  0  0  0  0  0  0  0
    3.2405   15.0064   38.6386 H   0  0  0  0  0  0  0  0  0  0  0  0
    2.2397   12.8386   39.3374 H   0  0  0  0  0  0  0  0  0  0  0  0
    0.6403   14.7291   42.8896 H   0  0  0  0  0  0  0  0  0  0  0  0
   -0.8408   17.3090   46.9757 H   0  0  0  0  0  0  0  0  0  0  0  0
   -2.1053   17.7028   45.7621 H   0  0  0  0  0  0  0  0  0  0  0  0
   -0.9084   16.4067   45.4239 H   0  0  0  0  0  0  0  0  0  0  0  0
    1.1353   21.2043   44.9865 H   0  0  0  0  0  0  0  0  0  0  0  0
    2.6673   21.3267   43.1811 H   0  0  0  0  0  0  0  0  0  0  0  0
    3.4382   20.5072   41.7966 H   0  0  0  0  0  0  0  0  0  0  0  0
  1  2  2  0
  1  6  1  0
  2  3  1  0
  3  4  2  0
  4  5  1  0
  5  6  2  0
  6  7  1  0
  7  8  2  0
  7  9  1  0
  8 16  1  0
  9 10  2  0
 10 11  1  0
 10 15  1  0
 11 12  1  0
 11 13  1  0
 13 14  2  0
 14 15  1  0
 15 16  2  0
 16 17  1  0
  1 18  1  0
  2 19  1  0
  3 20  1  0
  5 21  1  0
 12 22  1  0
 12 23  1  0
 12 24  1  0
 14 25  1  0
 17 26  1  0
 17 27  1  0
M  END
>  <mol_id>  (15) 
2026-09-18-6fnk-s0-n100-r2-0015

>  <rmsd_to_ref>  (15) 
1.0969387755114621

>  <pose_kind>  (15) 
rigid

$$$$
6fnk.A
     RDKit          3D

 27 29  0  0  0  0  0  0  0  0999 V2000
    3.4057   17.0955   40.5501 C   0  0  0  0  0  0  0  0  0  0  0  0
    4.2701   16.1478   40.0194 C   0  0  0  0  0  0  0  0  0  0  0  0
    4.1947   14.8415   40.4676 C   0  0  0  0  0  0  0  0  0  0  0  0
    3.2868   14.5007   41.4117 N   0  0  0  0  0  0  0  0  0  0  0  0
    2.4400   15.4129   41.9362 C   0  0  0  0  0  0  0  0  0  0  0  0
    2.4868   16.7125   41.5167 C   0  0  0  0  0  0  0  0  0  0  0  0
    1.5834   17.7161   42.0677 C   0  0  0  0  0  0  0  0  0  0  0  0
    1.5892   19.0025   41.6900 N   0  0  0  0  0  0  0  0  0  0  0  0
    0.6855   17.3433   43.0118 N   0  0  0  0  0  0  0  0  0  0  0  0
   -0.1790   18.2125   43.5654 C   0  0  0  0  0  0  0  0  0  0  0  0
   -1.1476   18.1257   44.4926 N   0  0  0  0  0  0  0  0  0  0  0  0
   -1.5242   16.9004   45.1979 C   0  0  0  0  0  0  0  0  0  0  0  0
   -1.7090   19.3280   44.6676 N   0  0  0  0  0  0  0  0  0  0  0  0
   -1.1240   20.2390   43.8591 C   0  0  0  0  0  0  0  0  0  0  0  0
   -0.1562   19.5434   43.1591 C   0  0  0  0  0  0  0  0  0  0  0  0
    0.7629   19.9465   42.1864 C   0  0  0  0  0  0  0  0  0  0  0  0
    0.8191   21.3046   41.7412 N   0  0  0  0  0  0  0  0  0  0  0  0
    3.4646   18.1324   40.1953 H   0  0  0  0  0  0  0  0  0  0  0  0
    4.9914   16.4599   39.2574 H   0  0  0  0  0  0  0  0  0  0  0  0
    4.8744   14.1000   40.0491 H   0  0  0  0  0  0  0  0  0  0  0  0
    1.7285   15.0651   42.6994 H   0  0  0  0  0  0  0  0  0  0  0  0
   -1.6087   16.0475   44.4748 H   0  0  0  0  0  0  0  0  0  0  0  0
   -2.5556   17.0502   45.6051 H   0  0  0  0  0  0  0  0  0  0  0  0
   -0.7823   16.7321   45.9804 H   0  0  0  0  0  0  0  0  0  0  0  0
   -1.3449   21.2986   43.7583 H   0  0  0  0  0  0  0  0  0  0  0  0
    0.4534   21.5424   40.7748 H   0  0  0  0  0  0  0  0  0  0  0  0
    1.2096   22.0657   42.3414 H   0  0  0  0  0  0  0  0  0  0  0  0
  1  2  2  0
  1  6  1  0
  2  3  1  0
  3  4  2  0
  4  5  1  0
  5  6  2  0
  6  7  1  0
  7  8  2  0
  7  9  1  0
  8 16  1  0
  9 10  2  0
 10 11  1  0
 10 15  1  0
 11 12  1  0
 11 13  1  0
 13 14  2  0
 14 15  1  0
 15 16  2  0
 16 17  1  0
  1 18  1  0
  2 19  1  0
  3 20  1  0
  5 21  1  0
 12 22  1  0
 12 23  1  0
 12 24  1  0
 14 25  1  0
 17 26  1  0
 17 27  1  0
M  END
>  <mol_id>  (16) 
2026-09-18-6fnk-s0-n100-r2-0016

>  <rmsd_to_ref>  (16) 
1.1428571428638739

>  <pose_kind>  (16) 
conformer

$$$$
6fnk.A
     RDKit          3D

 27 29  0  0  0  0  0  0  0  0999 V2000
    1.9400   15.2008   40.8064 C   0  0  0  0  0  0  0  0  0  0  0  0
    1.9687   13.8166   40.6361 C   0  0  0  0  0  0  0  0  0  0  0  0
    1.4779   12.9857   41.6328 C   0  0  0  0  0  0  0  0  0  0  0  0
    0.9520   13.5367   42.8046 N   0  0  0  0  0  0  0  0  0  0  0  0
    0.9259   14.9294   42.9736 C   0  0  0  0  0  0  0  0  0  0  0  0
    1.4203   15.7650   41.9739 C   0  0  0  0  0  0  0  0  0  0  0  0
    1.3951   17.1527   42.1463 C   0  0  0  0  0  0  0  0  0  0  0  0
    2.0196   17.9670   41.2843 N   0  0  0  0  0  0  0  0  0  0  0  0
    0.7346   17.6827   43.1806 N   0  0  0  0  0  0  0  0  0  0  0  0
    0.6952   19.0116   43.3842 C   0  0  0  0  0  0  0  0  0  0  0  0
    0.1223   19.7587   44.3401 N   0  0  0  0  0  0  0  0  0  0  0  0
   -0.6620   19.2557   45.4719 C   0  0  0  0  0  0  0  0  0  0  0  0
    0.3346   20.9553   44.1393 N   0  0  0  0  0  0  0  0  0  0  0  0
    1.0434   21.0527   43.0025 C   0  0  0  0  0  0  0  0  0  0  0  0
    1.3015   19.8270   42.5272 C   0  0  0  0  0  0  0  0  0  0  0  0
    1.9701   19.2998   41.4649 C   0  0  0  0  0  0  0  0  0  0  0  0
    2.6023   20.1014   40.5737 N   0  0  0  0  0  0  0  0  0  0  0  0
    2.3307   15.8549   40.0130 H   0  0  0  0  0  0  0  0  0  0  0  0
    2.3802   13.3841   39.7122 H   0  0  0  0  0  0  0  0  0  0  0  0
    1.5028   11.8939   41.5009 H   0  0  0  0  0  0  0  0  0  0  0  0
    0.5143   15.3625   43.8972 H   0  0  0  0  0  0  0  0  0  0  0  0
   -0.2681   19.6787   46.4078 H   0  0  0  0  0  0  0  0  0  0  0  0
   -1.7141   19.5526   45.3496 H   0  0  0  0  0  0  0  0  0  0  0  0
   -0.5923   18.1585   45.5074 H   0  0  0  0  0  0  0  0  0  0  0  0
    1.3630   21.9950   42.5335 H   0  0  0  0  0  0  0  0  0  0  0  0
    2.5773   21.1242   40.6927 H   0  0  0  0  0  0  0  0  0  0  0  0
    3.1079   19.6878   39.7773 H   0  0  0  0  0  0  0  0  0  0  0  0
  1  2  2  0
  1  6  1  0
  2  3  1  0
  3  4  2  0
  4  5  1  0
  5  6  2  0
  6  7  1  0
  7  8  2  0
  7  9  1  0
  8 16  1  0
  9 10  2  0
 10 11  1  0
 10 15  1  0
 11 12  1  0
 11 13  1  0
 13 14  2  0
 14 15  1  0
 15 16  2  0
 16 17  1  0
  1 18  1  0
  2 19  1  0
  3 20  1  0
  5 21  1  0
 12 22  1  0
 12 23  1  0
 12 24  1  0
 14 25  1  0
 17 26  1  0
 17 27  1  0
M  END
>  <mol_id>  (17) 
2026-09-18-6fnk-s0-n100-r2-0017

>  <rmsd_to_ref>  (17) 
1.1887755102084376

>  <pose_kind>  (17) 
rigid

$$$$
6fnk.A
     RDKit          3D

 27 29  0  0  0  0  0  0  0  0999 V2000
    2.3024   15.2881   42.4017 C   0  0  0  0  0  0  0  0  0  0  0  0
    2.9590   14.1994   41.8566 C   0  0  0  0  0  0  0  0  0  0  0  0
    3.7340   14.3138   40.7198 C   0  0  0  0  0  0  0  0  0  0  0  0
    3.8412   15.5302   40.1395 N   0  0  0  0  0  0  0  0  0  0  0  0
    3.2347   16.6324   40.6091 C   0  0  0  0  0  0  0  0  0  0  0  0
    2.4590   16.4969   41.7543 C   0  0  0  0  0  0  0  0  0  0  0  0
    1.7924   17.6915   42.2763 C   0  0  0  0  0  0  0  0  0  0  0  0
    1.9762   18.8625   41.6036 N   0  0  0  0  0  0  0  0  0  0  0  0
    1.0308   17.6368   43.3730 N   0  0  0  0  0  0  0  0  0  0  0  0
    0.4359   18.7419   43.8252 C   0  0  0  0  0  0  0  0  0  0  0  0
   -0.3673   18.9719   44.8805 N   0  0  0  0  0  0  0  0  0  0  0  0
   -0.7895   17.9460   45.8394 C   0  0  0  0  0  0  0  0  0  0  0  0
   -0.7184   20.2528   44.9257 N   0  0  0  0  0  0  0  0  0  0  0  0
   -0.1466   20.8986   43.8891 C   0  0  0  0  0  0  0  0  0  0  0  0
    0.5905   19.9519   43.1799 C   0  0  0  0  0  0  0  0  0  0  0  0
    1.3819   20.0043   42.0418 C   0  0  0  0  0  0  0  0  0  0  0  0
    1.5663   21.2158   41.3540 N   0  0  0  0  0  0  0  0  0  0  0  0
    1.6882   15.1863   43.3065 H   0  0  0  0  0  0  0  0  0  0  0  0
    2.8238   13.2565   42.3802 H   0  0  0  0  0  0  0  0  0  0  0  0
    4.2410   13.4424   40.3098 H   0  0  0  0  0  0  0  0  0  0  0  0
    3.3629   17.5760   40.0952 H   0  0  0  0  0  0  0  0  0  0  0  0
   -1.8469   17.6511   45.5720 H   0  0  0  0  0  0  0  0  0  0  0  0
   -0.0949   17.0991   45.8502 H   0  0  0  0  0  0  0  0  0  0  0  0
   -0.8746   18.4618   46.8198 H   0  0  0  0  0  0  0  0  0  0  0  0
   -0.2185   21.9544   43.6187 H   0  0  0  0  0  0  0  0  0  0  0  0
    1.3069   22.1221   41.8317 H   0  0  0  0  0  0  0  0  0  0  0  0
    1.9529   21.2414   40.3836 H   0  0  0  0  0  0  0  0  0  0  0  0
  1  2  2  0
  1  6  1  0
  2  3  1  0
  3  4  2  0
  4  5  1  0
  5  6  2  0
  6  7  1  0
  7  8  2  0
  7  9  1  0
  8 16  1  0
  9 10  2  0
 10 11  1  0
 10 15  1  0
 11 12  1  0
 11 13  1  0
 13 14  2  0
 14 15  1  0
 15 16  2  0
 16 17  1  0
  1 18  1  0
  2 19  1  0
  3 20  1  0
  5 21  1  0
 12 22  1  0
 12 23  1  0
 12 24  1  0
 14 25  1  0
 17 26  1  0
 17 27  1  0
M  END
>  <mol_id>  (18) 
2026-09-18-6fnk-s0-n100-r2-0018

>  <rmsd_to_ref>  (18) 
1.2346938775520329

>  <pose_kind>  (18) 
conformer

$$$$
6fnk.A
     RDKit          3D

 27 29  0  0  0  0  0  0  0  0999 V2000
    1.8731   15.3652   40.6885 C   0  0  0  0  0  0  0  0  0  0  0  0
    1.8851   14.0193   40.3220 C   0  0  0  0  0  0  0  0  0  0  0  0
    1.8320   13.0350   41.2981 C   0  0  0  0  0  0  0  0  0  0  0  0
    1.7628   13.3930   42.6473 N   0  0  0  0  0  0  0  0  0  0  0  0
    1.7524   14.7476   43.0130 C   0  0  0  0  0  0  0  0  0  0  0  0
    1.8076   15.7374   42.0334 C   0  0  0  0  0  0  0  0  0  0  0  0
    1.7995   17.0867   42.4012 C   0  0  0  0  0  0  0  0  0  0  0  0
    2.0275   18.0500   41.4977 N   0  0  0  0  0  0  0  0  0  0  0  0
    1.5550   17.4290   43.6701 N   0  0  0  0  0  0  0  0  0  0  0  0
    1.5475   18.7152   44.0632 C   0  0  0  0  0  0  0  0  0  0  0  0
    1.3472   19.2892   45.2593 N   0  0  0  0  0  0  0  0  0  0  0  0
    1.0609   18.5875   46.5141 C   0  0  0  0  0  0  0  0  0  0  0  0
    1.4266   20.5151   45.1696 N   0  0  0  0  0  0  0  0  0  0  0  0
    1.6553   20.8099   43.8792 C   0  0  0  0  0  0  0  0  0  0  0  0
    1.7604   19.6774   43.1711 C   0  0  0  0  0  0  0  0  0  0  0  0
    2.0019   19.3420   41.8739 C   0  0  0  0  0  0  0  0  0  0  0  0
    2.2266   20.2968   40.9389 N   0  0  0  0  0  0  0  0  0  0  0  0
    1.9156   16.1416   39.9105 H   0  0  0  0  0  0  0  0  0  0  0  0
    1.9366   13.7387   39.2596 H   0  0  0  0  0  0  0  0  0  0  0  0
    1.8444   11.9734   41.0103 H   0  0  0  0  0  0  0  0  0  0  0  0
    1.7006   15.0290   44.0751 H   0  0  0  0  0  0  0  0  0  0  0  0
    1.7607   18.9268   47.2920 H   0  0  0  0  0  0  0  0  0  0  0  0
    0.0295   18.8048   46.8287 H   0  0  0  0  0  0  0  0  0  0  0  0
    1.1776   17.5041   46.3632 H   0  0  0  0  0  0  0  0  0  0  0  0
    1.7430   21.8259   43.4669 H   0  0  0  0  0  0  0  0  0  0  0  0
    2.2116   21.2918   41.2049 H   0  0  0  0  0  0  0  0  0  0  0  0
    2.4123   20.0276   39.9622 H   0  0  0  0  0  0  0  0  0  0  0  0
  1  2  2  0
  1  6  1  0
  2  3  1  0
  3  4  2  0
  4  5  1  0
  5  6  2  0
  6  7  1  0
  7  8  2  0
  7  9  1  0
  8 16  1  0
  9 10  2  0
 10 11  1  0
 10 15  1  0
 11 12  1  0
 11 13  1  0
 13 14  2  0
 14 15  1  0
 15 16  2  0
 16 17  1  0
  1 18  1  0
  2 19  1  0
  3 20  1  0
  5 21  1  0
 12 22  1  0
 12 23  1  0
 12 24  1  0
 14 25  1  0
 17 26  1  0
 17 27  1  0
M  END
>  <mol_id>  (19) 
2026-09-18-6fnk-s0-n100-r2-0019

>  <rmsd_to_ref>  (19) 
1.2806122449023387

>  <pose_kind>  (19) 
rigid

$$$$
6fnk.A
     RDKit          3D

 27 29  0  0  0  0  0  0  0  0999 V2000
    1.8548   15.3433   43.1604 C   0  0  0  0  0  0  0  0  0  0  0  0
    2.3426   14.0827   42.9011 C   0  0  0  0  0  0  0  0  0  0  0  0
    3.0206   13.8472   41.7156 C   0  0  0  0  0  0  0  0  0  0  0  0
    3.2199   14.8281   40.7959 N   0  0  0  0  0  0  0  0  0  0  0  0
    2.7358   16.0796   41.0530 C   0  0  0  0  0  0  0  0  0  0  0  0
    2.0577   16.3350   42.2277 C   0  0  0  0  0  0  0  0  0  0  0  0
    1.5640   17.6939   42.4450 C   0  0  0  0  0  0  0  0  0  0  0  0
    1.7918   18.6227   41.4984 N   0  0  0  0  0  0  0  0  0  0  0  0
    0.8918   18.0376   43.5601 N   0  0  0  0  0  0  0  0  0  0  0  0
    0.4381   19.3122   43.7456 C   0  0  0  0  0  0  0  0  0  0  0  0
   -0.2431   19.9310   44.7286 N   0  0  0  0  0  0  0  0  0  0  0  0
   -0.6907   19.2794   45.9501 C   0  0  0  0  0  0  0  0  0  0  0  0
   -0.4423   21.2021   44.4230 N   0  0  0  0  0  0  0  0  0  0  0  0
    0.1187   21.4169   43.2193 C   0  0  0  0  0  0  0  0  0  0  0  0
    0.6899   20.2544   42.7452 C   0  0  0  0  0  0  0  0  0  0  0  0
    1.3835   19.9011   41.5939 C   0  0  0  0  0  0  0  0  0  0  0  0
    1.6256   20.8672   40.5992 N   0  0  0  0  0  0  0  0  0  0  0  0
    1.3242   15.5792   44.0602 H   0  0  0  0  0  0  0  0  0  0  0  0
    2.2024   13.2773   43.6109 H   0  0  0  0  0  0  0  0  0  0  0  0
    3.4031   12.8391   41.5231 H   0  0  0  0  0  0  0  0  0  0  0  0
    2.9118   16.8387   40.2989 H   0  0  0  0  0  0  0  0  0  0  0  0
   -0.1426   19.6132   46.8480 H   0  0  0  0  0  0  0  0  0  0  0  0
   -1.7594   19.5506   46.1312 H   0  0  0  0  0  0  0  0  0  0  0  0
   -0.6016   18.1942   45.8881 H   0  0  0  0  0  0  0  0  0  0  0  0
    0.1539   22.3449   42.6464 H   0  0  0  0  0  0  0  0  0  0  0  0
    0.8135   21.3818   40.1875 H   0  0  0  0  0  0  0  0  0  0  0  0
    2.5876   21.0847   40.2615 H   0  0  0  0  0  0  0  0  0  0  0  0
  1  2  2  0
  1  6  1  0
  2  3  1  0
  3  4  2  0
  4  5  1  0
  5  6  2  0
  6  7  1  0
  7  8  2  0
  7  9  1  0
  8 16  1  0
  9 10  2  0
 10 11  1  0
 10 15  1  0
 11 12  1  0
 11 13  1  0
 13 14  2  0
 14 15  1  0
 15 16  2  0
 16 17  1  0
  1 18  1  0
  2 19  1  0
  3 20  1  0
  5 21  1  0
 12 22  1  0
 12 23  1  0
 12 24  1  0
 14 25  1  0
 17 26  1  0
 17 27  1  0
M  END
>  <mol_id>  (20) 
2026-09-18-6fnk-s0-n100-r2-0020

>  <rmsd_to_ref>  (20) 
1.3265306122476255

>  <pose_kind>  (20) 
conformer

$$$$
6fnk.A
     RDKit          3D

 27 29  0  0  0  0  0  0  0  0999 V2000
    3.6777   16.5172   42.4642 C   0  0  0  0  0  0  0  0  0  0  0  0
    4.2822   15.2619   42.3957 C   0  0  0  0  0  0  0  0  0  0  0  0
    3.6099   14.1427   42.8647 C   0  0  0  0  0  0  0  0  0  0  0  0
    2.3263   14.2738   43.4018 N   0  0  0  0  0  0  0  0  0  0  0  0
    1.7215   15.5380   43.4708 C   0  0  0  0  0  0  0  0  0  0  0  0
    2.3966   16.6633   43.0017 C   0  0  0  0  0  0  0  0  0  0  0  0
    1.7921   17.9224   43.0740 C   0  0  0  0  0  0  0  0  0  0  0  0
    2.4822   19.0368   42.7946 N   0  0  0  0  0  0  0  0  0  0  0  0
    0.5048   18.0235   43.4200 N   0  0  0  0  0  0  0  0  0  0  0  0
   -0.1085   19.2171   43.5088 C   0  0  0  0  0  0  0  0  0  0  0  0
   -1.3607   19.5624   43.8449 N   0  0  0  0  0  0  0  0  0  0  0  0
   -2.4377   18.6402   44.2172 C   0  0  0  0  0  0  0  0  0  0  0  0
   -1.5014   20.7849   43.7918 N   0  0  0  0  0  0  0  0  0  0  0  0
   -0.3344   21.3065   43.3794 C   0  0  0  0  0  0  0  0  0  0  0  0
    0.5653   20.3264   43.2214 C   0  0  0  0  0  0  0  0  0  0  0  0
    1.8745   20.2359   42.8591 C   0  0  0  0  0  0  0  0  0  0  0  0
    2.5925   21.3464   42.5628 N   0  0  0  0  0  0  0  0  0  0  0  0
    4.2155   17.4013   42.0910 H   0  0  0  0  0  0  0  0  0  0  0  0
    5.2913   15.1595   41.9700 H   0  0  0  0  0  0  0  0  0  0  0  0
    4.0868   13.1528   42.8139 H   0  0  0  0  0  0  0  0  0  0  0  0
    0.7123   15.6411   43.8961 H   0  0  0  0  0  0  0  0  0  0  0  0
   -2.8799   18.9595   45.1725 H   0  0  0  0  0  0  0  0  0  0  0  0
   -3.2114   18.6452   43.4353 H   0  0  0  0  0  0  0  0  0  0  0  0
   -2.0301   17.6241   44.3233 H   0  0  0  0  0  0  0  0  0  0  0  0
   -0.1461   22.3751   43.1989 H   0  0  0  0  0  0  0  0  0  0  0  0
    2.1473   22.2742   42.6058 H   0  0  0  0  0  0  0  0  0  0  0  0
    3.5834   21.2626   42.2947 H   0  0  0  0  0  0  0  0  0  0  0  0
  1  2  2  0
  1  6  1  0
  2  3  1  0
  3  4  2  0
  4  5  1  0
  5  6  2  0
  6  7  1  0
  7  8  2  0
  7  9  1  0
  8 16  1  0
  9 10  2  0
 10 11  1  0
 10 15  1  0
 11 12  1  0
 11 13  1  0
 13 14  2  0
 14 15  1  0
 15 16  2  0
 16 17  1  0
  1 18  1  0
  2 19  1  0
  3 20  1  0
  5 21  1  0
 12 22  1  0
 12 23  1  0
 12 24  1  0
 14 25  1  0
 17 26  1  0
 17 27  1  0
M  END
>  <mol_id>  (21) 
2026-09-18-6fnk-s0-n100-r2-0021

>  <rmsd_to_ref>  (21) 
1.3724489795969357

>  <pose_kind>  (21) 
rigid

$$$$
6fnk.A
     RDKit          3D

 27 29  0  0  0  0  0  0  0  0999 V2000
    2.1287   15.1605   41.7778 C   0  0  0  0  0  0  0  0  0  0  0  0
    2.0938   13.7670   41.6866 C   0  0  0  0  0  0  0  0  0  0  0  0
    1.2241   13.0557   42.5069 C   0  0  0  0  0  0  0  0  0  0  0  0
    0.4407   13.7295   43.3653 N   0  0  0  0  0  0  0  0  0  0  0  0
    0.4477   15.0676   43.4800 C   0  0  0  0  0  0  0  0  0  0  0  0
    1.3028   15.8046   42.6769 C   0  0  0  0  0  0  0  0  0  0  0  0
    1.3314   17.2608   42.7803 C   0  0  0  0  0  0  0  0  0  0  0  0
    2.1368   18.0361   42.0312 N   0  0  0  0  0  0  0  0  0  0  0  0
    0.5243   17.8830   43.6582 N   0  0  0  0  0  0  0  0  0  0  0  0
    0.4578   19.1992   43.8457 C   0  0  0  0  0  0  0  0  0  0  0  0
   -0.2286   20.0555   44.6220 N   0  0  0  0  0  0  0  0  0  0  0  0
   -1.2134   19.6783   45.5899 C   0  0  0  0  0  0  0  0  0  0  0  0
    0.1365   21.3069   44.3644 N   0  0  0  0  0  0  0  0  0  0  0  0
    1.0850   21.3163   43.4000 C   0  0  0  0  0  0  0  0  0  0  0  0
    1.2963   19.9946   43.0647 C   0  0  0  0  0  0  0  0  0  0  0  0
    2.1391   19.3915   42.1522 C   0  0  0  0  0  0  0  0  0  0  0  0
    3.0232   20.1481   41.3213 N   0  0  0  0  0  0  0  0  0  0  0  0
    2.8203   15.7149   41.1246 H   0  0  0  0  0  0  0  0  0  0  0  0
    2.7346   13.2495   40.9874 H   0  0  0  0  0  0  0  0  0  0  0  0
    1.1526   11.9772   42.4815 H   0  0  0  0  0  0  0  0  0  0  0  0
   -0.2177   15.5467   44.2007 H   0  0  0  0  0  0  0  0  0  0  0  0
   -0.9352   18.7570   46.1683 H   0  0  0  0  0  0  0  0  0  0  0  0
   -1.4071   20.4561   46.3548 H   0  0  0  0  0  0  0  0  0  0  0  0
   -2.1743   19.4282   45.0668 H   0  0  0  0  0  0  0  0  0  0  0  0
    1.5884   22.1737   42.9657 H   0  0  0  0  0  0  0  0  0  0  0  0
    3.8552   20.6208   41.7329 H   0  0  0  0  0  0  0  0  0  0  0  0
    2.8446   20.2378   40.2789 H   0  0  0  0  0  0  0  0  0  0  0  0
  1  2  2  0
  1  6  1  0
  2  3  1  0
  3  4  2  0
  4  5  1  0
  5  6  2  0
  6  7  1  0
  7  8  2  0
  7  9  1  0
  8 16  1  0
  9 10  2  0
 10 11  1  0
 10 15  1  0
 11 12  1  0
 11 13  1  0
 13 14  2  0
 14 15  1  0
 15 16  2  0
 16 17  1  0
  1 18  1  0
  2 19  1  0
  3 20  1  0
  5 21  1  0
 12 22  1  0
 12 23  1  0
 12 24  1  0
 14 25  1  0
 17 26  1  0
 17 27  1  0
M  END
>  <mol_id>  (22) 
2026-09-18-6fnk-s0-n100-r2-0022

>  <rmsd_to_ref>  (22) 
1.4183673469420606

>  <pose_kind>  (22) 
conformer

$$$$
6fnk.A
     RDKit          3D

 27 29  0  0  0  0  0  0  0  0999 V2000
    3.5236   17.8573   40.7834 C   0  0  0  0  0  0  0  0  0  0  0  0
    4.3660   16.9817   40.0981 C   0  0  0  0  0  0  0  0  0  0  0  0
    4.2686   15.6149   40.3146 C   0  0  0  0  0  0  0  0  0  0  0  0
    3.3241   15.1166   41.2162 N   0  0  0  0  0  0  0  0  0  0  0  0
    2.4792   15.9999   41.9052 C   0  0  0  0  0  0  0  0  0  0  0  0
    2.5774   17.3733   41.6899 C   0  0  0  0  0  0  0  0  0  0  0  0
    1.7354   18.2515   42.3799 C   0  0  0  0  0  0  0  0  0  0  0  0
    1.9255   19.5769   42.3247 N   0  0  0  0  0  0  0  0  0  0  0  0
    0.7194   17.7691   43.1025 N   0  0  0  0  0  0  0  0  0  0  0  0
   -0.1060   18.5814   43.7865 C   0  0  0  0  0  0  0  0  0  0  0  0
   -1.1615   18.3333   44.5767 N   0  0  0  0  0  0  0  0  0  0  0  0
   -1.7053   17.0101   44.8968 C   0  0  0  0  0  0  0  0  0  0  0  0
   -1.6376   19.3851   45.0057 N   0  0  0  0  0  0  0  0  0  0  0  0
   -0.9223   20.3937   44.4810 C   0  0  0  0  0  0  0  0  0  0  0  0
    0.0681   19.8980   43.7271 C   0  0  0  0  0  0  0  0  0  0  0  0
    1.0939   20.4019   42.9874 C   0  0  0  0  0  0  0  0  0  0  0  0
    1.3027   21.7385   42.9076 N   0  0  0  0  0  0  0  0  0  0  0  0
    3.6053   18.9402   40.6080 H   0  0  0  0  0  0  0  0  0  0  0  0
    5.1070   17.3748   39.3865 H   0  0  0  0  0  0  0  0  0  0  0  0
    4.9344   14.9238   39.7770 H   0  0  0  0  0  0  0  0  0  0  0  0
    1.7378   15.6075   42.6168 H   0  0  0  0  0  0  0  0  0  0  0  0
   -1.7970   16.9055   45.9880 H   0  0  0  0  0  0  0  0  0  0  0  0
   -2.6966   16.8991   44.4332 H   0  0  0  0  0  0  0  0  0  0  0  0
   -1.0303   16.2327   44.5094 H   0  0  0  0  0  0  0  0  0  0  0  0
   -1.1196   21.4633   44.6452 H   0  0  0  0  0  0  0  0  0  0  0  0
    0.6784   22.3880   43.4068 H   0  0  0  0  0  0  0  0  0  0  0  0
    2.0858   22.1049   42.3476 H   0  0  0  0  0  0  0  0  0  0  0  0
  1  2  2  0
  1  6  1  0
  2  3  1  0
  3  4  2  0
  4  5  1  0
  5  6  2  0
  6  7  1  0
  7  8  2  0
  7  9  1  0
  8 16  1  0
  9 10  2  0
 10 11  1  0
 10 15  1  0
 11 12  1  0
 11 13  1  0
 13 14  2  0
 14 15  1  0
 15 16  2  0
 16 17  1  0
  1 18  1  0
  2 19  1  0
  3 20  1  0
  5 21  1  0
 12 22  1  0
 12 23  1  0
 12 24  1  0
 14 25  1  0
 17 26  1  0
 17 27  1  0
M  END
>  <mol_id>  (23) 
2026-09-18-6fnk-s0-n100-r2-0023

>  <rmsd_to_ref>  (23) 
1.464285714290754

>  <pose_kind>  (23) 
rigid

$$$$
6fnk.A
     RDKit          3D

 27 29  0  0  0  0  0  0  0  0999 V2000
    1.4274   14.7897   42.1227 C   0  0  0  0  0  0  0  0  0  0  0  0
    1.7469   13.5774   41.5098 C   0  0  0  0  0  0  0  0  0  0  0  0
    2.9792   13.4525   40.9136 C   0  0  0  0  0  0  0  0  0  0  0  0
    3.8903   14.4508   40.8965 N   0  0  0  0  0  0  0  0  0  0  0  0
    3.5651   15.6173   41.4941 C   0  0  0  0  0  0  0  0  0  0  0  0
    2.3478   15.8208   42.1142 C   0  0  0  0  0  0  0  0  0  0  0  0
    2.0456   17.1085   42.7486 C   0  0  0  0  0  0  0  0  0  0  0  0
    2.9872   18.0684   42.7030 N   0  0  0  0  0  0  0  0  0  0  0  0
    0.8518   17.2717   43.3426 N   0  0  0  0  0  0  0  0  0  0  0  0
    0.5502   18.4373   43.9292 C   0  0  0  0  0  0  0  0  0  0  0  0
   -0.5191   18.9160   44.5904 N   0  0  0  0  0  0  0  0  0  0  0  0
   -1.7572   18.1796   44.8546 C   0  0  0  0  0  0  0  0  0  0  0  0
   -0.3056   20.1663   44.9811 N   0  0  0  0  0  0  0  0  0  0  0  0
    0.9455   20.5076   44.5576 C   0  0  0  0  0  0  0  0  0  0  0  0
    1.5078   19.4293   43.8890 C   0  0  0  0  0  0  0  0  0  0  0  0
    2.7384   19.2672   43.2792 C   0  0  0  0  0  0  0  0  0  0  0  0
    3.7065   20.3272   43.2607 N   0  0  0  0  0  0  0  0  0  0  0  0
    0.4622   14.9013   42.5950 H   0  0  0  0  0  0  0  0  0  0  0  0
    1.0043   12.7871   41.5328 H   0  0  0  0  0  0  0  0  0  0  0  0
    3.2568   12.5305   40.4321 H   0  0  0  0  0  0  0  0  0  0  0  0
    4.3306   16.3903   41.4542 H   0  0  0  0  0  0  0  0  0  0  0  0
   -2.5905   18.8874   44.9268 H   0  0  0  0  0  0  0  0  0  0  0  0
   -1.7155   17.6232   45.8228 H   0  0  0  0  0  0  0  0  0  0  0  0
   -1.9887   17.4361   44.0695 H   0  0  0  0  0  0  0  0  0  0  0  0
    1.4586   21.4380   44.6910 H   0  0  0  0  0  0  0  0  0  0  0  0
    3.5280   21.2326   42.7541 H   0  0  0  0  0  0  0  0  0  0  0  0
    4.6229   20.2403   43.7482 H   0  0  0  0  0  0  0  0  0  0  0  0
  1  2  2  0
  1  6  1  0
  2  3  1  0
  3  4  2  0
  4  5  1  0
  5  6  2  0
  6  7  1  0
  7  8  2  0
  7  9  1  0
  8 16  1  0
  9 10  2  0
 10 11  1  0
 10 15  1  0
 11 12  1  0
 11 13  1  0
 13 14  2  0
 14 15  1  0
 15 16  2  0
 16 17  1  0
  1 18  1  0
  2 19  1  0
  3 20  1  0
  5 21  1  0
 12 22  1  0
 12 23  1  0
 12 24  1  0
 14 25  1  0
 17 26  1  0
 17 27  1  0
M  END
>  <mol_id>  (24) 
2026-09-18-6fnk-s0-n100-r2-0024

>  <rmsd_to_ref>  (24) 
1.510204081633144

>  <pose_kind>  (24) 
conformer

$$$$
6fnk.A
     RDKit          3D

 27 29  0  0  0  0  0  0  0  0999 V2000
    2.4771   15.0434   41.7500 C   0  0  0  0  0  0  0  0  0  0  0  0
    2.6111   13.6612   41.8821 C   0  0  0  0  0  0  0  0  0  0  0  0
    2.3963   13.0589   43.1131 C   0  0  0  0  0  0  0  0  0  0  0  0
    2.0423   13.8372   44.2186 N   0  0  0  0  0  0  0  0  0  0  0  0
    1.9098   15.2275   44.0831 C   0  0  0  0  0  0  0  0  0  0  0  0
    2.1272   15.8340   42.8473 C   0  0  0  0  0  0  0  0  0  0  0  0
    1.9967   17.2202   42.7158 C   0  0  0  0  0  0  0  0  0  0  0  0
    2.3686   17.8451   41.5901 N   0  0  0  0  0  0  0  0  0  0  0  0
    1.4879   17.9389   43.7216 N   0  0  0  0  0  0  0  0  0  0  0  0
    1.3551   19.2745   43.6356 C   0  0  0  0  0  0  0  0  0  0  0  0
    0.8962   20.1907   44.5018 N   0  0  0  0  0  0  0  0  0  0  0  0
    0.3866   19.9221   45.8498 C   0  0  0  0  0  0  0  0  0  0  0  0
    0.9484   21.3177   44.0075 N   0  0  0  0  0  0  0  0  0  0  0  0
    1.4234   21.1872   42.7579 C   0  0  0  0  0  0  0  0  0  0  0  0
    1.7101   19.9007   42.5179 C   0  0  0  0  0  0  0  0  0  0  0  0
    2.2212   19.1786   41.4832 C   0  0  0  0  0  0  0  0  0  0  0  0
    2.5967   19.7847   40.3307 N   0  0  0  0  0  0  0  0  0  0  0  0
    2.6488   15.5158   40.7715 H   0  0  0  0  0  0  0  0  0  0  0  0
    2.8868   13.0492   41.0106 H   0  0  0  0  0  0  0  0  0  0  0  0
    2.5046   11.9694   43.2191 H   0  0  0  0  0  0  0  0  0  0  0  0
    1.6338   15.8401   44.9541 H   0  0  0  0  0  0  0  0  0  0  0  0
    0.9017   20.5717   46.5727 H   0  0  0  0  0  0  0  0  0  0  0  0
   -0.6942   20.1243   45.8802 H   0  0  0  0  0  0  0  0  0  0  0  0
    0.5700   18.8686   46.1079 H   0  0  0  0  0  0  0  0  0  0  0  0
    1.5566   22.0108   42.0411 H   0  0  0  0  0  0  0  0  0  0  0  0
    2.4926   20.8042   40.2274 H   0  0  0  0  0  0  0  0  0  0  0  0
    2.9860   19.2258   39.5581 H   0  0  0  0  0  0  0  0  0  0  0  0
  1  2  2  0
  1  6  1  0
  2  3  1  0
  3  4  2  0
  4  5  1  0
  5  6  2  0
  6  7  1  0
  7  8  2  0
  7  9  1  0
  8 16  1  0
  9 10  2  0
 10 11  1  0
 10 15  1  0
 11 12  1  0
 11 13  1  0
 13 14  2  0
 14 15  1  0
 15 16  2  0
 16 17  1  0
  1 18  1  0
  2 19  1  0
  3 20  1  0
  5 21  1  0
 12 22  1  0
 12 23  1  0
 12 24  1  0
 14 25  1  0
 17 26  1  0
 17 27  1  0
M  END
>  <mol_id>  (25) 
2026-09-18-6fnk-s0-n100-r2-0025

>  <rmsd_to_ref>  (25) 
1.5561224489807

>  <pose_kind>  (25) 
rigid

$$$$
6fnk.A
     RDKit          3D

 27 29  0  0  0  0  0  0  0  0999 V2000
    3.4985   15.1394   42.2012 C   0  0  0  0  0  0  0  0  0  0  0  0
    3.8738   13.9391   41.6327 C   0  0  0  0  0  0  0  0  0  0  0  0
    2.8705   13.0198   41.3947 C   0  0  0  0  0  0  0  0  0  0  0  0
    1.5685   13.2813   41.7051 N   0  0  0  0  0  0  0  0  0  0  0  0
    1.2280   14.4620   42.2599 C   0  0  0  0  0  0  0  0  0  0  0  0
    2.1862   15.4204   42.5215 C   0  0  0  0  0  0  0  0  0  0  0  0
    1.8647   16.7126   43.1209 C   0  0  0  0  0  0  0  0  0  0  0  0
    2.8128   17.6499   43.3751 N   0  0  0  0  0  0  0  0  0  0  0  0
    0.5686   16.9866   43.4357 N   0  0  0  0  0  0  0  0  0  0  0  0
    0.1990   18.1633   43.9933 C   0  0  0  0  0  0  0  0  0  0  0  0
   -0.9629   18.7065   44.4022 N   0  0  0  0  0  0  0  0  0  0  0  0
   -2.2484   18.0401   44.3149 C   0  0  0  0  0  0  0  0  0  0  0  0
   -0.7766   19.9071   44.8850 N   0  0  0  0  0  0  0  0  0  0  0  0
    0.5449   20.2076   44.8109 C   0  0  0  0  0  0  0  0  0  0  0  0
    1.1849   19.1219   44.2508 C   0  0  0  0  0  0  0  0  0  0  0  0
    2.4971   18.8389   43.9296 C   0  0  0  0  0  0  0  0  0  0  0  0
    3.5253   19.7854   44.1755 N   0  0  0  0  0  0  0  0  0  0  0  0
    4.3114   15.8535   42.3810 H   0  0  0  0  0  0  0  0  0  0  0  0
    4.9072   13.7481   41.3934 H   0  0  0  0  0  0  0  0  0  0  0  0
    3.1587   12.0877   40.9537 H   0  0  0  0  0  0  0  0  0  0  0  0
    0.1998   14.7071   42.5215 H   0  0  0  0  0  0  0  0  0  0  0  0
   -3.0241   18.6001   44.8815 H   0  0  0  0  0  0  0  0  0  0  0  0
   -2.6056   18.0447   43.2431 H   0  0  0  0  0  0  0  0  0  0  0  0
   -2.1849   16.9951   44.6560 H   0  0  0  0  0  0  0  0  0  0  0  0
    1.0340   21.1331   45.1303 H   0  0  0  0  0  0  0  0  0  0  0  0
    3.4129   20.7790   43.9271 H   0  0  0  0  0  0  0  0  0  0  0  0
    4.4412   19.4966   44.6231 H   0  0  0  0  0  0  0  0  0  0  0  0
  1  2  2  0
  1  6  1  0
  2  3  1  0
  3  4  2  0
  4  5  1  0
  5  6  2  0
  6  7  1  0
  7  8  2  0
  7  9  1  0
  8 16  1  0
  9 10  2  0
 10 11  1  0
 10 15  1  0
 11 12  1  0
 11 13  1  0
 13 14  2  0
 14 15  1  0
 15 16  2  0
 16 17  1  0
  1 18  1  0
  2 19  1  0
  3 20  1  0
  5 21  1  0
 12 22  1  0
 12 23  1  0
 12 24  1  0
 14 25  1  0
 17 26  1  0
 17 27  1  0
M  END
>  <mol_id>  (26) 
2026-09-18-6fnk-s0-n100-r2-0026

>  <rmsd_to_ref>  (26) 
1.6020408163275928

>  <pose_kind>  (26) 
conformer

$$$$
6fnk.A
     RDKit          3D

 27 29  0  0  0  0  0  0  0  0999 V2000
    1.4735   16.8437   39.7962 C   0  0  0  0  0  0  0  0  0  0  0  0
    1.6517   15.8834   38.8001 C   0  0  0  0  0  0  0  0  0  0  0  0
    1.6155   14.5349   39.1235 C   0  0  0  0  0  0  0  0  0  0  0  0
    1.3967   14.1400   40.4462 N   0  0  0  0  0  0  0  0  0  0  0  0
    1.2192   15.1082   41.4462 C   0  0  0  0  0  0  0  0  0  0  0  0
    1.2573   16.4633   41.1228 C   0  0  0  0  0  0  0  0  0  0  0  0
    1.0825   17.4261   42.1221 C   0  0  0  0  0  0  0  0  0  0  0  0
    1.2881   18.7264   41.8716 N   0  0  0  0  0  0  0  0  0  0  0  0
    0.6983   17.0518   43.3466 N   0  0  0  0  0  0  0  0  0  0  0  0
    0.5282   17.9474   44.3354 C   0  0  0  0  0  0  0  0  0  0  0  0
    0.1707   17.8108   45.6214 N   0  0  0  0  0  0  0  0  0  0  0  0
   -0.1488   16.5497   46.2970 C   0  0  0  0  0  0  0  0  0  0  0  0
    0.1337   18.9084   46.1791 N   0  0  0  0  0  0  0  0  0  0  0  0
    0.4401   19.8376   45.2588 C   0  0  0  0  0  0  0  0  0  0  0  0
    0.7181   19.2405   44.0922 C   0  0  0  0  0  0  0  0  0  0  0  0
    1.1009   19.6350   42.8467 C   0  0  0  0  0  0  0  0  0  0  0  0
    1.3068   20.9444   42.5646 N   0  0  0  0  0  0  0  0  0  0  0  0
    1.5034   17.9116   39.5342 H   0  0  0  0  0  0  0  0  0  0  0  0
    1.8209   16.1953   37.7589 H   0  0  0  0  0  0  0  0  0  0  0  0
    1.7589   13.7768   38.3394 H   0  0  0  0  0  0  0  0  0  0  0  0
    1.0497   14.7970   42.4875 H   0  0  0  0  0  0  0  0  0  0  0  0
    0.4450   16.4671   47.2193 H   0  0  0  0  0  0  0  0  0  0  0  0
   -1.2197   16.5289   46.5473 H   0  0  0  0  0  0  0  0  0  0  0  0
    0.0886   15.7067   45.6314 H   0  0  0  0  0  0  0  0  0  0  0  0
    0.4597   20.9231   45.4360 H   0  0  0  0  0  0  0  0  0  0  0  0
    1.1694   21.6566   43.2959 H   0  0  0  0  0  0  0  0  0  0  0  0
    1.6007   21.2274   41.6189 H   0  0  0  0  0  0  0  0  0  0  0  0
  1  2  2  0
  1  6  1  0
  2  3  1  0
  3  4  2  0
  4  5  1  0
  5  6  2  0
  6  7  1  0
  7  8  2  0
  7  9  1  0
  8 16  1  0
  9 10  2  0
 10 11  1  0
 10 15  1  0
 11 12  1  0
 11 13  1  0
 13 14  2  0
 14 15  1  0
 15 16  2  0
 16 17  1  0
  1 18  1  0
  2 19  1  0
  3 20  1  0
  5 21  1  0
 12 22  1  0
 12 23  1  0
 12 24  1  0
 14 25  1  0
 17 26  1  0
 17 27  1  0
M  END
>  <mol_id>  (27) 
2026-09-18-6fnk-s0-n100-r2-0027

>  <rmsd_to_ref>  (27) 
1.647959183677869

>  <pose_kind>  (27) 
rigid

$$$$
6fnk.A
     RDKit          3D

 27 29  0  0  0  0  0  0  0  0999 V2000
    1.8645   15.6150   43.9122 C   0  0  0  0  0  0  0  0  0  0  0  0
    2.3222   14.3095   43.8953 C   0  0  0  0  0  0  0  0  0  0  0  0
    2.9268   13.7943   42.7714 C   0  0  0  0  0  0  0  0  0  0  0  0
    3.0592   14.5931   41.6949 N   0  0  0  0  0  0  0  0  0  0  0  0
    2.6244   15.8651   41.6816 C   0  0  0  0  0  0  0  0  0  0  0  0
    2.0097   16.4155   42.8000 C   0  0  0  0  0  0  0  0  0  0  0  0
    1.5567   17.7931   42.7389 C   0  0  0  0  0  0  0  0  0  0  0  0
    1.7598   18.4650   41.5913 N   0  0  0  0  0  0  0  0  0  0  0  0
    0.9617   18.4175   43.7379 N   0  0  0  0  0  0  0  0  0  0  0  0
    0.5487   19.7019   43.6559 C   0  0  0  0  0  0  0  0  0  0  0  0
   -0.0647   20.5541   44.4960 N   0  0  0  0  0  0  0  0  0  0  0  0
   -0.4710   20.2484   45.8452 C   0  0  0  0  0  0  0  0  0  0  0  0
   -0.2551   21.7294   43.9269 N   0  0  0  0  0  0  0  0  0  0  0  0
    0.2304   21.7023   42.6723 C   0  0  0  0  0  0  0  0  0  0  0  0
    0.7391   20.4309   42.4901 C   0  0  0  0  0  0  0  0  0  0  0  0
    1.3646   19.7628   41.4503 C   0  0  0  0  0  0  0  0  0  0  0  0
    1.5786   20.4777   40.2350 N   0  0  0  0  0  0  0  0  0  0  0  0
    1.3931   16.0255   44.7804 H   0  0  0  0  0  0  0  0  0  0  0  0
    2.1846   13.7252   44.7903 H   0  0  0  0  0  0  0  0  0  0  0  0
    3.2841   12.7735   42.7600 H   0  0  0  0  0  0  0  0  0  0  0  0
    2.7725   16.4389   40.7686 H   0  0  0  0  0  0  0  0  0  0  0  0
    0.1708   20.8942   46.5018 H   0  0  0  0  0  0  0  0  0  0  0  0
   -1.5411   20.5380   45.9560 H   0  0  0  0  0  0  0  0  0  0  0  0
   -0.3477   19.1731   46.0705 H   0  0  0  0  0  0  0  0  0  0  0  0
    0.2522   22.4718   41.9134 H   0  0  0  0  0  0  0  0  0  0  0  0
    0.9126   20.4360   39.4319 H   0  0  0  0  0  0  0  0  0  0  0  0
    2.4214   21.0835   40.0896 H   0  0  0  0  0  0  0  0  0  0  0  0
  1  2  2  0
  1  6  1  0
  2  3  1  0
  3  4  2  0
  4  5  1  0
  5  6  2  0
  6  7  1  0
  7  8  2  0
  7  9  1  0
  8 16  1  0
  9 10  2  0
 10 11  1  0
 10 15  1  0
 11 12  1  0
 11 13  1  0
 13 14  2  0
 14 15  1  0
 15 16  2  0
 16 17  1  0
  1 18  1  0
  2 19  1  0
  3 20  1  0
  5 21  1  0
 12 22  1  0
 12 23  1  0
 12 24  1  0
 14 25  1  0
 17 26  1  0
 17 27  1  0
M  END
>  <mol_id>  (28) 
2026-09-18-6fnk-s0-n100-r2-0028

>  <rmsd_to_ref>  (28) 
1.693877551024033

>  <pose_kind>  (28) 
conformer

$$$$
6fnk.A
     RDKit          3D

 27 29  0  0  0  0  0  0  0  0999 V2000
    4.3407   16.3692   42.6437 C   0  0  0  0  0  0  0  0  0  0  0  0
    5.2650   15.3258   42.5892 C   0  0  0  0  0  0  0  0  0  0  0  0
    4.8977   14.0527   43.0002 C   0  0  0  0  0  0  0  0  0  0  0  0
    3.6010   13.8163   43.4648 N   0  0  0  0  0  0  0  0  0  0  0  0
    2.6739   14.8682   43.5200 C   0  0  0  0  0  0  0  0  0  0  0  0
    3.0423   16.1479   43.1091 C   0  0  0  0  0  0  0  0  0  0  0  0
    2.1168   17.1948   43.1675 C   0  0  0  0  0  0  0  0  0  0  0  0
    2.4928   18.4621   42.9467 N   0  0  0  0  0  0  0  0  0  0  0  0
    0.8343   16.9345   43.4406 N   0  0  0  0  0  0  0  0  0  0  0  0
   -0.0829   17.9155   43.5138 C   0  0  0  0  0  0  0  0  0  0  0  0
   -1.3972   17.9001   43.7831 N   0  0  0  0  0  0  0  0  0  0  0  0
   -2.2020   16.7107   44.0776 C   0  0  0  0  0  0  0  0  0  0  0  0
   -1.8606   19.0406   43.7424 N   0  0  0  0  0  0  0  0  0  0  0  0
   -0.8588   19.8699   43.4063 C   0  0  0  0  0  0  0  0  0  0  0  0
    0.2793   19.1738   43.2841 C   0  0  0  0  0  0  0  0  0  0  0  0
    1.5808   19.4506   42.9961 C   0  0  0  0  0  0  0  0  0  0  0  0
    1.9856   20.7221   42.7601 N   0  0  0  0  0  0  0  0  0  0  0  0
    4.6374   17.3767   42.3168 H   0  0  0  0  0  0  0  0  0  0  0  0
    6.2845   15.5123   42.2206 H   0  0  0  0  0  0  0  0  0  0  0  0
    5.6267   13.2299   42.9605 H   0  0  0  0  0  0  0  0  0  0  0  0
    1.6542   14.6823   43.8883 H   0  0  0  0  0  0  0  0  0  0  0  0
   -2.7620   16.8688   45.0111 H   0  0  0  0  0  0  0  0  0  0  0  0
   -2.9073   16.5318   43.2527 H   0  0  0  0  0  0  0  0  0  0  0  0
   -1.5405   15.8391   44.1900 H   0  0  0  0  0  0  0  0  0  0  0  0
   -0.9578   20.9549   43.2547 H   0  0  0  0  0  0  0  0  0  0  0  0
    1.3044   21.4939   42.7928 H   0  0  0  0  0  0  0  0  0  0  0  0
    2.9746   20.9167   42.5479 H   0  0  0  0  0  0  0  0  0  0  0  0
  1  2  2  0
  1  6  1  0
  2  3  1  0
  3  4  2  0
  4  5  1  0
  5  6  2  0
  6  7  1  0
  7  8  2  0
  7  9  1  0
  8 16  1  0
  9 10  2  0
 10 11  1  0
 10 15  1  0
 11 12  1  0
 11 13  1  0
 13 14  2  0
 14 15  1  0
 15 16  2  0
 16 17  1  0
  1 18  1  0
  2 19  1  0
  3 20  1  0
  5 21  1  0
 12 22  1  0
 12 23  1  0
 12 24  1  0
 14 25  1  0
 17 26  1  0
 17 27  1  0
M  END
>  <mol_id>  (29) 
2026-09-18-6fnk-s0-n100-r2-0029

>  <rmsd_to_ref>  (29) 
1.7397959183699054

>  <pose_kind>  (29) 
rigid

$$$$
6fnk.A
     RDKit          3D

 27 29  0  0  0  0  0  0  0  0999 V2000
    2.6299   15.2618   41.5016 C   0  0  0  0  0  0  0  0  0  0  0  0
    2.6889   13.9056   41.7853 C   0  0  0  0  0  0  0  0  0  0  0  0
    2.1503   13.3772   42.9409 C   0  0  0  0  0  0  0  0  0  0  0  0
    1.5447   14.2252   43.8222 N   0  0  0  0  0  0  0  0  0  0  0  0
    1.4775   15.5516   43.5624 C   0  0  0  0  0  0  0  0  0  0  0  0
    2.0077   16.1040   42.4154 C   0  0  0  0  0  0  0  0  0  0  0  0
    1.9347   17.5302   42.1378 C   0  0  0  0  0  0  0  0  0  0  0  0
    2.4628   18.0552   41.0025 N   0  0  0  0  0  0  0  0  0  0  0  0
    1.3162   18.3227   43.0591 N   0  0  0  0  0  0  0  0  0  0  0  0
    1.2277   19.6305   42.8446 C   0  0  0  0  0  0  0  0  0  0  0  0
    0.6653   20.6109   43.6071 N   0  0  0  0  0  0  0  0  0  0  0  0
    0.0048   20.4005   44.8977 C   0  0  0  0  0  0  0  0  0  0  0  0
    0.8191   21.7489   42.9910 N   0  0  0  0  0  0  0  0  0  0  0  0
    1.4790   21.5703   41.8143 C   0  0  0  0  0  0  0  0  0  0  0  0
    1.7425   20.2235   41.7144 C   0  0  0  0  0  0  0  0  0  0  0  0
    2.3629   19.3943   40.8001 C   0  0  0  0  0  0  0  0  0  0  0  0
    2.9136   19.9791   39.6056 N   0  0  0  0  0  0  0  0  0  0  0  0
    3.0672   15.6312   40.5806 H   0  0  0  0  0  0  0  0  0  0  0  0
    3.1772   13.2680   41.0613 H   0  0  0  0  0  0  0  0  0  0  0  0
    2.2138   12.3180   43.1301 H   0  0  0  0  0  0  0  0  0  0  0  0
    0.9840   16.2109   44.2897 H   0  0  0  0  0  0  0  0  0  0  0  0
   -0.0604   19.3206   45.1196 H   0  0  0  0  0  0  0  0  0  0  0  0
    0.5920   20.9722   45.6343 H   0  0  0  0  0  0  0  0  0  0  0  0
   -1.0249   20.7956   44.9209 H   0  0  0  0  0  0  0  0  0  0  0  0
    1.7567   22.3149   41.0816 H   0  0  0  0  0  0  0  0  0  0  0  0
    2.4211   19.7270   38.7234 H   0  0  0  0  0  0  0  0  0  0  0  0
    3.7462   20.6051   39.6602 H   0  0  0  0  0  0  0  0  0  0  0  0
  1  2  2  0
  1  6  1  0
  2  3  1  0
  3  4  2  0
  4  5  1  0
  5  6  2  0
  6  7  1  0
  7  8  2  0
  7  9  1  0
  8 16  1  0
  9 10  2  0
 10 11  1  0
 10 15  1  0
 11 12  1  0
 11 13  1  0
 13 14  2  0
 14 15  1  0
 15 16  2  0
 16 17  1  0
  1 18  1  0
  2 19  1  0
  3 20  1  0
  5 21  1  0
 12 22  1  0
 12 23  1  0
 12 24  1  0
 14 25  1  0
 17 26  1  0
 17 27  1  0
M  END
>  <mol_id>  (30) 
2026-09-18-6fnk-s0-n100-r2-0030

>  <rmsd_to_ref>  (30) 
1.7857142857207338

>  <pose_kind>  (30) 
conformer

$$$$
6fnk.A
     RDKit          3D

 27 29  0  0  0  0  0  0  0  0999 V2000
    2.9736   15.3110   41.8771 C   0  0  0  0  0  0  0  0  0  0  0  0
    3.2553   13.9954   42.2454 C   0  0  0  0  0  0  0  0  0  0  0  0
    3.0148   13.5730   43.5446 C   0  0  0  0  0  0  0  0  0  0  0  0
    2.4869   14.4651   44.4821 N   0  0  0  0  0  0  0  0  0  0  0  0
    2.2060   15.7883   44.1092 C   0  0  0  0  0  0  0  0  0  0  0  0
    2.4490   16.2143   42.8047 C   0  0  0  0  0  0  0  0  0  0  0  0
    2.1702   17.5345   42.4366 C   0  0  0  0  0  0  0  0  0  0  0  0
    2.5555   18.0155   41.2465 N   0  0  0  0  0  0  0  0  0  0  0  0
    1.5039   18.3328   43.2767 N   0  0  0  0  0  0  0  0  0  0  0  0
    1.2250   19.6102   42.9616 C   0  0  0  0  0  0  0  0  0  0  0  0
    0.5963   20.5861   43.6343 N   0  0  0  0  0  0  0  0  0  0  0  0
    0.0160   20.4716   44.9756 C   0  0  0  0  0  0  0  0  0  0  0  0
    0.5570   21.6182   42.9632 N   0  0  0  0  0  0  0  0  0  0  0  0
    1.1413   21.3530   41.7832 C   0  0  0  0  0  0  0  0  0  0  0  0
    1.5927   20.0916   41.7783 C   0  0  0  0  0  0  0  0  0  0  0  0
    2.2641   19.2858   40.9104 C   0  0  0  0  0  0  0  0  0  0  0  0
    2.6571   19.7446   39.6974 N   0  0  0  0  0  0  0  0  0  0  0  0
    3.1665   15.6407   40.8456 H   0  0  0  0  0  0  0  0  0  0  0  0
    3.6680   13.2933   41.5059 H   0  0  0  0  0  0  0  0  0  0  0  0
    3.2393   12.5366   43.8369 H   0  0  0  0  0  0  0  0  0  0  0  0
    1.7930   16.4908   44.8480 H   0  0  0  0  0  0  0  0  0  0  0  0
    0.3938   21.2874   45.6095 H   0  0  0  0  0  0  0  0  0  0  0  0
   -1.0799   20.5374   44.9078 H   0  0  0  0  0  0  0  0  0  0  0  0
    0.2987   19.5041   45.4160 H   0  0  0  0  0  0  0  0  0  0  0  0
    1.2349   22.0631   40.9483 H   0  0  0  0  0  0  0  0  0  0  0  0
    2.4446   20.7135   39.4197 H   0  0  0  0  0  0  0  0  0  0  0  0
    3.1683   19.1246   39.0531 H   0  0  0  0  0  0  0  0  0  0  0  0
  1  2  2  0
  1  6  1  0
  2  3  1  0
  3  4  2  0
  4  5  1  0
  5  6  2  0
  6  7  1  0
  7  8  2  0
  7  9  1  0
  8 16  1  0
  9 10  2  0
 10 11  1  0
 10 15  1  0
 11 12  1  0
 11 13  1  0
 13 14  2  0
 14 15  1  0
 15 16  2  0
 16 17  1  0
  1 18  1  0
  2 19  1  0
  3 20  1  0
  5 21  1  0
 12 22  1  0
 12 23  1  0
 12 24  1  0
 14 25  1  0
 17 26  1  0
 17 27  1  0
M  END
>  <mol_id>  (31) 
2026-09-18-6fnk-s0-n100-r2-0031

>  <rmsd_to_ref>  (31) 
1.8316326530633422

>  <pose_kind>  (31) 
rigid

$$$$
6fnk.A
     RDKit          3D

 27 29  0  0  0  0  0  0  0  0999 V2000
    4.8442   16.5130   41.9234 C   0  0  0  0  0  0  0  0  0  0  0  0
    5.7521   15.4766   41.8425 C   0  0  0  0  0  0  0  0  0  0  0  0
    5.2212   14.1832   41.9009 C   0  0  0  0  0  0  0  0  0  0  0  0
    3.8943   13.9698   42.0291 N   0  0  0  0  0  0  0  0  0  0  0  0
    3.0248   15.0207   42.1062 C   0  0  0  0  0  0  0  0  0  0  0  0
    3.4838   16.3186   42.0547 C   0  0  0  0  0  0  0  0  0  0  0  0
    2.5824   17.4638   42.1343 C   0  0  0  0  0  0  0  0  0  0  0  0
    3.0224   18.7344   42.0847 N   0  0  0  0  0  0  0  0  0  0  0  0
    1.2542   17.2321   42.2628 N   0  0  0  0  0  0  0  0  0  0  0  0
    0.3681   18.2557   42.3417 C   0  0  0  0  0  0  0  0  0  0  0  0
   -0.9878   18.3076   42.4712 N   0  0  0  0  0  0  0  0  0  0  0  0
   -1.8922   17.1850   42.5644 C   0  0  0  0  0  0  0  0  0  0  0  0
   -1.3232   19.5720   42.4959 N   0  0  0  0  0  0  0  0  0  0  0  0
   -0.2632   20.3924   42.3896 C   0  0  0  0  0  0  0  0  0  0  0  0
    0.8428   19.5509   42.2887 C   0  0  0  0  0  0  0  0  0  0  0  0
    2.1962   19.7945   42.1576 C   0  0  0  0  0  0  0  0  0  0  0  0
    2.6558   21.1233   42.1058 N   0  0  0  0  0  0  0  0  0  0  0  0
    5.2118   17.5506   41.8821 H   0  0  0  0  0  0  0  0  0  0  0  0
    6.8189   15.6210   41.7396 H   0  0  0  0  0  0  0  0  0  0  0  0
    5.9490   13.3849   41.8359 H   0  0  0  0  0  0  0  0  0  0  0  0
    1.9695   14.8056   42.2085 H   0  0  0  0  0  0  0  0  0  0  0  0
   -2.1571   16.9548   43.5997 H   0  0  0  0  0  0  0  0  0  0  0  0
   -1.3997   16.3254   42.0716 H   0  0  0  0  0  0  0  0  0  0  0  0
   -2.8335   17.4273   41.9884 H   0  0  0  0  0  0  0  0  0  0  0  0
   -0.2048   21.4691   42.3777 H   0  0  0  0  0  0  0  0  0  0  0  0
    3.5142   21.4485   41.6155 H   0  0  0  0  0  0  0  0  0  0  0  0
    2.1009   21.8833   42.5999 H   0  0  0  0  0  0  0  0  0  0  0  0
  1  2  2  0
  1  6  1  0
  2  3  1  0
  3  4  2  0
  4  5  1  0
  5  6  2  0
  6  7  1  0
  7  8  2  0
  7  9  1  0
  8 16  1  0
  9 10  2  0
 10 11  1  0
 10 15  1  0
 11 12  1  0
 11 13  1  0
 13 14  2  0
 14 15  1  0
 15 16  2  0
 16 17  1  0
  1 18  1  0
  2 19  1  0
  3 20  1  0
  5 21  1  0
 12 22  1  0
 12 23  1  0
 12 24  1  0
 14 25  1  0
 17 26  1  0
 17 27  1  0
M  END
>  <mol_id>  (32) 
2026-09-18-6fnk-s0-n100-r2-0032

>  <rmsd_to_ref>  (32) 
1.877551020409591

>  <pose_kind>  (32) 
conformer

$$$$
6fnk.A
     RDKit          3D

 27 29  0  0  0  0  0  0  0  0999 V2000
    0.7518   17.1481   39.3930 C   0  0  0  0  0  0  0  0  0  0  0  0
    0.8240   16.0797   38.4990 C   0  0  0  0  0  0  0  0  0  0  0  0
    1.2435   14.8336   38.9412 C   0  0  0  0  0  0  0  0  0  0  0  0
    1.5897   14.6491   40.2826 N   0  0  0  0  0  0  0  0  0  0  0  0
    1.5176   15.7261   41.1792 C   0  0  0  0  0  0  0  0  0  0  0  0
    1.0981   16.9789   40.7357 C   0  0  0  0  0  0  0  0  0  0  0  0
    1.0295   18.0510   41.6313 C   0  0  0  0  0  0  0  0  0  0  0  0
    0.8003   19.2985   41.1986 N   0  0  0  0  0  0  0  0  0  0  0  0
    1.1875   17.8350   42.9410 N   0  0  0  0  0  0  0  0  0  0  0  0
    1.1369   18.8415   43.8316 C   0  0  0  0  0  0  0  0  0  0  0  0
    1.2792   18.8708   45.1654 N   0  0  0  0  0  0  0  0  0  0  0  0
    1.5377   17.7150   46.0293 C   0  0  0  0  0  0  0  0  0  0  0  0
    1.1530   20.0205   45.5889 N   0  0  0  0  0  0  0  0  0  0  0  0
    0.8850   20.8098   44.5356 C   0  0  0  0  0  0  0  0  0  0  0  0
    0.8977   20.0801   43.4121 C   0  0  0  0  0  0  0  0  0  0  0  0
    0.7263   20.3116   42.0815 C   0  0  0  0  0  0  0  0  0  0  0  0
    0.4844   21.5621   41.6187 N   0  0  0  0  0  0  0  0  0  0  0  0
    0.4188   18.1342   39.0370 H   0  0  0  0  0  0  0  0  0  0  0  0
    0.5484   16.2253   37.4441 H   0  0  0  0  0  0  0  0  0  0  0  0
    1.3036   13.9911   38.2364 H   0  0  0  0  0  0  0  0  0  0  0  0
    1.7927   15.5811   42.2343 H   0  0  0  0  0  0  0  0  0  0  0  0
    2.4068   17.9237   46.6705 H   0  0  0  0  0  0  0  0  0  0  0  0
    0.6559   17.5227   46.6581 H   0  0  0  0  0  0  0  0  0  0  0  0
    1.7445   16.8315   45.4076 H   0  0  0  0  0  0  0  0  0  0  0  0
    0.6855   21.8903   44.5876 H   0  0  0  0  0  0  0  0  0  0  0  0
    0.4237   22.3521   42.2768 H   0  0  0  0  0  0  0  0  0  0  0  0
    0.3613   21.7226   40.6087 H   0  0  0  0  0  0  0  0  0  0  0  0
  1  2  2  0
  1  6  1  0
  2  3  1  0
  3  4  2  0
  4  5  1  0
  5  6  2  0
  6  7  1  0
  7  8  2  0
  7  9  1  0
  8 16  1  0
  9 10  2  0
 10 11  1  0
 10 15  1  0
 11 12  1  0
 11 13  1  0
 13 14  2  0
 14 15  1  0
 15 16  2  0
 16 17  1  0
  1 18  1  0
  2 19  1  0
  3 20  1  0
  5 21  1  0
 12 22  1  0
 12 23  1  0
 12 24  1  0
 14 25  1  0
 17 26  1  0
 17 27  1  0
M  END
>  <mol_id>  (33) 
2026-09-18-6fnk-s0-n100-r2-0033

>  <rmsd_to_ref>  (33) 
1.923469387756268

>  <pose_kind>  (33) 
rigid

$$$$
6fnk.A
     RDKit          3D

 27 29  0  0  0  0  0  0  0  0999 V2000
    1.3766   15.2444   42.5758 C   0  0  0  0  0  0  0  0  0  0  0  0
    1.2797   13.8925   42.3244 C   0  0  0  0  0  0  0  0  0  0  0  0
    1.5444   13.3884   41.0737 C   0  0  0  0  0  0  0  0  0  0  0  0
    1.9059   14.2266   40.0704 N   0  0  0  0  0  0  0  0  0  0  0  0
    2.0106   15.5698   40.2882 C   0  0  0  0  0  0  0  0  0  0  0  0
    1.7456   16.0799   41.5425 C   0  0  0  0  0  0  0  0  0  0  0  0
    1.8567   17.5161   41.7787 C   0  0  0  0  0  0  0  0  0  0  0  0
    2.2164   18.3382   40.7747 N   0  0  0  0  0  0  0  0  0  0  0  0
    1.6011   18.0241   42.9957 N   0  0  0  0  0  0  0  0  0  0  0  0
    1.6903   19.3428   43.2614 C   0  0  0  0  0  0  0  0  0  0  0  0
    1.4945   20.0780   44.3535 N   0  0  0  0  0  0  0  0  0  0  0  0
    1.0932   19.5143   45.6367 C   0  0  0  0  0  0  0  0  0  0  0  0
    1.7181   21.3653   44.0878 N   0  0  0  0  0  0  0  0  0  0  0  0
    2.0686   21.4482   42.7784 C   0  0  0  0  0  0  0  0  0  0  0  0
    2.0587   20.1704   42.2266 C   0  0  0  0  0  0  0  0  0  0  0  0
    2.3299   19.6730   40.9544 C   0  0  0  0  0  0  0  0  0  0  0  0
    2.7095   20.5556   39.9021 N   0  0  0  0  0  0  0  0  0  0  0  0
    1.1586   15.5878   43.5726 H   0  0  0  0  0  0  0  0  0  0  0  0
    0.9880   13.2141   43.1328 H   0  0  0  0  0  0  0  0  0  0  0  0
    1.4655   12.3156   40.8816 H   0  0  0  0  0  0  0  0  0  0  0  0
    2.3061   16.2134   39.4490 H   0  0  0  0  0  0  0  0  0  0  0  0
    1.9577   19.0056   46.1118 H   0  0  0  0  0  0  0  0  0  0  0  0
    0.3047   18.7494   45.5033 H   0  0  0  0  0  0  0  0  0  0  0  0
    0.7409   20.3195   46.3216 H   0  0  0  0  0  0  0  0  0  0  0  0
    2.3178   22.3527   42.2376 H   0  0  0  0  0  0  0  0  0  0  0  0
    3.2319   20.1671   39.0794 H   0  0  0  0  0  0  0  0  0  0  0  0
    2.4535   21.5450   39.9934 H   0  0  0  0  0  0  0  0  0  0  0  0
  1  2  2  0
  1  6  1  0
  2  3  1  0
  3  4  2  0
  4  5  1  0
  5  6  2  0
  6  7  1  0
  7  8  2  0
  7  9  1  0
  8 16  1  0
  9 10  2  0
 10 11  1  0
 10 15  1  0
 11 12  1  0
 11 13  1  0
 13 14  2  0
 14 15  1  0
 15 16  2  0
 16 17  1  0
  1 18  1  0
  2 19  1  0
  3 20  1  0
  5 21  1  0
 12 22  1  0
 12 23  1  0
 12 24  1  0
 14 25  1  0
 17 26  1  0
 17 27  1  0
M  END
>  <mol_id>  (34) 
2026-09-18-6fnk-s0-n100-r2-0034

>  <rmsd_to_ref>  (34) 
1.9693877551038348

>  <pose_kind>  (34) 
conformer

$$$$
6fnk.A
     RDKit          3D

 27 29  0  0  0  0  0  0  0  0999 V2000
    4.1057   16.2496   41.4190 C   0  0  0  0  0  0  0  0  0  0  0  0
    5.0740   15.3315   41.8256 C   0  0  0  0  0  0  0  0  0  0  0  0
    5.1096   14.9001   43.1436 C   0  0  0  0  0  0  0  0  0  0  0  0
    4.1728   15.3830   44.0615 N   0  0  0  0  0  0  0  0  0  0  0  0
    3.2009   16.3076   43.6499 C   0  0  0  0  0  0  0  0  0  0  0  0
    3.1654   16.7432   42.3266 C   0  0  0  0  0  0  0  0  0  0  0  0
    2.1970   17.6667   41.9198 C   0  0  0  0  0  0  0  0  0  0  0  0
    2.2486   18.2319   40.7058 N   0  0  0  0  0  0  0  0  0  0  0  0
    1.1978   17.9906   42.7468 N   0  0  0  0  0  0  0  0  0  0  0  0
    0.2532   18.8808   42.3945 C   0  0  0  0  0  0  0  0  0  0  0  0
   -0.8139   19.3661   43.0473 N   0  0  0  0  0  0  0  0  0  0  0  0
   -1.2321   19.0020   44.4043 C   0  0  0  0  0  0  0  0  0  0  0  0
   -1.4225   20.1722   42.3423 N   0  0  0  0  0  0  0  0  0  0  0  0
   -0.7890   20.2305   41.1594 C   0  0  0  0  0  0  0  0  0  0  0  0
    0.2900   19.4368   41.1876 C   0  0  0  0  0  0  0  0  0  0  0  0
    1.2976   19.1083   40.3331 C   0  0  0  0  0  0  0  0  0  0  0  0
    1.3681   19.6586   39.0966 N   0  0  0  0  0  0  0  0  0  0  0  0
    4.0823   16.5885   40.3727 H   0  0  0  0  0  0  0  0  0  0  0  0
    5.8090   14.9499   41.1016 H   0  0  0  0  0  0  0  0  0  0  0  0
    5.8746   14.1785   43.4660 H   0  0  0  0  0  0  0  0  0  0  0  0
    2.4655   16.6895   44.3733 H   0  0  0  0  0  0  0  0  0  0  0  0
   -1.3749   19.9147   45.0013 H   0  0  0  0  0  0  0  0  0  0  0  0
   -2.1778   18.4420   44.3586 H   0  0  0  0  0  0  0  0  0  0  0  0
   -0.4575   18.3759   44.8711 H   0  0  0  0  0  0  0  0  0  0  0  0
   -1.1074   20.8372   40.2988 H   0  0  0  0  0  0  0  0  0  0  0  0
    0.6509   20.3316   38.7908 H   0  0  0  0  0  0  0  0  0  0  0  0
    2.1389   19.4037   38.4627 H   0  0  0  0  0  0  0  0  0  0  0  0
  1  2  2  0
  1  6  1  0
  2  3  1  0
  3  4  2  0
  4  5  1  0
  5  6  2  0
  6  7  1  0
  7  8  2  0
  7  9  1  0
  8 16  1  0
  9 10  2  0
 10 11  1  0
 10 15  1  0
 11 12  1  0
 11 13  1  0
 13 14  2  0
 14 15  1  0
 15 16  2  0
 16 17  1  0
  1 18  1  0
  2 19  1  0
  3 20  1  0
  5 21  1  0
 12 22  1  0
 12 23  1  0
 12 24  1  0
 14 25  1  0
 17 26  1  0
 17 27  1  0
M  END
>  <mol_id>  (35) 
2026-09-18-6fnk-s0-n100-r2-0035

>  <rmsd_to_ref>  (35) 
2.015306122452739

>  <pose_kind>  (35) 
rigid

$$$$
6fnk.A
     RDKit          3D

 27 29  0  0  0  0  0  0  0  0999 V2000
    2.0045   15.9159   41.4174 C   0  0  0  0  0  0  0  0  0  0  0  0
    2.5458   15.1927   40.3480 C   0  0  0  0  0  0  0  0  0  0  0  0
    3.0774   15.8852   39.2541 C   0  0  0  0  0  0  0  0  0  0  0  0
    3.0595   17.2494   39.2477 N   0  0  0  0  0  0  0  0  0  0  0  0
    2.5401   17.9479   40.2739 C   0  0  0  0  0  0  0  0  0  0  0  0
    2.0017   17.2975   41.3802 C   0  0  0  0  0  0  0  0  0  0  0  0
    1.4513   18.0790   42.4662 C   0  0  0  0  0  0  0  0  0  0  0  0
    1.4782   19.4280   42.3700 N   0  0  0  0  0  0  0  0  0  0  0  0
    0.9272   17.4639   43.5426 N   0  0  0  0  0  0  0  0  0  0  0  0
    0.4092   18.1962   44.5648 C   0  0  0  0  0  0  0  0  0  0  0  0
   -0.1697   17.8977   45.7420 N   0  0  0  0  0  0  0  0  0  0  0  0
   -0.4020   16.5491   46.2526 C   0  0  0  0  0  0  0  0  0  0  0  0
   -0.4978   19.0284   46.3688 N   0  0  0  0  0  0  0  0  0  0  0  0
   -0.1304   20.0776   45.5949 C   0  0  0  0  0  0  0  0  0  0  0  0
    0.4387   19.5821   44.4623 C   0  0  0  0  0  0  0  0  0  0  0  0
    0.9784   20.2038   43.3541 C   0  0  0  0  0  0  0  0  0  0  0  0
    1.0115   21.6150   43.2435 N   0  0  0  0  0  0  0  0  0  0  0  0
    1.6017   15.3650   42.2473 H   0  0  0  0  0  0  0  0  0  0  0  0
    2.5348   14.1218   40.4036 H   0  0  0  0  0  0  0  0  0  0  0  0
    3.5006   15.3327   38.4174 H   0  0  0  0  0  0  0  0  0  0  0  0
    2.5610   19.0361   40.1978 H   0  0  0  0  0  0  0  0  0  0  0  0
   -1.2905   16.5271   46.9158 H   0  0  0  0  0  0  0  0  0  0  0  0
    0.4976   16.2621   46.8360 H   0  0  0  0  0  0  0  0  0  0  0  0
   -0.5087   15.8631   45.3815 H   0  0  0  0  0  0  0  0  0  0  0  0
   -0.2806   21.1270   45.8652 H   0  0  0  0  0  0  0  0  0  0  0  0
    0.8529   22.1421   42.3576 H   0  0  0  0  0  0  0  0  0  0  0  0
    1.2113   22.1730   44.1217 H   0  0  0  0  0  0  0  0  0  0  0  0
  1  2  2  0
  1  6  1  0
  2  3  1  0
  3  4  2  0
  4  5  1  0
  5  6  2  0
  6  7  1  0
  7  8  2  0
  7  9  1  0
  8 16  1  0
  9 10  2  0
 10 11  1  0
 10 15  1  0
 11 12  1  0
 11 13  1  0
 13 14  2  0
 14 15  1  0
 15 16  2  0
 16 17  1  0
  1 18  1  0
  2 19  1  0
  3 20  1  0
  5 21  1  0
 12 22  1  0
 12 23  1  0
 12 24  1  0
 14 25  1  0
 17 26  1  0
 17 27  1  0
M  END
>  <mol_id>  (36) 
2026-09-18-6fnk-s0-n100-r2-0036

>  <rmsd_to_ref>  (36) 
2.0612244898002845

>  <pose_kind>  (36) 
conformer

$$$$
6fnk.A
     RDKit          3D

 27 29  0  0  0  0  0  0  0  0999 V2000
    1.2375   14.0806   41.5661 C   0  0  0  0  0  0  0  0  0  0  0  0
    1.8437   12.8415   41.3592 C   0  0  0  0  0  0  0  0  0  0  0  0
    2.9283   12.4624   42.1367 C   0  0  0  0  0  0  0  0  0  0  0  0
    3.4097   13.3208   43.1289 N   0  0  0  0  0  0  0  0  0  0  0  0
    2.7988   14.5673   43.3337 C   0  0  0  0  0  0  0  0  0  0  0  0
    1.7104   14.9500   42.5520 C   0  0  0  0  0  0  0  0  0  0  0  0
    1.1050   16.1941   42.7569 C   0  0  0  0  0  0  0  0  0  0  0  0
    0.1762   16.6580   41.9094 N   0  0  0  0  0  0  0  0  0  0  0  0
    1.4483   16.9347   43.8156 N   0  0  0  0  0  0  0  0  0  0  0  0
    0.8946   18.1394   44.0411 C   0  0  0  0  0  0  0  0  0  0  0  0
    1.0868   19.0515   45.0061 N   0  0  0  0  0  0  0  0  0  0  0  0
    2.0173   18.9304   46.1325 C   0  0  0  0  0  0  0  0  0  0  0  0
    0.3573   20.0282   44.8299 N   0  0  0  0  0  0  0  0  0  0  0  0
   -0.3850   19.7837   43.7375 C   0  0  0  0  0  0  0  0  0  0  0  0
   -0.0364   18.6015   43.2123 C   0  0  0  0  0  0  0  0  0  0  0  0
   -0.4009   17.8527   42.1353 C   0  0  0  0  0  0  0  0  0  0  0  0
   -1.3439   18.2944   41.2681 N   0  0  0  0  0  0  0  0  0  0  0  0
    0.3780   14.3763   40.9466 H   0  0  0  0  0  0  0  0  0  0  0  0
    1.4621   12.1654   40.5799 H   0  0  0  0  0  0  0  0  0  0  0  0
    3.4090   11.4867   41.9723 H   0  0  0  0  0  0  0  0  0  0  0  0
    3.1798   15.2438   44.1129 H   0  0  0  0  0  0  0  0  0  0  0  0
    2.6542   19.8260   46.1799 H   0  0  0  0  0  0  0  0  0  0  0  0
    1.4486   18.8348   47.0692 H   0  0  0  0  0  0  0  0  0  0  0  0
    2.6472   18.0394   45.9935 H   0  0  0  0  0  0  0  0  0  0  0  0
   -1.1607   20.4520   43.3355 H   0  0  0  0  0  0  0  0  0  0  0  0
   -1.7984   19.2059   41.4219 H   0  0  0  0  0  0  0  0  0  0  0  0
   -1.6061   17.7188   40.4553 H   0  0  0  0  0  0  0  0  0  0  0  0
  1  2  2  0
  1  6  1  0
  2  3  1  0
  3  4  2  0
  4  5  1  0
  5  6  2  0
  6  7  1  0
  7  8  2  0
  7  9  1  0
  8 16  1  0
  9 10  2  0
 10 11  1  0
 10 15  1  0
 11 12  1  0
 11 13  1  0
 13 14  2  0
 14 15  1  0
 15 16  2  0
 16 17  1  0
  1 18  1  0
  2 19  1  0
  3 20  1  0
  5 21  1  0
 12 22  1  0
 12 23  1  0
 12 24  1  0
 14 25  1  0
 17 26  1  0
 17 27  1  0
M  END
>  <mol_id>  (37) 
2026-09-18-6fnk-s0-n100-r2-0037

>  <rmsd_to_ref>  (37) 
2.10714285714479

>  <pose_kind>  (37) 
rigid

$$$$
6fnk.A
     RDKit          3D

 27 29  0  0  0  0  0  0  0  0999 V2000
    4.1179   16.7400   43.3522 C   0  0  0  0  0  0  0  0  0  0  0  0
    5.0712   15.8126   43.7186 C   0  0  0  0  0  0  0  0  0  0  0  0
    4.7006   14.7113   44.4847 C   0  0  0  0  0  0  0  0  0  0  0  0
    3.4235   14.5173   44.8865 N   0  0  0  0  0  0  0  0  0  0  0  0
    2.5021   15.4388   44.5167 C   0  0  0  0  0  0  0  0  0  0  0  0
    2.8146   16.5461   43.7597 C   0  0  0  0  0  0  0  0  0  0  0  0
    1.8022   17.5224   43.3759 C   0  0  0  0  0  0  0  0  0  0  0  0
    2.0864   18.6177   42.6326 N   0  0  0  0  0  0  0  0  0  0  0  0
    0.5175   17.3223   43.7831 N   0  0  0  0  0  0  0  0  0  0  0  0
   -0.4661   18.1808   43.4662 C   0  0  0  0  0  0  0  0  0  0  0  0
   -1.7993   18.2010   43.7472 N   0  0  0  0  0  0  0  0  0  0  0  0
   -2.5189   17.2074   44.5231 C   0  0  0  0  0  0  0  0  0  0  0  0
   -2.3214   19.2951   43.1822 N   0  0  0  0  0  0  0  0  0  0  0  0
   -1.3494   19.9919   42.5351 C   0  0  0  0  0  0  0  0  0  0  0  0
   -0.1533   19.2877   42.7094 C   0  0  0  0  0  0  0  0  0  0  0  0
    1.1337   19.5014   42.2932 C   0  0  0  0  0  0  0  0  0  0  0  0
    1.4594   20.6516   41.5067 N   0  0  0  0  0  0  0  0  0  0  0  0
    4.4131   17.5833   42.7632 H   0  0  0  0  0  0  0  0  0  0  0  0
    6.1018   15.9122   43.4299 H   0  0  0  0  0  0  0  0  0  0  0  0
    5.4503   13.9677   44.7817 H   0  0  0  0  0  0  0  0  0  0  0  0
    1.4498   15.3435   44.8076 H   0  0  0  0  0  0  0  0  0  0  0  0
   -1.9219   16.9485   45.4162 H   0  0  0  0  0  0  0  0  0  0  0  0
   -3.4648   17.6637   44.8549 H   0  0  0  0  0  0  0  0  0  0  0  0
   -2.7629   16.2960   43.9456 H   0  0  0  0  0  0  0  0  0  0  0  0
   -1.4549   20.9221   41.9803 H   0  0  0  0  0  0  0  0  0  0  0  0
    2.1164   21.3881   41.8336 H   0  0  0  0  0  0  0  0  0  0  0  0
    0.9847   20.6993   40.5702 H   0  0  0  0  0  0  0  0  0  0  0  0
  1  2  2  0
  1  6  1  0
  2  3  1  0
  3  4  2  0
  4  5  1  0
  5  6  2  0
  6  7  1  0
  7  8  2  0
  7  9  1  0
  8 16  1  0
  9 10  2  0
 10 11  1  0
 10 15  1  0
 11 12  1  0
 11 13  1  0
 13 14  2  0
 14 15  1  0
 15 16  2  0
 16 17  1  0
  1 18  1  0
  2 19  1  0
  3 20  1  0
  5 21  1  0
 12 22  1  0
 12 23  1  0
 12 24  1  0
 14 25  1  0
 17 26  1  0
 17 27  1  0
M  END
>  <mol_id>  (38) 
2026-09-18-6fnk-s0-n100-r2-0038

>  <rmsd_to_ref>  (38) 
2.1530612244943437

>  <pose_kind>  (38) 
conformer

$$$$
6fnk.A
     RDKit          3D

 27 29  0  0  0  0  0  0  0  0999 V2000
    2.1945   17.0035   39.8392 C   0  0  0  0  0  0  0  0  0  0  0  0
    2.2911   16.2731   38.6547 C   0  0  0  0  0  0  0  0  0  0  0  0
    2.0455   14.9079   38.6607 C   0  0  0  0  0  0  0  0  0  0  0  0
    1.6978   14.2665   39.8527 N   0  0  0  0  0  0  0  0  0  0  0  0
    1.6029   15.0036   41.0430 C   0  0  0  0  0  0  0  0  0  0  0  0
    1.8513   16.3749   41.0385 C   0  0  0  0  0  0  0  0  0  0  0  0
    1.7582   17.1064   42.2269 C   0  0  0  0  0  0  0  0  0  0  0  0
    2.1602   18.3836   42.2848 N   0  0  0  0  0  0  0  0  0  0  0  0
    1.2556   16.5318   43.3243 N   0  0  0  0  0  0  0  0  0  0  0  0
    1.1583   17.2003   44.4872 C   0  0  0  0  0  0  0  0  0  0  0  0
    0.7123   16.8368   45.6994 N   0  0  0  0  0  0  0  0  0  0  0  0
    0.1791   15.5202   46.0615 C   0  0  0  0  0  0  0  0  0  0  0  0
    0.7998   17.7756   46.4919 N   0  0  0  0  0  0  0  0  0  0  0  0
    1.2869   18.8289   45.8155 C   0  0  0  0  0  0  0  0  0  0  0  0
    1.5433   18.4711   44.5501 C   0  0  0  0  0  0  0  0  0  0  0  0
    2.0487   19.0702   43.4370 C   0  0  0  0  0  0  0  0  0  0  0  0
    2.4540   20.3630   43.4662 N   0  0  0  0  0  0  0  0  0  0  0  0
    2.3906   18.0859   39.8287 H   0  0  0  0  0  0  0  0  0  0  0  0
    2.5620   16.7795   37.7164 H   0  0  0  0  0  0  0  0  0  0  0  0
    2.1243   14.3304   37.7277 H   0  0  0  0  0  0  0  0  0  0  0  0
    1.3318   14.4979   41.9815 H   0  0  0  0  0  0  0  0  0  0  0  0
    0.7016   15.1459   46.9542 H   0  0  0  0  0  0  0  0  0  0  0  0
   -0.8965   15.6064   46.2754 H   0  0  0  0  0  0  0  0  0  0  0  0
    0.3320   14.8204   45.2267 H   0  0  0  0  0  0  0  0  0  0  0  0
    1.4502   19.8320   46.2362 H   0  0  0  0  0  0  0  0  0  0  0  0
    2.3776   20.9071   44.3374 H   0  0  0  0  0  0  0  0  0  0  0  0
    2.8385   20.8014   42.6172 H   0  0  0  0  0  0  0  0  0  0  0  0
  1  2  2  0
  1  6  1  0
  2  3  1  0
  3  4  2  0
  4  5  1  0
  5  6  2  0
  6  7  1  0
  7  8  2  0
  7  9  1  0
  8 16  1  0
  9 10  2  0
 10 11  1  0
 10 15  1  0
 11 12  1  0
 11 13  1  0
 13 14  2  0
 14 15  1  0
 15 16  2  0
 16 17  1  0
  1 18  1  0
  2 19  1  0
  3 20  1  0
  5 21  1  0
 12 22  1  0
 12 23  1  0
 12 24  1  0
 14 25  1  0
 17 26  1  0
 17 27  1  0
M  END
>  <mol_id>  (39) 
2026-09-18-6fnk-s0-n100-r2-0039

>  <rmsd_to_ref>  (39) 
2.1989795918413817

>  <pose_kind>  (39) 
rigid

$$$$
6fnk.A
     RDKit          3D

 27 29  0  0  0  0  0  0  0  0999 V2000
    1.0908   15.3842   43.2355 C   0  0  0  0  0  0  0  0  0  0  0  0
    1.0615   14.0053   43.1909 C   0  0  0  0  0  0  0  0  0  0  0  0
    2.1324   13.2711   42.6698 C   0  0  0  0  0  0  0  0  0  0  0  0
    3.2348   13.9021   42.1917 N   0  0  0  0  0  0  0  0  0  0  0  0
    3.2892   15.2496   42.2235 C   0  0  0  0  0  0  0  0  0  0  0  0
    2.2348   15.9935   42.7375 C   0  0  0  0  0  0  0  0  0  0  0  0
    2.3666   17.4468   42.7382 C   0  0  0  0  0  0  0  0  0  0  0  0
    3.4996   17.9786   42.2420 N   0  0  0  0  0  0  0  0  0  0  0  0
    1.3898   18.2366   43.2186 N   0  0  0  0  0  0  0  0  0  0  0  0
    1.5019   19.5926   43.2243 C   0  0  0  0  0  0  0  0  0  0  0  0
    0.7548   20.6196   43.6094 N   0  0  0  0  0  0  0  0  0  0  0  0
   -0.5575   20.5217   44.2060 C   0  0  0  0  0  0  0  0  0  0  0  0
    1.3865   21.7603   43.3682 N   0  0  0  0  0  0  0  0  0  0  0  0
    2.5730   21.5072   42.8146 C   0  0  0  0  0  0  0  0  0  0  0  0
    2.6779   20.1338   42.7088 C   0  0  0  0  0  0  0  0  0  0  0  0
    3.6870   19.3306   42.2131 C   0  0  0  0  0  0  0  0  0  0  0  0
    4.8766   19.9125   41.6931 N   0  0  0  0  0  0  0  0  0  0  0  0
    0.2658   15.9592   43.6373 H   0  0  0  0  0  0  0  0  0  0  0  0
    0.1853   13.4784   43.5698 H   0  0  0  0  0  0  0  0  0  0  0  0
    2.1297   12.1960   42.6258 H   0  0  0  0  0  0  0  0  0  0  0  0
    4.1909   15.7102   41.8301 H   0  0  0  0  0  0  0  0  0  0  0  0
   -0.4144   20.1268   45.2538 H   0  0  0  0  0  0  0  0  0  0  0  0
   -1.0552   21.5040   44.2385 H   0  0  0  0  0  0  0  0  0  0  0  0
   -1.1638   19.8079   43.6185 H   0  0  0  0  0  0  0  0  0  0  0  0
    3.3279   22.2064   42.4984 H   0  0  0  0  0  0  0  0  0  0  0  0
    4.8116   20.3434   40.7234 H   0  0  0  0  0  0  0  0  0  0  0  0
    5.7849   19.9340   42.2078 H   0  0  0  0  0  0  0  0  0  0  0  0
  1  2  2  0
  1  6  1  0
  2  3  1  0
  3  4  2  0
  4  5  1  0
  5  6  2  0
  6  7  1  0
  7  8  2  0
  7  9  1  0
  8 16  1  0
  9 10  2  0
 10 11  1  0
 10 15  1  0
 11 12  1  0
 11 13  1  0
 13 14  2  0
 14 15  1  0
 15 16  2  0
 16 17  1  0
  1 18  1  0
  2 19  1  0
  3 20  1  0
  5 21  1  0
 12 22  1  0
 12 23  1  0
 12 24  1  0
 14 25  1  0
 17 26  1  0
 17 27  1  0
M  END
>  <mol_id>  (40) 
2026-09-18-6fnk-s0-n100-r2-0040

>  <rmsd_to_ref>  (40) 
2.244897959187304

>  <pose_kind>  (40) 
conformer

$$$$
6fnk.A
     RDKit          3D

 27 29  0  0  0  0  0  0  0  0999 V2000
    1.6292   15.9220   41.0411 C   0  0  0  0  0  0  0  0  0  0  0  0
    1.5067   14.9789   40.0206 C   0  0  0  0  0  0  0  0  0  0  0  0
    0.2732   14.4025   39.7545 C   0  0  0  0  0  0  0  0  0  0  0  0
   -0.8458   14.7701   40.5067 N   0  0  0  0  0  0  0  0  0  0  0  0
   -0.7191   15.7178   41.5336 C   0  0  0  0  0  0  0  0  0  0  0  0
    0.5198   16.2962   41.8031 C   0  0  0  0  0  0  0  0  0  0  0  0
    0.6435   17.2389   42.8289 C   0  0  0  0  0  0  0  0  0  0  0  0
    1.8472   17.6770   43.2227 N   0  0  0  0  0  0  0  0  0  0  0  0
   -0.4516   17.7197   43.4261 N   0  0  0  0  0  0  0  0  0  0  0  0
   -0.3724   18.6203   44.4218 C   0  0  0  0  0  0  0  0  0  0  0  0
   -1.3116   19.2222   45.1674 N   0  0  0  0  0  0  0  0  0  0  0  0
   -2.7596   19.0237   45.0533 C   0  0  0  0  0  0  0  0  0  0  0  0
   -0.7934   19.9920   45.9774 N   0  0  0  0  0  0  0  0  0  0  0  0
    0.5340   19.9543   45.7754 C   0  0  0  0  0  0  0  0  0  0  0  0
    0.8170   19.0694   44.8101 C   0  0  0  0  0  0  0  0  0  0  0  0
    1.9393   18.5940   44.2036 C   0  0  0  0  0  0  0  0  0  0  0  0
    3.1680   19.0270   44.5765 N   0  0  0  0  0  0  0  0  0  0  0  0
    2.6097   16.3758   41.2480 H   0  0  0  0  0  0  0  0  0  0  0  0
    2.3875   14.6925   39.4272 H   0  0  0  0  0  0  0  0  0  0  0  0
    0.1760   13.6565   38.9519 H   0  0  0  0  0  0  0  0  0  0  0  0
   -1.5996   16.0049   42.1272 H   0  0  0  0  0  0  0  0  0  0  0  0
   -3.1760   18.7846   46.0430 H   0  0  0  0  0  0  0  0  0  0  0  0
   -3.2268   19.9433   44.6714 H   0  0  0  0  0  0  0  0  0  0  0  0
   -2.9624   18.1941   44.3600 H   0  0  0  0  0  0  0  0  0  0  0  0
    1.2755   20.5577   46.3195 H   0  0  0  0  0  0  0  0  0  0  0  0
    3.2616   19.7284   45.3250 H   0  0  0  0  0  0  0  0  0  0  0  0
    4.0083   18.6548   44.1115 H   0  0  0  0  0  0  0  0  0  0  0  0
  1  2  2  0
  1  6  1  0
  2  3  1  0
  3  4  2  0
  4  5  1  0
  5  6  2  0
  6  7  1  0
  7  8  2  0
  7  9  1  0
  8 16  1  0
  9 10  2  0
 10 11  1  0
 10 15  1  0
 11 12  1  0
 11 13  1  0
 13 14  2  0
 14 15  1  0
 15 16  2  0
 16 17  1  0
  1 18  1  0
  2 19  1  0
  3 20  1  0
  5 21  1  0
 12 22  1  0
 12 23  1  0
 12 24  1  0
 14 25  1  0
 17 26  1  0
 17 27  1  0
M  END
>  <mol_id>  (41) 
2026-09-18-6fnk-s0-n100-r2-0041

>  <rmsd_to_ref>  (41) 
2.2908163265318886

>  <pose_kind>  (41) 
rigid

$$$$
6fnk.A
     RDKit          3D

 27 29  0  0  0  0  0  0  0  0999 V2000
    1.4201   14.8304   42.1861 C   0  0  0  0  0  0  0  0  0  0  0  0
    2.0934   13.7266   41.6653 C   0  0  0  0  0  0  0  0  0  0  0  0
    3.3766   13.4158   42.0572 C   0  0  0  0  0  0  0  0  0  0  0  0
    4.0069   14.1865   42.9629 N   0  0  0  0  0  0  0  0  0  0  0  0
    3.3839   15.2698   43.4927 C   0  0  0  0  0  0  0  0  0  0  0  0
    2.0984   15.6015   43.1158 C   0  0  0  0  0  0  0  0  0  0  0  0
    1.4606   16.7753   43.7082 C   0  0  0  0  0  0  0  0  0  0  0  0
    2.1211   17.5118   44.6023 N   0  0  0  0  0  0  0  0  0  0  0  0
    0.2005   17.1026   43.3404 N   0  0  0  0  0  0  0  0  0  0  0  0
   -0.4157   18.1907   43.8772 C   0  0  0  0  0  0  0  0  0  0  0  0
   -1.6302   18.7279   43.6940 N   0  0  0  0  0  0  0  0  0  0  0  0
   -2.6556   18.2086   42.7878 C   0  0  0  0  0  0  0  0  0  0  0  0
   -1.7665   19.8024   44.4567 N   0  0  0  0  0  0  0  0  0  0  0  0
   -0.6208   19.9674   45.1485 C   0  0  0  0  0  0  0  0  0  0  0  0
    0.2591   18.9620   44.8053 C   0  0  0  0  0  0  0  0  0  0  0  0
    1.5467   18.6053   45.1640 C   0  0  0  0  0  0  0  0  0  0  0  0
    2.2193   19.4114   46.1179 N   0  0  0  0  0  0  0  0  0  0  0  0
    0.4096   15.0864   41.8862 H   0  0  0  0  0  0  0  0  0  0  0  0
    1.5840   13.0946   40.9263 H   0  0  0  0  0  0  0  0  0  0  0  0
    3.9311   12.5699   41.6770 H   0  0  0  0  0  0  0  0  0  0  0  0
    3.9537   15.8505   44.2218 H   0  0  0  0  0  0  0  0  0  0  0  0
   -2.1645   17.7674   41.8815 H   0  0  0  0  0  0  0  0  0  0  0  0
   -3.2577   17.4111   43.2782 H   0  0  0  0  0  0  0  0  0  0  0  0
   -3.3278   19.0272   42.4574 H   0  0  0  0  0  0  0  0  0  0  0  0
   -0.4017   20.7640   45.8716 H   0  0  0  0  0  0  0  0  0  0  0  0
    2.4632   20.4142   45.8758 H   0  0  0  0  0  0  0  0  0  0  0  0
    2.4902   19.0795   47.0456 H   0  0  0  0  0  0  0  0  0  0  0  0
  1  2  2  0
  1  6  1  0
  2  3  1  0
  3  4  2  0
  4  5  1  0
  5  6  2  0
  6  7  1  0
  7  8  2  0
  7  9  1  0
  8 16  1  0
  9 10  2  0
 10 11  1  0
 10 15  1  0
 11 12  1  0
 11 13  1  0
 13 14  2  0
 14 15  1  0
 15 16  2  0
 16 17  1  0
  1 18  1  0
  2 19  1  0
  3 20  1  0
  5 21  1  0
 12 22  1  0
 12 23  1  0
 12 24  1  0
 14 25  1  0
 17 26  1  0
 17 27  1  0
M  END
>  <mol_id>  (42) 
2026-09-18-6fnk-s0-n100-r2-0042

>  <rmsd_to_ref>  (42) 
2.3367346938805813

>  <pose_kind>  (42) 
conformer

$$$$
6fnk.A
     RDKit          3D

 27 29  0  0  0  0  0  0  0  0999 V2000
    3.2957   15.2616   41.2183 C   0  0  0  0  0  0  0  0  0  0  0  0
    3.5296   14.4354   40.1190 C   0  0  0  0  0  0  0  0  0  0  0  0
    2.4697   13.7889   39.5002 C   0  0  0  0  0  0  0  0  0  0  0  0
    1.1682   13.9691   39.9767 N   0  0  0  0  0  0  0  0  0  0  0  0
    0.9361   14.7995   41.0837 C   0  0  0  0  0  0  0  0  0  0  0  0
    2.0004   15.4480   41.7073 C   0  0  0  0  0  0  0  0  0  0  0  0
    1.7663   16.2732   42.8120 C   0  0  0  0  0  0  0  0  0  0  0  0
    2.7824   16.7656   43.5338 N   0  0  0  0  0  0  0  0  0  0  0  0
    0.5126   16.5854   43.1553 N   0  0  0  0  0  0  0  0  0  0  0  0
    0.2476   17.3687   44.2160 C   0  0  0  0  0  0  0  0  0  0  0  0
   -0.9052   17.7971   44.7525 N   0  0  0  0  0  0  0  0  0  0  0  0
   -2.2511   17.4884   44.2603 C   0  0  0  0  0  0  0  0  0  0  0  0
   -0.6875   18.5102   45.7328 N   0  0  0  0  0  0  0  0  0  0  0  0
    0.6450   18.6111   45.8688 C   0  0  0  0  0  0  0  0  0  0  0  0
    1.2500   17.8712   44.9299 C   0  0  0  0  0  0  0  0  0  0  0  0
    2.5315   17.5678   44.5849 C   0  0  0  0  0  0  0  0  0  0  0  0
    3.5773   18.0597   45.2926 N   0  0  0  0  0  0  0  0  0  0  0  0
    4.1399   15.7716   41.7053 H   0  0  0  0  0  0  0  0  0  0  0  0
    4.5540   14.2967   39.7429 H   0  0  0  0  0  0  0  0  0  0  0  0
    2.6534   13.1349   38.6350 H   0  0  0  0  0  0  0  0  0  0  0  0
   -0.0880   14.9389   41.4600 H   0  0  0  0  0  0  0  0  0  0  0  0
   -2.8643   17.1017   45.0876 H   0  0  0  0  0  0  0  0  0  0  0  0
   -2.7128   18.4021   43.8577 H   0  0  0  0  0  0  0  0  0  0  0  0
   -2.1862   16.7299   43.4663 H   0  0  0  0  0  0  0  0  0  0  0  0
    1.1607   19.2097   46.6341 H   0  0  0  0  0  0  0  0  0  0  0  0
    3.4082   18.6755   46.1007 H   0  0  0  0  0  0  0  0  0  0  0  0
    4.5414   17.8177   45.0224 H   0  0  0  0  0  0  0  0  0  0  0  0
  1  2  2  0
  1  6  1  0
  2  3  1  0
  3  4  2  0
  4  5  1  0
  5  6  2  0
  6  7  1  0
  7  8  2  0
  7  9  1  0
  8 16  1  0
  9 10  2  0
 10 11  1  0
 10 15  1  0
 11 12  1  0
 11 13  1  0
 13 14  2  0
 14 15  1  0
 15 16  2  0
 16 17  1  0
  1 18  1  0
  2 19  1  0
  3 20  1  0
  5 21  1  0
 12 22  1  0
 12 23  1  0
 12 24  1  0
 14 25  1  0
 17 26  1  0
 17 27  1  0
M  END
>  <mol_id>  (43) 
2026-09-18-6fnk-s0-n100-r2-0043

>  <rmsd_to_ref>  (43) 
2.3826530612282775

>  <pose_kind>  (43) 
rigid

$$$$
6fnk.A
     RDKit          3D

 27 29  0  0  0  0  0  0  0  0999 V2000
    1.8880   14.3410   41.8782 C   0  0  0  0  0  0  0  0  0  0  0  0
    1.7171   13.0364   42.3324 C   0  0  0  0  0  0  0  0  0  0  0  0
    0.8827   12.8097   43.4062 C   0  0  0  0  0  0  0  0  0  0  0  0
    0.2416   13.8365   44.0076 N   0  0  0  0  0  0  0  0  0  0  0  0
    0.3984   15.1023   43.5781 C   0  0  0  0  0  0  0  0  0  0  0  0
    1.2271   15.3936   42.4994 C   0  0  0  0  0  0  0  0  0  0  0  0
    1.4149   16.7593   42.0129 C   0  0  0  0  0  0  0  0  0  0  0  0
    2.2114   17.0614   40.9720 N   0  0  0  0  0  0  0  0  0  0  0  0
    0.7441   17.7460   42.6585 N   0  0  0  0  0  0  0  0  0  0  0  0
    0.8511   19.0178   42.2895 C   0  0  0  0  0  0  0  0  0  0  0  0
    0.2704   20.1438   42.7978 N   0  0  0  0  0  0  0  0  0  0  0  0
   -0.6510   20.2292   43.9210 C   0  0  0  0  0  0  0  0  0  0  0  0
    0.7090   21.1471   42.0687 N   0  0  0  0  0  0  0  0  0  0  0  0
    1.5524   20.7405   41.1016 C   0  0  0  0  0  0  0  0  0  0  0  0
    1.6554   19.3705   41.2294 C   0  0  0  0  0  0  0  0  0  0  0  0
    2.3344   18.3602   40.5781 C   0  0  0  0  0  0  0  0  0  0  0  0
    3.1751   18.6874   39.4777 N   0  0  0  0  0  0  0  0  0  0  0  0
    2.5553   14.5054   41.0226 H   0  0  0  0  0  0  0  0  0  0  0  0
    2.2122   12.1938   41.8773 H   0  0  0  0  0  0  0  0  0  0  0  0
    0.7605   11.7730   43.7504 H   0  0  0  0  0  0  0  0  0  0  0  0
   -0.1344   15.9159   44.0854 H   0  0  0  0  0  0  0  0  0  0  0  0
   -0.6229   19.2391   44.4351 H   0  0  0  0  0  0  0  0  0  0  0  0
   -1.6857   20.4709   43.6012 H   0  0  0  0  0  0  0  0  0  0  0  0
   -0.3370   21.0554   44.6174 H   0  0  0  0  0  0  0  0  0  0  0  0
    2.0715   21.3307   40.3499 H   0  0  0  0  0  0  0  0  0  0  0  0
    2.7800   18.7669   38.5035 H   0  0  0  0  0  0  0  0  0  0  0  0
    4.1744   18.8494   39.6214 H   0  0  0  0  0  0  0  0  0  0  0  0
  1  2  2  0
  1  6  1  0
  2  3  1  0
  3  4  2  0
  4  5  1  0
  5  6  2  0
  6  7  1  0
  7  8  2  0
  7  9  1  0
  8 16  1  0
  9 10  2  0
 10 11  1  0
 10 15  1  0
 11 12  1  0
 11 13  1  0
 13 14  2  0
 14 15  1  0
 15 16  2  0
 16 17  1  0
  1 18  1  0
  2 19  1  0
  3 20  1  0
  5 21  1  0
 12 22  1  0
 12 23  1  0
 12 24  1  0
 14 25  1  0
 17 26  1  0
 17 27  1  0
M  END
>  <mol_id>  (44) 
2026-09-18-6fnk-s0-n100-r2-0044

>  <rmsd_to_ref>  (44) 
2.4285714285773903

>  <pose_kind>  (44) 
conformer

$$$$
6fnk.A
     RDKit          3D

 27 29  0  0  0  0  0  0  0  0999 V2000
    2.9263   15.8707   43.3089 C   0  0  0  0  0  0  0  0  0  0  0  0
    3.0997   14.6401   43.9426 C   0  0  0  0  0  0  0  0  0  0  0  0
    2.2936   14.2948   45.0175 C   0  0  0  0  0  0  0  0  0  0  0  0
    1.3063   15.1786   45.4618 N   0  0  0  0  0  0  0  0  0  0  0  0
    1.1353   16.4164   44.8234 C   0  0  0  0  0  0  0  0  0  0  0  0
    1.9458   16.7652   43.7447 C   0  0  0  0  0  0  0  0  0  0  0  0
    1.7745   18.0007   43.1119 C   0  0  0  0  0  0  0  0  0  0  0  0
    2.6487   18.4326   42.1925 N   0  0  0  0  0  0  0  0  0  0  0  0
    0.7217   18.7651   43.4188 N   0  0  0  0  0  0  0  0  0  0  0  0
    0.5281   19.9626   42.8380 C   0  0  0  0  0  0  0  0  0  0  0  0
   -0.4251   20.8940   42.9928 N   0  0  0  0  0  0  0  0  0  0  0  0
   -1.5723   20.8094   43.9015 C   0  0  0  0  0  0  0  0  0  0  0  0
   -0.2173   21.8535   42.2489 N   0  0  0  0  0  0  0  0  0  0  0  0
    0.8859   21.5768   41.5344 C   0  0  0  0  0  0  0  0  0  0  0  0
    1.3837   20.3930   41.9161 C   0  0  0  0  0  0  0  0  0  0  0  0
    2.4551   19.6196   41.5885 C   0  0  0  0  0  0  0  0  0  0  0  0
    3.3490   20.0289   40.6558 N   0  0  0  0  0  0  0  0  0  0  0  0
    3.5685   16.1396   42.4572 H   0  0  0  0  0  0  0  0  0  0  0  0
    3.8751   13.9440   43.5901 H   0  0  0  0  0  0  0  0  0  0  0  0
    2.4314   13.3259   45.5198 H   0  0  0  0  0  0  0  0  0  0  0  0
    0.3599   17.1128   45.1751 H   0  0  0  0  0  0  0  0  0  0  0  0
   -1.6177   21.7177   44.5203 H   0  0  0  0  0  0  0  0  0  0  0  0
   -2.4986   20.7185   43.3151 H   0  0  0  0  0  0  0  0  0  0  0  0
   -1.4615   19.9284   44.5508 H   0  0  0  0  0  0  0  0  0  0  0  0
    1.3151   22.2235   40.7549 H   0  0  0  0  0  0  0  0  0  0  0  0
    3.2201   20.9339   40.1811 H   0  0  0  0  0  0  0  0  0  0  0  0
    4.1572   19.4350   40.4215 H   0  0  0  0  0  0  0  0  0  0  0  0
  1  2  2  0
  1  6  1  0
  2  3  1  0
  3  4  2  0
  4  5  1  0
  5  6  2  0
  6  7  1  0
  7  8  2  0
  7  9  1  0
  8 16  1  0
  9 10  2  0
 10 11  1  0
 10 15  1  0
 11 12  1  0
 11 13  1  0
 13 14  2  0
 14 15  1  0
 15 16  2  0
 16 17  1  0
  1 18  1  0
  2 19  1  0
  3 20  1  0
  5 21  1  0
 12 22  1  0
 12 23  1  0
 12 24  1  0
 14 25  1  0
 17 26  1  0
 17 27  1  0
M  END
>  <mol_id>  (45) 
2026-09-18-6fnk-s0-n100-r2-0045

>  <rmsd_to_ref>  (45) 
2.4744897959207743

>  <pose_kind>  (45) 
rigid

$$$$
6fnk.A
     RDKit          3D

 27 29  0  0  0  0  0  0  0  0999 V2000
    4.2828   17.6575   41.7034 C   0  0  0  0  0  0  0  0  0  0  0  0
    5.5272   17.2123   41.3097 C   0  0  0  0  0  0  0  0  0  0  0  0
    5.8918   15.9205   41.6232 C   0  0  0  0  0  0  0  0  0  0  0  0
    5.0877   15.0760   42.2957 N   0  0  0  0  0  0  0  0  0  0  0  0
    3.8784   15.4983   42.6822 C   0  0  0  0  0  0  0  0  0  0  0  0
    3.4492   16.7909   42.3974 C   0  0  0  0  0  0  0  0  0  0  0  0
    2.1288   17.2443   42.8222 C   0  0  0  0  0  0  0  0  0  0  0  0
    1.6602   18.4820   42.5754 N   0  0  0  0  0  0  0  0  0  0  0  0
    1.3299   16.3950   43.4942 N   0  0  0  0  0  0  0  0  0  0  0  0
    0.1001   16.7248   43.9241 C   0  0  0  0  0  0  0  0  0  0  0  0
   -0.8938   16.1135   44.5957 N   0  0  0  0  0  0  0  0  0  0  0  0
   -0.8055   14.7335   45.0657 C   0  0  0  0  0  0  0  0  0  0  0  0
   -1.8953   16.9470   44.7371 N   0  0  0  0  0  0  0  0  0  0  0  0
   -1.6292   18.1437   44.1758 C   0  0  0  0  0  0  0  0  0  0  0  0
   -0.3562   18.0163   43.6518 C   0  0  0  0  0  0  0  0  0  0  0  0
    0.4512   18.9008   42.9630 C   0  0  0  0  0  0  0  0  0  0  0  0
    0.0086   20.2310   42.6704 N   0  0  0  0  0  0  0  0  0  0  0  0
    3.9911   18.6697   41.4604 H   0  0  0  0  0  0  0  0  0  0  0  0
    6.1587   17.9011   40.7721 H   0  0  0  0  0  0  0  0  0  0  0  0
    6.8697   15.5600   41.3177 H   0  0  0  0  0  0  0  0  0  0  0  0
    3.2445   14.7918   43.2275 H   0  0  0  0  0  0  0  0  0  0  0  0
   -1.8026   14.2211   45.0436 H   0  0  0  0  0  0  0  0  0  0  0  0
   -0.1330   14.1302   44.4166 H   0  0  0  0  0  0  0  0  0  0  0  0
   -0.4183   14.6331   46.0802 H   0  0  0  0  0  0  0  0  0  0  0  0
   -2.2593   19.0301   44.1311 H   0  0  0  0  0  0  0  0  0  0  0  0
    0.6032   21.0606   42.7961 H   0  0  0  0  0  0  0  0  0  0  0  0
   -0.9682   20.4176   42.3054 H   0  0  0  0  0  0  0  0  0  0  0  0
  1  2  2  0
  1  6  1  0
  2  3  1  0
  3  4  2  0
  4  5  1  0
  5  6  2  0
  6  7  1  0
  7  8  2  0
  7  9  1  0
  8 16  1  0
  9 10  2  0
 10 11  1  0
 10 15  1  0
 11 12  1  0
 11 13  1  0
 13 14  2  0
 14 15  1  0
 15 16  2  0
 16 17  1  0
  1 18  1  0
  2 19  1  0
  3 20  1  0
  5 21  1  0
 12 22  1  0
 12 23  1  0
 12 24  1  0
 14 25  1  0
 17 26  1  0
 17 27  1  0
M  END
>  <mol_id>  (46) 
2026-09-18-6fnk-s0-n100-r2-0046

>  <rmsd_to_ref>  (46) 
2.520408163266991

>  <pose_kind>  (46) 
conformer

$$$$
6fnk.A
     RDKit          3D

 27 29  0  0  0  0  0  0  0  0999 V2000
    3.2231   14.4220   42.2969 C   0  0  0  0  0  0  0  0  0  0  0  0
    3.6608   13.1214   42.0468 C   0  0  0  0  0  0  0  0  0  0  0  0
    2.8266   12.2224   41.3983 C   0  0  0  0  0  0  0  0  0  0  0  0
    1.5502   12.6221   40.9930 N   0  0  0  0  0  0  0  0  0  0  0  0
    1.1121   13.9306   41.2474 C   0  0  0  0  0  0  0  0  0  0  0  0
    1.9485   14.8341   41.9005 C   0  0  0  0  0  0  0  0  0  0  0  0
    1.5082   16.1370   42.1547 C   0  0  0  0  0  0  0  0  0  0  0  0
    2.2187   16.9669   42.9308 N   0  0  0  0  0  0  0  0  0  0  0  0
    0.3652   16.5704   41.6136 N   0  0  0  0  0  0  0  0  0  0  0  0
   -0.0948   17.8134   41.8421 C   0  0  0  0  0  0  0  0  0  0  0  0
   -1.1998   18.4536   41.4305 N   0  0  0  0  0  0  0  0  0  0  0  0
   -2.2417   17.9005   40.5603 C   0  0  0  0  0  0  0  0  0  0  0  0
   -1.2278   19.6004   41.8792 N   0  0  0  0  0  0  0  0  0  0  0  0
   -0.1048   19.7801   42.5939 C   0  0  0  0  0  0  0  0  0  0  0  0
    0.6100   18.6470   42.6006 C   0  0  0  0  0  0  0  0  0  0  0  0
    1.7801   18.2202   43.1502 C   0  0  0  0  0  0  0  0  0  0  0  0
    2.5222   19.0422   43.9314 N   0  0  0  0  0  0  0  0  0  0  0  0
    3.8885   15.1307   42.8117 H   0  0  0  0  0  0  0  0  0  0  0  0
    4.6667   12.8087   42.3635 H   0  0  0  0  0  0  0  0  0  0  0  0
    3.1696   11.1956   41.2032 H   0  0  0  0  0  0  0  0  0  0  0  0
    0.1064   14.2440   40.9307 H   0  0  0  0  0  0  0  0  0  0  0  0
   -3.2259   18.0428   41.0305 H   0  0  0  0  0  0  0  0  0  0  0  0
   -2.2211   18.4172   39.5894 H   0  0  0  0  0  0  0  0  0  0  0  0
   -2.0601   16.8263   40.4078 H   0  0  0  0  0  0  0  0  0  0  0  0
    0.1838   20.7148   43.0968 H   0  0  0  0  0  0  0  0  0  0  0  0
    2.2053   20.0053   44.1124 H   0  0  0  0  0  0  0  0  0  0  0  0
    3.4032   18.7037   44.3440 H   0  0  0  0  0  0  0  0  0  0  0  0
  1  2  2  0
  1  6  1  0
  2  3  1  0
  3  4  2  0
  4  5  1  0
  5  6  2  0
  6  7  1  0
  7  8  2  0
  7  9  1  0
  8 16  1  0
  9 10  2  0
 10 11  1  0
 10 15  1  0
 11 12  1  0
 11 13  1  0
 13 14  2  0
 14 15  1  0
 15 16  2  0
 16 17  1  0
  1 18  1  0
  2 19  1  0
  3 20  1  0
  5 21  1  0
 12 22  1  0
 12 23  1  0
 12 24  1  0
 14 25  1  0
 17 26  1  0
 17 27  1  0
M  END
>  <mol_id>  (47) 
2026-09-18-6fnk-s0-n100-r2-0047

>  <rmsd_to_ref>  (47) 
2.5663265306129337

>  <pose_kind>  (47) 
rigid

$$$$
6fnk.A
     RDKit          3D

 27 29  0  0  0  0  0  0  0  0999 V2000
    4.3682   16.1689   44.6163 C   0  0  0  0  0  0  0  0  0  0  0  0
    5.2726   15.1506   44.8848 C   0  0  0  0  0  0  0  0  0  0  0  0
    5.5564   14.2130   43.9072 C   0  0  0  0  0  0  0  0  0  0  0  0
    4.9870   14.2401   42.6834 N   0  0  0  0  0  0  0  0  0  0  0  0
    4.1017   15.2375   42.4218 C   0  0  0  0  0  0  0  0  0  0  0  0
    3.7902   16.1923   43.3670 C   0  0  0  0  0  0  0  0  0  0  0  0
    2.8198   17.2473   43.0144 C   0  0  0  0  0  0  0  0  0  0  0  0
    2.3007   17.1963   41.7687 N   0  0  0  0  0  0  0  0  0  0  0  0
    2.4700   18.1973   43.8659 N   0  0  0  0  0  0  0  0  0  0  0  0
    1.5770   19.1588   43.5252 C   0  0  0  0  0  0  0  0  0  0  0  0
    1.0222   20.2174   44.1061 N   0  0  0  0  0  0  0  0  0  0  0  0
    1.3057   20.6440   45.4714 C   0  0  0  0  0  0  0  0  0  0  0  0
    0.1811   20.8339   43.2887 N   0  0  0  0  0  0  0  0  0  0  0  0
    0.1731   20.1554   42.1051 C   0  0  0  0  0  0  0  0  0  0  0  0
    1.0466   19.1009   42.2424 C   0  0  0  0  0  0  0  0  0  0  0  0
    1.4064   18.1153   41.3523 C   0  0  0  0  0  0  0  0  0  0  0  0
    0.8839   18.0257   40.0326 N   0  0  0  0  0  0  0  0  0  0  0  0
    4.1436   16.9026   45.3757 H   0  0  0  0  0  0  0  0  0  0  0  0
    5.7466   15.0998   45.8550 H   0  0  0  0  0  0  0  0  0  0  0  0
    6.2647   13.4011   44.0927 H   0  0  0  0  0  0  0  0  0  0  0  0
    3.6602   15.2297   41.4235 H   0  0  0  0  0  0  0  0  0  0  0  0
    0.8815   21.6369   45.6996 H   0  0  0  0  0  0  0  0  0  0  0  0
    2.3919   20.6012   45.7109 H   0  0  0  0  0  0  0  0  0  0  0  0
    0.8317   19.9389   46.2121 H   0  0  0  0  0  0  0  0  0  0  0  0
   -0.4108   20.3941   41.2126 H   0  0  0  0  0  0  0  0  0  0  0  0
    0.5175   17.1441   39.6103 H   0  0  0  0  0  0  0  0  0  0  0  0
    0.8855   18.9305   39.4813 H   0  0  0  0  0  0  0  0  0  0  0  0
  1  2  2  0
  1  6  1  0
  2  3  1  0
  3  4  2  0
  4  5  1  0
  5  6  2  0
  6  7  1  0
  7  8  2  0
  7  9  1  0
  8 16  1  0
  9 10  2  0
 10 11  1  0
 10 15  1  0
 11 12  1  0
 11 13  1  0
 13 14  2  0
 14 15  1  0
 15 16  2  0
 16 17  1  0
  1 18  1  0
  2 19  1  0
  3 20  1  0
  5 21  1  0
 12 22  1  0
 12 23  1  0
 12 24  1  0
 14 25  1  0
 17 26  1  0
 17 27  1  0
M  END
>  <mol_id>  (48) 
2026-09-18-6fnk-s0-n100-r2-0048

>  <rmsd_to_ref>  (48) 
2.6122448979636963

>  <pose_kind>  (48) 
conformer

$$$$
6fnk.A
     RDKit          3D

 27 29  0  0  0  0  0  0  0  0999 V2000
   -0.1493   15.5567   40.8421 C   0  0  0  0  0  0  0  0  0  0  0  0
   -0.9210   14.4814   40.4015 C   0  0  0  0  0  0  0  0  0  0  0  0
   -1.7895   13.8470   41.2777 C   0  0  0  0  0  0  0  0  0  0  0  0
   -1.8930   14.2884   42.5997 N   0  0  0  0  0  0  0  0  0  0  0  0
   -1.1143   15.3693   43.0404 C   0  0  0  0  0  0  0  0  0  0  0  0
   -0.2401   16.0062   42.1616 C   0  0  0  0  0  0  0  0  0  0  0  0
    0.5366   17.0818   42.6044 C   0  0  0  0  0  0  0  0  0  0  0  0
    1.5065   17.5958   41.8356 N   0  0  0  0  0  0  0  0  0  0  0  0
    0.3095   17.6148   43.8092 N   0  0  0  0  0  0  0  0  0  0  0  0
    1.0411   18.6437   44.2728 C   0  0  0  0  0  0  0  0  0  0  0  0
    1.0096   19.3202   45.4310 N   0  0  0  0  0  0  0  0  0  0  0  0
    0.0898   19.0761   46.5461 C   0  0  0  0  0  0  0  0  0  0  0  0
    1.8675   20.2040   45.4393 N   0  0  0  0  0  0  0  0  0  0  0  0
    2.4927   20.1686   44.2511 C   0  0  0  0  0  0  0  0  0  0  0  0
    1.9969   19.1675   43.5117 C   0  0  0  0  0  0  0  0  0  0  0  0
    2.2318   18.6391   42.2792 C   0  0  0  0  0  0  0  0  0  0  0  0
    3.2005   19.1459   41.4784 N   0  0  0  0  0  0  0  0  0  0  0  0
    0.5379   16.0559   40.1431 H   0  0  0  0  0  0  0  0  0  0  0  0
   -0.8410   14.1367   39.3600 H   0  0  0  0  0  0  0  0  0  0  0  0
   -2.3964   12.9971   40.9322 H   0  0  0  0  0  0  0  0  0  0  0  0
   -1.1940   15.7147   44.0817 H   0  0  0  0  0  0  0  0  0  0  0  0
    0.6643   18.9643   47.4775 H   0  0  0  0  0  0  0  0  0  0  0  0
   -0.6032   19.9248   46.6424 H   0  0  0  0  0  0  0  0  0  0  0  0
   -0.4818   18.1558   46.3552 H   0  0  0  0  0  0  0  0  0  0  0  0
    3.2901   20.8566   43.9336 H   0  0  0  0  0  0  0  0  0  0  0  0
    3.7675   19.9442   41.7979 H   0  0  0  0  0  0  0  0  0  0  0  0
    3.3698   18.7327   40.5502 H   0  0  0  0  0  0  0  0  0  0  0  0
  1  2  2  0
  1  6  1  0
  2  3  1  0
  3  4  2  0
  4  5  1  0
  5  6  2  0
  6  7  1  0
  7  8  2  0
  7  9  1  0
  8 16  1  0
  9 10  2  0
 10 11  1  0
 10 15  1  0
 11 12  1  0
 11 13  1  0
 13 14  2  0
 14 15  1  0
 15 16  2  0
 16 17  1  0
  1 18  1  0
  2 19  1  0
  3 20  1  0
  5 21  1  0
 12 22  1  0
 12 23  1  0
 12 24  1  0
 14 25  1  0
 17 26  1  0
 17 27  1  0
M  END
>  <mol_id>  (49) 
2026-09-18-6fnk-s0-n100-r2-0049

>  <rmsd_to_ref>  (49) 
2.6581632653089113

>  <pose_kind>  (49) 
rigid

$$$$
6fnk.A
     RDKit          3D

 27 29  0  0  0  0  0  0  0  0999 V2000
    1.6248   17.5554   39.5718 C   0  0  0  0  0  0  0  0  0  0  0  0
    1.0007   16.7395   38.6459 C   0  0  0  0  0  0  0  0  0  0  0  0
    0.1311   15.7734   39.1458 C   0  0  0  0  0  0  0  0  0  0  0  0
   -0.1041   15.6246   40.4607 N   0  0  0  0  0  0  0  0  0  0  0  0
    0.5130   16.4283   41.3455 C   0  0  0  0  0  0  0  0  0  0  0  0
    1.3948   17.4170   40.9327 C   0  0  0  0  0  0  0  0  0  0  0  0
    2.0574   18.2804   41.8862 C   0  0  0  0  0  0  0  0  0  0  0  0
    2.9166   19.2491   41.5408 N   0  0  0  0  0  0  0  0  0  0  0  0
    1.8099   18.1170   43.1986 N   0  0  0  0  0  0  0  0  0  0  0  0
    2.3478   18.8374   44.1770 C   0  0  0  0  0  0  0  0  0  0  0  0
    2.2381   18.8370   45.5148 N   0  0  0  0  0  0  0  0  0  0  0  0
    1.4095   17.9466   46.3062 C   0  0  0  0  0  0  0  0  0  0  0  0
    3.0081   19.7818   46.0085 N   0  0  0  0  0  0  0  0  0  0  0  0
    3.6546   20.4400   45.0069 C   0  0  0  0  0  0  0  0  0  0  0  0
    3.2329   19.8362   43.8306 C   0  0  0  0  0  0  0  0  0  0  0  0
    3.5063   20.0266   42.4852 C   0  0  0  0  0  0  0  0  0  0  0  0
    4.4187   21.0591   42.1589 N   0  0  0  0  0  0  0  0  0  0  0  0
    2.2985   18.3029   39.1748 H   0  0  0  0  0  0  0  0  0  0  0  0
    1.1663   16.8304   37.5739 H   0  0  0  0  0  0  0  0  0  0  0  0
   -0.3647   15.1256   38.4139 H   0  0  0  0  0  0  0  0  0  0  0  0
    0.3152   16.2992   42.4096 H   0  0  0  0  0  0  0  0  0  0  0  0
    0.4712   17.7852   45.7049 H   0  0  0  0  0  0  0  0  0  0  0  0
    1.9441   16.9731   46.3622 H   0  0  0  0  0  0  0  0  0  0  0  0
    1.1732   18.3578   47.2965 H   0  0  0  0  0  0  0  0  0  0  0  0
    4.3484   21.2565   45.0880 H   0  0  0  0  0  0  0  0  0  0  0  0
    5.3168   21.2057   42.7057 H   0  0  0  0  0  0  0  0  0  0  0  0
    4.1766   21.6794   41.3531 H   0  0  0  0  0  0  0  0  0  0  0  0
  1  2  2  0
  1  6  1  0
  2  3  1  0
  3  4  2  0
  4  5  1  0
  5  6  2  0
  6  7  1  0
  7  8  2  0
  7  9  1  0
  8 16  1  0
  9 10  2  0
 10 11  1  0
 10 15  1  0
 11 12  1  0
 11 13  1  0
 13 14  2  0
 14 15  1  0
 15 16  2  0
 16 17  1  0
  1 18  1  0
  2 19  1  0
  3 20  1  0
  5 21  1  0
 12 22  1  0
 12 23  1  0
 12 24  1  0
 14 25  1  0
 17 26  1  0
 17 27  1  0
M  END
>  <mol_id>  (50) 
2026-09-18-6fnk-s0-n100-r2-0050

>  <rmsd_to_ref>  (50) 
2.7040816326587547

>  <pose_kind>  (50) 
conformer

$$$$
6fnk.A
     RDKit          3D

 27 29  0  0  0  0  0  0  0  0999 V2000
    4.9477   17.8805   42.7364 C   0  0  0  0  0  0  0  0  0  0  0  0
    6.2583   17.4356   42.9104 C   0  0  0  0  0  0  0  0  0  0  0  0
    6.5238   16.3842   43.7755 C   0  0  0  0  0  0  0  0  0  0  0  0
    5.4775   15.7696   44.4688 N   0  0  0  0  0  0  0  0  0  0  0  0
    4.1604   16.2203   44.2929 C   0  0  0  0  0  0  0  0  0  0  0  0
    3.8926   17.2777   43.4255 C   0  0  0  0  0  0  0  0  0  0  0  0
    2.5791   17.7264   43.2541 C   0  0  0  0  0  0  0  0  0  0  0  0
    2.3161   18.8464   42.5667 N   0  0  0  0  0  0  0  0  0  0  0  0
    1.5646   17.0292   43.7754 N   0  0  0  0  0  0  0  0  0  0  0  0
    0.2891   17.4335   43.6389 C   0  0  0  0  0  0  0  0  0  0  0  0
   -0.8697   16.9192   44.0781 N   0  0  0  0  0  0  0  0  0  0  0  0
   -1.0235   15.6936   44.8675 C   0  0  0  0  0  0  0  0  0  0  0  0
   -1.8175   17.6187   43.7182 N   0  0  0  0  0  0  0  0  0  0  0  0
   -1.3176   18.6268   42.9848 C   0  0  0  0  0  0  0  0  0  0  0  0
    0.0186   18.5367   42.9481 C   0  0  0  0  0  0  0  0  0  0  0  0
    1.0426   19.2506   42.4049 C   0  0  0  0  0  0  0  0  0  0  0  0
    0.8035   20.3816   41.6977 N   0  0  0  0  0  0  0  0  0  0  0  0
    4.7429   18.7148   42.0493 H   0  0  0  0  0  0  0  0  0  0  0  0
    7.0807   17.9181   42.3619 H   0  0  0  0  0  0  0  0  0  0  0  0
    7.5573   16.0344   43.9157 H   0  0  0  0  0  0  0  0  0  0  0  0
    3.3375   15.7381   44.8409 H   0  0  0  0  0  0  0  0  0  0  0  0
   -1.6295   15.9063   45.7606 H   0  0  0  0  0  0  0  0  0  0  0  0
   -1.5240   14.9259   44.2591 H   0  0  0  0  0  0  0  0  0  0  0  0
   -0.0324   15.3289   45.1753 H   0  0  0  0  0  0  0  0  0  0  0  0
   -1.9142   19.4072   42.4897 H   0  0  0  0  0  0  0  0  0  0  0  0
   -0.1635   20.7091   41.5616 H   0  0  0  0  0  0  0  0  0  0  0  0
    1.5888   20.9137   41.2964 H   0  0  0  0  0  0  0  0  0  0  0  0
  1  2  2  0
  1  6  1  0
  2  3  1  0
  3  4  2  0
  4  5  1  0
  5  6  2  0
  6  7  1  0
  7  8  2  0
  7  9  1  0
  8 16  1  0
  9 10  2  0
 10 11  1  0
 10 15  1  0
 11 12  1  0
 11 13  1  0
 13 14  2  0
 14 15  1  0
 15 16  2  0
 16 17  1  0
  1 18  1  0
  2 19  1  0
  3 20  1  0
  5 21  1  0
 12 22  1  0
 12 23  1  0
 12 24  1  0
 14 25  1  0
 17 26  1  0
 17 27  1  0
M  END
>  <mol_id>  (51) 
2026-09-18-6fnk-s0-n100-r2-0051

>  <rmsd_to_ref>  (51) 
2.7500000000042446

>  <pose_kind>  (51) 
rigid

$$$$
6fnk.A
     RDKit          3D

 27 29  0  0  0  0  0  0  0  0999 V2000
    0.9301   14.9340   40.6140 C   0  0  0  0  0  0  0  0  0  0  0  0
    0.3199   14.0764   39.6945 C   0  0  0  0  0  0  0  0  0  0  0  0
   -1.0617   13.8697   39.7601 C   0  0  0  0  0  0  0  0  0  0  0  0
   -1.7662   14.5023   40.7070 N   0  0  0  0  0  0  0  0  0  0  0  0
   -1.2114   15.3345   41.6081 C   0  0  0  0  0  0  0  0  0  0  0  0
    0.1559   15.5588   41.5675 C   0  0  0  0  0  0  0  0  0  0  0  0
    0.7913   16.4586   42.5334 C   0  0  0  0  0  0  0  0  0  0  0  0
    2.1288   16.6775   42.4932 N   0  0  0  0  0  0  0  0  0  0  0  0
    0.0173   17.0656   43.4648 N   0  0  0  0  0  0  0  0  0  0  0  0
    0.5458   17.9011   44.3760 C   0  0  0  0  0  0  0  0  0  0  0  0
    0.0584   18.6322   45.3944 N   0  0  0  0  0  0  0  0  0  0  0  0
   -1.3480   18.6859   45.7880 C   0  0  0  0  0  0  0  0  0  0  0  0
    1.0420   19.3018   45.9943 N   0  0  0  0  0  0  0  0  0  0  0  0
    2.2206   19.0307   45.3846 C   0  0  0  0  0  0  0  0  0  0  0  0
    1.9228   18.1424   44.3544 C   0  0  0  0  0  0  0  0  0  0  0  0
    2.7177   17.5145   43.3923 C   0  0  0  0  0  0  0  0  0  0  0  0
    4.1206   17.7556   43.3643 N   0  0  0  0  0  0  0  0  0  0  0  0
    2.0042   15.0717   40.5346 H   0  0  0  0  0  0  0  0  0  0  0  0
    0.9005   13.5679   38.9299 H   0  0  0  0  0  0  0  0  0  0  0  0
   -1.5710   13.2145   39.0676 H   0  0  0  0  0  0  0  0  0  0  0  0
   -1.8516   15.8093   42.3447 H   0  0  0  0  0  0  0  0  0  0  0  0
   -2.0253   18.8588   44.9157 H   0  0  0  0  0  0  0  0  0  0  0  0
   -1.5064   19.5158   46.4790 H   0  0  0  0  0  0  0  0  0  0  0  0
   -1.6627   17.7061   46.2196 H   0  0  0  0  0  0  0  0  0  0  0  0
    3.1840   19.4279   45.6522 H   0  0  0  0  0  0  0  0  0  0  0  0
    4.5248   18.6940   43.0765 H   0  0  0  0  0  0  0  0  0  0  0  0
    4.7425   16.9803   43.6359 H   0  0  0  0  0  0  0  0  0  0  0  0
  1  2  2  0
  1  6  1  0
  2  3  1  0
  3  4  2  0
  4  5  1  0
  5  6  2  0
  6  7  1  0
  7  8  2  0
  7  9  1  0
  8 16  1  0
  9 10  2  0
 10 11  1  0
 10 15  1  0
 11 12  1  0
 11 13  1  0
 13 14  2  0
 14 15  1  0
 15 16  2  0
 16 17  1  0
  1 18  1  0
  2 19  1  0
  3 20  1  0
  5 21  1  0
 12 22  1  0
 12 23  1  0
 12 24  1  0
 14 25  1  0
 17 26  1  0
 17 27  1  0
M  END
>  <mol_id>  (52) 
2026-09-18-6fnk-s0-n100-r2-0052

>  <rmsd_to_ref>  (52) 
2.7959183673507053

>  <pose_kind>  (52) 
conformer

$$$$
6fnk.A
     RDKit          3D

 27 29  0  0  0  0  0  0  0  0999 V2000
    4.7275   16.8503   42.1529 C   0  0  0  0  0  0  0  0  0  0  0  0
    5.8071   16.3427   41.4298 C   0  0  0  0  0  0  0  0  0  0  0  0
    5.6649   15.1682   40.7054 C   0  0  0  0  0  0  0  0  0  0  0  0
    4.4391   14.4969   40.6979 N   0  0  0  0  0  0  0  0  0  0  0  0
    3.3554   15.0090   41.4275 C   0  0  0  0  0  0  0  0  0  0  0  0
    3.4976   16.1878   42.1571 C   0  0  0  0  0  0  0  0  0  0  0  0
    2.4163   16.6946   42.8853 C   0  0  0  0  0  0  0  0  0  0  0  0
    2.5741   17.7226   43.7305 N   0  0  0  0  0  0  0  0  0  0  0  0
    1.2025   16.1547   42.7363 N   0  0  0  0  0  0  0  0  0  0  0  0
    0.1407   16.6090   43.4255 C   0  0  0  0  0  0  0  0  0  0  0  0
   -1.1445   16.2248   43.4545 N   0  0  0  0  0  0  0  0  0  0  0  0
   -1.7354   15.1353   42.6717 C   0  0  0  0  0  0  0  0  0  0  0  0
   -1.7883   16.9265   44.2357 N   0  0  0  0  0  0  0  0  0  0  0  0
   -0.9458   17.8422   44.7415 C   0  0  0  0  0  0  0  0  0  0  0  0
    0.2860   17.6363   44.2567 C   0  0  0  0  0  0  0  0  0  0  0  0
    1.5154   18.2004   44.4103 C   0  0  0  0  0  0  0  0  0  0  0  0
    1.7004   19.2465   45.2517 N   0  0  0  0  0  0  0  0  0  0  0  0
    4.8459   17.7818   42.7257 H   0  0  0  0  0  0  0  0  0  0  0  0
    6.7705   16.8735   41.4339 H   0  0  0  0  0  0  0  0  0  0  0  0
    6.5163   14.7655   40.1372 H   0  0  0  0  0  0  0  0  0  0  0  0
    2.3916   14.4789   41.4236 H   0  0  0  0  0  0  0  0  0  0  0  0
   -2.2842   14.4577   43.3424 H   0  0  0  0  0  0  0  0  0  0  0  0
   -2.4277   15.5531   41.9260 H   0  0  0  0  0  0  0  0  0  0  0  0
   -0.9377   14.5774   42.1594 H   0  0  0  0  0  0  0  0  0  0  0  0
   -1.2247   18.6394   45.4462 H   0  0  0  0  0  0  0  0  0  0  0  0
    0.9040   19.6280   45.7819 H   0  0  0  0  0  0  0  0  0  0  0  0
    2.6373   19.6601   45.3610 H   0  0  0  0  0  0  0  0  0  0  0  0
  1  2  2  0
  1  6  1  0
  2  3  1  0
  3  4  2  0
  4  5  1  0
  5  6  2  0
  6  7  1  0
  7  8  2  0
  7  9  1  0
  8 16  1  0
  9 10  2  0
 10 11  1  0
 10 15  1  0
 11 12  1  0
 11 13  1  0
 13 14  2  0
 14 15  1  0
 15 16  2  0
 16 17  1  0
  1 18  1  0
  2 19  1  0
  3 20  1  0
  5 21  1  0
 12 22  1  0
 12 23  1  0
 12 24  1  0
 14 25  1  0
 17 26  1  0
 17 27  1  0
M  END
>  <mol_id>  (53) 
2026-09-18-6fnk-s0-n100-r2-0053

>  <rmsd_to_ref>  (53) 
2.8418367346963205

>  <pose_kind>  (53) 
rigid

$$$$
6fnk.A
     RDKit          3D

 27 29  0  0  0  0  0  0  0  0999 V2000
    4.4676   17.9969   40.3519 C   0  0  0  0  0  0  0  0  0  0  0  0
    5.4445   17.6423   39.4379 C   0  0  0  0  0  0  0  0  0  0  0  0
    5.2249   16.5055   38.6707 C   0  0  0  0  0  0  0  0  0  0  0  0
    4.0905   15.8071   38.8444 N   0  0  0  0  0  0  0  0  0  0  0  0
    3.1447   16.1504   39.7292 C   0  0  0  0  0  0  0  0  0  0  0  0
    3.3075   17.2766   40.5247 C   0  0  0  0  0  0  0  0  0  0  0  0
    2.2933   17.6728   41.4960 C   0  0  0  0  0  0  0  0  0  0  0  0
    2.4394   18.7703   42.2793 N   0  0  0  0  0  0  0  0  0  0  0  0
    1.1851   16.9173   41.6070 N   0  0  0  0  0  0  0  0  0  0  0  0
    0.1977   17.2127   42.4805 C   0  0  0  0  0  0  0  0  0  0  0  0
   -0.9839   16.6509   42.7938 N   0  0  0  0  0  0  0  0  0  0  0  0
   -1.5459   15.4423   42.1900 C   0  0  0  0  0  0  0  0  0  0  0  0
   -1.5931   17.3468   43.7434 N   0  0  0  0  0  0  0  0  0  0  0  0
   -0.8173   18.4085   44.0917 C   0  0  0  0  0  0  0  0  0  0  0  0
    0.3129   18.3260   43.2964 C   0  0  0  0  0  0  0  0  0  0  0  0
    1.4564   19.0902   43.1694 C   0  0  0  0  0  0  0  0  0  0  0  0
    1.6392   20.2447   43.9746 N   0  0  0  0  0  0  0  0  0  0  0  0
    4.6508   18.8777   40.9380 H   0  0  0  0  0  0  0  0  0  0  0  0
    6.3477   18.2189   39.3161 H   0  0  0  0  0  0  0  0  0  0  0  0
    5.9661   16.2134   37.9588 H   0  0  0  0  0  0  0  0  0  0  0  0
    2.2413   15.5274   39.8141 H   0  0  0  0  0  0  0  0  0  0  0  0
   -2.3762   15.6924   41.4997 H   0  0  0  0  0  0  0  0  0  0  0  0
   -1.9271   14.7628   42.9718 H   0  0  0  0  0  0  0  0  0  0  0  0
   -0.7607   14.9423   41.5917 H   0  0  0  0  0  0  0  0  0  0  0  0
   -1.0207   19.1720   44.8334 H   0  0  0  0  0  0  0  0  0  0  0  0
    1.8685   20.2076   44.9950 H   0  0  0  0  0  0  0  0  0  0  0  0
    1.5331   21.1686   43.4959 H   0  0  0  0  0  0  0  0  0  0  0  0
  1  2  2  0
  1  6  1  0
  2  3  1  0
  3  4  2  0
  4  5  1  0
  5  6  2  0
  6  7  1  0
  7  8  2  0
  7  9  1  0
  8 16  1  0
  9 10  2  0
 10 11  1  0
 10 15  1  0
 11 12  1  0
 11 13  1  0
 13 14  2  0
 14 15  1  0
 15 16  2  0
 16 17  1  0
  1 18  1  0
  2 19  1  0
  3 20  1  0
  5 21  1  0
 12 22  1  0
 12 23  1  0
 12 24  1  0
 14 25  1  0
 17 26  1  0
 17 27  1  0
M  END
>  <mol_id>  (54) 
2026-09-18-6fnk-s0-n100-r2-0054

>  <rmsd_to_ref>  (54) 
2.8877551020466328

>  <pose_kind>  (54) 
conformer

$$$$
6fnk.A
     RDKit          3D

 27 29  0  0  0  0  0  0  0  0999 V2000
    1.0900   13.4604   42.6012 C   0  0  0  0  0  0  0  0  0  0  0  0
    1.3568   12.1427   42.9734 C   0  0  0  0  0  0  0  0  0  0  0  0
    2.3560   11.8725   43.8969 C   0  0  0  0  0  0  0  0  0  0  0  0
    3.0917   12.9210   44.4561 N   0  0  0  0  0  0  0  0  0  0  0  0
    2.8221   14.2453   44.0786 C   0  0  0  0  0  0  0  0  0  0  0  0
    1.8198   14.5178   43.1495 C   0  0  0  0  0  0  0  0  0  0  0  0
    1.5550   15.8386   42.7734 C   0  0  0  0  0  0  0  0  0  0  0  0
    0.7234   16.1143   41.7593 N   0  0  0  0  0  0  0  0  0  0  0  0
    2.1316   16.8471   43.4350 N   0  0  0  0  0  0  0  0  0  0  0  0
    1.9082   18.1295   43.0971 C   0  0  0  0  0  0  0  0  0  0  0  0
    2.3759   19.2852   43.5930 N   0  0  0  0  0  0  0  0  0  0  0  0
    3.3103   19.4258   44.7138 C   0  0  0  0  0  0  0  0  0  0  0  0
    1.9029   20.2424   42.9790 N   0  0  0  0  0  0  0  0  0  0  0  0
    1.0616   19.7510   42.0543 C   0  0  0  0  0  0  0  0  0  0  0  0
    1.0751   18.4121   42.1005 C   0  0  0  0  0  0  0  0  0  0  0  0
    0.4749   17.3941   41.4247 C   0  0  0  0  0  0  0  0  0  0  0  0
   -0.3771   17.6456   40.4013 N   0  0  0  0  0  0  0  0  0  0  0  0
    0.2967   13.6689   41.8683 H   0  0  0  0  0  0  0  0  0  0  0  0
    0.7751   11.3184   42.5349 H   0  0  0  0  0  0  0  0  0  0  0  0
    2.5692   10.8336   44.1889 H   0  0  0  0  0  0  0  0  0  0  0  0
    3.4032   15.0700   44.5169 H   0  0  0  0  0  0  0  0  0  0  0  0
    4.1512   20.0674   44.4119 H   0  0  0  0  0  0  0  0  0  0  0  0
    2.7904   19.8813   45.5696 H   0  0  0  0  0  0  0  0  0  0  0  0
    3.6902   18.4343   45.0010 H   0  0  0  0  0  0  0  0  0  0  0  0
    0.4543   20.3555   41.3646 H   0  0  0  0  0  0  0  0  0  0  0  0
   -0.5815   18.6176   40.1285 H   0  0  0  0  0  0  0  0  0  0  0  0
   -0.8202   16.8649   39.8964 H   0  0  0  0  0  0  0  0  0  0  0  0
  1  2  2  0
  1  6  1  0
  2  3  1  0
  3  4  2  0
  4  5  1  0
  5  6  2  0
  6  7  1  0
  7  8  2  0
  7  9  1  0
  8 16  1  0
  9 10  2  0
 10 11  1  0
 10 15  1  0
 11 12  1  0
 11 13  1  0
 13 14  2  0
 14 15  1  0
 15 16  2  0
 16 17  1  0
  1 18  1  0
  2 19  1  0
  3 20  1  0
  5 21  1  0
 12 22  1  0
 12 23  1  0
 12 24  1  0
 14 25  1  0
 17 26  1  0
 17 27  1  0
M  END
>  <mol_id>  (55) 
2026-09-18-6fnk-s0-n100-r2-0055

>  <rmsd_to_ref>  (55) 
2.9336734693924074

>  <pose_kind>  (55) 
rigid

$$$$
6fnk.A
     RDKit          3D

 27 29  0  0  0  0  0  0  0  0999 V2000
    3.6656   16.1480   40.9777 C   0  0  0  0  0  0  0  0  0  0  0  0
    4.8203   16.0040   40.2160 C   0  0  0  0  0  0  0  0  0  0  0  0
    5.2083   16.9690   39.3097 C   0  0  0  0  0  0  0  0  0  0  0  0
    4.4885   18.0997   39.1162 N   0  0  0  0  0  0  0  0  0  0  0  0
    3.3690   18.2396   39.8545 C   0  0  0  0  0  0  0  0  0  0  0  0
    2.9440   17.3048   40.7689 C   0  0  0  0  0  0  0  0  0  0  0  0
    1.7181   17.5425   41.5231 C   0  0  0  0  0  0  0  0  0  0  0  0
    1.0122   18.6702   41.3214 N   0  0  0  0  0  0  0  0  0  0  0  0
    1.2778   16.6455   42.4246 N   0  0  0  0  0  0  0  0  0  0  0  0
    0.1567   16.8185   43.1428 C   0  0  0  0  0  0  0  0  0  0  0  0
   -0.4851   16.0970   44.0807 N   0  0  0  0  0  0  0  0  0  0  0  0
   -0.0724   14.8063   44.6040 C   0  0  0  0  0  0  0  0  0  0  0  0
   -1.5562   16.7598   44.4476 N   0  0  0  0  0  0  0  0  0  0  0  0
   -1.6727   17.9214   43.7880 C   0  0  0  0  0  0  0  0  0  0  0  0
   -0.5758   17.9786   42.9400 C   0  0  0  0  0  0  0  0  0  0  0  0
   -0.1345   18.9177   42.0107 C   0  0  0  0  0  0  0  0  0  0  0  0
   -0.8844   20.1262   41.7897 N   0  0  0  0  0  0  0  0  0  0  0  0
    3.3814   15.3850   41.6777 H   0  0  0  0  0  0  0  0  0  0  0  0
    5.4122   15.1008   40.3580 H   0  0  0  0  0  0  0  0  0  0  0  0
    6.1071   16.8723   38.7068 H   0  0  0  0  0  0  0  0  0  0  0  0
    2.8082   19.1635   39.6762 H   0  0  0  0  0  0  0  0  0  0  0  0
    0.8393   14.4443   44.0941 H   0  0  0  0  0  0  0  0  0  0  0  0
    0.1310   14.9444   45.7048 H   0  0  0  0  0  0  0  0  0  0  0  0
   -0.9029   14.0572   44.5887 H   0  0  0  0  0  0  0  0  0  0  0  0
   -2.4305   18.6939   43.8528 H   0  0  0  0  0  0  0  0  0  0  0  0
   -1.0863   20.7854   42.5800 H   0  0  0  0  0  0  0  0  0  0  0  0
   -1.2248   20.3282   40.8071 H   0  0  0  0  0  0  0  0  0  0  0  0
  1  2  2  0
  1  6  1  0
  2  3  1  0
  3  4  2  0
  4  5  1  0
  5  6  2  0
  6  7  1  0
  7  8  2  0
  7  9  1  0
  8 16  1  0
  9 10  2  0
 10 11  1  0
 10 15  1  0
 11 12  1  0
 11 13  1  0
 13 14  2  0
 14 15  1  0
 15 16  2  0
 16 17  1  0
  1 18  1  0
  2 19  1  0
  3 20  1  0
  5 21  1  0
 12 22  1  0
 12 23  1  0
 12 24  1  0
 14 25  1  0
 17 26  1  0
 17 27  1  0
M  END
>  <mol_id>  (56) 
2026-09-18-6fnk-s0-n100-r2-0056

>  <rmsd_to_ref>  (56) 
2.9795918367351883

>  <pose_kind>  (56) 
conformer

$$$$
6fnk.A
     RDKit          3D

 27 29  0  0  0  0  0  0  0  0999 V2000
    3.3458   19.6798   41.1999 C   0  0  0  0  0  0  0  0  0  0  0  0
    4.3707   19.5214   40.2669 C   0  0  0  0  0  0  0  0  0  0  0  0
    5.0045   18.2945   40.1357 C   0  0  0  0  0  0  0  0  0  0  0  0
    4.6129   17.2175   40.9358 N   0  0  0  0  0  0  0  0  0  0  0  0
    3.5827   17.3803   41.8744 C   0  0  0  0  0  0  0  0  0  0  0  0
    2.9465   18.6130   42.0085 C   0  0  0  0  0  0  0  0  0  0  0  0
    1.9216   18.7728   42.9466 C   0  0  0  0  0  0  0  0  0  0  0  0
    1.4164   19.9842   43.2176 N   0  0  0  0  0  0  0  0  0  0  0  0
    1.4288   17.7049   43.5820 N   0  0  0  0  0  0  0  0  0  0  0  0
    0.4495   17.8199   44.4966 C   0  0  0  0  0  0  0  0  0  0  0  0
   -0.1806   16.9133   45.2590 N   0  0  0  0  0  0  0  0  0  0  0  0
    0.0712   15.4691   45.2651 C   0  0  0  0  0  0  0  0  0  0  0  0
   -1.0283   17.4579   45.9675 N   0  0  0  0  0  0  0  0  0  0  0  0
   -1.0157   18.7686   45.6741 C   0  0  0  0  0  0  0  0  0  0  0  0
   -0.0658   19.0162   44.7624 C   0  0  0  0  0  0  0  0  0  0  0  0
    0.4216   20.1104   44.1154 C   0  0  0  0  0  0  0  0  0  0  0  0
   -0.0777   21.3453   44.3643 N   0  0  0  0  0  0  0  0  0  0  0  0
    2.8469   20.6550   41.2999 H   0  0  0  0  0  0  0  0  0  0  0  0
    4.6762   20.3689   39.6357 H   0  0  0  0  0  0  0  0  0  0  0  0
    5.8149   18.1692   39.4024 H   0  0  0  0  0  0  0  0  0  0  0  0
    3.2766   16.5332   42.5058 H   0  0  0  0  0  0  0  0  0  0  0  0
    0.2433   15.1313   46.2977 H   0  0  0  0  0  0  0  0  0  0  0  0
   -0.8001   14.9432   44.8477 H   0  0  0  0  0  0  0  0  0  0  0  0
    0.9594   15.2492   44.6546 H   0  0  0  0  0  0  0  0  0  0  0  0
   -1.6834   19.5234   46.1151 H   0  0  0  0  0  0  0  0  0  0  0  0
   -0.8392   21.4648   45.0476 H   0  0  0  0  0  0  0  0  0  0  0  0
    0.3042   22.1645   43.8703 H   0  0  0  0  0  0  0  0  0  0  0  0
  1  2  2  0
  1  6  1  0
  2  3  1  0
  3  4  2  0
  4  5  1  0
  5  6  2  0
  6  7  1  0
  7  8  2  0
  7  9  1  0
  8 16  1  0
  9 10  2  0
 10 11  1  0
 10 15  1  0
 11 12  1  0
 11 13  1  0
 13 14  2  0
 14 15  1  0
 15 16  2  0
 16 17  1  0
  1 18  1  0
  2 19  1  0
  3 20  1  0
  5 21  1  0
 12 22  1  0
 12 23  1  0
 12 24  1  0
 14 25  1  0
 17 26  1  0
 17 27  1  0
M  END
>  <mol_id>  (57) 
2026-09-18-6fnk-s0-n100-r2-0057

>  <rmsd_to_ref>  (57) 
3.0255102040841724

>  <pose_kind>  (57) 
rigid

$$$$
6fnk.A
     RDKit          3D

 27 29  0  0  0  0  0  0  0  0999 V2000
    0.4439   16.2424   42.7972 C   0  0  0  0  0  0  0  0  0  0  0  0
   -0.3199   15.2815   42.1569 C   0  0  0  0  0  0  0  0  0  0  0  0
   -0.3692   15.2354   40.7841 C   0  0  0  0  0  0  0  0  0  0  0  0
    0.3112   16.1077   39.9958 N   0  0  0  0  0  0  0  0  0  0  0  0
    1.0702   17.0629   40.6096 C   0  0  0  0  0  0  0  0  0  0  0  0
    1.1361   17.1298   41.9868 C   0  0  0  0  0  0  0  0  0  0  0  0
    1.9554   18.1613   42.6095 C   0  0  0  0  0  0  0  0  0  0  0  0
    2.6397   19.0381   41.8577 N   0  0  0  0  0  0  0  0  0  0  0  0
    2.0454   18.2594   43.9469 N   0  0  0  0  0  0  0  0  0  0  0  0
    2.7834   19.1882   44.5292 C   0  0  0  0  0  0  0  0  0  0  0  0
    3.0525   19.5140   45.8204 N   0  0  0  0  0  0  0  0  0  0  0  0
    2.4952   18.7933   46.9750 C   0  0  0  0  0  0  0  0  0  0  0  0
    3.8706   20.5509   45.8669 N   0  0  0  0  0  0  0  0  0  0  0  0
    4.1831   20.9621   44.6253 C   0  0  0  0  0  0  0  0  0  0  0  0
    3.5055   20.1131   43.7745 C   0  0  0  0  0  0  0  0  0  0  0  0
    3.4123   20.0116   42.3848 C   0  0  0  0  0  0  0  0  0  0  0  0
    4.1248   20.9252   41.5488 N   0  0  0  0  0  0  0  0  0  0  0  0
    0.4775   16.2720   43.8734 H   0  0  0  0  0  0  0  0  0  0  0  0
   -0.8689   14.5779   42.7736 H   0  0  0  0  0  0  0  0  0  0  0  0
   -0.9742   14.4741   40.3024 H   0  0  0  0  0  0  0  0  0  0  0  0
    1.6308   17.7811   39.9953 H   0  0  0  0  0  0  0  0  0  0  0  0
    3.0117   19.1289   47.8918 H   0  0  0  0  0  0  0  0  0  0  0  0
    2.6396   17.6856   46.8370 H   0  0  0  0  0  0  0  0  0  0  0  0
    1.4214   18.9928   47.0429 H   0  0  0  0  0  0  0  0  0  0  0  0
    4.8231   21.7774   44.3108 H   0  0  0  0  0  0  0  0  0  0  0  0
    5.1525   20.8831   41.4012 H   0  0  0  0  0  0  0  0  0  0  0  0
    3.5165   21.6617   41.0823 H   0  0  0  0  0  0  0  0  0  0  0  0
  1  2  2  0
  1  6  1  0
  2  3  1  0
  3  4  2  0
  4  5  1  0
  5  6  2  0
  6  7  1  0
  7  8  2  0
  7  9  1  0
  8 16  1  0
  9 10  2  0
 10 11  1  0
 10 15  1  0
 11 12  1  0
 11 13  1  0
 13 14  2  0
 14 15  1  0
 15 16  2  0
 16 17  1  0
  1 18  1  0
  2 19  1  0
  3 20  1  0
  5 21  1  0
 12 22  1  0
 12 23  1  0
 12 24  1  0
 14 25  1  0
 17 26  1  0
 17 27  1  0
M  END
>  <mol_id>  (58) 
2026-09-18-6fnk-s0-n100-r2-0058

>  <rmsd_to_ref>  (58) 
3.071428571428935

>  <pose_kind>  (58) 
conformer

$$$$
6fnk.A
     RDKit          3D

 27 29  0  0  0  0  0  0  0  0999 V2000
    0.2462   14.5594   41.2389 C   0  0  0  0  0  0  0  0  0  0  0  0
   -0.6633   13.5055   41.1491 C   0  0  0  0  0  0  0  0  0  0  0  0
   -1.4066   13.1353   42.2604 C   0  0  0  0  0  0  0  0  0  0  0  0
   -1.2461   13.8213   43.4675 N   0  0  0  0  0  0  0  0  0  0  0  0
   -0.3294   14.8800   43.5551 C   0  0  0  0  0  0  0  0  0  0  0  0
    0.4192   15.2515   42.4399 C   0  0  0  0  0  0  0  0  0  0  0  0
    1.3339   16.3057   42.5310 C   0  0  0  0  0  0  0  0  0  0  0  0
    2.1873   16.5677   41.5315 N   0  0  0  0  0  0  0  0  0  0  0  0
    1.3587   17.0721   43.6260 N   0  0  0  0  0  0  0  0  0  0  0  0
    2.2295   18.0891   43.7536 C   0  0  0  0  0  0  0  0  0  0  0  0
    2.4483   18.9674   44.7441 N   0  0  0  0  0  0  0  0  0  0  0  0
    1.7234   19.0280   46.0169 C   0  0  0  0  0  0  0  0  0  0  0  0
    3.3533   19.7456   44.4403 N   0  0  0  0  0  0  0  0  0  0  0  0
    3.7568   19.4282   43.1990 C   0  0  0  0  0  0  0  0  0  0  0  0
    3.0711   18.3635   42.7618 C   0  0  0  0  0  0  0  0  0  0  0  0
    3.0494   17.5957   41.6378 C   0  0  0  0  0  0  0  0  0  0  0  0
    3.8955   17.8448   40.6090 N   0  0  0  0  0  0  0  0  0  0  0  0
    0.8331   14.8486   40.3547 H   0  0  0  0  0  0  0  0  0  0  0  0
   -0.7909   12.9682   40.1978 H   0  0  0  0  0  0  0  0  0  0  0  0
   -2.1218   12.3025   42.1916 H   0  0  0  0  0  0  0  0  0  0  0  0
   -0.2015   15.4179   44.5061 H   0  0  0  0  0  0  0  0  0  0  0  0
    2.4430   19.0321   46.8488 H   0  0  0  0  0  0  0  0  0  0  0  0
    1.1183   19.9460   46.0509 H   0  0  0  0  0  0  0  0  0  0  0  0
    1.0650   18.1513   46.1059 H   0  0  0  0  0  0  0  0  0  0  0  0
    4.5319   19.9610   42.6287 H   0  0  0  0  0  0  0  0  0  0  0  0
    4.5635   18.6265   40.6692 H   0  0  0  0  0  0  0  0  0  0  0  0
    3.8706   17.2524   39.7667 H   0  0  0  0  0  0  0  0  0  0  0  0
  1  2  2  0
  1  6  1  0
  2  3  1  0
  3  4  2  0
  4  5  1  0
  5  6  2  0
  6  7  1  0
  7  8  2  0
  7  9  1  0
  8 16  1  0
  9 10  2  0
 10 11  1  0
 10 15  1  0
 11 12  1  0
 11 13  1  0
 13 14  2  0
 14 15  1  0
 15 16  2  0
 16 17  1  0
  1 18  1  0
  2 19  1  0
  3 20  1  0
  5 21  1  0
 12 22  1  0
 12 23  1  0
 12 24  1  0
 14 25  1  0
 17 26  1  0
 17 27  1  0
M  END
>  <mol_id>  (59) 
2026-09-18-6fnk-s0-n100-r2-0059

>  <rmsd_to_ref>  (59) 
3.117346938779748

>  <pose_kind>  (59) 
rigid

$$$$
6fnk.A
     RDKit          3D

 27 29  0  0  0  0  0  0  0  0999 V2000
    3.5242   17.8699   41.7365 C   0  0  0  0  0  0  0  0  0  0  0  0
    4.8331   17.7413   41.2748 C   0  0  0  0  0  0  0  0  0  0  0  0
    5.1409   17.8718   39.9388 C   0  0  0  0  0  0  0  0  0  0  0  0
    4.1659   18.1295   39.0475 N   0  0  0  0  0  0  0  0  0  0  0  0
    2.8791   18.2616   39.4589 C   0  0  0  0  0  0  0  0  0  0  0  0
    2.5460   18.1350   40.7921 C   0  0  0  0  0  0  0  0  0  0  0  0
    1.1496   18.2838   41.1968 C   0  0  0  0  0  0  0  0  0  0  0  0
    0.2146   18.5389   40.2810 N   0  0  0  0  0  0  0  0  0  0  0  0
    0.8204   18.1602   42.5032 N   0  0  0  0  0  0  0  0  0  0  0  0
   -0.4725   18.2943   42.9058 C   0  0  0  0  0  0  0  0  0  0  0  0
   -1.0604   18.2216   44.1085 N   0  0  0  0  0  0  0  0  0  0  0  0
   -0.3700   17.9563   45.3715 C   0  0  0  0  0  0  0  0  0  0  0  0
   -2.3634   18.4261   43.9854 N   0  0  0  0  0  0  0  0  0  0  0  0
   -2.6283   18.6355   42.6798 C   0  0  0  0  0  0  0  0  0  0  0  0
   -1.4508   18.5589   41.9653 C   0  0  0  0  0  0  0  0  0  0  0  0
   -1.0873   18.6806   40.6361 C   0  0  0  0  0  0  0  0  0  0  0  0
   -2.1079   18.9522   39.6892 N   0  0  0  0  0  0  0  0  0  0  0  0
    3.2681   17.7695   42.7857 H   0  0  0  0  0  0  0  0  0  0  0  0
    5.6323   17.5311   41.9974 H   0  0  0  0  0  0  0  0  0  0  0  0
    6.1420   17.7791   39.5425 H   0  0  0  0  0  0  0  0  0  0  0  0
    2.1392   18.4702   38.6827 H   0  0  0  0  0  0  0  0  0  0  0  0
    0.4821   17.2503   45.1904 H   0  0  0  0  0  0  0  0  0  0  0  0
    0.0435   18.8934   45.8073 H   0  0  0  0  0  0  0  0  0  0  0  0
   -1.0643   17.4869   46.0986 H   0  0  0  0  0  0  0  0  0  0  0  0
   -3.6122   18.8359   42.2355 H   0  0  0  0  0  0  0  0  0  0  0  0
   -2.8643   18.2304   39.5144 H   0  0  0  0  0  0  0  0  0  0  0  0
   -2.1620   19.8197   39.1520 H   0  0  0  0  0  0  0  0  0  0  0  0
  1  2  2  0
  1  6  1  0
  2  3  1  0
  3  4  2  0
  4  5  1  0
  5  6  2  0
  6  7  1  0
  7  8  2  0
  7  9  1  0
  8 16  1  0
  9 10  2  0
 10 11  1  0
 10 15  1  0
 11 12  1  0
 11 13  1  0
 13 14  2  0
 14 15  1  0
 15 16  2  0
 16 17  1  0
  1 18  1  0
  2 19  1  0
  3 20  1  0
  5 21  1  0
 12 22  1  0
 12 23  1  0
 12 24  1  0
 14 25  1  0
 17 26  1  0
 17 27  1  0
M  END
>  <mol_id>  (60) 
2026-09-18-6fnk-s0-n100-r2-0060

>  <rmsd_to_ref>  (60) 
3.1632653061229594

>  <pose_kind>  (60) 
conformer

$$$$
6fnk.A
     RDKit          3D

 27 29  0  0  0  0  0  0  0  0999 V2000
    3.2406   14.2524   43.4246 C   0  0  0  0  0  0  0  0  0  0  0  0
    3.7191   13.3983   44.4184 C   0  0  0  0  0  0  0  0  0  0  0  0
    3.4564   13.6722   45.7527 C   0  0  0  0  0  0  0  0  0  0  0  0
    2.7093   14.8014   46.0994 N   0  0  0  0  0  0  0  0  0  0  0  0
    2.2306   15.6594   45.0977 C   0  0  0  0  0  0  0  0  0  0  0  0
    2.4956   15.3863   43.7570 C   0  0  0  0  0  0  0  0  0  0  0  0
    2.0191   16.2447   42.7609 C   0  0  0  0  0  0  0  0  0  0  0  0
    2.4052   16.1038   41.4853 N   0  0  0  0  0  0  0  0  0  0  0  0
    1.1602   17.2190   43.0772 N   0  0  0  0  0  0  0  0  0  0  0  0
    0.6871   18.0692   42.1487 C   0  0  0  0  0  0  0  0  0  0  0  0
   -0.1531   19.1122   42.2286 N   0  0  0  0  0  0  0  0  0  0  0  0
   -0.8065   19.6002   43.4467 C   0  0  0  0  0  0  0  0  0  0  0  0
   -0.3205   19.6190   41.1184 N   0  0  0  0  0  0  0  0  0  0  0  0
    0.3908   18.8982   40.2360 C   0  0  0  0  0  0  0  0  0  0  0  0
    1.0553   17.9287   40.8791 C   0  0  0  0  0  0  0  0  0  0  0  0
    1.9227   16.9347   40.5428 C   0  0  0  0  0  0  0  0  0  0  0  0
    2.3220   16.7649   39.2591 N   0  0  0  0  0  0  0  0  0  0  0  0
    3.4521   14.0306   42.3681 H   0  0  0  0  0  0  0  0  0  0  0  0
    4.3045   12.5083   44.1441 H   0  0  0  0  0  0  0  0  0  0  0  0
    3.8357   13.0011   46.5373 H   0  0  0  0  0  0  0  0  0  0  0  0
    1.6450   16.5495   45.3712 H   0  0  0  0  0  0  0  0  0  0  0  0
   -0.6278   20.6806   43.5510 H   0  0  0  0  0  0  0  0  0  0  0  0
   -1.8884   19.4120   43.3830 H   0  0  0  0  0  0  0  0  0  0  0  0
   -0.3936   19.0743   44.3201 H   0  0  0  0  0  0  0  0  0  0  0  0
    0.4230   19.0767   39.1511 H   0  0  0  0  0  0  0  0  0  0  0  0
    1.9652   17.3894   38.5218 H   0  0  0  0  0  0  0  0  0  0  0  0
    2.9823   16.0112   39.0205 H   0  0  0  0  0  0  0  0  0  0  0  0
  1  2  2  0
  1  6  1  0
  2  3  1  0
  3  4  2  0
  4  5  1  0
  5  6  2  0
  6  7  1  0
  7  8  2  0
  7  9  1  0
  8 16  1  0
  9 10  2  0
 10 11  1  0
 10 15  1  0
 11 12  1  0
 11 13  1  0
 13 14  2  0
 14 15  1  0
 15 16  2  0
 16 17  1  0
  1 18  1  0
  2 19  1  0
  3 20  1  0
  5 21  1  0
 12 22  1  0
 12 23  1  0
 12 24  1  0
 14 25  1  0
 17 26  1  0
 17 27  1  0
M  END
>  <mol_id>  (61) 
2026-09-18-6fnk-s0-n100-r2-0061

>  <rmsd_to_ref>  (61) 
3.2091836734720225

>  <pose_kind>  (61) 
rigid

$$$$
6fnk.A
     RDKit          3D

 27 29  0  0  0  0  0  0  0  0999 V2000
    2.2893   18.9363   40.3651 C   0  0  0  0  0  0  0  0  0  0  0  0
    3.1608   18.8484   39.2824 C   0  0  0  0  0  0  0  0  0  0  0  0
    3.3850   17.5991   38.7068 C   0  0  0  0  0  0  0  0  0  0  0  0
    2.7768   16.4892   39.1785 N   0  0  0  0  0  0  0  0  0  0  0  0
    1.9352   16.5779   40.2250 C   0  0  0  0  0  0  0  0  0  0  0  0
    1.6580   17.7895   40.8562 C   0  0  0  0  0  0  0  0  0  0  0  0
    0.7469   17.8803   41.9879 C   0  0  0  0  0  0  0  0  0  0  0  0
    0.5089   19.0829   42.5690 N   0  0  0  0  0  0  0  0  0  0  0  0
    0.1683   16.7430   42.4170 N   0  0  0  0  0  0  0  0  0  0  0  0
   -0.6843   16.7981   43.4688 C   0  0  0  0  0  0  0  0  0  0  0  0
   -1.3759   15.8215   44.0745 N   0  0  0  0  0  0  0  0  0  0  0  0
   -1.3678   14.4222   43.7256 C   0  0  0  0  0  0  0  0  0  0  0  0
   -2.0852   16.3724   45.0719 N   0  0  0  0  0  0  0  0  0  0  0  0
   -1.8424   17.7037   45.0987 C   0  0  0  0  0  0  0  0  0  0  0  0
   -0.9511   18.0052   44.0862 C   0  0  0  0  0  0  0  0  0  0  0  0
   -0.3380   19.1380   43.6139 C   0  0  0  0  0  0  0  0  0  0  0  0
   -0.5932   20.3784   44.2252 N   0  0  0  0  0  0  0  0  0  0  0  0
    2.1273   19.9060   40.7973 H   0  0  0  0  0  0  0  0  0  0  0  0
    3.6638   19.7402   38.8859 H   0  0  0  0  0  0  0  0  0  0  0  0
    4.0585   17.5166   37.8664 H   0  0  0  0  0  0  0  0  0  0  0  0
    1.4481   15.6635   40.5968 H   0  0  0  0  0  0  0  0  0  0  0  0
   -2.3260   14.1874   43.2377 H   0  0  0  0  0  0  0  0  0  0  0  0
   -1.3046   13.8315   44.6670 H   0  0  0  0  0  0  0  0  0  0  0  0
   -0.4716   14.1808   43.1205 H   0  0  0  0  0  0  0  0  0  0  0  0
   -2.2390   18.4477   45.7620 H   0  0  0  0  0  0  0  0  0  0  0  0
   -1.3582   20.9914   43.8684 H   0  0  0  0  0  0  0  0  0  0  0  0
    0.0222   20.6392   45.0438 H   0  0  0  0  0  0  0  0  0  0  0  0
  1  2  2  0
  1  6  1  0
  2  3  1  0
  3  4  2  0
  4  5  1  0
  5  6  2  0
  6  7  1  0
  7  8  2  0
  7  9  1  0
  8 16  1  0
  9 10  2  0
 10 11  1  0
 10 15  1  0
 11 12  1  0
 11 13  1  0
 13 14  2  0
 14 15  1  0
 15 16  2  0
 16 17  1  0
  1 18  1  0
  2 19  1  0
  3 20  1  0
  5 21  1  0
 12 22  1  0
 12 23  1  0
 12 24  1  0
 14 25  1  0
 17 26  1  0
 17 27  1  0
M  END
>  <mol_id>  (62) 
2026-09-18-6fnk-s0-n100-r2-0062

>  <rmsd_to_ref>  (62) 
3.2551020408224263

>  <pose_kind>  (62) 
conformer

$$$$
6fnk.A
     RDKit          3D

 27 29  0  0  0  0  0  0  0  0999 V2000
    3.7091   17.5728   41.8473 C   0  0  0  0  0  0  0  0  0  0  0  0
    4.0264   16.8308   40.7094 C   0  0  0  0  0  0  0  0  0  0  0  0
    3.2923   17.0005   39.5447 C   0  0  0  0  0  0  0  0  0  0  0  0
    2.2381   17.9175   39.5115 N   0  0  0  0  0  0  0  0  0  0  0  0
    1.9202   18.6613   40.6581 C   0  0  0  0  0  0  0  0  0  0  0  0
    2.6558   18.4903   41.8293 C   0  0  0  0  0  0  0  0  0  0  0  0
    2.3352   19.2315   42.9713 C   0  0  0  0  0  0  0  0  0  0  0  0
    2.9078   18.9620   44.1526 N   0  0  0  0  0  0  0  0  0  0  0  0
    1.4497   20.2296   42.8896 N   0  0  0  0  0  0  0  0  0  0  0  0
    1.1095   20.9587   43.9673 C   0  0  0  0  0  0  0  0  0  0  0  0
    0.2516   21.9774   44.1302 N   0  0  0  0  0  0  0  0  0  0  0  0
   -0.5753   22.5827   43.0820 C   0  0  0  0  0  0  0  0  0  0  0  0
    0.2506   22.3591   45.3012 N   0  0  0  0  0  0  0  0  0  0  0  0
    1.1489   21.6153   45.9674 C   0  0  0  0  0  0  0  0  0  0  0  0
    1.6819   20.7061   45.1402 C   0  0  0  0  0  0  0  0  0  0  0  0
    2.5919   19.6979   45.2343 C   0  0  0  0  0  0  0  0  0  0  0  0
    3.1920   19.4107   46.4149 N   0  0  0  0  0  0  0  0  0  0  0  0
    4.2944   17.4341   42.7682 H   0  0  0  0  0  0  0  0  0  0  0  0
    4.8583   16.1115   40.7358 H   0  0  0  0  0  0  0  0  0  0  0  0
    3.5397   16.4138   38.6478 H   0  0  0  0  0  0  0  0  0  0  0  0
    1.0887   19.3810   40.6324 H   0  0  0  0  0  0  0  0  0  0  0  0
   -1.6235   22.6138   43.4140 H   0  0  0  0  0  0  0  0  0  0  0  0
   -0.2235   23.6056   42.8823 H   0  0  0  0  0  0  0  0  0  0  0  0
   -0.4994   21.9830   42.1630 H   0  0  0  0  0  0  0  0  0  0  0  0
    1.4075   21.7344   47.0300 H   0  0  0  0  0  0  0  0  0  0  0  0
    2.9651   19.9611   47.2554 H   0  0  0  0  0  0  0  0  0  0  0  0
    3.8752   18.6419   46.4717 H   0  0  0  0  0  0  0  0  0  0  0  0
  1  2  2  0
  1  6  1  0
  2  3  1  0
  3  4  2  0
  4  5  1  0
  5  6  2  0
  6  7  1  0
  7  8  2  0
  7  9  1  0
  8 16  1  0
  9 10  2  0
 10 11  1  0
 10 15  1  0
 11 12  1  0
 11 13  1  0
 13 14  2  0
 14 15  1  0
 15 16  2  0
 16 17  1  0
  1 18  1  0
  2 19  1  0
  3 20  1  0
  5 21  1  0
 12 22  1  0
 12 23  1  0
 12 24  1  0
 14 25  1  0
 17 26  1  0
 17 27  1  0
M  END
>  <mol_id>  (63) 
2026-09-18-6fnk-s0-n100-r2-0063

>  <rmsd_to_ref>  (63) 
3.301020408165411

>  <pose_kind>  (63) 
rigid

$$$$
6fnk.A
     RDKit          3D

 27 29  0  0  0  0  0  0  0  0999 V2000
    4.3876   17.8191   42.4888 C   0  0  0  0  0  0  0  0  0  0  0  0
    5.7268   17.8397   42.0929 C   0  0  0  0  0  0  0  0  0  0  0  0
    6.1952   18.9610   41.4097 C   0  0  0  0  0  0  0  0  0  0  0  0
    5.3895   20.0055   41.1312 N   0  0  0  0  0  0  0  0  0  0  0  0
    4.1000   19.9693   41.5204 C   0  0  0  0  0  0  0  0  0  0  0  0
    3.5693   18.8911   42.2004 C   0  0  0  0  0  0  0  0  0  0  0  0
    2.1631   18.9338   42.5847 C   0  0  0  0  0  0  0  0  0  0  0  0
    1.4586   20.0293   42.2521 N   0  0  0  0  0  0  0  0  0  0  0  0
    1.5724   17.9306   43.2453 N   0  0  0  0  0  0  0  0  0  0  0  0
    0.2736   18.0060   43.5826 C   0  0  0  0  0  0  0  0  0  0  0  0
   -0.5740   17.1701   44.2356 N   0  0  0  0  0  0  0  0  0  0  0  0
   -0.2244   15.8685   44.7712 C   0  0  0  0  0  0  0  0  0  0  0  0
   -1.7691   17.7379   44.3022 N   0  0  0  0  0  0  0  0  0  0  0  0
   -1.7433   18.9446   43.7048 C   0  0  0  0  0  0  0  0  0  0  0  0
   -0.4573   19.1386   43.2395 C   0  0  0  0  0  0  0  0  0  0  0  0
    0.1532   20.1809   42.5540 C   0  0  0  0  0  0  0  0  0  0  0  0
   -0.5835   21.3494   42.1950 N   0  0  0  0  0  0  0  0  0  0  0  0
    3.9973   16.9609   43.0208 H   0  0  0  0  0  0  0  0  0  0  0  0
    6.3793   17.0087   42.3112 H   0  0  0  0  0  0  0  0  0  0  0  0
    7.2368   18.9532   41.1134 H   0  0  0  0  0  0  0  0  0  0  0  0
    3.5071   20.8493   41.2610 H   0  0  0  0  0  0  0  0  0  0  0  0
   -0.0567   15.1094   43.9728 H   0  0  0  0  0  0  0  0  0  0  0  0
    0.6996   15.9456   45.3989 H   0  0  0  0  0  0  0  0  0  0  0  0
   -1.0346   15.5311   45.4609 H   0  0  0  0  0  0  0  0  0  0  0  0
   -2.5448   19.6567   43.5876 H   0  0  0  0  0  0  0  0  0  0  0  0
   -0.2862   22.2752   42.5737 H   0  0  0  0  0  0  0  0  0  0  0  0
   -1.4178   21.2926   41.5575 H   0  0  0  0  0  0  0  0  0  0  0  0
  1  2  2  0
  1  6  1  0
  2  3  1  0
  3  4  2  0
  4  5  1  0
  5  6  2  0
  6  7  1  0
  7  8  2  0
  7  9  1  0
  8 16  1  0
  9 10  2  0
 10 11  1  0
 10 15  1  0
 11 12  1  0
 11 13  1  0
 13 14  2  0
 14 15  1  0
 15 16  2  0
 16 17  1  0
  1 18  1  0
  2 19  1  0
  3 20  1  0
  5 21  1  0
 12 22  1  0
 12 23  1  0
 12 24  1  0
 14 25  1  0
 17 26  1  0
 17 27  1  0
M  END
>  <mol_id>  (64) 
2026-09-18-6fnk-s0-n100-r2-0064

>  <rmsd_to_ref>  (64) 
3.3469387755144195

>  <pose_kind>  (64) 
conformer

$$$$
6fnk.A
     RDKit          3D

 27 29  0  0  0  0  0  0  0  0999 V2000
    0.6094   15.4942   43.4876 C   0  0  0  0  0  0  0  0  0  0  0  0
    0.0221   14.3691   44.0665 C   0  0  0  0  0  0  0  0  0  0  0  0
   -1.0191   14.5190   44.9709 C   0  0  0  0  0  0  0  0  0  0  0  0
   -1.4808   15.7969   45.2981 N   0  0  0  0  0  0  0  0  0  0  0  0
   -0.8870   16.9269   44.7154 C   0  0  0  0  0  0  0  0  0  0  0  0
    0.1603   16.7776   43.8081 C   0  0  0  0  0  0  0  0  0  0  0  0
    0.7517   17.9059   43.2308 C   0  0  0  0  0  0  0  0  0  0  0  0
    1.8675   17.8008   42.4959 N   0  0  0  0  0  0  0  0  0  0  0  0
    0.1978   19.1100   43.4048 N   0  0  0  0  0  0  0  0  0  0  0  0
    0.7421   20.2187   42.8726 C   0  0  0  0  0  0  0  0  0  0  0  0
    0.3833   21.5106   42.9232 N   0  0  0  0  0  0  0  0  0  0  0  0
   -0.7850   22.0530   43.6233 C   0  0  0  0  0  0  0  0  0  0  0  0
    1.1739   22.2046   42.2826 N   0  0  0  0  0  0  0  0  0  0  0  0
    2.0881   21.3805   41.7449 C   0  0  0  0  0  0  0  0  0  0  0  0
    1.8419   20.1218   42.1321 C   0  0  0  0  0  0  0  0  0  0  0  0
    2.4105   18.8999   41.9403 C   0  0  0  0  0  0  0  0  0  0  0  0
    3.5337   18.7648   41.1942 N   0  0  0  0  0  0  0  0  0  0  0  0
    1.4349   15.3696   42.7713 H   0  0  0  0  0  0  0  0  0  0  0  0
    0.3843   13.3637   43.8060 H   0  0  0  0  0  0  0  0  0  0  0  0
   -1.4810   13.6326   45.4302 H   0  0  0  0  0  0  0  0  0  0  0  0
   -1.2489   17.9326   44.9752 H   0  0  0  0  0  0  0  0  0  0  0  0
   -0.4692   22.8775   44.2793 H   0  0  0  0  0  0  0  0  0  0  0  0
   -1.5120   22.4275   42.8876 H   0  0  0  0  0  0  0  0  0  0  0  0
   -1.2504   21.2608   44.2281 H   0  0  0  0  0  0  0  0  0  0  0  0
    2.9130   21.6916   41.0870 H   0  0  0  0  0  0  0  0  0  0  0  0
    3.9660   19.5927   40.7597 H   0  0  0  0  0  0  0  0  0  0  0  0
    3.9551   17.8344   41.0616 H   0  0  0  0  0  0  0  0  0  0  0  0
  1  2  2  0
  1  6  1  0
  2  3  1  0
  3  4  2  0
  4  5  1  0
  5  6  2  0
  6  7  1  0
  7  8  2  0
  7  9  1  0
  8 16  1  0
  9 10  2  0
 10 11  1  0
 10 15  1  0
 11 12  1  0
 11 13  1  0
 13 14  2  0
 14 15  1  0
 15 16  2  0
 16 17  1  0
  1 18  1  0
  2 19  1  0
  3 20  1  0
  5 21  1  0
 12 22  1  0
 12 23  1  0
 12 24  1  0
 14 25  1  0
 17 26  1  0
 17 27  1  0
M  END
>  <mol_id>  (65) 
2026-09-18-6fnk-s0-n100-r2-0065

>  <rmsd_to_ref>  (65) 
3.3928571428595053

>  <pose_kind>  (65) 
rigid

$$$$
6fnk.A
     RDKit          3D

 27 29  0  0  0  0  0  0  0  0999 V2000
    1.1423   16.8827   39.0316 C   0  0  0  0  0  0  0  0  0  0  0  0
    1.1188   16.7536   37.6542 C   0  0  0  0  0  0  0  0  0  0  0  0
    2.0686   17.4094   36.8870 C   0  0  0  0  0  0  0  0  0  0  0  0
    3.0091   18.1711   37.5144 N   0  0  0  0  0  0  0  0  0  0  0  0
    3.0234   18.2902   38.8545 C   0  0  0  0  0  0  0  0  0  0  0  0
    2.0859   17.6451   39.6387 C   0  0  0  0  0  0  0  0  0  0  0  0
    2.1628   17.8204   41.0880 C   0  0  0  0  0  0  0  0  0  0  0  0
    3.1485   18.6057   41.5864 N   0  0  0  0  0  0  0  0  0  0  0  0
    1.2828   17.2219   41.9124 N   0  0  0  0  0  0  0  0  0  0  0  0
    1.3347   17.3704   43.2638 C   0  0  0  0  0  0  0  0  0  0  0  0
    0.6095   16.9057   44.2962 N   0  0  0  0  0  0  0  0  0  0  0  0
   -0.5368   16.0282   44.1574 C   0  0  0  0  0  0  0  0  0  0  0  0
    1.1435   17.3969   45.3792 N   0  0  0  0  0  0  0  0  0  0  0  0
    2.2041   18.1781   45.1270 C   0  0  0  0  0  0  0  0  0  0  0  0
    2.3519   18.1784   43.7491 C   0  0  0  0  0  0  0  0  0  0  0  0
    3.2672   18.8042   42.9326 C   0  0  0  0  0  0  0  0  0  0  0  0
    4.3094   19.6340   43.4528 N   0  0  0  0  0  0  0  0  0  0  0  0
    0.4108   16.3796   39.6455 H   0  0  0  0  0  0  0  0  0  0  0  0
    0.3721   16.1491   37.1587 H   0  0  0  0  0  0  0  0  0  0  0  0
    2.0646   17.3188   35.8044 H   0  0  0  0  0  0  0  0  0  0  0  0
    3.7906   18.9052   39.2881 H   0  0  0  0  0  0  0  0  0  0  0  0
   -0.2238   15.1910   43.5137 H   0  0  0  0  0  0  0  0  0  0  0  0
   -1.3989   16.6025   43.7825 H   0  0  0  0  0  0  0  0  0  0  0  0
   -0.8059   15.5985   45.1450 H   0  0  0  0  0  0  0  0  0  0  0  0
    2.8461   18.7175   45.7970 H   0  0  0  0  0  0  0  0  0  0  0  0
    4.8825   19.3980   44.2751 H   0  0  0  0  0  0  0  0  0  0  0  0
    4.4581   20.5406   42.9166 H   0  0  0  0  0  0  0  0  0  0  0  0
  1  2  2  0
  1  6  1  0
  2  3  1  0
  3  4  2  0
  4  5  1  0
  5  6  2  0
  6  7  1  0
  7  8  2  0
  7  9  1  0
  8 16  1  0
  9 10  2  0
 10 11  1  0
 10 15  1  0
 11 12  1  0
 11 13  1  0
 13 14  2  0
 14 15  1  0
 15 16  2  0
 16 17  1  0
  1 18  1  0
  2 19  1  0
  3 20  1  0
  5 21  1  0
 12 22  1  0
 12 23  1  0
 12 24  1  0
 14 25  1  0
 17 26  1  0
 17 27  1  0
M  END
>  <mol_id>  (66) 
2026-09-18-6fnk-s0-n100-r2-0066

>  <rmsd_to_ref>  (66) 
3.4387755102049495

>  <pose_kind>  (66) 
conformer

$$$$
6fnk.A
     RDKit          3D

 27 29  0  0  0  0  0  0  0  0999 V2000
    2.1111   15.8973   43.8803 C   0  0  0  0  0  0  0  0  0  0  0  0
    2.8326   15.2905   44.9086 C   0  0  0  0  0  0  0  0  0  0  0  0
    2.7472   15.7869   46.2012 C   0  0  0  0  0  0  0  0  0  0  0  0
    1.9356   16.8919   46.4723 N   0  0  0  0  0  0  0  0  0  0  0  0
    1.2123   17.5011   45.4356 C   0  0  0  0  0  0  0  0  0  0  0  0
    1.2988   17.0045   44.1364 C   0  0  0  0  0  0  0  0  0  0  0  0
    0.5785   17.6153   43.1047 C   0  0  0  0  0  0  0  0  0  0  0  0
    0.7783   17.2707   41.8251 N   0  0  0  0  0  0  0  0  0  0  0  0
   -0.3295   18.5534   43.3921 N   0  0  0  0  0  0  0  0  0  0  0  0
   -1.0352   19.1691   42.4268 C   0  0  0  0  0  0  0  0  0  0  0  0
   -1.9690   20.1316   42.4699 N   0  0  0  0  0  0  0  0  0  0  0  0
   -2.4804   20.7817   43.6802 C   0  0  0  0  0  0  0  0  0  0  0  0
   -2.3624   20.4037   41.3348 N   0  0  0  0  0  0  0  0  0  0  0  0
   -1.7155   19.5942   40.4802 C   0  0  0  0  0  0  0  0  0  0  0  0
   -0.8520   18.8246   41.1560 C   0  0  0  0  0  0  0  0  0  0  0  0
    0.0636   17.8642   40.8513 C   0  0  0  0  0  0  0  0  0  0  0  0
    0.2785   17.4910   39.5664 N   0  0  0  0  0  0  0  0  0  0  0  0
    2.1827   15.4997   42.8572 H   0  0  0  0  0  0  0  0  0  0  0  0
    3.4687   14.4190   44.6947 H   0  0  0  0  0  0  0  0  0  0  0  0
    3.3180   15.3111   47.0123 H   0  0  0  0  0  0  0  0  0  0  0  0
    0.5758   18.3725   45.6489 H   0  0  0  0  0  0  0  0  0  0  0  0
   -2.4150   21.8737   43.5653 H   0  0  0  0  0  0  0  0  0  0  0  0
   -3.5299   20.4916   43.8366 H   0  0  0  0  0  0  0  0  0  0  0  0
   -1.8801   20.4675   44.5467 H   0  0  0  0  0  0  0  0  0  0  0  0
   -1.8711   19.5673   39.3916 H   0  0  0  0  0  0  0  0  0  0  0  0
   -0.2574   17.9321   38.8054 H   0  0  0  0  0  0  0  0  0  0  0  0
    0.9778   16.7661   39.3508 H   0  0  0  0  0  0  0  0  0  0  0  0
  1  2  2  0
  1  6  1  0
  2  3  1  0
  3  4  2  0
  4  5  1  0
  5  6  2  0
  6  7  1  0
  7  8  2  0
  7  9  1  0
  8 16  1  0
  9 10  2  0
 10 11  1  0
 10 15  1  0
 11 12  1  0
 11 13  1  0
 13 14  2  0
 14 15  1  0
 15 16  2  0
 16 17  1  0
  1 18  1  0
  2 19  1  0
  3 20  1  0
  5 21  1  0
 12 22  1  0
 12 23  1  0
 12 24  1  0
 14 25  1  0
 17 26  1  0
 17 27  1  0
M  END
>  <mol_id>  (67) 
2026-09-18-6fnk-s0-n100-r2-0067

>  <rmsd_to_ref>  (67) 
3.4846938775511713

>  <pose_kind>  (67) 
rigid

$$$$
6fnk.A
     RDKit          3D

 27 29  0  0  0  0  0  0  0  0999 V2000
    0.2003   16.1530   45.8631 C   0  0  0  0  0  0  0  0  0  0  0  0
   -0.0317   15.0741   46.6948 C   0  0  0  0  0  0  0  0  0  0  0  0
    0.1173   13.7752   46.2260 C   0  0  0  0  0  0  0  0  0  0  0  0
    0.4924   13.5506   44.9457 N   0  0  0  0  0  0  0  0  0  0  0  0
    0.7309   14.5886   44.0933 C   0  0  0  0  0  0  0  0  0  0  0  0
    0.5810   15.8777   44.5655 C   0  0  0  0  0  0  0  0  0  0  0  0
    0.8367   16.9916   43.6514 C   0  0  0  0  0  0  0  0  0  0  0  0
    1.2080   16.7868   42.3839 N   0  0  0  0  0  0  0  0  0  0  0  0
    0.7044   18.2655   44.0638 N   0  0  0  0  0  0  0  0  0  0  0  0
    0.9216   19.3293   43.2835 C   0  0  0  0  0  0  0  0  0  0  0  0
    0.8588   20.6630   43.4553 N   0  0  0  0  0  0  0  0  0  0  0  0
    0.4936   21.3426   44.6864 C   0  0  0  0  0  0  0  0  0  0  0  0
    1.1829   21.2299   42.3240 N   0  0  0  0  0  0  0  0  0  0  0  0
    1.4707   20.3216   41.3659 C   0  0  0  0  0  0  0  0  0  0  0  0
    1.3046   19.0805   41.9770 C   0  0  0  0  0  0  0  0  0  0  0  0
    1.4514   17.7860   41.5157 C   0  0  0  0  0  0  0  0  0  0  0  0
    1.8437   17.5296   40.1776 N   0  0  0  0  0  0  0  0  0  0  0  0
    0.0891   17.1848   46.2113 H   0  0  0  0  0  0  0  0  0  0  0  0
   -0.3289   15.2936   47.7076 H   0  0  0  0  0  0  0  0  0  0  0  0
   -0.0811   12.9825   46.9329 H   0  0  0  0  0  0  0  0  0  0  0  0
    1.0326   14.3760   43.0647 H   0  0  0  0  0  0  0  0  0  0  0  0
    1.2483   22.0969   44.9732 H   0  0  0  0  0  0  0  0  0  0  0  0
   -0.4694   21.8915   44.5272 H   0  0  0  0  0  0  0  0  0  0  0  0
    0.3892   20.6207   45.5163 H   0  0  0  0  0  0  0  0  0  0  0  0
    1.7686   20.4715   40.3384 H   0  0  0  0  0  0  0  0  0  0  0  0
    1.5625   18.2158   39.4403 H   0  0  0  0  0  0  0  0  0  0  0  0
    2.3950   16.6822   39.9418 H   0  0  0  0  0  0  0  0  0  0  0  0
  1  2  2  0
  1  6  1  0
  2  3  1  0
  3  4  2  0
  4  5  1  0
  5  6  2  0
  6  7  1  0
  7  8  2  0
  7  9  1  0
  8 16  1  0
  9 10  2  0
 10 11  1  0
 10 15  1  0
 11 12  1  0
 11 13  1  0
 13 14  2  0
 14 15  1  0
 15 16  2  0
 16 17  1  0
  1 18  1  0
  2 19  1  0
  3 20  1  0
  5 21  1  0
 12 22  1  0
 12 23  1  0
 12 24  1  0
 14 25  1  0
 17 26  1  0
 17 27  1  0
M  END
>  <mol_id>  (68) 
2026-09-18-6fnk-s0-n100-r2-0068

>  <rmsd_to_ref>  (68) 
3.5306122449000292

>  <pose_kind>  (68) 
conformer

$$$$
6fnk.A
     RDKit          3D

 27 29  0  0  0  0  0  0  0  0999 V2000
    2.5693   15.1343   42.4146 C   0  0  0  0  0  0  0  0  0  0  0  0
    3.3496   14.5511   43.4131 C   0  0  0  0  0  0  0  0  0  0  0  0
    3.4994   15.1885   44.6361 C   0  0  0  0  0  0  0  0  0  0  0  0
    2.8653   16.4122   44.8677 N   0  0  0  0  0  0  0  0  0  0  0  0
    2.0823   16.9972   43.8609 C   0  0  0  0  0  0  0  0  0  0  0  0
    1.9326   16.3587   42.6312 C   0  0  0  0  0  0  0  0  0  0  0  0
    1.1535   16.9453   41.6287 C   0  0  0  0  0  0  0  0  0  0  0  0
    1.1355   16.4441   40.3859 N   0  0  0  0  0  0  0  0  0  0  0  0
    0.4075   18.0188   41.9085 N   0  0  0  0  0  0  0  0  0  0  0  0
   -0.3477   18.6154   40.9690 C   0  0  0  0  0  0  0  0  0  0  0  0
   -1.1496   19.6904   41.0083 N   0  0  0  0  0  0  0  0  0  0  0  0
   -1.4125   20.5261   42.1837 C   0  0  0  0  0  0  0  0  0  0  0  0
   -1.6603   19.8897   39.9053 N   0  0  0  0  0  0  0  0  0  0  0  0
   -1.2340   18.9169   39.0831 C   0  0  0  0  0  0  0  0  0  0  0  0
   -0.3807   18.1173   39.7370 C   0  0  0  0  0  0  0  0  0  0  0  0
    0.3677   17.0191   39.4419 C   0  0  0  0  0  0  0  0  0  0  0  0
    0.3606   16.4870   38.1956 N   0  0  0  0  0  0  0  0  0  0  0  0
    2.4541   14.6246   41.4466 H   0  0  0  0  0  0  0  0  0  0  0  0
    3.8457   13.5864   43.2308 H   0  0  0  0  0  0  0  0  0  0  0  0
    4.1169   14.7310   45.4231 H   0  0  0  0  0  0  0  0  0  0  0  0
    1.5856   17.9617   44.0426 H   0  0  0  0  0  0  0  0  0  0  0  0
   -1.2379   21.5820   41.9293 H   0  0  0  0  0  0  0  0  0  0  0  0
   -2.4571   20.3934   42.5017 H   0  0  0  0  0  0  0  0  0  0  0  0
   -0.7397   20.2300   43.0020 H   0  0  0  0  0  0  0  0  0  0  0  0
   -1.5388   18.7953   38.0332 H   0  0  0  0  0  0  0  0  0  0  0  0
   -0.2197   16.9111   37.4579 H   0  0  0  0  0  0  0  0  0  0  0  0
    0.9356   15.6585   37.9860 H   0  0  0  0  0  0  0  0  0  0  0  0
  1  2  2  0
  1  6  1  0
  2  3  1  0
  3  4  2  0
  4  5  1  0
  5  6  2  0
  6  7  1  0
  7  8  2  0
  7  9  1  0
  8 16  1  0
  9 10  2  0
 10 11  1  0
 10 15  1  0
 11 12  1  0
 11 13  1  0
 13 14  2  0
 14 15  1  0
 15 16  2  0
 16 17  1  0
  1 18  1  0
  2 19  1  0
  3 20  1  0
  5 21  1  0
 12 22  1  0
 12 23  1  0
 12 24  1  0
 14 25  1  0
 17 26  1  0
 17 27  1  0
M  END
>  <mol_id>  (69) 
2026-09-18-6fnk-s0-n100-r2-0069

>  <rmsd_to_ref>  (69) 
3.576530612245972

>  <pose_kind>  (69) 
rigid

$$$$
6fnk.A
     RDKit          3D

 27 29  0  0  0  0  0  0  0  0999 V2000
    0.9323   15.9686   40.8223 C   0  0  0  0  0  0  0  0  0  0  0  0
   -0.2022   15.2096   40.6070 C   0  0  0  0  0  0  0  0  0  0  0  0
   -1.0671   14.9373   41.6480 C   0  0  0  0  0  0  0  0  0  0  0  0
   -0.8440   15.3969   42.9109 N   0  0  0  0  0  0  0  0  0  0  0  0
    0.2704   16.1470   43.1402 C   0  0  0  0  0  0  0  0  0  0  0  0
    1.1557   16.4325   42.1016 C   0  0  0  0  0  0  0  0  0  0  0  0
    2.3447   17.2366   42.3610 C   0  0  0  0  0  0  0  0  0  0  0  0
    3.2267   17.5360   41.3855 N   0  0  0  0  0  0  0  0  0  0  0  0
    2.5757   17.6998   43.6189 N   0  0  0  0  0  0  0  0  0  0  0  0
    3.6701   18.4422   43.8667 C   0  0  0  0  0  0  0  0  0  0  0  0
    4.1087   19.0065   45.0154 N   0  0  0  0  0  0  0  0  0  0  0  0
    3.4293   18.9110   46.2983 C   0  0  0  0  0  0  0  0  0  0  0  0
    5.2383   19.6535   44.8019 N   0  0  0  0  0  0  0  0  0  0  0  0
    5.5459   19.5096   43.4850 C   0  0  0  0  0  0  0  0  0  0  0  0
    4.5926   18.7612   42.8693 C   0  0  0  0  0  0  0  0  0  0  0  0
    4.3205   18.2721   41.6101 C   0  0  0  0  0  0  0  0  0  0  0  0
    5.2502   18.5830   40.5631 N   0  0  0  0  0  0  0  0  0  0  0  0
    1.6101   16.1790   39.9951 H   0  0  0  0  0  0  0  0  0  0  0  0
   -0.4014   14.8307   39.6036 H   0  0  0  0  0  0  0  0  0  0  0  0
   -1.9651   14.3470   41.5186 H   0  0  0  0  0  0  0  0  0  0  0  0
    0.4599   16.5225   44.1545 H   0  0  0  0  0  0  0  0  0  0  0  0
    3.2346   19.9095   46.7337 H   0  0  0  0  0  0  0  0  0  0  0  0
    4.0349   18.3396   47.0379 H   0  0  0  0  0  0  0  0  0  0  0  0
    2.4751   18.3900   46.2144 H   0  0  0  0  0  0  0  0  0  0  0  0
    6.4108   19.9180   42.9801 H   0  0  0  0  0  0  0  0  0  0  0  0
    6.2367   18.2243   40.6144 H   0  0  0  0  0  0  0  0  0  0  0  0
    4.9585   19.1747   39.7285 H   0  0  0  0  0  0  0  0  0  0  0  0
  1  2  2  0
  1  6  1  0
  2  3  1  0
  3  4  2  0
  4  5  1  0
  5  6  2  0
  6  7  1  0
  7  8  2  0
  7  9  1  0
  8 16  1  0
  9 10  2  0
 10 11  1  0
 10 15  1  0
 11 12  1  0
 11 13  1  0
 13 14  2  0
 14 15  1  0
 15 16  2  0
 16 17  1  0
  1 18  1  0
  2 19  1  0
  3 20  1  0
  5 21  1  0
 12 22  1  0
 12 23  1  0
 12 24  1  0
 14 25  1  0
 17 26  1  0
 17 27  1  0
M  END
>  <mol_id>  (70) 
2026-09-18-6fnk-s0-n100-r2-0070

>  <rmsd_to_ref>  (70) 
3.622448979593125

>  <pose_kind>  (70) 
conformer

$$$$
6fnk.A
     RDKit          3D

 27 29  0  0  0  0  0  0  0  0999 V2000
    3.6298   19.8646   42.6066 C   0  0  0  0  0  0  0  0  0  0  0  0
    4.9984   20.0471   42.8057 C   0  0  0  0  0  0  0  0  0  0  0  0
    5.6075   19.5348   43.9420 C   0  0  0  0  0  0  0  0  0  0  0  0
    4.8499   18.8332   44.8839 N   0  0  0  0  0  0  0  0  0  0  0  0
    3.4732   18.6526   44.6816 C   0  0  0  0  0  0  0  0  0  0  0  0
    2.8599   19.1684   43.5415 C   0  0  0  0  0  0  0  0  0  0  0  0
    1.4870   18.9888   43.3438 C   0  0  0  0  0  0  0  0  0  0  0  0
    0.8437   19.6204   42.3522 N   0  0  0  0  0  0  0  0  0  0  0  0
    0.8004   18.1711   44.1482 N   0  0  0  0  0  0  0  0  0  0  0  0
   -0.5220   17.9798   43.9947 C   0  0  0  0  0  0  0  0  0  0  0  0
   -1.4083   17.2361   44.6741 N   0  0  0  0  0  0  0  0  0  0  0  0
   -1.1119   16.3865   45.8314 C   0  0  0  0  0  0  0  0  0  0  0  0
   -2.5334   17.3506   44.1861 N   0  0  0  0  0  0  0  0  0  0  0  0
   -2.4298   18.1657   43.1235 C   0  0  0  0  0  0  0  0  0  0  0  0
   -1.1654   18.5928   43.0060 C   0  0  0  0  0  0  0  0  0  0  0  0
   -0.4755   19.4212   42.1747 C   0  0  0  0  0  0  0  0  0  0  0  0
   -1.1001   20.0649   41.1589 N   0  0  0  0  0  0  0  0  0  0  0  0
    3.1519   20.2731   41.7040 H   0  0  0  0  0  0  0  0  0  0  0  0
    5.5942   20.5968   42.0623 H   0  0  0  0  0  0  0  0  0  0  0  0
    6.6860   19.6807   44.1015 H   0  0  0  0  0  0  0  0  0  0  0  0
    2.8769   18.1026   45.4245 H   0  0  0  0  0  0  0  0  0  0  0  0
   -1.8003   16.6331   46.6532 H   0  0  0  0  0  0  0  0  0  0  0  0
   -1.2375   15.3299   45.5524 H   0  0  0  0  0  0  0  0  0  0  0  0
   -0.0754   16.5591   46.1570 H   0  0  0  0  0  0  0  0  0  0  0  0
   -3.2567   18.4405   42.4522 H   0  0  0  0  0  0  0  0  0  0  0  0
   -2.1091   19.9270   41.0049 H   0  0  0  0  0  0  0  0  0  0  0  0
   -0.5658   20.6921   40.5407 H   0  0  0  0  0  0  0  0  0  0  0  0
  1  2  2  0
  1  6  1  0
  2  3  1  0
  3  4  2  0
  4  5  1  0
  5  6  2  0
  6  7  1  0
  7  8  2  0
  7  9  1  0
  8 16  1  0
  9 10  2  0
 10 11  1  0
 10 15  1  0
 11 12  1  0
 11 13  1  0
 13 14  2  0
 14 15  1  0
 15 16  2  0
 16 17  1  0
  1 18  1  0
  2 19  1  0
  3 20  1  0
  5 21  1  0
 12 22  1  0
 12 23  1  0
 12 24  1  0
 14 25  1  0
 17 26  1  0
 17 27  1  0
M  END
>  <mol_id>  (71) 
2026-09-18-6fnk-s0-n100-r2-0071

>  <rmsd_to_ref>  (71) 
3.668367346940632

>  <pose_kind>  (71) 
rigid

$$$$
6fnk.A
     RDKit          3D

 27 29  0  0  0  0  0  0  0  0999 V2000
    1.7213   14.7608   42.6958 C   0  0  0  0  0  0  0  0  0  0  0  0
    1.5800   13.6648   43.5433 C   0  0  0  0  0  0  0  0  0  0  0  0
    2.1115   13.7435   44.8292 C   0  0  0  0  0  0  0  0  0  0  0  0
    2.7524   14.8527   45.2575 N   0  0  0  0  0  0  0  0  0  0  0  0
    2.8871   15.9100   44.4358 C   0  0  0  0  0  0  0  0  0  0  0  0
    2.3841   15.9107   43.1357 C   0  0  0  0  0  0  0  0  0  0  0  0
    2.5324   17.0568   42.2506 C   0  0  0  0  0  0  0  0  0  0  0  0
    2.0253   17.0096   40.9931 N   0  0  0  0  0  0  0  0  0  0  0  0
    3.1798   18.1360   42.7289 N   0  0  0  0  0  0  0  0  0  0  0  0
    3.3323   19.2173   41.9266 C   0  0  0  0  0  0  0  0  0  0  0  0
    3.9289   20.3946   42.1651 N   0  0  0  0  0  0  0  0  0  0  0  0
    4.5750   20.7956   43.3904 C   0  0  0  0  0  0  0  0  0  0  0  0
    3.8221   21.1459   41.0578 N   0  0  0  0  0  0  0  0  0  0  0  0
    3.1550   20.4418   40.1136 C   0  0  0  0  0  0  0  0  0  0  0  0
    2.8292   19.2059   40.6397 C   0  0  0  0  0  0  0  0  0  0  0  0
    2.1767   18.0837   40.1959 C   0  0  0  0  0  0  0  0  0  0  0  0
    1.6558   18.0475   38.8902 N   0  0  0  0  0  0  0  0  0  0  0  0
    1.3062   14.6843   41.7083 H   0  0  0  0  0  0  0  0  0  0  0  0
    1.0620   12.7552   43.2118 H   0  0  0  0  0  0  0  0  0  0  0  0
    2.0091   12.9007   45.4969 H   0  0  0  0  0  0  0  0  0  0  0  0
    3.4122   16.8058   44.8009 H   0  0  0  0  0  0  0  0  0  0  0  0
    3.9264   21.5290   43.8931 H   0  0  0  0  0  0  0  0  0  0  0  0
    5.5312   21.3015   43.1277 H   0  0  0  0  0  0  0  0  0  0  0  0
    4.8260   19.9069   44.0027 H   0  0  0  0  0  0  0  0  0  0  0  0
    2.8934   20.7338   39.1150 H   0  0  0  0  0  0  0  0  0  0  0  0
    0.6708   18.3403   38.7102 H   0  0  0  0  0  0  0  0  0  0  0  0
    2.3081   17.7145   38.1284 H   0  0  0  0  0  0  0  0  0  0  0  0
  1  2  2  0
  1  6  1  0
  2  3  1  0
  3  4  2  0
  4  5  1  0
  5  6  2  0
  6  7  1  0
  7  8  2  0
  7  9  1  0
  8 16  1  0
  9 10  2  0
 10 11  1  0
 10 15  1  0
 11 12  1  0
 11 13  1  0
 13 14  2  0
 14 15  1  0
 15 16  2  0
 16 17  1  0
  1 18  1  0
  2 19  1  0
  3 20  1  0
  5 21  1  0
 12 22  1  0
 12 23  1  0
 12 24  1  0
 14 25  1  0
 17 26  1  0
 17 27  1  0
M  END
>  <mol_id>  (72) 
2026-09-18-6fnk-s0-n100-r2-0072

>  <rmsd_to_ref>  (72) 
3.7142857142888284

>  <pose_kind>  (72) 
conformer

$$$$
6fnk.A
     RDKit          3D

 27 29  0  0  0  0  0  0  0  0999 V2000
    1.6401   14.4656   43.7270 C   0  0  0  0  0  0  0  0  0  0  0  0
    1.4630   13.5675   44.7797 C   0  0  0  0  0  0  0  0  0  0  0  0
    0.3978   13.7264   45.6540 C   0  0  0  0  0  0  0  0  0  0  0  0
   -0.4987   14.7839   45.4770 N   0  0  0  0  0  0  0  0  0  0  0  0
   -0.3170   15.6866   44.4182 C   0  0  0  0  0  0  0  0  0  0  0  0
    0.7538   15.5291   43.5403 C   0  0  0  0  0  0  0  0  0  0  0  0
    0.9336   16.4318   42.4872 C   0  0  0  0  0  0  0  0  0  0  0  0
    2.0454   16.4076   41.7393 N   0  0  0  0  0  0  0  0  0  0  0  0
   -0.0164   17.3312   42.2124 N   0  0  0  0  0  0  0  0  0  0  0  0
    0.1243   18.2208   41.2137 C   0  0  0  0  0  0  0  0  0  0  0  0
   -0.6690   19.2073   40.7690 N   0  0  0  0  0  0  0  0  0  0  0  0
   -1.9826   19.5667   41.3116 C   0  0  0  0  0  0  0  0  0  0  0  0
   -0.1471   19.7854   39.8148 N   0  0  0  0  0  0  0  0  0  0  0  0
    1.0214   19.1724   39.5635 C   0  0  0  0  0  0  0  0  0  0  0  0
    1.2185   18.1957   40.4591 C   0  0  0  0  0  0  0  0  0  0  0  0
    2.1893   17.2787   40.7234 C   0  0  0  0  0  0  0  0  0  0  0  0
    3.3191   17.2270   39.9768 N   0  0  0  0  0  0  0  0  0  0  0  0
    2.4866   14.3350   43.0368 H   0  0  0  0  0  0  0  0  0  0  0  0
    2.1675   12.7339   44.9163 H   0  0  0  0  0  0  0  0  0  0  0  0
    0.2588   13.0206   46.4862 H   0  0  0  0  0  0  0  0  0  0  0  0
   -1.0213   16.5203   44.2808 H   0  0  0  0  0  0  0  0  0  0  0  0
   -2.0066   20.6445   41.5303 H   0  0  0  0  0  0  0  0  0  0  0  0
   -2.7624   19.3246   40.5746 H   0  0  0  0  0  0  0  0  0  0  0  0
   -2.1643   19.0006   42.2371 H   0  0  0  0  0  0  0  0  0  0  0  0
    1.7112   19.4327   38.7472 H   0  0  0  0  0  0  0  0  0  0  0  0
    3.4499   17.8842   39.1946 H   0  0  0  0  0  0  0  0  0  0  0  0
    4.0469   16.5306   40.1916 H   0  0  0  0  0  0  0  0  0  0  0  0
  1  2  2  0
  1  6  1  0
  2  3  1  0
  3  4  2  0
  4  5  1  0
  5  6  2  0
  6  7  1  0
  7  8  2  0
  7  9  1  0
  8 16  1  0
  9 10  2  0
 10 11  1  0
 10 15  1  0
 11 12  1  0
 11 13  1  0
 13 14  2  0
 14 15  1  0
 15 16  2  0
 16 17  1  0
  1 18  1  0
  2 19  1  0
  3 20  1  0
  5 21  1  0
 12 22  1  0
 12 23  1  0
 12 24  1  0
 14 25  1  0
 17 26  1  0
 17 27  1  0
M  END
>  <mol_id>  (73) 
2026-09-18-6fnk-s0-n100-r2-0073

>  <rmsd_to_ref>  (73) 
3.76020408163336

>  <pose_kind>  (73) 
rigid

$$$$
6fnk.A
     RDKit          3D

 27 29  0  0  0  0  0  0  0  0999 V2000
    2.7119   14.2852   41.8261 C   0  0  0  0  0  0  0  0  0  0  0  0
    3.7789   13.5885   41.2978 C   0  0  0  0  0  0  0  0  0  0  0  0
    4.0259   13.6430   39.9291 C   0  0  0  0  0  0  0  0  0  0  0  0
    3.2468   14.3637   39.0903 N   0  0  0  0  0  0  0  0  0  0  0  0
    2.2041   15.0409   39.6282 C   0  0  0  0  0  0  0  0  0  0  0  0
    1.9149   15.0214   40.9746 C   0  0  0  0  0  0  0  0  0  0  0  0
    0.7857   15.7601   41.5265 C   0  0  0  0  0  0  0  0  0  0  0  0
    0.4828   15.7554   42.8460 N   0  0  0  0  0  0  0  0  0  0  0  0
    0.0042   16.4844   40.6775 N   0  0  0  0  0  0  0  0  0  0  0  0
   -1.0522   17.1887   41.1167 C   0  0  0  0  0  0  0  0  0  0  0  0
   -1.9664   17.9741   40.4810 N   0  0  0  0  0  0  0  0  0  0  0  0
   -2.0051   18.2494   39.0563 C   0  0  0  0  0  0  0  0  0  0  0  0
   -2.8161   18.4425   41.4016 N   0  0  0  0  0  0  0  0  0  0  0  0
   -2.4717   17.9752   42.6312 C   0  0  0  0  0  0  0  0  0  0  0  0
   -1.3410   17.1690   42.4629 C   0  0  0  0  0  0  0  0  0  0  0  0
   -0.5640   16.4454   43.3277 C   0  0  0  0  0  0  0  0  0  0  0  0
   -0.8636   16.4245   44.7267 N   0  0  0  0  0  0  0  0  0  0  0  0
    2.5305   14.2369   42.8797 H   0  0  0  0  0  0  0  0  0  0  0  0
    4.4335   12.9984   41.9132 H   0  0  0  0  0  0  0  0  0  0  0  0
    4.8715   13.0929   39.4982 H   0  0  0  0  0  0  0  0  0  0  0  0
    1.5328   15.6443   39.0066 H   0  0  0  0  0  0  0  0  0  0  0  0
   -1.8275   17.3086   38.5043 H   0  0  0  0  0  0  0  0  0  0  0  0
   -3.0164   18.6118   38.8135 H   0  0  0  0  0  0  0  0  0  0  0  0
   -1.2798   19.0231   38.7416 H   0  0  0  0  0  0  0  0  0  0  0  0
   -2.9644   18.1748   43.5807 H   0  0  0  0  0  0  0  0  0  0  0  0
   -1.1221   15.5540   45.2330 H   0  0  0  0  0  0  0  0  0  0  0  0
   -0.8034   17.3566   45.2087 H   0  0  0  0  0  0  0  0  0  0  0  0
  1  2  2  0
  1  6  1  0
  2  3  1  0
  3  4  2  0
  4  5  1  0
  5  6  2  0
  6  7  1  0
  7  8  2  0
  7  9  1  0
  8 16  1  0
  9 10  2  0
 10 11  1  0
 10 15  1  0
 11 12  1  0
 11 13  1  0
 13 14  2  0
 14 15  1  0
 15 16  2  0
 16 17  1  0
  1 18  1  0
  2 19  1  0
  3 20  1  0
  5 21  1  0
 12 22  1  0
 12 23  1  0
 12 24  1  0
 14 25  1  0
 17 26  1  0
 17 27  1  0
M  END
>  <mol_id>  (74) 
2026-09-18-6fnk-s0-n100-r2-0074

>  <rmsd_to_ref>  (74) 
3.806122448982115

>  <pose_kind>  (74) 
conformer

$$$$
6fnk.A
     RDKit          3D

 27 29  0  0  0  0  0  0  0  0999 V2000
    0.2758   16.1686   44.3723 C   0  0  0  0  0  0  0  0  0  0  0  0
    0.7405   15.2463   45.3100 C   0  0  0  0  0  0  0  0  0  0  0  0
    1.7051   15.6230   46.2331 C   0  0  0  0  0  0  0  0  0  0  0  0
    2.2074   16.9272   46.2248 N   0  0  0  0  0  0  0  0  0  0  0  0
    1.7392   17.8523   45.2793 C   0  0  0  0  0  0  0  0  0  0  0  0
    0.7716   17.4744   44.3503 C   0  0  0  0  0  0  0  0  0  0  0  0
    0.3086   18.3980   43.4076 C   0  0  0  0  0  0  0  0  0  0  0  0
   -0.4860   18.0153   42.3985 N   0  0  0  0  0  0  0  0  0  0  0  0
    0.6544   19.6851   43.5117 N   0  0  0  0  0  0  0  0  0  0  0  0
    0.2361   20.6007   42.6198 C   0  0  0  0  0  0  0  0  0  0  0  0
    0.4609   21.9190   42.5109 N   0  0  0  0  0  0  0  0  0  0  0  0
    1.2769   22.7311   43.4184 C   0  0  0  0  0  0  0  0  0  0  0  0
   -0.1272   22.3787   41.5312 N   0  0  0  0  0  0  0  0  0  0  0  0
   -0.8045   21.3698   40.9588 C   0  0  0  0  0  0  0  0  0  0  0  0
   -0.5624   20.2318   41.6230 C   0  0  0  0  0  0  0  0  0  0  0  0
   -0.9288   18.9254   41.5113 C   0  0  0  0  0  0  0  0  0  0  0  0
   -1.7385   18.5138   40.5057 N   0  0  0  0  0  0  0  0  0  0  0  0
   -0.4889   15.8644   43.6425 H   0  0  0  0  0  0  0  0  0  0  0  0
    0.3423   14.2209   45.3176 H   0  0  0  0  0  0  0  0  0  0  0  0
    2.0744   14.8957   46.9711 H   0  0  0  0  0  0  0  0  0  0  0  0
    2.1368   18.8779   45.2714 H   0  0  0  0  0  0  0  0  0  0  0  0
    2.0127   23.3047   42.8358 H   0  0  0  0  0  0  0  0  0  0  0  0
    0.6280   23.4244   43.9737 H   0  0  0  0  0  0  0  0  0  0  0  0
    1.8021   22.0737   44.1269 H   0  0  0  0  0  0  0  0  0  0  0  0
   -1.4581   21.4637   40.0790 H   0  0  0  0  0  0  0  0  0  0  0  0
   -2.0889   19.1934   39.8156 H   0  0  0  0  0  0  0  0  0  0  0  0
   -2.0036   17.5212   40.4314 H   0  0  0  0  0  0  0  0  0  0  0  0
  1  2  2  0
  1  6  1  0
  2  3  1  0
  3  4  2  0
  4  5  1  0
  5  6  2  0
  6  7  1  0
  7  8  2  0
  7  9  1  0
  8 16  1  0
  9 10  2  0
 10 11  1  0
 10 15  1  0
 11 12  1  0
 11 13  1  0
 13 14  2  0
 14 15  1  0
 15 16  2  0
 16 17  1  0
  1 18  1  0
  2 19  1  0
  3 20  1  0
  5 21  1  0
 12 22  1  0
 12 23  1  0
 12 24  1  0
 14 25  1  0
 17 26  1  0
 17 27  1  0
M  END
>  <mol_id>  (75) 
2026-09-18-6fnk-s0-n100-r2-0075

>  <rmsd_to_ref>  (75) 
3.8520408163291235

>  <pose_kind>  (75) 
rigid

$$$$
6fnk.A
     RDKit          3D

 27 29  0  0  0  0  0  0  0  0999 V2000
    0.2987   16.5243   41.0151 C   0  0  0  0  0  0  0  0  0  0  0  0
   -0.7904   15.7013   41.2310 C   0  0  0  0  0  0  0  0  0  0  0  0
   -1.3301   15.5937   42.5021 C   0  0  0  0  0  0  0  0  0  0  0  0
   -0.8174   16.2795   43.5573 N   0  0  0  0  0  0  0  0  0  0  0  0
    0.2560   17.0975   43.3715 C   0  0  0  0  0  0  0  0  0  0  0  0
    0.8052   17.2156   42.1114 C   0  0  0  0  0  0  0  0  0  0  0  0
    1.9540   18.0795   41.8673 C   0  0  0  0  0  0  0  0  0  0  0  0
    2.5205   18.2229   40.6511 N   0  0  0  0  0  0  0  0  0  0  0  0
    2.5089   18.7859   42.8706 N   0  0  0  0  0  0  0  0  0  0  0  0
    3.5637   19.5906   42.6911 C   0  0  0  0  0  0  0  0  0  0  0  0
    4.2569   20.3687   43.5390 N   0  0  0  0  0  0  0  0  0  0  0  0
    3.9759   20.5069   44.9539 C   0  0  0  0  0  0  0  0  0  0  0  0
    5.2358   20.9829   42.8586 N   0  0  0  0  0  0  0  0  0  0  0  0
    5.1885   20.6131   41.5725 C   0  0  0  0  0  0  0  0  0  0  0  0
    4.1363   19.7296   41.4387 C   0  0  0  0  0  0  0  0  0  0  0  0
    3.5775   19.0138   40.4112 C   0  0  0  0  0  0  0  0  0  0  0  0
    4.1431   19.1359   39.1155 N   0  0  0  0  0  0  0  0  0  0  0  0
    0.7322   16.6245   40.0475 H   0  0  0  0  0  0  0  0  0  0  0  0
   -1.1995   15.1514   40.3782 H   0  0  0  0  0  0  0  0  0  0  0  0
   -2.1816   14.9321   42.5998 H   0  0  0  0  0  0  0  0  0  0  0  0
    0.6594   17.6437   44.2274 H   0  0  0  0  0  0  0  0  0  0  0  0
    3.0370   21.0628   45.1209 H   0  0  0  0  0  0  0  0  0  0  0  0
    4.7877   21.0819   45.4569 H   0  0  0  0  0  0  0  0  0  0  0  0
    3.9741   19.4863   45.4160 H   0  0  0  0  0  0  0  0  0  0  0  0
    5.8346   20.9311   40.7846 H   0  0  0  0  0  0  0  0  0  0  0  0
    3.6670   19.7828   38.4515 H   0  0  0  0  0  0  0  0  0  0  0  0
    5.0012   18.6069   38.8217 H   0  0  0  0  0  0  0  0  0  0  0  0
  1  2  2  0
  1  6  1  0
  2  3  1  0
  3  4  2  0
  4  5  1  0
  5  6  2  0
  6  7  1  0
  7  8  2  0
  7  9  1  0
  8 16  1  0
  9 10  2  0
 10 11  1  0
 10 15  1  0
 11 12  1  0
 11 13  1  0
 13 14  2  0
 14 15  1  0
 15 16  2  0
 16 17  1  0
  1 18  1  0
  2 19  1  0
  3 20  1  0
  5 21  1  0
 12 22  1  0
 12 23  1  0
 12 24  1  0
 14 25  1  0
 17 26  1  0
 17 27  1  0
M  END
>  <mol_id>  (76) 
2026-09-18-6fnk-s0-n100-r2-0076

>  <rmsd_to_ref>  (76) 
3.8979591836746144

>  <pose_kind>  (76) 
conformer

$$$$
6fnk.A
     RDKit          3D

 27 29  0  0  0  0  0  0  0  0999 V2000
    3.8671   14.5405   44.4286 C   0  0  0  0  0  0  0  0  0  0  0  0
    4.7262   13.5368   44.8764 C   0  0  0  0  0  0  0  0  0  0  0  0
    6.0990   13.7323   44.8388 C   0  0  0  0  0  0  0  0  0  0  0  0
    6.6196   14.9361   44.3560 N   0  0  0  0  0  0  0  0  0  0  0  0
    5.7530   15.9433   43.9048 C   0  0  0  0  0  0  0  0  0  0  0  0
    4.3737   15.7473   43.9403 C   0  0  0  0  0  0  0  0  0  0  0  0
    3.5125   16.7521   43.4878 C   0  0  0  0  0  0  0  0  0  0  0  0
    2.1993   16.5244   43.3472 N   0  0  0  0  0  0  0  0  0  0  0  0
    3.9983   17.9626   43.1951 N   0  0  0  0  0  0  0  0  0  0  0  0
    3.2030   18.9513   42.7491 C   0  0  0  0  0  0  0  0  0  0  0  0
    3.4593   20.2164   42.3833 N   0  0  0  0  0  0  0  0  0  0  0  0
    4.7734   20.8661   42.3929 C   0  0  0  0  0  0  0  0  0  0  0  0
    2.4231   20.7851   42.0369 N   0  0  0  0  0  0  0  0  0  0  0  0
    1.4141   19.9123   42.1928 C   0  0  0  0  0  0  0  0  0  0  0  0
    1.8974   18.7375   42.6186 C   0  0  0  0  0  0  0  0  0  0  0  0
    1.3893   17.5115   42.9219 C   0  0  0  0  0  0  0  0  0  0  0  0
    0.0640   17.2577   42.7972 N   0  0  0  0  0  0  0  0  0  0  0  0
    2.7793   14.3800   44.4604 H   0  0  0  0  0  0  0  0  0  0  0  0
    4.3152   12.5909   45.2590 H   0  0  0  0  0  0  0  0  0  0  0  0
    6.7775   12.9404   45.1889 H   0  0  0  0  0  0  0  0  0  0  0  0
    6.1632   16.8896   43.5224 H   0  0  0  0  0  0  0  0  0  0  0  0
    4.9643   21.3219   41.4101 H   0  0  0  0  0  0  0  0  0  0  0  0
    4.7912   21.6460   43.1684 H   0  0  0  0  0  0  0  0  0  0  0  0
    5.5508   20.1180   42.6073 H   0  0  0  0  0  0  0  0  0  0  0  0
    0.3529   20.1289   42.0002 H   0  0  0  0  0  0  0  0  0  0  0  0
   -0.5741   17.9986   42.4734 H   0  0  0  0  0  0  0  0  0  0  0  0
   -0.3053   16.3238   43.0261 H   0  0  0  0  0  0  0  0  0  0  0  0
  1  2  2  0
  1  6  1  0
  2  3  1  0
  3  4  2  0
  4  5  1  0
  5  6  2  0
  6  7  1  0
  7  8  2  0
  7  9  1  0
  8 16  1  0
  9 10  2  0
 10 11  1  0
 10 15  1  0
 11 12  1  0
 11 13  1  0
 13 14  2  0
 14 15  1  0
 15 16  2  0
 16 17  1  0
  1 18  1  0
  2 19  1  0
  3 20  1  0
  5 21  1  0
 12 22  1  0
 12 23  1  0
 12 24  1  0
 14 25  1  0
 17 26  1  0
 17 27  1  0
M  END
>  <mol_id>  (77) 
2026-09-18-6fnk-s0-n100-r2-0077

>  <rmsd_to_ref>  (77) 
3.943877551023188

>  <pose_kind>  (77) 
rigid

$$$$
6fnk.A
     RDKit          3D

 27 29  0  0  0  0  0  0  0  0999 V2000
   -1.3995   17.2232   43.3203 C   0  0  0  0  0  0  0  0  0  0  0  0
   -2.5468   16.6069   42.8399 C   0  0  0  0  0  0  0  0  0  0  0  0
   -2.9868   16.8815   41.5468 C   0  0  0  0  0  0  0  0  0  0  0  0
   -2.3356   17.7327   40.7316 N   0  0  0  0  0  0  0  0  0  0  0  0
   -1.2117   18.3452   41.1833 C   0  0  0  0  0  0  0  0  0  0  0  0
   -0.7593   18.0869   42.4605 C   0  0  0  0  0  0  0  0  0  0  0  0
    0.4530   18.7632   42.9138 C   0  0  0  0  0  0  0  0  0  0  0  0
    1.1086   19.6179   42.0979 N   0  0  0  0  0  0  0  0  0  0  0  0
    0.9449   18.5507   44.1543 N   0  0  0  0  0  0  0  0  0  0  0  0
    2.0703   19.1734   44.5864 C   0  0  0  0  0  0  0  0  0  0  0  0
    2.7283   19.1050   45.7773 N   0  0  0  0  0  0  0  0  0  0  0  0
    2.3809   18.3227   46.9243 C   0  0  0  0  0  0  0  0  0  0  0  0
    3.7950   19.9129   45.7143 N   0  0  0  0  0  0  0  0  0  0  0  0
    3.8233   20.4936   44.4991 C   0  0  0  0  0  0  0  0  0  0  0  0
    2.7423   20.0397   43.7713 C   0  0  0  0  0  0  0  0  0  0  0  0
    2.2432   20.2591   42.5044 C   0  0  0  0  0  0  0  0  0  0  0  0
    2.9338   21.1644   41.6343 N   0  0  0  0  0  0  0  0  0  0  0  0
   -1.0251   17.0394   44.3122 H   0  0  0  0  0  0  0  0  0  0  0  0
   -3.0985   15.9128   43.4716 H   0  0  0  0  0  0  0  0  0  0  0  0
   -3.8836   16.3700   41.2357 H   0  0  0  0  0  0  0  0  0  0  0  0
   -0.6876   19.0292   40.5296 H   0  0  0  0  0  0  0  0  0  0  0  0
    3.0032   17.4039   46.9218 H   0  0  0  0  0  0  0  0  0  0  0  0
    2.4833   18.8815   47.8721 H   0  0  0  0  0  0  0  0  0  0  0  0
    1.3111   17.9948   46.7933 H   0  0  0  0  0  0  0  0  0  0  0  0
    4.5662   21.1991   44.1453 H   0  0  0  0  0  0  0  0  0  0  0  0
    3.9419   20.9895   41.3602 H   0  0  0  0  0  0  0  0  0  0  0  0
    2.4642   22.0262   41.2426 H   0  0  0  0  0  0  0  0  0  0  0  0
  1  2  2  0
  1  6  1  0
  2  3  1  0
  3  4  2  0
  4  5  1  0
  5  6  2  0
  6  7  1  0
  7  8  2  0
  7  9  1  0
  8 16  1  0
  9 10  2  0
 10 11  1  0
 10 15  1  0
 11 12  1  0
 11 13  1  0
 13 14  2  0
 14 15  1  0
 15 16  2  0
 16 17  1  0
  1 18  1  0
  2 19  1  0
  3 20  1  0
  5 21  1  0
 12 22  1  0
 12 23  1  0
 12 24  1  0
 14 25  1  0
 17 26  1  0
 17 27  1  0
M  END
>  <mol_id>  (78) 
2026-09-18-6fnk-s0-n100-r2-0078

>  <rmsd_to_ref>  (78) 
3.9897959183702616

>  <pose_kind>  (78) 
conformer

$$$$
6fnk.A
     RDKit          3D

 27 29  0  0  0  0  0  0  0  0999 V2000
    0.3768   17.8232   38.6480 C   0  0  0  0  0  0  0  0  0  0  0  0
    0.3618   17.6855   37.2599 C   0  0  0  0  0  0  0  0  0  0  0  0
    1.4082   17.0409   36.6164 C   0  0  0  0  0  0  0  0  0  0  0  0
    2.4743   16.5271   37.3600 N   0  0  0  0  0  0  0  0  0  0  0  0
    2.4873   16.6686   38.7559 C   0  0  0  0  0  0  0  0  0  0  0  0
    1.4375   17.3176   39.4033 C   0  0  0  0  0  0  0  0  0  0  0  0
    1.4544   17.4591   40.7946 C   0  0  0  0  0  0  0  0  0  0  0  0
    0.5525   18.2269   41.4216 N   0  0  0  0  0  0  0  0  0  0  0  0
    2.3774   16.8167   41.5175 N   0  0  0  0  0  0  0  0  0  0  0  0
    2.4308   16.9351   42.8562 C   0  0  0  0  0  0  0  0  0  0  0  0
    3.2580   16.4112   43.7735 N   0  0  0  0  0  0  0  0  0  0  0  0
    4.3826   15.5102   43.5042 C   0  0  0  0  0  0  0  0  0  0  0  0
    2.9419   16.7837   44.9042 N   0  0  0  0  0  0  0  0  0  0  0  0
    1.8517   17.5588   44.7820 C   0  0  0  0  0  0  0  0  0  0  0  0
    1.5323   17.6848   43.4870 C   0  0  0  0  0  0  0  0  0  0  0  0
    0.5819   18.3369   42.7627 C   0  0  0  0  0  0  0  0  0  0  0  0
   -0.3472   19.1123   43.3726 N   0  0  0  0  0  0  0  0  0  0  0  0
   -0.4554   18.3354   39.1531 H   0  0  0  0  0  0  0  0  0  0  0  0
   -0.4791   18.0876   36.6760 H   0  0  0  0  0  0  0  0  0  0  0  0
    1.3990   16.9343   35.5217 H   0  0  0  0  0  0  0  0  0  0  0  0
    3.3278   16.2664   39.3405 H   0  0  0  0  0  0  0  0  0  0  0  0
    5.2909   15.9039   43.9838 H   0  0  0  0  0  0  0  0  0  0  0  0
    4.1577   14.5122   43.9084 H   0  0  0  0  0  0  0  0  0  0  0  0
    4.5430   15.4384   42.4183 H   0  0  0  0  0  0  0  0  0  0  0  0
    1.3048   18.0198   45.6177 H   0  0  0  0  0  0  0  0  0  0  0  0
   -0.3431   19.2106   44.3979 H   0  0  0  0  0  0  0  0  0  0  0  0
   -1.0574   19.6033   42.8110 H   0  0  0  0  0  0  0  0  0  0  0  0
  1  2  2  0
  1  6  1  0
  2  3  1  0
  3  4  2  0
  4  5  1  0
  5  6  2  0
  6  7  1  0
  7  8  2  0
  7  9  1  0
  8 16  1  0
  9 10  2  0
 10 11  1  0
 10 15  1  0
 11 12  1  0
 11 13  1  0
 13 14  2  0
 14 15  1  0
 15 16  2  0
 16 17  1  0
  1 18  1  0
  2 19  1  0
  3 20  1  0
  5 21  1  0
 12 22  1  0
 12 23  1  0
 12 24  1  0
 14 25  1  0
 17 26  1  0
 17 27  1  0
M  END
>  <mol_id>  (79) 
2026-09-18-6fnk-s0-n100-r2-0079

>  <rmsd_to_ref>  (79) 
4.035714285719278

>  <pose_kind>  (79) 
rigid

$$$$
6fnk.A
     RDKit          3D

 27 29  0  0  0  0  0  0  0  0999 V2000
    2.3728   16.3098   45.6433 C   0  0  0  0  0  0  0  0  0  0  0  0
    3.3884   16.3215   46.5752 C   0  0  0  0  0  0  0  0  0  0  0  0
    4.6674   16.6754   46.2181 C   0  0  0  0  0  0  0  0  0  0  0  0
    4.9396   17.0185   44.9343 N   0  0  0  0  0  0  0  0  0  0  0  0
    3.9552   17.0165   43.9889 C   0  0  0  0  0  0  0  0  0  0  0  0
    2.6699   16.6618   44.3434 C   0  0  0  0  0  0  0  0  0  0  0  0
    1.6149   16.6587   43.3345 C   0  0  0  0  0  0  0  0  0  0  0  0
    1.8974   17.0011   42.0633 N   0  0  0  0  0  0  0  0  0  0  0  0
    0.3599   16.3151   43.6680 N   0  0  0  0  0  0  0  0  0  0  0  0
   -0.6468   16.2975   42.7715 C   0  0  0  0  0  0  0  0  0  0  0  0
   -1.9425   16.0024   42.8465 N   0  0  0  0  0  0  0  0  0  0  0  0
   -2.5990   15.5879   44.0805 C   0  0  0  0  0  0  0  0  0  0  0  0
   -2.5166   16.1439   41.6515 N   0  0  0  0  0  0  0  0  0  0  0  0
   -1.5482   16.5435   40.7875 C   0  0  0  0  0  0  0  0  0  0  0  0
   -0.3437   16.6495   41.4770 C   0  0  0  0  0  0  0  0  0  0  0  0
    0.9479   17.0103   41.1013 C   0  0  0  0  0  0  0  0  0  0  0  0
    1.2312   17.3702   39.7520 N   0  0  0  0  0  0  0  0  0  0  0  0
    1.3889   16.0250   45.9748 H   0  0  0  0  0  0  0  0  0  0  0  0
    3.1710   16.0449   47.6121 H   0  0  0  0  0  0  0  0  0  0  0  0
    5.4676   16.6824   46.9622 H   0  0  0  0  0  0  0  0  0  0  0  0
    4.2177   17.3007   42.9612 H   0  0  0  0  0  0  0  0  0  0  0  0
   -2.7415   16.4656   44.7448 H   0  0  0  0  0  0  0  0  0  0  0  0
   -1.9744   14.8631   44.6365 H   0  0  0  0  0  0  0  0  0  0  0  0
   -3.5993   15.1494   43.8600 H   0  0  0  0  0  0  0  0  0  0  0  0
   -1.6761   16.7498   39.7321 H   0  0  0  0  0  0  0  0  0  0  0  0
    2.0794   17.9542   39.5515 H   0  0  0  0  0  0  0  0  0  0  0  0
    0.5873   17.0398   39.0247 H   0  0  0  0  0  0  0  0  0  0  0  0
  1  2  2  0
  1  6  1  0
  2  3  1  0
  3  4  2  0
  4  5  1  0
  5  6  2  0
  6  7  1  0
  7  8  2  0
  7  9  1  0
  8 16  1  0
  9 10  2  0
 10 11  1  0
 10 15  1  0
 11 12  1  0
 11 13  1  0
 13 14  2  0
 14 15  1  0
 15 16  2  0
 16 17  1  0
  1 18  1  0
  2 19  1  0
  3 20  1  0
  5 21  1  0
 12 22  1  0
 12 23  1  0
 12 24  1  0
 14 25  1  0
 17 26  1  0
 17 27  1  0
M  END
>  <mol_id>  (80) 
2026-09-18-6fnk-s0-n100-r2-0080

>  <rmsd_to_ref>  (80) 
4.081632653063978

>  <pose_kind>  (80) 
conformer

$$$$
6fnk.A
     RDKit          3D

 27 29  0  0  0  0  0  0  0  0999 V2000
    2.4701   14.3733   44.1037 C   0  0  0  0  0  0  0  0  0  0  0  0
    2.1374   13.5622   45.1887 C   0  0  0  0  0  0  0  0  0  0  0  0
    0.8757   13.6505   45.7585 C   0  0  0  0  0  0  0  0  0  0  0  0
   -0.0618   14.5494   45.2423 N   0  0  0  0  0  0  0  0  0  0  0  0
    0.2762   15.3651   44.1518 C   0  0  0  0  0  0  0  0  0  0  0  0
    1.5441   15.2786   43.5798 C   0  0  0  0  0  0  0  0  0  0  0  0
    1.8789   16.0946   42.4944 C   0  0  0  0  0  0  0  0  0  0  0  0
    3.1383   16.1576   42.0405 N   0  0  0  0  0  0  0  0  0  0  0  0
    0.9325   16.8209   41.8912 N   0  0  0  0  0  0  0  0  0  0  0  0
    1.2176   17.6236   40.8504 C   0  0  0  0  0  0  0  0  0  0  0  0
    0.4546   18.4419   40.1099 N   0  0  0  0  0  0  0  0  0  0  0  0
   -0.9853   18.6615   40.2759 C   0  0  0  0  0  0  0  0  0  0  0  0
    1.1304   18.9956   39.2416 N   0  0  0  0  0  0  0  0  0  0  0  0
    2.3864   18.5330   39.3537 C   0  0  0  0  0  0  0  0  0  0  0  0
    2.4619   17.6825   40.3861 C   0  0  0  0  0  0  0  0  0  0  0  0
    3.4329   16.9408   40.9863 C   0  0  0  0  0  0  0  0  0  0  0  0
    4.7124   16.9793   40.5415 N   0  0  0  0  0  0  0  0  0  0  0  0
    3.4721   14.2993   43.6559 H   0  0  0  0  0  0  0  0  0  0  0  0
    2.8751   12.8530   45.5923 H   0  0  0  0  0  0  0  0  0  0  0  0
    0.6133   13.0136   46.6161 H   0  0  0  0  0  0  0  0  0  0  0  0
   -0.4610   16.0743   43.7476 H   0  0  0  0  0  0  0  0  0  0  0  0
   -1.1860   19.7408   40.3452 H   0  0  0  0  0  0  0  0  0  0  0  0
   -1.5220   18.2434   39.4116 H   0  0  0  0  0  0  0  0  0  0  0  0
   -1.3282   18.1650   41.1956 H   0  0  0  0  0  0  0  0  0  0  0  0
    3.2250   18.8102   38.6981 H   0  0  0  0  0  0  0  0  0  0  0  0
    4.9600   17.5719   39.7362 H   0  0  0  0  0  0  0  0  0  0  0  0
    5.4372   16.4160   41.0086 H   0  0  0  0  0  0  0  0  0  0  0  0
  1  2  2  0
  1  6  1  0
  2  3  1  0
  3  4  2  0
  4  5  1  0
  5  6  2  0
  6  7  1  0
  7  8  2  0
  7  9  1  0
  8 16  1  0
  9 10  2  0
 10 11  1  0
 10 15  1  0
 11 12  1  0
 11 13  1  0
 13 14  2  0
 14 15  1  0
 15 16  2  0
 16 17  1  0
  1 18  1  0
  2 19  1  0
  3 20  1  0
  5 21  1  0
 12 22  1  0
 12 23  1  0
 12 24  1  0
 14 25  1  0
 17 26  1  0
 17 27  1  0
M  END
>  <mol_id>  (81) 
2026-09-18-6fnk-s0-n100-r2-0081

>  <rmsd_to_ref>  (81) 
4.127551020410091

>  <pose_kind>  (81) 
rigid

$$$$
6fnk.A
     RDKit          3D

 27 29  0  0  0  0  0  0  0  0999 V2000
    2.4080   14.5533   44.7563 C   0  0  0  0  0  0  0  0  0  0  0  0
    1.4794   13.5407   44.9674 C   0  0  0  0  0  0  0  0  0  0  0  0
    0.1868   13.6148   44.4772 C   0  0  0  0  0  0  0  0  0  0  0  0
   -0.2244   14.6892   43.7660 N   0  0  0  0  0  0  0  0  0  0  0  0
    0.6532   15.6752   43.5513 C   0  0  0  0  0  0  0  0  0  0  0  0
    1.9476   15.6462   44.0182 C   0  0  0  0  0  0  0  0  0  0  0  0
    2.8710   16.7461   43.7592 C   0  0  0  0  0  0  0  0  0  0  0  0
    4.1540   16.7117   44.2251 N   0  0  0  0  0  0  0  0  0  0  0  0
    2.4332   17.8079   43.0455 N   0  0  0  0  0  0  0  0  0  0  0  0
    3.2262   18.8427   42.7755 C   0  0  0  0  0  0  0  0  0  0  0  0
    3.0074   19.9900   42.0930 N   0  0  0  0  0  0  0  0  0  0  0  0
    1.7548   20.3567   41.4622 C   0  0  0  0  0  0  0  0  0  0  0  0
    4.1438   20.7041   42.1122 N   0  0  0  0  0  0  0  0  0  0  0  0
    5.0901   20.0220   42.8028 C   0  0  0  0  0  0  0  0  0  0  0  0
    4.5340   18.8355   43.2356 C   0  0  0  0  0  0  0  0  0  0  0  0
    4.9929   17.7570   43.9654 C   0  0  0  0  0  0  0  0  0  0  0  0
    6.3326   17.7386   44.4426 N   0  0  0  0  0  0  0  0  0  0  0  0
    3.4151   14.5006   45.1355 H   0  0  0  0  0  0  0  0  0  0  0  0
    1.8110   12.6753   45.5404 H   0  0  0  0  0  0  0  0  0  0  0  0
   -0.4599   12.7717   44.6971 H   0  0  0  0  0  0  0  0  0  0  0  0
    0.3650   16.5642   42.9809 H   0  0  0  0  0  0  0  0  0  0  0  0
    0.9786   20.6769   42.1850 H   0  0  0  0  0  0  0  0  0  0  0  0
    1.9338   21.2059   40.7731 H   0  0  0  0  0  0  0  0  0  0  0  0
    1.3413   19.4662   40.9477 H   0  0  0  0  0  0  0  0  0  0  0  0
    6.1037   20.3331   42.9920 H   0  0  0  0  0  0  0  0  0  0  0  0
    6.5197   17.3975   45.4173 H   0  0  0  0  0  0  0  0  0  0  0  0
    7.1364   18.0547   43.8512 H   0  0  0  0  0  0  0  0  0  0  0  0
  1  2  2  0
  1  6  1  0
  2  3  1  0
  3  4  2  0
  4  5  1  0
  5  6  2  0
  6  7  1  0
  7  8  2  0
  7  9  1  0
  8 16  1  0
  9 10  2  0
 10 11  1  0
 10 15  1  0
 11 12  1  0
 11 13  1  0
 13 14  2  0
 14 15  1  0
 15 16  2  0
 16 17  1  0
  1 18  1  0
  2 19  1  0
  3 20  1  0
  5 21  1  0
 12 22  1  0
 12 23  1  0
 12 24  1  0
 14 25  1  0
 17 26  1  0
 17 27  1  0
M  END
>  <mol_id>  (82) 
2026-09-18-6fnk-s0-n100-r2-0082

>  <rmsd_to_ref>  (82) 
4.173469387757456

>  <pose_kind>  (82) 
conformer

$$$$
6fnk.A
     RDKit          3D

 27 29  0  0  0  0  0  0  0  0999 V2000
    3.2217   18.8787   41.4558 C   0  0  0  0  0  0  0  0  0  0  0  0
    4.5464   19.1264   41.0955 C   0  0  0  0  0  0  0  0  0  0  0  0
    5.2726   18.1582   40.4177 C   0  0  0  0  0  0  0  0  0  0  0  0
    4.6750   16.9372   40.0932 N   0  0  0  0  0  0  0  0  0  0  0  0
    3.3429   16.6902   40.4583 C   0  0  0  0  0  0  0  0  0  0  0  0
    2.6129   17.6614   41.1410 C   0  0  0  0  0  0  0  0  0  0  0  0
    1.2860   17.4115   41.5057 C   0  0  0  0  0  0  0  0  0  0  0  0
    0.6212   18.2518   42.3107 N   0  0  0  0  0  0  0  0  0  0  0  0
    0.6626   16.3233   41.0429 N   0  0  0  0  0  0  0  0  0  0  0  0
   -0.6097   16.0449   41.3784 C   0  0  0  0  0  0  0  0  0  0  0  0
   -1.4224   15.0264   41.0582 N   0  0  0  0  0  0  0  0  0  0  0  0
   -1.0827   13.8932   40.1924 C   0  0  0  0  0  0  0  0  0  0  0  0
   -2.5247   15.1691   41.5890 N   0  0  0  0  0  0  0  0  0  0  0  0
   -2.4964   16.3267   42.2696 C   0  0  0  0  0  0  0  0  0  0  0  0
   -1.2804   16.8795   42.1664 C   0  0  0  0  0  0  0  0  0  0  0  0
   -0.6592   17.9958   42.6369 C   0  0  0  0  0  0  0  0  0  0  0  0
   -1.3115   18.8662   43.4451 N   0  0  0  0  0  0  0  0  0  0  0  0
    2.6506   19.6499   41.9934 H   0  0  0  0  0  0  0  0  0  0  0  0
    5.0148   20.0890   41.3488 H   0  0  0  0  0  0  0  0  0  0  0  0
    6.3182   18.3513   40.1357 H   0  0  0  0  0  0  0  0  0  0  0  0
    2.8738   15.7280   40.2051 H   0  0  0  0  0  0  0  0  0  0  0  0
   -1.3196   12.9522   40.7104 H   0  0  0  0  0  0  0  0  0  0  0  0
   -1.6650   13.9558   39.2612 H   0  0  0  0  0  0  0  0  0  0  0  0
   -0.0088   13.9214   39.9560 H   0  0  0  0  0  0  0  0  0  0  0  0
   -3.3425   16.7555   42.8266 H   0  0  0  0  0  0  0  0  0  0  0  0
   -2.2918   18.6898   43.7075 H   0  0  0  0  0  0  0  0  0  0  0  0
   -0.8271   19.7043   43.7971 H   0  0  0  0  0  0  0  0  0  0  0  0
  1  2  2  0
  1  6  1  0
  2  3  1  0
  3  4  2  0
  4  5  1  0
  5  6  2  0
  6  7  1  0
  7  8  2  0
  7  9  1  0
  8 16  1  0
  9 10  2  0
 10 11  1  0
 10 15  1  0
 11 12  1  0
 11 13  1  0
 13 14  2  0
 14 15  1  0
 15 16  2  0
 16 17  1  0
  1 18  1  0
  2 19  1  0
  3 20  1  0
  5 21  1  0
 12 22  1  0
 12 23  1  0
 12 24  1  0
 14 25  1  0
 17 26  1  0
 17 27  1  0
M  END
>  <mol_id>  (83) 
2026-09-18-6fnk-s0-n100-r2-0083

>  <rmsd_to_ref>  (83) 
4.219387755103406

>  <pose_kind>  (83) 
rigid

$$$$
6fnk.A
     RDKit          3D

 27 29  0  0  0  0  0  0  0  0999 V2000
    1.2117   20.7450   41.0339 C   0  0  0  0  0  0  0  0  0  0  0  0
    2.0775   21.0374   39.9765 C   0  0  0  0  0  0  0  0  0  0  0  0
    3.3767   20.5190   39.9883 C   0  0  0  0  0  0  0  0  0  0  0  0
    3.7745   19.7401   41.0277 N   0  0  0  0  0  0  0  0  0  0  0  0
    2.9497   19.4511   42.0524 C   0  0  0  0  0  0  0  0  0  0  0  0
    1.6547   19.9497   42.0711 C   0  0  0  0  0  0  0  0  0  0  0  0
    0.7748   19.6261   43.1898 C   0  0  0  0  0  0  0  0  0  0  0  0
    1.2422   18.8479   44.1822 N   0  0  0  0  0  0  0  0  0  0  0  0
   -0.4790   20.1103   43.2054 N   0  0  0  0  0  0  0  0  0  0  0  0
   -1.3381   19.8503   44.2042 C   0  0  0  0  0  0  0  0  0  0  0  0
   -2.6135   20.1930   44.4703 N   0  0  0  0  0  0  0  0  0  0  0  0
   -3.4109   21.0192   43.6145 C   0  0  0  0  0  0  0  0  0  0  0  0
   -2.9517   19.6460   45.6060 N   0  0  0  0  0  0  0  0  0  0  0  0
   -1.9113   18.9334   46.1123 C   0  0  0  0  0  0  0  0  0  0  0  0
   -0.8617   19.0468   45.2329 C   0  0  0  0  0  0  0  0  0  0  0  0
    0.4218   18.5444   45.2284 C   0  0  0  0  0  0  0  0  0  0  0  0
    0.8924   17.7313   46.2769 N   0  0  0  0  0  0  0  0  0  0  0  0
    0.1953   21.1330   41.0541 H   0  0  0  0  0  0  0  0  0  0  0  0
    1.7463   21.6647   39.1466 H   0  0  0  0  0  0  0  0  0  0  0  0
    4.0772   20.7287   39.1778 H   0  0  0  0  0  0  0  0  0  0  0  0
    3.2602   18.8267   42.8911 H   0  0  0  0  0  0  0  0  0  0  0  0
   -4.1153   20.4677   42.9567 H   0  0  0  0  0  0  0  0  0  0  0  0
   -4.0645   21.6711   44.2422 H   0  0  0  0  0  0  0  0  0  0  0  0
   -2.8170   21.7030   42.9743 H   0  0  0  0  0  0  0  0  0  0  0  0
   -1.9122   18.3784   47.0396 H   0  0  0  0  0  0  0  0  0  0  0  0
    1.3103   18.0805   47.1681 H   0  0  0  0  0  0  0  0  0  0  0  0
    0.8332   16.6885   46.1878 H   0  0  0  0  0  0  0  0  0  0  0  0
  1  2  2  0
  1  6  1  0
  2  3  1  0
  3  4  2  0
  4  5  1  0
  5  6  2  0
  6  7  1  0
  7  8  2  0
  7  9  1  0
  8 16  1  0
  9 10  2  0
 10 11  1  0
 10 15  1  0
 11 12  1  0
 11 13  1  0
 13 14  2  0
 14 15  1  0
 15 16  2  0
 16 17  1  0
  1 18  1  0
  2 19  1  0
  3 20  1  0
  5 21  1  0
 12 22  1  0
 12 23  1  0
 12 24  1  0
 14 25  1  0
 17 26  1  0
 17 27  1  0
M  END
>  <mol_id>  (84) 
2026-09-18-6fnk-s0-n100-r2-0084

>  <rmsd_to_ref>  (84) 
4.265306122450666

>  <pose_kind>  (84) 
conformer

$$$$
6fnk.A
     RDKit          3D

 27 29  0  0  0  0  0  0  0  0999 V2000
    0.3714   15.9258   39.4713 C   0  0  0  0  0  0  0  0  0  0  0  0
   -0.7948   15.4449   38.8759 C   0  0  0  0  0  0  0  0  0  0  0  0
   -1.9595   16.1966   38.9270 C   0  0  0  0  0  0  0  0  0  0  0  0
   -1.9622   17.4366   39.5717 N   0  0  0  0  0  0  0  0  0  0  0  0
   -0.7880   17.9171   40.1711 C   0  0  0  0  0  0  0  0  0  0  0  0
    0.3823   17.1619   40.1220 C   0  0  0  0  0  0  0  0  0  0  0  0
    1.5505   17.6424   40.7224 C   0  0  0  0  0  0  0  0  0  0  0  0
    2.6354   16.8647   40.8424 N   0  0  0  0  0  0  0  0  0  0  0  0
    1.5955   18.8975   41.1803 N   0  0  0  0  0  0  0  0  0  0  0  0
    2.6978   19.3921   41.7712 C   0  0  0  0  0  0  0  0  0  0  0  0
    2.9683   20.5901   42.3116 N   0  0  0  0  0  0  0  0  0  0  0  0
    2.0498   21.7304   42.3816 C   0  0  0  0  0  0  0  0  0  0  0  0
    4.1204   20.6183   42.7463 N   0  0  0  0  0  0  0  0  0  0  0  0
    4.6810   19.4277   42.4775 C   0  0  0  0  0  0  0  0  0  0  0  0
    3.7822   18.6315   41.8831 C   0  0  0  0  0  0  0  0  0  0  0  0
    3.7518   17.3543   41.4127 C   0  0  0  0  0  0  0  0  0  0  0  0
    4.8378   16.5500   41.5134 N   0  0  0  0  0  0  0  0  0  0  0  0
    1.2921   15.3255   39.4280 H   0  0  0  0  0  0  0  0  0  0  0  0
   -0.7908   14.4701   38.3661 H   0  0  0  0  0  0  0  0  0  0  0  0
   -2.8805   15.8170   38.4604 H   0  0  0  0  0  0  0  0  0  0  0  0
   -0.7911   18.8919   40.6808 H   0  0  0  0  0  0  0  0  0  0  0  0
    1.9986   22.0969   43.4175 H   0  0  0  0  0  0  0  0  0  0  0  0
    2.4133   22.5349   41.7255 H   0  0  0  0  0  0  0  0  0  0  0  0
    1.0480   21.4149   42.0544 H   0  0  0  0  0  0  0  0  0  0  0  0
    5.7194   19.1488   42.7099 H   0  0  0  0  0  0  0  0  0  0  0  0
    5.7027   16.9043   41.9463 H   0  0  0  0  0  0  0  0  0  0  0  0
    4.7984   15.5844   41.1570 H   0  0  0  0  0  0  0  0  0  0  0  0
  1  2  2  0
  1  6  1  0
  2  3  1  0
  3  4  2  0
  4  5  1  0
  5  6  2  0
  6  7  1  0
  7  8  2  0
  7  9  1  0
  8 16  1  0
  9 10  2  0
 10 11  1  0
 10 15  1  0
 11 12  1  0
 11 13  1  0
 13 14  2  0
 14 15  1  0
 15 16  2  0
 16 17  1  0
  1 18  1  0
  2 19  1  0
  3 20  1  0
  5 21  1  0
 12 22  1  0
 12 23  1  0
 12 24  1  0
 14 25  1  0
 17 26  1  0
 17 27  1  0
M  END
>  <mol_id>  (85) 
2026-09-18-6fnk-s0-n100-r2-0085

>  <rmsd_to_ref>  (85) 
4.311224489796297

>  <pose_kind>  (85) 
rigid

$$$$
6fnk.A
     RDKit          3D

 27 29  0  0  0  0  0  0  0  0999 V2000
    4.8777   17.2818   43.4863 C   0  0  0  0  0  0  0  0  0  0  0  0
    6.1480   16.7813   43.7078 C   0  0  0  0  0  0  0  0  0  0  0  0
    7.2803   17.4806   43.3504 C   0  0  0  0  0  0  0  0  0  0  0  0
    7.1845   18.7004   42.7611 N   0  0  0  0  0  0  0  0  0  0  0  0
    5.9524   19.2159   42.5317 C   0  0  0  0  0  0  0  0  0  0  0  0
    4.8247   18.5364   42.8795 C   0  0  0  0  0  0  0  0  0  0  0  0
    3.5016   19.0998   42.6283 C   0  0  0  0  0  0  0  0  0  0  0  0
    2.3617   18.4446   42.9645 N   0  0  0  0  0  0  0  0  0  0  0  0
    3.3902   20.3173   42.0405 N   0  0  0  0  0  0  0  0  0  0  0  0
    2.1872   20.8842   41.7857 C   0  0  0  0  0  0  0  0  0  0  0  0
    1.7925   22.0480   41.2285 N   0  0  0  0  0  0  0  0  0  0  0  0
    2.6584   23.0895   40.7098 C   0  0  0  0  0  0  0  0  0  0  0  0
    0.4745   22.1105   41.2199 N   0  0  0  0  0  0  0  0  0  0  0  0
   -0.0456   20.9900   41.7711 C   0  0  0  0  0  0  0  0  0  0  0  0
    1.0334   20.1933   42.1393 C   0  0  0  0  0  0  0  0  0  0  0  0
    1.1373   18.9534   42.7381 C   0  0  0  0  0  0  0  0  0  0  0  0
   -0.0599   18.2596   43.0939 N   0  0  0  0  0  0  0  0  0  0  0  0
    3.9842   16.7401   43.7634 H   0  0  0  0  0  0  0  0  0  0  0  0
    6.1940   15.8000   44.1823 H   0  0  0  0  0  0  0  0  0  0  0  0
    8.2323   17.0168   43.5593 H   0  0  0  0  0  0  0  0  0  0  0  0
    5.9314   20.1976   42.0566 H   0  0  0  0  0  0  0  0  0  0  0  0
    3.7044   22.7714   40.6343 H   0  0  0  0  0  0  0  0  0  0  0  0
    2.3334   23.3376   39.6565 H   0  0  0  0  0  0  0  0  0  0  0  0
    2.6487   24.0011   41.3487 H   0  0  0  0  0  0  0  0  0  0  0  0
   -1.0932   20.7643   41.8977 H   0  0  0  0  0  0  0  0  0  0  0  0
   -0.4994   17.5743   42.4293 H   0  0  0  0  0  0  0  0  0  0  0  0
   -0.4534   18.4763   44.0321 H   0  0  0  0  0  0  0  0  0  0  0  0
  1  2  2  0
  1  6  1  0
  2  3  1  0
  3  4  2  0
  4  5  1  0
  5  6  2  0
  6  7  1  0
  7  8  2  0
  7  9  1  0
  8 16  1  0
  9 10  2  0
 10 11  1  0
 10 15  1  0
 11 12  1  0
 11 13  1  0
 13 14  2  0
 14 15  1  0
 15 16  2  0
 16 17  1  0
  1 18  1  0
  2 19  1  0
  3 20  1  0
  5 21  1  0
 12 22  1  0
 12 23  1  0
 12 24  1  0
 14 25  1  0
 17 26  1  0
 17 27  1  0
M  END
>  <mol_id>  (86) 
2026-09-18-6fnk-s0-n100-r2-0086

>  <rmsd_to_ref>  (86) 
4.3571428571431

>  <pose_kind>  (86) 
conformer

$$$$
6fnk.A
     RDKit          3D

 27 29  0  0  0  0  0  0  0  0999 V2000
   -0.6325   16.3016   40.3064 C   0  0  0  0  0  0  0  0  0  0  0  0
   -0.6470   16.3409   38.9120 C   0  0  0  0  0  0  0  0  0  0  0  0
    0.5347   16.1850   38.2023 C   0  0  0  0  0  0  0  0  0  0  0  0
    1.7377   15.9851   38.8851 N   0  0  0  0  0  0  0  0  0  0  0  0
    1.7494   15.9477   40.2877 C   0  0  0  0  0  0  0  0  0  0  0  0
    0.5631   16.1060   41.0018 C   0  0  0  0  0  0  0  0  0  0  0  0
    0.5783   16.0706   42.3999 C   0  0  0  0  0  0  0  0  0  0  0  0
   -0.5112   16.3932   43.1106 N   0  0  0  0  0  0  0  0  0  0  0  0
    1.6908   15.7041   43.0441 N   0  0  0  0  0  0  0  0  0  0  0  0
    1.7463   15.6663   44.3873 C   0  0  0  0  0  0  0  0  0  0  0  0
    2.7349   15.3526   45.2385 N   0  0  0  0  0  0  0  0  0  0  0  0
    4.0915   14.9389   44.8677 C   0  0  0  0  0  0  0  0  0  0  0  0
    2.3489   15.4486   46.4042 N   0  0  0  0  0  0  0  0  0  0  0  0
    1.0545   15.8058   46.3710 C   0  0  0  0  0  0  0  0  0  0  0  0
    0.6665   15.9728   45.0996 C   0  0  0  0  0  0  0  0  0  0  0  0
   -0.4752   16.3391   44.4549 C   0  0  0  0  0  0  0  0  0  0  0  0
   -1.5933   16.6615   45.1495 N   0  0  0  0  0  0  0  0  0  0  0  0
   -1.5724   16.4261   40.8641 H   0  0  0  0  0  0  0  0  0  0  0  0
   -1.5948   16.4953   38.3756 H   0  0  0  0  0  0  0  0  0  0  0  0
    0.5249   16.2187   37.1029 H   0  0  0  0  0  0  0  0  0  0  0  0
    2.6968   15.7930   40.8247 H   0  0  0  0  0  0  0  0  0  0  0  0
    4.8238   15.5606   45.4037 H   0  0  0  0  0  0  0  0  0  0  0  0
    4.2396   13.8829   45.1379 H   0  0  0  0  0  0  0  0  0  0  0  0
    4.2291   15.0627   43.7834 H   0  0  0  0  0  0  0  0  0  0  0  0
    0.4112   15.9406   47.2531 H   0  0  0  0  0  0  0  0  0  0  0  0
   -1.5879   16.6269   46.1789 H   0  0  0  0  0  0  0  0  0  0  0  0
   -2.4484   16.9411   44.6480 H   0  0  0  0  0  0  0  0  0  0  0  0
  1  2  2  0
  1  6  1  0
  2  3  1  0
  3  4  2  0
  4  5  1  0
  5  6  2  0
  6  7  1  0
  7  8  2  0
  7  9  1  0
  8 16  1  0
  9 10  2  0
 10 11  1  0
 10 15  1  0
 11 12  1  0
 11 13  1  0
 13 14  2  0
 14 15  1  0
 15 16  2  0
 16 17  1  0
  1 18  1  0
  2 19  1  0
  3 20  1  0
  5 21  1  0
 12 22  1  0
 12 23  1  0
 12 24  1  0
 14 25  1  0
 17 26  1  0
 17 27  1  0
M  END
>  <mol_id>  (87) 
2026-09-18-6fnk-s0-n100-r2-0087

>  <rmsd_to_ref>  (87) 
4.403061224491386

>  <pose_kind>  (87) 
rigid

$$$$
6fnk.A
     RDKit          3D

 27 29  0  0  0  0  0  0  0  0999 V2000
   -0.3291   13.9240   41.6179 C   0  0  0  0  0  0  0  0  0  0  0  0
   -1.5824   13.3543   41.7482 C   0  0  0  0  0  0  0  0  0  0  0  0
   -2.5871   14.1615   42.2760 C   0  0  0  0  0  0  0  0  0  0  0  0
   -2.3700   15.4350   42.6470 N   0  0  0  0  0  0  0  0  0  0  0  0
   -1.1434   15.9708   42.5122 C   0  0  0  0  0  0  0  0  0  0  0  0
   -0.0857   15.2365   41.9953 C   0  0  0  0  0  0  0  0  0  0  0  0
    1.2328   15.8149   41.8512 C   0  0  0  0  0  0  0  0  0  0  0  0
    2.2869   15.1501   41.3584 N   0  0  0  0  0  0  0  0  0  0  0  0
    1.4317   17.0911   42.2278 N   0  0  0  0  0  0  0  0  0  0  0  0
    2.5867   17.7435   42.1504 C   0  0  0  0  0  0  0  0  0  0  0  0
    2.9882   18.9855   42.4636 N   0  0  0  0  0  0  0  0  0  0  0  0
    2.1615   20.0363   43.0274 C   0  0  0  0  0  0  0  0  0  0  0  0
    4.2658   19.1082   42.1773 N   0  0  0  0  0  0  0  0  0  0  0  0
    4.7516   17.9446   41.6631 C   0  0  0  0  0  0  0  0  0  0  0  0
    3.6765   17.0671   41.6446 C   0  0  0  0  0  0  0  0  0  0  0  0
    3.5000   15.7505   41.2488 C   0  0  0  0  0  0  0  0  0  0  0  0
    4.6362   15.0809   40.7333 N   0  0  0  0  0  0  0  0  0  0  0  0
    0.4451   13.2899   41.2071 H   0  0  0  0  0  0  0  0  0  0  0  0
   -1.7959   12.3269   41.4587 H   0  0  0  0  0  0  0  0  0  0  0  0
   -3.5813   13.7122   42.3802 H   0  0  0  0  0  0  0  0  0  0  0  0
   -0.9782   17.0044   42.8162 H   0  0  0  0  0  0  0  0  0  0  0  0
    1.1485   19.9195   42.5497 H   0  0  0  0  0  0  0  0  0  0  0  0
    2.0497   19.8127   44.1110 H   0  0  0  0  0  0  0  0  0  0  0  0
    2.5679   21.0394   42.8415 H   0  0  0  0  0  0  0  0  0  0  0  0
    5.7519   17.7298   41.3348 H   0  0  0  0  0  0  0  0  0  0  0  0
    5.5910   15.1669   41.1893 H   0  0  0  0  0  0  0  0  0  0  0  0
    4.5028   14.4925   39.8797 H   0  0  0  0  0  0  0  0  0  0  0  0
  1  2  2  0
  1  6  1  0
  2  3  1  0
  3  4  2  0
  4  5  1  0
  5  6  2  0
  6  7  1  0
  7  8  2  0
  7  9  1  0
  8 16  1  0
  9 10  2  0
 10 11  1  0
 10 15  1  0
 11 12  1  0
 11 13  1  0
 13 14  2  0
 14 15  1  0
 15 16  2  0
 16 17  1  0
  1 18  1  0
  2 19  1  0
  3 20  1  0
  5 21  1  0
 12 22  1  0
 12 23  1  0
 12 24  1  0
 14 25  1  0
 17 26  1  0
 17 27  1  0
M  END
>  <mol_id>  (88) 
2026-09-18-6fnk-s0-n100-r2-0088

>  <rmsd_to_ref>  (88) 
4.448979591838963

>  <pose_kind>  (88) 
conformer

$$$$
6fnk.A
     RDKit          3D

 27 29  0  0  0  0  0  0  0  0999 V2000
    2.4143   17.3382   40.3768 C   0  0  0  0  0  0  0  0  0  0  0  0
    3.3532   18.0850   39.6650 C   0  0  0  0  0  0  0  0  0  0  0  0
    4.5458   18.4555   40.2692 C   0  0  0  0  0  0  0  0  0  0  0  0
    4.8066   18.0769   41.5890 N   0  0  0  0  0  0  0  0  0  0  0  0
    3.8595   17.3271   42.3030 C   0  0  0  0  0  0  0  0  0  0  0  0
    2.6603   16.9559   41.6977 C   0  0  0  0  0  0  0  0  0  0  0  0
    1.7172   16.2106   42.4127 C   0  0  0  0  0  0  0  0  0  0  0  0
    0.4909   15.9922   41.9182 N   0  0  0  0  0  0  0  0  0  0  0  0
    2.0388   15.6995   43.6053 N   0  0  0  0  0  0  0  0  0  0  0  0
    1.1561   14.9850   44.3260 C   0  0  0  0  0  0  0  0  0  0  0  0
    1.2429   14.3981   45.5294 N   0  0  0  0  0  0  0  0  0  0  0  0
    2.4196   14.3961   46.4037 C   0  0  0  0  0  0  0  0  0  0  0  0
    0.1843   13.8365   45.8142 N   0  0  0  0  0  0  0  0  0  0  0  0
   -0.6520   14.0049   44.7766 C   0  0  0  0  0  0  0  0  0  0  0  0
   -0.0583   14.7533   43.8374 C   0  0  0  0  0  0  0  0  0  0  0  0
   -0.3947   15.2610   42.6199 C   0  0  0  0  0  0  0  0  0  0  0  0
   -1.6249   15.0474   42.0931 N   0  0  0  0  0  0  0  0  0  0  0  0
    1.4702   17.0473   39.8929 H   0  0  0  0  0  0  0  0  0  0  0  0
    3.1482   18.3798   38.6253 H   0  0  0  0  0  0  0  0  0  0  0  0
    5.2856   19.0468   39.7098 H   0  0  0  0  0  0  0  0  0  0  0  0
    4.0640   17.0317   43.3426 H   0  0  0  0  0  0  0  0  0  0  0  0
    2.1300   14.7362   47.4090 H   0  0  0  0  0  0  0  0  0  0  0  0
    2.8290   13.3770   46.4651 H   0  0  0  0  0  0  0  0  0  0  0  0
    3.1826   15.0737   45.9930 H   0  0  0  0  0  0  0  0  0  0  0  0
   -1.6691   13.5914   44.7086 H   0  0  0  0  0  0  0  0  0  0  0  0
   -2.3182   14.4906   42.6130 H   0  0  0  0  0  0  0  0  0  0  0  0
   -1.8666   15.4417   41.1727 H   0  0  0  0  0  0  0  0  0  0  0  0
  1  2  2  0
  1  6  1  0
  2  3  1  0
  3  4  2  0
  4  5  1  0
  5  6  2  0
  6  7  1  0
  7  8  2  0
  7  9  1  0
  8 16  1  0
  9 10  2  0
 10 11  1  0
 10 15  1  0
 11 12  1  0
 11 13  1  0
 13 14  2  0
 14 15  1  0
 15 16  2  0
 16 17  1  0
  1 18  1  0
  2 19  1  0
  3 20  1  0
  5 21  1  0
 12 22  1  0
 12 23  1  0
 12 24  1  0
 14 25  1  0
 17 26  1  0
 17 27  1  0
M  END
>  <mol_id>  (89) 
2026-09-18-6fnk-s0-n100-r2-0089

>  <rmsd_to_ref>  (89) 
4.494897959184832

>  <pose_kind>  (89) 
rigid

$$$$
6fnk.A
     RDKit          3D

 27 29  0  0  0  0  0  0  0  0999 V2000
    2.7804   18.4632   44.8048 C   0  0  0  0  0  0  0  0  0  0  0  0
    3.9175   19.2474   44.6462 C   0  0  0  0  0  0  0  0  0  0  0  0
    4.4790   19.4083   43.3755 C   0  0  0  0  0  0  0  0  0  0  0  0
    3.9179   18.8009   42.2921 N   0  0  0  0  0  0  0  0  0  0  0  0
    2.8015   18.0294   42.4392 C   0  0  0  0  0  0  0  0  0  0  0  0
    2.2270   17.8567   43.6971 C   0  0  0  0  0  0  0  0  0  0  0  0
    1.0367   17.0270   43.8168 C   0  0  0  0  0  0  0  0  0  0  0  0
    0.5274   16.4518   42.7077 N   0  0  0  0  0  0  0  0  0  0  0  0
    0.4672   16.8481   45.0228 N   0  0  0  0  0  0  0  0  0  0  0  0
   -0.6493   16.0773   45.1745 C   0  0  0  0  0  0  0  0  0  0  0  0
   -1.3999   15.7418   46.2388 N   0  0  0  0  0  0  0  0  0  0  0  0
   -1.1174   16.1981   47.5774 C   0  0  0  0  0  0  0  0  0  0  0  0
   -2.3828   14.9564   45.8091 N   0  0  0  0  0  0  0  0  0  0  0  0
   -2.2750   14.7814   44.4807 C   0  0  0  0  0  0  0  0  0  0  0  0
   -1.1608   15.4939   44.0306 C   0  0  0  0  0  0  0  0  0  0  0  0
   -0.5712   15.6818   42.7960 C   0  0  0  0  0  0  0  0  0  0  0  0
   -1.1581   15.0443   41.6516 N   0  0  0  0  0  0  0  0  0  0  0  0
    2.3619   18.3518   45.7968 H   0  0  0  0  0  0  0  0  0  0  0  0
    4.3977   19.7505   45.4851 H   0  0  0  0  0  0  0  0  0  0  0  0
    5.3539   20.0083   43.2353 H   0  0  0  0  0  0  0  0  0  0  0  0
    2.3607   17.5458   41.5546 H   0  0  0  0  0  0  0  0  0  0  0  0
   -0.2641   15.6485   48.0336 H   0  0  0  0  0  0  0  0  0  0  0  0
   -0.9832   17.2850   47.5536 H   0  0  0  0  0  0  0  0  0  0  0  0
   -1.9986   16.0021   48.2375 H   0  0  0  0  0  0  0  0  0  0  0  0
   -2.9408   14.1881   43.8663 H   0  0  0  0  0  0  0  0  0  0  0  0
   -0.7619   14.1718   41.2371 H   0  0  0  0  0  0  0  0  0  0  0  0
   -2.0054   15.5136   41.2657 H   0  0  0  0  0  0  0  0  0  0  0  0
  1  2  2  0
  1  6  1  0
  2  3  1  0
  3  4  2  0
  4  5  1  0
  5  6  2  0
  6  7  1  0
  7  8  2  0
  7  9  1  0
  8 16  1  0
  9 10  2  0
 10 11  1  0
 10 15  1  0
 11 12  1  0
 11 13  1  0
 13 14  2  0
 14 15  1  0
 15 16  2  0
 16 17  1  0
  1 18  1  0
  2 19  1  0
  3 20  1  0
  5 21  1  0
 12 22  1  0
 12 23  1  0
 12 24  1  0
 14 25  1  0
 17 26  1  0
 17 27  1  0
M  END
>  <mol_id>  (90) 
2026-09-18-6fnk-s0-n100-r2-0090

>  <rmsd_to_ref>  (90) 
4.540816326531377

>  <pose_kind>  (90) 
conformer

$$$$
6fnk.A
     RDKit          3D

 27 29  0  0  0  0  0  0  0  0999 V2000
   -1.3453   18.6204   43.2199 C   0  0  0  0  0  0  0  0  0  0  0  0
   -2.1368   18.0272   42.2362 C   0  0  0  0  0  0  0  0  0  0  0  0
   -1.5413   17.3318   41.1940 C   0  0  0  0  0  0  0  0  0  0  0  0
   -0.1493   17.2231   41.1329 N   0  0  0  0  0  0  0  0  0  0  0  0
    0.6443   17.8221   42.1230 C   0  0  0  0  0  0  0  0  0  0  0  0
    0.0473   18.5226   43.1694 C   0  0  0  0  0  0  0  0  0  0  0  0
    0.8410   19.1207   44.1536 C   0  0  0  0  0  0  0  0  0  0  0  0
    0.3060   19.9427   45.0668 N   0  0  0  0  0  0  0  0  0  0  0  0
    2.1531   18.8682   44.1942 N   0  0  0  0  0  0  0  0  0  0  0  0
    2.9499   19.4312   45.1199 C   0  0  0  0  0  0  0  0  0  0  0  0
    4.2697   19.3432   45.3446 N   0  0  0  0  0  0  0  0  0  0  0  0
    5.2232   18.5415   44.5718 C   0  0  0  0  0  0  0  0  0  0  0  0
    4.5904   20.0316   46.3144 N   0  0  0  0  0  0  0  0  0  0  0  0
    3.4690   20.5890   46.8002 C   0  0  0  0  0  0  0  0  0  0  0  0
    2.4253   20.2380   46.0370 C   0  0  0  0  0  0  0  0  0  0  0  0
    1.0888   20.4960   46.0115 C   0  0  0  0  0  0  0  0  0  0  0  0
    0.5213   21.3164   46.9287 N   0  0  0  0  0  0  0  0  0  0  0  0
   -1.8228   19.1709   44.0439 H   0  0  0  0  0  0  0  0  0  0  0  0
   -3.2325   18.1109   42.2869 H   0  0  0  0  0  0  0  0  0  0  0  0
   -2.1643   16.8662   40.4161 H   0  0  0  0  0  0  0  0  0  0  0  0
    1.7400   17.7387   42.0731 H   0  0  0  0  0  0  0  0  0  0  0  0
    6.0653   19.1756   44.2575 H   0  0  0  0  0  0  0  0  0  0  0  0
    5.5982   17.7163   45.1949 H   0  0  0  0  0  0  0  0  0  0  0  0
    4.7215   18.1312   43.6830 H   0  0  0  0  0  0  0  0  0  0  0  0
    3.4158   21.2350   47.6889 H   0  0  0  0  0  0  0  0  0  0  0  0
    1.1017   21.7505   47.6605 H   0  0  0  0  0  0  0  0  0  0  0  0
   -0.4906   21.5058   46.8941 H   0  0  0  0  0  0  0  0  0  0  0  0
  1  2  2  0
  1  6  1  0
  2  3  1  0
  3  4  2  0
  4  5  1  0
  5  6  2  0
  6  7  1  0
  7  8  2  0
  7  9  1  0
  8 16  1  0
  9 10  2  0
 10 11  1  0
 10 15  1  0
 11 12  1  0
 11 13  1  0
 13 14  2  0
 14 15  1  0
 15 16  2  0
 16 17  1  0
  1 18  1  0
  2 19  1  0
  3 20  1  0
  5 21  1  0
 12 22  1  0
 12 23  1  0
 12 24  1  0
 14 25  1  0
 17 26  1  0
 17 27  1  0
M  END
>  <mol_id>  (91) 
2026-09-18-6fnk-s0-n100-r2-0091

>  <rmsd_to_ref>  (91) 
4.586734693879213

>  <pose_kind>  (91) 
rigid

$$$$
6fnk.A
     RDKit          3D

 27 29  0  0  0  0  0  0  0  0999 V2000
   -1.8134   16.1343   43.1441 C   0  0  0  0  0  0  0  0  0  0  0  0
   -3.1021   15.6415   43.1735 C   0  0  0  0  0  0  0  0  0  0  0  0
   -3.5064   14.6102   42.3190 C   0  0  0  0  0  0  0  0  0  0  0  0
   -2.6344   14.0650   41.4333 N   0  0  0  0  0  0  0  0  0  0  0  0
   -1.3684   14.5284   41.3839 C   0  0  0  0  0  0  0  0  0  0  0  0
   -0.9507   15.5517   42.2253 C   0  0  0  0  0  0  0  0  0  0  0  0
    0.4335   15.9996   42.1134 C   0  0  0  0  0  0  0  0  0  0  0  0
    1.2213   15.3959   41.2038 N   0  0  0  0  0  0  0  0  0  0  0  0
    0.9139   16.9851   42.8923 N   0  0  0  0  0  0  0  0  0  0  0  0
    2.2028   17.4108   42.7967 C   0  0  0  0  0  0  0  0  0  0  0  0
    2.9631   18.3220   43.3905 N   0  0  0  0  0  0  0  0  0  0  0  0
    2.5319   19.2143   44.4420 C   0  0  0  0  0  0  0  0  0  0  0  0
    4.1866   18.2998   42.8797 N   0  0  0  0  0  0  0  0  0  0  0  0
    4.2591   17.3659   41.9306 C   0  0  0  0  0  0  0  0  0  0  0  0
    3.0105   16.7801   41.8525 C   0  0  0  0  0  0  0  0  0  0  0  0
    2.5260   15.7668   41.0478 C   0  0  0  0  0  0  0  0  0  0  0  0
    3.3749   15.1416   40.0926 N   0  0  0  0  0  0  0  0  0  0  0  0
   -1.4931   16.9323   43.8024 H   0  0  0  0  0  0  0  0  0  0  0  0
   -3.8187   16.0654   43.8776 H   0  0  0  0  0  0  0  0  0  0  0  0
   -4.5059   14.2116   42.3258 H   0  0  0  0  0  0  0  0  0  0  0  0
   -0.7067   14.0618   40.6598 H   0  0  0  0  0  0  0  0  0  0  0  0
    2.4090   18.5898   45.3743 H   0  0  0  0  0  0  0  0  0  0  0  0
    3.2721   20.0112   44.6175 H   0  0  0  0  0  0  0  0  0  0  0  0
    1.5587   19.6555   44.1582 H   0  0  0  0  0  0  0  0  0  0  0  0
    5.1044   17.0920   41.3229 H   0  0  0  0  0  0  0  0  0  0  0  0
    3.5721   15.6869   39.2015 H   0  0  0  0  0  0  0  0  0  0  0  0
    3.8006   14.1973   40.2249 H   0  0  0  0  0  0  0  0  0  0  0  0
  1  2  2  0
  1  6  1  0
  2  3  1  0
  3  4  2  0
  4  5  1  0
  5  6  2  0
  6  7  1  0
  7  8  2  0
  7  9  1  0
  8 16  1  0
  9 10  2  0
 10 11  1  0
 10 15  1  0
 11 12  1  0
 11 13  1  0
 13 14  2  0
 14 15  1  0
 15 16  2  0
 16 17  1  0
  1 18  1  0
  2 19  1  0
  3 20  1  0
  5 21  1  0
 12 22  1  0
 12 23  1  0
 12 24  1  0
 14 25  1  0
 17 26  1  0
 17 27  1  0
M  END
>  <mol_id>  (92) 
2026-09-18-6fnk-s0-n100-r2-0092

>  <rmsd_to_ref>  (92) 
4.632653061225489

>  <pose_kind>  (92) 
conformer

$$$$
6fnk.A
     RDKit          3D

 27 29  0  0  0  0  0  0  0  0999 V2000
    3.0573   16.3994   43.8622 C   0  0  0  0  0  0  0  0  0  0  0  0
    2.8739   16.0513   45.2005 C   0  0  0  0  0  0  0  0  0  0  0  0
    2.0417   16.8140   46.0069 C   0  0  0  0  0  0  0  0  0  0  0  0
    1.3850   17.9278   45.4764 N   0  0  0  0  0  0  0  0  0  0  0  0
    1.5727   18.2763   44.1302 C   0  0  0  0  0  0  0  0  0  0  0  0
    2.4100   17.5121   43.3197 C   0  0  0  0  0  0  0  0  0  0  0  0
    2.5969   17.8634   41.9789 C   0  0  0  0  0  0  0  0  0  0  0  0
    3.5260   17.2550   41.2287 N   0  0  0  0  0  0  0  0  0  0  0  0
    1.8366   18.8151   41.4283 N   0  0  0  0  0  0  0  0  0  0  0  0
    1.9927   19.1861   40.1450 C   0  0  0  0  0  0  0  0  0  0  0  0
    1.3721   20.1078   39.3930 N   0  0  0  0  0  0  0  0  0  0  0  0
    0.2876   20.9903   39.8334 C   0  0  0  0  0  0  0  0  0  0  0  0
    1.8325   20.1155   38.2506 N   0  0  0  0  0  0  0  0  0  0  0  0
    2.7731   19.1586   38.1896 C   0  0  0  0  0  0  0  0  0  0  0  0
    2.9035   18.5791   39.3905 C   0  0  0  0  0  0  0  0  0  0  0  0
    3.6780   17.6021   39.9373 C   0  0  0  0  0  0  0  0  0  0  0  0
    4.6185   16.9650   39.1984 N   0  0  0  0  0  0  0  0  0  0  0  0
    3.7186   15.7913   43.2274 H   0  0  0  0  0  0  0  0  0  0  0  0
    3.3890   15.1727   45.6162 H   0  0  0  0  0  0  0  0  0  0  0  0
    1.8987   16.5422   47.0631 H   0  0  0  0  0  0  0  0  0  0  0  0
    1.0578   19.1547   43.7138 H   0  0  0  0  0  0  0  0  0  0  0  0
    0.5419   22.0327   39.5913 H   0  0  0  0  0  0  0  0  0  0  0  0
   -0.6439   20.7112   39.3191 H   0  0  0  0  0  0  0  0  0  0  0  0
    0.1509   20.8891   40.9201 H   0  0  0  0  0  0  0  0  0  0  0  0
    3.3484   18.8915   37.2909 H   0  0  0  0  0  0  0  0  0  0  0  0
    4.7517   17.2148   38.2081 H   0  0  0  0  0  0  0  0  0  0  0  0
    5.2001   16.2309   39.6271 H   0  0  0  0  0  0  0  0  0  0  0  0
  1  2  2  0
  1  6  1  0
  2  3  1  0
  3  4  2  0
  4  5  1  0
  5  6  2  0
  6  7  1  0
  7  8  2  0
  7  9  1  0
  8 16  1  0
  9 10  2  0
 10 11  1  0
 10 15  1  0
 11 12  1  0
 11 13  1  0
 13 14  2  0
 14 15  1  0
 15 16  2  0
 16 17  1  0
  1 18  1  0
  2 19  1  0
  3 20  1  0
  5 21  1  0
 12 22  1  0
 12 23  1  0
 12 24  1  0
 14 25  1  0
 17 26  1  0
 17 27  1  0
M  END
>  <mol_id>  (93) 
2026-09-18-6fnk-s0-n100-r2-0093

>  <rmsd_to_ref>  (93) 
4.678571428577247

>  <pose_kind>  (93) 
rigid

$$$$
6fnk.A
     RDKit          3D

 27 29  0  0  0  0  0  0  0  0999 V2000
   -0.1072   18.0870   39.7742 C   0  0  0  0  0  0  0  0  0  0  0  0
   -1.1942   18.0752   38.9301 C   0  0  0  0  0  0  0  0  0  0  0  0
   -1.8035   16.8796   38.6341 C   0  0  0  0  0  0  0  0  0  0  0  0
   -1.3795   15.7076   39.1387 N   0  0  0  0  0  0  0  0  0  0  0  0
   -0.3075   15.6954   39.9747 C   0  0  0  0  0  0  0  0  0  0  0  0
    0.3280   16.8763   40.2933 C   0  0  0  0  0  0  0  0  0  0  0  0
    1.4806   16.8889   41.1884 C   0  0  0  0  0  0  0  0  0  0  0  0
    2.1253   18.0384   41.5188 N   0  0  0  0  0  0  0  0  0  0  0  0
    1.9259   15.7160   41.7098 N   0  0  0  0  0  0  0  0  0  0  0  0
    2.9880   15.6645   42.5439 C   0  0  0  0  0  0  0  0  0  0  0  0
    3.6191   14.6632   43.1843 N   0  0  0  0  0  0  0  0  0  0  0  0
    3.2457   13.2542   43.1037 C   0  0  0  0  0  0  0  0  0  0  0  0
    4.6166   15.1760   43.8841 N   0  0  0  0  0  0  0  0  0  0  0  0
    4.6803   16.5046   43.7357 C   0  0  0  0  0  0  0  0  0  0  0  0
    3.6517   16.8366   42.8858 C   0  0  0  0  0  0  0  0  0  0  0  0
    3.1827   18.0155   42.3451 C   0  0  0  0  0  0  0  0  0  0  0  0
    3.8403   19.2507   42.6728 N   0  0  0  0  0  0  0  0  0  0  0  0
    0.3796   19.0331   40.0120 H   0  0  0  0  0  0  0  0  0  0  0  0
   -1.5320   19.0309   38.5247 H   0  0  0  0  0  0  0  0  0  0  0  0
   -2.6534   16.8980   37.9699 H   0  0  0  0  0  0  0  0  0  0  0  0
    0.0463   14.7497   40.3910 H   0  0  0  0  0  0  0  0  0  0  0  0
    2.3647   13.0481   43.7434 H   0  0  0  0  0  0  0  0  0  0  0  0
    3.0586   12.9327   42.0391 H   0  0  0  0  0  0  0  0  0  0  0  0
    4.0919   12.6079   43.4435 H   0  0  0  0  0  0  0  0  0  0  0  0
    5.3714   17.2090   44.1686 H   0  0  0  0  0  0  0  0  0  0  0  0
    3.7592   20.0505   41.9797 H   0  0  0  0  0  0  0  0  0  0  0  0
    4.3599   19.3209   43.5526 H   0  0  0  0  0  0  0  0  0  0  0  0
  1  2  2  0
  1  6  1  0
  2  3  1  0
  3  4  2  0
  4  5  1  0
  5  6  2  0
  6  7  1  0
  7  8  2  0
  7  9  1  0
  8 16  1  0
  9 10  2  0
 10 11  1  0
 10 15  1  0
 11 12  1  0
 11 13  1  0
 13 14  2  0
 14 15  1  0
 15 16  2  0
 16 17  1  0
  1 18  1  0
  2 19  1  0
  3 20  1  0
  5 21  1  0
 12 22  1  0
 12 23  1  0
 12 24  1  0
 14 25  1  0
 17 26  1  0
 17 27  1  0
M  END
>  <mol_id>  (94) 
2026-09-18-6fnk-s0-n100-r2-0094

>  <rmsd_to_ref>  (94) 
4.724489795921491

>  <pose_kind>  (94) 
conformer

$$$$
6fnk.A
     RDKit          3D

 27 29  0  0  0  0  0  0  0  0999 V2000
   -2.1071   18.2845   41.7556 C   0  0  0  0  0  0  0  0  0  0  0  0
   -3.0602   17.5762   42.4877 C   0  0  0  0  0  0  0  0  0  0  0  0
   -2.6583   16.7191   43.5018 C   0  0  0  0  0  0  0  0  0  0  0  0
   -1.2992   16.5692   43.7912 N   0  0  0  0  0  0  0  0  0  0  0  0
   -0.3428   17.2818   43.0521 C   0  0  0  0  0  0  0  0  0  0  0  0
   -0.7452   18.1417   42.0319 C   0  0  0  0  0  0  0  0  0  0  0  0
    0.2106   18.8488   41.2953 C   0  0  0  0  0  0  0  0  0  0  0  0
   -0.1348   19.5422   40.2017 N   0  0  0  0  0  0  0  0  0  0  0  0
    1.4891   18.8430   41.6856 N   0  0  0  0  0  0  0  0  0  0  0  0
    2.4379   19.5037   40.9984 C   0  0  0  0  0  0  0  0  0  0  0  0
    3.7609   19.6279   41.1835 N   0  0  0  0  0  0  0  0  0  0  0  0
    4.5384   19.0267   42.2712 C   0  0  0  0  0  0  0  0  0  0  0  0
    4.2557   20.3376   40.3068 N   0  0  0  0  0  0  0  0  0  0  0  0
    3.2559   20.7463   39.5084 C   0  0  0  0  0  0  0  0  0  0  0  0
    2.1018   20.2040   39.9196 C   0  0  0  0  0  0  0  0  0  0  0  0
    0.8015   20.2250   39.5171 C   0  0  0  0  0  0  0  0  0  0  0  0
    0.4242   20.9255   38.4201 N   0  0  0  0  0  0  0  0  0  0  0  0
   -2.4314   18.9625   40.9525 H   0  0  0  0  0  0  0  0  0  0  0  0
   -4.1297   17.6972   42.2610 H   0  0  0  0  0  0  0  0  0  0  0  0
   -3.4088   16.1578   44.0777 H   0  0  0  0  0  0  0  0  0  0  0  0
    0.7269   17.1615   43.2784 H   0  0  0  0  0  0  0  0  0  0  0  0
    5.3933   18.4770   41.8505 H   0  0  0  0  0  0  0  0  0  0  0  0
    4.9052   19.8185   42.9409 H   0  0  0  0  0  0  0  0  0  0  0  0
    3.9000   18.3334   42.8385 H   0  0  0  0  0  0  0  0  0  0  0  0
    3.3675   21.4228   38.6483 H   0  0  0  0  0  0  0  0  0  0  0  0
    1.1243   21.4551   37.8813 H   0  0  0  0  0  0  0  0  0  0  0  0
   -0.5626   20.9282   38.1251 H   0  0  0  0  0  0  0  0  0  0  0  0
  1  2  2  0
  1  6  1  0
  2  3  1  0
  3  4  2  0
  4  5  1  0
  5  6  2  0
  6  7  1  0
  7  8  2  0
  7  9  1  0
  8 16  1  0
  9 10  2  0
 10 11  1  0
 10 15  1  0
 11 12  1  0
 11 13  1  0
 13 14  2  0
 14 15  1  0
 15 16  2  0
 16 17  1  0
  1 18  1  0
  2 19  1  0
  3 20  1  0
  5 21  1  0
 12 22  1  0
 12 23  1  0
 12 24  1  0
 14 25  1  0
 17 26  1  0
 17 27  1  0
M  END
>  <mol_id>  (95) 
2026-09-18-6fnk-s0-n100-r2-0095

>  <rmsd_to_ref>  (95) 
4.770408163267263

>  <pose_kind>  (95) 
rigid

$$$$
6fnk.A
     RDKit          3D

 27 29  0  0  0  0  0  0  0  0999 V2000
   -0.3303   19.1852   39.8785 C   0  0  0  0  0  0  0  0  0  0  0  0
   -1.0701   19.6254   38.7890 C   0  0  0  0  0  0  0  0  0  0  0  0
   -0.8815   20.9116   38.3084 C   0  0  0  0  0  0  0  0  0  0  0  0
    0.0146   21.7620   38.8780 N   0  0  0  0  0  0  0  0  0  0  0  0
    0.7509   21.3468   39.9500 C   0  0  0  0  0  0  0  0  0  0  0  0
    0.5733   20.0602   40.4433 C   0  0  0  0  0  0  0  0  0  0  0  0
    1.3903   19.6772   41.5906 C   0  0  0  0  0  0  0  0  0  0  0  0
    2.2525   20.5731   42.0965 N   0  0  0  0  0  0  0  0  0  0  0  0
    1.3262   18.4727   42.1700 N   0  0  0  0  0  0  0  0  0  0  0  0
    2.0776   18.1192   43.2259 C   0  0  0  0  0  0  0  0  0  0  0  0
    2.2310   17.0294   43.9933 N   0  0  0  0  0  0  0  0  0  0  0  0
    1.5010   15.7862   43.8279 C   0  0  0  0  0  0  0  0  0  0  0  0
    3.1450   17.2359   44.9325 N   0  0  0  0  0  0  0  0  0  0  0  0
    3.6396   18.4871   44.8229 C   0  0  0  0  0  0  0  0  0  0  0  0
    2.9721   19.0491   43.7505 C   0  0  0  0  0  0  0  0  0  0  0  0
    3.0462   20.2930   43.1611 C   0  0  0  0  0  0  0  0  0  0  0  0
    3.9373   21.2953   43.6426 N   0  0  0  0  0  0  0  0  0  0  0  0
   -0.4662   18.1968   40.2581 H   0  0  0  0  0  0  0  0  0  0  0  0
   -1.7922   18.9854   38.3054 H   0  0  0  0  0  0  0  0  0  0  0  0
   -1.4685   21.2488   37.4505 H   0  0  0  0  0  0  0  0  0  0  0  0
    1.4550   22.0466   40.3803 H   0  0  0  0  0  0  0  0  0  0  0  0
    1.8562   15.2870   42.8889 H   0  0  0  0  0  0  0  0  0  0  0  0
    1.6408   15.1288   44.7101 H   0  0  0  0  0  0  0  0  0  0  0  0
    0.4383   16.0651   43.7265 H   0  0  0  0  0  0  0  0  0  0  0  0
    4.3858   18.9957   45.4053 H   0  0  0  0  0  0  0  0  0  0  0  0
    4.9791   21.2425   43.5098 H   0  0  0  0  0  0  0  0  0  0  0  0
    3.4999   22.1061   44.1465 H   0  0  0  0  0  0  0  0  0  0  0  0
  1  2  2  0
  1  6  1  0
  2  3  1  0
  3  4  2  0
  4  5  1  0
  5  6  2  0
  6  7  1  0
  7  8  2  0
  7  9  1  0
  8 16  1  0
  9 10  2  0
 10 11  1  0
 10 15  1  0
 11 12  1  0
 11 13  1  0
 13 14  2  0
 14 15  1  0
 15 16  2  0
 16 17  1  0
  1 18  1  0
  2 19  1  0
  3 20  1  0
  5 21  1  0
 12 22  1  0
 12 23  1  0
 12 24  1  0
 14 25  1  0
 17 26  1  0
 17 27  1  0
M  END
>  <mol_id>  (96) 
2026-09-18-6fnk-s0-n100-r2-0096

>  <rmsd_to_ref>  (96) 
4.816326530616811

>  <pose_kind>  (96) 
conformer

$$$$
6fnk.A
     RDKit          3D

 27 29  0  0  0  0  0  0  0  0999 V2000
   -1.8713   17.0148   42.7353 C   0  0  0  0  0  0  0  0  0  0  0  0
   -3.2118   16.6541   42.8728 C   0  0  0  0  0  0  0  0  0  0  0  0
   -4.1383   17.5868   43.3154 C   0  0  0  0  0  0  0  0  0  0  0  0
   -3.7282   18.8879   43.6193 N   0  0  0  0  0  0  0  0  0  0  0  0
   -2.3789   19.2474   43.4815 C   0  0  0  0  0  0  0  0  0  0  0  0
   -1.4469   18.3107   43.0387 C   0  0  0  0  0  0  0  0  0  0  0  0
   -0.1023   18.6713   42.9045 C   0  0  0  0  0  0  0  0  0  0  0  0
    0.8378   17.7501   42.6517 N   0  0  0  0  0  0  0  0  0  0  0  0
    0.2576   19.9533   43.0226 N   0  0  0  0  0  0  0  0  0  0  0  0
    1.5416   20.3373   42.9086 C   0  0  0  0  0  0  0  0  0  0  0  0
    2.1333   21.5378   43.0024 N   0  0  0  0  0  0  0  0  0  0  0  0
    1.4586   22.8122   43.2664 C   0  0  0  0  0  0  0  0  0  0  0  0
    3.3480   21.4364   42.8250 N   0  0  0  0  0  0  0  0  0  0  0  0
    3.6106   20.1441   42.5699 C   0  0  0  0  0  0  0  0  0  0  0  0
    2.4785   19.4317   42.6456 C   0  0  0  0  0  0  0  0  0  0  0  0
    2.1233   18.1241   42.5143 C   0  0  0  0  0  0  0  0  0  0  0  0
    3.0528   17.1741   42.2498 N   0  0  0  0  0  0  0  0  0  0  0  0
   -1.1408   16.2711   42.3841 H   0  0  0  0  0  0  0  0  0  0  0  0
   -3.5339   15.6306   42.6305 H   0  0  0  0  0  0  0  0  0  0  0  0
   -5.1951   17.3026   43.4271 H   0  0  0  0  0  0  0  0  0  0  0  0
   -2.0561   20.2708   43.7234 H   0  0  0  0  0  0  0  0  0  0  0  0
    1.9544   23.3227   44.1051 H   0  0  0  0  0  0  0  0  0  0  0  0
    1.5093   23.4467   42.3693 H   0  0  0  0  0  0  0  0  0  0  0  0
    0.4057   22.6233   43.5229 H   0  0  0  0  0  0  0  0  0  0  0  0
    4.6036   19.7334   42.3347 H   0  0  0  0  0  0  0  0  0  0  0  0
    4.0424   17.4380   42.1408 H   0  0  0  0  0  0  0  0  0  0  0  0
    2.7697   16.1881   42.1577 H   0  0  0  0  0  0  0  0  0  0  0  0
  1  2  2  0
  1  6  1  0
  2  3  1  0
  3  4  2  0
  4  5  1  0
  5  6  2  0
  6  7  1  0
  7  8  2  0
  7  9  1  0
  8 16  1  0
  9 10  2  0
 10 11  1  0
 10 15  1  0
 11 12  1  0
 11 13  1  0
 13 14  2  0
 14 15  1  0
 15 16  2  0
 16 17  1  0
  1 18  1  0
  2 19  1  0
  3 20  1  0
  5 21  1  0
 12 22  1  0
 12 23  1  0
 12 24  1  0
 14 25  1  0
 17 26  1  0
 17 27  1  0
M  END
>  <mol_id>  (97) 
2026-09-18-6fnk-s0-n100-r2-0097

>  <rmsd_to_ref>  (97) 
4.862244897963873

>  <pose_kind>  (97) 
rigid

$$$$
6fnk.A
     RDKit          3D

 27 29  0  0  0  0  0  0  0  0999 V2000
    0.8464   18.0843   41.7729 C   0  0  0  0  0  0  0  0  0  0  0  0
   -0.4501   18.3480   41.3692 C   0  0  0  0  0  0  0  0  0  0  0  0
   -1.4385   18.6892   42.2667 C   0  0  0  0  0  0  0  0  0  0  0  0
   -1.1682   18.7787   43.5946 N   0  0  0  0  0  0  0  0  0  0  0  0
    0.0937   18.5257   44.0191 C   0  0  0  0  0  0  0  0  0  0  0  0
    1.0805   18.1875   43.1438 C   0  0  0  0  0  0  0  0  0  0  0  0
    2.4371   17.9167   43.6104 C   0  0  0  0  0  0  0  0  0  0  0  0
    3.4392   17.5777   42.7604 N   0  0  0  0  0  0  0  0  0  0  0  0
    2.7221   18.0022   44.9340 N   0  0  0  0  0  0  0  0  0  0  0  0
    3.9634   17.7610   45.4181 C   0  0  0  0  0  0  0  0  0  0  0  0
    4.5133   17.7725   46.6502 N   0  0  0  0  0  0  0  0  0  0  0  0
    3.8314   18.0803   47.8928 C   0  0  0  0  0  0  0  0  0  0  0  0
    5.7918   17.4565   46.5676 N   0  0  0  0  0  0  0  0  0  0  0  0
    6.1291   17.2257   45.2781 C   0  0  0  0  0  0  0  0  0  0  0  0
    4.9737   17.4154   44.5274 C   0  0  0  0  0  0  0  0  0  0  0  0
    4.6927   17.3259   43.1784 C   0  0  0  0  0  0  0  0  0  0  0  0
    5.7444   16.9694   42.2796 N   0  0  0  0  0  0  0  0  0  0  0  0
    1.6279   17.8160   41.0757 H   0  0  0  0  0  0  0  0  0  0  0  0
   -0.6376   18.2684   40.2974 H   0  0  0  0  0  0  0  0  0  0  0  0
   -2.4230   18.8786   41.8669 H   0  0  0  0  0  0  0  0  0  0  0  0
    0.2572   18.6115   45.0941 H   0  0  0  0  0  0  0  0  0  0  0  0
    2.7428   18.1299   47.7768 H   0  0  0  0  0  0  0  0  0  0  0  0
    4.0267   17.2450   48.6280 H   0  0  0  0  0  0  0  0  0  0  0  0
    4.1510   19.0590   48.3163 H   0  0  0  0  0  0  0  0  0  0  0  0
    7.1051   16.9491   44.9101 H   0  0  0  0  0  0  0  0  0  0  0  0
    5.9031   15.9655   42.0121 H   0  0  0  0  0  0  0  0  0  0  0  0
    6.3249   17.7539   41.9196 H   0  0  0  0  0  0  0  0  0  0  0  0
  1  2  2  0
  1  6  1  0
  2  3  1  0
  3  4  2  0
  4  5  1  0
  5  6  2  0
  6  7  1  0
  7  8  2  0
  7  9  1  0
  8 16  1  0
  9 10  2  0
 10 11  1  0
 10 15  1  0
 11 12  1  0
 11 13  1  0
 13 14  2  0
 14 15  1  0
 15 16  2  0
 16 17  1  0
  1 18  1  0
  2 19  1  0
  3 20  1  0
  5 21  1  0
 12 22  1  0
 12 23  1  0
 12 24  1  0
 14 25  1  0
 17 26  1  0
 17 27  1  0
M  END
>  <mol_id>  (98) 
2026-09-18-6fnk-s0-n100-r2-0098

>  <rmsd_to_ref>  (98) 
4.908163265308036

>  <pose_kind>  (98) 
conformer

$$$$
6fnk.A
     RDKit          3D

 27 29  0  0  0  0  0  0  0  0999 V2000
    5.3895   19.1557   40.5517 C   0  0  0  0  0  0  0  0  0  0  0  0
    5.7488   20.0696   39.5609 C   0  0  0  0  0  0  0  0  0  0  0  0
    4.8540   20.3801   38.5474 C   0  0  0  0  0  0  0  0  0  0  0  0
    3.5922   19.7797   38.5222 N   0  0  0  0  0  0  0  0  0  0  0  0
    3.2341   18.8597   39.5193 C   0  0  0  0  0  0  0  0  0  0  0  0
    4.1329   18.5455   40.5370 C   0  0  0  0  0  0  0  0  0  0  0  0
    3.7741   17.6263   41.5281 C   0  0  0  0  0  0  0  0  0  0  0  0
    4.6757   17.1765   42.4118 N   0  0  0  0  0  0  0  0  0  0  0  0
    2.5129   17.1899   41.6055 N   0  0  0  0  0  0  0  0  0  0  0  0
    2.1321   16.2998   42.5390 C   0  0  0  0  0  0  0  0  0  0  0  0
    0.9519   15.7161   42.7973 N   0  0  0  0  0  0  0  0  0  0  0  0
   -0.2976   15.9386   42.0638 C   0  0  0  0  0  0  0  0  0  0  0  0
    1.0475   14.9547   43.7609 N   0  0  0  0  0  0  0  0  0  0  0  0
    2.3118   15.0291   44.2083 C   0  0  0  0  0  0  0  0  0  0  0  0
    3.0172   15.8580   43.4271 C   0  0  0  0  0  0  0  0  0  0  0  0
    4.3027   16.3017   43.3641 C   0  0  0  0  0  0  0  0  0  0  0  0
    5.2318   15.8696   44.2510 N   0  0  0  0  0  0  0  0  0  0  0  0
    6.1030   18.9130   41.3529 H   0  0  0  0  0  0  0  0  0  0  0  0
    6.7411   20.5438   39.5834 H   0  0  0  0  0  0  0  0  0  0  0  0
    5.1374   21.0984   37.7639 H   0  0  0  0  0  0  0  0  0  0  0  0
    2.2419   18.3853   39.4976 H   0  0  0  0  0  0  0  0  0  0  0  0
   -0.7204   14.9703   41.7576 H   0  0  0  0  0  0  0  0  0  0  0  0
   -1.0149   16.4634   42.7119 H   0  0  0  0  0  0  0  0  0  0  0  0
   -0.0952   16.5489   41.1713 H   0  0  0  0  0  0  0  0  0  0  0  0
    2.7075   14.4916   45.0826 H   0  0  0  0  0  0  0  0  0  0  0  0
    4.9682   15.2001   44.9879 H   0  0  0  0  0  0  0  0  0  0  0  0
    6.2017   16.2107   44.1881 H   0  0  0  0  0  0  0  0  0  0  0  0
  1  2  2  0
  1  6  1  0
  2  3  1  0
  3  4  2  0
  4  5  1  0
  5  6  2  0
  6  7  1  0
  7  8  2  0
  7  9  1  0
  8 16  1  0
  9 10  2  0
 10 11  1  0
 10 15  1  0
 11 12  1  0
 11 13  1  0
 13 14  2  0
 14 15  1  0
 15 16  2  0
 16 17  1  0
  1 18  1  0
  2 19  1  0
  3 20  1  0
  5 21  1  0
 12 22  1  0
 12 23  1  0
 12 24  1  0
 14 25  1  0
 17 26  1  0
 17 27  1  0
M  END
>  <mol_id>  (99) 
2026-09-18-6fnk-s0-n100-r2-0099

>  <rmsd_to_ref>  (99) 
4.954081632653341

>  <pose_kind>  (99) 
rigid

$$$$
6fnk.A
     RDKit          3D

 27 29  0  0  0  0  0  0  0  0999 V2000
   -0.9028   15.4991   43.5312 C   0  0  0  0  0  0  0  0  0  0  0  0
   -0.3212   14.6897   44.4855 C   0  0  0  0  0  0  0  0  0  0  0  0
    0.9995   14.3310   44.3114 C   0  0  0  0  0  0  0  0  0  0  0  0
    1.7301   14.7402   43.2534 N   0  0  0  0  0  0  0  0  0  0  0  0
    1.1706   15.5330   42.3130 C   0  0  0  0  0  0  0  0  0  0  0  0
   -0.1665   15.9245   42.4443 C   0  0  0  0  0  0  0  0  0  0  0  0
   -0.7949   16.7892   41.4287 C   0  0  0  0  0  0  0  0  0  0  0  0
   -2.0829   17.1550   41.5732 N   0  0  0  0  0  0  0  0  0  0  0  0
   -0.0572   17.1912   40.3782 N   0  0  0  0  0  0  0  0  0  0  0  0
   -0.6396   17.9900   39.4410 C   0  0  0  0  0  0  0  0  0  0  0  0
   -0.2083   18.5603   38.2961 N   0  0  0  0  0  0  0  0  0  0  0  0
    1.1351   18.4021   37.7920 C   0  0  0  0  0  0  0  0  0  0  0  0
   -1.1812   19.2584   37.7376 N   0  0  0  0  0  0  0  0  0  0  0  0
   -2.3158   19.1875   38.4871 C   0  0  0  0  0  0  0  0  0  0  0  0
   -1.9606   18.3811   39.5639 C   0  0  0  0  0  0  0  0  0  0  0  0
   -2.6964   17.9472   40.6638 C   0  0  0  0  0  0  0  0  0  0  0  0
   -4.0581   18.3160   40.8449 N   0  0  0  0  0  0  0  0  0  0  0  0
   -1.9379   15.8293   43.5898 H   0  0  0  0  0  0  0  0  0  0  0  0
   -0.9154   14.3606   45.3401 H   0  0  0  0  0  0  0  0  0  0  0  0
    1.4872   13.7013   45.0340 H   0  0  0  0  0  0  0  0  0  0  0  0
    1.7594   15.8651   41.4566 H   0  0  0  0  0  0  0  0  0  0  0  0
    1.8744   18.5141   38.6068 H   0  0  0  0  0  0  0  0  0  0  0  0
    1.3382   19.2718   37.1024 H   0  0  0  0  0  0  0  0  0  0  0  0
    1.2944   17.4950   37.1979 H   0  0  0  0  0  0  0  0  0  0  0  0
   -3.2754   19.6499   38.2941 H   0  0  0  0  0  0  0  0  0  0  0  0
   -4.8592   17.6685   40.6852 H   0  0  0  0  0  0  0  0  0  0  0  0
   -4.2321   19.3085   41.1594 H   0  0  0  0  0  0  0  0  0  0  0  0
  1  2  2  0
  1  6  1  0
  2  3  1  0
  3  4  2  0
  4  5  1  0
  5  6  2  0
  6  7  1  0
  7  8  2  0
  7  9  1  0
  8 16  1  0
  9 10  2  0
 10 11  1  0
 10 15  1  0
 11 12  1  0
 11 13  1  0
 13 14  2  0
 14 15  1  0
 15 16  2  0
 16 17  1  0
  1 18  1  0
  2 19  1  0
  3 20  1  0
  5 21  1  0
 12 22  1  0
 12 23  1  0
 12 24  1  0
 14 25  1  0
 17 26  1  0
 17 27  1  0
M  END
>  <mol_id>  (100) 
2026-09-18-6fnk-s0-n100-r2-0100

>  <rmsd_to_ref>  (100) 
5.00000000000102

>  <pose_kind>  (100) 
conformer

$$$$
