3war.A
     RDKit          3D

 13 13  0  0  0  0  0  0  0  0999 V2000
    2.0001   18.6245   40.6926 N   0  0  0  0  0  0  0  0  0  0  0  0
    2.5782   18.5757   39.4013 C   0  0  0  0  0  0  0  0  0  0  0  0
    2.4967   19.7718   38.6000 C   0  0  0  0  0  0  0  0  0  0  0  0
    1.8538   20.9004   39.0765 C   0  0  0  0  0  0  0  0  0  0  0  0
    1.3289   20.9112   40.3502 C   0  0  0  0  0  0  0  0  0  0  0  0
    1.3818   19.7712   41.1205 C   0  0  0  0  0  0  0  0  0  0  0  0
    3.0116   19.7599   37.1684 C   0  0  0  0  0  0  0  0  0  0  0  0
    3.7306   18.7870   36.7954 O   0  0  0  0  0  0  0  0  0  0  0  0
    2.6655   20.7081   36.4973 O   0  0  0  0  0  0  0  0  0  0  0  0
    3.0681   17.6653   39.0256 H   0  0  0  0  0  0  0  0  0  0  0  0
    1.7616   21.7908   38.4372 H   0  0  0  0  0  0  0  0  0  0  0  0
    0.8693   21.8270   40.7502 H   0  0  0  0  0  0  0  0  0  0  0  0
    0.9112   19.7806   42.1147 H   0  0  0  0  0  0  0  0  0  0  0  0
  1  2  1  0
  1  6  2  0
  2  3  2  0
  3  4  1  0
  3  7  1  0
  4  5  2  0
  5  6  1  0
  7  8  1  0
  7  9  2  0
  2 10  1  0
  4 11  1  0
  5 12  1  0
  6 13  1  0
M  CHG  1   8  -1
M  END
>  <mol_id>  (1) 
2026-09-18-3war-s0-n100-r2-0001

>  <rmsd_to_ref>  (1) 
0.0

>  <pose_kind>  (1) 
native

$$$$
3war.A
     RDKit          3D

 13 13  0  0  0  0  0  0  0  0999 V2000
    1.9175   19.0429   40.6379 N   0  0  0  0  0  0  0  0  0  0  0  0
    2.4556   18.7968   39.4202 C   0  0  0  0  0  0  0  0  0  0  0  0
    2.6673   19.8569   38.5710 C   0  0  0  0  0  0  0  0  0  0  0  0
    2.3452   21.1637   38.9293 C   0  0  0  0  0  0  0  0  0  0  0  0
    1.8013   21.3287   40.1870 C   0  0  0  0  0  0  0  0  0  0  0  0
    1.5781   20.2833   41.0591 C   0  0  0  0  0  0  0  0  0  0  0  0
    3.2462   19.6339   37.2476 C   0  0  0  0  0  0  0  0  0  0  0  0
    3.5834   18.3437   36.8477 O   0  0  0  0  0  0  0  0  0  0  0  0
    3.4367   20.6108   36.4764 O   0  0  0  0  0  0  0  0  0  0  0  0
    2.7195   17.7833   39.1086 H   0  0  0  0  0  0  0  0  0  0  0  0
    2.5213   21.9792   38.2442 H   0  0  0  0  0  0  0  0  0  0  0  0
    1.5391   22.3463   40.4932 H   0  0  0  0  0  0  0  0  0  0  0  0
    1.1495   20.4603   42.0349 H   0  0  0  0  0  0  0  0  0  0  0  0
  1  2  1  0
  1  6  2  0
  2  3  2  0
  3  4  1  0
  3  7  1  0
  4  5  2  0
  5  6  1  0
  7  8  1  0
  7  9  2  0
  2 10  1  0
  4 11  1  0
  5 12  1  0
  6 13  1  0
M  CHG  1   8  -1
M  END
>  <mol_id>  (2) 
2026-09-18-3war-s0-n100-r2-0002

>  <rmsd_to_ref>  (2) 
0.5000000000031799

>  <pose_kind>  (2) 
conformer

$$$$
3war.A
     RDKit          3D

 13 13  0  0  0  0  0  0  0  0999 V2000
    2.1967   18.1773   40.3017 N   0  0  0  0  0  0  0  0  0  0  0  0
    2.6671   18.3643   38.9796 C   0  0  0  0  0  0  0  0  0  0  0  0
    2.7581   19.7215   38.5011 C   0  0  0  0  0  0  0  0  0  0  0  0
    2.3722   20.7816   39.3020 C   0  0  0  0  0  0  0  0  0  0  0  0
    1.9456   20.5541   40.5920 C   0  0  0  0  0  0  0  0  0  0  0  0
    1.8351   19.2629   41.0572 C   0  0  0  0  0  0  0  0  0  0  0  0
    3.1640   19.9899   37.0596 C   0  0  0  0  0  0  0  0  0  0  0  0
    3.6607   19.0392   36.3872 O   0  0  0  0  0  0  0  0  0  0  0  0
    2.9579   21.1215   36.6772 O   0  0  0  0  0  0  0  0  0  0  0  0
    2.9508   17.5116   38.3452 H   0  0  0  0  0  0  0  0  0  0  0  0
    2.4061   21.8081   38.9080 H   0  0  0  0  0  0  0  0  0  0  0  0
    1.6943   21.4007   41.2479 H   0  0  0  0  0  0  0  0  0  0  0  0
    1.4427   19.0964   42.0713 H   0  0  0  0  0  0  0  0  0  0  0  0
  1  2  1  0
  1  6  2  0
  2  3  2  0
  3  4  1  0
  3  7  1  0
  4  5  2  0
  5  6  1  0
  7  8  1  0
  7  9  2  0
  2 10  1  0
  4 11  1  0
  5 12  1  0
  6 13  1  0
M  CHG  1   8  -1
M  END
>  <mol_id>  (3) 
2026-09-18-3war-s0-n100-r2-0003

>  <rmsd_to_ref>  (3) 
0.5459183673491043

>  <pose_kind>  (3) 
rigid

$$$$
3war.A
     RDKit          3D

 13 13  0  0  0  0  0  0  0  0999 V2000
    2.4669   18.9348   40.9507 N   0  0  0  0  0  0  0  0  0  0  0  0
    2.8031   18.5748   39.6781 C   0  0  0  0  0  0  0  0  0  0  0  0
    2.5904   19.4792   38.6447 C   0  0  0  0  0  0  0  0  0  0  0  0
    2.0503   20.7274   38.8703 C   0  0  0  0  0  0  0  0  0  0  0  0
    1.7217   21.0527   40.1864 C   0  0  0  0  0  0  0  0  0  0  0  0
    1.9360   20.1481   41.2090 C   0  0  0  0  0  0  0  0  0  0  0  0
    2.9345   19.1326   37.2827 C   0  0  0  0  0  0  0  0  0  0  0  0
    3.4846   17.9150   36.9074 O   0  0  0  0  0  0  0  0  0  0  0  0
    2.7219   19.9907   36.3750 O   0  0  0  0  0  0  0  0  0  0  0  0
    3.2321   17.5970   39.4616 H   0  0  0  0  0  0  0  0  0  0  0  0
    1.8722   21.4502   38.0996 H   0  0  0  0  0  0  0  0  0  0  0  0
    1.2977   22.0306   40.3692 H   0  0  0  0  0  0  0  0  0  0  0  0
    1.6566   20.4684   42.2102 H   0  0  0  0  0  0  0  0  0  0  0  0
  1  2  1  0
  1  6  2  0
  2  3  2  0
  3  4  1  0
  3  7  1  0
  4  5  2  0
  5  6  1  0
  7  8  1  0
  7  9  2  0
  2 10  1  0
  4 11  1  0
  5 12  1  0
  6 13  1  0
M  CHG  1   8  -1
M  END
>  <mol_id>  (4) 
2026-09-18-3war-s0-n100-r2-0004

>  <rmsd_to_ref>  (4) 
0.5918367346945987

>  <pose_kind>  (4) 
conformer

$$$$
3war.A
     RDKit          3D

 13 13  0  0  0  0  0  0  0  0999 V2000
    2.5834   19.2065   40.6490 N   0  0  0  0  0  0  0  0  0  0  0  0
    2.8716   18.8618   39.3066 C   0  0  0  0  0  0  0  0  0  0  0  0
    2.5284   19.8278   38.2925 C   0  0  0  0  0  0  0  0  0  0  0  0
    1.9191   21.0230   38.6310 C   0  0  0  0  0  0  0  0  0  0  0  0
    1.6818   21.3279   39.9534 C   0  0  0  0  0  0  0  0  0  0  0  0
    1.9863   20.4081   40.9317 C   0  0  0  0  0  0  0  0  0  0  0  0
    2.7220   19.4837   36.8232 C   0  0  0  0  0  0  0  0  0  0  0  0
    3.4157   18.4663   36.5297 O   0  0  0  0  0  0  0  0  0  0  0  0
    2.1681   20.2345   36.0495 O   0  0  0  0  0  0  0  0  0  0  0  0
    3.3370   17.8991   39.0483 H   0  0  0  0  0  0  0  0  0  0  0  0
    1.6237   21.7311   37.8428 H   0  0  0  0  0  0  0  0  0  0  0  0
    1.2508   22.3023   40.2266 H   0  0  0  0  0  0  0  0  0  0  0  0
    1.7417   20.6457   41.9776 H   0  0  0  0  0  0  0  0  0  0  0  0
  1  2  1  0
  1  6  2  0
  2  3  2  0
  3  4  1  0
  3  7  1  0
  4  5  2  0
  5  6  1  0
  7  8  1  0
  7  9  2  0
  2 10  1  0
  4 11  1  0
  5 12  1  0
  6 13  1  0
M  CHG  1   8  -1
M  END
>  <mol_id>  (5) 
2026-09-18-3war-s0-n100-r2-0005

>  <rmsd_to_ref>  (5) 
0.637755102044044

>  <pose_kind>  (5) 
rigid

$$$$
3war.A
     RDKit          3D

 13 13  0  0  0  0  0  0  0  0999 V2000
    1.0806   18.5947   40.2111 N   0  0  0  0  0  0  0  0  0  0  0  0
    1.8484   18.7244   39.1071 C   0  0  0  0  0  0  0  0  0  0  0  0
    2.1753   19.9857   38.6537 C   0  0  0  0  0  0  0  0  0  0  0  0
    1.7250   21.1120   39.3177 C   0  0  0  0  0  0  0  0  0  0  0  0
    0.9435   20.9137   40.4404 C   0  0  0  0  0  0  0  0  0  0  0  0
    0.6082   19.6555   40.9061 C   0  0  0  0  0  0  0  0  0  0  0  0
    3.0055   20.0809   37.4594 C   0  0  0  0  0  0  0  0  0  0  0  0
    3.3966   21.2952   36.9128 O   0  0  0  0  0  0  0  0  0  0  0  0
    3.4246   19.0440   36.8414 O   0  0  0  0  0  0  0  0  0  0  0  0
    2.1673   17.8140   38.6354 H   0  0  0  0  0  0  0  0  0  0  0  0
    1.9959   22.0882   38.9408 H   0  0  0  0  0  0  0  0  0  0  0  0
    0.5682   21.7647   40.9927 H   0  0  0  0  0  0  0  0  0  0  0  0
   -0.0030   19.4919   41.7841 H   0  0  0  0  0  0  0  0  0  0  0  0
  1  2  1  0
  1  6  2  0
  2  3  2  0
  3  4  1  0
  3  7  1  0
  4  5  2  0
  5  6  1  0
  7  8  1  0
  7  9  2  0
  2 10  1  0
  4 11  1  0
  5 12  1  0
  6 13  1  0
M  CHG  1   8  -1
M  END
>  <mol_id>  (6) 
2026-09-18-3war-s0-n100-r2-0006

>  <rmsd_to_ref>  (6) 
0.6836734693888386

>  <pose_kind>  (6) 
conformer

$$$$
3war.A
     RDKit          3D

 13 13  0  0  0  0  0  0  0  0999 V2000
    2.4808   18.0972   40.6398 N   0  0  0  0  0  0  0  0  0  0  0  0
    2.8068   18.4373   39.3049 C   0  0  0  0  0  0  0  0  0  0  0  0
    2.5431   19.7928   38.8898 C   0  0  0  0  0  0  0  0  0  0  0  0
    1.9704   20.7013   39.7619 C   0  0  0  0  0  0  0  0  0  0  0  0
    1.6943   20.3335   41.0605 C   0  0  0  0  0  0  0  0  0  0  0  0
    1.9226   19.0379   41.4667 C   0  0  0  0  0  0  0  0  0  0  0  0
    2.7798   20.2006   37.4432 C   0  0  0  0  0  0  0  0  0  0  0  0
    3.4424   19.4202   36.6985 O   0  0  0  0  0  0  0  0  0  0  0  0
    2.2876   21.2628   37.1290 O   0  0  0  0  0  0  0  0  0  0  0  0
    3.2423   17.6998   38.6146 H   0  0  0  0  0  0  0  0  0  0  0  0
    1.7351   21.7193   39.4178 H   0  0  0  0  0  0  0  0  0  0  0  0
    1.2930   21.0720   41.7702 H   0  0  0  0  0  0  0  0  0  0  0  0
    1.6473   18.7470   42.4913 H   0  0  0  0  0  0  0  0  0  0  0  0
  1  2  1  0
  1  6  2  0
  2  3  2  0
  3  4  1  0
  3  7  1  0
  4  5  2  0
  5  6  1  0
  7  8  1  0
  7  9  2  0
  2 10  1  0
  4 11  1  0
  5 12  1  0
  6 13  1  0
M  CHG  1   8  -1
M  END
>  <mol_id>  (7) 
2026-09-18-3war-s0-n100-r2-0007

>  <rmsd_to_ref>  (7) 
0.7295918367385973

>  <pose_kind>  (7) 
rigid

$$$$
3war.A
     RDKit          3D

 13 13  0  0  0  0  0  0  0  0999 V2000
    2.1361   19.2031   40.6744 N   0  0  0  0  0  0  0  0  0  0  0  0
    2.8294   18.7881   39.5973 C   0  0  0  0  0  0  0  0  0  0  0  0
    2.7705   19.5707   38.4401 C   0  0  0  0  0  0  0  0  0  0  0  0
    2.0226   20.7302   38.4131 C   0  0  0  0  0  0  0  0  0  0  0  0
    1.3303   21.1076   39.5505 C   0  0  0  0  0  0  0  0  0  0  0  0
    1.3983   20.3240   40.6861 C   0  0  0  0  0  0  0  0  0  0  0  0
    3.5121   19.1512   37.2472 C   0  0  0  0  0  0  0  0  0  0  0  0
    4.2610   17.9891   37.2760 O   0  0  0  0  0  0  0  0  0  0  0  0
    3.4279   19.8873   36.2323 O   0  0  0  0  0  0  0  0  0  0  0  0
    3.4103   17.8743   39.6404 H   0  0  0  0  0  0  0  0  0  0  0  0
    1.9978   21.3089   37.5096 H   0  0  0  0  0  0  0  0  0  0  0  0
    0.7345   22.0178   39.5512 H   0  0  0  0  0  0  0  0  0  0  0  0
    0.8785   20.5701   41.6023 H   0  0  0  0  0  0  0  0  0  0  0  0
  1  2  1  0
  1  6  2  0
  2  3  2  0
  3  4  1  0
  3  7  1  0
  4  5  2  0
  5  6  1  0
  7  8  1  0
  7  9  2  0
  2 10  1  0
  4 11  1  0
  5 12  1  0
  6 13  1  0
M  CHG  1   8  -1
M  END
>  <mol_id>  (8) 
2026-09-18-3war-s0-n100-r2-0008

>  <rmsd_to_ref>  (8) 
0.7755102040865852

>  <pose_kind>  (8) 
conformer

$$$$
3war.A
     RDKit          3D

 13 13  0  0  0  0  0  0  0  0999 V2000
    2.8117   18.7380   41.0708 N   0  0  0  0  0  0  0  0  0  0  0  0
    2.9012   18.3866   39.7024 C   0  0  0  0  0  0  0  0  0  0  0  0
    2.6026   19.4173   38.7391 C   0  0  0  0  0  0  0  0  0  0  0  0
    2.2200   20.6814   39.1509 C   0  0  0  0  0  0  0  0  0  0  0  0
    2.1724   20.9863   40.4936 C   0  0  0  0  0  0  0  0  0  0  0  0
    2.4360   20.0081   41.4260 C   0  0  0  0  0  0  0  0  0  0  0  0
    2.5858   19.0836   37.2548 C   0  0  0  0  0  0  0  0  0  0  0  0
    3.0831   17.9814   36.8800 O   0  0  0  0  0  0  0  0  0  0  0  0
    2.0731   19.9272   36.5514 O   0  0  0  0  0  0  0  0  0  0  0  0
    3.1860   17.3718   39.3878 H   0  0  0  0  0  0  0  0  0  0  0  0
    1.9533   21.4445   38.4049 H   0  0  0  0  0  0  0  0  0  0  0  0
    1.9247   22.0073   40.8195 H   0  0  0  0  0  0  0  0  0  0  0  0
    2.3419   20.2542   42.4939 H   0  0  0  0  0  0  0  0  0  0  0  0
  1  2  1  0
  1  6  2  0
  2  3  2  0
  3  4  1  0
  3  7  1  0
  4  5  2  0
  5  6  1  0
  7  8  1  0
  7  9  2  0
  2 10  1  0
  4 11  1  0
  5 12  1  0
  6 13  1  0
M  CHG  1   8  -1
M  END
>  <mol_id>  (9) 
2026-09-18-3war-s0-n100-r2-0009

>  <rmsd_to_ref>  (9) 
0.8214285714337483

>  <pose_kind>  (9) 
rigid

$$$$
3war.A
     RDKit          3D

 13 13  0  0  0  0  0  0  0  0999 V2000
    2.3596   19.6559   41.4694 N   0  0  0  0  0  0  0  0  0  0  0  0
    2.8865   19.3019   40.2677 C   0  0  0  0  0  0  0  0  0  0  0  0
    2.4714   19.8922   39.0895 C   0  0  0  0  0  0  0  0  0  0  0  0
    1.4940   20.8639   39.1698 C   0  0  0  0  0  0  0  0  0  0  0  0
    0.9359   21.2461   40.3927 C   0  0  0  0  0  0  0  0  0  0  0  0
    1.3973   20.6124   41.5490 C   0  0  0  0  0  0  0  0  0  0  0  0
    3.0670   19.4782   37.8261 C   0  0  0  0  0  0  0  0  0  0  0  0
    2.6442   20.0774   36.6401 O   0  0  0  0  0  0  0  0  0  0  0  0
    3.9573   18.5854   37.8060 O   0  0  0  0  0  0  0  0  0  0  0  0
    3.6477   18.5322   40.2935 H   0  0  0  0  0  0  0  0  0  0  0  0
    1.1663   21.3259   38.2676 H   0  0  0  0  0  0  0  0  0  0  0  0
    0.1749   22.0085   40.4152 H   0  0  0  0  0  0  0  0  0  0  0  0
    0.9591   20.9156   42.4886 H   0  0  0  0  0  0  0  0  0  0  0  0
  1  2  1  0
  1  6  2  0
  2  3  2  0
  3  4  1  0
  3  7  1  0
  4  5  2  0
  5  6  1  0
  7  8  1  0
  7  9  2  0
  2 10  1  0
  4 11  1  0
  5 12  1  0
  6 13  1  0
M  CHG  1   8  -1
M  END
>  <mol_id>  (10) 
2026-09-18-3war-s0-n100-r2-0010

>  <rmsd_to_ref>  (10) 
0.8673469387774553

>  <pose_kind>  (10) 
conformer

$$$$
3war.A
     RDKit          3D

 13 13  0  0  0  0  0  0  0  0999 V2000
    1.5886   18.5974   40.1379 N   0  0  0  0  0  0  0  0  0  0  0  0
    2.3606   18.4086   38.9664 C   0  0  0  0  0  0  0  0  0  0  0  0
    3.1042   19.5444   38.4802 C   0  0  0  0  0  0  0  0  0  0  0  0
    3.0336   20.7657   39.1263 C   0  0  0  0  0  0  0  0  0  0  0  0
    2.2903   20.8962   40.2789 C   0  0  0  0  0  0  0  0  0  0  0  0
    1.5595   19.8265   40.7452 C   0  0  0  0  0  0  0  0  0  0  0  0
    3.8780   19.4393   37.1745 C   0  0  0  0  0  0  0  0  0  0  0  0
    4.0651   18.2906   36.6764 O   0  0  0  0  0  0  0  0  0  0  0  0
    4.2449   20.4997   36.7159 O   0  0  0  0  0  0  0  0  0  0  0  0
    2.3918   17.4380   38.4497 H   0  0  0  0  0  0  0  0  0  0  0  0
    3.5718   21.6342   38.7189 H   0  0  0  0  0  0  0  0  0  0  0  0
    2.2807   21.8513   40.8245 H   0  0  0  0  0  0  0  0  0  0  0  0
    0.9298   19.9628   41.6368 H   0  0  0  0  0  0  0  0  0  0  0  0
  1  2  1  0
  1  6  2  0
  2  3  2  0
  3  4  1  0
  3  7  1  0
  4  5  2  0
  5  6  1  0
  7  8  1  0
  7  9  2  0
  2 10  1  0
  4 11  1  0
  5 12  1  0
  6 13  1  0
M  CHG  1   8  -1
M  END
>  <mol_id>  (11) 
2026-09-18-3war-s0-n100-r2-0011

>  <rmsd_to_ref>  (11) 
0.9132653061254331

>  <pose_kind>  (11) 
rigid

$$$$
3war.A
     RDKit          3D

 13 13  0  0  0  0  0  0  0  0999 V2000
    1.7803   18.4817   40.9695 N   0  0  0  0  0  0  0  0  0  0  0  0
    1.8674   18.2837   39.6458 C   0  0  0  0  0  0  0  0  0  0  0  0
    2.1027   19.3137   38.7588 C   0  0  0  0  0  0  0  0  0  0  0  0
    2.2503   20.5857   39.2803 C   0  0  0  0  0  0  0  0  0  0  0  0
    2.1603   20.7960   40.6589 C   0  0  0  0  0  0  0  0  0  0  0  0
    1.9234   19.7240   41.4909 C   0  0  0  0  0  0  0  0  0  0  0  0
    2.1847   19.0228   37.3334 C   0  0  0  0  0  0  0  0  0  0  0  0
    2.4176   20.0099   36.3998 O   0  0  0  0  0  0  0  0  0  0  0  0
    2.0428   17.8435   36.9067 O   0  0  0  0  0  0  0  0  0  0  0  0
    1.7419   17.2601   39.3021 H   0  0  0  0  0  0  0  0  0  0  0  0
    2.4341   21.3898   38.5870 H   0  0  0  0  0  0  0  0  0  0  0  0
    2.2763   21.7966   41.0695 H   0  0  0  0  0  0  0  0  0  0  0  0
    1.8615   19.9302   42.5451 H   0  0  0  0  0  0  0  0  0  0  0  0
  1  2  1  0
  1  6  2  0
  2  3  2  0
  3  4  1  0
  3  7  1  0
  4  5  2  0
  5  6  1  0
  7  8  1  0
  7  9  2  0
  2 10  1  0
  4 11  1  0
  5 12  1  0
  6 13  1  0
M  CHG  1   8  -1
M  END
>  <mol_id>  (12) 
2026-09-18-3war-s0-n100-r2-0012

>  <rmsd_to_ref>  (12) 
0.9591836734699718

>  <pose_kind>  (12) 
conformer

$$$$
3war.A
     RDKit          3D

 13 13  0  0  0  0  0  0  0  0999 V2000
    2.5100   18.8365   40.5637 N   0  0  0  0  0  0  0  0  0  0  0  0
    2.4003   18.8206   39.1524 C   0  0  0  0  0  0  0  0  0  0  0  0
    1.9563   20.0354   38.5148 C   0  0  0  0  0  0  0  0  0  0  0  0
    1.6292   21.1502   39.2660 C   0  0  0  0  0  0  0  0  0  0  0  0
    1.7769   21.1287   40.6355 C   0  0  0  0  0  0  0  0  0  0  0  0
    2.1814   19.9707   41.2609 C   0  0  0  0  0  0  0  0  0  0  0  0
    1.7244   20.0596   37.0113 C   0  0  0  0  0  0  0  0  0  0  0  0
    2.1692   19.0982   36.3181 O   0  0  0  0  0  0  0  0  0  0  0  0
    1.1080   21.0226   36.6089 O   0  0  0  0  0  0  0  0  0  0  0  0
    2.6431   17.9210   38.5678 H   0  0  0  0  0  0  0  0  0  0  0  0
    1.2505   22.0554   38.7688 H   0  0  0  0  0  0  0  0  0  0  0  0
    1.5724   22.0332   41.2272 H   0  0  0  0  0  0  0  0  0  0  0  0
    2.2433   19.9547   42.3590 H   0  0  0  0  0  0  0  0  0  0  0  0
  1  2  1  0
  1  6  2  0
  2  3  2  0
  3  4  1  0
  3  7  1  0
  4  5  2  0
  5  6  1  0
  7  8  1  0
  7  9  2  0
  2 10  1  0
  4 11  1  0
  5 12  1  0
  6 13  1  0
M  CHG  1   8  -1
M  END
>  <mol_id>  (13) 
2026-09-18-3war-s0-n100-r2-0013

>  <rmsd_to_ref>  (13) 
1.0051020408208053

>  <pose_kind>  (13) 
rigid

$$$$
3war.A
     RDKit          3D

 13 13  0  0  0  0  0  0  0  0999 V2000
    3.2625   18.9375   40.3601 N   0  0  0  0  0  0  0  0  0  0  0  0
    3.1563   18.6034   39.0410 C   0  0  0  0  0  0  0  0  0  0  0  0
    2.5808   19.5050   38.1711 C   0  0  0  0  0  0  0  0  0  0  0  0
    2.1043   20.7479   38.6005 C   0  0  0  0  0  0  0  0  0  0  0  0
    2.2246   21.0599   39.9410 C   0  0  0  0  0  0  0  0  0  0  0  0
    2.8061   20.1319   40.7804 C   0  0  0  0  0  0  0  0  0  0  0  0
    2.4713   19.1400   36.7632 C   0  0  0  0  0  0  0  0  0  0  0  0
    1.8886   20.0414   35.8565 O   0  0  0  0  0  0  0  0  0  0  0  0
    2.8728   18.0467   36.2949 O   0  0  0  0  0  0  0  0  0  0  0  0
    3.5247   17.6452   38.7150 H   0  0  0  0  0  0  0  0  0  0  0  0
    1.6554   21.4345   37.8836 H   0  0  0  0  0  0  0  0  0  0  0  0
    1.8666   22.0121   40.3063 H   0  0  0  0  0  0  0  0  0  0  0  0
    2.8828   20.4127   41.8248 H   0  0  0  0  0  0  0  0  0  0  0  0
  1  2  1  0
  1  6  2  0
  2  3  2  0
  3  4  1  0
  3  7  1  0
  4  5  2  0
  5  6  1  0
  7  8  1  0
  7  9  2  0
  2 10  1  0
  4 11  1  0
  5 12  1  0
  6 13  1  0
M  CHG  1   8  -1
M  END
>  <mol_id>  (14) 
2026-09-18-3war-s0-n100-r2-0014

>  <rmsd_to_ref>  (14) 
1.051020408167368

>  <pose_kind>  (14) 
conformer

$$$$
3war.A
     RDKit          3D

 13 13  0  0  0  0  0  0  0  0999 V2000
    1.1568   17.5055   40.0176 N   0  0  0  0  0  0  0  0  0  0  0  0
    1.8832   17.8358   38.8483 C   0  0  0  0  0  0  0  0  0  0  0  0
    2.4345   19.1660   38.7718 C   0  0  0  0  0  0  0  0  0  0  0  0
    2.2297   20.0768   39.7929 C   0  0  0  0  0  0  0  0  0  0  0  0
    1.5388   19.7029   40.9246 C   0  0  0  0  0  0  0  0  0  0  0  0
    0.9900   18.4426   41.0047 C   0  0  0  0  0  0  0  0  0  0  0  0
    3.1438   19.6193   37.5044 C   0  0  0  0  0  0  0  0  0  0  0  0
    3.4616   18.7441   36.6467 O   0  0  0  0  0  0  0  0  0  0  0  0
    3.3345   20.8140   37.4299 O   0  0  0  0  0  0  0  0  0  0  0  0
    2.0211   17.1095   38.0338 H   0  0  0  0  0  0  0  0  0  0  0  0
    2.6193   21.1014   39.7010 H   0  0  0  0  0  0  0  0  0  0  0  0
    1.4260   20.4084   41.7610 H   0  0  0  0  0  0  0  0  0  0  0  0
    0.3964   18.1781   41.8922 H   0  0  0  0  0  0  0  0  0  0  0  0
  1  2  1  0
  1  6  2  0
  2  3  2  0
  3  4  1  0
  3  7  1  0
  4  5  2  0
  5  6  1  0
  7  8  1  0
  7  9  2  0
  2 10  1  0
  4 11  1  0
  5 12  1  0
  6 13  1  0
M  CHG  1   8  -1
M  END
>  <mol_id>  (15) 
2026-09-18-3war-s0-n100-r2-0015

>  <rmsd_to_ref>  (15) 
1.0969387755106603

>  <pose_kind>  (15) 
rigid

$$$$
3war.A
     RDKit          3D

 13 13  0  0  0  0  0  0  0  0999 V2000
    1.8576   18.0681   39.6489 N   0  0  0  0  0  0  0  0  0  0  0  0
    2.5162   18.7224   38.6561 C   0  0  0  0  0  0  0  0  0  0  0  0
    2.1203   19.9679   38.2093 C   0  0  0  0  0  0  0  0  0  0  0  0
    1.0256   20.5860   38.7734 C   0  0  0  0  0  0  0  0  0  0  0  0
    0.3565   19.9096   39.7894 C   0  0  0  0  0  0  0  0  0  0  0  0
    0.7874   18.6655   40.2048 C   0  0  0  0  0  0  0  0  0  0  0  0
    2.8611   20.6261   37.1421 C   0  0  0  0  0  0  0  0  0  0  0  0
    2.4648   21.8781   36.6915 O   0  0  0  0  0  0  0  0  0  0  0  0
    3.8769   20.0502   36.6202 O   0  0  0  0  0  0  0  0  0  0  0  0
    3.3756   18.2319   38.2167 H   0  0  0  0  0  0  0  0  0  0  0  0
    0.6688   21.5613   38.4644 H   0  0  0  0  0  0  0  0  0  0  0  0
   -0.4955   20.3995   40.2229 H   0  0  0  0  0  0  0  0  0  0  0  0
    0.2469   18.1719   40.9919 H   0  0  0  0  0  0  0  0  0  0  0  0
  1  2  1  0
  1  6  2  0
  2  3  2  0
  3  4  1  0
  3  7  1  0
  4  5  2  0
  5  6  1  0
  7  8  1  0
  7  9  2  0
  2 10  1  0
  4 11  1  0
  5 12  1  0
  6 13  1  0
M  CHG  1   8  -1
M  END
>  <mol_id>  (16) 
2026-09-18-3war-s0-n100-r2-0016

>  <rmsd_to_ref>  (16) 
1.142857142859678

>  <pose_kind>  (16) 
conformer

$$$$
3war.A
     RDKit          3D

 13 13  0  0  0  0  0  0  0  0999 V2000
    1.3754   19.1765   40.5364 N   0  0  0  0  0  0  0  0  0  0  0  0
    1.6550   18.4933   39.3285 C   0  0  0  0  0  0  0  0  0  0  0  0
    2.1033   19.2892   38.2127 C   0  0  0  0  0  0  0  0  0  0  0  0
    2.2229   20.6629   38.3261 C   0  0  0  0  0  0  0  0  0  0  0  0
    1.9655   21.2824   39.5294 C   0  0  0  0  0  0  0  0  0  0  0  0
    1.5184   20.5389   40.5985 C   0  0  0  0  0  0  0  0  0  0  0  0
    2.3297   18.6339   36.8584 C   0  0  0  0  0  0  0  0  0  0  0  0
    2.3701   17.3699   36.8006 O   0  0  0  0  0  0  0  0  0  0  0  0
    2.4437   19.4086   35.9331 O   0  0  0  0  0  0  0  0  0  0  0  0
    1.5356   17.4030   39.2447 H   0  0  0  0  0  0  0  0  0  0  0  0
    2.5241   21.2616   37.4538 H   0  0  0  0  0  0  0  0  0  0  0  0
    2.1166   22.3667   39.6356 H   0  0  0  0  0  0  0  0  0  0  0  0
    1.2670   21.0563   41.5361 H   0  0  0  0  0  0  0  0  0  0  0  0
  1  2  1  0
  1  6  2  0
  2  3  2  0
  3  4  1  0
  3  7  1  0
  4  5  2  0
  5  6  1  0
  7  8  1  0
  7  9  2  0
  2 10  1  0
  4 11  1  0
  5 12  1  0
  6 13  1  0
M  CHG  1   8  -1
M  END
>  <mol_id>  (17) 
2026-09-18-3war-s0-n100-r2-0017

>  <rmsd_to_ref>  (17) 
1.1887755102061508

>  <pose_kind>  (17) 
rigid

$$$$
3war.A
     RDKit          3D

 13 13  0  0  0  0  0  0  0  0999 V2000
    3.4970   20.1292   40.8106 N   0  0  0  0  0  0  0  0  0  0  0  0
    3.5835   20.0469   39.4651 C   0  0  0  0  0  0  0  0  0  0  0  0
    2.5731   20.5431   38.6674 C   0  0  0  0  0  0  0  0  0  0  0  0
    1.4646   21.1289   39.2690 C   0  0  0  0  0  0  0  0  0  0  0  0
    1.3769   21.2129   40.6556 C   0  0  0  0  0  0  0  0  0  0  0  0
    2.4198   20.6989   41.4131 C   0  0  0  0  0  0  0  0  0  0  0  0
    2.6749   20.4499   37.2125 C   0  0  0  0  0  0  0  0  0  0  0  0
    1.6483   20.9547   36.4238 O   0  0  0  0  0  0  0  0  0  0  0  0
    3.6983   19.9100   36.6885 O   0  0  0  0  0  0  0  0  0  0  0  0
    4.4568   19.5871   39.0516 H   0  0  0  0  0  0  0  0  0  0  0  0
    0.6860   21.5100   38.6142 H   0  0  0  0  0  0  0  0  0  0  0  0
    0.5119   21.6697   41.1135 H   0  0  0  0  0  0  0  0  0  0  0  0
    2.3701   20.7551   42.5055 H   0  0  0  0  0  0  0  0  0  0  0  0
  1  2  1  0
  1  6  2  0
  2  3  2  0
  3  4  1  0
  3  7  1  0
  4  5  2  0
  5  6  1  0
  7  8  1  0
  7  9  2  0
  2 10  1  0
  4 11  1  0
  5 12  1  0
  6 13  1  0
M  CHG  1   8  -1
M  END
>  <mol_id>  (18) 
2026-09-18-3war-s0-n100-r2-0018

>  <rmsd_to_ref>  (18) 
1.2346938775516023

>  <pose_kind>  (18) 
conformer

$$$$
3war.A
     RDKit          3D

 13 13  0  0  0  0  0  0  0  0999 V2000
    3.2429   18.4423   40.9657 N   0  0  0  0  0  0  0  0  0  0  0  0
    2.9690   18.1487   39.6082 C   0  0  0  0  0  0  0  0  0  0  0  0
    2.7699   19.2685   38.7217 C   0  0  0  0  0  0  0  0  0  0  0  0
    2.8202   20.5663   39.1985 C   0  0  0  0  0  0  0  0  0  0  0  0
    3.1165   20.8054   40.5225 C   0  0  0  0  0  0  0  0  0  0  0  0
    3.2904   19.7468   41.3856 C   0  0  0  0  0  0  0  0  0  0  0  0
    2.3777   19.0253   37.2720 C   0  0  0  0  0  0  0  0  0  0  0  0
    2.4854   17.8524   36.8079 O   0  0  0  0  0  0  0  0  0  0  0  0
    1.9776   20.0066   36.6836 O   0  0  0  0  0  0  0  0  0  0  0  0
    2.9106   17.1119   39.2455 H   0  0  0  0  0  0  0  0  0  0  0  0
    2.6233   21.4087   38.5192 H   0  0  0  0  0  0  0  0  0  0  0  0
    3.2138   21.8381   40.8887 H   0  0  0  0  0  0  0  0  0  0  0  0
    3.4739   19.9550   42.4500 H   0  0  0  0  0  0  0  0  0  0  0  0
  1  2  1  0
  1  6  2  0
  2  3  2  0
  3  4  1  0
  3  7  1  0
  4  5  2  0
  5  6  1  0
  7  8  1  0
  7  9  2  0
  2 10  1  0
  4 11  1  0
  5 12  1  0
  6 13  1  0
M  CHG  1   8  -1
M  END
>  <mol_id>  (19) 
2026-09-18-3war-s0-n100-r2-0019

>  <rmsd_to_ref>  (19) 
1.2806122449006456

>  <pose_kind>  (19) 
rigid

$$$$
3war.A
     RDKit          3D

 13 13  0  0  0  0  0  0  0  0999 V2000
    2.2027   20.3411   41.2149 N   0  0  0  0  0  0  0  0  0  0  0  0
    2.3792   19.5633   40.1080 C   0  0  0  0  0  0  0  0  0  0  0  0
    2.0749   20.1180   38.8753 C   0  0  0  0  0  0  0  0  0  0  0  0
    1.6092   21.4002   38.7198 C   0  0  0  0  0  0  0  0  0  0  0  0
    1.4395   22.1707   39.8745 C   0  0  0  0  0  0  0  0  0  0  0  0
    1.7470   21.6039   41.0957 C   0  0  0  0  0  0  0  0  0  0  0  0
    2.2678   19.2772   37.7035 C   0  0  0  0  0  0  0  0  0  0  0  0
    1.9839   19.7623   36.4245 O   0  0  0  0  0  0  0  0  0  0  0  0
    2.6910   18.0911   37.7609 O   0  0  0  0  0  0  0  0  0  0  0  0
    2.7450   18.5574   40.2355 H   0  0  0  0  0  0  0  0  0  0  0  0
    1.3870   21.7837   37.7346 H   0  0  0  0  0  0  0  0  0  0  0  0
    1.0746   23.1744   39.7494 H   0  0  0  0  0  0  0  0  0  0  0  0
    1.6167   22.2029   42.0113 H   0  0  0  0  0  0  0  0  0  0  0  0
  1  2  1  0
  1  6  2  0
  2  3  2  0
  3  4  1  0
  3  7  1  0
  4  5  2  0
  5  6  1  0
  7  8  1  0
  7  9  2  0
  2 10  1  0
  4 11  1  0
  5 12  1  0
  6 13  1  0
M  CHG  1   8  -1
M  END
>  <mol_id>  (20) 
2026-09-18-3war-s0-n100-r2-0020

>  <rmsd_to_ref>  (20) 
1.3265306122480498

>  <pose_kind>  (20) 
conformer

$$$$
3war.A
     RDKit          3D

 13 13  0  0  0  0  0  0  0  0999 V2000
    0.7835   19.0352   40.4812 N   0  0  0  0  0  0  0  0  0  0  0  0
    2.0498   18.9903   39.8500 C   0  0  0  0  0  0  0  0  0  0  0  0
    2.5243   20.2093   39.2431 C   0  0  0  0  0  0  0  0  0  0  0  0
    1.7513   21.3566   39.2615 C   0  0  0  0  0  0  0  0  0  0  0  0
    0.5363   21.3613   39.9109 C   0  0  0  0  0  0  0  0  0  0  0  0
    0.0607   20.2006   40.4787 C   0  0  0  0  0  0  0  0  0  0  0  0
    3.8321   20.2081   38.4656 C   0  0  0  0  0  0  0  0  0  0  0  0
    4.6015   19.2097   38.5835 O   0  0  0  0  0  0  0  0  0  0  0  0
    4.0140   21.1897   37.7782 O   0  0  0  0  0  0  0  0  0  0  0  0
    2.6457   18.0661   39.8237 H   0  0  0  0  0  0  0  0  0  0  0  0
    2.1075   22.2666   38.7566 H   0  0  0  0  0  0  0  0  0  0  0  0
   -0.0516   22.2887   39.9755 H   0  0  0  0  0  0  0  0  0  0  0  0
   -0.9346   20.2084   40.9470 H   0  0  0  0  0  0  0  0  0  0  0  0
  1  2  1  0
  1  6  2  0
  2  3  2  0
  3  4  1  0
  3  7  1  0
  4  5  2  0
  5  6  1  0
  7  8  1  0
  7  9  2  0
  2 10  1  0
  4 11  1  0
  5 12  1  0
  6 13  1  0
M  CHG  1   8  -1
M  END
>  <mol_id>  (21) 
2026-09-18-3war-s0-n100-r2-0021

>  <rmsd_to_ref>  (21) 
1.372448979595685

>  <pose_kind>  (21) 
rigid

$$$$
3war.A
     RDKit          3D

 13 13  0  0  0  0  0  0  0  0999 V2000
    0.6529   19.5994   41.0985 N   0  0  0  0  0  0  0  0  0  0  0  0
    1.2279   18.9033   40.0990 C   0  0  0  0  0  0  0  0  0  0  0  0
    2.0093   19.5558   39.1654 C   0  0  0  0  0  0  0  0  0  0  0  0
    2.1890   20.9216   39.2737 C   0  0  0  0  0  0  0  0  0  0  0  0
    1.6007   21.6465   40.2997 C   0  0  0  0  0  0  0  0  0  0  0  0
    0.8281   20.9305   41.2041 C   0  0  0  0  0  0  0  0  0  0  0  0
    2.6120   18.7582   38.0996 C   0  0  0  0  0  0  0  0  0  0  0  0
    3.4105   19.3305   37.1202 O   0  0  0  0  0  0  0  0  0  0  0  0
    2.4296   17.5005   38.0239 O   0  0  0  0  0  0  0  0  0  0  0  0
    1.0401   17.8370   40.0817 H   0  0  0  0  0  0  0  0  0  0  0  0
    2.7972   21.4434   38.5507 H   0  0  0  0  0  0  0  0  0  0  0  0
    1.7320   22.7113   40.3966 H   0  0  0  0  0  0  0  0  0  0  0  0
    0.3494   21.4584   42.0225 H   0  0  0  0  0  0  0  0  0  0  0  0
  1  2  1  0
  1  6  2  0
  2  3  2  0
  3  4  1  0
  3  7  1  0
  4  5  2  0
  5  6  1  0
  7  8  1  0
  7  9  2  0
  2 10  1  0
  4 11  1  0
  5 12  1  0
  6 13  1  0
M  CHG  1   8  -1
M  END
>  <mol_id>  (22) 
2026-09-18-3war-s0-n100-r2-0022

>  <rmsd_to_ref>  (22) 
1.4183673469393216

>  <pose_kind>  (22) 
conformer

$$$$
3war.A
     RDKit          3D

 13 13  0  0  0  0  0  0  0  0999 V2000
    1.7739   18.4188   39.5941 N   0  0  0  0  0  0  0  0  0  0  0  0
    2.6486   19.1833   38.7851 C   0  0  0  0  0  0  0  0  0  0  0  0
    2.4007   20.6018   38.7089 C   0  0  0  0  0  0  0  0  0  0  0  0
    1.3336   21.1709   39.3810 C   0  0  0  0  0  0  0  0  0  0  0  0
    0.5240   20.3920   40.1783 C   0  0  0  0  0  0  0  0  0  0  0  0
    0.7360   19.0332   40.2465 C   0  0  0  0  0  0  0  0  0  0  0  0
    3.2420   21.4682   37.7836 C   0  0  0  0  0  0  0  0  0  0  0  0
    4.3027   20.9765   37.2979 O   0  0  0  0  0  0  0  0  0  0  0  0
    2.7977   22.5785   37.5856 O   0  0  0  0  0  0  0  0  0  0  0  0
    3.4809   18.7158   38.2386 H   0  0  0  0  0  0  0  0  0  0  0  0
    1.1313   22.2472   39.2784 H   0  0  0  0  0  0  0  0  0  0  0  0
   -0.2886   20.8538   40.7583 H   0  0  0  0  0  0  0  0  0  0  0  0
    0.0482   18.4186   40.8458 H   0  0  0  0  0  0  0  0  0  0  0  0
  1  2  1  0
  1  6  2  0
  2  3  2  0
  3  4  1  0
  3  7  1  0
  4  5  2  0
  5  6  1  0
  7  8  1  0
  7  9  2  0
  2 10  1  0
  4 11  1  0
  5 12  1  0
  6 13  1  0
M  CHG  1   8  -1
M  END
>  <mol_id>  (23) 
2026-09-18-3war-s0-n100-r2-0023

>  <rmsd_to_ref>  (23) 
1.464285714288129

>  <pose_kind>  (23) 
rigid

$$$$
3war.A
     RDKit          3D

 13 13  0  0  0  0  0  0  0  0999 V2000
    0.8569   18.2183   40.1022 N   0  0  0  0  0  0  0  0  0  0  0  0
    1.9903   18.0704   39.3563 C   0  0  0  0  0  0  0  0  0  0  0  0
    2.8520   19.1400   39.2372 C   0  0  0  0  0  0  0  0  0  0  0  0
    2.5986   20.3681   39.8568 C   0  0  0  0  0  0  0  0  0  0  0  0
    1.4439   20.4896   40.6057 C   0  0  0  0  0  0  0  0  0  0  0  0
    0.6065   19.3972   40.7013 C   0  0  0  0  0  0  0  0  0  0  0  0
    4.0610   18.9735   38.4383 C   0  0  0  0  0  0  0  0  0  0  0  0
    4.9552   20.0485   38.3014 O   0  0  0  0  0  0  0  0  0  0  0  0
    4.3641   17.9070   37.8496 O   0  0  0  0  0  0  0  0  0  0  0  0
    2.1813   17.1229   38.8810 H   0  0  0  0  0  0  0  0  0  0  0  0
    3.3030   21.1909   39.7400 H   0  0  0  0  0  0  0  0  0  0  0  0
    1.2175   21.4250   41.0979 H   0  0  0  0  0  0  0  0  0  0  0  0
   -0.2892   19.5312   41.2973 H   0  0  0  0  0  0  0  0  0  0  0  0
  1  2  1  0
  1  6  2  0
  2  3  2  0
  3  4  1  0
  3  7  1  0
  4  5  2  0
  5  6  1  0
  7  8  1  0
  7  9  2  0
  2 10  1  0
  4 11  1  0
  5 12  1  0
  6 13  1  0
M  CHG  1   8  -1
M  END
>  <mol_id>  (24) 
2026-09-18-3war-s0-n100-r2-0024

>  <rmsd_to_ref>  (24) 
1.5102040816333455

>  <pose_kind>  (24) 
conformer

$$$$
3war.A
     RDKit          3D

 13 13  0  0  0  0  0  0  0  0999 V2000
    2.9777   19.8699   41.4118 N   0  0  0  0  0  0  0  0  0  0  0  0
    3.0532   18.9414   40.3458 C   0  0  0  0  0  0  0  0  0  0  0  0
    3.0000   19.4737   39.0067 C   0  0  0  0  0  0  0  0  0  0  0  0
    2.8536   20.8323   38.7905 C   0  0  0  0  0  0  0  0  0  0  0  0
    2.8112   21.7018   39.8583 C   0  0  0  0  0  0  0  0  0  0  0  0
    2.8416   21.2077   41.1431 C   0  0  0  0  0  0  0  0  0  0  0  0
    2.9795   18.5264   37.8163 C   0  0  0  0  0  0  0  0  0  0  0  0
    3.2683   17.3093   38.0107 O   0  0  0  0  0  0  0  0  0  0  0  0
    2.6695   19.0416   36.7638 O   0  0  0  0  0  0  0  0  0  0  0  0
    3.1482   17.8613   40.5310 H   0  0  0  0  0  0  0  0  0  0  0  0
    2.7709   21.2191   37.7640 H   0  0  0  0  0  0  0  0  0  0  0  0
    2.7534   22.7865   39.6851 H   0  0  0  0  0  0  0  0  0  0  0  0
    2.7535   21.9112   41.9841 H   0  0  0  0  0  0  0  0  0  0  0  0
  1  2  1  0
  1  6  2  0
  2  3  2  0
  3  4  1  0
  3  7  1  0
  4  5  2  0
  5  6  1  0
  7  8  1  0
  7  9  2  0
  2 10  1  0
  4 11  1  0
  5 12  1  0
  6 13  1  0
M  CHG  1   8  -1
M  END
>  <mol_id>  (25) 
2026-09-18-3war-s0-n100-r2-0025

>  <rmsd_to_ref>  (25) 
1.556122448984596

>  <pose_kind>  (25) 
rigid

$$$$
3war.A
     RDKit          3D

 13 13  0  0  0  0  0  0  0  0999 V2000
    0.6580   17.9959   39.9761 N   0  0  0  0  0  0  0  0  0  0  0  0
    1.8690   17.9617   39.3711 C   0  0  0  0  0  0  0  0  0  0  0  0
    2.6181   19.1178   39.2793 C   0  0  0  0  0  0  0  0  0  0  0  0
    2.1706   20.3294   39.7905 C   0  0  0  0  0  0  0  0  0  0  0  0
    0.9316   20.3303   40.4013 C   0  0  0  0  0  0  0  0  0  0  0  0
    0.1711   19.1595   40.4952 C   0  0  0  0  0  0  0  0  0  0  0  0
    3.9301   19.0314   38.6120 C   0  0  0  0  0  0  0  0  0  0  0  0
    4.7445   20.1412   38.4770 O   0  0  0  0  0  0  0  0  0  0  0  0
    4.3609   17.9391   38.1377 O   0  0  0  0  0  0  0  0  0  0  0  0
    2.2648   17.0434   38.9557 H   0  0  0  0  0  0  0  0  0  0  0  0
    2.7939   21.1966   39.6915 H   0  0  0  0  0  0  0  0  0  0  0  0
    0.5701   21.2531   40.8009 H   0  0  0  0  0  0  0  0  0  0  0  0
   -0.8053   19.1623   40.9770 H   0  0  0  0  0  0  0  0  0  0  0  0
  1  2  1  0
  1  6  2  0
  2  3  2  0
  3  4  1  0
  3  7  1  0
  4  5  2  0
  5  6  1  0
  7  8  1  0
  7  9  2  0
  2 10  1  0
  4 11  1  0
  5 12  1  0
  6 13  1  0
M  CHG  1   8  -1
M  END
>  <mol_id>  (26) 
2026-09-18-3war-s0-n100-r2-0026

>  <rmsd_to_ref>  (26) 
1.602040816328799

>  <pose_kind>  (26) 
conformer

$$$$
3war.A
     RDKit          3D

 13 13  0  0  0  0  0  0  0  0999 V2000
    1.9763   17.3794   39.6130 N   0  0  0  0  0  0  0  0  0  0  0  0
    1.8826   18.1111   38.4048 C   0  0  0  0  0  0  0  0  0  0  0  0
    1.7060   19.5381   38.5136 C   0  0  0  0  0  0  0  0  0  0  0  0
    1.6065   20.1465   39.7522 C   0  0  0  0  0  0  0  0  0  0  0  0
    1.7301   19.3979   40.9021 C   0  0  0  0  0  0  0  0  0  0  0  0
    1.8800   18.0320   40.8152 C   0  0  0  0  0  0  0  0  0  0  0  0
    1.5021   20.3731   37.2583 C   0  0  0  0  0  0  0  0  0  0  0  0
    1.7476   19.8420   36.1356 O   0  0  0  0  0  0  0  0  0  0  0  0
    1.1021   21.4997   37.4582 O   0  0  0  0  0  0  0  0  0  0  0  0
    1.9420   17.6129   37.4259 H   0  0  0  0  0  0  0  0  0  0  0  0
    1.4283   21.2299   39.8190 H   0  0  0  0  0  0  0  0  0  0  0  0
    1.7092   19.8895   41.8859 H   0  0  0  0  0  0  0  0  0  0  0  0
    1.9240   17.4431   41.7433 H   0  0  0  0  0  0  0  0  0  0  0  0
  1  2  1  0
  1  6  2  0
  2  3  2  0
  3  4  1  0
  3  7  1  0
  4  5  2  0
  5  6  1  0
  7  8  1  0
  7  9  2  0
  2 10  1  0
  4 11  1  0
  5 12  1  0
  6 13  1  0
M  CHG  1   8  -1
M  END
>  <mol_id>  (27) 
2026-09-18-3war-s0-n100-r2-0027

>  <rmsd_to_ref>  (27) 
1.6479591836759462

>  <pose_kind>  (27) 
rigid

$$$$
3war.A
     RDKit          3D

 13 13  0  0  0  0  0  0  0  0999 V2000
    2.4089   20.8817   41.3420 N   0  0  0  0  0  0  0  0  0  0  0  0
    2.5632   19.9119   40.4215 C   0  0  0  0  0  0  0  0  0  0  0  0
    2.2002   20.2040   39.1225 C   0  0  0  0  0  0  0  0  0  0  0  0
    1.6941   21.4292   38.7354 C   0  0  0  0  0  0  0  0  0  0  0  0
    1.5500   22.4074   39.7209 C   0  0  0  0  0  0  0  0  0  0  0  0
    1.9191   22.0994   41.0227 C   0  0  0  0  0  0  0  0  0  0  0  0
    2.3553   19.1683   38.0909 C   0  0  0  0  0  0  0  0  0  0  0  0
    2.8583   17.9138   38.4115 O   0  0  0  0  0  0  0  0  0  0  0  0
    2.0192   19.4449   36.8986 O   0  0  0  0  0  0  0  0  0  0  0  0
    2.9468   18.9323   40.6260 H   0  0  0  0  0  0  0  0  0  0  0  0
    1.4048   21.6856   37.7412 H   0  0  0  0  0  0  0  0  0  0  0  0
    1.1591   23.3747   39.4589 H   0  0  0  0  0  0  0  0  0  0  0  0
    1.8003   22.8721   41.7770 H   0  0  0  0  0  0  0  0  0  0  0  0
  1  2  1  0
  1  6  2  0
  2  3  2  0
  3  4  1  0
  3  7  1  0
  4  5  2  0
  5  6  1  0
  7  8  1  0
  7  9  2  0
  2 10  1  0
  4 11  1  0
  5 12  1  0
  6 13  1  0
M  CHG  1   8  -1
M  END
>  <mol_id>  (28) 
2026-09-18-3war-s0-n100-r2-0028

>  <rmsd_to_ref>  (28) 
1.6938775510220458

>  <pose_kind>  (28) 
conformer

$$$$
3war.A
     RDKit          3D

 13 13  0  0  0  0  0  0  0  0999 V2000
    1.3694   17.5980   40.3660 N   0  0  0  0  0  0  0  0  0  0  0  0
    2.6700   17.9835   39.9610 C   0  0  0  0  0  0  0  0  0  0  0  0
    2.8282   19.3220   39.4484 C   0  0  0  0  0  0  0  0  0  0  0  0
    1.7411   20.1705   39.3378 C   0  0  0  0  0  0  0  0  0  0  0  0
    0.4982   19.7618   39.7693 C   0  0  0  0  0  0  0  0  0  0  0  0
    0.3271   18.4805   40.2434 C   0  0  0  0  0  0  0  0  0  0  0  0
    4.1774   19.7700   38.9066 C   0  0  0  0  0  0  0  0  0  0  0  0
    5.1923   19.0539   39.1513 O   0  0  0  0  0  0  0  0  0  0  0  0
    4.1497   20.7973   38.2637 O   0  0  0  0  0  0  0  0  0  0  0  0
    3.5226   17.2922   40.0342 H   0  0  0  0  0  0  0  0  0  0  0  0
    1.8693   21.1734   38.9045 H   0  0  0  0  0  0  0  0  0  0  0  0
   -0.3540   20.4564   39.7353 H   0  0  0  0  0  0  0  0  0  0  0  0
   -0.6820   18.1530   40.5342 H   0  0  0  0  0  0  0  0  0  0  0  0
  1  2  1  0
  1  6  2  0
  2  3  2  0
  3  4  1  0
  3  7  1  0
  4  5  2  0
  5  6  1  0
  7  8  1  0
  7  9  2  0
  2 10  1  0
  4 11  1  0
  5 12  1  0
  6 13  1  0
M  CHG  1   8  -1
M  END
>  <mol_id>  (29) 
2026-09-18-3war-s0-n100-r2-0029

>  <rmsd_to_ref>  (29) 
1.7397959183685832

>  <pose_kind>  (29) 
rigid

$$$$
3war.A
     RDKit          3D

 13 13  0  0  0  0  0  0  0  0999 V2000
    2.5044   20.6375   40.3873 N   0  0  0  0  0  0  0  0  0  0  0  0
    2.7228   19.6285   39.5017 C   0  0  0  0  0  0  0  0  0  0  0  0
    2.9045   19.9155   38.1691 C   0  0  0  0  0  0  0  0  0  0  0  0
    2.8697   21.2143   37.7075 C   0  0  0  0  0  0  0  0  0  0  0  0
    2.6453   22.2040   38.6419 C   0  0  0  0  0  0  0  0  0  0  0  0
    2.4606   21.9229   39.9912 C   0  0  0  0  0  0  0  0  0  0  0  0
    3.1414   18.8584   37.1892 C   0  0  0  0  0  0  0  0  0  0  0  0
    3.1891   17.5147   37.5908 O   0  0  0  0  0  0  0  0  0  0  0  0
    3.3012   19.1761   35.9823 O   0  0  0  0  0  0  0  0  0  0  0  0
    2.7504   18.6182   39.8577 H   0  0  0  0  0  0  0  0  0  0  0  0
    3.0025   21.5071   36.6892 H   0  0  0  0  0  0  0  0  0  0  0  0
    2.6112   23.2348   38.3177 H   0  0  0  0  0  0  0  0  0  0  0  0
    2.2888   22.7488   40.6705 H   0  0  0  0  0  0  0  0  0  0  0  0
  1  2  1  0
  1  6  2  0
  2  3  2  0
  3  4  1  0
  3  7  1  0
  4  5  2  0
  5  6  1  0
  7  8  1  0
  7  9  2  0
  2 10  1  0
  4 11  1  0
  5 12  1  0
  6 13  1  0
M  CHG  1   8  -1
M  END
>  <mol_id>  (30) 
2026-09-18-3war-s0-n100-r2-0030

>  <rmsd_to_ref>  (30) 
1.7857142857196993

>  <pose_kind>  (30) 
conformer

$$$$
3war.A
     RDKit          3D

 13 13  0  0  0  0  0  0  0  0999 V2000
    2.8851   20.7932   40.7863 N   0  0  0  0  0  0  0  0  0  0  0  0
    3.2153   19.6896   39.9636 C   0  0  0  0  0  0  0  0  0  0  0  0
    3.1893   19.9028   38.5377 C   0  0  0  0  0  0  0  0  0  0  0  0
    2.8282   21.1306   38.0122 C   0  0  0  0  0  0  0  0  0  0  0  0
    2.5405   22.1844   38.8517 C   0  0  0  0  0  0  0  0  0  0  0  0
    2.5424   21.9918   40.2151 C   0  0  0  0  0  0  0  0  0  0  0  0
    3.4397   18.7363   37.5936 C   0  0  0  0  0  0  0  0  0  0  0  0
    3.9176   17.6663   38.0724 O   0  0  0  0  0  0  0  0  0  0  0  0
    3.1393   18.9458   36.4381 O   0  0  0  0  0  0  0  0  0  0  0  0
    3.4802   18.7122   40.3932 H   0  0  0  0  0  0  0  0  0  0  0  0
    2.7707   21.2657   36.9220 H   0  0  0  0  0  0  0  0  0  0  0  0
    2.3102   23.1758   38.4345 H   0  0  0  0  0  0  0  0  0  0  0  0
    2.2589   22.8293   40.8694 H   0  0  0  0  0  0  0  0  0  0  0  0
  1  2  1  0
  1  6  2  0
  2  3  2  0
  3  4  1  0
  3  7  1  0
  4  5  2  0
  5  6  1  0
  7  8  1  0
  7  9  2  0
  2 10  1  0
  4 11  1  0
  5 12  1  0
  6 13  1  0
M  CHG  1   8  -1
M  END
>  <mol_id>  (31) 
2026-09-18-3war-s0-n100-r2-0031

>  <rmsd_to_ref>  (31) 
1.8316326530631433

>  <pose_kind>  (31) 
rigid

$$$$
3war.A
     RDKit          3D

 13 13  0  0  0  0  0  0  0  0999 V2000
    1.7506   18.0379   38.8941 N   0  0  0  0  0  0  0  0  0  0  0  0
    3.0326   18.3821   38.5800 C   0  0  0  0  0  0  0  0  0  0  0  0
    3.2948   19.6872   38.2161 C   0  0  0  0  0  0  0  0  0  0  0  0
    2.3003   20.6420   38.1632 C   0  0  0  0  0  0  0  0  0  0  0  0
    1.0097   20.2735   38.4847 C   0  0  0  0  0  0  0  0  0  0  0  0
    0.7626   18.9599   38.8479 C   0  0  0  0  0  0  0  0  0  0  0  0
    4.6616   20.0693   37.8776 C   0  0  0  0  0  0  0  0  0  0  0  0
    5.6911   19.1374   37.9187 O   0  0  0  0  0  0  0  0  0  0  0  0
    4.9337   21.2518   37.5417 O   0  0  0  0  0  0  0  0  0  0  0  0
    3.8362   17.6592   38.6110 H   0  0  0  0  0  0  0  0  0  0  0  0
    2.5002   21.6558   37.8813 H   0  0  0  0  0  0  0  0  0  0  0  0
    0.2352   21.0308   38.4402 H   0  0  0  0  0  0  0  0  0  0  0  0
   -0.2616   18.7081   39.0931 H   0  0  0  0  0  0  0  0  0  0  0  0
  1  2  1  0
  1  6  2  0
  2  3  2  0
  3  4  1  0
  3  7  1  0
  4  5  2  0
  5  6  1  0
  7  8  1  0
  7  9  2  0
  2 10  1  0
  4 11  1  0
  5 12  1  0
  6 13  1  0
M  CHG  1   8  -1
M  END
>  <mol_id>  (32) 
2026-09-18-3war-s0-n100-r2-0032

>  <rmsd_to_ref>  (32) 
1.8775510204093864

>  <pose_kind>  (32) 
conformer

$$$$
3war.A
     RDKit          3D

 13 13  0  0  0  0  0  0  0  0999 V2000
    3.1612   18.7623   39.2367 N   0  0  0  0  0  0  0  0  0  0  0  0
    2.4929   19.0652   38.0260 C   0  0  0  0  0  0  0  0  0  0  0  0
    1.8450   20.3503   37.9376 C   0  0  0  0  0  0  0  0  0  0  0  0
    1.8614   21.2263   39.0084 C   0  0  0  0  0  0  0  0  0  0  0  0
    2.5472   20.9003   40.1579 C   0  0  0  0  0  0  0  0  0  0  0  0
    3.1549   19.6694   40.2650 C   0  0  0  0  0  0  0  0  0  0  0  0
    1.0282   20.7025   36.7033 C   0  0  0  0  0  0  0  0  0  0  0  0
    1.1447   19.9721   35.6759 O   0  0  0  0  0  0  0  0  0  0  0  0
    0.3139   21.6738   36.8283 O   0  0  0  0  0  0  0  0  0  0  0  0
    2.4690   18.3514   37.1894 H   0  0  0  0  0  0  0  0  0  0  0  0
    1.3259   22.1848   38.9418 H   0  0  0  0  0  0  0  0  0  0  0  0
    2.6092   21.6206   40.9870 H   0  0  0  0  0  0  0  0  0  0  0  0
    3.6530   19.4043   41.2092 H   0  0  0  0  0  0  0  0  0  0  0  0
  1  2  1  0
  1  6  2  0
  2  3  2  0
  3  4  1  0
  3  7  1  0
  4  5  2  0
  5  6  1  0
  7  8  1  0
  7  9  2  0
  2 10  1  0
  4 11  1  0
  5 12  1  0
  6 13  1  0
M  CHG  1   8  -1
M  END
>  <mol_id>  (33) 
2026-09-18-3war-s0-n100-r2-0033

>  <rmsd_to_ref>  (33) 
1.9234693877602105

>  <pose_kind>  (33) 
rigid

$$$$
3war.A
     RDKit          3D

 13 13  0  0  0  0  0  0  0  0999 V2000
    3.6148   19.6094   40.0356 N   0  0  0  0  0  0  0  0  0  0  0  0
    3.0181   19.0257   38.9791 C   0  0  0  0  0  0  0  0  0  0  0  0
    2.8201   19.7982   37.8305 C   0  0  0  0  0  0  0  0  0  0  0  0
    3.2270   21.1163   37.7912 C   0  0  0  0  0  0  0  0  0  0  0  0
    3.8351   21.6633   38.9076 C   0  0  0  0  0  0  0  0  0  0  0  0
    4.0238   20.8875   40.0349 C   0  0  0  0  0  0  0  0  0  0  0  0
    2.1738   19.1974   36.6599 C   0  0  0  0  0  0  0  0  0  0  0  0
    1.7667   17.8766   36.7009 O   0  0  0  0  0  0  0  0  0  0  0  0
    2.0181   19.9315   35.6520 O   0  0  0  0  0  0  0  0  0  0  0  0
    2.7065   17.9892   39.0315 H   0  0  0  0  0  0  0  0  0  0  0  0
    3.0608   21.6825   36.8948 H   0  0  0  0  0  0  0  0  0  0  0  0
    4.1637   22.7004   38.8984 H   0  0  0  0  0  0  0  0  0  0  0  0
    4.4928   21.2622   40.9347 H   0  0  0  0  0  0  0  0  0  0  0  0
  1  2  1  0
  1  6  2  0
  2  3  2  0
  3  4  1  0
  3  7  1  0
  4  5  2  0
  5  6  1  0
  7  8  1  0
  7  9  2  0
  2 10  1  0
  4 11  1  0
  5 12  1  0
  6 13  1  0
M  CHG  1   8  -1
M  END
>  <mol_id>  (34) 
2026-09-18-3war-s0-n100-r2-0034

>  <rmsd_to_ref>  (34) 
1.9693877551020924

>  <pose_kind>  (34) 
conformer

$$$$
3war.A
     RDKit          3D

 13 13  0  0  0  0  0  0  0  0999 V2000
    2.3240   20.8197   39.8054 N   0  0  0  0  0  0  0  0  0  0  0  0
    3.3577   20.1938   39.0680 C   0  0  0  0  0  0  0  0  0  0  0  0
    3.1128   19.9552   37.6671 C   0  0  0  0  0  0  0  0  0  0  0  0
    1.9044   20.3035   37.0906 C   0  0  0  0  0  0  0  0  0  0  0  0
    0.9369   20.9351   37.8409 C   0  0  0  0  0  0  0  0  0  0  0  0
    1.1479   21.1528   39.1839 C   0  0  0  0  0  0  0  0  0  0  0  0
    4.1410   19.2011   36.8371 C   0  0  0  0  0  0  0  0  0  0  0  0
    5.2963   19.0257   37.3243 O   0  0  0  0  0  0  0  0  0  0  0  0
    3.7407   18.8196   35.7585 O   0  0  0  0  0  0  0  0  0  0  0  0
    4.3061   19.9024   39.5429 H   0  0  0  0  0  0  0  0  0  0  0  0
    1.7157   20.0757   36.0311 H   0  0  0  0  0  0  0  0  0  0  0  0
   -0.0006   21.2642   37.3688 H   0  0  0  0  0  0  0  0  0  0  0  0
    0.3443   21.6103   39.7797 H   0  0  0  0  0  0  0  0  0  0  0  0
  1  2  1  0
  1  6  2  0
  2  3  2  0
  3  4  1  0
  3  7  1  0
  4  5  2  0
  5  6  1  0
  7  8  1  0
  7  9  2  0
  2 10  1  0
  4 11  1  0
  5 12  1  0
  6 13  1  0
M  CHG  1   8  -1
M  END
>  <mol_id>  (35) 
2026-09-18-3war-s0-n100-r2-0035

>  <rmsd_to_ref>  (35) 
2.0153061224520403

>  <pose_kind>  (35) 
rigid

$$$$
3war.A
     RDKit          3D

 13 13  0  0  0  0  0  0  0  0999 V2000
    2.6023   18.3176   39.8050 N   0  0  0  0  0  0  0  0  0  0  0  0
    2.4573   19.3236   38.9107 C   0  0  0  0  0  0  0  0  0  0  0  0
    1.8644   20.5105   39.2827 C   0  0  0  0  0  0  0  0  0  0  0  0
    1.4079   20.6866   40.5849 C   0  0  0  0  0  0  0  0  0  0  0  0
    1.5721   19.6401   41.4700 C   0  0  0  0  0  0  0  0  0  0  0  0
    2.1680   18.4568   41.0832 C   0  0  0  0  0  0  0  0  0  0  0  0
    1.6994   21.6037   38.3357 C   0  0  0  0  0  0  0  0  0  0  0  0
    2.1611   21.4245   37.0203 O   0  0  0  0  0  0  0  0  0  0  0  0
    1.1556   22.6688   38.7092 O   0  0  0  0  0  0  0  0  0  0  0  0
    2.8109   19.1964   37.8894 H   0  0  0  0  0  0  0  0  0  0  0  0
    0.9410   21.5902   40.9203 H   0  0  0  0  0  0  0  0  0  0  0  0
    1.2435   19.7038   42.4943 H   0  0  0  0  0  0  0  0  0  0  0  0
    2.2879   17.6459   41.7938 H   0  0  0  0  0  0  0  0  0  0  0  0
  1  2  1  0
  1  6  2  0
  2  3  2  0
  3  4  1  0
  3  7  1  0
  4  5  2  0
  5  6  1  0
  7  8  1  0
  7  9  2  0
  2 10  1  0
  4 11  1  0
  5 12  1  0
  6 13  1  0
M  CHG  1   8  -1
M  END
>  <mol_id>  (36) 
2026-09-18-3war-s0-n100-r2-0036

>  <rmsd_to_ref>  (36) 
2.0612244898014422

>  <pose_kind>  (36) 
conformer

$$$$
3war.A
     RDKit          3D

 13 13  0  0  0  0  0  0  0  0999 V2000
    3.7177   18.8504   40.6450 N   0  0  0  0  0  0  0  0  0  0  0  0
    3.1531   18.0775   39.6019 C   0  0  0  0  0  0  0  0  0  0  0  0
    1.9772   18.6061   38.9559 C   0  0  0  0  0  0  0  0  0  0  0  0
    1.4214   19.8041   39.3681 C   0  0  0  0  0  0  0  0  0  0  0  0
    2.0205   20.5358   40.3700 C   0  0  0  0  0  0  0  0  0  0  0  0
    3.1326   20.0358   41.0095 C   0  0  0  0  0  0  0  0  0  0  0  0
    1.2636   17.7837   37.8933 C   0  0  0  0  0  0  0  0  0  0  0  0
    1.8571   16.7727   37.4154 O   0  0  0  0  0  0  0  0  0  0  0  0
    0.1560   18.1817   37.6033 O   0  0  0  0  0  0  0  0  0  0  0  0
    3.5922   17.1160   39.2975 H   0  0  0  0  0  0  0  0  0  0  0  0
    0.4995   20.1731   38.8950 H   0  0  0  0  0  0  0  0  0  0  0  0
    1.6120   21.5157   40.6578 H   0  0  0  0  0  0  0  0  0  0  0  0
    3.5672   20.6076   41.8426 H   0  0  0  0  0  0  0  0  0  0  0  0
  1  2  1  0
  1  6  2  0
  2  3  2  0
  3  4  1  0
  3  7  1  0
  4  5  2  0
  5  6  1  0
  7  8  1  0
  7  9  2  0
  2 10  1  0
  4 11  1  0
  5 12  1  0
  6 13  1  0
M  CHG  1   8  -1
M  END
>  <mol_id>  (37) 
2026-09-18-3war-s0-n100-r2-0037

>  <rmsd_to_ref>  (37) 
2.1071428571467594

>  <pose_kind>  (37) 
rigid

$$$$
3war.A
     RDKit          3D

 13 13  0  0  0  0  0  0  0  0999 V2000
    0.7978   18.4321   41.2355 N   0  0  0  0  0  0  0  0  0  0  0  0
    2.0937   18.7585   40.9772 C   0  0  0  0  0  0  0  0  0  0  0  0
    2.3761   19.6268   39.9426 C   0  0  0  0  0  0  0  0  0  0  0  0
    1.3432   20.1529   39.1834 C   0  0  0  0  0  0  0  0  0  0  0  0
    0.0294   19.8160   39.4527 C   0  0  0  0  0  0  0  0  0  0  0  0
   -0.2157   18.9486   40.4903 C   0  0  0  0  0  0  0  0  0  0  0  0
    3.7545   19.9901   39.6479 C   0  0  0  0  0  0  0  0  0  0  0  0
    4.0344   20.8636   38.6066 O   0  0  0  0  0  0  0  0  0  0  0  0
    4.6986   19.4999   40.3533 O   0  0  0  0  0  0  0  0  0  0  0  0
    2.9139   18.3577   41.5591 H   0  0  0  0  0  0  0  0  0  0  0  0
    1.5744   20.8278   38.3806 H   0  0  0  0  0  0  0  0  0  0  0  0
   -0.8097   20.2011   38.8880 H   0  0  0  0  0  0  0  0  0  0  0  0
   -1.2436   18.6863   40.6994 H   0  0  0  0  0  0  0  0  0  0  0  0
  1  2  1  0
  1  6  2  0
  2  3  2  0
  3  4  1  0
  3  7  1  0
  4  5  2  0
  5  6  1  0
  7  8  1  0
  7  9  2  0
  2 10  1  0
  4 11  1  0
  5 12  1  0
  6 13  1  0
M  CHG  1   8  -1
M  END
>  <mol_id>  (38) 
2026-09-18-3war-s0-n100-r2-0038

>  <rmsd_to_ref>  (38) 
2.1530612244934697

>  <pose_kind>  (38) 
conformer

$$$$
3war.A
     RDKit          3D

 13 13  0  0  0  0  0  0  0  0999 V2000
    2.3896   16.5481   39.0079 N   0  0  0  0  0  0  0  0  0  0  0  0
    2.5413   17.6479   38.1296 C   0  0  0  0  0  0  0  0  0  0  0  0
    2.7130   18.9480   38.7293 C   0  0  0  0  0  0  0  0  0  0  0  0
    2.6999   19.1005   40.1043 C   0  0  0  0  0  0  0  0  0  0  0  0
    2.5762   17.9979   40.9210 C   0  0  0  0  0  0  0  0  0  0  0  0
    2.3923   16.7523   40.3639 C   0  0  0  0  0  0  0  0  0  0  0  0
    2.7856   20.1849   37.8462 C   0  0  0  0  0  0  0  0  0  0  0  0
    2.9529   20.0267   36.6014 O   0  0  0  0  0  0  0  0  0  0  0  0
    2.6629   21.2367   38.4360 O   0  0  0  0  0  0  0  0  0  0  0  0
    2.5287   17.5165   37.0375 H   0  0  0  0  0  0  0  0  0  0  0  0
    2.7884   20.1039   40.5463 H   0  0  0  0  0  0  0  0  0  0  0  0
    2.6241   18.1122   42.0140 H   0  0  0  0  0  0  0  0  0  0  0  0
    2.2423   15.8901   41.0303 H   0  0  0  0  0  0  0  0  0  0  0  0
  1  2  1  0
  1  6  2  0
  2  3  2  0
  3  4  1  0
  3  7  1  0
  4  5  2  0
  5  6  1  0
  7  8  1  0
  7  9  2  0
  2 10  1  0
  4 11  1  0
  5 12  1  0
  6 13  1  0
M  CHG  1   8  -1
M  END
>  <mol_id>  (39) 
2026-09-18-3war-s0-n100-r2-0039

>  <rmsd_to_ref>  (39) 
2.1989795918399615

>  <pose_kind>  (39) 
rigid

$$$$
3war.A
     RDKit          3D

 13 13  0  0  0  0  0  0  0  0999 V2000
    1.6954   20.4992   40.2968 N   0  0  0  0  0  0  0  0  0  0  0  0
    2.4020   19.4723   39.7734 C   0  0  0  0  0  0  0  0  0  0  0  0
    3.5547   19.7568   39.0703 C   0  0  0  0  0  0  0  0  0  0  0  0
    4.0270   21.0364   38.8717 C   0  0  0  0  0  0  0  0  0  0  0  0
    3.2705   22.0743   39.4274 C   0  0  0  0  0  0  0  0  0  0  0  0
    2.1044   21.7779   40.1380 C   0  0  0  0  0  0  0  0  0  0  0  0
    4.3203   18.6481   38.5034 C   0  0  0  0  0  0  0  0  0  0  0  0
    3.9017   17.3273   38.6651 O   0  0  0  0  0  0  0  0  0  0  0  0
    5.3796   18.8603   37.8535 O   0  0  0  0  0  0  0  0  0  0  0  0
    2.0474   18.4549   39.9181 H   0  0  0  0  0  0  0  0  0  0  0  0
    4.9199   21.2321   38.3252 H   0  0  0  0  0  0  0  0  0  0  0  0
    3.5803   23.1179   39.3129 H   0  0  0  0  0  0  0  0  0  0  0  0
    1.5081   22.5755   40.5744 H   0  0  0  0  0  0  0  0  0  0  0  0
  1  2  1  0
  1  6  2  0
  2  3  2  0
  3  4  1  0
  3  7  1  0
  4  5  2  0
  5  6  1  0
  7  8  1  0
  7  9  2  0
  2 10  1  0
  4 11  1  0
  5 12  1  0
  6 13  1  0
M  CHG  1   8  -1
M  END
>  <mol_id>  (40) 
2026-09-18-3war-s0-n100-r2-0040

>  <rmsd_to_ref>  (40) 
2.2448979591838785

>  <pose_kind>  (40) 
conformer

$$$$
3war.A
     RDKit          3D

 13 13  0  0  0  0  0  0  0  0999 V2000
   -1.1902   19.2947   39.3872 N   0  0  0  0  0  0  0  0  0  0  0  0
    0.0164   18.9057   38.7574 C   0  0  0  0  0  0  0  0  0  0  0  0
    1.2451   19.3882   39.3380 C   0  0  0  0  0  0  0  0  0  0  0  0
    1.2268   20.2168   40.4458 C   0  0  0  0  0  0  0  0  0  0  0  0
    0.0298   20.5477   41.0420 C   0  0  0  0  0  0  0  0  0  0  0  0
   -1.1528   20.1108   40.4885 C   0  0  0  0  0  0  0  0  0  0  0  0
    2.5724   19.0883   38.6574 C   0  0  0  0  0  0  0  0  0  0  0  0
    2.5964   18.2107   37.7454 O   0  0  0  0  0  0  0  0  0  0  0  0
    3.5080   19.7458   39.0593 O   0  0  0  0  0  0  0  0  0  0  0  0
    0.0168   18.2637   37.8642 H   0  0  0  0  0  0  0  0  0  0  0  0
    2.1699   20.6121   40.8512 H   0  0  0  0  0  0  0  0  0  0  0  0
    0.0188   21.1587   41.9566 H   0  0  0  0  0  0  0  0  0  0  0  0
   -2.1016   20.4278   40.9462 H   0  0  0  0  0  0  0  0  0  0  0  0
  1  2  1  0
  1  6  2  0
  2  3  2  0
  3  4  1  0
  3  7  1  0
  4  5  2  0
  5  6  1  0
  7  8  1  0
  7  9  2  0
  2 10  1  0
  4 11  1  0
  5 12  1  0
  6 13  1  0
M  CHG  1   8  -1
M  END
>  <mol_id>  (41) 
2026-09-18-3war-s0-n100-r2-0041

>  <rmsd_to_ref>  (41) 
2.2908163265319086

>  <pose_kind>  (41) 
rigid

$$$$
3war.A
     RDKit          3D

 13 13  0  0  0  0  0  0  0  0999 V2000
    0.1234   18.0036   39.5283 N   0  0  0  0  0  0  0  0  0  0  0  0
    1.4755   18.0016   39.4674 C   0  0  0  0  0  0  0  0  0  0  0  0
    2.1969   19.1145   39.8438 C   0  0  0  0  0  0  0  0  0  0  0  0
    1.5971   20.2716   40.2954 C   0  0  0  0  0  0  0  0  0  0  0  0
    0.2005   20.2451   40.3478 C   0  0  0  0  0  0  0  0  0  0  0  0
   -0.5066   19.1137   39.9639 C   0  0  0  0  0  0  0  0  0  0  0  0
    3.6532   19.0684   39.7621 C   0  0  0  0  0  0  0  0  0  0  0  0
    4.3121   17.9296   39.3146 O   0  0  0  0  0  0  0  0  0  0  0  0
    4.3588   20.0561   40.0933 O   0  0  0  0  0  0  0  0  0  0  0  0
    2.0150   17.1169   39.1185 H   0  0  0  0  0  0  0  0  0  0  0  0
    2.1605   21.1422   40.5899 H   0  0  0  0  0  0  0  0  0  0  0  0
   -0.3580   21.1169   40.6928 H   0  0  0  0  0  0  0  0  0  0  0  0
   -1.5768   19.1222   40.0146 H   0  0  0  0  0  0  0  0  0  0  0  0
  1  2  1  0
  1  6  2  0
  2  3  2  0
  3  4  1  0
  3  7  1  0
  4  5  2  0
  5  6  1  0
  7  8  1  0
  7  9  2  0
  2 10  1  0
  4 11  1  0
  5 12  1  0
  6 13  1  0
M  CHG  1   8  -1
M  END
>  <mol_id>  (42) 
2026-09-18-3war-s0-n100-r2-0042

>  <rmsd_to_ref>  (42) 
2.33673469387977

>  <pose_kind>  (42) 
conformer

$$$$
3war.A
     RDKit          3D

 13 13  0  0  0  0  0  0  0  0999 V2000
    0.2652   17.6815   38.7998 N   0  0  0  0  0  0  0  0  0  0  0  0
    1.6305   17.5756   38.4411 C   0  0  0  0  0  0  0  0  0  0  0  0
    2.5777   18.3163   39.2371 C   0  0  0  0  0  0  0  0  0  0  0  0
    2.1516   19.1129   40.2849 C   0  0  0  0  0  0  0  0  0  0  0  0
    0.8151   19.1647   40.6149 C   0  0  0  0  0  0  0  0  0  0  0  0
   -0.1038   18.4785   39.8530 C   0  0  0  0  0  0  0  0  0  0  0  0
    4.0489   18.3243   38.8495 C   0  0  0  0  0  0  0  0  0  0  0  0
    4.4512   17.4800   37.9963 O   0  0  0  0  0  0  0  0  0  0  0  0
    4.7148   19.1714   39.4047 O   0  0  0  0  0  0  0  0  0  0  0  0
    1.9547   16.9555   37.5924 H   0  0  0  0  0  0  0  0  0  0  0  0
    2.8814   19.7060   40.8556 H   0  0  0  0  0  0  0  0  0  0  0  0
    0.4833   19.7520   41.4838 H   0  0  0  0  0  0  0  0  0  0  0  0
   -1.1720   18.5729   40.0978 H   0  0  0  0  0  0  0  0  0  0  0  0
  1  2  1  0
  1  6  2  0
  2  3  2  0
  3  4  1  0
  3  7  1  0
  4  5  2  0
  5  6  1  0
  7  8  1  0
  7  9  2  0
  2 10  1  0
  4 11  1  0
  5 12  1  0
  6 13  1  0
M  CHG  1   8  -1
M  END
>  <mol_id>  (43) 
2026-09-18-3war-s0-n100-r2-0043

>  <rmsd_to_ref>  (43) 
2.3826530612281958

>  <pose_kind>  (43) 
rigid

$$$$
3war.A
     RDKit          3D

 13 13  0  0  0  0  0  0  0  0999 V2000
    1.2805   20.1579   39.6628 N   0  0  0  0  0  0  0  0  0  0  0  0
    1.5432   18.9122   39.1713 C   0  0  0  0  0  0  0  0  0  0  0  0
    2.1401   18.7941   37.9219 C   0  0  0  0  0  0  0  0  0  0  0  0
    2.4731   19.8990   37.1676 C   0  0  0  0  0  0  0  0  0  0  0  0
    2.1864   21.1521   37.7093 C   0  0  0  0  0  0  0  0  0  0  0  0
    1.5927   21.2619   38.9525 C   0  0  0  0  0  0  0  0  0  0  0  0
    2.4336   17.4899   37.3684 C   0  0  0  0  0  0  0  0  0  0  0  0
    2.1548   16.2929   38.0130 O   0  0  0  0  0  0  0  0  0  0  0  0
    2.9782   17.4336   36.2258 O   0  0  0  0  0  0  0  0  0  0  0  0
    1.2941   18.0162   39.7388 H   0  0  0  0  0  0  0  0  0  0  0  0
    2.9337   19.8469   36.2016 H   0  0  0  0  0  0  0  0  0  0  0  0
    2.4456   22.0223   37.1220 H   0  0  0  0  0  0  0  0  0  0  0  0
    1.3980   22.2694   39.3128 H   0  0  0  0  0  0  0  0  0  0  0  0
  1  2  1  0
  1  6  2  0
  2  3  2  0
  3  4  1  0
  3  7  1  0
  4  5  2  0
  5  6  1  0
  7  8  1  0
  7  9  2  0
  2 10  1  0
  4 11  1  0
  5 12  1  0
  6 13  1  0
M  CHG  1   8  -1
M  END
>  <mol_id>  (44) 
2026-09-18-3war-s0-n100-r2-0044

>  <rmsd_to_ref>  (44) 
2.4285714285760456

>  <pose_kind>  (44) 
conformer

$$$$
3war.A
     RDKit          3D

 13 13  0  0  0  0  0  0  0  0999 V2000
    0.8285   21.5857   40.6713 N   0  0  0  0  0  0  0  0  0  0  0  0
    1.7628   20.5313   40.5320 C   0  0  0  0  0  0  0  0  0  0  0  0
    2.6145   20.5585   39.3687 C   0  0  0  0  0  0  0  0  0  0  0  0
    2.4923   21.5631   38.4254 C   0  0  0  0  0  0  0  0  0  0  0  0
    1.5870   22.5840   38.6159 C   0  0  0  0  0  0  0  0  0  0  0  0
    0.7535   22.5623   39.7116 C   0  0  0  0  0  0  0  0  0  0  0  0
    3.5743   19.4074   39.1067 C   0  0  0  0  0  0  0  0  0  0  0  0
    3.7917   18.5806   40.0403 O   0  0  0  0  0  0  0  0  0  0  0  0
    4.0468   19.3854   37.9907 O   0  0  0  0  0  0  0  0  0  0  0  0
    1.8359   19.7266   41.2783 H   0  0  0  0  0  0  0  0  0  0  0  0
    3.1190   21.5467   37.5215 H   0  0  0  0  0  0  0  0  0  0  0  0
    1.5303   23.4133   37.8954 H   0  0  0  0  0  0  0  0  0  0  0  0
    0.0006   23.3566   39.8210 H   0  0  0  0  0  0  0  0  0  0  0  0
  1  2  1  0
  1  6  2  0
  2  3  2  0
  3  4  1  0
  3  7  1  0
  4  5  2  0
  5  6  1  0
  7  8  1  0
  7  9  2  0
  2 10  1  0
  4 11  1  0
  5 12  1  0
  6 13  1  0
M  CHG  1   8  -1
M  END
>  <mol_id>  (45) 
2026-09-18-3war-s0-n100-r2-0045

>  <rmsd_to_ref>  (45) 
2.474489795920774

>  <pose_kind>  (45) 
rigid

$$$$
3war.A
     RDKit          3D

 13 13  0  0  0  0  0  0  0  0999 V2000
    3.6296   16.8307   40.3734 N   0  0  0  0  0  0  0  0  0  0  0  0
    3.8865   18.0525   39.8398 C   0  0  0  0  0  0  0  0  0  0  0  0
    2.8537   18.8504   39.3857 C   0  0  0  0  0  0  0  0  0  0  0  0
    1.5439   18.4092   39.4713 C   0  0  0  0  0  0  0  0  0  0  0  0
    1.2825   17.1681   40.0133 C   0  0  0  0  0  0  0  0  0  0  0  0
    2.3617   16.3973   40.4591 C   0  0  0  0  0  0  0  0  0  0  0  0
    3.1744   20.1718   38.8124 C   0  0  0  0  0  0  0  0  0  0  0  0
    2.1207   20.9683   38.3571 O   0  0  0  0  0  0  0  0  0  0  0  0
    4.3722   20.5583   38.7418 O   0  0  0  0  0  0  0  0  0  0  0  0
    4.9147   18.4028   39.7708 H   0  0  0  0  0  0  0  0  0  0  0  0
    0.7256   19.0121   39.1249 H   0  0  0  0  0  0  0  0  0  0  0  0
    0.2795   16.8219   40.0826 H   0  0  0  0  0  0  0  0  0  0  0  0
    2.1346   15.4121   40.8876 H   0  0  0  0  0  0  0  0  0  0  0  0
  1  2  1  0
  1  6  2  0
  2  3  2  0
  3  4  1  0
  3  7  1  0
  4  5  2  0
  5  6  1  0
  7  8  1  0
  7  9  2  0
  2 10  1  0
  4 11  1  0
  5 12  1  0
  6 13  1  0
M  CHG  1   8  -1
M  END
>  <mol_id>  (46) 
2026-09-18-3war-s0-n100-r2-0046

>  <rmsd_to_ref>  (46) 
2.5204081632666266

>  <pose_kind>  (46) 
conformer

$$$$
3war.A
     RDKit          3D

 13 13  0  0  0  0  0  0  0  0999 V2000
    0.1502   17.6283   37.7823 N   0  0  0  0  0  0  0  0  0  0  0  0
    1.5358   17.4116   37.9746 C   0  0  0  0  0  0  0  0  0  0  0  0
    2.3405   18.5618   38.3048 C   0  0  0  0  0  0  0  0  0  0  0  0
    1.7722   19.8198   38.3984 C   0  0  0  0  0  0  0  0  0  0  0  0
    0.4143   19.9793   38.2295 C   0  0  0  0  0  0  0  0  0  0  0  0
   -0.3646   18.8943   37.8950 C   0  0  0  0  0  0  0  0  0  0  0  0
    3.8498   18.4182   38.4309 C   0  0  0  0  0  0  0  0  0  0  0  0
    4.3400   17.2530   38.4987 O   0  0  0  0  0  0  0  0  0  0  0  0
    4.4593   19.4659   38.4452 O   0  0  0  0  0  0  0  0  0  0  0  0
    1.9793   16.4098   37.8765 H   0  0  0  0  0  0  0  0  0  0  0  0
    2.4058   20.6942   38.6082 H   0  0  0  0  0  0  0  0  0  0  0  0
   -0.0459   20.9697   38.3612 H   0  0  0  0  0  0  0  0  0  0  0  0
   -1.4382   19.0485   37.7118 H   0  0  0  0  0  0  0  0  0  0  0  0
  1  2  1  0
  1  6  2  0
  2  3  2  0
  3  4  1  0
  3  7  1  0
  4  5  2  0
  5  6  1  0
  7  8  1  0
  7  9  2  0
  2 10  1  0
  4 11  1  0
  5 12  1  0
  6 13  1  0
M  CHG  1   8  -1
M  END
>  <mol_id>  (47) 
2026-09-18-3war-s0-n100-r2-0047

>  <rmsd_to_ref>  (47) 
2.5663265306166396

>  <pose_kind>  (47) 
rigid

$$$$
3war.A
     RDKit          3D

 13 13  0  0  0  0  0  0  0  0999 V2000
    4.5104   21.0202   40.7352 N   0  0  0  0  0  0  0  0  0  0  0  0
    4.6127   19.7588   40.2388 C   0  0  0  0  0  0  0  0  0  0  0  0
    3.6624   19.3254   39.3397 C   0  0  0  0  0  0  0  0  0  0  0  0
    2.6096   20.1093   38.9168 C   0  0  0  0  0  0  0  0  0  0  0  0
    2.5282   21.3947   39.4395 C   0  0  0  0  0  0  0  0  0  0  0  0
    3.4767   21.8098   40.3290 C   0  0  0  0  0  0  0  0  0  0  0  0
    3.7940   17.9621   38.8188 C   0  0  0  0  0  0  0  0  0  0  0  0
    2.8537   17.4673   37.8992 O   0  0  0  0  0  0  0  0  0  0  0  0
    4.7133   17.1831   39.1452 O   0  0  0  0  0  0  0  0  0  0  0  0
    5.4275   19.1361   40.5588 H   0  0  0  0  0  0  0  0  0  0  0  0
    1.8970   19.7242   38.2153 H   0  0  0  0  0  0  0  0  0  0  0  0
    1.7181   22.0612   39.1428 H   0  0  0  0  0  0  0  0  0  0  0  0
    3.4052   22.8108   40.7300 H   0  0  0  0  0  0  0  0  0  0  0  0
  1  2  1  0
  1  6  2  0
  2  3  2  0
  3  4  1  0
  3  7  1  0
  4  5  2  0
  5  6  1  0
  7  8  1  0
  7  9  2  0
  2 10  1  0
  4 11  1  0
  5 12  1  0
  6 13  1  0
M  CHG  1   8  -1
M  END
>  <mol_id>  (48) 
2026-09-18-3war-s0-n100-r2-0048

>  <rmsd_to_ref>  (48) 
2.6122448979606863

>  <pose_kind>  (48) 
conformer

$$$$
3war.A
     RDKit          3D

 13 13  0  0  0  0  0  0  0  0999 V2000
   -0.0063   19.0903   41.6091 N   0  0  0  0  0  0  0  0  0  0  0  0
   -0.4445   19.1029   40.2630 C   0  0  0  0  0  0  0  0  0  0  0  0
    0.5711   19.0369   39.2415 C   0  0  0  0  0  0  0  0  0  0  0  0
    1.9122   18.9918   39.5786 C   0  0  0  0  0  0  0  0  0  0  0  0
    2.2913   18.9544   40.9026 C   0  0  0  0  0  0  0  0  0  0  0  0
    1.3348   19.0359   41.8896 C   0  0  0  0  0  0  0  0  0  0  0  0
    0.1777   19.1427   37.7756 C   0  0  0  0  0  0  0  0  0  0  0  0
   -1.0456   19.0271   37.4708 O   0  0  0  0  0  0  0  0  0  0  0  0
    1.1008   19.3435   37.0162 O   0  0  0  0  0  0  0  0  0  0  0  0
   -1.5129   19.1605   40.0076 H   0  0  0  0  0  0  0  0  0  0  0  0
    2.6771   18.9857   38.7881 H   0  0  0  0  0  0  0  0  0  0  0  0
    3.3541   18.8599   41.1701 H   0  0  0  0  0  0  0  0  0  0  0  0
    1.6581   19.0582   42.9408 H   0  0  0  0  0  0  0  0  0  0  0  0
  1  2  1  0
  1  6  2  0
  2  3  2  0
  3  4  1  0
  3  7  1  0
  4  5  2  0
  5  6  1  0
  7  8  1  0
  7  9  2  0
  2 10  1  0
  4 11  1  0
  5 12  1  0
  6 13  1  0
M  CHG  1   8  -1
M  END
>  <mol_id>  (49) 
2026-09-18-3war-s0-n100-r2-0049

>  <rmsd_to_ref>  (49) 
2.658163265307799

>  <pose_kind>  (49) 
rigid

$$$$
3war.A
     RDKit          3D

 13 13  0  0  0  0  0  0  0  0999 V2000
    2.3727   19.5191   39.2636 N   0  0  0  0  0  0  0  0  0  0  0  0
    2.5133   20.4986   38.3238 C   0  0  0  0  0  0  0  0  0  0  0  0
    3.7328   21.1363   38.2132 C   0  0  0  0  0  0  0  0  0  0  0  0
    4.8204   20.8340   39.0058 C   0  0  0  0  0  0  0  0  0  0  0  0
    4.6464   19.8294   39.9563 C   0  0  0  0  0  0  0  0  0  0  0  0
    3.4216   19.2095   40.0464 C   0  0  0  0  0  0  0  0  0  0  0  0
    3.8782   22.1825   37.2076 C   0  0  0  0  0  0  0  0  0  0  0  0
    2.8827   22.5810   36.3574 O   0  0  0  0  0  0  0  0  0  0  0  0
    5.0153   22.7484   37.1338 O   0  0  0  0  0  0  0  0  0  0  0  0
    1.6768   20.7596   37.6851 H   0  0  0  0  0  0  0  0  0  0  0  0
    5.7526   21.3333   38.9091 H   0  0  0  0  0  0  0  0  0  0  0  0
    5.4774   19.5644   40.5967 H   0  0  0  0  0  0  0  0  0  0  0  0
    3.2545   18.4208   40.7791 H   0  0  0  0  0  0  0  0  0  0  0  0
  1  2  1  0
  1  6  2  0
  2  3  2  0
  3  4  1  0
  3  7  1  0
  4  5  2  0
  5  6  1  0
  7  8  1  0
  7  9  2  0
  2 10  1  0
  4 11  1  0
  5 12  1  0
  6 13  1  0
M  CHG  1   8  -1
M  END
>  <mol_id>  (50) 
2026-09-18-3war-s0-n100-r2-0050

>  <rmsd_to_ref>  (50) 
2.7040816326545496

>  <pose_kind>  (50) 
conformer

$$$$
3war.A
     RDKit          3D

 13 13  0  0  0  0  0  0  0  0999 V2000
    3.4839   18.0108   41.7002 N   0  0  0  0  0  0  0  0  0  0  0  0
    4.1079   19.1991   41.2502 C   0  0  0  0  0  0  0  0  0  0  0  0
    3.6520   19.7456   39.9960 C   0  0  0  0  0  0  0  0  0  0  0  0
    2.6662   19.1089   39.2633 C   0  0  0  0  0  0  0  0  0  0  0  0
    2.0681   17.9686   39.7533 C   0  0  0  0  0  0  0  0  0  0  0  0
    2.5053   17.4239   40.9398 C   0  0  0  0  0  0  0  0  0  0  0  0
    4.3434   20.9659   39.4065 C   0  0  0  0  0  0  0  0  0  0  0  0
    5.1291   21.6283   40.1458 O   0  0  0  0  0  0  0  0  0  0  0  0
    4.0752   21.1891   38.2457 O   0  0  0  0  0  0  0  0  0  0  0  0
    4.9056   19.6844   41.8318 H   0  0  0  0  0  0  0  0  0  0  0  0
    2.3594   19.5138   38.2876 H   0  0  0  0  0  0  0  0  0  0  0  0
    1.2445   17.4952   39.1987 H   0  0  0  0  0  0  0  0  0  0  0  0
    2.0533   16.4843   41.2903 H   0  0  0  0  0  0  0  0  0  0  0  0
  1  2  1  0
  1  6  2  0
  2  3  2  0
  3  4  1  0
  3  7  1  0
  4  5  2  0
  5  6  1  0
  7  8  1  0
  7  9  2  0
  2 10  1  0
  4 11  1  0
  5 12  1  0
  6 13  1  0
M  CHG  1   8  -1
M  END
>  <mol_id>  (51) 
2026-09-18-3war-s0-n100-r2-0051

>  <rmsd_to_ref>  (51) 
2.750000000000168

>  <pose_kind>  (51) 
rigid

$$$$
3war.A
     RDKit          3D

 13 13  0  0  0  0  0  0  0  0999 V2000
   -0.5486   19.2471   39.8626 N   0  0  0  0  0  0  0  0  0  0  0  0
    0.0166   18.5976   38.8515 C   0  0  0  0  0  0  0  0  0  0  0  0
    1.2022   17.8960   39.0897 C   0  0  0  0  0  0  0  0  0  0  0  0
    1.7343   17.9130   40.3817 C   0  0  0  0  0  0  0  0  0  0  0  0
    1.1010   18.6060   41.3905 C   0  0  0  0  0  0  0  0  0  0  0  0
   -0.0634   19.2780   41.0959 C   0  0  0  0  0  0  0  0  0  0  0  0
    1.8471   17.1727   37.9996 C   0  0  0  0  0  0  0  0  0  0  0  0
    3.0239   16.4884   38.2795 O   0  0  0  0  0  0  0  0  0  0  0  0
    1.3299   17.1815   36.8344 O   0  0  0  0  0  0  0  0  0  0  0  0
   -0.4005   18.5878   37.8517 H   0  0  0  0  0  0  0  0  0  0  0  0
    2.6508   17.3680   40.5565 H   0  0  0  0  0  0  0  0  0  0  0  0
    1.5367   18.5959   42.3628 H   0  0  0  0  0  0  0  0  0  0  0  0
   -0.5448   19.8214   41.9222 H   0  0  0  0  0  0  0  0  0  0  0  0
  1  2  1  0
  1  6  2  0
  2  3  2  0
  3  4  1  0
  3  7  1  0
  4  5  2  0
  5  6  1  0
  7  8  1  0
  7  9  2  0
  2 10  1  0
  4 11  1  0
  5 12  1  0
  6 13  1  0
M  CHG  1   8  -1
M  END
>  <mol_id>  (52) 
2026-09-18-3war-s0-n100-r2-0052

>  <rmsd_to_ref>  (52) 
2.7959183673492465

>  <pose_kind>  (52) 
conformer

$$$$
3war.A
     RDKit          3D

 13 13  0  0  0  0  0  0  0  0999 V2000
    2.1997   16.6180   38.1387 N   0  0  0  0  0  0  0  0  0  0  0  0
    3.3332   17.4216   38.4094 C   0  0  0  0  0  0  0  0  0  0  0  0
    3.1290   18.5895   39.2302 C   0  0  0  0  0  0  0  0  0  0  0  0
    1.8688   18.9116   39.7016 C   0  0  0  0  0  0  0  0  0  0  0  0
    0.7990   18.0855   39.4353 C   0  0  0  0  0  0  0  0  0  0  0  0
    0.9738   16.9771   38.6373 C   0  0  0  0  0  0  0  0  0  0  0  0
    4.2828   19.5488   39.4814 C   0  0  0  0  0  0  0  0  0  0  0  0
    5.4542   19.1727   39.1830 O   0  0  0  0  0  0  0  0  0  0  0  0
    3.9594   20.6193   39.9490 O   0  0  0  0  0  0  0  0  0  0  0  0
    4.3263   17.1663   38.0111 H   0  0  0  0  0  0  0  0  0  0  0  0
    1.7208   19.8291   40.2901 H   0  0  0  0  0  0  0  0  0  0  0  0
   -0.1911   18.3105   39.8584 H   0  0  0  0  0  0  0  0  0  0  0  0
    0.0989   16.3576   38.3910 H   0  0  0  0  0  0  0  0  0  0  0  0
  1  2  1  0
  1  6  2  0
  2  3  2  0
  3  4  1  0
  3  7  1  0
  4  5  2  0
  5  6  1  0
  7  8  1  0
  7  9  2  0
  2 10  1  0
  4 11  1  0
  5 12  1  0
  6 13  1  0
M  CHG  1   8  -1
M  END
>  <mol_id>  (53) 
2026-09-18-3war-s0-n100-r2-0053

>  <rmsd_to_ref>  (53) 
2.841836734695988

>  <pose_kind>  (53) 
rigid

$$$$
3war.A
     RDKit          3D

 13 13  0  0  0  0  0  0  0  0999 V2000
    2.3536   17.6450   36.4995 N   0  0  0  0  0  0  0  0  0  0  0  0
    3.2791   18.6270   36.6521 C   0  0  0  0  0  0  0  0  0  0  0  0
    3.0288   19.6370   37.5608 C   0  0  0  0  0  0  0  0  0  0  0  0
    1.8539   19.6547   38.3089 C   0  0  0  0  0  0  0  0  0  0  0  0
    0.9437   18.6332   38.1173 C   0  0  0  0  0  0  0  0  0  0  0  0
    1.2111   17.6438   37.2131 C   0  0  0  0  0  0  0  0  0  0  0  0
    4.0166   20.7030   37.7370 C   0  0  0  0  0  0  0  0  0  0  0  0
    3.7725   21.7231   38.6495 O   0  0  0  0  0  0  0  0  0  0  0  0
    5.0941   20.6920   37.0550 O   0  0  0  0  0  0  0  0  0  0  0  0
    4.2085   18.6154   36.0622 H   0  0  0  0  0  0  0  0  0  0  0  0
    1.6486   20.4533   39.0320 H   0  0  0  0  0  0  0  0  0  0  0  0
    0.0239   18.6275   38.6883 H   0  0  0  0  0  0  0  0  0  0  0  0
    0.5303   16.8103   37.0180 H   0  0  0  0  0  0  0  0  0  0  0  0
  1  2  1  0
  1  6  2  0
  2  3  2  0
  3  4  1  0
  3  7  1  0
  4  5  2  0
  5  6  1  0
  7  8  1  0
  7  9  2  0
  2 10  1  0
  4 11  1  0
  5 12  1  0
  6 13  1  0
M  CHG  1   8  -1
M  END
>  <mol_id>  (54) 
2026-09-18-3war-s0-n100-r2-0054

>  <rmsd_to_ref>  (54) 
2.887755102043369

>  <pose_kind>  (54) 
conformer

$$$$
3war.A
     RDKit          3D

 13 13  0  0  0  0  0  0  0  0999 V2000
    4.5841   18.6292   40.0098 N   0  0  0  0  0  0  0  0  0  0  0  0
    3.6571   17.6324   39.6210 C   0  0  0  0  0  0  0  0  0  0  0  0
    2.4731   18.0726   38.9254 C   0  0  0  0  0  0  0  0  0  0  0  0
    2.2544   19.4167   38.6811 C   0  0  0  0  0  0  0  0  0  0  0  0
    3.1971   20.3496   39.0541 C   0  0  0  0  0  0  0  0  0  0  0  0
    4.3237   19.9473   39.7358 C   0  0  0  0  0  0  0  0  0  0  0  0
    1.3905   17.0669   38.5634 C   0  0  0  0  0  0  0  0  0  0  0  0
    1.6624   15.8333   38.6474 O   0  0  0  0  0  0  0  0  0  0  0  0
    0.3343   17.5578   38.2278 O   0  0  0  0  0  0  0  0  0  0  0  0
    3.8323   16.5688   39.8398 H   0  0  0  0  0  0  0  0  0  0  0  0
    1.3261   19.7411   38.1882 H   0  0  0  0  0  0  0  0  0  0  0  0
    3.0503   21.4116   38.8082 H   0  0  0  0  0  0  0  0  0  0  0  0
    5.0405   20.7107   40.0728 H   0  0  0  0  0  0  0  0  0  0  0  0
  1  2  1  0
  1  6  2  0
  2  3  2  0
  3  4  1  0
  3  7  1  0
  4  5  2  0
  5  6  1  0
  7  8  1  0
  7  9  2  0
  2 10  1  0
  4 11  1  0
  5 12  1  0
  6 13  1  0
M  CHG  1   8  -1
M  END
>  <mol_id>  (55) 
2026-09-18-3war-s0-n100-r2-0055

>  <rmsd_to_ref>  (55) 
2.9336734693882445

>  <pose_kind>  (55) 
rigid

$$$$
3war.A
     RDKit          3D

 13 13  0  0  0  0  0  0  0  0999 V2000
    3.9701   18.2133   38.3086 N   0  0  0  0  0  0  0  0  0  0  0  0
    3.3818   19.1043   37.4589 C   0  0  0  0  0  0  0  0  0  0  0  0
    2.0289   18.9797   37.2111 C   0  0  0  0  0  0  0  0  0  0  0  0
    1.2806   17.9804   37.8045 C   0  0  0  0  0  0  0  0  0  0  0  0
    1.8954   17.0904   38.6602 C   0  0  0  0  0  0  0  0  0  0  0  0
    3.2480   17.2298   38.8963 C   0  0  0  0  0  0  0  0  0  0  0  0
    1.3990   19.9388   36.2972 C   0  0  0  0  0  0  0  0  0  0  0  0
    0.0214   19.8180   36.0401 O   0  0  0  0  0  0  0  0  0  0  0  0
    2.0775   20.8678   35.7413 O   0  0  0  0  0  0  0  0  0  0  0  0
    3.9909   19.8709   37.0127 H   0  0  0  0  0  0  0  0  0  0  0  0
    0.2148   17.9355   37.5674 H   0  0  0  0  0  0  0  0  0  0  0  0
    1.2986   16.3122   39.1187 H   0  0  0  0  0  0  0  0  0  0  0  0
    3.6920   16.5091   39.5755 H   0  0  0  0  0  0  0  0  0  0  0  0
  1  2  1  0
  1  6  2  0
  2  3  2  0
  3  4  1  0
  3  7  1  0
  4  5  2  0
  5  6  1  0
  7  8  1  0
  7  9  2  0
  2 10  1  0
  4 11  1  0
  5 12  1  0
  6 13  1  0
M  CHG  1   8  -1
M  END
>  <mol_id>  (56) 
2026-09-18-3war-s0-n100-r2-0056

>  <rmsd_to_ref>  (56) 
2.979591836737307

>  <pose_kind>  (56) 
conformer

$$$$
3war.A
     RDKit          3D

 13 13  0  0  0  0  0  0  0  0999 V2000
    4.0775   19.2521   39.5586 N   0  0  0  0  0  0  0  0  0  0  0  0
    3.8566   20.6181   39.2598 C   0  0  0  0  0  0  0  0  0  0  0  0
    2.6257   21.2025   39.7317 C   0  0  0  0  0  0  0  0  0  0  0  0
    1.6991   20.4406   40.4209 C   0  0  0  0  0  0  0  0  0  0  0  0
    1.9684   19.1214   40.7126 C   0  0  0  0  0  0  0  0  0  0  0  0
    3.1305   18.5436   40.2526 C   0  0  0  0  0  0  0  0  0  0  0  0
    2.2801   22.6380   39.3644 C   0  0  0  0  0  0  0  0  0  0  0  0
    3.1896   23.3694   38.8739 O   0  0  0  0  0  0  0  0  0  0  0  0
    1.1282   22.9516   39.5739 O   0  0  0  0  0  0  0  0  0  0  0  0
    4.5917   21.2078   38.6924 H   0  0  0  0  0  0  0  0  0  0  0  0
    0.7456   20.8891   40.7367 H   0  0  0  0  0  0  0  0  0  0  0  0
    1.2579   18.5320   41.3106 H   0  0  0  0  0  0  0  0  0  0  0  0
    3.3055   17.4755   40.4489 H   0  0  0  0  0  0  0  0  0  0  0  0
  1  2  1  0
  1  6  2  0
  2  3  2  0
  3  4  1  0
  3  7  1  0
  4  5  2  0
  5  6  1  0
  7  8  1  0
  7  9  2  0
  2 10  1  0
  4 11  1  0
  5 12  1  0
  6 13  1  0
M  CHG  1   8  -1
M  END
>  <mol_id>  (57) 
2026-09-18-3war-s0-n100-r2-0057

>  <rmsd_to_ref>  (57) 
3.0255102040822948

>  <pose_kind>  (57) 
rigid

$$$$
3war.A
     RDKit          3D

 13 13  0  0  0  0  0  0  0  0999 V2000
    3.6305   19.3423   41.1927 N   0  0  0  0  0  0  0  0  0  0  0  0
    2.8770   20.1337   40.4097 C   0  0  0  0  0  0  0  0  0  0  0  0
    3.5381   21.0342   39.6015 C   0  0  0  0  0  0  0  0  0  0  0  0
    4.9225   21.1427   39.5751 C   0  0  0  0  0  0  0  0  0  0  0  0
    5.6654   20.3156   40.3908 C   0  0  0  0  0  0  0  0  0  0  0  0
    4.9908   19.4028   41.2099 C   0  0  0  0  0  0  0  0  0  0  0  0
    2.7781   21.9206   38.7292 C   0  0  0  0  0  0  0  0  0  0  0  0
    1.3819   21.8597   38.7104 O   0  0  0  0  0  0  0  0  0  0  0  0
    3.3617   22.7370   37.9956 O   0  0  0  0  0  0  0  0  0  0  0  0
    1.8160   20.0477   40.4327 H   0  0  0  0  0  0  0  0  0  0  0  0
    5.4559   21.8344   38.9556 H   0  0  0  0  0  0  0  0  0  0  0  0
    6.7275   20.3308   40.4344 H   0  0  0  0  0  0  0  0  0  0  0  0
    5.5541   18.7413   41.8606 H   0  0  0  0  0  0  0  0  0  0  0  0
  1  2  1  0
  1  6  2  0
  2  3  2  0
  3  4  1  0
  3  7  1  0
  4  5  2  0
  5  6  1  0
  7  8  1  0
  7  9  2  0
  2 10  1  0
  4 11  1  0
  5 12  1  0
  6 13  1  0
M  CHG  1   8  -1
M  END
>  <mol_id>  (58) 
2026-09-18-3war-s0-n100-r2-0058

>  <rmsd_to_ref>  (58) 
3.0714285714314715

>  <pose_kind>  (58) 
conformer

$$$$
3war.A
     RDKit          3D

 13 13  0  0  0  0  0  0  0  0999 V2000
    2.7910   18.0598   41.2985 N   0  0  0  0  0  0  0  0  0  0  0  0
    1.8414   17.9214   40.2577 C   0  0  0  0  0  0  0  0  0  0  0  0
    2.3483   17.6124   38.9435 C   0  0  0  0  0  0  0  0  0  0  0  0
    3.7080   17.4873   38.7208 C   0  0  0  0  0  0  0  0  0  0  0  0
    4.5940   17.6038   39.7694 C   0  0  0  0  0  0  0  0  0  0  0  0
    4.1274   17.9175   41.0262 C   0  0  0  0  0  0  0  0  0  0  0  0
    1.3933   17.5443   37.7611 C   0  0  0  0  0  0  0  0  0  0  0  0
    0.1495   17.5045   37.9934 O   0  0  0  0  0  0  0  0  0  0  0  0
    1.9309   17.5445   36.6747 O   0  0  0  0  0  0  0  0  0  0  0  0
    0.7642   18.0443   40.4433 H   0  0  0  0  0  0  0  0  0  0  0  0
    4.0824   17.2945   37.7046 H   0  0  0  0  0  0  0  0  0  0  0  0
    5.6699   17.4469   39.6031 H   0  0  0  0  0  0  0  0  0  0  0  0
    4.8526   18.0590   41.8411 H   0  0  0  0  0  0  0  0  0  0  0  0
  1  2  1  0
  1  6  2  0
  2  3  2  0
  3  4  1  0
  3  7  1  0
  4  5  2  0
  5  6  1  0
  7  8  1  0
  7  9  2  0
  2 10  1  0
  4 11  1  0
  5 12  1  0
  6 13  1  0
M  CHG  1   8  -1
M  END
>  <mol_id>  (59) 
2026-09-18-3war-s0-n100-r2-0059

>  <rmsd_to_ref>  (59) 
3.1173469387775152

>  <pose_kind>  (59) 
rigid

$$$$
3war.A
     RDKit          3D

 13 13  0  0  0  0  0  0  0  0999 V2000
    0.6918   22.5129   37.9039 N   0  0  0  0  0  0  0  0  0  0  0  0
    1.0796   21.9427   36.7392 C   0  0  0  0  0  0  0  0  0  0  0  0
    1.0604   20.5726   36.5877 C   0  0  0  0  0  0  0  0  0  0  0  0
    0.6537   19.7191   37.5920 C   0  0  0  0  0  0  0  0  0  0  0  0
    0.2589   20.3353   38.7829 C   0  0  0  0  0  0  0  0  0  0  0  0
    0.2860   21.7172   38.9144 C   0  0  0  0  0  0  0  0  0  0  0  0
    1.4870   20.0005   35.3147 C   0  0  0  0  0  0  0  0  0  0  0  0
    1.9069   20.8116   34.2672 O   0  0  0  0  0  0  0  0  0  0  0  0
    1.4886   18.7569   35.1240 O   0  0  0  0  0  0  0  0  0  0  0  0
    1.4138   22.5611   35.9017 H   0  0  0  0  0  0  0  0  0  0  0  0
    0.6383   18.6477   37.4742 H   0  0  0  0  0  0  0  0  0  0  0  0
   -0.0781   19.7374   39.6314 H   0  0  0  0  0  0  0  0  0  0  0  0
   -0.0223   22.1618   39.8392 H   0  0  0  0  0  0  0  0  0  0  0  0
  1  2  1  0
  1  6  2  0
  2  3  2  0
  3  4  1  0
  3  7  1  0
  4  5  2  0
  5  6  1  0
  7  8  1  0
  7  9  2  0
  2 10  1  0
  4 11  1  0
  5 12  1  0
  6 13  1  0
M  CHG  1   8  -1
M  END
>  <mol_id>  (60) 
2026-09-18-3war-s0-n100-r2-0060

>  <rmsd_to_ref>  (60) 
3.1632653061230314

>  <pose_kind>  (60) 
conformer

$$$$
3war.A
     RDKit          3D

 13 13  0  0  0  0  0  0  0  0999 V2000
    2.2455   20.1288   39.6984 N   0  0  0  0  0  0  0  0  0  0  0  0
    2.8940   18.8905   39.9220 C   0  0  0  0  0  0  0  0  0  0  0  0
    2.9290   17.9597   38.8212 C   0  0  0  0  0  0  0  0  0  0  0  0
    2.3262   18.2676   37.6146 C   0  0  0  0  0  0  0  0  0  0  0  0
    1.7295   19.4960   37.4334 C   0  0  0  0  0  0  0  0  0  0  0  0
    1.6711   20.3881   38.4806 C   0  0  0  0  0  0  0  0  0  0  0  0
    3.5249   16.5741   39.0208 C   0  0  0  0  0  0  0  0  0  0  0  0
    4.2066   16.3567   40.0652 O   0  0  0  0  0  0  0  0  0  0  0  0
    3.2742   15.7825   38.1378 O   0  0  0  0  0  0  0  0  0  0  0  0
    3.3511   18.6489   40.8929 H   0  0  0  0  0  0  0  0  0  0  0  0
    2.3234   17.5301   36.7984 H   0  0  0  0  0  0  0  0  0  0  0  0
    1.3015   19.7631   36.4560 H   0  0  0  0  0  0  0  0  0  0  0  0
    1.1447   21.3430   38.3350 H   0  0  0  0  0  0  0  0  0  0  0  0
  1  2  1  0
  1  6  2  0
  2  3  2  0
  3  4  1  0
  3  7  1  0
  4  5  2  0
  5  6  1  0
  7  8  1  0
  7  9  2  0
  2 10  1  0
  4 11  1  0
  5 12  1  0
  6 13  1  0
M  CHG  1   8  -1
M  END
>  <mol_id>  (61) 
2026-09-18-3war-s0-n100-r2-0061

>  <rmsd_to_ref>  (61) 
3.20918367347367

>  <pose_kind>  (61) 
rigid

$$$$
3war.A
     RDKit          3D

 13 13  0  0  0  0  0  0  0  0999 V2000
    1.7208   17.7496   37.2662 N   0  0  0  0  0  0  0  0  0  0  0  0
    1.7913   19.0864   37.3627 C   0  0  0  0  0  0  0  0  0  0  0  0
    0.9563   19.7710   38.2211 C   0  0  0  0  0  0  0  0  0  0  0  0
    0.0559   19.0610   38.9712 C   0  0  0  0  0  0  0  0  0  0  0  0
   -0.0289   17.6801   38.8826 C   0  0  0  0  0  0  0  0  0  0  0  0
    0.8315   17.0500   38.0072 C   0  0  0  0  0  0  0  0  0  0  0  0
    1.0019   21.2226   38.3547 C   0  0  0  0  0  0  0  0  0  0  0  0
    1.8608   22.0326   37.6554 O   0  0  0  0  0  0  0  0  0  0  0  0
    0.1840   21.7410   39.1771 O   0  0  0  0  0  0  0  0  0  0  0  0
    2.4897   19.6882   36.7871 H   0  0  0  0  0  0  0  0  0  0  0  0
   -0.6304   19.5394   39.6665 H   0  0  0  0  0  0  0  0  0  0  0  0
   -0.7081   17.0781   39.4403 H   0  0  0  0  0  0  0  0  0  0  0  0
    0.8468   15.9704   37.8622 H   0  0  0  0  0  0  0  0  0  0  0  0
  1  2  1  0
  1  6  2  0
  2  3  2  0
  3  4  1  0
  3  7  1  0
  4  5  2  0
  5  6  1  0
  7  8  1  0
  7  9  2  0
  2 10  1  0
  4 11  1  0
  5 12  1  0
  6 13  1  0
M  CHG  1   8  -1
M  END
>  <mol_id>  (62) 
2026-09-18-3war-s0-n100-r2-0062

>  <rmsd_to_ref>  (62) 
3.2551020408166496

>  <pose_kind>  (62) 
conformer

$$$$
3war.A
     RDKit          3D

 13 13  0  0  0  0  0  0  0  0999 V2000
    1.3474   22.3487   37.9585 N   0  0  0  0  0  0  0  0  0  0  0  0
    2.4640   21.4875   38.0839 C   0  0  0  0  0  0  0  0  0  0  0  0
    3.1843   21.5243   39.3325 C   0  0  0  0  0  0  0  0  0  0  0  0
    2.8045   22.3891   40.3435 C   0  0  0  0  0  0  0  0  0  0  0  0
    1.6947   23.1903   40.1873 C   0  0  0  0  0  0  0  0  0  0  0  0
    1.0077   23.1807   38.9941 C   0  0  0  0  0  0  0  0  0  0  0  0
    4.4495   20.6963   39.5007 C   0  0  0  0  0  0  0  0  0  0  0  0
    4.7010   19.8003   38.6424 O   0  0  0  0  0  0  0  0  0  0  0  0
    5.1225   20.9890   40.4654 O   0  0  0  0  0  0  0  0  0  0  0  0
    2.7687   20.8197   37.2647 H   0  0  0  0  0  0  0  0  0  0  0  0
    3.3897   22.4370   41.2736 H   0  0  0  0  0  0  0  0  0  0  0  0
    1.3587   23.8351   41.0127 H   0  0  0  0  0  0  0  0  0  0  0  0
    0.1558   23.8650   38.8672 H   0  0  0  0  0  0  0  0  0  0  0  0
  1  2  1  0
  1  6  2  0
  2  3  2  0
  3  4  1  0
  3  7  1  0
  4  5  2  0
  5  6  1  0
  7  8  1  0
  7  9  2  0
  2 10  1  0
  4 11  1  0
  5 12  1  0
  6 13  1  0
M  CHG  1   8  -1
M  END
>  <mol_id>  (63) 
2026-09-18-3war-s0-n100-r2-0063

>  <rmsd_to_ref>  (63) 
3.3010204081655825

>  <pose_kind>  (63) 
rigid

$$$$
3war.A
     RDKit          3D

 13 13  0  0  0  0  0  0  0  0999 V2000
    4.3194   21.0204   40.6538 N   0  0  0  0  0  0  0  0  0  0  0  0
    3.8860   22.1525   40.0773 C   0  0  0  0  0  0  0  0  0  0  0  0
    2.8926   22.0530   39.1247 C   0  0  0  0  0  0  0  0  0  0  0  0
    2.3749   20.8205   38.7897 C   0  0  0  0  0  0  0  0  0  0  0  0
    2.8673   19.6762   39.4252 C   0  0  0  0  0  0  0  0  0  0  0  0
    3.8632   19.7878   40.3786 C   0  0  0  0  0  0  0  0  0  0  0  0
    2.3619   23.2299   38.4475 C   0  0  0  0  0  0  0  0  0  0  0  0
    2.8110   24.5118   38.7090 O   0  0  0  0  0  0  0  0  0  0  0  0
    1.4467   23.0255   37.5852 O   0  0  0  0  0  0  0  0  0  0  0  0
    4.2721   23.1315   40.3190 H   0  0  0  0  0  0  0  0  0  0  0  0
    1.6074   20.6822   38.0621 H   0  0  0  0  0  0  0  0  0  0  0  0
    2.4880   18.7008   39.1896 H   0  0  0  0  0  0  0  0  0  0  0  0
    4.2737   18.9302   40.8952 H   0  0  0  0  0  0  0  0  0  0  0  0
  1  2  1  0
  1  6  2  0
  2  3  2  0
  3  4  1  0
  3  7  1  0
  4  5  2  0
  5  6  1  0
  7  8  1  0
  7  9  2  0
  2 10  1  0
  4 11  1  0
  5 12  1  0
  6 13  1  0
M  CHG  1   8  -1
M  END
>  <mol_id>  (64) 
2026-09-18-3war-s0-n100-r2-0064

>  <rmsd_to_ref>  (64) 
3.346938775512037

>  <pose_kind>  (64) 
conformer

$$$$
3war.A
     RDKit          3D

 13 13  0  0  0  0  0  0  0  0999 V2000
    0.3476   22.7826   40.1775 N   0  0  0  0  0  0  0  0  0  0  0  0
    0.2542   21.3767   40.3147 C   0  0  0  0  0  0  0  0  0  0  0  0
    1.2454   20.5832   39.6311 C   0  0  0  0  0  0  0  0  0  0  0  0
    2.2217   21.1840   38.8566 C   0  0  0  0  0  0  0  0  0  0  0  0
    2.2904   22.5574   38.7734 C   0  0  0  0  0  0  0  0  0  0  0  0
    1.3401   23.3283   39.4046 C   0  0  0  0  0  0  0  0  0  0  0  0
    1.1484   19.0651   39.6568 C   0  0  0  0  0  0  0  0  0  0  0  0
    0.3566   18.5264   40.4848 O   0  0  0  0  0  0  0  0  0  0  0  0
    1.8536   18.4983   38.8501 O   0  0  0  0  0  0  0  0  0  0  0  0
   -0.5397   20.9100   40.9163 H   0  0  0  0  0  0  0  0  0  0  0  0
    2.9445   20.5638   38.3061 H   0  0  0  0  0  0  0  0  0  0  0  0
    3.1013   23.0363   38.2050 H   0  0  0  0  0  0  0  0  0  0  0  0
    1.3785   24.4211   39.2846 H   0  0  0  0  0  0  0  0  0  0  0  0
  1  2  1  0
  1  6  2  0
  2  3  2  0
  3  4  1  0
  3  7  1  0
  4  5  2  0
  5  6  1  0
  7  8  1  0
  7  9  2  0
  2 10  1  0
  4 11  1  0
  5 12  1  0
  6 13  1  0
M  CHG  1   8  -1
M  END
>  <mol_id>  (65) 
2026-09-18-3war-s0-n100-r2-0065

>  <rmsd_to_ref>  (65) 
3.392857142858726

>  <pose_kind>  (65) 
rigid

$$$$
3war.A
     RDKit          3D

 13 13  0  0  0  0  0  0  0  0999 V2000
    1.4698   19.1338   35.9718 N   0  0  0  0  0  0  0  0  0  0  0  0
    2.5353   19.9556   35.9625 C   0  0  0  0  0  0  0  0  0  0  0  0
    3.5741   19.7326   36.8431 C   0  0  0  0  0  0  0  0  0  0  0  0
    3.5010   18.6678   37.7195 C   0  0  0  0  0  0  0  0  0  0  0  0
    2.3921   17.8437   37.7021 C   0  0  0  0  0  0  0  0  0  0  0  0
    1.3665   18.0894   36.8106 C   0  0  0  0  0  0  0  0  0  0  0  0
    4.7206   20.6465   36.8074 C   0  0  0  0  0  0  0  0  0  0  0  0
    5.7882   20.4355   37.6965 O   0  0  0  0  0  0  0  0  0  0  0  0
    4.7704   21.6231   35.9921 O   0  0  0  0  0  0  0  0  0  0  0  0
    2.6109   20.7989   35.2801 H   0  0  0  0  0  0  0  0  0  0  0  0
    4.3304   18.5239   38.3930 H   0  0  0  0  0  0  0  0  0  0  0  0
    2.3327   16.9955   38.3994 H   0  0  0  0  0  0  0  0  0  0  0  0
    0.4975   17.4188   36.8184 H   0  0  0  0  0  0  0  0  0  0  0  0
  1  2  1  0
  1  6  2  0
  2  3  2  0
  3  4  1  0
  3  7  1  0
  4  5  2  0
  5  6  1  0
  7  8  1  0
  7  9  2  0
  2 10  1  0
  4 11  1  0
  5 12  1  0
  6 13  1  0
M  CHG  1   8  -1
M  END
>  <mol_id>  (66) 
2026-09-18-3war-s0-n100-r2-0066

>  <rmsd_to_ref>  (66) 
3.4387755102059088

>  <pose_kind>  (66) 
conformer

$$$$
3war.A
     RDKit          3D

 13 13  0  0  0  0  0  0  0  0999 V2000
    0.0441   22.2317   39.7034 N   0  0  0  0  0  0  0  0  0  0  0  0
    0.8557   21.1406   40.0969 C   0  0  0  0  0  0  0  0  0  0  0  0
    0.7342   19.9234   39.3335 C   0  0  0  0  0  0  0  0  0  0  0  0
   -0.1612   19.8334   38.2827 C   0  0  0  0  0  0  0  0  0  0  0  0
   -0.9118   20.9295   37.9181 C   0  0  0  0  0  0  0  0  0  0  0  0
   -0.8213   22.0930   38.6489 C   0  0  0  0  0  0  0  0  0  0  0  0
    1.5051   18.6829   39.7598 C   0  0  0  0  0  0  0  0  0  0  0  0
    2.4296   18.8130   40.6149 O   0  0  0  0  0  0  0  0  0  0  0  0
    1.1430   17.6542   39.2306 O   0  0  0  0  0  0  0  0  0  0  0  0
    1.5486   21.2180   40.9478 H   0  0  0  0  0  0  0  0  0  0  0  0
   -0.2741   18.8848   37.7373 H   0  0  0  0  0  0  0  0  0  0  0  0
   -1.5808   20.8755   37.0466 H   0  0  0  0  0  0  0  0  0  0  0  0
   -1.4663   22.9416   38.3769 H   0  0  0  0  0  0  0  0  0  0  0  0
  1  2  1  0
  1  6  2  0
  2  3  2  0
  3  4  1  0
  3  7  1  0
  4  5  2  0
  5  6  1  0
  7  8  1  0
  7  9  2  0
  2 10  1  0
  4 11  1  0
  5 12  1  0
  6 13  1  0
M  CHG  1   8  -1
M  END
>  <mol_id>  (67) 
2026-09-18-3war-s0-n100-r2-0067

>  <rmsd_to_ref>  (67) 
3.4846938775532883

>  <pose_kind>  (67) 
rigid

$$$$
3war.A
     RDKit          3D

 13 13  0  0  0  0  0  0  0  0999 V2000
    2.2031   21.0922   41.3293 N   0  0  0  0  0  0  0  0  0  0  0  0
    1.6150   19.8709   41.4306 C   0  0  0  0  0  0  0  0  0  0  0  0
    1.3115   19.1067   40.3217 C   0  0  0  0  0  0  0  0  0  0  0  0
    1.6163   19.5999   39.0571 C   0  0  0  0  0  0  0  0  0  0  0  0
    2.2171   20.8499   38.9751 C   0  0  0  0  0  0  0  0  0  0  0  0
    2.5112   21.5965   40.1018 C   0  0  0  0  0  0  0  0  0  0  0  0
    0.6820   17.8047   40.4780 C   0  0  0  0  0  0  0  0  0  0  0  0
    0.3652   17.0168   39.4045 O   0  0  0  0  0  0  0  0  0  0  0  0
    0.4088   17.3653   41.6340 O   0  0  0  0  0  0  0  0  0  0  0  0
    1.3970   19.5293   42.4334 H   0  0  0  0  0  0  0  0  0  0  0  0
    1.3832   19.0115   38.1940 H   0  0  0  0  0  0  0  0  0  0  0  0
    2.4575   21.2394   37.9805 H   0  0  0  0  0  0  0  0  0  0  0  0
    2.9812   22.5721   40.0161 H   0  0  0  0  0  0  0  0  0  0  0  0
  1  2  1  0
  1  6  2  0
  2  3  2  0
  3  4  1  0
  3  7  1  0
  4  5  2  0
  5  6  1  0
  7  8  1  0
  7  9  2  0
  2 10  1  0
  4 11  1  0
  5 12  1  0
  6 13  1  0
M  CHG  1   8  -1
M  END
>  <mol_id>  (68) 
2026-09-18-3war-s0-n100-r2-0068

>  <rmsd_to_ref>  (68) 
3.530612244900187

>  <pose_kind>  (68) 
conformer

$$$$
3war.A
     RDKit          3D

 13 13  0  0  0  0  0  0  0  0999 V2000
    1.4892   21.3970   37.4283 N   0  0  0  0  0  0  0  0  0  0  0  0
    2.0952   20.1892   37.8502 C   0  0  0  0  0  0  0  0  0  0  0  0
    1.6413   18.9728   37.2226 C   0  0  0  0  0  0  0  0  0  0  0  0
    0.6370   18.9994   36.2714 C   0  0  0  0  0  0  0  0  0  0  0  0
    0.0945   20.2012   35.8722 C   0  0  0  0  0  0  0  0  0  0  0  0
    0.5036   21.3693   36.4753 C   0  0  0  0  0  0  0  0  0  0  0  0
    2.1804   17.6309   37.6952 C   0  0  0  0  0  0  0  0  0  0  0  0
    3.1997   17.6224   38.4459 O   0  0  0  0  0  0  0  0  0  0  0  0
    1.5573   16.6679   37.3035 O   0  0  0  0  0  0  0  0  0  0  0  0
    2.8781   20.1790   38.6229 H   0  0  0  0  0  0  0  0  0  0  0  0
    0.2710   18.0592   35.8332 H   0  0  0  0  0  0  0  0  0  0  0  0
   -0.6626   20.2273   35.0746 H   0  0  0  0  0  0  0  0  0  0  0  0
    0.0226   22.3142   36.1823 H   0  0  0  0  0  0  0  0  0  0  0  0
  1  2  1  0
  1  6  2  0
  2  3  2  0
  3  4  1  0
  3  7  1  0
  4  5  2  0
  5  6  1  0
  7  8  1  0
  7  9  2  0
  2 10  1  0
  4 11  1  0
  5 12  1  0
  6 13  1  0
M  CHG  1   8  -1
M  END
>  <mol_id>  (69) 
2026-09-18-3war-s0-n100-r2-0069

>  <rmsd_to_ref>  (69) 
3.576530612245028

>  <pose_kind>  (69) 
rigid

$$$$
3war.A
     RDKit          3D

 13 13  0  0  0  0  0  0  0  0999 V2000
    5.3242   18.9985   41.0745 N   0  0  0  0  0  0  0  0  0  0  0  0
    4.7715   19.7181   40.0628 C   0  0  0  0  0  0  0  0  0  0  0  0
    4.9880   19.3939   38.7372 C   0  0  0  0  0  0  0  0  0  0  0  0
    5.7919   18.3044   38.4676 C   0  0  0  0  0  0  0  0  0  0  0  0
    6.3722   17.5479   39.4894 C   0  0  0  0  0  0  0  0  0  0  0  0
    6.1157   17.9258   40.8096 C   0  0  0  0  0  0  0  0  0  0  0  0
    4.3731   20.1964   37.6884 C   0  0  0  0  0  0  0  0  0  0  0  0
    4.5950   19.8646   36.3524 O   0  0  0  0  0  0  0  0  0  0  0  0
    3.6462   21.1827   37.9870 O   0  0  0  0  0  0  0  0  0  0  0  0
    4.1545   20.5564   40.3610 H   0  0  0  0  0  0  0  0  0  0  0  0
    5.9657   18.0452   37.4490 H   0  0  0  0  0  0  0  0  0  0  0  0
    6.9940   16.7042   39.2395 H   0  0  0  0  0  0  0  0  0  0  0  0
    6.5693   17.3342   41.5913 H   0  0  0  0  0  0  0  0  0  0  0  0
  1  2  1  0
  1  6  2  0
  2  3  2  0
  3  4  1  0
  3  7  1  0
  4  5  2  0
  5  6  1  0
  7  8  1  0
  7  9  2  0
  2 10  1  0
  4 11  1  0
  5 12  1  0
  6 13  1  0
M  CHG  1   8  -1
M  END
>  <mol_id>  (70) 
2026-09-18-3war-s0-n100-r2-0070

>  <rmsd_to_ref>  (70) 
3.622448979593656

>  <pose_kind>  (70) 
conformer

$$$$
3war.A
     RDKit          3D

 13 13  0  0  0  0  0  0  0  0999 V2000
    6.1975   20.0132   38.9176 N   0  0  0  0  0  0  0  0  0  0  0  0
    5.0628   19.2061   39.1728 C   0  0  0  0  0  0  0  0  0  0  0  0
    3.9696   19.2959   38.2368 C   0  0  0  0  0  0  0  0  0  0  0  0
    4.0314   20.1587   37.1571 C   0  0  0  0  0  0  0  0  0  0  0  0
    5.1671   20.9057   36.9331 C   0  0  0  0  0  0  0  0  0  0  0  0
    6.2118   20.8455   37.8279 C   0  0  0  0  0  0  0  0  0  0  0  0
    2.6822   18.5294   38.5014 C   0  0  0  0  0  0  0  0  0  0  0  0
    2.6887   17.6321   39.3944 O   0  0  0  0  0  0  0  0  0  0  0  0
    1.7408   18.8681   37.8172 O   0  0  0  0  0  0  0  0  0  0  0  0
    5.0171   18.5397   40.0467 H   0  0  0  0  0  0  0  0  0  0  0  0
    3.1722   20.2483   36.4761 H   0  0  0  0  0  0  0  0  0  0  0  0
    5.2389   21.5478   36.0429 H   0  0  0  0  0  0  0  0  0  0  0  0
    7.0892   21.4880   37.6628 H   0  0  0  0  0  0  0  0  0  0  0  0
  1  2  1  0
  1  6  2  0
  2  3  2  0
  3  4  1  0
  3  7  1  0
  4  5  2  0
  5  6  1  0
  7  8  1  0
  7  9  2  0
  2 10  1  0
  4 11  1  0
  5 12  1  0
  6 13  1  0
M  CHG  1   8  -1
M  END
>  <mol_id>  (71) 
2026-09-18-3war-s0-n100-r2-0071

>  <rmsd_to_ref>  (71) 
3.6683673469408795

>  <pose_kind>  (71) 
rigid

$$$$
3war.A
     RDKit          3D

 13 13  0  0  0  0  0  0  0  0999 V2000
   -0.2105   19.9673   37.9749 N   0  0  0  0  0  0  0  0  0  0  0  0
    0.3213   19.0044   38.7439 C   0  0  0  0  0  0  0  0  0  0  0  0
    1.3758   18.2438   38.2833 C   0  0  0  0  0  0  0  0  0  0  0  0
    1.8682   18.4903   37.0286 C   0  0  0  0  0  0  0  0  0  0  0  0
    1.3296   19.4813   36.2227 C   0  0  0  0  0  0  0  0  0  0  0  0
    0.2765   20.2095   36.7366 C   0  0  0  0  0  0  0  0  0  0  0  0
    1.9812   17.1886   39.0878 C   0  0  0  0  0  0  0  0  0  0  0  0
    1.5706   16.8557   40.3542 O   0  0  0  0  0  0  0  0  0  0  0  0
    2.9464   16.5557   38.5572 O   0  0  0  0  0  0  0  0  0  0  0  0
   -0.0379   18.7755   39.7438 H   0  0  0  0  0  0  0  0  0  0  0  0
    2.6975   17.9272   36.6060 H   0  0  0  0  0  0  0  0  0  0  0  0
    1.6715   19.7162   35.2415 H   0  0  0  0  0  0  0  0  0  0  0  0
   -0.2178   21.0094   36.1865 H   0  0  0  0  0  0  0  0  0  0  0  0
  1  2  1  0
  1  6  2  0
  2  3  2  0
  3  4  1  0
  3  7  1  0
  4  5  2  0
  5  6  1  0
  7  8  1  0
  7  9  2  0
  2 10  1  0
  4 11  1  0
  5 12  1  0
  6 13  1  0
M  CHG  1   8  -1
M  END
>  <mol_id>  (72) 
2026-09-18-3war-s0-n100-r2-0072

>  <rmsd_to_ref>  (72) 
3.7142857142893466

>  <pose_kind>  (72) 
conformer

$$$$
3war.A
     RDKit          3D

 13 13  0  0  0  0  0  0  0  0999 V2000
    2.4197   17.1629   38.3723 N   0  0  0  0  0  0  0  0  0  0  0  0
    1.3280   17.9993   38.0367 C   0  0  0  0  0  0  0  0  0  0  0  0
    1.3576   18.6285   36.7396 C   0  0  0  0  0  0  0  0  0  0  0  0
    2.4270   18.4349   35.8834 C   0  0  0  0  0  0  0  0  0  0  0  0
    3.4552   17.5908   36.2413 C   0  0  0  0  0  0  0  0  0  0  0  0
    3.4510   16.9977   37.4838 C   0  0  0  0  0  0  0  0  0  0  0  0
    0.2655   19.6143   36.3518 C   0  0  0  0  0  0  0  0  0  0  0  0
   -0.7787   19.6672   37.0654 O   0  0  0  0  0  0  0  0  0  0  0  0
    0.5112   20.2831   35.3711 O   0  0  0  0  0  0  0  0  0  0  0  0
    0.4937   18.1621   38.7349 H   0  0  0  0  0  0  0  0  0  0  0  0
    2.4562   18.9559   34.9150 H   0  0  0  0  0  0  0  0  0  0  0  0
    4.2765   17.3915   35.5371 H   0  0  0  0  0  0  0  0  0  0  0  0
    4.3055   16.3687   37.7741 H   0  0  0  0  0  0  0  0  0  0  0  0
  1  2  1  0
  1  6  2  0
  2  3  2  0
  3  4  1  0
  3  7  1  0
  4  5  2  0
  5  6  1  0
  7  8  1  0
  7  9  2  0
  2 10  1  0
  4 11  1  0
  5 12  1  0
  6 13  1  0
M  CHG  1   8  -1
M  END
>  <mol_id>  (73) 
2026-09-18-3war-s0-n100-r2-0073

>  <rmsd_to_ref>  (73) 
3.760204081633388

>  <pose_kind>  (73) 
rigid

$$$$
3war.A
     RDKit          3D

 13 13  0  0  0  0  0  0  0  0999 V2000
    2.8514   22.3844   39.6107 N   0  0  0  0  0  0  0  0  0  0  0  0
    2.1517   21.3241   40.0941 C   0  0  0  0  0  0  0  0  0  0  0  0
    0.8969   20.9944   39.6225 C   0  0  0  0  0  0  0  0  0  0  0  0
    0.3265   21.7712   38.6190 C   0  0  0  0  0  0  0  0  0  0  0  0
    1.0578   22.8503   38.1385 C   0  0  0  0  0  0  0  0  0  0  0  0
    2.3139   23.1600   38.6280 C   0  0  0  0  0  0  0  0  0  0  0  0
    0.1847   19.8502   40.1698 C   0  0  0  0  0  0  0  0  0  0  0  0
   -1.0604   19.4905   39.7296 O   0  0  0  0  0  0  0  0  0  0  0  0
    0.7132   19.1499   41.0831 O   0  0  0  0  0  0  0  0  0  0  0  0
    2.6352   20.7500   40.8729 H   0  0  0  0  0  0  0  0  0  0  0  0
   -0.6461   21.5200   38.2497 H   0  0  0  0  0  0  0  0  0  0  0  0
    0.6102   23.4625   37.3488 H   0  0  0  0  0  0  0  0  0  0  0  0
    2.8695   24.0084   38.2386 H   0  0  0  0  0  0  0  0  0  0  0  0
  1  2  1  0
  1  6  2  0
  2  3  2  0
  3  4  1  0
  3  7  1  0
  4  5  2  0
  5  6  1  0
  7  8  1  0
  7  9  2  0
  2 10  1  0
  4 11  1  0
  5 12  1  0
  6 13  1  0
M  CHG  1   8  -1
M  END
>  <mol_id>  (74) 
2026-09-18-3war-s0-n100-r2-0074

>  <rmsd_to_ref>  (74) 
3.806122448979857

>  <pose_kind>  (74) 
conformer

$$$$
3war.A
     RDKit          3D

 13 13  0  0  0  0  0  0  0  0999 V2000
    5.3987   20.8927   39.4367 N   0  0  0  0  0  0  0  0  0  0  0  0
    4.2111   21.4463   38.9009 C   0  0  0  0  0  0  0  0  0  0  0  0
    3.9688   21.2435   37.4940 C   0  0  0  0  0  0  0  0  0  0  0  0
    4.8808   20.5593   36.7103 C   0  0  0  0  0  0  0  0  0  0  0  0
    6.0106   20.0145   37.2801 C   0  0  0  0  0  0  0  0  0  0  0  0
    6.2658   20.2157   38.6181 C   0  0  0  0  0  0  0  0  0  0  0  0
    2.7616   21.8918   36.8330 C   0  0  0  0  0  0  0  0  0  0  0  0
    1.8585   22.3788   37.5746 O   0  0  0  0  0  0  0  0  0  0  0  0
    2.7847   21.8888   35.6211 O   0  0  0  0  0  0  0  0  0  0  0  0
    3.5040   22.0067   39.5303 H   0  0  0  0  0  0  0  0  0  0  0  0
    4.7035   20.4501   35.6302 H   0  0  0  0  0  0  0  0  0  0  0  0
    6.7062   19.4211   36.6685 H   0  0  0  0  0  0  0  0  0  0  0  0
    7.1985   19.8191   39.0456 H   0  0  0  0  0  0  0  0  0  0  0  0
  1  2  1  0
  1  6  2  0
  2  3  2  0
  3  4  1  0
  3  7  1  0
  4  5  2  0
  5  6  1  0
  7  8  1  0
  7  9  2  0
  2 10  1  0
  4 11  1  0
  5 12  1  0
  6 13  1  0
M  CHG  1   8  -1
M  END
>  <mol_id>  (75) 
2026-09-18-3war-s0-n100-r2-0075

>  <rmsd_to_ref>  (75) 
3.8520408163283526

>  <pose_kind>  (75) 
rigid

$$$$
3war.A
     RDKit          3D

 13 13  0  0  0  0  0  0  0  0999 V2000
    6.3322   20.0726   38.7424 N   0  0  0  0  0  0  0  0  0  0  0  0
    5.7103   19.0270   39.3481 C   0  0  0  0  0  0  0  0  0  0  0  0
    4.3503   19.0779   39.5798 C   0  0  0  0  0  0  0  0  0  0  0  0
    3.6208   20.1811   39.2012 C   0  0  0  0  0  0  0  0  0  0  0  0
    4.2507   21.2482   38.5840 C   0  0  0  0  0  0  0  0  0  0  0  0
    5.6282   21.1767   38.3586 C   0  0  0  0  0  0  0  0  0  0  0  0
    3.6739   17.9696   40.2250 C   0  0  0  0  0  0  0  0  0  0  0  0
    4.3914   16.8492   40.6138 O   0  0  0  0  0  0  0  0  0  0  0  0
    2.4142   18.0702   40.4146 O   0  0  0  0  0  0  0  0  0  0  0  0
    6.3126   18.1616   39.6394 H   0  0  0  0  0  0  0  0  0  0  0  0
    2.5534   20.2841   39.3536 H   0  0  0  0  0  0  0  0  0  0  0  0
    3.6783   22.1164   38.2858 H   0  0  0  0  0  0  0  0  0  0  0  0
    6.1545   21.9961   37.8767 H   0  0  0  0  0  0  0  0  0  0  0  0
  1  2  1  0
  1  6  2  0
  2  3  2  0
  3  4  1  0
  3  7  1  0
  4  5  2  0
  5  6  1  0
  7  8  1  0
  7  9  2  0
  2 10  1  0
  4 11  1  0
  5 12  1  0
  6 13  1  0
M  CHG  1   8  -1
M  END
>  <mol_id>  (76) 
2026-09-18-3war-s0-n100-r2-0076

>  <rmsd_to_ref>  (76) 
3.897959183674992

>  <pose_kind>  (76) 
conformer

$$$$
3war.A
     RDKit          3D

 13 13  0  0  0  0  0  0  0  0999 V2000
    5.6837   22.5723   37.6798 N   0  0  0  0  0  0  0  0  0  0  0  0
    4.8122   21.6449   37.0599 C   0  0  0  0  0  0  0  0  0  0  0  0
    4.6457   20.3669   37.7069 C   0  0  0  0  0  0  0  0  0  0  0  0
    5.3364   20.0659   38.8672 C   0  0  0  0  0  0  0  0  0  0  0  0
    6.1537   21.0095   39.4499 C   0  0  0  0  0  0  0  0  0  0  0  0
    6.3379   22.2273   38.8344 C   0  0  0  0  0  0  0  0  0  0  0  0
    3.7998   19.2888   37.0459 C   0  0  0  0  0  0  0  0  0  0  0  0
    3.0539   19.6183   36.0776 O   0  0  0  0  0  0  0  0  0  0  0  0
    3.9320   18.1803   37.5181 O   0  0  0  0  0  0  0  0  0  0  0  0
    4.2850   21.8884   36.1257 H   0  0  0  0  0  0  0  0  0  0  0  0
    5.2327   19.0713   39.3255 H   0  0  0  0  0  0  0  0  0  0  0  0
    6.6572   20.7909   40.4032 H   0  0  0  0  0  0  0  0  0  0  0  0
    7.0349   22.9492   39.2851 H   0  0  0  0  0  0  0  0  0  0  0  0
  1  2  1  0
  1  6  2  0
  2  3  2  0
  3  4  1  0
  3  7  1  0
  4  5  2  0
  5  6  1  0
  7  8  1  0
  7  9  2  0
  2 10  1  0
  4 11  1  0
  5 12  1  0
  6 13  1  0
M  CHG  1   8  -1
M  END
>  <mol_id>  (77) 
2026-09-18-3war-s0-n100-r2-0077

>  <rmsd_to_ref>  (77) 
3.943877551022

>  <pose_kind>  (77) 
rigid

$$$$
3war.A
     RDKit          3D

 13 13  0  0  0  0  0  0  0  0999 V2000
    1.0259   18.9873   37.2561 N   0  0  0  0  0  0  0  0  0  0  0  0
    1.5652   18.2880   38.2818 C   0  0  0  0  0  0  0  0  0  0  0  0
    2.8329   17.7560   38.1790 C   0  0  0  0  0  0  0  0  0  0  0  0
    3.6109   17.9015   37.0494 C   0  0  0  0  0  0  0  0  0  0  0  0
    3.0288   18.6279   36.0066 C   0  0  0  0  0  0  0  0  0  0  0  0
    1.7505   19.1551   36.1310 C   0  0  0  0  0  0  0  0  0  0  0  0
    3.3751   17.0090   39.3094 C   0  0  0  0  0  0  0  0  0  0  0  0
    2.6368   16.8304   40.4731 O   0  0  0  0  0  0  0  0  0  0  0  0
    4.5263   16.5031   39.2677 O   0  0  0  0  0  0  0  0  0  0  0  0
    1.0027   18.1349   39.2068 H   0  0  0  0  0  0  0  0  0  0  0  0
    4.6022   17.4858   36.9683 H   0  0  0  0  0  0  0  0  0  0  0  0
    3.5723   18.7926   35.0747 H   0  0  0  0  0  0  0  0  0  0  0  0
    1.3298   19.7076   35.3151 H   0  0  0  0  0  0  0  0  0  0  0  0
  1  2  1  0
  1  6  2  0
  2  3  2  0
  3  4  1  0
  3  7  1  0
  4  5  2  0
  5  6  1  0
  7  8  1  0
  7  9  2  0
  2 10  1  0
  4 11  1  0
  5 12  1  0
  6 13  1  0
M  CHG  1   8  -1
M  END
>  <mol_id>  (78) 
2026-09-18-3war-s0-n100-r2-0078

>  <rmsd_to_ref>  (78) 
3.9897959183706857

>  <pose_kind>  (78) 
conformer

$$$$
3war.A
     RDKit          3D

 13 13  0  0  0  0  0  0  0  0999 V2000
    2.2978   16.8200   36.4584 N   0  0  0  0  0  0  0  0  0  0  0  0
    2.3635   18.1822   36.8379 C   0  0  0  0  0  0  0  0  0  0  0  0
    3.6725   18.7292   37.0961 C   0  0  0  0  0  0  0  0  0  0  0  0
    4.8024   17.9366   36.9996 C   0  0  0  0  0  0  0  0  0  0  0  0
    4.6931   16.6225   36.6007 C   0  0  0  0  0  0  0  0  0  0  0  0
    3.4489   16.0802   36.3691 C   0  0  0  0  0  0  0  0  0  0  0  0
    3.8094   20.1582   37.6002 C   0  0  0  0  0  0  0  0  0  0  0  0
    2.7988   20.9181   37.5372 O   0  0  0  0  0  0  0  0  0  0  0  0
    4.9047   20.4389   38.0369 O   0  0  0  0  0  0  0  0  0  0  0  0
    1.4559   18.7965   36.9318 H   0  0  0  0  0  0  0  0  0  0  0  0
    5.7898   18.3565   37.2417 H   0  0  0  0  0  0  0  0  0  0  0  0
    5.5963   16.0088   36.4679 H   0  0  0  0  0  0  0  0  0  0  0  0
    3.3757   15.0154   36.1029 H   0  0  0  0  0  0  0  0  0  0  0  0
  1  2  1  0
  1  6  2  0
  2  3  2  0
  3  4  1  0
  3  7  1  0
  4  5  2  0
  5  6  1  0
  7  8  1  0
  7  9  2  0
  2 10  1  0
  4 11  1  0
  5 12  1  0
  6 13  1  0
M  CHG  1   8  -1
M  END
>  <mol_id>  (79) 
2026-09-18-3war-s0-n100-r2-0079

>  <rmsd_to_ref>  (79) 
4.035714285714739

>  <pose_kind>  (79) 
rigid

$$$$
3war.A
     RDKit          3D

 13 13  0  0  0  0  0  0  0  0999 V2000
    3.6721   19.5270   40.5760 N   0  0  0  0  0  0  0  0  0  0  0  0
    2.8842   18.7182   41.3045 C   0  0  0  0  0  0  0  0  0  0  0  0
    1.6060   18.4210   40.8783 C   0  0  0  0  0  0  0  0  0  0  0  0
    1.1135   18.9587   39.6804 C   0  0  0  0  0  0  0  0  0  0  0  0
    1.9453   19.7856   38.9539 C   0  0  0  0  0  0  0  0  0  0  0  0
    3.2351   20.0649   39.4168 C   0  0  0  0  0  0  0  0  0  0  0  0
    0.7586   17.5408   41.6783 C   0  0  0  0  0  0  0  0  0  0  0  0
   -0.5280   17.2447   41.2443 O   0  0  0  0  0  0  0  0  0  0  0  0
    1.2042   17.0538   42.7629 O   0  0  0  0  0  0  0  0  0  0  0  0
    3.2459   18.2831   42.2480 H   0  0  0  0  0  0  0  0  0  0  0  0
    0.1128   18.7296   39.3410 H   0  0  0  0  0  0  0  0  0  0  0  0
    1.5702   20.1969   38.0388 H   0  0  0  0  0  0  0  0  0  0  0  0
    3.8821   20.7235   38.8272 H   0  0  0  0  0  0  0  0  0  0  0  0
  1  2  1  0
  1  6  2  0
  2  3  2  0
  3  4  1  0
  3  7  1  0
  4  5  2  0
  5  6  1  0
  7  8  1  0
  7  9  2  0
  2 10  1  0
  4 11  1  0
  5 12  1  0
  6 13  1  0
M  CHG  1   8  -1
M  END
>  <mol_id>  (80) 
2026-09-18-3war-s0-n100-r2-0080

>  <rmsd_to_ref>  (80) 
4.08163265306406

>  <pose_kind>  (80) 
conformer

$$$$
3war.A
     RDKit          3D

 13 13  0  0  0  0  0  0  0  0999 V2000
    0.2337   20.0993   36.4372 N   0  0  0  0  0  0  0  0  0  0  0  0
    0.8652   18.9288   36.9220 C   0  0  0  0  0  0  0  0  0  0  0  0
    0.1540   18.1626   37.9152 C   0  0  0  0  0  0  0  0  0  0  0  0
   -1.0786   18.5817   38.3834 C   0  0  0  0  0  0  0  0  0  0  0  0
   -1.6674   19.7134   37.8632 C   0  0  0  0  0  0  0  0  0  0  0  0
   -0.9929   20.4662   36.9284 C   0  0  0  0  0  0  0  0  0  0  0  0
    0.8144   16.9473   38.5490 C   0  0  0  0  0  0  0  0  0  0  0  0
    1.8626   16.4833   38.0119 O   0  0  0  0  0  0  0  0  0  0  0  0
    0.2622   16.5320   39.5449 O   0  0  0  0  0  0  0  0  0  0  0  0
    1.8552   18.6175   36.5571 H   0  0  0  0  0  0  0  0  0  0  0  0
   -1.5893   18.0104   39.1725 H   0  0  0  0  0  0  0  0  0  0  0  0
   -2.6726   20.0143   38.1934 H   0  0  0  0  0  0  0  0  0  0  0  0
   -1.4544   21.3953   36.5624 H   0  0  0  0  0  0  0  0  0  0  0  0
  1  2  1  0
  1  6  2  0
  2  3  2  0
  3  4  1  0
  3  7  1  0
  4  5  2  0
  5  6  1  0
  7  8  1  0
  7  9  2  0
  2 10  1  0
  4 11  1  0
  5 12  1  0
  6 13  1  0
M  CHG  1   8  -1
M  END
>  <mol_id>  (81) 
2026-09-18-3war-s0-n100-r2-0081

>  <rmsd_to_ref>  (81) 
4.127551020409553

>  <pose_kind>  (81) 
rigid

$$$$
3war.A
     RDKit          3D

 13 13  0  0  0  0  0  0  0  0999 V2000
    2.8431   19.9097   41.7893 N   0  0  0  0  0  0  0  0  0  0  0  0
    2.5072   21.1940   41.9376 C   0  0  0  0  0  0  0  0  0  0  0  0
    2.7901   22.0650   40.9134 C   0  0  0  0  0  0  0  0  0  0  0  0
    3.4049   21.6339   39.7578 C   0  0  0  0  0  0  0  0  0  0  0  0
    3.7458   20.3058   39.6186 C   0  0  0  0  0  0  0  0  0  0  0  0
    3.4510   19.4495   40.6624 C   0  0  0  0  0  0  0  0  0  0  0  0
    2.4369   23.4744   41.0424 C   0  0  0  0  0  0  0  0  0  0  0  0
    1.8130   23.9366   42.2037 O   0  0  0  0  0  0  0  0  0  0  0  0
    2.6890   24.2859   40.1134 O   0  0  0  0  0  0  0  0  0  0  0  0
    2.0254   21.5292   42.8445 H   0  0  0  0  0  0  0  0  0  0  0  0
    3.6241   22.3423   38.9489 H   0  0  0  0  0  0  0  0  0  0  0  0
    4.2253   19.9404   38.7309 H   0  0  0  0  0  0  0  0  0  0  0  0
    3.6865   18.3948   40.6293 H   0  0  0  0  0  0  0  0  0  0  0  0
  1  2  1  0
  1  6  2  0
  2  3  2  0
  3  4  1  0
  3  7  1  0
  4  5  2  0
  5  6  1  0
  7  8  1  0
  7  9  2  0
  2 10  1  0
  4 11  1  0
  5 12  1  0
  6 13  1  0
M  CHG  1   8  -1
M  END
>  <mol_id>  (82) 
2026-09-18-3war-s0-n100-r2-0082

>  <rmsd_to_ref>  (82) 
4.173469387755841

>  <pose_kind>  (82) 
conformer

$$$$
3war.A
     RDKit          3D

 13 13  0  0  0  0  0  0  0  0999 V2000
   -0.3427   21.1935   35.8982 N   0  0  0  0  0  0  0  0  0  0  0  0
   -0.5863   19.8828   36.3742 C   0  0  0  0  0  0  0  0  0  0  0  0
   -0.2088   19.5984   37.7366 C   0  0  0  0  0  0  0  0  0  0  0  0
    0.3898   20.5674   38.5220 C   0  0  0  0  0  0  0  0  0  0  0  0
    0.5832   21.8378   38.0253 C   0  0  0  0  0  0  0  0  0  0  0  0
    0.2457   22.1198   36.7205 C   0  0  0  0  0  0  0  0  0  0  0  0
   -0.3537   18.1858   38.2826 C   0  0  0  0  0  0  0  0  0  0  0  0
   -1.0381   17.3517   37.6204 O   0  0  0  0  0  0  0  0  0  0  0  0
    0.2262   17.9844   39.3278 O   0  0  0  0  0  0  0  0  0  0  0  0
   -1.0436   19.1149   35.7330 H   0  0  0  0  0  0  0  0  0  0  0  0
    0.7119   20.3230   39.5450 H   0  0  0  0  0  0  0  0  0  0  0  0
    1.0057   22.6237   38.6685 H   0  0  0  0  0  0  0  0  0  0  0  0
    0.4555   23.1240   36.3237 H   0  0  0  0  0  0  0  0  0  0  0  0
  1  2  1  0
  1  6  2  0
  2  3  2  0
  3  4  1  0
  3  7  1  0
  4  5  2  0
  5  6  1  0
  7  8  1  0
  7  9  2  0
  2 10  1  0
  4 11  1  0
  5 12  1  0
  6 13  1  0
M  CHG  1   8  -1
M  END
>  <mol_id>  (83) 
2026-09-18-3war-s0-n100-r2-0083

>  <rmsd_to_ref>  (83) 
4.219387755103944

>  <pose_kind>  (83) 
rigid

$$$$
3war.A
     RDKit          3D

 13 13  0  0  0  0  0  0  0  0999 V2000
    1.3594   16.0114   37.7050 N   0  0  0  0  0  0  0  0  0  0  0  0
    0.8951   17.0699   38.3919 C   0  0  0  0  0  0  0  0  0  0  0  0
    0.5329   18.2013   37.6902 C   0  0  0  0  0  0  0  0  0  0  0  0
    0.6297   18.2826   36.3238 C   0  0  0  0  0  0  0  0  0  0  0  0
    1.1131   17.1720   35.6428 C   0  0  0  0  0  0  0  0  0  0  0  0
    1.4756   16.0389   36.3484 C   0  0  0  0  0  0  0  0  0  0  0  0
    0.0309   19.3479   38.4243 C   0  0  0  0  0  0  0  0  0  0  0  0
   -0.0902   19.3240   39.8189 O   0  0  0  0  0  0  0  0  0  0  0  0
   -0.3173   20.4109   37.8494 O   0  0  0  0  0  0  0  0  0  0  0  0
    0.8019   17.0482   39.4787 H   0  0  0  0  0  0  0  0  0  0  0  0
    0.3395   19.1786   35.8043 H   0  0  0  0  0  0  0  0  0  0  0  0
    1.2069   17.1923   34.5556 H   0  0  0  0  0  0  0  0  0  0  0  0
    1.8616   15.1448   35.8335 H   0  0  0  0  0  0  0  0  0  0  0  0
  1  2  1  0
  1  6  2  0
  2  3  2  0
  3  4  1  0
  3  7  1  0
  4  5  2  0
  5  6  1  0
  7  8  1  0
  7  9  2  0
  2 10  1  0
  4 11  1  0
  5 12  1  0
  6 13  1  0
M  CHG  1   8  -1
M  END
>  <mol_id>  (84) 
2026-09-18-3war-s0-n100-r2-0084

>  <rmsd_to_ref>  (84) 
4.265306122449067

>  <pose_kind>  (84) 
conformer

$$$$
3war.A
     RDKit          3D

 13 13  0  0  0  0  0  0  0  0999 V2000
    1.2455   22.6233   36.4213 N   0  0  0  0  0  0  0  0  0  0  0  0
    1.1898   21.8791   37.6242 C   0  0  0  0  0  0  0  0  0  0  0  0
    2.2870   22.0387   38.5462 C   0  0  0  0  0  0  0  0  0  0  0  0
    3.3533   22.8658   38.2410 C   0  0  0  0  0  0  0  0  0  0  0  0
    3.3522   23.5917   37.0701 C   0  0  0  0  0  0  0  0  0  0  0  0
    2.3213   23.4359   36.1708 C   0  0  0  0  0  0  0  0  0  0  0  0
    2.3391   21.1978   39.8130 C   0  0  0  0  0  0  0  0  0  0  0  0
    1.2979   20.5666   40.1598 O   0  0  0  0  0  0  0  0  0  0  0  0
    3.4091   21.2046   40.3824 O   0  0  0  0  0  0  0  0  0  0  0  0
    0.3466   21.2084   37.8458 H   0  0  0  0  0  0  0  0  0  0  0  0
    4.2035   22.9439   38.9346 H   0  0  0  0  0  0  0  0  0  0  0  0
    4.1717   24.2931   36.8545 H   0  0  0  0  0  0  0  0  0  0  0  0
    2.3622   23.9827   35.2172 H   0  0  0  0  0  0  0  0  0  0  0  0
  1  2  1  0
  1  6  2  0
  2  3  2  0
  3  4  1  0
  3  7  1  0
  4  5  2  0
  5  6  1  0
  7  8  1  0
  7  9  2  0
  2 10  1  0
  4 11  1  0
  5 12  1  0
  6 13  1  0
M  CHG  1   8  -1
M  END
>  <mol_id>  (85) 
2026-09-18-3war-s0-n100-r2-0085

>  <rmsd_to_ref>  (85) 
4.3112244897970395

>  <pose_kind>  (85) 
rigid

$$$$
3war.A
     RDKit          3D

 13 13  0  0  0  0  0  0  0  0999 V2000
    0.5941   19.2731   35.6349 N   0  0  0  0  0  0  0  0  0  0  0  0
    0.9844   19.6875   36.8563 C   0  0  0  0  0  0  0  0  0  0  0  0
    0.2210   19.3574   37.9542 C   0  0  0  0  0  0  0  0  0  0  0  0
   -0.9271   18.6183   37.8439 C   0  0  0  0  0  0  0  0  0  0  0  0
   -1.2961   18.2095   36.5655 C   0  0  0  0  0  0  0  0  0  0  0  0
   -0.5242   18.5431   35.4546 C   0  0  0  0  0  0  0  0  0  0  0  0
    0.6348   19.8027   39.2926 C   0  0  0  0  0  0  0  0  0  0  0  0
    1.8122   20.5643   39.4316 O   0  0  0  0  0  0  0  0  0  0  0  0
   -0.0650   19.4989   40.2898 O   0  0  0  0  0  0  0  0  0  0  0  0
    1.8949   20.2710   36.9251 H   0  0  0  0  0  0  0  0  0  0  0  0
   -1.5412   18.3515   38.7177 H   0  0  0  0  0  0  0  0  0  0  0  0
   -2.1967   17.6207   36.4135 H   0  0  0  0  0  0  0  0  0  0  0  0
   -0.8292   18.2123   34.4491 H   0  0  0  0  0  0  0  0  0  0  0  0
  1  2  1  0
  1  6  2  0
  2  3  2  0
  3  4  1  0
  3  7  1  0
  4  5  2  0
  5  6  1  0
  7  8  1  0
  7  9  2  0
  2 10  1  0
  4 11  1  0
  5 12  1  0
  6 13  1  0
M  CHG  1   8  -1
M  END
>  <mol_id>  (86) 
2026-09-18-3war-s0-n100-r2-0086

>  <rmsd_to_ref>  (86) 
4.3571428571434785

>  <pose_kind>  (86) 
conformer

$$$$
3war.A
     RDKit          3D

 13 13  0  0  0  0  0  0  0  0999 V2000
    0.8417   22.4636   38.0367 N   0  0  0  0  0  0  0  0  0  0  0  0
    0.7028   21.8510   39.3053 C   0  0  0  0  0  0  0  0  0  0  0  0
    1.8335   21.9245   40.1971 C   0  0  0  0  0  0  0  0  0  0  0  0
    3.0054   22.5462   39.8043 C   0  0  0  0  0  0  0  0  0  0  0  0
    3.0863   23.1525   38.5699 C   0  0  0  0  0  0  0  0  0  0  0  0
    2.0222   23.0746   37.6996 C   0  0  0  0  0  0  0  0  0  0  0  0
    1.7879   21.2061   41.5375 C   0  0  0  0  0  0  0  0  0  0  0  0
    0.6716   20.7772   41.9528 O   0  0  0  0  0  0  0  0  0  0  0  0
    2.8600   21.1010   42.0931 O   0  0  0  0  0  0  0  0  0  0  0  0
   -0.2270   21.3411   39.5979 H   0  0  0  0  0  0  0  0  0  0  0  0
    3.8742   22.5564   40.4789 H   0  0  0  0  0  0  0  0  0  0  0  0
    3.9974   23.6967   38.2807 H   0  0  0  0  0  0  0  0  0  0  0  0
    2.1226   23.5183   36.6981 H   0  0  0  0  0  0  0  0  0  0  0  0
  1  2  1  0
  1  6  2  0
  2  3  2  0
  3  4  1  0
  3  7  1  0
  4  5  2  0
  5  6  1  0
  7  8  1  0
  7  9  2  0
  2 10  1  0
  4 11  1  0
  5 12  1  0
  6 13  1  0
M  CHG  1   8  -1
M  END
>  <mol_id>  (87) 
2026-09-18-3war-s0-n100-r2-0087

>  <rmsd_to_ref>  (87) 
4.40306122449141

>  <pose_kind>  (87) 
rigid

$$$$
3war.A
     RDKit          3D

 13 13  0  0  0  0  0  0  0  0999 V2000
    2.8432   18.9578   36.2999 N   0  0  0  0  0  0  0  0  0  0  0  0
    3.0346   18.7976   37.6178 C   0  0  0  0  0  0  0  0  0  0  0  0
    4.2690   18.3835   38.0696 C   0  0  0  0  0  0  0  0  0  0  0  0
    5.2835   18.1407   37.1732 C   0  0  0  0  0  0  0  0  0  0  0  0
    5.0377   18.3197   35.8287 C   0  0  0  0  0  0  0  0  0  0  0  0
    3.8006   18.7344   35.3799 C   0  0  0  0  0  0  0  0  0  0  0  0
    4.5124   18.1989   39.4965 C   0  0  0  0  0  0  0  0  0  0  0  0
    3.5005   18.4387   40.4214 O   0  0  0  0  0  0  0  0  0  0  0  0
    5.6679   17.8159   39.8592 O   0  0  0  0  0  0  0  0  0  0  0  0
    2.2272   18.9907   38.3327 H   0  0  0  0  0  0  0  0  0  0  0  0
    6.2612   17.8155   37.4956 H   0  0  0  0  0  0  0  0  0  0  0  0
    5.8615   18.1205   35.1285 H   0  0  0  0  0  0  0  0  0  0  0  0
    3.6496   18.8625   34.3181 H   0  0  0  0  0  0  0  0  0  0  0  0
  1  2  1  0
  1  6  2  0
  2  3  2  0
  3  4  1  0
  3  7  1  0
  4  5  2  0
  5  6  1  0
  7  8  1  0
  7  9  2  0
  2 10  1  0
  4 11  1  0
  5 12  1  0
  6 13  1  0
M  CHG  1   8  -1
M  END
>  <mol_id>  (88) 
2026-09-18-3war-s0-n100-r2-0088

>  <rmsd_to_ref>  (88) 
4.448979591838089

>  <pose_kind>  (88) 
conformer

$$$$
3war.A
     RDKit          3D

 13 13  0  0  0  0  0  0  0  0999 V2000
    6.1631   17.9694   38.3145 N   0  0  0  0  0  0  0  0  0  0  0  0
    5.9183   18.1352   39.6989 C   0  0  0  0  0  0  0  0  0  0  0  0
    4.6636   18.7374   40.0762 C   0  0  0  0  0  0  0  0  0  0  0  0
    3.7613   19.1547   39.1140 C   0  0  0  0  0  0  0  0  0  0  0  0
    4.0299   18.9488   37.7786 C   0  0  0  0  0  0  0  0  0  0  0  0
    5.2317   18.3926   37.4014 C   0  0  0  0  0  0  0  0  0  0  0  0
    4.3763   19.0328   41.5407 C   0  0  0  0  0  0  0  0  0  0  0  0
    5.1266   18.5132   42.4180 O   0  0  0  0  0  0  0  0  0  0  0  0
    3.4325   19.7685   41.7338 O   0  0  0  0  0  0  0  0  0  0  0  0
    6.6531   17.8185   40.4538 H   0  0  0  0  0  0  0  0  0  0  0  0
    2.8276   19.6519   39.4158 H   0  0  0  0  0  0  0  0  0  0  0  0
    3.2873   19.2277   37.0165 H   0  0  0  0  0  0  0  0  0  0  0  0
    5.4524   18.2838   36.3293 H   0  0  0  0  0  0  0  0  0  0  0  0
  1  2  1  0
  1  6  2  0
  2  3  2  0
  3  4  1  0
  3  7  1  0
  4  5  2  0
  5  6  1  0
  7  8  1  0
  7  9  2  0
  2 10  1  0
  4 11  1  0
  5 12  1  0
  6 13  1  0
M  CHG  1   8  -1
M  END
>  <mol_id>  (89) 
2026-09-18-3war-s0-n100-r2-0089

>  <rmsd_to_ref>  (89) 
4.494897959183684

>  <pose_kind>  (89) 
rigid

$$$$
3war.A
     RDKit          3D

 13 13  0  0  0  0  0  0  0  0999 V2000
    1.1355   19.7559   39.4239 N   0  0  0  0  0  0  0  0  0  0  0  0
    1.2094   19.3858   40.7228 C   0  0  0  0  0  0  0  0  0  0  0  0
    1.5413   18.0792   40.9748 C   0  0  0  0  0  0  0  0  0  0  0  0
    1.7972   17.1460   39.9994 C   0  0  0  0  0  0  0  0  0  0  0  0
    1.7086   17.5739   38.6843 C   0  0  0  0  0  0  0  0  0  0  0  0
    1.3744   18.8904   38.4211 C   0  0  0  0  0  0  0  0  0  0  0  0
    1.6307   17.6437   42.3592 C   0  0  0  0  0  0  0  0  0  0  0  0
    1.3859   18.5279   43.4259 O   0  0  0  0  0  0  0  0  0  0  0  0
    1.9278   16.4672   42.6957 O   0  0  0  0  0  0  0  0  0  0  0  0
    1.0071   20.1239   41.4898 H   0  0  0  0  0  0  0  0  0  0  0  0
    2.0535   16.1357   40.2175 H   0  0  0  0  0  0  0  0  0  0  0  0
    1.9057   16.8578   37.8956 H   0  0  0  0  0  0  0  0  0  0  0  0
    1.3120   19.1999   37.3698 H   0  0  0  0  0  0  0  0  0  0  0  0
  1  2  1  0
  1  6  2  0
  2  3  2  0
  3  4  1  0
  3  7  1  0
  4  5  2  0
  5  6  1  0
  7  8  1  0
  7  9  2  0
  2 10  1  0
  4 11  1  0
  5 12  1  0
  6 13  1  0
M  CHG  1   8  -1
M  END
>  <mol_id>  (90) 
2026-09-18-3war-s0-n100-r2-0090

>  <rmsd_to_ref>  (90) 
4.540816326531013

>  <pose_kind>  (90) 
conformer

$$$$
3war.A
     RDKit          3D

 13 13  0  0  0  0  0  0  0  0999 V2000
    0.5222   16.0329   38.7417 N   0  0  0  0  0  0  0  0  0  0  0  0
    0.3516   16.6238   40.0167 C   0  0  0  0  0  0  0  0  0  0  0  0
    1.3554   17.5676   40.4424 C   0  0  0  0  0  0  0  0  0  0  0  0
    2.4458   17.8513   39.6395 C   0  0  0  0  0  0  0  0  0  0  0  0
    2.5568   17.2725   38.3943 C   0  0  0  0  0  0  0  0  0  0  0  0
    1.6169   16.3550   37.9813 C   0  0  0  0  0  0  0  0  0  0  0  0
    1.2859   18.1676   41.8388 C   0  0  0  0  0  0  0  0  0  0  0  0
    0.2164   18.0277   42.5015 O   0  0  0  0  0  0  0  0  0  0  0  0
    2.2965   18.7318   42.1989 O   0  0  0  0  0  0  0  0  0  0  0  0
   -0.5088   16.3740   40.6548 H   0  0  0  0  0  0  0  0  0  0  0  0
    3.2256   18.5403   39.9961 H   0  0  0  0  0  0  0  0  0  0  0  0
    3.3931   17.5423   37.7326 H   0  0  0  0  0  0  0  0  0  0  0  0
    1.7490   15.8627   37.0065 H   0  0  0  0  0  0  0  0  0  0  0  0
  1  2  1  0
  1  6  2  0
  2  3  2  0
  3  4  1  0
  3  7  1  0
  4  5  2  0
  5  6  1  0
  7  8  1  0
  7  9  2  0
  2 10  1  0
  4 11  1  0
  5 12  1  0
  6 13  1  0
M  CHG  1   8  -1
M  END
>  <mol_id>  (91) 
2026-09-18-3war-s0-n100-r2-0091

>  <rmsd_to_ref>  (91) 
4.586734693877683

>  <pose_kind>  (91) 
rigid

$$$$
3war.A
     RDKit          3D

 13 13  0  0  0  0  0  0  0  0999 V2000
    2.4710   21.6026   39.2739 N   0  0  0  0  0  0  0  0  0  0  0  0
    2.5869   21.9408   40.5919 C   0  0  0  0  0  0  0  0  0  0  0  0
    2.2509   21.0334   41.5908 C   0  0  0  0  0  0  0  0  0  0  0  0
    1.7886   19.7595   41.2716 C   0  0  0  0  0  0  0  0  0  0  0  0
    1.6777   19.4347   39.9241 C   0  0  0  0  0  0  0  0  0  0  0  0
    2.0183   20.3552   38.9572 C   0  0  0  0  0  0  0  0  0  0  0  0
    2.4005   21.4652   42.9901 C   0  0  0  0  0  0  0  0  0  0  0  0
    2.0636   20.5555   43.9855 O   0  0  0  0  0  0  0  0  0  0  0  0
    2.8161   22.6109   43.2985 O   0  0  0  0  0  0  0  0  0  0  0  0
    2.9513   22.9450   40.8590 H   0  0  0  0  0  0  0  0  0  0  0  0
    1.5324   19.0677   42.0362 H   0  0  0  0  0  0  0  0  0  0  0  0
    1.3256   18.4640   39.6625 H   0  0  0  0  0  0  0  0  0  0  0  0
    1.9155   20.0571   37.9045 H   0  0  0  0  0  0  0  0  0  0  0  0
  1  2  1  0
  1  6  2  0
  2  3  2  0
  3  4  1  0
  3  7  1  0
  4  5  2  0
  5  6  1  0
  7  8  1  0
  7  9  2  0
  2 10  1  0
  4 11  1  0
  5 12  1  0
  6 13  1  0
M  CHG  1   8  -1
M  END
>  <mol_id>  (92) 
2026-09-18-3war-s0-n100-r2-0092

>  <rmsd_to_ref>  (92) 
4.632653061225009

>  <pose_kind>  (92) 
conformer

$$$$
3war.A
     RDKit          3D

 13 13  0  0  0  0  0  0  0  0999 V2000
   -1.3047   20.2667   38.9863 N   0  0  0  0  0  0  0  0  0  0  0  0
   -1.0091   20.8608   40.2367 C   0  0  0  0  0  0  0  0  0  0  0  0
    0.1531   20.3726   40.9370 C   0  0  0  0  0  0  0  0  0  0  0  0
    0.9193   19.3487   40.4090 C   0  0  0  0  0  0  0  0  0  0  0  0
    0.6093   18.8185   39.1758 C   0  0  0  0  0  0  0  0  0  0  0  0
   -0.5080   19.2605   38.5034 C   0  0  0  0  0  0  0  0  0  0  0  0
    0.4747   20.8986   42.3279 C   0  0  0  0  0  0  0  0  0  0  0  0
   -0.1303   21.9335   42.7348 O   0  0  0  0  0  0  0  0  0  0  0  0
    1.2984   20.2507   42.9370 O   0  0  0  0  0  0  0  0  0  0  0  0
   -1.6384   21.6597   40.6559 H   0  0  0  0  0  0  0  0  0  0  0  0
    1.7775   18.9573   40.9749 H   0  0  0  0  0  0  0  0  0  0  0  0
    1.2520   18.0451   38.7300 H   0  0  0  0  0  0  0  0  0  0  0  0
   -0.7708   18.7896   37.5447 H   0  0  0  0  0  0  0  0  0  0  0  0
  1  2  1  0
  1  6  2  0
  2  3  2  0
  3  4  1  0
  3  7  1  0
  4  5  2  0
  5  6  1  0
  7  8  1  0
  7  9  2  0
  2 10  1  0
  4 11  1  0
  5 12  1  0
  6 13  1  0
M  CHG  1   8  -1
M  END
>  <mol_id>  (93) 
2026-09-18-3war-s0-n100-r2-0093

>  <rmsd_to_ref>  (93) 
4.67857142857277

>  <pose_kind>  (93) 
rigid

$$$$
3war.A
     RDKit          3D

 13 13  0  0  0  0  0  0  0  0999 V2000
    3.2257   17.3247   36.9449 N   0  0  0  0  0  0  0  0  0  0  0  0
    3.1270   17.8444   38.1816 C   0  0  0  0  0  0  0  0  0  0  0  0
    4.1067   17.5584   39.1080 C   0  0  0  0  0  0  0  0  0  0  0  0
    5.1900   16.7435   38.7818 C   0  0  0  0  0  0  0  0  0  0  0  0
    5.2542   16.2235   37.4844 C   0  0  0  0  0  0  0  0  0  0  0  0
    4.2532   16.5257   36.5649 C   0  0  0  0  0  0  0  0  0  0  0  0
    4.0098   18.1168   40.4527 C   0  0  0  0  0  0  0  0  0  0  0  0
    4.9701   17.8545   41.4099 O   0  0  0  0  0  0  0  0  0  0  0  0
    3.0307   18.8599   40.7660 O   0  0  0  0  0  0  0  0  0  0  0  0
    2.2876   18.4748   38.4319 H   0  0  0  0  0  0  0  0  0  0  0  0
    5.9610   16.5195   39.5137 H   0  0  0  0  0  0  0  0  0  0  0  0
    6.0987   15.5833   37.2165 H   0  0  0  0  0  0  0  0  0  0  0  0
    4.2870   16.1319   35.5567 H   0  0  0  0  0  0  0  0  0  0  0  0
  1  2  1  0
  1  6  2  0
  2  3  2  0
  3  4  1  0
  3  7  1  0
  4  5  2  0
  5  6  1  0
  7  8  1  0
  7  9  2  0
  2 10  1  0
  4 11  1  0
  5 12  1  0
  6 13  1  0
M  CHG  1   8  -1
M  END
>  <mol_id>  (94) 
2026-09-18-3war-s0-n100-r2-0094

>  <rmsd_to_ref>  (94) 
4.724489795918872

>  <pose_kind>  (94) 
conformer

$$$$
3war.A
     RDKit          3D

 13 13  0  0  0  0  0  0  0  0999 V2000
    2.9302   19.5289   34.0339 N   0  0  0  0  0  0  0  0  0  0  0  0
    2.4414   19.8300   35.3280 C   0  0  0  0  0  0  0  0  0  0  0  0
    3.3759   19.7322   36.4218 C   0  0  0  0  0  0  0  0  0  0  0  0
    4.6825   19.3334   36.2028 C   0  0  0  0  0  0  0  0  0  0  0  0
    5.1215   19.0761   34.9226 C   0  0  0  0  0  0  0  0  0  0  0  0
    4.2368   19.1465   33.8700 C   0  0  0  0  0  0  0  0  0  0  0  0
    2.8954   19.9483   37.8491 C   0  0  0  0  0  0  0  0  0  0  0  0
    1.7513   20.4600   38.0280 O   0  0  0  0  0  0  0  0  0  0  0  0
    3.6741   19.5898   38.7059 O   0  0  0  0  0  0  0  0  0  0  0  0
    1.3946   20.1255   35.4919 H   0  0  0  0  0  0  0  0  0  0  0  0
    5.3720   19.2214   37.0525 H   0  0  0  0  0  0  0  0  0  0  0  0
    6.1749   18.8155   34.7420 H   0  0  0  0  0  0  0  0  0  0  0  0
    4.5907   18.8866   32.8614 H   0  0  0  0  0  0  0  0  0  0  0  0
  1  2  1  0
  1  6  2  0
  2  3  2  0
  3  4  1  0
  3  7  1  0
  4  5  2  0
  5  6  1  0
  7  8  1  0
  7  9  2  0
  2 10  1  0
  4 11  1  0
  5 12  1  0
  6 13  1  0
M  CHG  1   8  -1
M  END
>  <mol_id>  (95) 
2026-09-18-3war-s0-n100-r2-0095

>  <rmsd_to_ref>  (95) 
4.770408163265919

>  <pose_kind>  (95) 
rigid

$$$$
3war.A
     RDKit          3D

 13 13  0  0  0  0  0  0  0  0999 V2000
    3.6269   21.8141   40.3660 N   0  0  0  0  0  0  0  0  0  0  0  0
    2.7488   21.6511   41.3744 C   0  0  0  0  0  0  0  0  0  0  0  0
    2.4811   20.4205   41.9248 C   0  0  0  0  0  0  0  0  0  0  0  0
    3.1188   19.2896   41.4495 C   0  0  0  0  0  0  0  0  0  0  0  0
    4.0138   19.4599   40.4208 C   0  0  0  0  0  0  0  0  0  0  0  0
    4.2599   20.7286   39.8865 C   0  0  0  0  0  0  0  0  0  0  0  0
    1.5198   20.3150   43.0137 C   0  0  0  0  0  0  0  0  0  0  0  0
    1.2469   19.0590   43.5752 O   0  0  0  0  0  0  0  0  0  0  0  0
    0.9140   21.3081   43.4819 O   0  0  0  0  0  0  0  0  0  0  0  0
    2.2564   22.5153   41.7432 H   0  0  0  0  0  0  0  0  0  0  0  0
    2.9077   18.3140   41.8846 H   0  0  0  0  0  0  0  0  0  0  0  0
    4.5093   18.5738   40.0531 H   0  0  0  0  0  0  0  0  0  0  0  0
    4.9871   20.8043   39.0637 H   0  0  0  0  0  0  0  0  0  0  0  0
  1  2  1  0
  1  6  2  0
  2  3  2  0
  3  4  1  0
  3  7  1  0
  4  5  2  0
  5  6  1  0
  7  8  1  0
  7  9  2  0
  2 10  1  0
  4 11  1  0
  5 12  1  0
  6 13  1  0
M  CHG  1   8  -1
M  END
>  <mol_id>  (96) 
2026-09-18-3war-s0-n100-r2-0096

>  <rmsd_to_ref>  (96) 
4.816326530613461

>  <pose_kind>  (96) 
conformer

$$$$
3war.A
     RDKit          3D

 13 13  0  0  0  0  0  0  0  0999 V2000
    4.2422   23.7101   36.8688 N   0  0  0  0  0  0  0  0  0  0  0  0
    3.7217   23.7075   38.1853 C   0  0  0  0  0  0  0  0  0  0  0  0
    3.4789   22.4224   38.7927 C   0  0  0  0  0  0  0  0  0  0  0  0
    3.7232   21.2527   38.0955 C   0  0  0  0  0  0  0  0  0  0  0  0
    4.2552   21.3028   36.8257 C   0  0  0  0  0  0  0  0  0  0  0  0
    4.4748   22.5220   36.2248 C   0  0  0  0  0  0  0  0  0  0  0  0
    2.8314   22.3456   40.1673 C   0  0  0  0  0  0  0  0  0  0  0  0
    2.7556   23.4044   40.8570 O   0  0  0  0  0  0  0  0  0  0  0  0
    2.4284   21.2452   40.4770 O   0  0  0  0  0  0  0  0  0  0  0  0
    3.5117   24.6448   38.7214 H   0  0  0  0  0  0  0  0  0  0  0  0
    3.4922   20.2807   38.5559 H   0  0  0  0  0  0  0  0  0  0  0  0
    4.5037   20.3725   36.2940 H   0  0  0  0  0  0  0  0  0  0  0  0
    4.8503   22.5438   35.1910 H   0  0  0  0  0  0  0  0  0  0  0  0
  1  2  1  0
  1  6  2  0
  2  3  2  0
  3  4  1  0
  3  7  1  0
  4  5  2  0
  5  6  1  0
  7  8  1  0
  7  9  2  0
  2 10  1  0
  4 11  1  0
  5 12  1  0
  6 13  1  0
M  CHG  1   8  -1
M  END
>  <mol_id>  (97) 
2026-09-18-3war-s0-n100-r2-0097

>  <rmsd_to_ref>  (97) 
4.8622448979592825

>  <pose_kind>  (97) 
rigid

$$$$
