3war.A
     RDKit          3D

 13 13  0  0  0  0  0  0  0  0999 V2000
    2.0001   18.6245   40.6926 N   0  0  0  0  0  0  0  0  0  0  0  0
    2.5782   18.5757   39.4013 C   0  0  0  0  0  0  0  0  0  0  0  0
    2.4967   19.7718   38.6000 C   0  0  0  0  0  0  0  0  0  0  0  0
    1.8538   20.9004   39.0765 C   0  0  0  0  0  0  0  0  0  0  0  0
    1.3289   20.9112   40.3502 C   0  0  0  0  0  0  0  0  0  0  0  0
    1.3818   19.7712   41.1205 C   0  0  0  0  0  0  0  0  0  0  0  0
    3.0116   19.7599   37.1684 C   0  0  0  0  0  0  0  0  0  0  0  0
    3.7306   18.7870   36.7954 O   0  0  0  0  0  0  0  0  0  0  0  0
    2.6655   20.7081   36.4973 O   0  0  0  0  0  0  0  0  0  0  0  0
    3.0681   17.6653   39.0256 H   0  0  0  0  0  0  0  0  0  0  0  0
    1.7616   21.7908   38.4372 H   0  0  0  0  0  0  0  0  0  0  0  0
    0.8693   21.8270   40.7502 H   0  0  0  0  0  0  0  0  0  0  0  0
    0.9112   19.7806   42.1147 H   0  0  0  0  0  0  0  0  0  0  0  0
  1  2  1  0
  1  6  2  0
  2  3  2  0
  3  4  1  0
  3  7  1  0
  4  5  2  0
  5  6  1  0
  7  8  1  0
  7  9  2  0
  2 10  1  0
  4 11  1  0
  5 12  1  0
  6 13  1  0
M  CHG  1   8  -1
M  END
>  <mol_id>  (1) 
2026-09-18-3war-s0-n100-r1-0001

>  <rmsd_to_ref>  (1) 
0.0

>  <pose_kind>  (1) 
native

$$$$
3war.A
     RDKit          3D

 13 13  0  0  0  0  0  0  0  0999 V2000
    2.0898   18.6382   40.2967 N   0  0  0  0  0  0  0  0  0  0  0  0
    2.5188   18.6746   39.0349 C   0  0  0  0  0  0  0  0  0  0  0  0
    2.6769   19.9105   38.4412 C   0  0  0  0  0  0  0  0  0  0  0  0
    2.3959   21.0622   39.1436 C   0  0  0  0  0  0  0  0  0  0  0  0
    1.9540   20.9554   40.4506 C   0  0  0  0  0  0  0  0  0  0  0  0
    1.7947   19.7201   41.0480 C   0  0  0  0  0  0  0  0  0  0  0  0
    3.1463   20.0007   37.0552 C   0  0  0  0  0  0  0  0  0  0  0  0
    3.4292   18.8404   36.3481 O   0  0  0  0  0  0  0  0  0  0  0  0
    3.2817   21.1451   36.5376 O   0  0  0  0  0  0  0  0  0  0  0  0
    2.7266   17.7395   38.5242 H   0  0  0  0  0  0  0  0  0  0  0  0
    2.5305   22.0268   38.6470 H   0  0  0  0  0  0  0  0  0  0  0  0
    1.7352   21.8655   40.9960 H   0  0  0  0  0  0  0  0  0  0  0  0
    1.4446   19.6229   42.0845 H   0  0  0  0  0  0  0  0  0  0  0  0
  1  2  1  0
  1  6  2  0
  2  3  2  0
  3  4  1  0
  3  7  1  0
  4  5  2  0
  5  6  1  0
  7  8  1  0
  7  9  2  0
  2 10  1  0
  4 11  1  0
  5 12  1  0
  6 13  1  0
M  CHG  1   8  -1
M  END
>  <mol_id>  (2) 
2026-09-18-3war-s0-n100-r1-0002

>  <rmsd_to_ref>  (2) 
0.5000000000019936

>  <pose_kind>  (2) 
conformer

$$$$
3war.A
     RDKit          3D

 13 13  0  0  0  0  0  0  0  0999 V2000
    2.3458   18.4148   40.2687 N   0  0  0  0  0  0  0  0  0  0  0  0
    2.7539   18.6694   38.9373 C   0  0  0  0  0  0  0  0  0  0  0  0
    2.4677   19.9774   38.4018 C   0  0  0  0  0  0  0  0  0  0  0  0
    1.7981   20.9214   39.1597 C   0  0  0  0  0  0  0  0  0  0  0  0
    1.4436   20.6388   40.4606 C   0  0  0  0  0  0  0  0  0  0  0  0
    1.6927   19.3883   40.9802 C   0  0  0  0  0  0  0  0  0  0  0  0
    2.7920   20.2872   36.9480 C   0  0  0  0  0  0  0  0  0  0  0  0
    3.5369   19.4842   36.3131 O   0  0  0  0  0  0  0  0  0  0  0  0
    2.2824   21.3001   36.5196 O   0  0  0  0  0  0  0  0  0  0  0  0
    3.2668   17.9031   38.3375 H   0  0  0  0  0  0  0  0  0  0  0  0
    1.5484   21.8996   38.7228 H   0  0  0  0  0  0  0  0  0  0  0  0
    0.9633   21.4091   41.0818 H   0  0  0  0  0  0  0  0  0  0  0  0
    1.3558   19.1620   42.0026 H   0  0  0  0  0  0  0  0  0  0  0  0
  1  2  1  0
  1  6  2  0
  2  3  2  0
  3  4  1  0
  3  7  1  0
  4  5  2  0
  5  6  1  0
  7  8  1  0
  7  9  2  0
  2 10  1  0
  4 11  1  0
  5 12  1  0
  6 13  1  0
M  CHG  1   8  -1
M  END
>  <mol_id>  (3) 
2026-09-18-3war-s0-n100-r1-0003

>  <rmsd_to_ref>  (3) 
0.5459183673512121

>  <pose_kind>  (3) 
rigid

$$$$
3war.A
     RDKit          3D

 13 13  0  0  0  0  0  0  0  0999 V2000
    1.8961   18.5384   40.2911 N   0  0  0  0  0  0  0  0  0  0  0  0
    2.6755   18.6090   39.1901 C   0  0  0  0  0  0  0  0  0  0  0  0
    2.5232   19.6437   38.2902 C   0  0  0  0  0  0  0  0  0  0  0  0
    1.5556   20.6125   38.5335 C   0  0  0  0  0  0  0  0  0  0  0  0
    0.7533   20.5383   39.6685 C   0  0  0  0  0  0  0  0  0  0  0  0
    0.9461   19.4777   40.5424 C   0  0  0  0  0  0  0  0  0  0  0  0
    3.3707   19.7124   37.1017 C   0  0  0  0  0  0  0  0  0  0  0  0
    3.2042   20.7612   36.2056 O   0  0  0  0  0  0  0  0  0  0  0  0
    4.2470   18.8145   36.9032 O   0  0  0  0  0  0  0  0  0  0  0  0
    3.4050   17.8390   39.0488 H   0  0  0  0  0  0  0  0  0  0  0  0
    1.4600   21.4142   37.8068 H   0  0  0  0  0  0  0  0  0  0  0  0
    0.0045   21.2955   39.8487 H   0  0  0  0  0  0  0  0  0  0  0  0
    0.3252   19.4011   41.4411 H   0  0  0  0  0  0  0  0  0  0  0  0
  1  2  1  0
  1  6  2  0
  2  3  2  0
  3  4  1  0
  3  7  1  0
  4  5  2  0
  5  6  1  0
  7  8  1  0
  7  9  2  0
  2 10  1  0
  4 11  1  0
  5 12  1  0
  6 13  1  0
M  CHG  1   8  -1
M  END
>  <mol_id>  (4) 
2026-09-18-3war-s0-n100-r1-0004

>  <rmsd_to_ref>  (4) 
0.5918367346943232

>  <pose_kind>  (4) 
conformer

$$$$
3war.A
     RDKit          3D

 13 13  0  0  0  0  0  0  0  0999 V2000
    1.9337   19.2318   40.6286 N   0  0  0  0  0  0  0  0  0  0  0  0
    2.4466   18.7866   39.3865 C   0  0  0  0  0  0  0  0  0  0  0  0
    2.6096   19.7768   38.3509 C   0  0  0  0  0  0  0  0  0  0  0  0
    2.2497   21.0947   38.5689 C   0  0  0  0  0  0  0  0  0  0  0  0
    1.7797   21.4881   39.8027 C   0  0  0  0  0  0  0  0  0  0  0  0
    1.6003   20.5513   40.7957 C   0  0  0  0  0  0  0  0  0  0  0  0
    3.0648   19.3518   36.9628 C   0  0  0  0  0  0  0  0  0  0  0  0
    3.5368   18.1865   36.8146 O   0  0  0  0  0  0  0  0  0  0  0  0
    2.9188   20.1924   36.1019 O   0  0  0  0  0  0  0  0  0  0  0  0
    2.7092   17.7317   39.2187 H   0  0  0  0  0  0  0  0  0  0  0  0
    2.3390   21.8299   37.7556 H   0  0  0  0  0  0  0  0  0  0  0  0
    1.5485   22.5464   39.9938 H   0  0  0  0  0  0  0  0  0  0  0  0
    1.1744   20.8730   41.7576 H   0  0  0  0  0  0  0  0  0  0  0  0
  1  2  1  0
  1  6  2  0
  2  3  2  0
  3  4  1  0
  3  7  1  0
  4  5  2  0
  5  6  1  0
  7  8  1  0
  7  9  2  0
  2 10  1  0
  4 11  1  0
  5 12  1  0
  6 13  1  0
M  CHG  1   8  -1
M  END
>  <mol_id>  (5) 
2026-09-18-3war-s0-n100-r1-0005

>  <rmsd_to_ref>  (5) 
0.6377551020417038

>  <pose_kind>  (5) 
rigid

$$$$
3war.A
     RDKit          3D

 13 13  0  0  0  0  0  0  0  0999 V2000
    1.6736   19.1152   40.4816 N   0  0  0  0  0  0  0  0  0  0  0  0
    2.5464   19.0410   39.4556 C   0  0  0  0  0  0  0  0  0  0  0  0
    2.5576   20.0349   38.4874 C   0  0  0  0  0  0  0  0  0  0  0  0
    1.6808   21.0970   38.5704 C   0  0  0  0  0  0  0  0  0  0  0  0
    0.7853   21.1520   39.6433 C   0  0  0  0  0  0  0  0  0  0  0  0
    0.8020   20.1468   40.5872 C   0  0  0  0  0  0  0  0  0  0  0  0
    3.4830   19.9951   37.3623 C   0  0  0  0  0  0  0  0  0  0  0  0
    4.4049   18.9955   37.1628 O   0  0  0  0  0  0  0  0  0  0  0  0
    3.4167   20.9429   36.5360 O   0  0  0  0  0  0  0  0  0  0  0  0
    3.2497   18.2123   39.3668 H   0  0  0  0  0  0  0  0  0  0  0  0
    1.6445   21.9006   37.8447 H   0  0  0  0  0  0  0  0  0  0  0  0
    0.0990   21.9875   39.7043 H   0  0  0  0  0  0  0  0  0  0  0  0
    0.1253   20.1549   41.4302 H   0  0  0  0  0  0  0  0  0  0  0  0
  1  2  1  0
  1  6  2  0
  2  3  2  0
  3  4  1  0
  3  7  1  0
  4  5  2  0
  5  6  1  0
  7  8  1  0
  7  9  2  0
  2 10  1  0
  4 11  1  0
  5 12  1  0
  6 13  1  0
M  CHG  1   8  -1
M  END
>  <mol_id>  (6) 
2026-09-18-3war-s0-n100-r1-0006

>  <rmsd_to_ref>  (6) 
0.6836734693923118

>  <pose_kind>  (6) 
conformer

$$$$
3war.A
     RDKit          3D

 13 13  0  0  0  0  0  0  0  0999 V2000
    2.9147   18.6538   40.4237 N   0  0  0  0  0  0  0  0  0  0  0  0
    3.0190   18.5545   39.0154 C   0  0  0  0  0  0  0  0  0  0  0  0
    2.5256   19.6661   38.2406 C   0  0  0  0  0  0  0  0  0  0  0  0
    1.9528   20.7621   38.8608 C   0  0  0  0  0  0  0  0  0  0  0  0
    1.8966   20.8275   40.2358 C   0  0  0  0  0  0  0  0  0  0  0  0
    2.3460   19.7662   40.9890 C   0  0  0  0  0  0  0  0  0  0  0  0
    2.5188   19.5855   36.7214 C   0  0  0  0  0  0  0  0  0  0  0  0
    3.1791   18.6599   36.1647 O   0  0  0  0  0  0  0  0  0  0  0  0
    1.8530   20.4362   36.1716 O   0  0  0  0  0  0  0  0  0  0  0  0
    3.4573   17.6682   38.5333 H   0  0  0  0  0  0  0  0  0  0  0  0
    1.5415   21.5829   38.2549 H   0  0  0  0  0  0  0  0  0  0  0  0
    1.4942   21.7241   40.7299 H   0  0  0  0  0  0  0  0  0  0  0  0
    2.2453   19.8123   42.0834 H   0  0  0  0  0  0  0  0  0  0  0  0
  1  2  1  0
  1  6  2  0
  2  3  2  0
  3  4  1  0
  3  7  1  0
  4  5  2  0
  5  6  1  0
  7  8  1  0
  7  9  2  0
  2 10  1  0
  4 11  1  0
  5 12  1  0
  6 13  1  0
M  CHG  1   8  -1
M  END
>  <mol_id>  (7) 
2026-09-18-3war-s0-n100-r1-0007

>  <rmsd_to_ref>  (7) 
0.729591836738996

>  <pose_kind>  (7) 
rigid

$$$$
3war.A
     RDKit          3D

 13 13  0  0  0  0  0  0  0  0999 V2000
    1.2853   18.7769   40.1921 N   0  0  0  0  0  0  0  0  0  0  0  0
    1.6959   18.6256   38.9017 C   0  0  0  0  0  0  0  0  0  0  0  0
    2.1313   19.7223   38.1949 C   0  0  0  0  0  0  0  0  0  0  0  0
    2.1617   20.9669   38.7597 C   0  0  0  0  0  0  0  0  0  0  0  0
    1.7386   21.1150   40.0852 C   0  0  0  0  0  0  0  0  0  0  0  0
    1.3073   20.0035   40.7724 C   0  0  0  0  0  0  0  0  0  0  0  0
    2.5669   19.5420   36.8155 C   0  0  0  0  0  0  0  0  0  0  0  0
    2.5488   18.2922   36.2117 O   0  0  0  0  0  0  0  0  0  0  0  0
    2.9758   20.5017   36.1144 O   0  0  0  0  0  0  0  0  0  0  0  0
    1.6639   17.6201   38.4671 H   0  0  0  0  0  0  0  0  0  0  0  0
    2.5103   21.8075   38.1741 H   0  0  0  0  0  0  0  0  0  0  0  0
    1.7707   22.1078   40.5127 H   0  0  0  0  0  0  0  0  0  0  0  0
    0.9736   20.0958   41.8050 H   0  0  0  0  0  0  0  0  0  0  0  0
  1  2  1  0
  1  6  2  0
  2  3  2  0
  3  4  1  0
  3  7  1  0
  4  5  2  0
  5  6  1  0
  7  8  1  0
  7  9  2  0
  2 10  1  0
  4 11  1  0
  5 12  1  0
  6 13  1  0
M  CHG  1   8  -1
M  END
>  <mol_id>  (8) 
2026-09-18-3war-s0-n100-r1-0008

>  <rmsd_to_ref>  (8) 
0.775510204082249

>  <pose_kind>  (8) 
conformer

$$$$
3war.A
     RDKit          3D

 13 13  0  0  0  0  0  0  0  0999 V2000
    2.5073   19.4477   41.2651 N   0  0  0  0  0  0  0  0  0  0  0  0
    2.7139   19.0339   39.9271 C   0  0  0  0  0  0  0  0  0  0  0  0
    2.2371   19.9121   38.8874 C   0  0  0  0  0  0  0  0  0  0  0  0
    1.5837   21.0906   39.2009 C   0  0  0  0  0  0  0  0  0  0  0  0
    1.4286   21.4661   40.5173 C   0  0  0  0  0  0  0  0  0  0  0  0
    1.8613   20.6297   41.5217 C   0  0  0  0  0  0  0  0  0  0  0  0
    2.3400   19.4855   37.4307 C   0  0  0  0  0  0  0  0  0  0  0  0
    3.0702   18.4917   37.1446 O   0  0  0  0  0  0  0  0  0  0  0  0
    1.6847   20.1528   36.6595 O   0  0  0  0  0  0  0  0  0  0  0  0
    3.2161   18.0842   39.6909 H   0  0  0  0  0  0  0  0  0  0  0  0
    1.1871   21.7289   38.3976 H   0  0  0  0  0  0  0  0  0  0  0  0
    0.9610   22.4305   40.7649 H   0  0  0  0  0  0  0  0  0  0  0  0
    1.6823   20.9200   42.5675 H   0  0  0  0  0  0  0  0  0  0  0  0
  1  2  1  0
  1  6  2  0
  2  3  2  0
  3  4  1  0
  3  7  1  0
  4  5  2  0
  5  6  1  0
  7  8  1  0
  7  9  2  0
  2 10  1  0
  4 11  1  0
  5 12  1  0
  6 13  1  0
M  CHG  1   8  -1
M  END
>  <mol_id>  (9) 
2026-09-18-3war-s0-n100-r1-0009

>  <rmsd_to_ref>  (9) 
0.8214285714295174

>  <pose_kind>  (9) 
rigid

$$$$
3war.A
     RDKit          3D

 13 13  0  0  0  0  0  0  0  0999 V2000
    2.6064   18.9875   41.1099 N   0  0  0  0  0  0  0  0  0  0  0  0
    2.7553   18.5370   39.8613 C   0  0  0  0  0  0  0  0  0  0  0  0
    2.5798   19.4200   38.8236 C   0  0  0  0  0  0  0  0  0  0  0  0
    2.2580   20.7399   39.0549 C   0  0  0  0  0  0  0  0  0  0  0  0
    2.1074   21.1909   40.3485 C   0  0  0  0  0  0  0  0  0  0  0  0
    2.2890   20.2838   41.3751 C   0  0  0  0  0  0  0  0  0  0  0  0
    2.7350   18.9613   37.4475 C   0  0  0  0  0  0  0  0  0  0  0  0
    3.0610   17.6283   37.1863 O   0  0  0  0  0  0  0  0  0  0  0  0
    2.5777   19.7574   36.4850 O   0  0  0  0  0  0  0  0  0  0  0  0
    3.0076   17.5019   39.6829 H   0  0  0  0  0  0  0  0  0  0  0  0
    2.1212   21.4327   38.2150 H   0  0  0  0  0  0  0  0  0  0  0  0
    1.8572   22.2127   40.5603 H   0  0  0  0  0  0  0  0  0  0  0  0
    2.1885   20.5600   42.4155 H   0  0  0  0  0  0  0  0  0  0  0  0
  1  2  1  0
  1  6  2  0
  2  3  2  0
  3  4  1  0
  3  7  1  0
  4  5  2  0
  5  6  1  0
  7  8  1  0
  7  9  2  0
  2 10  1  0
  4 11  1  0
  5 12  1  0
  6 13  1  0
M  CHG  1   8  -1
M  END
>  <mol_id>  (10) 
2026-09-18-3war-s0-n100-r1-0010

>  <rmsd_to_ref>  (10) 
0.8673469387808072

>  <pose_kind>  (10) 
conformer

$$$$
3war.A
     RDKit          3D

 13 13  0  0  0  0  0  0  0  0999 V2000
    1.1499   18.8409   39.9316 N   0  0  0  0  0  0  0  0  0  0  0  0
    2.2150   18.6910   39.0113 C   0  0  0  0  0  0  0  0  0  0  0  0
    2.6145   19.8635   38.2731 C   0  0  0  0  0  0  0  0  0  0  0  0
    1.9570   21.0681   38.4481 C   0  0  0  0  0  0  0  0  0  0  0  0
    0.9429   21.1741   39.3746 C   0  0  0  0  0  0  0  0  0  0  0  0
    0.5371   20.0594   40.0736 C   0  0  0  0  0  0  0  0  0  0  0  0
    3.6869   19.7527   37.1995 C   0  0  0  0  0  0  0  0  0  0  0  0
    4.3855   18.6980   37.1533 O   0  0  0  0  0  0  0  0  0  0  0  0
    3.7663   20.7109   36.4614 O   0  0  0  0  0  0  0  0  0  0  0  0
    2.7159   17.7226   38.8657 H   0  0  0  0  0  0  0  0  0  0  0  0
    2.2444   21.9430   37.8463 H   0  0  0  0  0  0  0  0  0  0  0  0
    0.4594   22.1454   39.5553 H   0  0  0  0  0  0  0  0  0  0  0  0
   -0.3089   20.1495   40.7708 H   0  0  0  0  0  0  0  0  0  0  0  0
  1  2  1  0
  1  6  2  0
  2  3  2  0
  3  4  1  0
  3  7  1  0
  4  5  2  0
  5  6  1  0
  7  8  1  0
  7  9  2  0
  2 10  1  0
  4 11  1  0
  5 12  1  0
  6 13  1  0
M  CHG  1   8  -1
M  END
>  <mol_id>  (11) 
2026-09-18-3war-s0-n100-r1-0011

>  <rmsd_to_ref>  (11) 
0.9132653061237679

>  <pose_kind>  (11) 
rigid

$$$$
3war.A
     RDKit          3D

 13 13  0  0  0  0  0  0  0  0999 V2000
    2.1172   19.6907   40.5526 N   0  0  0  0  0  0  0  0  0  0  0  0
    2.4958   19.0765   39.4208 C   0  0  0  0  0  0  0  0  0  0  0  0
    2.4684   19.8116   38.2560 C   0  0  0  0  0  0  0  0  0  0  0  0
    2.0714   21.1269   38.2306 C   0  0  0  0  0  0  0  0  0  0  0  0
    1.6867   21.7296   39.4194 C   0  0  0  0  0  0  0  0  0  0  0  0
    1.7192   20.9785   40.5832 C   0  0  0  0  0  0  0  0  0  0  0  0
    2.8723   19.1875   36.9918 C   0  0  0  0  0  0  0  0  0  0  0  0
    3.2866   17.8633   36.9306 O   0  0  0  0  0  0  0  0  0  0  0  0
    2.8247   19.9226   35.9462 O   0  0  0  0  0  0  0  0  0  0  0  0
    2.8180   18.0437   39.3786 H   0  0  0  0  0  0  0  0  0  0  0  0
    2.0417   21.7181   37.3393 H   0  0  0  0  0  0  0  0  0  0  0  0
    1.3724   22.7536   39.4312 H   0  0  0  0  0  0  0  0  0  0  0  0
    1.4321   21.3880   41.5434 H   0  0  0  0  0  0  0  0  0  0  0  0
  1  2  1  0
  1  6  2  0
  2  3  2  0
  3  4  1  0
  3  7  1  0
  4  5  2  0
  5  6  1  0
  7  8  1  0
  7  9  2  0
  2 10  1  0
  4 11  1  0
  5 12  1  0
  6 13  1  0
M  CHG  1   8  -1
M  END
>  <mol_id>  (12) 
2026-09-18-3war-s0-n100-r1-0012

>  <rmsd_to_ref>  (12) 
0.9591836734697208

>  <pose_kind>  (12) 
conformer

$$$$
3war.A
     RDKit          3D

 13 13  0  0  0  0  0  0  0  0999 V2000
    2.3806   18.7615   40.6628 N   0  0  0  0  0  0  0  0  0  0  0  0
    2.2910   18.8222   39.2513 C   0  0  0  0  0  0  0  0  0  0  0  0
    2.0159   20.1109   38.6658 C   0  0  0  0  0  0  0  0  0  0  0  0
    1.8229   21.2243   39.4641 C   0  0  0  0  0  0  0  0  0  0  0  0
    1.9460   21.1235   40.8326 C   0  0  0  0  0  0  0  0  0  0  0  0
    2.1895   19.8966   41.4080 C   0  0  0  0  0  0  0  0  0  0  0  0
    1.8116   20.2311   37.1629 C   0  0  0  0  0  0  0  0  0  0  0  0
    2.1401   19.2521   36.4307 O   0  0  0  0  0  0  0  0  0  0  0  0
    1.3298   21.2822   36.7993 O   0  0  0  0  0  0  0  0  0  0  0  0
    2.4254   17.9255   38.6284 H   0  0  0  0  0  0  0  0  0  0  0  0
    1.5708   22.1917   39.0054 H   0  0  0  0  0  0  0  0  0  0  0  0
    1.8501   22.0198   41.4631 H   0  0  0  0  0  0  0  0  0  0  0  0
    2.2322   19.8243   42.5048 H   0  0  0  0  0  0  0  0  0  0  0  0
  1  2  1  0
  1  6  2  0
  2  3  2  0
  3  4  1  0
  3  7  1  0
  4  5  2  0
  5  6  1  0
  7  8  1  0
  7  9  2  0
  2 10  1  0
  4 11  1  0
  5 12  1  0
  6 13  1  0
M  CHG  1   8  -1
M  END
>  <mol_id>  (13) 
2026-09-18-3war-s0-n100-r1-0013

>  <rmsd_to_ref>  (13) 
1.0051020408206377

>  <pose_kind>  (13) 
rigid

$$$$
3war.A
     RDKit          3D

 13 13  0  0  0  0  0  0  0  0999 V2000
    0.8794   19.2800   40.4576 N   0  0  0  0  0  0  0  0  0  0  0  0
    1.9133   19.1018   39.6059 C   0  0  0  0  0  0  0  0  0  0  0  0
    2.3326   20.1185   38.7609 C   0  0  0  0  0  0  0  0  0  0  0  0
    1.6536   21.3307   38.8179 C   0  0  0  0  0  0  0  0  0  0  0  0
    0.5999   21.4969   39.6931 C   0  0  0  0  0  0  0  0  0  0  0  0
    0.2153   20.4566   40.5175 C   0  0  0  0  0  0  0  0  0  0  0  0
    3.4525   19.8931   37.8531 C   0  0  0  0  0  0  0  0  0  0  0  0
    3.8285   20.9650   37.0218 O   0  0  0  0  0  0  0  0  0  0  0  0
    4.0810   18.8067   37.7840 O   0  0  0  0  0  0  0  0  0  0  0  0
    2.4051   18.1362   39.6048 H   0  0  0  0  0  0  0  0  0  0  0  0
    1.9687   22.1429   38.1608 H   0  0  0  0  0  0  0  0  0  0  0  0
    0.0486   22.4171   39.7687 H   0  0  0  0  0  0  0  0  0  0  0  0
   -0.6047   20.5347   41.2221 H   0  0  0  0  0  0  0  0  0  0  0  0
  1  2  1  0
  1  6  2  0
  2  3  2  0
  3  4  1  0
  3  7  1  0
  4  5  2  0
  5  6  1  0
  7  8  1  0
  7  9  2  0
  2 10  1  0
  4 11  1  0
  5 12  1  0
  6 13  1  0
M  CHG  1   8  -1
M  END
>  <mol_id>  (14) 
2026-09-18-3war-s0-n100-r1-0014

>  <rmsd_to_ref>  (14) 
1.0510204081644594

>  <pose_kind>  (14) 
conformer

$$$$
3war.A
     RDKit          3D

 13 13  0  0  0  0  0  0  0  0999 V2000
    1.9665   18.9630   40.8533 N   0  0  0  0  0  0  0  0  0  0  0  0
    2.9615   18.6044   39.9123 C   0  0  0  0  0  0  0  0  0  0  0  0
    2.9822   19.3339   38.6686 C   0  0  0  0  0  0  0  0  0  0  0  0
    2.0461   20.3194   38.4106 C   0  0  0  0  0  0  0  0  0  0  0  0
    1.1123   20.6534   39.3668 C   0  0  0  0  0  0  0  0  0  0  0  0
    1.0673   19.9534   40.5516 C   0  0  0  0  0  0  0  0  0  0  0  0
    3.9624   18.9369   37.5749 C   0  0  0  0  0  0  0  0  0  0  0  0
    4.9082   18.1493   37.8711 O   0  0  0  0  0  0  0  0  0  0  0  0
    3.7315   19.4200   36.4874 O   0  0  0  0  0  0  0  0  0  0  0  0
    3.6870   17.8043   40.1207 H   0  0  0  0  0  0  0  0  0  0  0  0
    2.0474   20.8372   37.4401 H   0  0  0  0  0  0  0  0  0  0  0  0
    0.4053   21.4762   39.1845 H   0  0  0  0  0  0  0  0  0  0  0  0
    0.2821   20.1973   41.2823 H   0  0  0  0  0  0  0  0  0  0  0  0
  1  2  1  0
  1  6  2  0
  2  3  2  0
  3  4  1  0
  3  7  1  0
  4  5  2  0
  5  6  1  0
  7  8  1  0
  7  9  2  0
  2 10  1  0
  4 11  1  0
  5 12  1  0
  6 13  1  0
M  CHG  1   8  -1
M  END
>  <mol_id>  (15) 
2026-09-18-3war-s0-n100-r1-0015

>  <rmsd_to_ref>  (15) 
1.096938775511154

>  <pose_kind>  (15) 
rigid

$$$$
3war.A
     RDKit          3D

 13 13  0  0  0  0  0  0  0  0999 V2000
    3.4834   18.2192   39.8838 N   0  0  0  0  0  0  0  0  0  0  0  0
    3.5594   18.6609   38.6080 C   0  0  0  0  0  0  0  0  0  0  0  0
    2.7352   19.7119   38.2083 C   0  0  0  0  0  0  0  0  0  0  0  0
    1.8453   20.3123   39.0793 C   0  0  0  0  0  0  0  0  0  0  0  0
    1.8147   19.8137   40.3746 C   0  0  0  0  0  0  0  0  0  0  0  0
    2.6308   18.7695   40.7793 C   0  0  0  0  0  0  0  0  0  0  0  0
    2.8184   20.1927   36.8179 C   0  0  0  0  0  0  0  0  0  0  0  0
    3.6775   19.6381   35.9161 O   0  0  0  0  0  0  0  0  0  0  0  0
    2.0298   21.1588   36.5318 O   0  0  0  0  0  0  0  0  0  0  0  0
    4.2377   18.2302   37.8785 H   0  0  0  0  0  0  0  0  0  0  0  0
    1.1985   21.1336   38.7739 H   0  0  0  0  0  0  0  0  0  0  0  0
    1.1197   20.2858   41.0471 H   0  0  0  0  0  0  0  0  0  0  0  0
    2.5985   18.3882   41.7932 H   0  0  0  0  0  0  0  0  0  0  0  0
  1  2  1  0
  1  6  2  0
  2  3  2  0
  3  4  1  0
  3  7  1  0
  4  5  2  0
  5  6  1  0
  7  8  1  0
  7  9  2  0
  2 10  1  0
  4 11  1  0
  5 12  1  0
  6 13  1  0
M  CHG  1   8  -1
M  END
>  <mol_id>  (16) 
2026-09-18-3war-s0-n100-r1-0016

>  <rmsd_to_ref>  (16) 
1.1428571428606458

>  <pose_kind>  (16) 
conformer

$$$$
3war.A
     RDKit          3D

 13 13  0  0  0  0  0  0  0  0999 V2000
    1.1452   17.6978   40.0338 N   0  0  0  0  0  0  0  0  0  0  0  0
    2.3147   17.8945   39.2607 C   0  0  0  0  0  0  0  0  0  0  0  0
    2.6196   19.2469   38.8640 C   0  0  0  0  0  0  0  0  0  0  0  0
    1.7807   20.2917   39.2087 C   0  0  0  0  0  0  0  0  0  0  0  0
    0.6671   20.0570   39.9851 C   0  0  0  0  0  0  0  0  0  0  0  0
    0.3519   18.7690   40.3558 C   0  0  0  0  0  0  0  0  0  0  0  0
    3.8073   19.5185   37.9528 C   0  0  0  0  0  0  0  0  0  0  0  0
    4.6510   18.5923   37.7715 O   0  0  0  0  0  0  0  0  0  0  0  0
    3.8281   20.6276   37.4641 O   0  0  0  0  0  0  0  0  0  0  0  0
    2.9624   17.0525   38.9751 H   0  0  0  0  0  0  0  0  0  0  0  0
    2.0032   21.3117   38.8621 H   0  0  0  0  0  0  0  0  0  0  0  0
    0.0323   20.8954   40.3077 H   0  0  0  0  0  0  0  0  0  0  0  0
   -0.5691   18.5930   40.9308 H   0  0  0  0  0  0  0  0  0  0  0  0
  1  2  1  0
  1  6  2  0
  2  3  2  0
  3  4  1  0
  3  7  1  0
  4  5  2  0
  5  6  1  0
  7  8  1  0
  7  9  2  0
  2 10  1  0
  4 11  1  0
  5 12  1  0
  6 13  1  0
M  CHG  1   8  -1
M  END
>  <mol_id>  (17) 
2026-09-18-3war-s0-n100-r1-0017

>  <rmsd_to_ref>  (17) 
1.1887755102066782

>  <pose_kind>  (17) 
rigid

$$$$
3war.A
     RDKit          3D

 13 13  0  0  0  0  0  0  0  0999 V2000
    2.9226   18.0731   39.6370 N   0  0  0  0  0  0  0  0  0  0  0  0
    3.3884   18.7859   38.5924 C   0  0  0  0  0  0  0  0  0  0  0  0
    2.8790   20.0453   38.3291 C   0  0  0  0  0  0  0  0  0  0  0  0
    1.8931   20.6071   39.1124 C   0  0  0  0  0  0  0  0  0  0  0  0
    1.4425   19.8276   40.1850 C   0  0  0  0  0  0  0  0  0  0  0  0
    1.9621   18.5718   40.4337 C   0  0  0  0  0  0  0  0  0  0  0  0
    3.3768   20.8239   37.2012 C   0  0  0  0  0  0  0  0  0  0  0  0
    4.3668   20.3552   36.3488 O   0  0  0  0  0  0  0  0  0  0  0  0
    2.8583   21.9764   37.0223 O   0  0  0  0  0  0  0  0  0  0  0  0
    4.1679   18.4129   37.9239 H   0  0  0  0  0  0  0  0  0  0  0  0
    1.4741   21.5925   38.9307 H   0  0  0  0  0  0  0  0  0  0  0  0
    0.6694   20.2402   40.8185 H   0  0  0  0  0  0  0  0  0  0  0  0
    1.6220   17.9594   41.2598 H   0  0  0  0  0  0  0  0  0  0  0  0
  1  2  1  0
  1  6  2  0
  2  3  2  0
  3  4  1  0
  3  7  1  0
  4  5  2  0
  5  6  1  0
  7  8  1  0
  7  9  2  0
  2 10  1  0
  4 11  1  0
  5 12  1  0
  6 13  1  0
M  CHG  1   8  -1
M  END
>  <mol_id>  (18) 
2026-09-18-3war-s0-n100-r1-0018

>  <rmsd_to_ref>  (18) 
1.2346938775524166

>  <pose_kind>  (18) 
conformer

$$$$
3war.A
     RDKit          3D

 13 13  0  0  0  0  0  0  0  0999 V2000
    2.3879   19.6053   40.7632 N   0  0  0  0  0  0  0  0  0  0  0  0
    2.3009   18.9835   39.4944 C   0  0  0  0  0  0  0  0  0  0  0  0
    1.7700   19.7736   38.4113 C   0  0  0  0  0  0  0  0  0  0  0  0
    1.3430   21.0720   38.6255 C   0  0  0  0  0  0  0  0  0  0  0  0
    1.4715   21.6454   39.8716 C   0  0  0  0  0  0  0  0  0  0  0  0
    1.9587   20.8981   40.9204 C   0  0  0  0  0  0  0  0  0  0  0  0
    1.5593   19.1392   37.0446 C   0  0  0  0  0  0  0  0  0  0  0  0
    2.0904   18.0131   36.8154 O   0  0  0  0  0  0  0  0  0  0  0  0
    0.8735   19.7883   36.2847 O   0  0  0  0  0  0  0  0  0  0  0  0
    2.6241   17.9432   39.3415 H   0  0  0  0  0  0  0  0  0  0  0  0
    0.9001   21.6476   37.7994 H   0  0  0  0  0  0  0  0  0  0  0  0
    1.1860   22.6961   40.0280 H   0  0  0  0  0  0  0  0  0  0  0  0
    2.0052   21.3545   41.9202 H   0  0  0  0  0  0  0  0  0  0  0  0
  1  2  1  0
  1  6  2  0
  2  3  2  0
  3  4  1  0
  3  7  1  0
  4  5  2  0
  5  6  1  0
  7  8  1  0
  7  9  2  0
  2 10  1  0
  4 11  1  0
  5 12  1  0
  6 13  1  0
M  CHG  1   8  -1
M  END
>  <mol_id>  (19) 
2026-09-18-3war-s0-n100-r1-0019

>  <rmsd_to_ref>  (19) 
1.2806122448988901

>  <pose_kind>  (19) 
rigid

$$$$
3war.A
     RDKit          3D

 13 13  0  0  0  0  0  0  0  0999 V2000
    1.7582   18.0039   39.2042 N   0  0  0  0  0  0  0  0  0  0  0  0
    2.2390   18.7448   38.1769 C   0  0  0  0  0  0  0  0  0  0  0  0
    2.1171   20.1261   38.1764 C   0  0  0  0  0  0  0  0  0  0  0  0
    1.4989   20.7627   39.2328 C   0  0  0  0  0  0  0  0  0  0  0  0
    1.0247   19.9588   40.2581 C   0  0  0  0  0  0  0  0  0  0  0  0
    1.1510   18.5878   40.2486 C   0  0  0  0  0  0  0  0  0  0  0  0
    2.6318   20.9340   37.0744 C   0  0  0  0  0  0  0  0  0  0  0  0
    3.2610   20.4064   35.9791 O   0  0  0  0  0  0  0  0  0  0  0  0
    2.4763   22.1848   37.1588 O   0  0  0  0  0  0  0  0  0  0  0  0
    2.7313   18.2603   37.3319 H   0  0  0  0  0  0  0  0  0  0  0  0
    1.3919   21.8346   39.2558 H   0  0  0  0  0  0  0  0  0  0  0  0
    0.5407   20.4905   41.0796 H   0  0  0  0  0  0  0  0  0  0  0  0
    0.7551   18.0009   41.0907 H   0  0  0  0  0  0  0  0  0  0  0  0
  1  2  1  0
  1  6  2  0
  2  3  2  0
  3  4  1  0
  3  7  1  0
  4  5  2  0
  5  6  1  0
  7  8  1  0
  7  9  2  0
  2 10  1  0
  4 11  1  0
  5 12  1  0
  6 13  1  0
M  CHG  1   8  -1
M  END
>  <mol_id>  (20) 
2026-09-18-3war-s0-n100-r1-0020

>  <rmsd_to_ref>  (20) 
1.3265306122457148

>  <pose_kind>  (20) 
conformer

$$$$
3war.A
     RDKit          3D

 13 13  0  0  0  0  0  0  0  0999 V2000
    1.7199   18.4366   41.0391 N   0  0  0  0  0  0  0  0  0  0  0  0
    1.5450   18.6146   39.6456 C   0  0  0  0  0  0  0  0  0  0  0  0
    1.8104   19.9282   39.1133 C   0  0  0  0  0  0  0  0  0  0  0  0
    2.1916   20.9654   39.9457 C   0  0  0  0  0  0  0  0  0  0  0  0
    2.3754   20.7395   41.2922 C   0  0  0  0  0  0  0  0  0  0  0  0
    2.1077   19.4958   41.8189 C   0  0  0  0  0  0  0  0  0  0  0  0
    1.5509   20.2148   37.6418 C   0  0  0  0  0  0  0  0  0  0  0  0
    1.3552   19.2359   36.8633 O   0  0  0  0  0  0  0  0  0  0  0  0
    1.5464   21.3907   37.3474 O   0  0  0  0  0  0  0  0  0  0  0  0
    1.2209   17.7872   38.9974 H   0  0  0  0  0  0  0  0  0  0  0  0
    2.3484   21.9724   39.5317 H   0  0  0  0  0  0  0  0  0  0  0  0
    2.7345   21.5495   41.9441 H   0  0  0  0  0  0  0  0  0  0  0  0
    2.2086   19.3465   42.9041 H   0  0  0  0  0  0  0  0  0  0  0  0
  1  2  1  0
  1  6  2  0
  2  3  2  0
  3  4  1  0
  3  7  1  0
  4  5  2  0
  5  6  1  0
  7  8  1  0
  7  9  2  0
  2 10  1  0
  4 11  1  0
  5 12  1  0
  6 13  1  0
M  CHG  1   8  -1
M  END
>  <mol_id>  (21) 
2026-09-18-3war-s0-n100-r1-0021

>  <rmsd_to_ref>  (21) 
1.3724489795943284

>  <pose_kind>  (21) 
rigid

$$$$
3war.A
     RDKit          3D

 13 13  0  0  0  0  0  0  0  0999 V2000
    1.9431   19.5095   41.4117 N   0  0  0  0  0  0  0  0  0  0  0  0
    2.0068   18.7382   40.2948 C   0  0  0  0  0  0  0  0  0  0  0  0
    1.9455   19.3391   39.0518 C   0  0  0  0  0  0  0  0  0  0  0  0
    1.8211   20.7059   38.9140 C   0  0  0  0  0  0  0  0  0  0  0  0
    1.7576   21.4770   40.0580 C   0  0  0  0  0  0  0  0  0  0  0  0
    1.8199   20.8641   41.2949 C   0  0  0  0  0  0  0  0  0  0  0  0
    2.0132   18.5184   37.8485 C   0  0  0  0  0  0  0  0  0  0  0  0
    2.1395   17.1288   37.9554 O   0  0  0  0  0  0  0  0  0  0  0  0
    1.9577   19.0623   36.7146 O   0  0  0  0  0  0  0  0  0  0  0  0
    2.1043   17.6674   40.4057 H   0  0  0  0  0  0  0  0  0  0  0  0
    1.7753   21.1516   37.9201 H   0  0  0  0  0  0  0  0  0  0  0  0
    1.6598   22.5545   40.0081 H   0  0  0  0  0  0  0  0  0  0  0  0
    1.7766   21.3993   42.2316 H   0  0  0  0  0  0  0  0  0  0  0  0
  1  2  1  0
  1  6  2  0
  2  3  2  0
  3  4  1  0
  3  7  1  0
  4  5  2  0
  5  6  1  0
  7  8  1  0
  7  9  2  0
  2 10  1  0
  4 11  1  0
  5 12  1  0
  6 13  1  0
M  CHG  1   8  -1
M  END
>  <mol_id>  (22) 
2026-09-18-3war-s0-n100-r1-0022

>  <rmsd_to_ref>  (22) 
1.4183673469438305

>  <pose_kind>  (22) 
conformer

$$$$
3war.A
     RDKit          3D

 13 13  0  0  0  0  0  0  0  0999 V2000
    2.2181   19.6256   40.5177 N   0  0  0  0  0  0  0  0  0  0  0  0
    2.1966   18.7947   39.3718 C   0  0  0  0  0  0  0  0  0  0  0  0
    1.9340   19.4307   38.1046 C   0  0  0  0  0  0  0  0  0  0  0  0
    1.6884   20.7903   38.0326 C   0  0  0  0  0  0  0  0  0  0  0  0
    1.7460   21.5645   39.1707 C   0  0  0  0  0  0  0  0  0  0  0  0
    1.9766   20.9694   40.3907 C   0  0  0  0  0  0  0  0  0  0  0  0
    1.8017   18.5851   36.8467 C   0  0  0  0  0  0  0  0  0  0  0  0
    2.1777   17.3771   36.8912 O   0  0  0  0  0  0  0  0  0  0  0  0
    1.3249   19.1641   35.8945 O   0  0  0  0  0  0  0  0  0  0  0  0
    2.3724   17.7113   39.4449 H   0  0  0  0  0  0  0  0  0  0  0  0
    1.4468   21.2540   37.0648 H   0  0  0  0  0  0  0  0  0  0  0  0
    1.6083   22.6539   39.1050 H   0  0  0  0  0  0  0  0  0  0  0  0
    1.9669   21.5944   41.2959 H   0  0  0  0  0  0  0  0  0  0  0  0
  1  2  1  0
  1  6  2  0
  2  3  2  0
  3  4  1  0
  3  7  1  0
  4  5  2  0
  5  6  1  0
  7  8  1  0
  7  9  2  0
  2 10  1  0
  4 11  1  0
  5 12  1  0
  6 13  1  0
M  CHG  1   8  -1
M  END
>  <mol_id>  (23) 
2026-09-18-3war-s0-n100-r1-0023

>  <rmsd_to_ref>  (23) 
1.4642857142881718

>  <pose_kind>  (23) 
rigid

$$$$
3war.A
     RDKit          3D

 13 13  0  0  0  0  0  0  0  0999 V2000
    1.4467   19.2694   39.9464 N   0  0  0  0  0  0  0  0  0  0  0  0
    2.4300   18.7532   39.1891 C   0  0  0  0  0  0  0  0  0  0  0  0
    3.3496   19.6412   38.6681 C   0  0  0  0  0  0  0  0  0  0  0  0
    3.2681   20.9930   38.9097 C   0  0  0  0  0  0  0  0  0  0  0  0
    2.2235   21.4654   39.7039 C   0  0  0  0  0  0  0  0  0  0  0  0
    1.3038   20.5757   40.2247 C   0  0  0  0  0  0  0  0  0  0  0  0
    4.4303   19.1368   37.8444 C   0  0  0  0  0  0  0  0  0  0  0  0
    4.5508   17.7700   37.5734 O   0  0  0  0  0  0  0  0  0  0  0  0
    5.2879   19.9330   37.3542 O   0  0  0  0  0  0  0  0  0  0  0  0
    2.4660   17.6880   39.0184 H   0  0  0  0  0  0  0  0  0  0  0  0
    3.9829   21.6880   38.5055 H   0  0  0  0  0  0  0  0  0  0  0  0
    2.1746   22.5331   39.8839 H   0  0  0  0  0  0  0  0  0  0  0  0
    0.5052   20.9744   40.8369 H   0  0  0  0  0  0  0  0  0  0  0  0
  1  2  1  0
  1  6  2  0
  2  3  2  0
  3  4  1  0
  3  7  1  0
  4  5  2  0
  5  6  1  0
  7  8  1  0
  7  9  2  0
  2 10  1  0
  4 11  1  0
  5 12  1  0
  6 13  1  0
M  CHG  1   8  -1
M  END
>  <mol_id>  (24) 
2026-09-18-3war-s0-n100-r1-0024

>  <rmsd_to_ref>  (24) 
1.5102040816329276

>  <pose_kind>  (24) 
conformer

$$$$
3war.A
     RDKit          3D

 13 13  0  0  0  0  0  0  0  0999 V2000
    1.2300   18.3073   38.5077 N   0  0  0  0  0  0  0  0  0  0  0  0
    2.4104   18.6663   37.8136 C   0  0  0  0  0  0  0  0  0  0  0  0
    2.8904   20.0148   37.9886 C   0  0  0  0  0  0  0  0  0  0  0  0
    2.2004   20.9143   38.7817 C   0  0  0  0  0  0  0  0  0  0  0  0
    1.0704   20.5129   39.4599 C   0  0  0  0  0  0  0  0  0  0  0  0
    0.5887   19.2346   39.2882 C   0  0  0  0  0  0  0  0  0  0  0  0
    4.0980   20.4965   37.1983 C   0  0  0  0  0  0  0  0  0  0  0  0
    4.8095   19.6358   36.6021 O   0  0  0  0  0  0  0  0  0  0  0  0
    4.2634   21.6973   37.2071 O   0  0  0  0  0  0  0  0  0  0  0  0
    2.9383   17.9481   37.1689 H   0  0  0  0  0  0  0  0  0  0  0  0
    2.5548   21.9518   38.8709 H   0  0  0  0  0  0  0  0  0  0  0  0
    0.5550   21.2111   40.1358 H   0  0  0  0  0  0  0  0  0  0  0  0
   -0.3440   18.9468   39.7954 H   0  0  0  0  0  0  0  0  0  0  0  0
  1  2  1  0
  1  6  2  0
  2  3  2  0
  3  4  1  0
  3  7  1  0
  4  5  2  0
  5  6  1  0
  7  8  1  0
  7  9  2  0
  2 10  1  0
  4 11  1  0
  5 12  1  0
  6 13  1  0
M  CHG  1   8  -1
M  END
>  <mol_id>  (25) 
2026-09-18-3war-s0-n100-r1-0025

>  <rmsd_to_ref>  (25) 
1.5561224489830896

>  <pose_kind>  (25) 
rigid

$$$$
3war.A
     RDKit          3D

 13 13  0  0  0  0  0  0  0  0999 V2000
    0.6077   20.2198   39.8384 N   0  0  0  0  0  0  0  0  0  0  0  0
    1.5174   19.5344   39.1203 C   0  0  0  0  0  0  0  0  0  0  0  0
    2.3730   20.2178   38.2871 C   0  0  0  0  0  0  0  0  0  0  0  0
    2.3183   21.5746   38.1739 C   0  0  0  0  0  0  0  0  0  0  0  0
    1.3751   22.2498   38.9227 C   0  0  0  0  0  0  0  0  0  0  0  0
    0.5185   21.5590   39.7577 C   0  0  0  0  0  0  0  0  0  0  0  0
    3.3634   19.4445   37.5085 C   0  0  0  0  0  0  0  0  0  0  0  0
    4.2392   20.1231   36.6581 O   0  0  0  0  0  0  0  0  0  0  0  0
    3.4141   18.1716   37.6151 O   0  0  0  0  0  0  0  0  0  0  0  0
    1.5737   18.4568   39.1988 H   0  0  0  0  0  0  0  0  0  0  0  0
    3.0135   22.0636   37.5047 H   0  0  0  0  0  0  0  0  0  0  0  0
    1.3374   23.3449   38.8258 H   0  0  0  0  0  0  0  0  0  0  0  0
   -0.1920   22.1528   40.3117 H   0  0  0  0  0  0  0  0  0  0  0  0
  1  2  1  0
  1  6  2  0
  2  3  2  0
  3  4  1  0
  3  7  1  0
  4  5  2  0
  5  6  1  0
  7  8  1  0
  7  9  2  0
  2 10  1  0
  4 11  1  0
  5 12  1  0
  6 13  1  0
M  CHG  1   8  -1
M  END
>  <mol_id>  (26) 
2026-09-18-3war-s0-n100-r1-0026

>  <rmsd_to_ref>  (26) 
1.6020408163297897

>  <pose_kind>  (26) 
conformer

$$$$
3war.A
     RDKit          3D

 13 13  0  0  0  0  0  0  0  0999 V2000
    1.4184   18.3652   39.3240 N   0  0  0  0  0  0  0  0  0  0  0  0
    2.7642   18.3733   38.8848 C   0  0  0  0  0  0  0  0  0  0  0  0
    3.2742   19.6135   38.3545 C   0  0  0  0  0  0  0  0  0  0  0  0
    2.4624   20.7298   38.2603 C   0  0  0  0  0  0  0  0  0  0  0  0
    1.1663   20.6835   38.7249 C   0  0  0  0  0  0  0  0  0  0  0  0
    0.6587   19.5017   39.2164 C   0  0  0  0  0  0  0  0  0  0  0  0
    4.6805   19.6677   37.7766 C   0  0  0  0  0  0  0  0  0  0  0  0
    5.4630   18.6991   38.0052 O   0  0  0  0  0  0  0  0  0  0  0  0
    4.9224   20.6599   37.1237 O   0  0  0  0  0  0  0  0  0  0  0  0
    3.3932   17.4729   38.9454 H   0  0  0  0  0  0  0  0  0  0  0  0
    2.8526   21.6562   37.8135 H   0  0  0  0  0  0  0  0  0  0  0  0
    0.5394   21.5871   38.7034 H   0  0  0  0  0  0  0  0  0  0  0  0
   -0.3939   19.4681   39.5341 H   0  0  0  0  0  0  0  0  0  0  0  0
  1  2  1  0
  1  6  2  0
  2  3  2  0
  3  4  1  0
  3  7  1  0
  4  5  2  0
  5  6  1  0
  7  8  1  0
  7  9  2  0
  2 10  1  0
  4 11  1  0
  5 12  1  0
  6 13  1  0
M  CHG  1   8  -1
M  END
>  <mol_id>  (27) 
2026-09-18-3war-s0-n100-r1-0027

>  <rmsd_to_ref>  (27) 
1.647959183675491

>  <pose_kind>  (27) 
rigid

$$$$
3war.A
     RDKit          3D

 13 13  0  0  0  0  0  0  0  0999 V2000
    4.5368   18.7552   39.7756 N   0  0  0  0  0  0  0  0  0  0  0  0
    4.1305   19.0199   38.5179 C   0  0  0  0  0  0  0  0  0  0  0  0
    3.0836   19.8992   38.3220 C   0  0  0  0  0  0  0  0  0  0  0  0
    2.4946   20.4736   39.4430 C   0  0  0  0  0  0  0  0  0  0  0  0
    2.9393   20.1774   40.7194 C   0  0  0  0  0  0  0  0  0  0  0  0
    4.0008   19.2829   40.8723 C   0  0  0  0  0  0  0  0  0  0  0  0
    2.6211   20.2073   36.9960 C   0  0  0  0  0  0  0  0  0  0  0  0
    1.5737   21.0858   36.7818 O   0  0  0  0  0  0  0  0  0  0  0  0
    3.1655   19.6787   35.9963 O   0  0  0  0  0  0  0  0  0  0  0  0
    4.6076   18.5566   37.6409 H   0  0  0  0  0  0  0  0  0  0  0  0
    1.6628   21.1718   39.2806 H   0  0  0  0  0  0  0  0  0  0  0  0
    2.4857   20.6207   41.5976 H   0  0  0  0  0  0  0  0  0  0  0  0
    4.3262   19.0708   41.8774 H   0  0  0  0  0  0  0  0  0  0  0  0
  1  2  1  0
  1  6  2  0
  2  3  2  0
  3  4  1  0
  3  7  1  0
  4  5  2  0
  5  6  1  0
  7  8  1  0
  7  9  2  0
  2 10  1  0
  4 11  1  0
  5 12  1  0
  6 13  1  0
M  CHG  1   8  -1
M  END
>  <mol_id>  (28) 
2026-09-18-3war-s0-n100-r1-0028

>  <rmsd_to_ref>  (28) 
1.693877551024189

>  <pose_kind>  (28) 
conformer

$$$$
3war.A
     RDKit          3D

 13 13  0  0  0  0  0  0  0  0999 V2000
    1.4661   19.8860   39.8517 N   0  0  0  0  0  0  0  0  0  0  0  0
    2.6375   19.6197   39.1027 C   0  0  0  0  0  0  0  0  0  0  0  0
    2.5748   19.8526   37.6811 C   0  0  0  0  0  0  0  0  0  0  0  0
    1.4049   20.2908   37.0867 C   0  0  0  0  0  0  0  0  0  0  0  0
    0.2968   20.5627   37.8588 C   0  0  0  0  0  0  0  0  0  0  0  0
    0.3347   20.3273   39.2148 C   0  0  0  0  0  0  0  0  0  0  0  0
    3.7653   19.4970   36.8029 C   0  0  0  0  0  0  0  0  0  0  0  0
    4.8730   19.2477   37.3627 O   0  0  0  0  0  0  0  0  0  0  0  0
    3.5299   19.4761   35.6141 O   0  0  0  0  0  0  0  0  0  0  0  0
    3.5554   19.2512   39.5842 H   0  0  0  0  0  0  0  0  0  0  0  0
    1.3594   20.4224   35.9955 H   0  0  0  0  0  0  0  0  0  0  0  0
   -0.6147   20.9663   37.3937 H   0  0  0  0  0  0  0  0  0  0  0  0
   -0.5751   20.4995   39.8086 H   0  0  0  0  0  0  0  0  0  0  0  0
  1  2  1  0
  1  6  2  0
  2  3  2  0
  3  4  1  0
  3  7  1  0
  4  5  2  0
  5  6  1  0
  7  8  1  0
  7  9  2  0
  2 10  1  0
  4 11  1  0
  5 12  1  0
  6 13  1  0
M  CHG  1   8  -1
M  END
>  <mol_id>  (29) 
2026-09-18-3war-s0-n100-r1-0029

>  <rmsd_to_ref>  (29) 
1.7397959183679452

>  <pose_kind>  (29) 
rigid

$$$$
3war.A
     RDKit          3D

 13 13  0  0  0  0  0  0  0  0999 V2000
    1.9203   19.3106   40.4714 N   0  0  0  0  0  0  0  0  0  0  0  0
    3.1827   19.3381   39.9673 C   0  0  0  0  0  0  0  0  0  0  0  0
    3.4467   20.0967   38.8454 C   0  0  0  0  0  0  0  0  0  0  0  0
    2.4634   20.8325   38.2156 C   0  0  0  0  0  0  0  0  0  0  0  0
    1.1865   20.7820   38.7562 C   0  0  0  0  0  0  0  0  0  0  0  0
    0.9253   20.0148   39.8886 C   0  0  0  0  0  0  0  0  0  0  0  0
    4.7986   20.1230   38.3099 C   0  0  0  0  0  0  0  0  0  0  0  0
    5.8207   19.3967   38.9125 O   0  0  0  0  0  0  0  0  0  0  0  0
    5.0881   20.7983   37.2909 O   0  0  0  0  0  0  0  0  0  0  0  0
    3.9966   18.7730   40.4293 H   0  0  0  0  0  0  0  0  0  0  0  0
    2.6557   21.4388   37.3258 H   0  0  0  0  0  0  0  0  0  0  0  0
    0.3648   21.3290   38.3215 H   0  0  0  0  0  0  0  0  0  0  0  0
   -0.0547   19.9695   40.3122 H   0  0  0  0  0  0  0  0  0  0  0  0
  1  2  1  0
  1  6  2  0
  2  3  2  0
  3  4  1  0
  3  7  1  0
  4  5  2  0
  5  6  1  0
  7  8  1  0
  7  9  2  0
  2 10  1  0
  4 11  1  0
  5 12  1  0
  6 13  1  0
M  CHG  1   8  -1
M  END
>  <mol_id>  (30) 
2026-09-18-3war-s0-n100-r1-0030

>  <rmsd_to_ref>  (30) 
1.785714285716773

>  <pose_kind>  (30) 
conformer

$$$$
3war.A
     RDKit          3D

 13 13  0  0  0  0  0  0  0  0999 V2000
    3.0912   18.8029   40.4198 N   0  0  0  0  0  0  0  0  0  0  0  0
    2.5200   18.3580   39.2033 C   0  0  0  0  0  0  0  0  0  0  0  0
    1.4709   19.1683   38.6357 C   0  0  0  0  0  0  0  0  0  0  0  0
    1.0342   20.3128   39.2789 C   0  0  0  0  0  0  0  0  0  0  0  0
    1.6378   20.7221   40.4477 C   0  0  0  0  0  0  0  0  0  0  0  0
    2.6277   19.9494   41.0122 C   0  0  0  0  0  0  0  0  0  0  0  0
    0.7478   18.7001   37.3817 C   0  0  0  0  0  0  0  0  0  0  0  0
    1.2495   17.7456   36.7185 O   0  0  0  0  0  0  0  0  0  0  0  0
   -0.2773   19.2979   37.1346 O   0  0  0  0  0  0  0  0  0  0  0  0
    2.8615   17.4347   38.7125 H   0  0  0  0  0  0  0  0  0  0  0  0
    0.2036   20.8970   38.8562 H   0  0  0  0  0  0  0  0  0  0  0  0
    1.3301   21.6626   40.9280 H   0  0  0  0  0  0  0  0  0  0  0  0
    3.0623   20.2630   41.9729 H   0  0  0  0  0  0  0  0  0  0  0  0
  1  2  1  0
  1  6  2  0
  2  3  2  0
  3  4  1  0
  3  7  1  0
  4  5  2  0
  5  6  1  0
  7  8  1  0
  7  9  2  0
  2 10  1  0
  4 11  1  0
  5 12  1  0
  6 13  1  0
M  CHG  1   8  -1
M  END
>  <mol_id>  (31) 
2026-09-18-3war-s0-n100-r1-0031

>  <rmsd_to_ref>  (31) 
1.8316326530630227

>  <pose_kind>  (31) 
rigid

$$$$
3war.A
     RDKit          3D

 13 13  0  0  0  0  0  0  0  0999 V2000
    2.4249   20.6931   40.0886 N   0  0  0  0  0  0  0  0  0  0  0  0
    2.7018   19.6307   39.3414 C   0  0  0  0  0  0  0  0  0  0  0  0
    2.7269   19.7816   37.9517 C   0  0  0  0  0  0  0  0  0  0  0  0
    2.4589   21.0446   37.4172 C   0  0  0  0  0  0  0  0  0  0  0  0
    2.1779   22.1099   38.2451 C   0  0  0  0  0  0  0  0  0  0  0  0
    2.1676   21.9004   39.6054 C   0  0  0  0  0  0  0  0  0  0  0  0
    3.0278   18.6336   37.1040 C   0  0  0  0  0  0  0  0  0  0  0  0
    3.0425   18.8271   35.7279 O   0  0  0  0  0  0  0  0  0  0  0  0
    3.2669   17.4972   37.6304 O   0  0  0  0  0  0  0  0  0  0  0  0
    2.9087   18.6537   39.7614 H   0  0  0  0  0  0  0  0  0  0  0  0
    2.4805   21.1519   36.3422 H   0  0  0  0  0  0  0  0  0  0  0  0
    1.9787   23.0577   37.8009 H   0  0  0  0  0  0  0  0  0  0  0  0
    1.9400   22.7702   40.2391 H   0  0  0  0  0  0  0  0  0  0  0  0
  1  2  1  0
  1  6  2  0
  2  3  2  0
  3  4  1  0
  3  7  1  0
  4  5  2  0
  5  6  1  0
  7  8  1  0
  7  9  2  0
  2 10  1  0
  4 11  1  0
  5 12  1  0
  6 13  1  0
M  CHG  1   8  -1
M  END
>  <mol_id>  (32) 
2026-09-18-3war-s0-n100-r1-0032

>  <rmsd_to_ref>  (32) 
1.877551020410012

>  <pose_kind>  (32) 
conformer

$$$$
3war.A
     RDKit          3D

 13 13  0  0  0  0  0  0  0  0999 V2000
    1.5735   18.6311   39.1376 N   0  0  0  0  0  0  0  0  0  0  0  0
    2.8016   19.2144   38.7433 C   0  0  0  0  0  0  0  0  0  0  0  0
    2.7329   20.3806   37.8980 C   0  0  0  0  0  0  0  0  0  0  0  0
    1.5127   20.8786   37.4769 C   0  0  0  0  0  0  0  0  0  0  0  0
    0.3418   20.2944   37.9075 C   0  0  0  0  0  0  0  0  0  0  0  0
    0.3908   19.1690   38.6993 C   0  0  0  0  0  0  0  0  0  0  0  0
    4.0134   21.0008   37.3589 C   0  0  0  0  0  0  0  0  0  0  0  0
    5.1161   20.6422   37.8669 O   0  0  0  0  0  0  0  0  0  0  0  0
    3.8514   21.7972   36.4596 O   0  0  0  0  0  0  0  0  0  0  0  0
    3.7660   18.7964   39.0675 H   0  0  0  0  0  0  0  0  0  0  0  0
    1.4775   21.7426   36.7971 H   0  0  0  0  0  0  0  0  0  0  0  0
   -0.6286   20.7253   37.6199 H   0  0  0  0  0  0  0  0  0  0  0  0
   -0.5526   18.6840   38.9906 H   0  0  0  0  0  0  0  0  0  0  0  0
  1  2  1  0
  1  6  2  0
  2  3  2  0
  3  4  1  0
  3  7  1  0
  4  5  2  0
  5  6  1  0
  7  8  1  0
  7  9  2  0
  2 10  1  0
  4 11  1  0
  5 12  1  0
  6 13  1  0
M  CHG  1   8  -1
M  END
>  <mol_id>  (33) 
2026-09-18-3war-s0-n100-r1-0033

>  <rmsd_to_ref>  (33) 
1.923469387758531

>  <pose_kind>  (33) 
rigid

$$$$
3war.A
     RDKit          3D

 13 13  0  0  0  0  0  0  0  0999 V2000
    1.4140   17.6950   38.1412 N   0  0  0  0  0  0  0  0  0  0  0  0
    2.2677   18.6138   37.6571 C   0  0  0  0  0  0  0  0  0  0  0  0
    2.0684   19.9363   37.9323 C   0  0  0  0  0  0  0  0  0  0  0  0
    1.0043   20.3188   38.6971 C   0  0  0  0  0  0  0  0  0  0  0  0
    0.1087   19.3886   39.2086 C   0  0  0  0  0  0  0  0  0  0  0  0
    0.3561   18.0482   38.8987 C   0  0  0  0  0  0  0  0  0  0  0  0
    2.9854   20.9327   37.4133 C   0  0  0  0  0  0  0  0  0  0  0  0
    4.0825   20.5423   36.6252 O   0  0  0  0  0  0  0  0  0  0  0  0
    2.8443   22.1625   37.6391 O   0  0  0  0  0  0  0  0  0  0  0  0
    3.0873   18.2861   37.0645 H   0  0  0  0  0  0  0  0  0  0  0  0
    0.8426   21.3626   38.9174 H   0  0  0  0  0  0  0  0  0  0  0  0
   -0.7278   19.6930   39.8101 H   0  0  0  0  0  0  0  0  0  0  0  0
   -0.3454   17.3251   39.2999 H   0  0  0  0  0  0  0  0  0  0  0  0
  1  2  1  0
  1  6  2  0
  2  3  2  0
  3  4  1  0
  3  7  1  0
  4  5  2  0
  5  6  1  0
  7  8  1  0
  7  9  2  0
  2 10  1  0
  4 11  1  0
  5 12  1  0
  6 13  1  0
M  CHG  1   8  -1
M  END
>  <mol_id>  (34) 
2026-09-18-3war-s0-n100-r1-0034

>  <rmsd_to_ref>  (34) 
1.9693877551038217

>  <pose_kind>  (34) 
conformer

$$$$
3war.A
     RDKit          3D

 13 13  0  0  0  0  0  0  0  0999 V2000
    1.8876   17.0698   38.4358 N   0  0  0  0  0  0  0  0  0  0  0  0
    3.0018   17.8039   37.9627 C   0  0  0  0  0  0  0  0  0  0  0  0
    3.1983   19.1238   38.5091 C   0  0  0  0  0  0  0  0  0  0  0  0
    2.3117   19.6460   39.4340 C   0  0  0  0  0  0  0  0  0  0  0  0
    1.2559   18.8851   39.8859 C   0  0  0  0  0  0  0  0  0  0  0  0
    1.0438   17.6304   39.3599 C   0  0  0  0  0  0  0  0  0  0  0  0
    4.3188   20.0041   37.9762 C   0  0  0  0  0  0  0  0  0  0  0  0
    5.2107   19.4713   37.2528 O   0  0  0  0  0  0  0  0  0  0  0  0
    4.2433   21.1706   38.2970 O   0  0  0  0  0  0  0  0  0  0  0  0
    3.6876   17.3857   37.2112 H   0  0  0  0  0  0  0  0  0  0  0  0
    2.4501   20.6707   39.8093 H   0  0  0  0  0  0  0  0  0  0  0  0
    0.5850   19.2783   40.6639 H   0  0  0  0  0  0  0  0  0  0  0  0
    0.1659   17.0573   39.6930 H   0  0  0  0  0  0  0  0  0  0  0  0
  1  2  1  0
  1  6  2  0
  2  3  2  0
  3  4  1  0
  3  7  1  0
  4  5  2  0
  5  6  1  0
  7  8  1  0
  7  9  2  0
  2 10  1  0
  4 11  1  0
  5 12  1  0
  6 13  1  0
M  CHG  1   8  -1
M  END
>  <mol_id>  (35) 
2026-09-18-3war-s0-n100-r1-0035

>  <rmsd_to_ref>  (35) 
2.0153061224521247

>  <pose_kind>  (35) 
rigid

$$$$
3war.A
     RDKit          3D

 13 13  0  0  0  0  0  0  0  0999 V2000
    0.6987   19.9605   40.1063 N   0  0  0  0  0  0  0  0  0  0  0  0
    0.7769   18.9769   39.1781 C   0  0  0  0  0  0  0  0  0  0  0  0
    1.5479   19.1665   38.0483 C   0  0  0  0  0  0  0  0  0  0  0  0
    2.2395   20.3453   37.8532 C   0  0  0  0  0  0  0  0  0  0  0  0
    2.1239   21.3208   38.8373 C   0  0  0  0  0  0  0  0  0  0  0  0
    1.3525   21.1271   39.9645 C   0  0  0  0  0  0  0  0  0  0  0  0
    1.6646   18.1377   37.0192 C   0  0  0  0  0  0  0  0  0  0  0  0
    1.0106   16.9154   37.1162 O   0  0  0  0  0  0  0  0  0  0  0  0
    2.3869   18.3860   36.0182 O   0  0  0  0  0  0  0  0  0  0  0  0
    0.2550   18.0372   39.2845 H   0  0  0  0  0  0  0  0  0  0  0  0
    2.8446   20.5365   37.0011 H   0  0  0  0  0  0  0  0  0  0  0  0
    2.6543   22.2657   38.7209 H   0  0  0  0  0  0  0  0  0  0  0  0
    1.2992   21.9271   40.7023 H   0  0  0  0  0  0  0  0  0  0  0  0
  1  2  1  0
  1  6  2  0
  2  3  2  0
  3  4  1  0
  3  7  1  0
  4  5  2  0
  5  6  1  0
  7  8  1  0
  7  9  2  0
  2 10  1  0
  4 11  1  0
  5 12  1  0
  6 13  1  0
M  CHG  1   8  -1
M  END
>  <mol_id>  (36) 
2026-09-18-3war-s0-n100-r1-0036

>  <rmsd_to_ref>  (36) 
2.061224489796072

>  <pose_kind>  (36) 
conformer

$$$$
3war.A
     RDKit          3D

 13 13  0  0  0  0  0  0  0  0999 V2000
    2.2088   18.2547   39.4101 N   0  0  0  0  0  0  0  0  0  0  0  0
    2.7514   19.2024   38.5092 C   0  0  0  0  0  0  0  0  0  0  0  0
    1.8602   19.7492   37.5162 C   0  0  0  0  0  0  0  0  0  0  0  0
    0.5423   19.3345   37.4429 C   0  0  0  0  0  0  0  0  0  0  0  0
    0.0504   18.4294   38.3578 C   0  0  0  0  0  0  0  0  0  0  0  0
    0.8933   17.8839   39.2999 C   0  0  0  0  0  0  0  0  0  0  0  0
    2.3990   20.6994   36.4572 C   0  0  0  0  0  0  0  0  0  0  0  0
    3.5539   21.1911   36.6213 O   0  0  0  0  0  0  0  0  0  0  0  0
    1.6516   20.8936   35.5229 O   0  0  0  0  0  0  0  0  0  0  0  0
    3.8066   19.5083   38.5643 H   0  0  0  0  0  0  0  0  0  0  0  0
   -0.1140   19.7281   36.6527 H   0  0  0  0  0  0  0  0  0  0  0  0
   -1.0116   18.1438   38.3356 H   0  0  0  0  0  0  0  0  0  0  0  0
    0.4972   17.1234   39.9889 H   0  0  0  0  0  0  0  0  0  0  0  0
  1  2  1  0
  1  6  2  0
  2  3  2  0
  3  4  1  0
  3  7  1  0
  4  5  2  0
  5  6  1  0
  7  8  1  0
  7  9  2  0
  2 10  1  0
  4 11  1  0
  5 12  1  0
  6 13  1  0
M  CHG  1   8  -1
M  END
>  <mol_id>  (37) 
2026-09-18-3war-s0-n100-r1-0037

>  <rmsd_to_ref>  (37) 
2.107142857145177

>  <pose_kind>  (37) 
rigid

$$$$
3war.A
     RDKit          3D

 13 13  0  0  0  0  0  0  0  0999 V2000
    1.6791   20.7386   41.3220 N   0  0  0  0  0  0  0  0  0  0  0  0
    1.4330   19.7301   40.4628 C   0  0  0  0  0  0  0  0  0  0  0  0
    1.4626   19.9572   39.1007 C   0  0  0  0  0  0  0  0  0  0  0  0
    1.7437   21.2137   38.6274 C   0  0  0  0  0  0  0  0  0  0  0  0
    1.9976   22.2526   39.5301 C   0  0  0  0  0  0  0  0  0  0  0  0
    1.9614   21.9972   40.8893 C   0  0  0  0  0  0  0  0  0  0  0  0
    1.1957   18.8623   38.1840 C   0  0  0  0  0  0  0  0  0  0  0  0
    0.9113   17.5910   38.6664 O   0  0  0  0  0  0  0  0  0  0  0  0
    1.2183   19.0505   36.9389 O   0  0  0  0  0  0  0  0  0  0  0  0
    1.2058   18.7176   40.8031 H   0  0  0  0  0  0  0  0  0  0  0  0
    1.7725   21.4164   37.5493 H   0  0  0  0  0  0  0  0  0  0  0  0
    2.2216   23.2496   39.2150 H   0  0  0  0  0  0  0  0  0  0  0  0
    2.1561   22.7919   41.6096 H   0  0  0  0  0  0  0  0  0  0  0  0
  1  2  1  0
  1  6  2  0
  2  3  2  0
  3  4  1  0
  3  7  1  0
  4  5  2  0
  5  6  1  0
  7  8  1  0
  7  9  2  0
  2 10  1  0
  4 11  1  0
  5 12  1  0
  6 13  1  0
M  CHG  1   8  -1
M  END
>  <mol_id>  (38) 
2026-09-18-3war-s0-n100-r1-0038

>  <rmsd_to_ref>  (38) 
2.1530612244905774

>  <pose_kind>  (38) 
conformer

$$$$
3war.A
     RDKit          3D

 13 13  0  0  0  0  0  0  0  0999 V2000
    0.8023   17.7422   40.2115 N   0  0  0  0  0  0  0  0  0  0  0  0
    2.2161   17.7845   40.1528 C   0  0  0  0  0  0  0  0  0  0  0  0
    2.8097   18.8549   39.3904 C   0  0  0  0  0  0  0  0  0  0  0  0
    2.0176   19.7760   38.7283 C   0  0  0  0  0  0  0  0  0  0  0  0
    0.6456   19.7117   38.8356 C   0  0  0  0  0  0  0  0  0  0  0  0
    0.0632   18.6847   39.5439 C   0  0  0  0  0  0  0  0  0  0  0  0
    4.3190   18.9057   39.2059 C   0  0  0  0  0  0  0  0  0  0  0  0
    5.0398   18.1617   39.9336 O   0  0  0  0  0  0  0  0  0  0  0  0
    4.6992   19.6706   38.3459 O   0  0  0  0  0  0  0  0  0  0  0  0
    2.8348   17.0337   40.6662 H   0  0  0  0  0  0  0  0  0  0  0  0
    2.4842   20.5611   38.1152 H   0  0  0  0  0  0  0  0  0  0  0  0
    0.0179   20.4779   38.3571 H   0  0  0  0  0  0  0  0  0  0  0  0
   -1.0343   18.6179   39.5755 H   0  0  0  0  0  0  0  0  0  0  0  0
  1  2  1  0
  1  6  2  0
  2  3  2  0
  3  4  1  0
  3  7  1  0
  4  5  2  0
  5  6  1  0
  7  8  1  0
  7  9  2  0
  2 10  1  0
  4 11  1  0
  5 12  1  0
  6 13  1  0
M  CHG  1   8  -1
M  END
>  <mol_id>  (39) 
2026-09-18-3war-s0-n100-r1-0039

>  <rmsd_to_ref>  (39) 
2.198979591839882

>  <pose_kind>  (39) 
rigid

$$$$
3war.A
     RDKit          3D

 13 13  0  0  0  0  0  0  0  0999 V2000
    0.4458   19.6654   38.9119 N   0  0  0  0  0  0  0  0  0  0  0  0
    1.7225   19.2647   38.7528 C   0  0  0  0  0  0  0  0  0  0  0  0
    2.4824   19.8230   37.7488 C   0  0  0  0  0  0  0  0  0  0  0  0
    1.9798   20.7765   36.9032 C   0  0  0  0  0  0  0  0  0  0  0  0
    0.6572   21.1632   37.1004 C   0  0  0  0  0  0  0  0  0  0  0  0
   -0.1118   20.5988   38.1158 C   0  0  0  0  0  0  0  0  0  0  0  0
    3.8765   19.3955   37.5637 C   0  0  0  0  0  0  0  0  0  0  0  0
    4.4162   18.4160   38.4210 O   0  0  0  0  0  0  0  0  0  0  0  0
    4.5646   19.9079   36.6468 O   0  0  0  0  0  0  0  0  0  0  0  0
    2.1036   18.5098   39.4303 H   0  0  0  0  0  0  0  0  0  0  0  0
    2.5823   21.2262   36.0992 H   0  0  0  0  0  0  0  0  0  0  0  0
    0.2019   21.9154   36.4618 H   0  0  0  0  0  0  0  0  0  0  0  0
   -1.1572   20.9151   38.2595 H   0  0  0  0  0  0  0  0  0  0  0  0
  1  2  1  0
  1  6  2  0
  2  3  2  0
  3  4  1  0
  3  7  1  0
  4  5  2  0
  5  6  1  0
  7  8  1  0
  7  9  2  0
  2 10  1  0
  4 11  1  0
  5 12  1  0
  6 13  1  0
M  CHG  1   8  -1
M  END
>  <mol_id>  (40) 
2026-09-18-3war-s0-n100-r1-0040

>  <rmsd_to_ref>  (40) 
2.244897959188519

>  <pose_kind>  (40) 
conformer

$$$$
3war.A
     RDKit          3D

 13 13  0  0  0  0  0  0  0  0999 V2000
    1.5231   18.1818   39.2854 N   0  0  0  0  0  0  0  0  0  0  0  0
    2.7227   18.4732   38.5925 C   0  0  0  0  0  0  0  0  0  0  0  0
    3.7743   19.1150   39.3419 C   0  0  0  0  0  0  0  0  0  0  0  0
    3.5926   19.4498   40.6720 C   0  0  0  0  0  0  0  0  0  0  0  0
    2.4178   19.1227   41.3130 C   0  0  0  0  0  0  0  0  0  0  0  0
    1.3971   18.5271   40.6065 C   0  0  0  0  0  0  0  0  0  0  0  0
    5.0529   19.5429   38.6370 C   0  0  0  0  0  0  0  0  0  0  0  0
    5.2753   19.0996   37.4723 O   0  0  0  0  0  0  0  0  0  0  0  0
    5.7542   20.2990   39.2740 O   0  0  0  0  0  0  0  0  0  0  0  0
    2.8472   18.2210   37.5291 H   0  0  0  0  0  0  0  0  0  0  0  0
    4.3876   19.9781   41.2186 H   0  0  0  0  0  0  0  0  0  0  0  0
    2.2958   19.3366   42.3851 H   0  0  0  0  0  0  0  0  0  0  0  0
    0.4466   18.3208   41.1203 H   0  0  0  0  0  0  0  0  0  0  0  0
  1  2  1  0
  1  6  2  0
  2  3  2  0
  3  4  1  0
  3  7  1  0
  4  5  2  0
  5  6  1  0
  7  8  1  0
  7  9  2  0
  2 10  1  0
  4 11  1  0
  5 12  1  0
  6 13  1  0
M  CHG  1   8  -1
M  END
>  <mol_id>  (41) 
2026-09-18-3war-s0-n100-r1-0041

>  <rmsd_to_ref>  (41) 
2.2908163265333465

>  <pose_kind>  (41) 
rigid

$$$$
3war.A
     RDKit          3D

 13 13  0  0  0  0  0  0  0  0999 V2000
    2.8536   18.9603   39.8495 N   0  0  0  0  0  0  0  0  0  0  0  0
    2.3722   18.7301   38.6121 C   0  0  0  0  0  0  0  0  0  0  0  0
    3.1043   19.1378   37.5190 C   0  0  0  0  0  0  0  0  0  0  0  0
    4.3113   19.7725   37.6500 C   0  0  0  0  0  0  0  0  0  0  0  0
    4.7738   19.9916   38.9445 C   0  0  0  0  0  0  0  0  0  0  0  0
    4.0335   19.5793   40.0505 C   0  0  0  0  0  0  0  0  0  0  0  0
    2.5914   18.8933   36.1634 C   0  0  0  0  0  0  0  0  0  0  0  0
    1.3521   18.2422   36.0029 O   0  0  0  0  0  0  0  0  0  0  0  0
    3.2632   19.2672   35.1706 O   0  0  0  0  0  0  0  0  0  0  0  0
    1.4162   18.2270   38.5271 H   0  0  0  0  0  0  0  0  0  0  0  0
    4.9009   20.1006   36.7802 H   0  0  0  0  0  0  0  0  0  0  0  0
    5.7245   20.4902   39.1132 H   0  0  0  0  0  0  0  0  0  0  0  0
    4.4127   19.7597   41.0689 H   0  0  0  0  0  0  0  0  0  0  0  0
  1  2  1  0
  1  6  2  0
  2  3  2  0
  3  4  1  0
  3  7  1  0
  4  5  2  0
  5  6  1  0
  7  8  1  0
  7  9  2  0
  2 10  1  0
  4 11  1  0
  5 12  1  0
  6 13  1  0
M  CHG  1   8  -1
M  END
>  <mol_id>  (42) 
2026-09-18-3war-s0-n100-r1-0042

>  <rmsd_to_ref>  (42) 
2.336734693879081

>  <pose_kind>  (42) 
conformer

$$$$
3war.A
     RDKit          3D

 13 13  0  0  0  0  0  0  0  0999 V2000
    2.5778   18.4906   38.9744 N   0  0  0  0  0  0  0  0  0  0  0  0
    1.6650   18.8369   37.9493 C   0  0  0  0  0  0  0  0  0  0  0  0
    1.6495   20.2140   37.5218 C   0  0  0  0  0  0  0  0  0  0  0  0
    2.4773   21.1491   38.1170 C   0  0  0  0  0  0  0  0  0  0  0  0
    3.3691   20.7614   39.0929 C   0  0  0  0  0  0  0  0  0  0  0  0
    3.3828   19.4543   39.5254 C   0  0  0  0  0  0  0  0  0  0  0  0
    0.6280   20.6753   36.4929 C   0  0  0  0  0  0  0  0  0  0  0  0
   -0.0132   19.7965   35.8454 O   0  0  0  0  0  0  0  0  0  0  0  0
    0.5149   21.8781   36.3949 O   0  0  0  0  0  0  0  0  0  0  0  0
    0.9968   18.0883   37.4986 H   0  0  0  0  0  0  0  0  0  0  0  0
    2.4234   22.2041   37.8105 H   0  0  0  0  0  0  0  0  0  0  0  0
    4.0675   21.4932   39.5249 H   0  0  0  0  0  0  0  0  0  0  0  0
    4.0639   19.1730   40.3421 H   0  0  0  0  0  0  0  0  0  0  0  0
  1  2  1  0
  1  6  2  0
  2  3  2  0
  3  4  1  0
  3  7  1  0
  4  5  2  0
  5  6  1  0
  7  8  1  0
  7  9  2  0
  2 10  1  0
  4 11  1  0
  5 12  1  0
  6 13  1  0
M  CHG  1   8  -1
M  END
>  <mol_id>  (43) 
2026-09-18-3war-s0-n100-r1-0043

>  <rmsd_to_ref>  (43) 
2.382653061226491

>  <pose_kind>  (43) 
rigid

$$$$
3war.A
     RDKit          3D

 13 13  0  0  0  0  0  0  0  0999 V2000
    2.0389   20.6140   41.9595 N   0  0  0  0  0  0  0  0  0  0  0  0
    1.8563   19.5087   41.2106 C   0  0  0  0  0  0  0  0  0  0  0  0
    2.3426   19.4592   39.9159 C   0  0  0  0  0  0  0  0  0  0  0  0
    3.0200   20.5209   39.3547 C   0  0  0  0  0  0  0  0  0  0  0  0
    3.1840   21.6458   40.1724 C   0  0  0  0  0  0  0  0  0  0  0  0
    2.6921   21.6785   41.4631 C   0  0  0  0  0  0  0  0  0  0  0  0
    2.1499   18.2675   39.0981 C   0  0  0  0  0  0  0  0  0  0  0  0
    1.4830   17.1423   39.5628 O   0  0  0  0  0  0  0  0  0  0  0  0
    2.6266   18.2968   37.9145 O   0  0  0  0  0  0  0  0  0  0  0  0
    1.3307   18.6252   41.5805 H   0  0  0  0  0  0  0  0  0  0  0  0
    3.4129   20.5114   38.3422 H   0  0  0  0  0  0  0  0  0  0  0  0
    3.7113   22.4956   39.7613 H   0  0  0  0  0  0  0  0  0  0  0  0
    2.8125   22.5423   42.1052 H   0  0  0  0  0  0  0  0  0  0  0  0
  1  2  1  0
  1  6  2  0
  2  3  2  0
  3  4  1  0
  3  7  1  0
  4  5  2  0
  5  6  1  0
  7  8  1  0
  7  9  2  0
  2 10  1  0
  4 11  1  0
  5 12  1  0
  6 13  1  0
M  CHG  1   8  -1
M  END
>  <mol_id>  (44) 
2026-09-18-3war-s0-n100-r1-0044

>  <rmsd_to_ref>  (44) 
2.4285714285762015

>  <pose_kind>  (44) 
conformer

$$$$
3war.A
     RDKit          3D

 13 13  0  0  0  0  0  0  0  0999 V2000
   -0.0176   21.2044   40.0706 N   0  0  0  0  0  0  0  0  0  0  0  0
    1.2953   20.6940   39.9297 C   0  0  0  0  0  0  0  0  0  0  0  0
    1.8530   20.6747   38.6001 C   0  0  0  0  0  0  0  0  0  0  0  0
    1.1136   21.1137   37.5162 C   0  0  0  0  0  0  0  0  0  0  0  0
   -0.1508   21.6273   37.7041 C   0  0  0  0  0  0  0  0  0  0  0  0
   -0.7046   21.6350   38.9647 C   0  0  0  0  0  0  0  0  0  0  0  0
    3.2206   20.0520   38.3622 C   0  0  0  0  0  0  0  0  0  0  0  0
    3.9491   19.7980   39.3658 O   0  0  0  0  0  0  0  0  0  0  0  0
    3.4868   19.8429   37.1983 O   0  0  0  0  0  0  0  0  0  0  0  0
    1.8651   20.3282   40.7966 H   0  0  0  0  0  0  0  0  0  0  0  0
    1.5362   21.0524   36.5024 H   0  0  0  0  0  0  0  0  0  0  0  0
   -0.7158   22.0298   36.8504 H   0  0  0  0  0  0  0  0  0  0  0  0
   -1.7349   21.9996   39.0891 H   0  0  0  0  0  0  0  0  0  0  0  0
  1  2  1  0
  1  6  2  0
  2  3  2  0
  3  4  1  0
  3  7  1  0
  4  5  2  0
  5  6  1  0
  7  8  1  0
  7  9  2  0
  2 10  1  0
  4 11  1  0
  5 12  1  0
  6 13  1  0
M  CHG  1   8  -1
M  END
>  <mol_id>  (45) 
2026-09-18-3war-s0-n100-r1-0045

>  <rmsd_to_ref>  (45) 
2.4744897959216066

>  <pose_kind>  (45) 
rigid

$$$$
3war.A
     RDKit          3D

 13 13  0  0  0  0  0  0  0  0999 V2000
    1.5836   21.5446   39.1064 N   0  0  0  0  0  0  0  0  0  0  0  0
    2.2394   21.5704   37.9138 C   0  0  0  0  0  0  0  0  0  0  0  0
    3.5814   21.2724   37.8059 C   0  0  0  0  0  0  0  0  0  0  0  0
    4.3013   20.9326   38.9438 C   0  0  0  0  0  0  0  0  0  0  0  0
    3.6216   20.9093   40.1572 C   0  0  0  0  0  0  0  0  0  0  0  0
    2.2722   21.2136   40.2352 C   0  0  0  0  0  0  0  0  0  0  0  0
    4.2422   21.3141   36.4998 C   0  0  0  0  0  0  0  0  0  0  0  0
    5.5942   21.0102   36.4144 O   0  0  0  0  0  0  0  0  0  0  0  0
    3.5620   21.6282   35.4709 O   0  0  0  0  0  0  0  0  0  0  0  0
    1.7073   21.8332   36.9951 H   0  0  0  0  0  0  0  0  0  0  0  0
    5.3518   20.7002   38.8539 H   0  0  0  0  0  0  0  0  0  0  0  0
    4.1433   20.6532   41.0479 H   0  0  0  0  0  0  0  0  0  0  0  0
    1.7695   21.1844   41.2119 H   0  0  0  0  0  0  0  0  0  0  0  0
  1  2  1  0
  1  6  2  0
  2  3  2  0
  3  4  1  0
  3  7  1  0
  4  5  2  0
  5  6  1  0
  7  8  1  0
  7  9  2  0
  2 10  1  0
  4 11  1  0
  5 12  1  0
  6 13  1  0
M  CHG  1   8  -1
M  END
>  <mol_id>  (46) 
2026-09-18-3war-s0-n100-r1-0046

>  <rmsd_to_ref>  (46) 
2.5204081632669904

>  <pose_kind>  (46) 
conformer

$$$$
3war.A
     RDKit          3D

 13 13  0  0  0  0  0  0  0  0999 V2000
    3.5299   19.9854   39.7773 N   0  0  0  0  0  0  0  0  0  0  0  0
    2.6565   19.5741   38.7419 C   0  0  0  0  0  0  0  0  0  0  0  0
    2.9804   19.9988   37.4025 C   0  0  0  0  0  0  0  0  0  0  0  0
    4.0847   20.7963   37.1605 C   0  0  0  0  0  0  0  0  0  0  0  0
    4.9220   21.1503   38.1957 C   0  0  0  0  0  0  0  0  0  0  0  0
    4.6161   20.7688   39.4828 C   0  0  0  0  0  0  0  0  0  0  0  0
    2.0343   19.6738   36.2562 C   0  0  0  0  0  0  0  0  0  0  0  0
    1.1192   18.8217   36.4541 O   0  0  0  0  0  0  0  0  0  0  0  0
    2.2475   20.2882   35.2333 O   0  0  0  0  0  0  0  0  0  0  0  0
    1.7696   18.9575   38.9501 H   0  0  0  0  0  0  0  0  0  0  0  0
    4.2946   21.1484   36.1398 H   0  0  0  0  0  0  0  0  0  0  0  0
    5.8315   21.7355   37.9947 H   0  0  0  0  0  0  0  0  0  0  0  0
    5.2663   21.1044   40.3041 H   0  0  0  0  0  0  0  0  0  0  0  0
  1  2  1  0
  1  6  2  0
  2  3  2  0
  3  4  1  0
  3  7  1  0
  4  5  2  0
  5  6  1  0
  7  8  1  0
  7  9  2  0
  2 10  1  0
  4 11  1  0
  5 12  1  0
  6 13  1  0
M  CHG  1   8  -1
M  END
>  <mol_id>  (47) 
2026-09-18-3war-s0-n100-r1-0047

>  <rmsd_to_ref>  (47) 
2.566326530615155

>  <pose_kind>  (47) 
rigid

$$$$
3war.A
     RDKit          3D

 13 13  0  0  0  0  0  0  0  0999 V2000
    2.7289   21.2094   41.1499 N   0  0  0  0  0  0  0  0  0  0  0  0
    2.8912   19.9176   40.8106 C   0  0  0  0  0  0  0  0  0  0  0  0
    3.3119   19.6260   39.5262 C   0  0  0  0  0  0  0  0  0  0  0  0
    3.5552   20.6349   38.6271 C   0  0  0  0  0  0  0  0  0  0  0  0
    3.3806   21.9633   39.0002 C   0  0  0  0  0  0  0  0  0  0  0  0
    2.9558   22.2331   40.3004 C   0  0  0  0  0  0  0  0  0  0  0  0
    3.5124   18.2522   39.0775 C   0  0  0  0  0  0  0  0  0  0  0  0
    3.2988   17.1500   39.8955 O   0  0  0  0  0  0  0  0  0  0  0  0
    3.8969   18.0737   37.8921 O   0  0  0  0  0  0  0  0  0  0  0  0
    2.7038   19.1129   41.5068 H   0  0  0  0  0  0  0  0  0  0  0  0
    3.8895   20.4557   37.5994 H   0  0  0  0  0  0  0  0  0  0  0  0
    3.5523   22.7926   38.3502 H   0  0  0  0  0  0  0  0  0  0  0  0
    2.7961   23.2273   40.6708 H   0  0  0  0  0  0  0  0  0  0  0  0
  1  2  1  0
  1  6  2  0
  2  3  2  0
  3  4  1  0
  3  7  1  0
  4  5  2  0
  5  6  1  0
  7  8  1  0
  7  9  2  0
  2 10  1  0
  4 11  1  0
  5 12  1  0
  6 13  1  0
M  CHG  1   8  -1
M  END
>  <mol_id>  (48) 
2026-09-18-3war-s0-n100-r1-0048

>  <rmsd_to_ref>  (48) 
2.612244897960372

>  <pose_kind>  (48) 
conformer

$$$$
3war.A
     RDKit          3D

 13 13  0  0  0  0  0  0  0  0999 V2000
    2.2395   21.1201   40.5375 N   0  0  0  0  0  0  0  0  0  0  0  0
    1.8757   21.4329   39.2057 C   0  0  0  0  0  0  0  0  0  0  0  0
    2.9457   21.5806   38.2503 C   0  0  0  0  0  0  0  0  0  0  0  0
    4.2663   21.4466   38.6405 C   0  0  0  0  0  0  0  0  0  0  0  0
    4.5724   21.1152   39.9422 C   0  0  0  0  0  0  0  0  0  0  0  0
    3.5633   20.9896   40.8705 C   0  0  0  0  0  0  0  0  0  0  0  0
    2.6331   22.0100   36.8246 C   0  0  0  0  0  0  0  0  0  0  0  0
    1.4283   21.9787   36.4370 O   0  0  0  0  0  0  0  0  0  0  0  0
    3.5964   22.3615   36.1783 O   0  0  0  0  0  0  0  0  0  0  0  0
    0.8229   21.5578   38.9124 H   0  0  0  0  0  0  0  0  0  0  0  0
    5.0733   21.6050   37.9100 H   0  0  0  0  0  0  0  0  0  0  0  0
    5.6190   20.9517   40.2388 H   0  0  0  0  0  0  0  0  0  0  0  0
    3.8286   20.7768   41.9166 H   0  0  0  0  0  0  0  0  0  0  0  0
  1  2  1  0
  1  6  2  0
  2  3  2  0
  3  4  1  0
  3  7  1  0
  4  5  2  0
  5  6  1  0
  7  8  1  0
  7  9  2  0
  2 10  1  0
  4 11  1  0
  5 12  1  0
  6 13  1  0
M  CHG  1   8  -1
M  END
>  <mol_id>  (49) 
2026-09-18-3war-s0-n100-r1-0049

>  <rmsd_to_ref>  (49) 
2.658163265308577

>  <pose_kind>  (49) 
rigid

$$$$
3war.A
     RDKit          3D

 13 13  0  0  0  0  0  0  0  0999 V2000
    0.7184   20.5045   40.9972 N   0  0  0  0  0  0  0  0  0  0  0  0
    1.2453   19.3325   40.5360 C   0  0  0  0  0  0  0  0  0  0  0  0
    2.5882   19.2176   40.2430 C   0  0  0  0  0  0  0  0  0  0  0  0
    3.4498   20.2830   40.4051 C   0  0  0  0  0  0  0  0  0  0  0  0
    2.9011   21.4814   40.8786 C   0  0  0  0  0  0  0  0  0  0  0  0
    1.5411   21.5720   41.1673 C   0  0  0  0  0  0  0  0  0  0  0  0
    3.1379   17.9582   39.7506 C   0  0  0  0  0  0  0  0  0  0  0  0
    2.3821   16.8269   39.5480 O   0  0  0  0  0  0  0  0  0  0  0  0
    4.3876   17.9392   39.5050 O   0  0  0  0  0  0  0  0  0  0  0  0
    0.5638   18.5132   40.4150 H   0  0  0  0  0  0  0  0  0  0  0  0
    4.5149   20.2240   40.1826 H   0  0  0  0  0  0  0  0  0  0  0  0
    3.5673   22.3008   41.0025 H   0  0  0  0  0  0  0  0  0  0  0  0
    1.1203   22.5027   41.5340 H   0  0  0  0  0  0  0  0  0  0  0  0
  1  2  1  0
  1  6  2  0
  2  3  2  0
  3  4  1  0
  3  7  1  0
  4  5  2  0
  5  6  1  0
  7  8  1  0
  7  9  2  0
  2 10  1  0
  4 11  1  0
  5 12  1  0
  6 13  1  0
M  CHG  1   8  -1
M  END
>  <mol_id>  (50) 
2026-09-18-3war-s0-n100-r1-0050

>  <rmsd_to_ref>  (50) 
2.7040816326543564

>  <pose_kind>  (50) 
conformer

$$$$
3war.A
     RDKit          3D

 13 13  0  0  0  0  0  0  0  0999 V2000
    3.6506   22.2002   39.3065 N   0  0  0  0  0  0  0  0  0  0  0  0
    3.0859   22.1713   38.0087 C   0  0  0  0  0  0  0  0  0  0  0  0
    1.8347   21.4716   37.8526 C   0  0  0  0  0  0  0  0  0  0  0  0
    1.2393   20.8379   38.9287 C   0  0  0  0  0  0  0  0  0  0  0  0
    1.8113   20.9150   40.1796 C   0  0  0  0  0  0  0  0  0  0  0  0
    3.0154   21.5630   40.3414 C   0  0  0  0  0  0  0  0  0  0  0  0
    1.2205   21.3193   36.4691 C   0  0  0  0  0  0  0  0  0  0  0  0
    1.6814   22.0254   35.5248 O   0  0  0  0  0  0  0  0  0  0  0  0
    0.3267   20.5036   36.3982 O   0  0  0  0  0  0  0  0  0  0  0  0
    3.5800   22.6611   37.1566 H   0  0  0  0  0  0  0  0  0  0  0  0
    0.3073   20.2714   38.7853 H   0  0  0  0  0  0  0  0  0  0  0  0
    1.3081   20.4607   41.0459 H   0  0  0  0  0  0  0  0  0  0  0  0
    3.4845   21.5698   41.3363 H   0  0  0  0  0  0  0  0  0  0  0  0
  1  2  1  0
  1  6  2  0
  2  3  2  0
  3  4  1  0
  3  7  1  0
  4  5  2  0
  5  6  1  0
  7  8  1  0
  7  9  2  0
  2 10  1  0
  4 11  1  0
  5 12  1  0
  6 13  1  0
M  CHG  1   8  -1
M  END
>  <mol_id>  (51) 
2026-09-18-3war-s0-n100-r1-0051

>  <rmsd_to_ref>  (51) 
2.750000000002253

>  <pose_kind>  (51) 
rigid

$$$$
3war.A
     RDKit          3D

 13 13  0  0  0  0  0  0  0  0999 V2000
    0.2316   20.9704   39.0479 N   0  0  0  0  0  0  0  0  0  0  0  0
    1.0548   19.8968   39.0068 C   0  0  0  0  0  0  0  0  0  0  0  0
    1.6696   19.5282   37.8292 C   0  0  0  0  0  0  0  0  0  0  0  0
    1.4868   20.2165   36.6479 C   0  0  0  0  0  0  0  0  0  0  0  0
    0.6320   21.3201   36.7199 C   0  0  0  0  0  0  0  0  0  0  0  0
    0.0229   21.6740   37.9164 C   0  0  0  0  0  0  0  0  0  0  0  0
    2.5493   18.3639   37.8304 C   0  0  0  0  0  0  0  0  0  0  0  0
    2.7711   17.6321   38.9909 O   0  0  0  0  0  0  0  0  0  0  0  0
    3.1348   17.9849   36.7832 O   0  0  0  0  0  0  0  0  0  0  0  0
    1.2439   19.3064   39.9074 H   0  0  0  0  0  0  0  0  0  0  0  0
    1.9672   19.9289   35.7267 H   0  0  0  0  0  0  0  0  0  0  0  0
    0.4293   21.9233   35.8334 H   0  0  0  0  0  0  0  0  0  0  0  0
   -0.6275   22.5250   37.9417 H   0  0  0  0  0  0  0  0  0  0  0  0
  1  2  1  0
  1  6  2  0
  2  3  2  0
  3  4  1  0
  3  7  1  0
  4  5  2  0
  5  6  1  0
  7  8  1  0
  7  9  2  0
  2 10  1  0
  4 11  1  0
  5 12  1  0
  6 13  1  0
M  CHG  1   8  -1
M  END
>  <mol_id>  (52) 
2026-09-18-3war-s0-n100-r1-0052

>  <rmsd_to_ref>  (52) 
2.795918367351143

>  <pose_kind>  (52) 
conformer

$$$$
3war.A
     RDKit          3D

 13 13  0  0  0  0  0  0  0  0999 V2000
   -0.7316   17.8733   37.6498 N   0  0  0  0  0  0  0  0  0  0  0  0
    0.3475   18.7321   37.3305 C   0  0  0  0  0  0  0  0  0  0  0  0
    1.1054   19.2715   38.4323 C   0  0  0  0  0  0  0  0  0  0  0  0
    0.7626   18.9750   39.7395 C   0  0  0  0  0  0  0  0  0  0  0  0
   -0.2792   18.1127   40.0024 C   0  0  0  0  0  0  0  0  0  0  0  0
   -1.0244   17.6045   38.9622 C   0  0  0  0  0  0  0  0  0  0  0  0
    2.2168   20.2758   38.1663 C   0  0  0  0  0  0  0  0  0  0  0  0
    2.6243   20.4215   36.9766 O   0  0  0  0  0  0  0  0  0  0  0  0
    2.6122   20.8664   39.1482 O   0  0  0  0  0  0  0  0  0  0  0  0
    0.5969   18.9773   36.2876 H   0  0  0  0  0  0  0  0  0  0  0  0
    1.3229   19.4285   40.5704 H   0  0  0  0  0  0  0  0  0  0  0  0
   -0.5147   17.8313   41.0394 H   0  0  0  0  0  0  0  0  0  0  0  0
   -1.8855   16.9597   39.1921 H   0  0  0  0  0  0  0  0  0  0  0  0
  1  2  1  0
  1  6  2  0
  2  3  2  0
  3  4  1  0
  3  7  1  0
  4  5  2  0
  5  6  1  0
  7  8  1  0
  7  9  2  0
  2 10  1  0
  4 11  1  0
  5 12  1  0
  6 13  1  0
M  CHG  1   8  -1
M  END
>  <mol_id>  (53) 
2026-09-18-3war-s0-n100-r1-0053

>  <rmsd_to_ref>  (53) 
2.8418367346968196

>  <pose_kind>  (53) 
rigid

$$$$
3war.A
     RDKit          3D

 13 13  0  0  0  0  0  0  0  0999 V2000
    2.5361   22.2829   40.1817 N   0  0  0  0  0  0  0  0  0  0  0  0
    2.7090   20.9789   40.0206 C   0  0  0  0  0  0  0  0  0  0  0  0
    3.2186   20.5162   38.8288 C   0  0  0  0  0  0  0  0  0  0  0  0
    3.5512   21.3943   37.8002 C   0  0  0  0  0  0  0  0  0  0  0  0
    3.3647   22.7485   37.9851 C   0  0  0  0  0  0  0  0  0  0  0  0
    2.8435   23.1693   39.2155 C   0  0  0  0  0  0  0  0  0  0  0  0
    3.3969   19.0750   38.6830 C   0  0  0  0  0  0  0  0  0  0  0  0
    3.9094   18.5677   37.4932 O   0  0  0  0  0  0  0  0  0  0  0  0
    3.0992   18.2565   39.6103 O   0  0  0  0  0  0  0  0  0  0  0  0
    2.4588   20.2746   40.8034 H   0  0  0  0  0  0  0  0  0  0  0  0
    3.9497   21.0300   36.8686 H   0  0  0  0  0  0  0  0  0  0  0  0
    3.6109   23.4643   37.2100 H   0  0  0  0  0  0  0  0  0  0  0  0
    2.6731   24.2175   39.4244 H   0  0  0  0  0  0  0  0  0  0  0  0
  1  2  1  0
  1  6  2  0
  2  3  2  0
  3  4  1  0
  3  7  1  0
  4  5  2  0
  5  6  1  0
  7  8  1  0
  7  9  2  0
  2 10  1  0
  4 11  1  0
  5 12  1  0
  6 13  1  0
M  CHG  1   8  -1
M  END
>  <mol_id>  (54) 
2026-09-18-3war-s0-n100-r1-0054

>  <rmsd_to_ref>  (54) 
2.88775510204376

>  <pose_kind>  (54) 
conformer

$$$$
3war.A
     RDKit          3D

 13 13  0  0  0  0  0  0  0  0999 V2000
    1.7422   18.0991   40.3072 N   0  0  0  0  0  0  0  0  0  0  0  0
    2.7352   19.0155   40.7293 C   0  0  0  0  0  0  0  0  0  0  0  0
    2.4915   20.4130   40.4703 C   0  0  0  0  0  0  0  0  0  0  0  0
    1.3451   20.8213   39.8123 C   0  0  0  0  0  0  0  0  0  0  0  0
    0.3930   19.8964   39.4434 C   0  0  0  0  0  0  0  0  0  0  0  0
    0.6195   18.5568   39.6665 C   0  0  0  0  0  0  0  0  0  0  0  0
    3.5585   21.4428   40.8106 C   0  0  0  0  0  0  0  0  0  0  0  0
    4.5258   21.0869   41.5456 O   0  0  0  0  0  0  0  0  0  0  0  0
    3.3802   22.5377   40.3222 O   0  0  0  0  0  0  0  0  0  0  0  0
    3.6526   18.6764   41.2328 H   0  0  0  0  0  0  0  0  0  0  0  0
    1.1935   21.8865   39.5831 H   0  0  0  0  0  0  0  0  0  0  0  0
   -0.5446   20.2269   38.9725 H   0  0  0  0  0  0  0  0  0  0  0  0
   -0.1267   17.8275   39.3182 H   0  0  0  0  0  0  0  0  0  0  0  0
  1  2  1  0
  1  6  2  0
  2  3  2  0
  3  4  1  0
  3  7  1  0
  4  5  2  0
  5  6  1  0
  7  8  1  0
  7  9  2  0
  2 10  1  0
  4 11  1  0
  5 12  1  0
  6 13  1  0
M  CHG  1   8  -1
M  END
>  <mol_id>  (55) 
2026-09-18-3war-s0-n100-r1-0055

>  <rmsd_to_ref>  (55) 
2.933673469388138

>  <pose_kind>  (55) 
rigid

$$$$
3war.A
     RDKit          3D

 13 13  0  0  0  0  0  0  0  0999 V2000
    3.0707   20.1095   39.8382 N   0  0  0  0  0  0  0  0  0  0  0  0
    2.9226   18.7825   39.6165 C   0  0  0  0  0  0  0  0  0  0  0  0
    2.8598   18.2881   38.3311 C   0  0  0  0  0  0  0  0  0  0  0  0
    2.9424   19.0985   37.2180 C   0  0  0  0  0  0  0  0  0  0  0  0
    3.0950   20.4636   37.4768 C   0  0  0  0  0  0  0  0  0  0  0  0
    3.1559   20.9404   38.7793 C   0  0  0  0  0  0  0  0  0  0  0  0
    2.6996   16.8505   38.1384 C   0  0  0  0  0  0  0  0  0  0  0  0
    2.6108   15.9856   39.2226 O   0  0  0  0  0  0  0  0  0  0  0  0
    2.6368   16.3476   36.9868 O   0  0  0  0  0  0  0  0  0  0  0  0
    2.8506   18.0835   40.4543 H   0  0  0  0  0  0  0  0  0  0  0  0
    2.8934   18.7127   36.2126 H   0  0  0  0  0  0  0  0  0  0  0  0
    3.1689   21.1788   36.6559 H   0  0  0  0  0  0  0  0  0  0  0  0
    3.2732   21.9921   38.9475 H   0  0  0  0  0  0  0  0  0  0  0  0
  1  2  1  0
  1  6  2  0
  2  3  2  0
  3  4  1  0
  3  7  1  0
  4  5  2  0
  5  6  1  0
  7  8  1  0
  7  9  2  0
  2 10  1  0
  4 11  1  0
  5 12  1  0
  6 13  1  0
M  CHG  1   8  -1
M  END
>  <mol_id>  (56) 
2026-09-18-3war-s0-n100-r1-0056

>  <rmsd_to_ref>  (56) 
2.979591836736139

>  <pose_kind>  (56) 
conformer

$$$$
3war.A
     RDKit          3D

 13 13  0  0  0  0  0  0  0  0999 V2000
    2.9943   17.6043   39.7250 N   0  0  0  0  0  0  0  0  0  0  0  0
    1.7779   18.0597   39.1619 C   0  0  0  0  0  0  0  0  0  0  0  0
    1.1993   19.2535   39.7270 C   0  0  0  0  0  0  0  0  0  0  0  0
    1.8046   19.8980   40.7911 C   0  0  0  0  0  0  0  0  0  0  0  0
    3.0022   19.4341   41.2898 C   0  0  0  0  0  0  0  0  0  0  0  0
    3.5577   18.2848   40.7737 C   0  0  0  0  0  0  0  0  0  0  0  0
   -0.1540   19.7444   39.2348 C   0  0  0  0  0  0  0  0  0  0  0  0
   -0.6228   19.2485   38.1685 O   0  0  0  0  0  0  0  0  0  0  0  0
   -0.6754   20.5830   39.9378 O   0  0  0  0  0  0  0  0  0  0  0  0
    1.2953   17.5263   38.3297 H   0  0  0  0  0  0  0  0  0  0  0  0
    1.3288   20.7824   41.2399 H   0  0  0  0  0  0  0  0  0  0  0  0
    3.5126   19.9797   42.0971 H   0  0  0  0  0  0  0  0  0  0  0  0
    4.4867   17.8987   41.2185 H   0  0  0  0  0  0  0  0  0  0  0  0
  1  2  1  0
  1  6  2  0
  2  3  2  0
  3  4  1  0
  3  7  1  0
  4  5  2  0
  5  6  1  0
  7  8  1  0
  7  9  2  0
  2 10  1  0
  4 11  1  0
  5 12  1  0
  6 13  1  0
M  CHG  1   8  -1
M  END
>  <mol_id>  (57) 
2026-09-18-3war-s0-n100-r1-0057

>  <rmsd_to_ref>  (57) 
3.0255102040833077

>  <pose_kind>  (57) 
rigid

$$$$
3war.A
     RDKit          3D

 13 13  0  0  0  0  0  0  0  0999 V2000
    4.4197   21.0861   40.7173 N   0  0  0  0  0  0  0  0  0  0  0  0
    4.5309   19.7352   40.5777 C   0  0  0  0  0  0  0  0  0  0  0  0
    3.5304   19.0335   39.9465 C   0  0  0  0  0  0  0  0  0  0  0  0
    2.4214   19.6628   39.4535 C   0  0  0  0  0  0  0  0  0  0  0  0
    2.3138   21.0501   39.6004 C   0  0  0  0  0  0  0  0  0  0  0  0
    3.3272   21.7310   40.2353 C   0  0  0  0  0  0  0  0  0  0  0  0
    3.6660   17.5889   39.8060 C   0  0  0  0  0  0  0  0  0  0  0  0
    4.7790   16.9186   40.2951 O   0  0  0  0  0  0  0  0  0  0  0  0
    2.7889   16.8886   39.2402 O   0  0  0  0  0  0  0  0  0  0  0  0
    5.4273   19.2495   40.9795 H   0  0  0  0  0  0  0  0  0  0  0  0
    1.6537   19.0791   38.9626 H   0  0  0  0  0  0  0  0  0  0  0  0
    1.4287   21.5281   39.2034 H   0  0  0  0  0  0  0  0  0  0  0  0
    3.2641   22.8110   40.3606 H   0  0  0  0  0  0  0  0  0  0  0  0
  1  2  1  0
  1  6  2  0
  2  3  2  0
  3  4  1  0
  3  7  1  0
  4  5  2  0
  5  6  1  0
  7  8  1  0
  7  9  2  0
  2 10  1  0
  4 11  1  0
  5 12  1  0
  6 13  1  0
M  CHG  1   8  -1
M  END
>  <mol_id>  (58) 
2026-09-18-3war-s0-n100-r1-0058

>  <rmsd_to_ref>  (58) 
3.071428571431693

>  <pose_kind>  (58) 
conformer

$$$$
3war.A
     RDKit          3D

 13 13  0  0  0  0  0  0  0  0999 V2000
    4.2583   22.1218   39.3832 N   0  0  0  0  0  0  0  0  0  0  0  0
    3.6487   20.8519   39.2426 C   0  0  0  0  0  0  0  0  0  0  0  0
    2.9846   20.5774   37.9924 C   0  0  0  0  0  0  0  0  0  0  0  0
    2.9308   21.5342   36.9946 C   0  0  0  0  0  0  0  0  0  0  0  0
    3.5616   22.7471   37.1650 C   0  0  0  0  0  0  0  0  0  0  0  0
    4.1834   23.0317   38.3601 C   0  0  0  0  0  0  0  0  0  0  0  0
    2.2271   19.2707   37.8090 C   0  0  0  0  0  0  0  0  0  0  0  0
    2.4090   18.3458   38.6541 O   0  0  0  0  0  0  0  0  0  0  0  0
    1.4911   19.2422   36.8464 O   0  0  0  0  0  0  0  0  0  0  0  0
    3.6801   20.1072   40.0516 H   0  0  0  0  0  0  0  0  0  0  0  0
    2.3834   21.3262   36.0634 H   0  0  0  0  0  0  0  0  0  0  0  0
    3.5683   23.4854   36.3496 H   0  0  0  0  0  0  0  0  0  0  0  0
    4.6363   24.0244   38.4990 H   0  0  0  0  0  0  0  0  0  0  0  0
  1  2  1  0
  1  6  2  0
  2  3  2  0
  3  4  1  0
  3  7  1  0
  4  5  2  0
  5  6  1  0
  7  8  1  0
  7  9  2  0
  2 10  1  0
  4 11  1  0
  5 12  1  0
  6 13  1  0
M  CHG  1   8  -1
M  END
>  <mol_id>  (59) 
2026-09-18-3war-s0-n100-r1-0059

>  <rmsd_to_ref>  (59) 
3.117346938776846

>  <pose_kind>  (59) 
rigid

$$$$
3war.A
     RDKit          3D

 13 13  0  0  0  0  0  0  0  0999 V2000
    4.2363   18.6482   41.3847 N   0  0  0  0  0  0  0  0  0  0  0  0
    3.8859   18.8245   40.0921 C   0  0  0  0  0  0  0  0  0  0  0  0
    3.4590   17.7486   39.3456 C   0  0  0  0  0  0  0  0  0  0  0  0
    3.3892   16.4858   39.9209 C   0  0  0  0  0  0  0  0  0  0  0  0
    3.7510   16.3028   41.2558 C   0  0  0  0  0  0  0  0  0  0  0  0
    4.1714   17.4273   41.9492 C   0  0  0  0  0  0  0  0  0  0  0  0
    3.0784   17.9054   37.9644 C   0  0  0  0  0  0  0  0  0  0  0  0
    3.1439   19.1735   37.3713 O   0  0  0  0  0  0  0  0  0  0  0  0
    2.6896   16.9040   37.2981 O   0  0  0  0  0  0  0  0  0  0  0  0
    3.9555   19.8150   39.6909 H   0  0  0  0  0  0  0  0  0  0  0  0
    3.0510   15.6200   39.3382 H   0  0  0  0  0  0  0  0  0  0  0  0
    3.7089   15.3369   41.7339 H   0  0  0  0  0  0  0  0  0  0  0  0
    4.4665   17.3594   42.9859 H   0  0  0  0  0  0  0  0  0  0  0  0
  1  2  1  0
  1  6  2  0
  2  3  2  0
  3  4  1  0
  3  7  1  0
  4  5  2  0
  5  6  1  0
  7  8  1  0
  7  9  2  0
  2 10  1  0
  4 11  1  0
  5 12  1  0
  6 13  1  0
M  CHG  1   8  -1
M  END
>  <mol_id>  (60) 
2026-09-18-3war-s0-n100-r1-0060

>  <rmsd_to_ref>  (60) 
3.163265306123721

>  <pose_kind>  (60) 
conformer

$$$$
3war.A
     RDKit          3D

 13 13  0  0  0  0  0  0  0  0999 V2000
    1.8113   19.0834   38.4263 N   0  0  0  0  0  0  0  0  0  0  0  0
    0.9950   20.0778   37.8357 C   0  0  0  0  0  0  0  0  0  0  0  0
    1.6536   21.2665   37.3535 C   0  0  0  0  0  0  0  0  0  0  0  0
    3.0207   21.4248   37.4946 C   0  0  0  0  0  0  0  0  0  0  0  0
    3.7793   20.4188   38.0518 C   0  0  0  0  0  0  0  0  0  0  0  0
    3.1632   19.2859   38.5343 C   0  0  0  0  0  0  0  0  0  0  0  0
    0.8273   22.4155   36.7951 C   0  0  0  0  0  0  0  0  0  0  0  0
   -0.3919   22.2054   36.5268 O   0  0  0  0  0  0  0  0  0  0  0  0
    1.4316   23.4582   36.6652 O   0  0  0  0  0  0  0  0  0  0  0  0
   -0.0940   19.9493   37.7484 H   0  0  0  0  0  0  0  0  0  0  0  0
    3.5029   22.3556   37.1613 H   0  0  0  0  0  0  0  0  0  0  0  0
    4.8730   20.5202   38.1110 H   0  0  0  0  0  0  0  0  0  0  0  0
    3.7774   18.5158   39.0239 H   0  0  0  0  0  0  0  0  0  0  0  0
  1  2  1  0
  1  6  2  0
  2  3  2  0
  3  4  1  0
  3  7  1  0
  4  5  2  0
  5  6  1  0
  7  8  1  0
  7  9  2  0
  2 10  1  0
  4 11  1  0
  5 12  1  0
  6 13  1  0
M  CHG  1   8  -1
M  END
>  <mol_id>  (61) 
2026-09-18-3war-s0-n100-r1-0061

>  <rmsd_to_ref>  (61) 
3.2091836734719745

>  <pose_kind>  (61) 
rigid

$$$$
3war.A
     RDKit          3D

 13 13  0  0  0  0  0  0  0  0999 V2000
    2.8023   17.8021   41.1366 N   0  0  0  0  0  0  0  0  0  0  0  0
    2.1834   18.9396   40.7053 C   0  0  0  0  0  0  0  0  0  0  0  0
    2.8555   20.1325   40.5678 C   0  0  0  0  0  0  0  0  0  0  0  0
    4.2166   20.2006   40.8750 C   0  0  0  0  0  0  0  0  0  0  0  0
    4.8532   19.0340   41.3177 C   0  0  0  0  0  0  0  0  0  0  0  0
    4.1320   17.8516   41.4409 C   0  0  0  0  0  0  0  0  0  0  0  0
    2.1318   21.2951   40.1054 C   0  0  0  0  0  0  0  0  0  0  0  0
    2.7294   22.5358   39.9383 O   0  0  0  0  0  0  0  0  0  0  0  0
    0.8874   21.2337   39.8242 O   0  0  0  0  0  0  0  0  0  0  0  0
    1.1266   18.8714   40.4706 H   0  0  0  0  0  0  0  0  0  0  0  0
    4.7314   21.1316   40.7653 H   0  0  0  0  0  0  0  0  0  0  0  0
    5.8976   19.0936   41.5515 H   0  0  0  0  0  0  0  0  0  0  0  0
    4.6052   16.9598   41.7762 H   0  0  0  0  0  0  0  0  0  0  0  0
  1  2  1  0
  1  6  2  0
  2  3  2  0
  3  4  1  0
  3  7  1  0
  4  5  2  0
  5  6  1  0
  7  8  1  0
  7  9  2  0
  2 10  1  0
  4 11  1  0
  5 12  1  0
  6 13  1  0
M  CHG  1   8  -1
M  END
>  <mol_id>  (62) 
2026-09-18-3war-s0-n100-r1-0062

>  <rmsd_to_ref>  (62) 
3.2551020408174502

>  <pose_kind>  (62) 
conformer

$$$$
3war.A
     RDKit          3D

 13 13  0  0  0  0  0  0  0  0999 V2000
    2.7029   18.0441   42.2286 N   0  0  0  0  0  0  0  0  0  0  0  0
    1.5578   18.6714   41.6815 C   0  0  0  0  0  0  0  0  0  0  0  0
    1.7805   19.6946   40.6901 C   0  0  0  0  0  0  0  0  0  0  0  0
    3.0643   20.0551   40.3212 C   0  0  0  0  0  0  0  0  0  0  0  0
    4.1488   19.3986   40.8605 C   0  0  0  0  0  0  0  0  0  0  0  0
    3.9536   18.4327   41.8221 C   0  0  0  0  0  0  0  0  0  0  0  0
    0.6008   20.4758   40.1310 C   0  0  0  0  0  0  0  0  0  0  0  0
   -0.5677   20.0415   40.3517 O   0  0  0  0  0  0  0  0  0  0  0  0
    0.9009   21.4765   39.5163 O   0  0  0  0  0  0  0  0  0  0  0  0
    0.5427   18.3906   41.9987 H   0  0  0  0  0  0  0  0  0  0  0  0
    3.2193   20.8673   39.5958 H   0  0  0  0  0  0  0  0  0  0  0  0
    5.1667   19.6452   40.5243 H   0  0  0  0  0  0  0  0  0  0  0  0
    4.8323   17.9557   42.2807 H   0  0  0  0  0  0  0  0  0  0  0  0
  1  2  1  0
  1  6  2  0
  2  3  2  0
  3  4  1  0
  3  7  1  0
  4  5  2  0
  5  6  1  0
  7  8  1  0
  7  9  2  0
  2 10  1  0
  4 11  1  0
  5 12  1  0
  6 13  1  0
M  CHG  1   8  -1
M  END
>  <mol_id>  (63) 
2026-09-18-3war-s0-n100-r1-0063

>  <rmsd_to_ref>  (63) 
3.301020408164486

>  <pose_kind>  (63) 
rigid

$$$$
3war.A
     RDKit          3D

 13 13  0  0  0  0  0  0  0  0999 V2000
    4.7728   17.4829   38.1722 N   0  0  0  0  0  0  0  0  0  0  0  0
    5.0468   18.7691   38.5377 C   0  0  0  0  0  0  0  0  0  0  0  0
    4.0955   19.7545   38.3474 C   0  0  0  0  0  0  0  0  0  0  0  0
    2.8523   19.4927   37.7920 C   0  0  0  0  0  0  0  0  0  0  0  0
    2.6205   18.1697   37.4362 C   0  0  0  0  0  0  0  0  0  0  0  0
    3.5618   17.1776   37.6211 C   0  0  0  0  0  0  0  0  0  0  0  0
    4.4530   21.1177   38.7620 C   0  0  0  0  0  0  0  0  0  0  0  0
    3.5235   22.1404   38.5879 O   0  0  0  0  0  0  0  0  0  0  0  0
    5.5533   21.4138   39.2664 O   0  0  0  0  0  0  0  0  0  0  0  0
    6.0199   18.9525   38.9682 H   0  0  0  0  0  0  0  0  0  0  0  0
    2.1260   20.2630   37.6502 H   0  0  0  0  0  0  0  0  0  0  0  0
    1.6358   17.9771   36.9991 H   0  0  0  0  0  0  0  0  0  0  0  0
    3.3096   16.1697   37.3195 H   0  0  0  0  0  0  0  0  0  0  0  0
  1  2  1  0
  1  6  2  0
  2  3  2  0
  3  4  1  0
  3  7  1  0
  4  5  2  0
  5  6  1  0
  7  8  1  0
  7  9  2  0
  2 10  1  0
  4 11  1  0
  5 12  1  0
  6 13  1  0
M  CHG  1   8  -1
M  END
>  <mol_id>  (64) 
2026-09-18-3war-s0-n100-r1-0064

>  <rmsd_to_ref>  (64) 
3.3469387755114615

>  <pose_kind>  (64) 
conformer

$$$$
3war.A
     RDKit          3D

 13 13  0  0  0  0  0  0  0  0999 V2000
    0.9925   17.1809   39.4416 N   0  0  0  0  0  0  0  0  0  0  0  0
    2.0614   17.3219   40.3589 C   0  0  0  0  0  0  0  0  0  0  0  0
    2.9003   18.4861   40.2155 C   0  0  0  0  0  0  0  0  0  0  0  0
    2.6736   19.4013   39.2030 C   0  0  0  0  0  0  0  0  0  0  0  0
    1.6047   19.2374   38.3494 C   0  0  0  0  0  0  0  0  0  0  0  0
    0.8060   18.1214   38.4613 C   0  0  0  0  0  0  0  0  0  0  0  0
    4.1231   18.6517   41.1054 C   0  0  0  0  0  0  0  0  0  0  0  0
    4.2352   17.9027   42.1198 O   0  0  0  0  0  0  0  0  0  0  0  0
    4.9029   19.5054   40.7416 O   0  0  0  0  0  0  0  0  0  0  0  0
    2.2442   16.5762   41.1466 H   0  0  0  0  0  0  0  0  0  0  0  0
    3.3480   20.2614   39.0793 H   0  0  0  0  0  0  0  0  0  0  0  0
    1.3902   19.9951   37.5814 H   0  0  0  0  0  0  0  0  0  0  0  0
   -0.0108   17.9793   37.7384 H   0  0  0  0  0  0  0  0  0  0  0  0
  1  2  1  0
  1  6  2  0
  2  3  2  0
  3  4  1  0
  3  7  1  0
  4  5  2  0
  5  6  1  0
  7  8  1  0
  7  9  2  0
  2 10  1  0
  4 11  1  0
  5 12  1  0
  6 13  1  0
M  CHG  1   8  -1
M  END
>  <mol_id>  (65) 
2026-09-18-3war-s0-n100-r1-0065

>  <rmsd_to_ref>  (65) 
3.392857142859144

>  <pose_kind>  (65) 
rigid

$$$$
3war.A
     RDKit          3D

 13 13  0  0  0  0  0  0  0  0999 V2000
   -0.7797   20.8140   42.2974 N   0  0  0  0  0  0  0  0  0  0  0  0
   -0.5914   21.4342   41.1018 C   0  0  0  0  0  0  0  0  0  0  0  0
   -0.0360   20.7204   40.0506 C   0  0  0  0  0  0  0  0  0  0  0  0
    0.3373   19.3968   40.1650 C   0  0  0  0  0  0  0  0  0  0  0  0
    0.1278   18.7965   41.4078 C   0  0  0  0  0  0  0  0  0  0  0  0
   -0.4249   19.5117   42.4491 C   0  0  0  0  0  0  0  0  0  0  0  0
    0.1766   21.3625   38.7574 C   0  0  0  0  0  0  0  0  0  0  0  0
   -0.1548   22.6886   38.5087 O   0  0  0  0  0  0  0  0  0  0  0  0
    0.6866   20.6684   37.8294 O   0  0  0  0  0  0  0  0  0  0  0  0
   -0.8542   22.4544   40.9353 H   0  0  0  0  0  0  0  0  0  0  0  0
    0.7703   18.8317   39.3539 H   0  0  0  0  0  0  0  0  0  0  0  0
    0.4208   17.7574   41.4977 H   0  0  0  0  0  0  0  0  0  0  0  0
   -0.5688   18.9927   43.4065 H   0  0  0  0  0  0  0  0  0  0  0  0
  1  2  1  0
  1  6  2  0
  2  3  2  0
  3  4  1  0
  3  7  1  0
  4  5  2  0
  5  6  1  0
  7  8  1  0
  7  9  2  0
  2 10  1  0
  4 11  1  0
  5 12  1  0
  6 13  1  0
M  CHG  1   8  -1
M  END
>  <mol_id>  (66) 
2026-09-18-3war-s0-n100-r1-0066

>  <rmsd_to_ref>  (66) 
3.4387755102061264

>  <pose_kind>  (66) 
conformer

$$$$
3war.A
     RDKit          3D

 13 13  0  0  0  0  0  0  0  0999 V2000
    0.3415   18.4149   38.7986 N   0  0  0  0  0  0  0  0  0  0  0  0
   -0.4128   19.5411   38.3902 C   0  0  0  0  0  0  0  0  0  0  0  0
    0.3036   20.6103   37.7399 C   0  0  0  0  0  0  0  0  0  0  0  0
    1.6728   20.5353   37.5558 C   0  0  0  0  0  0  0  0  0  0  0  0
    2.3621   19.4078   37.9454 C   0  0  0  0  0  0  0  0  0  0  0  0
    1.6956   18.3866   38.5847 C   0  0  0  0  0  0  0  0  0  0  0  0
   -0.4269   21.8900   37.3615 C   0  0  0  0  0  0  0  0  0  0  0  0
   -1.6926   21.8912   37.3888 O   0  0  0  0  0  0  0  0  0  0  0  0
    0.2953   22.8188   37.0699 O   0  0  0  0  0  0  0  0  0  0  0  0
   -1.4979   19.5980   38.5614 H   0  0  0  0  0  0  0  0  0  0  0  0
    2.2120   21.3774   37.0975 H   0  0  0  0  0  0  0  0  0  0  0  0
    3.4407   19.3238   37.7465 H   0  0  0  0  0  0  0  0  0  0  0  0
    2.2700   17.5170   38.9365 H   0  0  0  0  0  0  0  0  0  0  0  0
  1  2  1  0
  1  6  2  0
  2  3  2  0
  3  4  1  0
  3  7  1  0
  4  5  2  0
  5  6  1  0
  7  8  1  0
  7  9  2  0
  2 10  1  0
  4 11  1  0
  5 12  1  0
  6 13  1  0
M  CHG  1   8  -1
M  END
>  <mol_id>  (67) 
2026-09-18-3war-s0-n100-r1-0067

>  <rmsd_to_ref>  (67) 
3.484693877553011

>  <pose_kind>  (67) 
rigid

$$$$
3war.A
     RDKit          3D

 13 13  0  0  0  0  0  0  0  0999 V2000
    2.7972   16.9702   41.2844 N   0  0  0  0  0  0  0  0  0  0  0  0
    3.3889   18.1915   41.4268 C   0  0  0  0  0  0  0  0  0  0  0  0
    3.8178   18.8552   40.2952 C   0  0  0  0  0  0  0  0  0  0  0  0
    3.6794   18.3469   39.0204 C   0  0  0  0  0  0  0  0  0  0  0  0
    3.0728   17.1022   38.9155 C   0  0  0  0  0  0  0  0  0  0  0  0
    2.6401   16.4302   40.0427 C   0  0  0  0  0  0  0  0  0  0  0  0
    4.4578   20.1733   40.4337 C   0  0  0  0  0  0  0  0  0  0  0  0
    4.6238   20.7360   41.7018 O   0  0  0  0  0  0  0  0  0  0  0  0
    4.8464   20.7714   39.3909 O   0  0  0  0  0  0  0  0  0  0  0  0
    3.5144   18.6234   42.4213 H   0  0  0  0  0  0  0  0  0  0  0  0
    4.0174   18.8704   38.1318 H   0  0  0  0  0  0  0  0  0  0  0  0
    2.9366   16.6503   37.9300 H   0  0  0  0  0  0  0  0  0  0  0  0
    2.1750   15.4634   39.8928 H   0  0  0  0  0  0  0  0  0  0  0  0
  1  2  1  0
  1  6  2  0
  2  3  2  0
  3  4  1  0
  3  7  1  0
  4  5  2  0
  5  6  1  0
  7  8  1  0
  7  9  2  0
  2 10  1  0
  4 11  1  0
  5 12  1  0
  6 13  1  0
M  CHG  1   8  -1
M  END
>  <mol_id>  (68) 
2026-09-18-3war-s0-n100-r1-0068

>  <rmsd_to_ref>  (68) 
3.530612244900609

>  <pose_kind>  (68) 
conformer

$$$$
3war.A
     RDKit          3D

 13 13  0  0  0  0  0  0  0  0999 V2000
    2.0765   19.5747   38.5254 N   0  0  0  0  0  0  0  0  0  0  0  0
    2.6957   20.4674   39.4330 C   0  0  0  0  0  0  0  0  0  0  0  0
    1.9016   21.5713   39.9129 C   0  0  0  0  0  0  0  0  0  0  0  0
    0.6019   21.7514   39.4742 C   0  0  0  0  0  0  0  0  0  0  0  0
    0.0312   20.8421   38.6108 C   0  0  0  0  0  0  0  0  0  0  0  0
    0.7823   19.7937   38.1287 C   0  0  0  0  0  0  0  0  0  0  0  0
    2.5328   22.6217   40.8145 C   0  0  0  0  0  0  0  0  0  0  0  0
    3.6606   22.3713   41.3323 O   0  0  0  0  0  0  0  0  0  0  0  0
    1.8796   23.6340   40.9478 O   0  0  0  0  0  0  0  0  0  0  0  0
    3.7370   20.3253   39.7578 H   0  0  0  0  0  0  0  0  0  0  0  0
    0.0231   22.6224   39.8155 H   0  0  0  0  0  0  0  0  0  0  0  0
   -1.0203   20.9533   38.3078 H   0  0  0  0  0  0  0  0  0  0  0  0
    0.3278   19.1071   37.3993 H   0  0  0  0  0  0  0  0  0  0  0  0
  1  2  1  0
  1  6  2  0
  2  3  2  0
  3  4  1  0
  3  7  1  0
  4  5  2  0
  5  6  1  0
  7  8  1  0
  7  9  2  0
  2 10  1  0
  4 11  1  0
  5 12  1  0
  6 13  1  0
M  CHG  1   8  -1
M  END
>  <mol_id>  (69) 
2026-09-18-3war-s0-n100-r1-0069

>  <rmsd_to_ref>  (69) 
3.5765306122464335

>  <pose_kind>  (69) 
rigid

$$$$
3war.A
     RDKit          3D

 13 13  0  0  0  0  0  0  0  0999 V2000
    3.1616   20.0415   36.7838 N   0  0  0  0  0  0  0  0  0  0  0  0
    3.7396   20.9811   37.5231 C   0  0  0  0  0  0  0  0  0  0  0  0
    2.9509   21.6938   38.4311 C   0  0  0  0  0  0  0  0  0  0  0  0
    1.5915   21.3816   38.5158 C   0  0  0  0  0  0  0  0  0  0  0  0
    1.0490   20.3950   37.7213 C   0  0  0  0  0  0  0  0  0  0  0  0
    1.8752   19.7273   36.8460 C   0  0  0  0  0  0  0  0  0  0  0  0
    3.5565   22.7320   39.2573 C   0  0  0  0  0  0  0  0  0  0  0  0
    2.7368   23.4163   40.1467 O   0  0  0  0  0  0  0  0  0  0  0  0
    4.8011   22.9872   39.1503 O   0  0  0  0  0  0  0  0  0  0  0  0
    4.7943   21.2190   37.4532 H   0  0  0  0  0  0  0  0  0  0  0  0
    0.9896   21.9375   39.2203 H   0  0  0  0  0  0  0  0  0  0  0  0
    0.0085   20.1850   37.8140 H   0  0  0  0  0  0  0  0  0  0  0  0
    1.4124   18.9457   36.2259 H   0  0  0  0  0  0  0  0  0  0  0  0
  1  2  1  0
  1  6  2  0
  2  3  2  0
  3  4  1  0
  3  7  1  0
  4  5  2  0
  5  6  1  0
  7  8  1  0
  7  9  2  0
  2 10  1  0
  4 11  1  0
  5 12  1  0
  6 13  1  0
M  CHG  1   8  -1
M  END
>  <mol_id>  (70) 
2026-09-18-3war-s0-n100-r1-0070

>  <rmsd_to_ref>  (70) 
3.6224489795937944

>  <pose_kind>  (70) 
conformer

$$$$
3war.A
     RDKit          3D

 13 13  0  0  0  0  0  0  0  0999 V2000
    0.0863   20.0044   37.2111 N   0  0  0  0  0  0  0  0  0  0  0  0
    0.7330   21.1843   37.6513 C   0  0  0  0  0  0  0  0  0  0  0  0
    1.0074   21.2949   39.0626 C   0  0  0  0  0  0  0  0  0  0  0  0
    0.6241   20.2950   39.9386 C   0  0  0  0  0  0  0  0  0  0  0  0
    0.0210   19.1518   39.4617 C   0  0  0  0  0  0  0  0  0  0  0  0
   -0.2650   19.0393   38.1196 C   0  0  0  0  0  0  0  0  0  0  0  0
    1.6127   22.5757   39.6176 C   0  0  0  0  0  0  0  0  0  0  0  0
    2.0996   23.4135   38.8030 O   0  0  0  0  0  0  0  0  0  0  0  0
    1.5609   22.6795   40.8241 O   0  0  0  0  0  0  0  0  0  0  0  0
    1.0137   21.9818   36.9476 H   0  0  0  0  0  0  0  0  0  0  0  0
    0.8012   20.4129   41.0178 H   0  0  0  0  0  0  0  0  0  0  0  0
   -0.2311   18.3320   40.1505 H   0  0  0  0  0  0  0  0  0  0  0  0
   -0.7944   18.1433   37.7634 H   0  0  0  0  0  0  0  0  0  0  0  0
  1  2  1  0
  1  6  2  0
  2  3  2  0
  3  4  1  0
  3  7  1  0
  4  5  2  0
  5  6  1  0
  7  8  1  0
  7  9  2  0
  2 10  1  0
  4 11  1  0
  5 12  1  0
  6 13  1  0
M  CHG  1   8  -1
M  END
>  <mol_id>  (71) 
2026-09-18-3war-s0-n100-r1-0071

>  <rmsd_to_ref>  (71) 
3.668367346941867

>  <pose_kind>  (71) 
rigid

$$$$
3war.A
     RDKit          3D

 13 13  0  0  0  0  0  0  0  0999 V2000
   -0.0078   22.0779   39.8097 N   0  0  0  0  0  0  0  0  0  0  0  0
    0.4730   21.0859   40.5910 C   0  0  0  0  0  0  0  0  0  0  0  0
    1.7597   20.6334   40.3820 C   0  0  0  0  0  0  0  0  0  0  0  0
    2.5546   21.1790   39.3913 C   0  0  0  0  0  0  0  0  0  0  0  0
    2.0498   22.1911   38.6016 C   0  0  0  0  0  0  0  0  0  0  0  0
    0.7460   22.6337   38.8300 C   0  0  0  0  0  0  0  0  0  0  0  0
    2.2820   19.5553   41.2313 C   0  0  0  0  0  0  0  0  0  0  0  0
    3.5768   19.0885   41.0330 O   0  0  0  0  0  0  0  0  0  0  0  0
    1.5466   19.0501   42.1484 O   0  0  0  0  0  0  0  0  0  0  0  0
   -0.1063   20.6255   41.3786 H   0  0  0  0  0  0  0  0  0  0  0  0
    3.5555   20.8536   39.2010 H   0  0  0  0  0  0  0  0  0  0  0  0
    2.6678   22.6281   37.8179 H   0  0  0  0  0  0  0  0  0  0  0  0
    0.3496   23.4404   38.1974 H   0  0  0  0  0  0  0  0  0  0  0  0
  1  2  1  0
  1  6  2  0
  2  3  2  0
  3  4  1  0
  3  7  1  0
  4  5  2  0
  5  6  1  0
  7  8  1  0
  7  9  2  0
  2 10  1  0
  4 11  1  0
  5 12  1  0
  6 13  1  0
M  CHG  1   8  -1
M  END
>  <mol_id>  (72) 
2026-09-18-3war-s0-n100-r1-0072

>  <rmsd_to_ref>  (72) 
3.7142857142889896

>  <pose_kind>  (72) 
conformer

$$$$
3war.A
     RDKit          3D

 13 13  0  0  0  0  0  0  0  0999 V2000
    0.5531   19.9378   40.2082 N   0  0  0  0  0  0  0  0  0  0  0  0
    1.3610   21.0869   40.3841 C   0  0  0  0  0  0  0  0  0  0  0  0
    2.5954   20.9166   41.1098 C   0  0  0  0  0  0  0  0  0  0  0  0
    2.9467   19.6833   41.6290 C   0  0  0  0  0  0  0  0  0  0  0  0
    2.1424   18.5864   41.4103 C   0  0  0  0  0  0  0  0  0  0  0  0
    0.9514   18.7364   40.7358 C   0  0  0  0  0  0  0  0  0  0  0  0
    3.4648   22.1265   41.4182 C   0  0  0  0  0  0  0  0  0  0  0  0
    3.2216   23.2121   40.8140 O   0  0  0  0  0  0  0  0  0  0  0  0
    4.3285   21.9323   42.2461 O   0  0  0  0  0  0  0  0  0  0  0  0
    1.0604   22.0667   39.9846 H   0  0  0  0  0  0  0  0  0  0  0  0
    3.8701   19.5783   42.2176 H   0  0  0  0  0  0  0  0  0  0  0  0
    2.4504   17.5947   41.7731 H   0  0  0  0  0  0  0  0  0  0  0  0
    0.2961   17.8611   40.6158 H   0  0  0  0  0  0  0  0  0  0  0  0
  1  2  1  0
  1  6  2  0
  2  3  2  0
  3  4  1  0
  3  7  1  0
  4  5  2  0
  5  6  1  0
  7  8  1  0
  7  9  2  0
  2 10  1  0
  4 11  1  0
  5 12  1  0
  6 13  1  0
M  CHG  1   8  -1
M  END
>  <mol_id>  (73) 
2026-09-18-3war-s0-n100-r1-0073

>  <rmsd_to_ref>  (73) 
3.7602040816346975

>  <pose_kind>  (73) 
rigid

$$$$
3war.A
     RDKit          3D

 13 13  0  0  0  0  0  0  0  0999 V2000
    1.1333   20.6864   40.5890 N   0  0  0  0  0  0  0  0  0  0  0  0
   -0.0556   20.1140   40.2982 C   0  0  0  0  0  0  0  0  0  0  0  0
   -0.1026   19.1149   39.3475 C   0  0  0  0  0  0  0  0  0  0  0  0
    1.0427   18.6974   38.6956 C   0  0  0  0  0  0  0  0  0  0  0  0
    2.2491   19.2914   39.0032 C   0  0  0  0  0  0  0  0  0  0  0  0
    2.2741   20.2998   39.9678 C   0  0  0  0  0  0  0  0  0  0  0  0
   -1.3948   18.4929   39.0317 C   0  0  0  0  0  0  0  0  0  0  0  0
   -1.4585   17.4849   38.0760 O   0  0  0  0  0  0  0  0  0  0  0  0
   -2.4551   18.8791   39.6349 O   0  0  0  0  0  0  0  0  0  0  0  0
   -0.9797   20.4030   40.7782 H   0  0  0  0  0  0  0  0  0  0  0  0
    1.0440   17.9268   37.9541 H   0  0  0  0  0  0  0  0  0  0  0  0
    3.1579   18.9699   38.4954 H   0  0  0  0  0  0  0  0  0  0  0  0
    3.2384   20.7691   40.2084 H   0  0  0  0  0  0  0  0  0  0  0  0
  1  2  1  0
  1  6  2  0
  2  3  2  0
  3  4  1  0
  3  7  1  0
  4  5  2  0
  5  6  1  0
  7  8  1  0
  7  9  2  0
  2 10  1  0
  4 11  1  0
  5 12  1  0
  6 13  1  0
M  CHG  1   8  -1
M  END
>  <mol_id>  (74) 
2026-09-18-3war-s0-n100-r1-0074

>  <rmsd_to_ref>  (74) 
3.8061224489797305

>  <pose_kind>  (74) 
conformer

$$$$
3war.A
     RDKit          3D

 13 13  0  0  0  0  0  0  0  0999 V2000
    5.5664   18.9687   39.2084 N   0  0  0  0  0  0  0  0  0  0  0  0
    4.9083   20.1772   39.5409 C   0  0  0  0  0  0  0  0  0  0  0  0
    3.6975   20.0732   40.3170 C   0  0  0  0  0  0  0  0  0  0  0  0
    3.1990   18.8373   40.6887 C   0  0  0  0  0  0  0  0  0  0  0  0
    3.8875   17.6885   40.3657 C   0  0  0  0  0  0  0  0  0  0  0  0
    5.0349   17.7698   39.6089 C   0  0  0  0  0  0  0  0  0  0  0  0
    2.8884   21.3236   40.6277 C   0  0  0  0  0  0  0  0  0  0  0  0
    3.4231   22.4528   40.4234 O   0  0  0  0  0  0  0  0  0  0  0  0
    1.7701   21.1130   41.0454 O   0  0  0  0  0  0  0  0  0  0  0  0
    5.3034   21.1528   39.2212 H   0  0  0  0  0  0  0  0  0  0  0  0
    2.2513   18.7717   41.2432 H   0  0  0  0  0  0  0  0  0  0  0  0
    3.5220   16.7102   40.7111 H   0  0  0  0  0  0  0  0  0  0  0  0
    5.5433   16.8396   39.3150 H   0  0  0  0  0  0  0  0  0  0  0  0
  1  2  1  0
  1  6  2  0
  2  3  2  0
  3  4  1  0
  3  7  1  0
  4  5  2  0
  5  6  1  0
  7  8  1  0
  7  9  2  0
  2 10  1  0
  4 11  1  0
  5 12  1  0
  6 13  1  0
M  CHG  1   8  -1
M  END
>  <mol_id>  (75) 
2026-09-18-3war-s0-n100-r1-0075

>  <rmsd_to_ref>  (75) 
3.852040816328225

>  <pose_kind>  (75) 
rigid

$$$$
3war.A
     RDKit          3D

 13 13  0  0  0  0  0  0  0  0999 V2000
    3.2781   16.9514   35.9835 N   0  0  0  0  0  0  0  0  0  0  0  0
    3.5700   17.8881   36.9025 C   0  0  0  0  0  0  0  0  0  0  0  0
    2.5329   18.3696   37.6990 C   0  0  0  0  0  0  0  0  0  0  0  0
    1.2463   17.9003   37.5498 C   0  0  0  0  0  0  0  0  0  0  0  0
    0.9783   16.9316   36.5900 C   0  0  0  0  0  0  0  0  0  0  0  0
    2.0375   16.4654   35.8039 C   0  0  0  0  0  0  0  0  0  0  0  0
    2.8807   19.3935   38.6959 C   0  0  0  0  0  0  0  0  0  0  0  0
    1.8330   19.8814   39.5020 O   0  0  0  0  0  0  0  0  0  0  0  0
    4.0562   19.8253   38.8354 O   0  0  0  0  0  0  0  0  0  0  0  0
    4.5788   18.2248   36.9862 H   0  0  0  0  0  0  0  0  0  0  0  0
    0.4784   18.3066   38.1926 H   0  0  0  0  0  0  0  0  0  0  0  0
   -0.0234   16.5821   36.4908 H   0  0  0  0  0  0  0  0  0  0  0  0
    1.7900   15.7120   35.0681 H   0  0  0  0  0  0  0  0  0  0  0  0
  1  2  1  0
  1  6  2  0
  2  3  2  0
  3  4  1  0
  3  7  1  0
  4  5  2  0
  5  6  1  0
  7  8  1  0
  7  9  2  0
  2 10  1  0
  4 11  1  0
  5 12  1  0
  6 13  1  0
M  CHG  1   8  -1
M  END
>  <mol_id>  (76) 
2026-09-18-3war-s0-n100-r1-0076

>  <rmsd_to_ref>  (76) 
3.8979591836739482

>  <pose_kind>  (76) 
conformer

$$$$
3war.A
     RDKit          3D

 13 13  0  0  0  0  0  0  0  0999 V2000
    4.8060   17.4325   36.7123 N   0  0  0  0  0  0  0  0  0  0  0  0
    4.2378   18.6314   37.2061 C   0  0  0  0  0  0  0  0  0  0  0  0
    3.5442   18.5580   38.4682 C   0  0  0  0  0  0  0  0  0  0  0  0
    3.4244   17.3550   39.1409 C   0  0  0  0  0  0  0  0  0  0  0  0
    4.0166   16.2183   38.6357 C   0  0  0  0  0  0  0  0  0  0  0  0
    4.6659   16.2679   37.4226 C   0  0  0  0  0  0  0  0  0  0  0  0
    2.8283   19.7859   39.0106 C   0  0  0  0  0  0  0  0  0  0  0  0
    3.0700   20.9083   38.4771 O   0  0  0  0  0  0  0  0  0  0  0  0
    2.0632   19.5644   39.9244 O   0  0  0  0  0  0  0  0  0  0  0  0
    4.3217   19.5775   36.6513 H   0  0  0  0  0  0  0  0  0  0  0  0
    2.8552   17.3059   40.0809 H   0  0  0  0  0  0  0  0  0  0  0  0
    3.9709   15.2748   39.1993 H   0  0  0  0  0  0  0  0  0  0  0  0
    5.0874   15.3401   37.0083 H   0  0  0  0  0  0  0  0  0  0  0  0
  1  2  1  0
  1  6  2  0
  2  3  2  0
  3  4  1  0
  3  7  1  0
  4  5  2  0
  5  6  1  0
  7  8  1  0
  7  9  2  0
  2 10  1  0
  4 11  1  0
  5 12  1  0
  6 13  1  0
M  CHG  1   8  -1
M  END
>  <mol_id>  (77) 
2026-09-18-3war-s0-n100-r1-0077

>  <rmsd_to_ref>  (77) 
3.943877551021598

>  <pose_kind>  (77) 
rigid

$$$$
3war.A
     RDKit          3D

 13 13  0  0  0  0  0  0  0  0999 V2000
    3.7959   22.6744   41.7061 N   0  0  0  0  0  0  0  0  0  0  0  0
    2.5680   22.6270   41.1386 C   0  0  0  0  0  0  0  0  0  0  0  0
    1.9487   21.4177   40.9052 C   0  0  0  0  0  0  0  0  0  0  0  0
    2.5305   20.2097   41.2290 C   0  0  0  0  0  0  0  0  0  0  0  0
    3.7978   20.2890   41.8133 C   0  0  0  0  0  0  0  0  0  0  0  0
    4.4036   21.5175   42.0396 C   0  0  0  0  0  0  0  0  0  0  0  0
    0.6248   21.4133   40.2913 C   0  0  0  0  0  0  0  0  0  0  0  0
   -0.0101   22.5997   39.9439 O   0  0  0  0  0  0  0  0  0  0  0  0
    0.0158   20.3376   40.0567 O   0  0  0  0  0  0  0  0  0  0  0  0
    2.0497   23.5477   40.8572 H   0  0  0  0  0  0  0  0  0  0  0  0
    2.0469   19.2637   41.0468 H   0  0  0  0  0  0  0  0  0  0  0  0
    4.3330   19.3828   42.1020 H   0  0  0  0  0  0  0  0  0  0  0  0
    5.3757   21.5477   42.4892 H   0  0  0  0  0  0  0  0  0  0  0  0
  1  2  1  0
  1  6  2  0
  2  3  2  0
  3  4  1  0
  3  7  1  0
  4  5  2  0
  5  6  1  0
  7  8  1  0
  7  9  2  0
  2 10  1  0
  4 11  1  0
  5 12  1  0
  6 13  1  0
M  CHG  1   8  -1
M  END
>  <mol_id>  (78) 
2026-09-18-3war-s0-n100-r1-0078

>  <rmsd_to_ref>  (78) 
3.9897959183683014

>  <pose_kind>  (78) 
conformer

$$$$
3war.A
     RDKit          3D

 13 13  0  0  0  0  0  0  0  0999 V2000
    2.9590   24.6343   39.0489 N   0  0  0  0  0  0  0  0  0  0  0  0
    2.2919   23.4368   38.6954 C   0  0  0  0  0  0  0  0  0  0  0  0
    2.5725   22.2689   39.4933 C   0  0  0  0  0  0  0  0  0  0  0  0
    3.4779   22.3263   40.5379 C   0  0  0  0  0  0  0  0  0  0  0  0
    4.0838   23.5202   40.8629 C   0  0  0  0  0  0  0  0  0  0  0  0
    3.8409   24.6396   40.0990 C   0  0  0  0  0  0  0  0  0  0  0  0
    1.9647   20.9275   39.1111 C   0  0  0  0  0  0  0  0  0  0  0  0
    1.0265   20.9121   38.2613 O   0  0  0  0  0  0  0  0  0  0  0  0
    2.4586   19.9703   39.6670 O   0  0  0  0  0  0  0  0  0  0  0  0
    1.5901   23.3988   37.8492 H   0  0  0  0  0  0  0  0  0  0  0  0
    3.7144   21.4171   41.1100 H   0  0  0  0  0  0  0  0  0  0  0  0
    4.7590   23.5788   41.7293 H   0  0  0  0  0  0  0  0  0  0  0  0
    4.3732   25.5717   40.3396 H   0  0  0  0  0  0  0  0  0  0  0  0
  1  2  1  0
  1  6  2  0
  2  3  2  0
  3  4  1  0
  3  7  1  0
  4  5  2  0
  5  6  1  0
  7  8  1  0
  7  9  2  0
  2 10  1  0
  4 11  1  0
  5 12  1  0
  6 13  1  0
M  CHG  1   8  -1
M  END
>  <mol_id>  (79) 
2026-09-18-3war-s0-n100-r1-0079

>  <rmsd_to_ref>  (79) 
4.035714285715639

>  <pose_kind>  (79) 
rigid

$$$$
3war.A
     RDKit          3D

 13 13  0  0  0  0  0  0  0  0999 V2000
    0.7935   18.8879   40.1770 N   0  0  0  0  0  0  0  0  0  0  0  0
    0.0112   19.9868   40.0701 C   0  0  0  0  0  0  0  0  0  0  0  0
   -0.5987   20.2698   38.8502 C   0  0  0  0  0  0  0  0  0  0  0  0
   -0.4279   19.4608   37.7458 C   0  0  0  0  0  0  0  0  0  0  0  0
    0.3791   18.3385   37.8784 C   0  0  0  0  0  0  0  0  0  0  0  0
    0.9645   18.0936   39.1024 C   0  0  0  0  0  0  0  0  0  0  0  0
   -1.4417   21.4612   38.7490 C   0  0  0  0  0  0  0  0  0  0  0  0
   -1.6337   22.2914   39.8329 O   0  0  0  0  0  0  0  0  0  0  0  0
   -1.9971   21.7223   37.6445 O   0  0  0  0  0  0  0  0  0  0  0  0
   -0.1266   20.6223   40.9269 H   0  0  0  0  0  0  0  0  0  0  0  0
   -0.9183   19.7147   36.8167 H   0  0  0  0  0  0  0  0  0  0  0  0
    0.5394   17.6753   37.0320 H   0  0  0  0  0  0  0  0  0  0  0  0
    1.5875   17.2094   39.1695 H   0  0  0  0  0  0  0  0  0  0  0  0
  1  2  1  0
  1  6  2  0
  2  3  2  0
  3  4  1  0
  3  7  1  0
  4  5  2  0
  5  6  1  0
  7  8  1  0
  7  9  2  0
  2 10  1  0
  4 11  1  0
  5 12  1  0
  6 13  1  0
M  CHG  1   8  -1
M  END
>  <mol_id>  (80) 
2026-09-18-3war-s0-n100-r1-0080

>  <rmsd_to_ref>  (80) 
4.08163265306296

>  <pose_kind>  (80) 
conformer

$$$$
3war.A
     RDKit          3D

 13 13  0  0  0  0  0  0  0  0999 V2000
    3.0663   17.6232   40.4868 N   0  0  0  0  0  0  0  0  0  0  0  0
    1.7833   17.6072   41.0850 C   0  0  0  0  0  0  0  0  0  0  0  0
    0.7057   18.2140   40.3435 C   0  0  0  0  0  0  0  0  0  0  0  0
    0.9376   18.8062   39.1148 C   0  0  0  0  0  0  0  0  0  0  0  0
    2.1977   18.7745   38.5588 C   0  0  0  0  0  0  0  0  0  0  0  0
    3.2409   18.2158   39.2626 C   0  0  0  0  0  0  0  0  0  0  0  0
   -0.6780   18.3172   40.9676 C   0  0  0  0  0  0  0  0  0  0  0  0
   -0.9191   17.6434   42.0119 O   0  0  0  0  0  0  0  0  0  0  0  0
   -1.4387   19.0658   40.3931 O   0  0  0  0  0  0  0  0  0  0  0  0
    1.6159   17.1519   42.0722 H   0  0  0  0  0  0  0  0  0  0  0  0
    0.1143   19.3033   38.5809 H   0  0  0  0  0  0  0  0  0  0  0  0
    2.3696   19.1938   37.5565 H   0  0  0  0  0  0  0  0  0  0  0  0
    4.2507   18.2460   38.8272 H   0  0  0  0  0  0  0  0  0  0  0  0
  1  2  1  0
  1  6  2  0
  2  3  2  0
  3  4  1  0
  3  7  1  0
  4  5  2  0
  5  6  1  0
  7  8  1  0
  7  9  2  0
  2 10  1  0
  4 11  1  0
  5 12  1  0
  6 13  1  0
M  CHG  1   8  -1
M  END
>  <mol_id>  (81) 
2026-09-18-3war-s0-n100-r1-0081

>  <rmsd_to_ref>  (81) 
4.127551020410749

>  <pose_kind>  (81) 
rigid

$$$$
3war.A
     RDKit          3D

 13 13  0  0  0  0  0  0  0  0999 V2000
    1.7527   18.4872   38.7138 N   0  0  0  0  0  0  0  0  0  0  0  0
    0.8419   19.2571   39.3096 C   0  0  0  0  0  0  0  0  0  0  0  0
    0.8328   19.2983   40.6891 C   0  0  0  0  0  0  0  0  0  0  0  0
    1.7432   18.5609   41.4144 C   0  0  0  0  0  0  0  0  0  0  0  0
    2.6630   17.7816   40.7349 C   0  0  0  0  0  0  0  0  0  0  0  0
    2.6750   17.7380   39.3543 C   0  0  0  0  0  0  0  0  0  0  0  0
   -0.1505   20.1308   41.3889 C   0  0  0  0  0  0  0  0  0  0  0  0
   -1.0673   20.8733   40.6579 O   0  0  0  0  0  0  0  0  0  0  0  0
   -0.1354   20.1491   42.6519 O   0  0  0  0  0  0  0  0  0  0  0  0
    0.1462   19.8190   38.6941 H   0  0  0  0  0  0  0  0  0  0  0  0
    1.7119   18.6135   42.5060 H   0  0  0  0  0  0  0  0  0  0  0  0
    3.3754   17.2048   41.3123 H   0  0  0  0  0  0  0  0  0  0  0  0
    3.4000   17.1233   38.8041 H   0  0  0  0  0  0  0  0  0  0  0  0
  1  2  1  0
  1  6  2  0
  2  3  2  0
  3  4  1  0
  3  7  1  0
  4  5  2  0
  5  6  1  0
  7  8  1  0
  7  9  2  0
  2 10  1  0
  4 11  1  0
  5 12  1  0
  6 13  1  0
M  CHG  1   8  -1
M  END
>  <mol_id>  (82) 
2026-09-18-3war-s0-n100-r1-0082

>  <rmsd_to_ref>  (82) 
4.173469387757819

>  <pose_kind>  (82) 
conformer

$$$$
3war.A
     RDKit          3D

 13 13  0  0  0  0  0  0  0  0999 V2000
    2.4921   21.5024   39.3793 N   0  0  0  0  0  0  0  0  0  0  0  0
    2.9867   21.0856   40.6385 C   0  0  0  0  0  0  0  0  0  0  0  0
    4.1363   20.2150   40.6368 C   0  0  0  0  0  0  0  0  0  0  0  0
    4.7022   19.7925   39.4472 C   0  0  0  0  0  0  0  0  0  0  0  0
    4.2038   20.2451   38.2452 C   0  0  0  0  0  0  0  0  0  0  0  0
    3.0951   21.0614   38.2294 C   0  0  0  0  0  0  0  0  0  0  0  0
    4.6611   19.6524   41.9493 C   0  0  0  0  0  0  0  0  0  0  0  0
    4.2436   20.1595   43.0315 O   0  0  0  0  0  0  0  0  0  0  0  0
    5.4465   18.7368   41.8304 O   0  0  0  0  0  0  0  0  0  0  0  0
    2.5148   21.4115   41.5772 H   0  0  0  0  0  0  0  0  0  0  0  0
    5.5517   19.0938   39.4610 H   0  0  0  0  0  0  0  0  0  0  0  0
    4.6898   19.9556   37.3018 H   0  0  0  0  0  0  0  0  0  0  0  0
    2.6781   21.3708   37.2597 H   0  0  0  0  0  0  0  0  0  0  0  0
  1  2  1  0
  1  6  2  0
  2  3  2  0
  3  4  1  0
  3  7  1  0
  4  5  2  0
  5  6  1  0
  7  8  1  0
  7  9  2  0
  2 10  1  0
  4 11  1  0
  5 12  1  0
  6 13  1  0
M  CHG  1   8  -1
M  END
>  <mol_id>  (83) 
2026-09-18-3war-s0-n100-r1-0083

>  <rmsd_to_ref>  (83) 
4.219387755102139

>  <pose_kind>  (83) 
rigid

$$$$
3war.A
     RDKit          3D

 13 13  0  0  0  0  0  0  0  0999 V2000
    0.8829   22.5440   39.3572 N   0  0  0  0  0  0  0  0  0  0  0  0
    1.5259   21.5265   40.0001 C   0  0  0  0  0  0  0  0  0  0  0  0
    0.9588   21.0035   41.1446 C   0  0  0  0  0  0  0  0  0  0  0  0
   -0.2304   21.4572   41.6764 C   0  0  0  0  0  0  0  0  0  0  0  0
   -0.8552   22.4931   40.9947 C   0  0  0  0  0  0  0  0  0  0  0  0
   -0.2950   23.0231   39.8480 C   0  0  0  0  0  0  0  0  0  0  0  0
    1.6412   19.9058   41.8484 C   0  0  0  0  0  0  0  0  0  0  0  0
    2.8490   19.4072   41.3538 O   0  0  0  0  0  0  0  0  0  0  0  0
    1.1126   19.4351   42.8949 O   0  0  0  0  0  0  0  0  0  0  0  0
    2.4691   21.1433   39.6065 H   0  0  0  0  0  0  0  0  0  0  0  0
   -0.6747   21.0446   42.5765 H   0  0  0  0  0  0  0  0  0  0  0  0
   -1.8003   22.8928   41.3702 H   0  0  0  0  0  0  0  0  0  0  0  0
   -0.8322   23.8295   39.3636 H   0  0  0  0  0  0  0  0  0  0  0  0
  1  2  1  0
  1  6  2  0
  2  3  2  0
  3  4  1  0
  3  7  1  0
  4  5  2  0
  5  6  1  0
  7  8  1  0
  7  9  2  0
  2 10  1  0
  4 11  1  0
  5 12  1  0
  6 13  1  0
M  CHG  1   8  -1
M  END
>  <mol_id>  (84) 
2026-09-18-3war-s0-n100-r1-0084

>  <rmsd_to_ref>  (84) 
4.265306122449667

>  <pose_kind>  (84) 
conformer

$$$$
3war.A
     RDKit          3D

 13 13  0  0  0  0  0  0  0  0999 V2000
    3.4051   21.2587   35.2964 N   0  0  0  0  0  0  0  0  0  0  0  0
    2.4252   21.9851   36.0149 C   0  0  0  0  0  0  0  0  0  0  0  0
    2.2011   21.6044   37.3875 C   0  0  0  0  0  0  0  0  0  0  0  0
    2.9019   20.5547   37.9543 C   0  0  0  0  0  0  0  0  0  0  0  0
    3.8656   19.8932   37.2252 C   0  0  0  0  0  0  0  0  0  0  0  0
    4.0780   20.2321   35.9077 C   0  0  0  0  0  0  0  0  0  0  0  0
    1.0972   22.2781   38.1889 C   0  0  0  0  0  0  0  0  0  0  0  0
    0.5716   23.3311   37.7225 O   0  0  0  0  0  0  0  0  0  0  0  0
    0.8103   21.7195   39.2257 O   0  0  0  0  0  0  0  0  0  0  0  0
    1.8595   22.8040   35.5465 H   0  0  0  0  0  0  0  0  0  0  0  0
    2.6892   20.2477   38.9889 H   0  0  0  0  0  0  0  0  0  0  0  0
    4.4631   19.0973   37.6938 H   0  0  0  0  0  0  0  0  0  0  0  0
    4.8138   19.6588   35.3246 H   0  0  0  0  0  0  0  0  0  0  0  0
  1  2  1  0
  1  6  2  0
  2  3  2  0
  3  4  1  0
  3  7  1  0
  4  5  2  0
  5  6  1  0
  7  8  1  0
  7  9  2  0
  2 10  1  0
  4 11  1  0
  5 12  1  0
  6 13  1  0
M  CHG  1   8  -1
M  END
>  <mol_id>  (85) 
2026-09-18-3war-s0-n100-r1-0085

>  <rmsd_to_ref>  (85) 
4.311224489797499

>  <pose_kind>  (85) 
rigid

$$$$
3war.A
     RDKit          3D

 13 13  0  0  0  0  0  0  0  0999 V2000
    1.3389   20.4724   39.0131 N   0  0  0  0  0  0  0  0  0  0  0  0
    0.6344   19.5482   39.7198 C   0  0  0  0  0  0  0  0  0  0  0  0
    0.3630   19.7850   41.0589 C   0  0  0  0  0  0  0  0  0  0  0  0
    0.7798   20.9268   41.7120 C   0  0  0  0  0  0  0  0  0  0  0  0
    1.4998   21.8504   40.9523 C   0  0  0  0  0  0  0  0  0  0  0  0
    1.7665   21.6093   39.6211 C   0  0  0  0  0  0  0  0  0  0  0  0
   -0.3912   18.8093   41.8395 C   0  0  0  0  0  0  0  0  0  0  0  0
   -0.8686   17.6196   41.3039 O   0  0  0  0  0  0  0  0  0  0  0  0
   -0.6132   19.0716   43.0581 O   0  0  0  0  0  0  0  0  0  0  0  0
    0.2782   18.6414   39.2857 H   0  0  0  0  0  0  0  0  0  0  0  0
    0.5744   21.1214   42.7536 H   0  0  0  0  0  0  0  0  0  0  0  0
    1.8271   22.7469   41.4650 H   0  0  0  0  0  0  0  0  0  0  0  0
    2.3368   22.3679   39.0681 H   0  0  0  0  0  0  0  0  0  0  0  0
  1  2  1  0
  1  6  2  0
  2  3  2  0
  3  4  1  0
  3  7  1  0
  4  5  2  0
  5  6  1  0
  7  8  1  0
  7  9  2  0
  2 10  1  0
  4 11  1  0
  5 12  1  0
  6 13  1  0
M  CHG  1   8  -1
M  END
>  <mol_id>  (86) 
2026-09-18-3war-s0-n100-r1-0086

>  <rmsd_to_ref>  (86) 
4.357142857143317

>  <pose_kind>  (86) 
conformer

$$$$
3war.A
     RDKit          3D

 13 13  0  0  0  0  0  0  0  0999 V2000
    0.6513   22.8175   39.4157 N   0  0  0  0  0  0  0  0  0  0  0  0
    0.0585   21.9973   40.4056 C   0  0  0  0  0  0  0  0  0  0  0  0
    0.5841   20.6626   40.5532 C   0  0  0  0  0  0  0  0  0  0  0  0
    1.6048   20.2096   39.7364 C   0  0  0  0  0  0  0  0  0  0  0  0
    2.1697   21.0520   38.8041 C   0  0  0  0  0  0  0  0  0  0  0  0
    1.6664   22.3227   38.6379 C   0  0  0  0  0  0  0  0  0  0  0  0
   -0.0683   19.6964   41.5307 C   0  0  0  0  0  0  0  0  0  0  0  0
   -0.8893   20.1585   42.3763 O   0  0  0  0  0  0  0  0  0  0  0  0
    0.2633   18.5383   41.3963 O   0  0  0  0  0  0  0  0  0  0  0  0
   -0.7669   22.3621   41.0346 H   0  0  0  0  0  0  0  0  0  0  0  0
    1.9658   19.1749   39.8315 H   0  0  0  0  0  0  0  0  0  0  0  0
    3.0196   20.7106   38.1949 H   0  0  0  0  0  0  0  0  0  0  0  0
    2.0940   22.9640   37.8531 H   0  0  0  0  0  0  0  0  0  0  0  0
  1  2  1  0
  1  6  2  0
  2  3  2  0
  3  4  1  0
  3  7  1  0
  4  5  2  0
  5  6  1  0
  7  8  1  0
  7  9  2  0
  2 10  1  0
  4 11  1  0
  5 12  1  0
  6 13  1  0
M  CHG  1   8  -1
M  END
>  <mol_id>  (87) 
2026-09-18-3war-s0-n100-r1-0087

>  <rmsd_to_ref>  (87) 
4.4030612244904095

>  <pose_kind>  (87) 
rigid

$$$$
3war.A
     RDKit          3D

 13 13  0  0  0  0  0  0  0  0999 V2000
    1.9027   18.1794   39.0030 N   0  0  0  0  0  0  0  0  0  0  0  0
    2.3728   18.8510   40.0953 C   0  0  0  0  0  0  0  0  0  0  0  0
    2.9954   18.1847   41.1375 C   0  0  0  0  0  0  0  0  0  0  0  0
    3.1346   16.8286   41.0565 C   0  0  0  0  0  0  0  0  0  0  0  0
    2.6649   16.1170   39.9543 C   0  0  0  0  0  0  0  0  0  0  0  0
    2.0516   16.8365   38.9442 C   0  0  0  0  0  0  0  0  0  0  0  0
    3.4629   18.9896   42.2594 C   0  0  0  0  0  0  0  0  0  0  0  0
    4.1016   18.4201   43.3579 O   0  0  0  0  0  0  0  0  0  0  0  0
    3.3177   20.2501   42.3041 O   0  0  0  0  0  0  0  0  0  0  0  0
    2.2305   19.9297   40.0982 H   0  0  0  0  0  0  0  0  0  0  0  0
    3.6189   16.3032   41.8652 H   0  0  0  0  0  0  0  0  0  0  0  0
    2.7629   15.0532   39.8689 H   0  0  0  0  0  0  0  0  0  0  0  0
    1.6634   16.3473   38.0592 H   0  0  0  0  0  0  0  0  0  0  0  0
  1  2  1  0
  1  6  2  0
  2  3  2  0
  3  4  1  0
  3  7  1  0
  4  5  2  0
  5  6  1  0
  7  8  1  0
  7  9  2  0
  2 10  1  0
  4 11  1  0
  5 12  1  0
  6 13  1  0
M  CHG  1   8  -1
M  END
>  <mol_id>  (88) 
2026-09-18-3war-s0-n100-r1-0088

>  <rmsd_to_ref>  (88) 
4.448979591837688

>  <pose_kind>  (88) 
conformer

$$$$
3war.A
     RDKit          3D

 13 13  0  0  0  0  0  0  0  0999 V2000
    5.1324   18.9186   38.7098 N   0  0  0  0  0  0  0  0  0  0  0  0
    4.7389   19.3252   40.0074 C   0  0  0  0  0  0  0  0  0  0  0  0
    4.6593   20.7436   40.2549 C   0  0  0  0  0  0  0  0  0  0  0  0
    4.9837   21.6540   39.2650 C   0  0  0  0  0  0  0  0  0  0  0  0
    5.3359   21.2128   38.0083 C   0  0  0  0  0  0  0  0  0  0  0  0
    5.4349   19.8619   37.7616 C   0  0  0  0  0  0  0  0  0  0  0  0
    4.3361   21.2507   41.6525 C   0  0  0  0  0  0  0  0  0  0  0  0
    3.8922   20.4261   42.5043 O   0  0  0  0  0  0  0  0  0  0  0  0
    4.5503   22.4312   41.8255 O   0  0  0  0  0  0  0  0  0  0  0  0
    4.5040   18.5914   40.7924 H   0  0  0  0  0  0  0  0  0  0  0  0
    4.9602   22.7322   39.4817 H   0  0  0  0  0  0  0  0  0  0  0  0
    5.5373   21.9370   37.2052 H   0  0  0  0  0  0  0  0  0  0  0  0
    5.7686   19.5273   36.7682 H   0  0  0  0  0  0  0  0  0  0  0  0
  1  2  1  0
  1  6  2  0
  2  3  2  0
  3  4  1  0
  3  7  1  0
  4  5  2  0
  5  6  1  0
  7  8  1  0
  7  9  2  0
  2 10  1  0
  4 11  1  0
  5 12  1  0
  6 13  1  0
M  CHG  1   8  -1
M  END
>  <mol_id>  (89) 
2026-09-18-3war-s0-n100-r1-0089

>  <rmsd_to_ref>  (89) 
4.494897959184881

>  <pose_kind>  (89) 
rigid

$$$$
3war.A
     RDKit          3D

 13 13  0  0  0  0  0  0  0  0999 V2000
    1.4359   22.2001   39.6781 N   0  0  0  0  0  0  0  0  0  0  0  0
    0.9897   21.5786   40.8044 C   0  0  0  0  0  0  0  0  0  0  0  0
    1.8444   20.6870   41.4201 C   0  0  0  0  0  0  0  0  0  0  0  0
    3.1101   20.4030   40.9514 C   0  0  0  0  0  0  0  0  0  0  0  0
    3.5114   21.0732   39.7902 C   0  0  0  0  0  0  0  0  0  0  0  0
    2.6709   21.9693   39.1591 C   0  0  0  0  0  0  0  0  0  0  0  0
    1.3849   20.0108   42.6282 C   0  0  0  0  0  0  0  0  0  0  0  0
    0.1237   20.2454   43.1597 O   0  0  0  0  0  0  0  0  0  0  0  0
    2.1103   19.1852   43.2423 O   0  0  0  0  0  0  0  0  0  0  0  0
   -0.0075   21.7885   41.1922 H   0  0  0  0  0  0  0  0  0  0  0  0
    3.7620   19.7113   41.4365 H   0  0  0  0  0  0  0  0  0  0  0  0
    4.4929   20.9029   39.3603 H   0  0  0  0  0  0  0  0  0  0  0  0
    2.9617   22.5031   38.2536 H   0  0  0  0  0  0  0  0  0  0  0  0
  1  2  1  0
  1  6  2  0
  2  3  2  0
  3  4  1  0
  3  7  1  0
  4  5  2  0
  5  6  1  0
  7  8  1  0
  7  9  2  0
  2 10  1  0
  4 11  1  0
  5 12  1  0
  6 13  1  0
M  CHG  1   8  -1
M  END
>  <mol_id>  (90) 
2026-09-18-3war-s0-n100-r1-0090

>  <rmsd_to_ref>  (90) 
4.540816326532632

>  <pose_kind>  (90) 
conformer

$$$$
3war.A
     RDKit          3D

 13 13  0  0  0  0  0  0  0  0999 V2000
    2.1376   20.1159   35.8711 N   0  0  0  0  0  0  0  0  0  0  0  0
    1.4714   20.3600   37.0961 C   0  0  0  0  0  0  0  0  0  0  0  0
    0.6906   21.5688   37.1891 C   0  0  0  0  0  0  0  0  0  0  0  0
    0.6283   22.4545   36.1281 C   0  0  0  0  0  0  0  0  0  0  0  0
    1.2714   22.1627   34.9452 C   0  0  0  0  0  0  0  0  0  0  0  0
    2.0363   21.0221   34.8469 C   0  0  0  0  0  0  0  0  0  0  0  0
    0.0271   21.9413   38.5066 C   0  0  0  0  0  0  0  0  0  0  0  0
   -0.0426   21.0624   39.4151 O   0  0  0  0  0  0  0  0  0  0  0  0
   -0.3758   23.0829   38.5663 O   0  0  0  0  0  0  0  0  0  0  0  0
    1.5460   19.6583   37.9399 H   0  0  0  0  0  0  0  0  0  0  0  0
    0.0642   23.3934   36.2292 H   0  0  0  0  0  0  0  0  0  0  0  0
    1.1741   22.8383   34.0826 H   0  0  0  0  0  0  0  0  0  0  0  0
    2.5859   20.8309   33.9134 H   0  0  0  0  0  0  0  0  0  0  0  0
  1  2  1  0
  1  6  2  0
  2  3  2  0
  3  4  1  0
  3  7  1  0
  4  5  2  0
  5  6  1  0
  7  8  1  0
  7  9  2  0
  2 10  1  0
  4 11  1  0
  5 12  1  0
  6 13  1  0
M  CHG  1   8  -1
M  END
>  <mol_id>  (91) 
2026-09-18-3war-s0-n100-r1-0091

>  <rmsd_to_ref>  (91) 
4.58673469387821

>  <pose_kind>  (91) 
rigid

$$$$
3war.A
     RDKit          3D

 13 13  0  0  0  0  0  0  0  0999 V2000
   -1.6567   20.1429   36.8791 N   0  0  0  0  0  0  0  0  0  0  0  0
   -1.1584   20.3871   38.1098 C   0  0  0  0  0  0  0  0  0  0  0  0
   -0.4136   19.4497   38.7960 C   0  0  0  0  0  0  0  0  0  0  0  0
   -0.1616   18.2208   38.2208 C   0  0  0  0  0  0  0  0  0  0  0  0
   -0.6835   17.9983   36.9612 C   0  0  0  0  0  0  0  0  0  0  0  0
   -1.4297   18.9441   36.2795 C   0  0  0  0  0  0  0  0  0  0  0  0
    0.1062   19.7533   40.1233 C   0  0  0  0  0  0  0  0  0  0  0  0
   -0.1509   20.9930   40.6977 O   0  0  0  0  0  0  0  0  0  0  0  0
    0.7781   18.9422   40.7728 O   0  0  0  0  0  0  0  0  0  0  0  0
   -1.3762   21.3715   38.5383 H   0  0  0  0  0  0  0  0  0  0  0  0
    0.4162   17.4533   38.7174 H   0  0  0  0  0  0  0  0  0  0  0  0
   -0.5152   17.0652   36.4774 H   0  0  0  0  0  0  0  0  0  0  0  0
   -1.8400   18.7672   35.2876 H   0  0  0  0  0  0  0  0  0  0  0  0
  1  2  1  0
  1  6  2  0
  2  3  2  0
  3  4  1  0
  3  7  1  0
  4  5  2  0
  5  6  1  0
  7  8  1  0
  7  9  2  0
  2 10  1  0
  4 11  1  0
  5 12  1  0
  6 13  1  0
M  CHG  1   8  -1
M  END
>  <mol_id>  (92) 
2026-09-18-3war-s0-n100-r1-0092

>  <rmsd_to_ref>  (92) 
4.632653061225541

>  <pose_kind>  (92) 
conformer

$$$$
3war.A
     RDKit          3D

 13 13  0  0  0  0  0  0  0  0999 V2000
    0.4135   22.7574   37.6535 N   0  0  0  0  0  0  0  0  0  0  0  0
    0.1576   22.6748   39.0433 C   0  0  0  0  0  0  0  0  0  0  0  0
    1.2425   22.2358   39.8856 C   0  0  0  0  0  0  0  0  0  0  0  0
    2.4656   21.8878   39.3404 C   0  0  0  0  0  0  0  0  0  0  0  0
    2.6779   22.0094   37.9847 C   0  0  0  0  0  0  0  0  0  0  0  0
    1.6464   22.4089   37.1648 C   0  0  0  0  0  0  0  0  0  0  0  0
    1.0093   22.0325   41.3753 C   0  0  0  0  0  0  0  0  0  0  0  0
   -0.0516   22.4962   41.8872 O   0  0  0  0  0  0  0  0  0  0  0  0
    1.8845   21.4182   41.9462 O   0  0  0  0  0  0  0  0  0  0  0  0
   -0.8259   22.9341   39.4624 H   0  0  0  0  0  0  0  0  0  0  0  0
    3.2699   21.5132   39.9907 H   0  0  0  0  0  0  0  0  0  0  0  0
    3.6678   21.7882   37.5588 H   0  0  0  0  0  0  0  0  0  0  0  0
    1.8175   22.4498   36.0790 H   0  0  0  0  0  0  0  0  0  0  0  0
  1  2  1  0
  1  6  2  0
  2  3  2  0
  3  4  1  0
  3  7  1  0
  4  5  2  0
  5  6  1  0
  7  8  1  0
  7  9  2  0
  2 10  1  0
  4 11  1  0
  5 12  1  0
  6 13  1  0
M  CHG  1   8  -1
M  END
>  <mol_id>  (93) 
2026-09-18-3war-s0-n100-r1-0093

>  <rmsd_to_ref>  (93) 
4.67857142857324

>  <pose_kind>  (93) 
rigid

$$$$
3war.A
     RDKit          3D

 13 13  0  0  0  0  0  0  0  0999 V2000
    6.4672   21.8379   37.4746 N   0  0  0  0  0  0  0  0  0  0  0  0
    5.9750   21.7298   38.7382 C   0  0  0  0  0  0  0  0  0  0  0  0
    4.6539   21.3694   38.9055 C   0  0  0  0  0  0  0  0  0  0  0  0
    3.8201   21.1163   37.8358 C   0  0  0  0  0  0  0  0  0  0  0  0
    4.3450   21.2332   36.5617 C   0  0  0  0  0  0  0  0  0  0  0  0
    5.6693   21.5945   36.3973 C   0  0  0  0  0  0  0  0  0  0  0  0
    4.1039   21.2473   40.2547 C   0  0  0  0  0  0  0  0  0  0  0  0
    4.9197   21.4963   41.3663 O   0  0  0  0  0  0  0  0  0  0  0  0
    2.8986   20.9186   40.4124 O   0  0  0  0  0  0  0  0  0  0  0  0
    6.6361   21.9302   39.5740 H   0  0  0  0  0  0  0  0  0  0  0  0
    2.7827   20.8330   37.9501 H   0  0  0  0  0  0  0  0  0  0  0  0
    3.7689   21.0550   35.6689 H   0  0  0  0  0  0  0  0  0  0  0  0
    6.1306   21.7004   35.4223 H   0  0  0  0  0  0  0  0  0  0  0  0
  1  2  1  0
  1  6  2  0
  2  3  2  0
  3  4  1  0
  3  7  1  0
  4  5  2  0
  5  6  1  0
  7  8  1  0
  7  9  2  0
  2 10  1  0
  4 11  1  0
  5 12  1  0
  6 13  1  0
M  CHG  1   8  -1
M  END
>  <mol_id>  (94) 
2026-09-18-3war-s0-n100-r1-0094

>  <rmsd_to_ref>  (94) 
4.72448979591867

>  <pose_kind>  (94) 
conformer

$$$$
3war.A
     RDKit          3D

 13 13  0  0  0  0  0  0  0  0999 V2000
    3.7434   17.9348   38.2608 N   0  0  0  0  0  0  0  0  0  0  0  0
    2.8112   18.1170   39.3105 C   0  0  0  0  0  0  0  0  0  0  0  0
    2.0793   16.9540   39.7477 C   0  0  0  0  0  0  0  0  0  0  0  0
    2.2714   15.7267   39.1387 C   0  0  0  0  0  0  0  0  0  0  0  0
    3.2090   15.5904   38.1385 C   0  0  0  0  0  0  0  0  0  0  0  0
    3.9021   16.6950   37.6968 C   0  0  0  0  0  0  0  0  0  0  0  0
    0.9942   17.0962   40.8046 C   0  0  0  0  0  0  0  0  0  0  0  0
    0.9317   18.1764   41.4616 O   0  0  0  0  0  0  0  0  0  0  0  0
    0.2637   16.1350   40.9136 O   0  0  0  0  0  0  0  0  0  0  0  0
    2.6521   19.1026   39.7723 H   0  0  0  0  0  0  0  0  0  0  0  0
    1.6745   14.8581   39.4537 H   0  0  0  0  0  0  0  0  0  0  0  0
    3.4030   14.6029   37.6944 H   0  0  0  0  0  0  0  0  0  0  0  0
    4.6086   16.5789   36.8617 H   0  0  0  0  0  0  0  0  0  0  0  0
  1  2  1  0
  1  6  2  0
  2  3  2  0
  3  4  1  0
  3  7  1  0
  4  5  2  0
  5  6  1  0
  7  8  1  0
  7  9  2  0
  2 10  1  0
  4 11  1  0
  5 12  1  0
  6 13  1  0
M  CHG  1   8  -1
M  END
>  <mol_id>  (95) 
2026-09-18-3war-s0-n100-r1-0095

>  <rmsd_to_ref>  (95) 
4.7704081632667314

>  <pose_kind>  (95) 
rigid

$$$$
3war.A
     RDKit          3D

 13 13  0  0  0  0  0  0  0  0999 V2000
    5.7057   20.6538   35.6660 N   0  0  0  0  0  0  0  0  0  0  0  0
    5.2735   20.6568   37.0140 C   0  0  0  0  0  0  0  0  0  0  0  0
    4.7572   19.4176   37.5406 C   0  0  0  0  0  0  0  0  0  0  0  0
    4.6691   18.2914   36.7418 C   0  0  0  0  0  0  0  0  0  0  0  0
    5.1267   18.3275   35.4429 C   0  0  0  0  0  0  0  0  0  0  0  0
    5.6047   19.5079   34.9196 C   0  0  0  0  0  0  0  0  0  0  0  0
    4.1870   19.3738   38.9504 C   0  0  0  0  0  0  0  0  0  0  0  0
    4.4107   20.3531   39.7208 O   0  0  0  0  0  0  0  0  0  0  0  0
    3.5446   18.3784   39.2067 O   0  0  0  0  0  0  0  0  0  0  0  0
    5.3290   21.5646   37.6327 H   0  0  0  0  0  0  0  0  0  0  0  0
    4.2328   17.3654   37.1446 H   0  0  0  0  0  0  0  0  0  0  0  0
    5.1103   17.4168   34.8262 H   0  0  0  0  0  0  0  0  0  0  0  0
    5.9168   19.5327   33.8651 H   0  0  0  0  0  0  0  0  0  0  0  0
  1  2  1  0
  1  6  2  0
  2  3  2  0
  3  4  1  0
  3  7  1  0
  4  5  2  0
  5  6  1  0
  7  8  1  0
  7  9  2  0
  2 10  1  0
  4 11  1  0
  5 12  1  0
  6 13  1  0
M  CHG  1   8  -1
M  END
>  <mol_id>  (96) 
2026-09-18-3war-s0-n100-r1-0096

>  <rmsd_to_ref>  (96) 
4.862244897960384

>  <pose_kind>  (96) 
rigid

$$$$
