
     RDKit          3D

 61 64  0  0  0  0  0  0  0  0999 V2000
    2.1190   19.1710   40.4840 C   0  0  0  0  0  0  0  0  0  0  0  0
    1.7170   16.6300   41.1890 C   0  0  0  0  0  0  0  0  0  0  0  0
    3.5080   18.3840   37.2110 C   0  0  0  0  0  0  0  0  0  0  0  0
   -0.0340   12.5750   45.1620 C   0  0  0  0  0  0  0  0  0  0  0  0
    1.0370   17.6640   42.0270 C   0  0  0  0  0  0  0  0  0  0  0  0
    1.2600   18.8720   41.5980 C   0  0  0  0  0  0  0  0  0  0  0  0
   -0.2330   14.9050   44.4270 N   0  0  0  0  0  0  0  0  0  0  0  0
    4.2800   20.7040   35.2570 N   0  0  0  0  0  0  0  0  0  0  0  0
    0.7490   14.9400   43.6240 O   0  0  0  0  0  0  0  0  0  0  0  0
    2.0180   21.2690   38.1580 C   0  0  0  0  0  0  0  0  0  0  0  0
    3.3140   21.0490   36.0160 C   0  0  0  0  0  0  0  0  0  0  0  0
   -0.9370   13.5650   44.4060 C   0  0  0  0  0  0  0  0  0  0  0  0
    2.8000   20.6430   37.1210 C   0  0  0  0  0  0  0  0  0  0  0  0
   -0.2380   20.1280   42.9120 C   0  0  0  0  0  0  0  0  0  0  0  0
   -0.5970   19.0470   43.7500 C   0  0  0  0  0  0  0  0  0  0  0  0
   -0.5340   17.9130   46.7150 S   0  0  0  0  0  0  0  0  0  0  0  0
   -1.2620   16.3180   48.9080 C   0  0  0  0  0  0  0  0  0  0  0  0
   -0.0200   17.6550   43.6990 C   0  0  0  0  0  0  0  0  0  0  0  0
   -0.9220   15.4270   46.6110 N   0  0  0  0  0  0  0  0  0  0  0  0
    2.6530   21.9650   35.5710 N   0  0  0  0  0  0  0  0  0  0  0  0
   -1.1170   19.4630   44.8180 O   0  0  0  0  0  0  0  0  0  0  0  0
   -2.6300   15.7480   49.2170 C   0  0  0  0  0  0  0  0  0  0  0  0
    2.8060   18.2830   39.8180 C   0  0  0  0  0  0  0  0  0  0  0  0
   -0.5300   15.8460   45.4000 C   0  0  0  0  0  0  0  0  0  0  0  0
    3.2550   18.6840   38.4660 N   0  0  0  0  0  0  0  0  0  0  0  0
    3.1730   22.4010   34.5130 O   0  0  0  0  0  0  0  0  0  0  0  0
   -0.4140   17.1460   45.1650 N   0  0  0  0  0  0  0  0  0  0  0  0
   -0.9590   16.3810   47.5010 C   0  0  0  0  0  0  0  0  0  0  0  0
    0.6530   20.0070   42.0080 C   0  0  0  0  0  0  0  0  0  0  0  0
    4.2260   21.6540   34.2960 N   0  0  0  0  0  0  0  0  0  0  0  0
    2.5430   16.9330   40.1990 C   0  0  0  0  0  0  0  0  0  0  0  0
    2.9220   19.9830   38.3730 C   0  0  0  0  0  0  0  0  0  0  0  0
    2.2031   20.2222   40.1710 H   0  0  0  0  0  0  0  0  0  0  0  0
    1.5226   15.5689   41.4043 H   0  0  0  0  0  0  0  0  0  0  0  0
    4.2167   17.5437   37.1706 H   0  0  0  0  0  0  0  0  0  0  0  0
    2.5729   18.0997   36.7063 H   0  0  0  0  0  0  0  0  0  0  0  0
    3.9461   19.2577   36.7063 H   0  0  0  0  0  0  0  0  0  0  0  0
   -0.1622   12.7156   46.2454 H   0  0  0  0  0  0  0  0  0  0  0  0
   -0.3107   11.5455   44.8905 H   0  0  0  0  0  0  0  0  0  0  0  0
    1.0165   12.7561   44.8905 H   0  0  0  0  0  0  0  0  0  0  0  0
    0.4185   17.4304   42.9062 H   0  0  0  0  0  0  0  0  0  0  0  0
    1.5946   14.9701   44.1379 H   0  0  0  0  0  0  0  0  0  0  0  0
    0.9208   21.1906   38.1586 H   0  0  0  0  0  0  0  0  0  0  0  0
    1.9306   22.2715   38.6022 H   0  0  0  0  0  0  0  0  0  0  0  0
   -1.9141   13.6430   44.9051 H   0  0  0  0  0  0  0  0  0  0  0  0
   -1.1132   13.2285   43.3737 H   0  0  0  0  0  0  0  0  0  0  0  0
    2.8779   20.2480   36.0973 H   0  0  0  0  0  0  0  0  0  0  0  0
   -0.7401   21.0978   43.0434 H   0  0  0  0  0  0  0  0  0  0  0  0
   -1.2107   17.3370   49.3191 H   0  0  0  0  0  0  0  0  0  0  0  0
   -0.5242   15.6408   49.3630 H   0  0  0  0  0  0  0  0  0  0  0  0
   -0.4904   17.0452   42.9136 H   0  0  0  0  0  0  0  0  0  0  0  0
    1.0525   17.6032   43.4600 H   0  0  0  0  0  0  0  0  0  0  0  0
    1.7907   22.3318   35.9986 H   0  0  0  0  0  0  0  0  0  0  0  0
   -2.7659   15.6914   50.3071 H   0  0  0  0  0  0  0  0  0  0  0  0
   -3.4045   16.3983   48.7842 H   0  0  0  0  0  0  0  0  0  0  0  0
   -2.7136   14.7402   48.7842 H   0  0  0  0  0  0  0  0  0  0  0  0
   -1.5779   15.8607   45.0659 H   0  0  0  0  0  0  0  0  0  0  0  0
    0.9633   20.9340   41.5037 H   0  0  0  0  0  0  0  0  0  0  0  0
    4.8987   21.7701   33.5247 H   0  0  0  0  0  0  0  0  0  0  0  0
    3.0420   16.1186   39.6533 H   0  0  0  0  0  0  0  0  0  0  0  0
    3.3387   19.6676   39.3409 H   0  0  0  0  0  0  0  0  0  0  0  0
  1  6  2  0
  2  5  2  0
  3 25  1  0
  6 29  1  0
  6  5  1  0
  8 11  2  0
  9  7  1  0
 10 32  1  0
 12  7  1  0
 12  4  1  0
 13 11  1  0
 13 10  1  0
 13 32  1  0
 14 15  1  0
 15 21  2  0
 16 28  1  0
 17 22  1  0
 18 15  1  0
 18 27  1  0
 19 28  2  0
 20 11  1  0
 23 31  2  0
 23  1  1  0
 24  7  1  0
 24 19  1  0
 25 23  1  0
 26 20  1  0
 27 24  1  0
 27 16  1  0
 28 17  1  0
 29 14  2  3
 30 26  1  0
 30  8  1  0
 31  2  1  0
 32 25  1  0
  1 33  1  0
  2 34  1  0
  3 35  1  0
  3 36  1  0
  3 37  1  0
  4 38  1  0
  4 39  1  0
  4 40  1  0
  5 41  1  0
  9 42  1  0
 10 43  1  0
 10 44  1  0
 12 45  1  0
 12 46  1  0
 13 47  1  0
 14 48  1  0
 17 49  1  0
 17 50  1  0
 18 51  1  0
 18 52  1  0
 20 53  1  0
 22 54  1  0
 22 55  1  0
 22 56  1  0
 24 57  1  0
 29 58  1  0
 30 59  1  0
 31 60  1  0
 32 61  1  0
M  END
>  <mol_id>  (1) 
2026-08-24-6tgu-s0-n20-refligand-0001

>  <rmsd_to_ref>  (1) 


$$$$

     RDKit          3D

 35 38  0  0  0  0  0  0  0  0999 V2000
    0.3420   20.2300   41.7450 N   0  0  0  0  0  0  0  0  0  0  0  0
    1.8090   16.7560   41.1430 C   0  0  0  0  0  0  0  0  0  0  0  0
    1.0680   16.6130   42.4820 C   0  0  0  0  0  0  0  0  0  0  0  0
   -1.0370   15.9560   44.1270 N   0  0  0  0  0  4  0  0  0  0  0  0
    3.1600   16.4360   38.5570 O   0  0  0  0  0  0  0  0  0  0  0  0
    0.8590   18.9340   41.7630 C   0  0  0  0  0  0  0  0  0  0  0  0
    0.7260   21.0880   40.8670 C   0  0  0  0  0  0  0  0  0  0  0  0
    3.6780   18.3070   37.4040 C   0  0  0  0  0  0  0  0  0  0  0  0
    4.2510   17.3470   36.6330 N   0  0  0  0  0  0  0  0  0  0  0  0
    1.5320   21.0700   39.7750 C   0  0  0  0  0  0  0  0  0  0  0  0
    3.6250   19.7070   37.0200 N   0  0  0  0  0  0  0  0  0  0  0  0
    0.5370   18.0930   42.8140 C   0  0  0  0  0  0  0  0  0  0  0  0
    2.9930   17.7720   38.5550 C   0  0  0  0  0  0  0  0  0  0  0  0
    3.8710   16.2330   37.2870 C   0  0  0  0  0  0  0  0  0  0  0  0
   -0.6840   19.3870   44.2170 O   0  0  0  0  0  0  0  0  0  0  0  0
    2.2460   18.5810   39.4760 C   0  0  0  0  0  0  0  0  0  0  0  0
    2.9160   20.4550   37.8190 C   0  0  0  0  0  0  0  0  0  0  0  0
    2.2650   20.0530   39.0520 C   0  0  0  0  0  0  0  0  0  0  0  0
    1.6340   18.2380   40.7340 C   0  0  0  0  0  0  0  0  0  0  0  0
   -0.2400   18.3240   43.9620 C   0  0  0  0  0  0  0  0  0  0  0  0
    3.9620   14.8070   36.7760 C   0  0  0  0  0  0  0  0  0  0  0  0
   -0.5700   17.1240   44.8960 C   0  0  0  0  0  0  0  0  0  0  0  0
    2.3489   15.9715   40.5925 H   0  0  0  0  0  0  0  0  0  0  0  0
    0.9314   15.7001   43.0803 H   0  0  0  0  0  0  0  0  0  0  0  0
   -1.3338   15.2137   44.7765 H   0  0  0  0  0  0  0  0  0  0  0  0
   -1.8326   16.2314   43.5337 H   0  0  0  0  0  0  0  0  0  0  0  0
   -0.2708   15.6069   43.5337 H   0  0  0  0  0  0  0  0  0  0  0  0
    0.2939   22.0837   41.0454 H   0  0  0  0  0  0  0  0  0  0  0  0
    1.6585   22.0693   39.3331 H   0  0  0  0  0  0  0  0  0  0  0  0
    2.7983   21.5086   37.5255 H   0  0  0  0  0  0  0  0  0  0  0  0
    4.0062   14.1139   37.6291 H   0  0  0  0  0  0  0  0  0  0  0  0
    3.0765   14.5795   36.1643 H   0  0  0  0  0  0  0  0  0  0  0  0
    4.8692   14.6939   36.1643 H   0  0  0  0  0  0  0  0  0  0  0  0
   -1.3578   17.4260   45.6018 H   0  0  0  0  0  0  0  0  0  0  0  0
    0.3474   16.8407   45.4327 H   0  0  0  0  0  0  0  0  0  0  0  0
  1  6  2  0
  2  3  1  0
  3 12  2  0
  4 22  1  0
  6 12  1  0
  7  1  1  0
  8 13  1  0
  9 14  2  0
  9  8  1  0
 10  7  2  0
 11  8  2  0
 11 17  1  0
 12 20  1  0
 13  5  1  0
 13 16  2  0
 14  5  1  0
 16 19  1  0
 17 18  2  0
 18 16  1  0
 18 10  1  0
 19  2  2  0
 19  6  1  0
 20 15  2  0
 20 22  1  0
 21 14  1  0
  2 23  1  0
  3 24  1  0
  4 25  1  0
  4 26  1  0
  4 27  1  0
  7 28  1  0
 10 29  1  0
 17 30  1  0
 21 31  1  0
 21 32  1  0
 21 33  1  0
 22 34  1  0
 22 35  1  0
M  CHG  1   4   1
M  END
>  <mol_id>  (2) 
2026-08-24-6tgu-s0-n20-refligand-0002

>  <rmsd_to_ref>  (2) 


$$$$

     RDKit          3D

 35 38  0  0  0  0  0  0  0  0999 V2000
    3.3620   20.1480   37.3300 C   0  0  0  0  0  0  0  0  0  0  0  0
   -1.0090   19.9460   43.7870 N   0  0  0  0  0  0  0  0  0  0  0  0
    3.0080   17.5180   39.0160 C   0  0  0  0  0  0  0  0  0  0  0  0
    2.0510   19.7180   39.4990 C   0  0  0  0  0  0  0  0  0  0  0  0
    3.9570   18.0290   37.9520 C   0  0  0  0  0  0  0  0  0  0  0  0
    1.7180   16.6380   40.9350 N   0  0  0  0  0  0  0  0  0  0  0  0
    1.9560   20.9520   39.2650 C   0  0  0  0  0  0  0  0  0  0  0  0
    1.7760   14.0370   41.5930 Cl  0  0  0  0  0  0  0  0  0  0  0  0
    3.4460   16.1070   38.6920 C   0  0  0  0  0  0  0  0  0  0  0  0
    2.2290   15.3970   40.6010 C   0  0  0  0  0  0  0  0  0  0  0  0
    0.4700   18.4150   42.7900 C   0  0  0  0  0  0  0  0  0  0  0  0
    2.7510   21.0260   36.4540 O   0  0  0  0  0  0  0  0  0  0  0  0
    2.9970   15.1370   39.4600 C   0  0  0  0  0  0  0  0  0  0  0  0
    1.5030   18.9920   40.4530 C   0  0  0  0  0  0  0  0  0  0  0  0
   -0.8530   20.6960   42.7280 C   0  0  0  0  0  0  0  0  0  0  0  0
    2.0300   17.5560   40.2180 C   0  0  0  0  0  0  0  0  0  0  0  0
    3.5560   18.8270   36.8880 O   0  0  0  0  0  0  0  0  0  0  0  0
   -0.1070   20.3460   41.6350 C   0  0  0  0  0  0  0  0  0  0  0  0
    2.5070   20.0300   38.4760 N   0  0  0  0  0  0  0  0  0  0  0  0
    0.6350   19.1680   41.5800 C   0  0  0  0  0  0  0  0  0  0  0  0
   -0.3390   18.8140   43.7840 C   0  0  0  0  0  0  0  0  0  0  0  0
    4.3612   20.5771   37.4955 H   0  0  0  0  0  0  0  0  0  0  0  0
    2.1900   18.7383   39.9794 H   0  0  0  0  0  0  0  0  0  0  0  0
    4.7266   18.6049   38.4867 H   0  0  0  0  0  0  0  0  0  0  0  0
    4.2215   17.0957   37.4333 H   0  0  0  0  0  0  0  0  0  0  0  0
    0.9877   21.4094   39.0135 H   0  0  0  0  0  0  0  0  0  0  0  0
    2.2508   21.8978   39.7432 H   0  0  0  0  0  0  0  0  0  0  0  0
    4.1159   15.8989   37.8447 H   0  0  0  0  0  0  0  0  0  0  0  0
    1.0280   17.4744   42.9077 H   0  0  0  0  0  0  0  0  0  0  0  0
    2.2674   21.7210   36.9670 H   0  0  0  0  0  0  0  0  0  0  0  0
    3.2314   14.0946   39.1983 H   0  0  0  0  0  0  0  0  0  0  0  0
    2.3758   19.1783   41.0961 H   0  0  0  0  0  0  0  0  0  0  0  0
   -1.3551   21.6746   42.7142 H   0  0  0  0  0  0  0  0  0  0  0  0
   -0.0928   21.0209   40.7665 H   0  0  0  0  0  0  0  0  0  0  0  0
   -0.4490   18.1501   44.6541 H   0  0  0  0  0  0  0  0  0  0  0  0
  1 12  1  0
  1 19  1  0
  3 16  2  0
  4  7  1  0
  4 14  1  0
  5  3  1  0
  9  3  1  0
  9 13  2  0
 10  6  2  0
 10  8  1  0
 11 21  2  0
 13 10  1  0
 14 20  1  0
 15  2  2  0
 16 14  1  0
 16  6  1  0
 17  1  1  0
 17  5  1  0
 18 15  1  0
 19  7  1  0
 19  4  1  0
 20 18  2  0
 20 11  1  0
 21  2  1  0
  1 22  1  0
  4 23  1  0
  5 24  1  0
  5 25  1  0
  7 26  1  0
  7 27  1  0
  9 28  1  0
 11 29  1  0
 12 30  1  0
 13 31  1  0
 14 32  1  0
 15 33  1  0
 18 34  1  0
 21 35  1  0
M  END
>  <mol_id>  (3) 
2026-08-24-6tgu-s0-n20-refligand-0003

>  <rmsd_to_ref>  (3) 


$$$$

     RDKit          3D

 24 25  0  0  0  0  0  0  0  0999 V2000
    3.4900   18.5520   38.0840 C   0  0  0  0  0  0  0  0  0  0  0  0
   -0.2110   17.3200   43.6090 C   0  0  0  0  0  0  0  0  0  0  0  0
    2.1360   18.2460   40.5270 C   0  0  0  0  0  0  0  0  0  0  0  0
    3.9410   18.6530   36.7640 C   0  0  0  0  0  0  0  0  0  0  0  0
    3.7480   19.7610   36.0800 N   0  0  0  0  0  0  0  0  0  0  0  0
    2.5510   20.6930   37.8110 C   0  0  0  0  0  0  0  0  0  0  0  0
    2.7930   19.5990   38.6480 C   0  0  0  0  0  0  0  0  0  0  0  0
    1.5470   20.5490   40.6090 C   0  0  0  0  0  0  0  0  0  0  0  0
    0.8500   20.3700   41.7710 C   0  0  0  0  0  0  0  0  0  0  0  0
    0.8030   19.0860   42.2950 C   0  0  0  0  0  0  0  0  0  0  0  0
    2.1470   19.4700   39.9130 C   0  0  0  0  0  0  0  0  0  0  0  0
    1.4970   18.0030   41.7710 C   0  0  0  0  0  0  0  0  0  0  0  0
    3.0540   20.7870   36.5910 N   0  0  0  0  0  0  0  0  0  0  0  0
    0.0180   18.7740   43.3540 O   0  0  0  0  0  0  0  0  0  0  0  0
    3.6904   17.6422   38.6688 H   0  0  0  0  0  0  0  0  0  0  0  0
   -0.2397   17.1380   44.6935 H   0  0  0  0  0  0  0  0  0  0  0  0
   -1.1682   17.0154   43.1607 H   0  0  0  0  0  0  0  0  0  0  0  0
    0.6062   16.7359   43.1607 H   0  0  0  0  0  0  0  0  0  0  0  0
    2.6484   17.4085   40.0310 H   0  0  0  0  0  0  0  0  0  0  0  0
    4.4590   17.8032   36.2955 H   0  0  0  0  0  0  0  0  0  0  0  0
    1.9154   21.5101   38.1829 H   0  0  0  0  0  0  0  0  0  0  0  0
    1.6457   21.5654   40.2000 H   0  0  0  0  0  0  0  0  0  0  0  0
    0.3463   21.2104   42.2709 H   0  0  0  0  0  0  0  0  0  0  0  0
    1.5476   17.0300   42.2817 H   0  0  0  0  0  0  0  0  0  0  0  0
  1  7  2  0
  3 12  2  0
  4  1  1  0
  5 13  1  0
  5  4  2  0
  6  7  1  0
  7 11  1  0
  8  9  1  0
  9 10  2  0
 10 14  1  0
 11  3  1  0
 11  8  2  0
 12 10  1  0
 13  6  2  0
 14  2  1  0
  1 15  1  0
  2 16  1  0
  2 17  1  0
  2 18  1  0
  3 19  1  0
  4 20  1  0
  6 21  1  0
  8 22  1  0
  9 23  1  0
 12 24  1  0
M  END
>  <mol_id>  (4) 
2026-08-24-6tgu-s0-n20-refligand-0004

>  <rmsd_to_ref>  (4) 


$$$$

     RDKit          3D

 30 32  0  0  0  0  0  0  0  0999 V2000
    0.1820   20.7830   42.1920 N   0  0  0  0  0  0  0  0  0  0  0  0
    0.0140   19.5710   42.6950 C   0  0  0  0  0  0  0  0  0  0  0  0
    1.4730   19.9520   40.3610 C   0  0  0  0  0  0  0  0  0  0  0  0
    3.6360   19.6220   37.1470 C   0  0  0  0  0  0  0  0  0  0  0  0
    0.3970   17.3320   42.8840 C   0  0  0  0  0  0  0  0  0  0  0  0
    1.6960   21.2310   38.2230 C   0  0  0  0  0  0  0  0  0  0  0  0
    1.3630   18.6400   40.9110 C   0  0  0  0  0  0  0  0  0  0  0  0
    0.9220   15.9500   42.5540 C   0  0  0  0  0  0  0  0  0  0  0  0
    0.4570   15.0080   43.5120 N   0  0  0  0  0  4  0  0  0  0  0  0
   -0.4340   17.7720   43.9460 C   0  0  0  0  0  0  0  0  0  0  0  0
    2.1130   20.0960   38.9780 C   0  0  0  0  0  0  0  0  0  0  0  0
    2.3440   21.5130   36.9910 C   0  0  0  0  0  0  0  0  0  0  0  0
    2.9450   19.2710   38.3560 C   0  0  0  0  0  0  0  0  0  0  0  0
    0.9130   20.9620   41.0280 C   0  0  0  0  0  0  0  0  0  0  0  0
    3.3310   20.7270   36.5060 N   0  0  0  0  0  0  0  0  0  0  0  0
    0.6850   18.4560   42.0870 C   0  0  0  0  0  0  0  0  0  0  0  0
   -0.6130   19.1800   43.7690 N   0  0  0  0  0  0  0  0  0  0  0  0
    4.4245   18.9622   36.7559 H   0  0  0  0  0  0  0  0  0  0  0  0
    0.8852   21.8782   38.5888 H   0  0  0  0  0  0  0  0  0  0  0  0
    1.8193   17.7826   40.3945 H   0  0  0  0  0  0  0  0  0  0  0  0
    0.5694   15.6562   41.5543 H   0  0  0  0  0  0  0  0  0  0  0  0
    2.0217   15.9691   42.5729 H   0  0  0  0  0  0  0  0  0  0  0  0
    0.6343   15.3673   44.4609 H   0  0  0  0  0  0  0  0  0  0  0  0
   -0.5542   14.8594   43.3846 H   0  0  0  0  0  0  0  0  0  0  0  0
    0.9540   14.1149   43.3846 H   0  0  0  0  0  0  0  0  0  0  0  0
   -0.8581   17.1514   44.7491 H   0  0  0  0  0  0  0  0  0  0  0  0
    2.0336   22.3970   36.4146 H   0  0  0  0  0  0  0  0  0  0  0  0
    3.1133   18.2726   38.7859 H   0  0  0  0  0  0  0  0  0  0  0  0
    1.0367   21.9827   40.6370 H   0  0  0  0  0  0  0  0  0  0  0  0
   -1.1551   19.7922   44.3952 H   0  0  0  0  0  0  0  0  0  0  0  0
  1  2  2  0
  2 17  1  0
  3  7  1  0
  3 14  2  0
  4 13  2  0
  5 10  2  0
  6 11  2  0
  7 16  2  0
  8  5  1  0
  8  9  1  0
 11  3  1  0
 12  6  1  0
 13 11  1  0
 14  1  1  0
 15 12  2  0
 15  4  1  0
 16  2  1  0
 16  5  1  0
 17 10  1  0
  4 18  1  0
  6 19  1  0
  7 20  1  0
  8 21  1  0
  8 22  1  0
  9 23  1  0
  9 24  1  0
  9 25  1  0
 10 26  1  0
 12 27  1  0
 13 28  1  0
 14 29  1  0
 17 30  1  0
M  CHG  1   9   1
M  END
>  <mol_id>  (5) 
2026-08-24-6tgu-s0-n20-refligand-0005

>  <rmsd_to_ref>  (5) 


$$$$

     RDKit          3D

 52 56  0  0  0  0  0  0  0  0999 V2000
   -0.2890   19.8360   41.8720 C   0  0  0  0  0  0  0  0  0  0  0  0
   -0.8060   20.6370   44.0440 N   0  0  0  0  0  0  0  0  0  0  0  0
    3.2360   19.2490   38.9290 C   0  0  0  0  0  0  0  0  0  0  0  0
   -0.5490   14.7820   45.4020 C   0  0  0  0  0  0  0  0  0  0  0  0
    2.2560   19.3170   40.0720 C   0  0  0  0  0  0  0  0  0  0  0  0
    3.7090   16.9920   38.1650 C   0  0  0  0  0  0  0  0  0  0  0  0
    2.4400   21.3150   36.2760 C   0  0  0  0  0  0  0  0  0  0  0  0
    1.9020   18.2070   40.7860 N   0  0  0  0  0  0  0  0  0  0  0  0
    3.4620   20.6210   35.9360 N   0  0  0  0  0  0  0  0  0  0  0  0
   -0.6310   20.8820   42.7210 C   0  0  0  0  0  0  0  0  0  0  0  0
    4.2880   16.0650   37.2590 C   0  0  0  0  0  0  0  0  0  0  0  0
   -1.0410   14.6400   46.7950 C   0  0  0  0  0  0  0  0  0  0  0  0
    0.3540   16.0820   43.1900 C   0  0  0  0  0  0  0  0  0  0  0  0
    1.0760   16.4840   42.0970 C   0  0  0  0  0  0  0  0  0  0  0  0
    2.5540   15.8920   40.0770 C   0  0  0  0  0  0  0  0  0  0  0  0
    2.8940   14.6120   39.5100 O   0  0  0  0  0  0  0  0  0  0  0  0
   -0.5820   20.0160   40.5990 F   0  0  0  0  0  0  0  0  0  0  0  0
    0.2550   18.6750   42.3900 C   0  0  0  0  0  0  0  0  0  0  0  0
   -0.1240   16.9090   44.0510 C   0  0  0  0  0  0  0  0  0  0  0  0
   -0.1710   18.3940   43.7580 C   0  0  0  0  0  0  0  0  0  0  0  0
   -0.6750   22.0740   42.2240 O   0  0  0  0  0  0  0  0  0  0  0  0
    2.8430   16.8850   38.7920 O   0  0  0  0  0  0  0  0  0  0  0  0
    1.0870   17.8140   41.7550 C   0  0  0  0  0  0  0  0  0  0  0  0
    3.0530   20.0880   37.8600 C   0  0  0  0  0  0  0  0  0  0  0  0
   -0.5320   16.2120   45.2300 C   0  0  0  0  0  0  0  0  0  0  0  0
    3.8510   19.8190   36.9290 N   0  0  0  0  0  0  0  0  0  0  0  0
    2.1740   21.0570   37.5730 C   0  0  0  0  0  0  0  0  0  0  0  0
   -0.5240   19.3540   44.5390 C   0  0  0  0  0  0  0  0  0  0  0  0
    4.3730   18.2240   38.5750 C   0  0  0  0  0  0  0  0  0  0  0  0
   -0.9060   16.9220   46.3600 N   0  0  0  0  0  0  0  0  0  0  0  0
   -1.2430   15.8790   47.2900 N   0  0  0  0  0  0  0  0  0  0  0  0
    1.9930   20.5320   40.4140 O   0  0  0  0  0  0  0  0  0  0  0  0
    1.7880   15.4720   41.3340 C   0  0  0  0  0  0  0  0  0  0  0  0
   -1.3003   19.4411   42.0489 H   0  0  0  0  0  0  0  0  0  0  0  0
    3.4963   19.2289   39.9976 H   0  0  0  0  0  0  0  0  0  0  0  0
   -0.2691   13.9965   44.6847 H   0  0  0  0  0  0  0  0  0  0  0  0
    3.4585   16.5881   37.1730 H   0  0  0  0  0  0  0  0  0  0  0  0
    1.8782   22.0007   35.6247 H   0  0  0  0  0  0  0  0  0  0  0  0
    2.4568   17.4023   40.4610 H   0  0  0  0  0  0  0  0  0  0  0  0
    4.7882   15.2642   37.8234 H   0  0  0  0  0  0  0  0  0  0  0  0
    3.5005   15.6305   36.6258 H   0  0  0  0  0  0  0  0  0  0  0  0
    5.0240   16.5820   36.6258 H   0  0  0  0  0  0  0  0  0  0  0  0
   -1.9851   14.0756   46.8026 H   0  0  0  0  0  0  0  0  0  0  0  0
   -0.3069   14.0966   47.4080 H   0  0  0  0  0  0  0  0  0  0  0  0
    0.1758   15.0066   43.3372 H   0  0  0  0  0  0  0  0  0  0  0  0
    2.3435   21.9459   38.1984 H   0  0  0  0  0  0  0  0  0  0  0  0
    1.1283   20.7706   37.7585 H   0  0  0  0  0  0  0  0  0  0  0  0
   -0.6067   19.1648   45.6195 H   0  0  0  0  0  0  0  0  0  0  0  0
    5.0056   18.0394   39.4558 H   0  0  0  0  0  0  0  0  0  0  0  0
    5.0215   18.6108   37.7751 H   0  0  0  0  0  0  0  0  0  0  0  0
    1.0463   14.7213   41.0236 H   0  0  0  0  0  0  0  0  0  0  0  0
    2.5761   15.1299   42.0209 H   0  0  0  0  0  0  0  0  0  0  0  0
  1 17  1  0
  1 18  1  0
  1 10  1  0
  2 28  2  0
  3 24  1  0
  3  5  1  0
  4 12  1  0
  5 32  2  0
  5  8  1  0
  6 11  1  0
  6 29  1  0
  6 22  1  0
  7 27  1  0
  8 23  1  0
  9  7  2  0
  9 26  1  0
 10  2  1  0
 12 31  1  0
 13 19  2  0
 14 13  1  0
 15 33  1  0
 16 15  2  0
 18 20  2  0
 19 25  1  0
 20 19  1  0
 20 28  1  0
 21 10  2  0
 22 15  1  0
 23 14  2  0
 23 18  1  0
 25  4  2  0
 25 30  1  0
 26 24  2  0
 27 24  1  0
 29  3  1  0
 30 31  2  0
 33 14  1  0
  1 34  1  0
  3 35  1  0
  4 36  1  0
  6 37  1  0
  7 38  1  0
  8 39  1  0
 11 40  1  0
 11 41  1  0
 11 42  1  0
 12 43  1  0
 12 44  1  0
 13 45  1  0
 27 46  1  0
 27 47  1  0
 28 48  1  0
 29 49  1  0
 29 50  1  0
 33 51  1  0
 33 52  1  0
M  END
>  <mol_id>  (6) 
2026-08-24-6tgu-s0-n20-refligand-0006

>  <rmsd_to_ref>  (6) 


$$$$

     RDKit          3D

 46 48  0  0  0  0  0  0  0  0999 V2000
    2.2640   21.4150   36.6460 O   0  0  0  0  0  0  0  0  0  0  0  0
    3.6460   18.8670   39.1960 C   0  0  0  0  0  0  0  0  0  0  0  0
   -0.3530   19.0820   43.6720 C   0  0  0  0  0  0  0  0  0  0  0  0
    0.2040   19.5460   42.5350 C   0  0  0  0  0  0  0  0  0  0  0  0
    2.7530   21.0250   38.0130 C   0  0  0  0  0  0  0  0  0  0  0  0
    1.4700   19.0430   40.4210 C   0  0  0  0  0  0  0  0  0  0  0  0
    3.1890   21.9150   35.6790 C   0  0  0  0  0  0  0  0  0  0  0  0
    1.7630   15.0220   41.5560 C   0  0  0  0  0  0  0  0  0  0  0  0
   -0.4280   17.7440   44.0450 C   0  0  0  0  0  0  0  0  0  0  0  0
    3.5530   18.9890   36.7790 C   0  0  0  0  0  0  0  0  0  0  0  0
    3.5190   17.8460   37.0980 C   0  0  0  0  0  0  0  0  0  0  0  0
   -1.0530   19.9870   44.3930 O   0  0  0  0  0  0  0  0  0  0  0  0
    1.8140   16.4230   41.2850 C   0  0  0  0  0  0  0  0  0  0  0  0
    0.9120   18.5940   41.7390 C   0  0  0  0  0  0  0  0  0  0  0  0
    3.8390   21.3630   34.6910 N   0  0  0  0  0  0  0  0  0  0  0  0
    2.5660   16.8750   40.2520 N   0  0  0  0  0  0  0  0  0  0  0  0
    3.4060   19.6570   37.9150 C   0  0  0  0  0  0  0  0  0  0  0  0
    1.0470   14.5490   42.6790 C   0  0  0  0  0  0  0  0  0  0  0  0
    0.9630   17.2780   42.0540 C   0  0  0  0  0  0  0  0  0  0  0  0
    2.5220   18.1420   39.9080 C   0  0  0  0  0  0  0  0  0  0  0  0
    0.3180   15.4310   43.4890 C   0  0  0  0  0  0  0  0  0  0  0  0
    1.0470   19.9220   39.8180 O   0  0  0  0  0  0  0  0  0  0  0  0
    0.3030   16.7690   43.2230 C   0  0  0  0  0  0  0  0  0  0  0  0
    0.1060   21.0260   42.2440 C   0  0  0  0  0  0  0  0  0  0  0  0
    4.4002   18.1043   38.9521 H   0  0  0  0  0  0  0  0  0  0  0  0
    3.9050   19.6591   39.9140 H   0  0  0  0  0  0  0  0  0  0  0  0
    3.4870   21.7626   38.3697 H   0  0  0  0  0  0  0  0  0  0  0  0
    1.9117   20.9930   38.7210 H   0  0  0  0  0  0  0  0  0  0  0  0
    3.3968   22.9894   35.7903 H   0  0  0  0  0  0  0  0  0  0  0  0
    2.2796   14.3128   40.8925 H   0  0  0  0  0  0  0  0  0  0  0  0
   -1.0121   17.4276   44.9217 H   0  0  0  0  0  0  0  0  0  0  0  0
    4.5165   19.2322   36.3072 H   0  0  0  0  0  0  0  0  0  0  0  0
    2.7750   19.2404   36.0431 H   0  0  0  0  0  0  0  0  0  0  0  0
    3.5168   17.7715   38.1955 H   0  0  0  0  0  0  0  0  0  0  0  0
    2.6066   17.3804   36.6971 H   0  0  0  0  0  0  0  0  0  0  0  0
    4.4021   17.3270   36.6971 H   0  0  0  0  0  0  0  0  0  0  0  0
   -1.0186   20.9463   44.1507 H   0  0  0  0  0  0  0  0  0  0  0  0
    4.4704   21.9313   34.1085 H   0  0  0  0  0  0  0  0  0  0  0  0
    3.1736   16.2233   39.7353 H   0  0  0  0  0  0  0  0  0  0  0  0
    4.2609   20.3002   37.6591 H   0  0  0  0  0  0  0  0  0  0  0  0
    1.0619   13.4759   42.9204 H   0  0  0  0  0  0  0  0  0  0  0  0
    2.1696   17.4493   39.1296 H   0  0  0  0  0  0  0  0  0  0  0  0
   -0.2476   15.0403   44.3477 H   0  0  0  0  0  0  0  0  0  0  0  0
    0.0690   21.5842   43.1911 H   0  0  0  0  0  0  0  0  0  0  0  0
    0.9850   21.3448   41.6646 H   0  0  0  0  0  0  0  0  0  0  0  0
   -0.8074   21.2261   41.6646 H   0  0  0  0  0  0  0  0  0  0  0  0
  1  5  1  0
  3  9  2  0
  3 12  1  0
  4  3  1  0
  6 14  1  0
  7  1  1  0
  8 18  1  0
 10 11  1  0
 13  8  2  0
 13 19  1  0
 14 19  1  0
 14  4  2  0
 15  7  2  3
 16 13  1  0
 17 10  1  0
 17  5  1  0
 17  2  1  0
 18 21  2  0
 19 23  2  0
 20  2  1  0
 20 16  1  0
 20  6  1  0
 22  6  2  0
 23 21  1  0
 23  9  1  0
 24  4  1  0
  2 25  1  0
  2 26  1  0
  5 27  1  0
  5 28  1  0
  7 29  1  0
  8 30  1  0
  9 31  1  0
 10 32  1  0
 10 33  1  0
 11 34  1  0
 11 35  1  0
 11 36  1  0
 12 37  1  0
 15 38  1  0
 16 39  1  0
 17 40  1  0
 18 41  1  0
 20 42  1  0
 21 43  1  0
 24 44  1  0
 24 45  1  0
 24 46  1  0
M  END
>  <mol_id>  (7) 
2026-08-24-6tgu-s0-n20-refligand-0007

>  <rmsd_to_ref>  (7) 


$$$$

     RDKit          3D

 40 43  0  0  0  0  0  0  0  0999 V2000
    3.0570   18.8010   38.2400 C   0  0  0  0  0  0  0  0  0  0  0  0
    3.9900   18.9820   36.3690 N   0  0  0  0  0  0  0  0  0  0  0  0
    0.5110   18.9380   42.1660 N   0  0  0  0  0  0  0  0  0  0  0  0
    2.7190   20.1190   37.7290 C   0  0  0  0  0  0  0  0  0  0  0  0
    3.7080   18.1210   37.2900 C   0  0  0  0  0  0  0  0  0  0  0  0
    0.7920   21.1250   41.6130 C   0  0  0  0  0  0  0  0  0  0  0  0
    4.2160   16.5920   37.2750 C   0  0  0  0  0  0  0  0  0  0  0  0
    0.4880   16.4810   42.9360 S   0  0  0  0  0  0  0  0  0  0  0  0
   -0.1340   15.3160   44.0430 C   0  0  0  0  0  0  0  0  0  0  0  0
    0.3390   20.3090   42.2010 C   0  0  0  0  0  0  0  0  0  0  0  0
    3.3840   20.1810   36.6650 N   0  0  0  0  0  0  0  0  0  0  0  0
    1.1980   18.8670   41.4680 N   0  0  0  0  0  0  0  0  0  0  0  0
   -1.2860   17.2390   45.1620 C   0  0  0  0  0  0  0  0  0  0  0  0
   -0.6520   15.9270   45.2680 C   0  0  0  0  0  0  0  0  0  0  0  0
    1.1420   20.0720   40.7160 C   0  0  0  0  0  0  0  0  0  0  0  0
    2.4840   18.5180   39.4560 C   0  0  0  0  0  0  0  0  0  0  0  0
    2.0650   20.8370   38.6110 C   0  0  0  0  0  0  0  0  0  0  0  0
   -0.3250   17.9580   43.0740 C   0  0  0  0  0  0  0  0  0  0  0  0
    1.9230   19.8420   39.7600 C   0  0  0  0  0  0  0  0  0  0  0  0
   -0.5130   18.3750   44.5220 C   0  0  0  0  0  0  0  0  0  0  0  0
    0.0868   21.8700   41.2159 H   0  0  0  0  0  0  0  0  0  0  0  0
    1.5164   21.8440   42.0231 H   0  0  0  0  0  0  0  0  0  0  0  0
    4.3346   16.2349   38.3086 H   0  0  0  0  0  0  0  0  0  0  0  0
    3.4777   15.9654   36.7531 H   0  0  0  0  0  0  0  0  0  0  0  0
    5.1824   16.5318   36.7531 H   0  0  0  0  0  0  0  0  0  0  0  0
   -0.9490   14.7634   43.5526 H   0  0  0  0  0  0  0  0  0  0  0  0
    0.6937   14.6492   44.3264 H   0  0  0  0  0  0  0  0  0  0  0  0
   -0.7404   20.4383   42.0334 H   0  0  0  0  0  0  0  0  0  0  0  0
    0.9165   20.4833   43.1209 H   0  0  0  0  0  0  0  0  0  0  0  0
    2.1287   18.7583   41.8957 H   0  0  0  0  0  0  0  0  0  0  0  0
   -2.2082   17.1059   44.5773 H   0  0  0  0  0  0  0  0  0  0  0  0
   -1.4112   17.5586   46.2071 H   0  0  0  0  0  0  0  0  0  0  0  0
   -1.3972   15.2360   45.6890 H   0  0  0  0  0  0  0  0  0  0  0  0
    0.2398   16.1007   45.8882 H   0  0  0  0  0  0  0  0  0  0  0  0
    0.4324   20.5715   40.0400 H   0  0  0  0  0  0  0  0  0  0  0  0
    2.4540   17.5805   40.0306 H   0  0  0  0  0  0  0  0  0  0  0  0
    1.7133   21.8769   38.5413 H   0  0  0  0  0  0  0  0  0  0  0  0
   -1.3682   17.9306   42.7262 H   0  0  0  0  0  0  0  0  0  0  0  0
    0.4611   18.5059   45.0159 H   0  0  0  0  0  0  0  0  0  0  0  0
   -1.0428   19.3351   44.6093 H   0  0  0  0  0  0  0  0  0  0  0  0
  1 16  1  0
  2 11  2  0
  2  5  1  0
  3 10  1  0
  3 18  1  0
  4  1  1  0
  4 17  2  0
  5  1  2  0
  6 10  1  0
  7  5  1  0
  8 18  1  0
  8  9  1  0
  9 14  1  0
 11  4  1  0
 12  3  1  0
 13 14  1  0
 15 19  1  0
 15 12  1  0
 15  6  1  0
 16 19  2  0
 17 19  1  0
 18 20  1  0
 20 13  1  0
  6 21  1  0
  6 22  1  0
  7 23  1  0
  7 24  1  0
  7 25  1  0
  9 26  1  0
  9 27  1  0
 10 28  1  0
 10 29  1  0
 12 30  1  0
 13 31  1  0
 13 32  1  0
 14 33  1  0
 14 34  1  0
 15 35  1  0
 16 36  1  0
 17 37  1  0
 18 38  1  0
 20 39  1  0
 20 40  1  0
M  END
>  <mol_id>  (8) 
2026-08-24-6tgu-s0-n20-refligand-0008

>  <rmsd_to_ref>  (8) 


$$$$

     RDKit          3D

 35 38  0  0  0  0  0  0  0  0999 V2000
    0.5370   21.0240   41.2940 C   0  0  0  0  0  0  0  0  0  0  0  0
    2.4850   18.4690   40.2970 O   0  0  0  0  0  0  0  0  0  0  0  0
    3.8180   19.0830   37.0480 C   0  0  0  0  0  0  0  0  0  0  0  0
    1.2650   18.5620   40.9230 O   0  0  0  0  0  0  0  0  0  0  0  0
    2.1920   20.4330   38.9330 C   0  0  0  0  0  0  0  0  0  0  0  0
    3.4610   18.4610   38.1820 C   0  0  0  0  0  0  0  0  0  0  0  0
    0.3780   19.8720   42.3040 C   0  0  0  0  0  0  0  0  0  0  0  0
    3.2850   20.3730   36.7950 C   0  0  0  0  0  0  0  0  0  0  0  0
    0.8370   18.5410   41.9950 C   0  0  0  0  0  0  0  0  0  0  0  0
    2.6490   19.1320   39.1430 C   0  0  0  0  0  0  0  0  0  0  0  0
    2.5120   21.0350   37.7330 C   0  0  0  0  0  0  0  0  0  0  0  0
    1.1330   15.9870   42.5560 C   0  0  0  0  0  0  0  0  0  0  0  0
   -0.4150   20.0330   43.3890 N   0  0  0  0  0  0  0  0  0  0  0  0
   -0.6860   18.9020   44.0600 C   0  0  0  0  0  0  0  0  0  0  0  0
    3.5750   20.9880   35.6880 O   0  0  0  0  0  0  0  0  0  0  0  0
   -0.2670   15.2540   44.3350 C   0  0  0  0  0  0  0  0  0  0  0  0
   -0.2680   17.5590   43.8230 C   0  0  0  0  0  0  0  0  0  0  0  0
    0.5850   17.3420   42.6650 C   0  0  0  0  0  0  0  0  0  0  0  0
    0.6980   14.9580   43.2870 C   0  0  0  0  0  0  0  0  0  0  0  0
    1.3580   21.1190   40.0290 C   0  0  0  0  0  0  0  0  0  0  0  0
   -0.6400   16.5080   44.5850 N   0  0  0  0  0  0  0  0  0  0  0  0
    2.1180   15.5850   41.4720 C   0  0  0  0  0  0  0  0  0  0  0  0
   -0.7200   14.3320   44.9690 O   0  0  0  0  0  0  0  0  0  0  0  0
   -0.0433   21.9273   41.5333 H   0  0  0  0  0  0  0  0  0  0  0  0
    4.5052   18.6056   36.3340 H   0  0  0  0  0  0  0  0  0  0  0  0
    3.7957   17.4303   38.3709 H   0  0  0  0  0  0  0  0  0  0  0  0
    2.1490   22.0513   37.5199 H   0  0  0  0  0  0  0  0  0  0  0  0
   -1.3375   19.0326   44.9366 H   0  0  0  0  0  0  0  0  0  0  0  0
    3.2038   21.8883   35.5100 H   0  0  0  0  0  0  0  0  0  0  0  0
    1.0530   13.9329   43.1052 H   0  0  0  0  0  0  0  0  0  0  0  0
    1.3607   22.1873   39.7668 H   0  0  0  0  0  0  0  0  0  0  0  0
   -1.2429   16.6851   45.4011 H   0  0  0  0  0  0  0  0  0  0  0  0
    3.0411   15.2083   41.9367 H   0  0  0  0  0  0  0  0  0  0  0  0
    1.6738   14.7962   40.8471 H   0  0  0  0  0  0  0  0  0  0  0  0
    2.3525   16.4594   40.8471 H   0  0  0  0  0  0  0  0  0  0  0  0
  1  7  1  0
  2  4  1  0
  3  6  2  0
  4  9  1  0
  5 10  2  0
  5 20  1  0
  6 10  1  0
  7 13  2  0
  8  3  1  0
  8 11  2  0
  9  7  1  0
  9 18  2  0
 10  2  1  0
 11  5  1  0
 12 18  1  0
 12 19  2  0
 13 14  1  0
 15  8  1  0
 16 21  1  0
 16 23  2  0
 17 14  2  0
 17 21  1  0
 18 17  1  0
 19 16  1  0
 20  1  2  0
 22 12  1  0
  1 24  1  0
  3 25  1  0
  6 26  1  0
 11 27  1  0
 14 28  1  0
 15 29  1  0
 19 30  1  0
 20 31  1  0
 21 32  1  0
 22 33  1  0
 22 34  1  0
 22 35  1  0
M  END
>  <mol_id>  (9) 
2026-08-24-6tgu-s0-n20-refligand-0009

>  <rmsd_to_ref>  (9) 


$$$$

     RDKit          3D

 16 15  0  0  0  0  0  0  0  0999 V2000
    0.8150   21.3040   41.3820 O   0  0  0  0  0  0  0  0  0  0  0  0
    3.1650   19.7290   38.3590 C   0  0  0  0  0  0  0  0  0  0  0  0
    0.4920   19.1220   42.1710 C   0  0  0  0  0  0  0  0  0  0  0  0
    1.3490   17.3560   40.9420 O   0  0  0  0  0  0  0  0  0  0  0  0
    3.0170   19.9530   37.1290 O   0  0  0  0  0  0  0  0  0  0  0  0
    0.7280   17.7830   42.0190 C   0  0  0  0  0  0  0  0  0  0  0  0
    0.5110   16.8470   42.8260 O   0  0  0  0  0  1  0  0  0  0  0  0
    0.9460   20.1170   41.2070 C   0  0  0  0  0  0  0  0  0  0  0  0
    4.0620   18.8740   38.8960 O   0  0  0  0  0  1  0  0  0  0  0  0
    2.2060   20.4940   39.1780 C   0  0  0  0  0  0  0  0  0  0  0  0
    1.5460   19.6010   40.1190 N   0  0  0  0  0  0  0  0  0  0  0  0
   -0.6007   19.2335   42.2317 H   0  0  0  0  0  0  0  0  0  0  0  0
    1.1139   19.3599   43.0466 H   0  0  0  0  0  0  0  0  0  0  0  0
    2.7421   21.2785   39.7323 H   0  0  0  0  0  0  0  0  0  0  0  0
    1.4527   20.9554   38.5226 H   0  0  0  0  0  0  0  0  0  0  0  0
    1.5384   18.5844   39.9536 H   0  0  0  0  0  0  0  0  0  0  0  0
  2  9  1  0
  2 10  1  0
  4  6  2  0
  5  2  2  0
  6  3  1  0
  6  7  1  0
  8  1  2  0
  8  3  1  0
 10 11  1  0
 11  8  1  0
  3 12  1  0
  3 13  1  0
 10 14  1  0
 10 15  1  0
 11 16  1  0
M  CHG  2   7  -1   9  -1
M  END
>  <mol_id>  (10) 
2026-08-24-6tgu-s0-n20-refligand-0010

>  <rmsd_to_ref>  (10) 


$$$$

     RDKit          3D

 29 31  0  0  0  0  0  0  0  0999 V2000
    0.7490   21.1750   41.8160 N   0  0  0  0  0  0  0  0  0  0  0  0
    2.8600   17.3400   39.2790 F   0  0  0  0  0  0  0  0  0  0  0  0
    2.8860   18.4640   38.6260 C   0  0  0  0  0  0  0  0  0  0  0  0
    2.2170   20.7440   38.3270 C   0  0  0  0  0  0  0  0  0  0  0  0
    0.4330   16.9390   42.8590 C   0  0  0  0  0  0  0  0  0  0  0  0
    1.4320   20.9820   40.7980 N   0  0  0  0  0  0  0  0  0  0  0  0
    3.4600   19.7180   36.5490 N   0  0  0  0  0  0  0  0  0  0  0  0
    1.7030   19.7050   40.4030 C   0  0  0  0  0  0  0  0  0  0  0  0
   -0.5000   17.3030   43.7060 C   0  0  0  0  0  0  0  0  0  0  0  0
   -1.0060   18.5750   43.6870 C   0  0  0  0  0  0  0  0  0  0  0  0
    2.2950   19.6140   39.1180 C   0  0  0  0  0  0  0  0  0  0  0  0
    2.8890   20.7210   37.1520 C   0  0  0  0  0  0  0  0  0  0  0  0
    1.1370   17.7020   41.9690 C   0  0  0  0  0  0  0  0  0  0  0  0
   -0.6870   19.5910   42.9400 C   0  0  0  0  0  0  0  0  0  0  0  0
    1.1450   18.9550   41.4720 C   0  0  0  0  0  0  0  0  0  0  0  0
    3.4410   18.5560   37.2880 C   0  0  0  0  0  0  0  0  0  0  0  0
    0.4020   19.9500   42.1290 C   0  0  0  0  0  0  0  0  0  0  0  0
    4.1480   17.4910   36.8300 N   0  0  0  0  0  0  0  0  0  0  0  0
    0.5169   22.0603   42.2884 H   0  0  0  0  0  0  0  0  0  0  0  0
    1.6345   21.6237   38.6382 H   0  0  0  0  0  0  0  0  0  0  0  0
    0.6848   15.8682   42.8655 H   0  0  0  0  0  0  0  0  0  0  0  0
   -1.3509   16.6244   43.5463 H   0  0  0  0  0  0  0  0  0  0  0  0
    0.0197   17.2613   44.6746 H   0  0  0  0  0  0  0  0  0  0  0  0
   -1.8064   18.7677   44.4165 H   0  0  0  0  0  0  0  0  0  0  0  0
    2.9633   21.6877   36.6324 H   0  0  0  0  0  0  0  0  0  0  0  0
    1.9478   17.1100   41.5194 H   0  0  0  0  0  0  0  0  0  0  0  0
   -1.4683   20.3653   42.9447 H   0  0  0  0  0  0  0  0  0  0  0  0
    4.1524   16.6087   37.3615 H   0  0  0  0  0  0  0  0  0  0  0  0
    4.6798   17.5654   35.9511 H   0  0  0  0  0  0  0  0  0  0  0  0
  1 17  1  0
  3 11  2  0
  3  2  1  0
  4 11  1  0
  5  9  1  0
  6  1  1  0
  7 12  1  0
  7 16  2  0
  8  6  2  0
  8 15  1  0
 10  9  1  0
 11  8  1  0
 12  4  2  0
 13  5  2  0
 14 10  2  0
 15 13  1  0
 15 17  2  0
 16  3  1  0
 17 14  1  0
 18 16  1  0
  1 19  1  0
  4 20  1  0
  5 21  1  0
  9 22  1  0
  9 23  1  0
 10 24  1  0
 12 25  1  0
 13 26  1  0
 14 27  1  0
 18 28  1  0
 18 29  1  0
M  END
>  <mol_id>  (11) 
2026-08-24-6tgu-s0-n20-refligand-0011

>  <rmsd_to_ref>  (11) 


$$$$

     RDKit          3D

 49 51  0  0  0  0  0  0  0  0999 V2000
    0.3860   20.2790   42.0590 C   0  0  0  0  0  0  0  0  0  0  0  0
    3.8390   19.3970   36.2300 N   0  0  0  0  0  0  0  0  0  0  0  0
   -0.6520   16.4250   44.8590 C   0  0  0  0  0  0  0  0  0  0  0  0
    4.0220   19.4490   38.7110 C   0  0  0  0  0  0  0  0  0  0  0  0
    1.4950   19.0750   40.4190 C   0  0  0  0  0  0  0  0  0  0  0  0
    0.2280   15.9730   43.7480 C   0  0  0  0  0  0  0  0  0  0  0  0
    2.8480   20.4180   38.7350 N   0  0  0  0  0  0  0  0  0  0  0  0
    0.8300   19.0630   41.6930 C   0  0  0  0  0  0  0  0  0  0  0  0
    0.8750   14.7060   43.1650 N   0  0  0  0  0  0  0  0  0  0  0  0
    2.0240   20.3550   39.8860 C   0  0  0  0  0  0  0  0  0  0  0  0
    3.1720   21.3620   35.2630 O   0  0  0  0  0  0  0  0  0  0  0  0
    1.6740   15.1620   42.1790 C   0  0  0  0  0  0  0  0  0  0  0  0
    1.5270   16.4480   41.9310 N   0  0  0  0  0  0  0  0  0  0  0  0
   -0.2220   20.8450   43.0270 O   0  0  0  0  0  0  0  0  0  0  0  0
    2.6050   20.9400   37.5270 C   0  0  0  0  0  0  0  0  0  0  0  0
    1.6290   21.5580   40.5080 C   0  0  0  0  0  0  0  0  0  0  0  0
    0.0570   18.2180   42.8750 C   0  0  0  0  0  0  0  0  0  0  0  0
    0.7750   21.5010   41.5260 C   0  0  0  0  0  0  0  0  0  0  0  0
   -0.1400   13.2460   45.2150 C   0  0  0  0  0  0  0  0  0  0  0  0
   -0.9240   18.6260   43.8770 N   0  0  0  0  0  0  0  0  0  0  0  0
   -1.0630   12.9550   44.0700 C   0  0  0  0  0  0  0  0  0  0  0  0
   -1.2750   17.7090   44.9080 C   0  0  0  0  0  0  0  0  0  0  0  0
    2.5800   14.2030   41.4520 C   0  0  0  0  0  0  0  0  0  0  0  0
    0.6240   16.9120   42.8620 C   0  0  0  0  0  0  0  0  0  0  0  0
    3.1870   20.6370   36.3410 C   0  0  0  0  0  0  0  0  0  0  0  0
    3.7350   18.6140   37.4770 C   0  0  0  0  0  0  0  0  0  0  0  0
    4.3288   19.0745   35.3833 H   0  0  0  0  0  0  0  0  0  0  0  0
   -0.8334   15.7294   45.6916 H   0  0  0  0  0  0  0  0  0  0  0  0
    4.9777   19.9850   38.6146 H   0  0  0  0  0  0  0  0  0  0  0  0
    4.1170   18.8531   39.6307 H   0  0  0  0  0  0  0  0  0  0  0  0
    1.6108   18.1442   39.8444 H   0  0  0  0  0  0  0  0  0  0  0  0
    1.5263   18.2389   41.4786 H   0  0  0  0  0  0  0  0  0  0  0  0
    1.9922   16.9944   41.1921 H   0  0  0  0  0  0  0  0  0  0  0  0
    1.5324   20.7612   37.3607 H   0  0  0  0  0  0  0  0  0  0  0  0
    3.0674   21.9257   37.6838 H   0  0  0  0  0  0  0  0  0  0  0  0
    2.0199   22.5247   40.1577 H   0  0  0  0  0  0  0  0  0  0  0  0
    0.3722   22.4324   41.9506 H   0  0  0  0  0  0  0  0  0  0  0  0
   -0.6697   13.0790   46.1645 H   0  0  0  0  0  0  0  0  0  0  0  0
    0.7335   12.5797   45.1603 H   0  0  0  0  0  0  0  0  0  0  0  0
    0.1934   14.2928   45.1603 H   0  0  0  0  0  0  0  0  0  0  0  0
   -2.0441   12.6457   44.4594 H   0  0  0  0  0  0  0  0  0  0  0  0
   -1.1811   13.8595   43.4552 H   0  0  0  0  0  0  0  0  0  0  0  0
   -0.6410   12.1463   43.4552 H   0  0  0  0  0  0  0  0  0  0  0  0
   -1.9890   17.9757   45.7011 H   0  0  0  0  0  0  0  0  0  0  0  0
    3.1443   13.6057   42.1833 H   0  0  0  0  0  0  0  0  0  0  0  0
    1.9758   13.5347   40.8209 H   0  0  0  0  0  0  0  0  0  0  0  0
    3.2815   14.7683   40.8209 H   0  0  0  0  0  0  0  0  0  0  0  0
    2.7158   18.2077   37.5548 H   0  0  0  0  0  0  0  0  0  0  0  0
    4.4868   17.8122   37.4328 H   0  0  0  0  0  0  0  0  0  0  0  0
  1 14  2  0
  2 25  1  0
  2 26  1  0
  3 22  2  0
  4  7  1  0
  5  8  1  0
  6  3  1  0
  7 10  1  0
  8  1  1  0
  8 17  1  0
  9  6  1  0
 10  5  2  0
 10 16  1  0
 11 25  2  0
 12  9  2  0
 13 12  1  0
 13 24  1  0
 15  7  1  0
 16 18  2  0
 17 20  2  0
 18  1  1  0
 20 22  1  0
 21 19  1  0
 23 12  1  0
 24 17  1  0
 24  6  2  0
 25 15  1  0
 26  4  1  0
  2 27  1  0
  3 28  1  0
  4 29  1  0
  4 30  1  0
  5 31  1  0
  8 32  1  0
 13 33  1  0
 15 34  1  0
 15 35  1  0
 16 36  1  0
 18 37  1  0
 19 38  1  0
 19 39  1  0
 19 40  1  0
 21 41  1  0
 21 42  1  0
 21 43  1  0
 22 44  1  0
 23 45  1  0
 23 46  1  0
 23 47  1  0
 26 48  1  0
 26 49  1  0
M  END
>  <mol_id>  (12) 
2026-08-24-6tgu-s0-n20-refligand-0012

>  <rmsd_to_ref>  (12) 


$$$$

     RDKit          3D

 31 34  0  0  0  0  0  0  0  0999 V2000
   -1.0430   18.6800   44.8740 C   0  0  0  0  0  0  0  0  0  0  0  0
   -0.1240   16.9330   43.7830 C   0  0  0  0  0  0  0  0  0  0  0  0
    2.9330   18.2710   39.2110 C   0  0  0  0  0  0  0  0  0  0  0  0
    3.2320   19.4030   37.2030 C   0  0  0  0  0  0  0  0  0  0  0  0
    1.4800   18.9770   41.0580 C   0  0  0  0  0  0  0  0  0  0  0  0
    2.1620   19.1770   39.8250 C   0  0  0  0  0  0  0  0  0  0  0  0
    3.4510   18.3000   37.9990 C   0  0  0  0  0  0  0  0  0  0  0  0
    2.7040   20.5000   37.6960 C   0  0  0  0  0  0  0  0  0  0  0  0
    0.7040   21.5550   41.6970 Cl  0  0  0  0  0  0  0  0  0  0  0  0
    0.7100   19.9280   41.9260 C   0  0  0  0  0  0  0  0  0  0  0  0
    2.8750   21.0030   36.7150 O   0  0  0  0  0  0  0  0  0  0  0  0
    0.1130   19.2440   42.9730 C   0  0  0  0  0  0  0  0  0  0  0  0
    2.9430   15.3310   38.0690 C   0  0  0  0  0  0  0  0  0  0  0  0
    3.7830   16.0660   37.4320 C   0  0  0  0  0  0  0  0  0  0  0  0
    0.0630   15.2620   43.4960 S   0  0  0  0  0  0  0  0  0  0  0  0
    4.2580   17.2110   37.3520 O   0  0  0  0  0  0  0  0  0  0  0  0
   -0.6500   19.6360   43.9870 N   0  0  0  0  0  0  0  0  0  0  0  0
    3.6390   15.0020   37.0030 N   0  0  0  0  0  0  0  0  0  0  0  0
   -0.8320   17.3260   44.8090 N   0  0  0  0  0  0  0  0  0  0  0  0
    0.4960   17.9050   42.7470 C   0  0  0  0  0  0  0  0  0  0  0  0
    1.3950   17.6990   41.6540 N   0  0  0  0  0  0  0  0  0  0  0  0
    2.0750   20.3780   38.9770 C   0  0  0  0  0  0  0  0  0  0  0  0
   -1.5993   19.0385   45.7526 H   0  0  0  0  0  0  0  0  0  0  0  0
    3.1680   17.3738   39.8025 H   0  0  0  0  0  0  0  0  0  0  0  0
    3.5036   19.3643   36.1378 H   0  0  0  0  0  0  0  0  0  0  0  0
    1.5802   20.0249   42.5918 H   0  0  0  0  0  0  0  0  0  0  0  0
    3.1864   14.9153   39.0579 H   0  0  0  0  0  0  0  0  0  0  0  0
    1.8873   15.3733   38.3753 H   0  0  0  0  0  0  0  0  0  0  0  0
   -0.9323   20.6203   44.0978 H   0  0  0  0  0  0  0  0  0  0  0  0
    2.4748   21.2025   39.5855 H   0  0  0  0  0  0  0  0  0  0  0  0
    1.0139   20.3542   38.6881 H   0  0  0  0  0  0  0  0  0  0  0  0
  2 19  1  0
  3  6  2  0
  4  8  1  0
  4  7  2  0
  5 21  2  0
  5 10  1  0
  6  5  1  0
  7  3  1  0
  8 22  1  0
 10  9  1  0
 10 12  1  0
 11  8  2  0
 12 17  1  0
 14 13  1  0
 15  2  2  0
 16 14  1  0
 16  7  1  0
 17  1  1  0
 18 14  2  0
 18 13  1  0
 19  1  2  0
 20 12  2  0
 20  2  1  0
 21 20  1  0
 22  6  1  0
  1 23  1  0
  3 24  1  0
  4 25  1  0
 10 26  1  0
 13 27  1  0
 13 28  1  0
 17 29  1  0
 22 30  1  0
 22 31  1  0
M  END
>  <mol_id>  (13) 
2026-08-24-6tgu-s0-n20-refligand-0013

>  <rmsd_to_ref>  (13) 


$$$$

     RDKit          3D

 31 32  0  0  0  0  0  0  0  0999 V2000
    1.5150   17.6890   41.0770 C   0  0  0  0  0  0  0  0  0  0  0  0
    1.0250   16.7550   42.0850 N   0  0  0  0  0  0  0  0  0  0  0  0
    1.0480   18.9410   41.2500 C   0  0  0  0  0  0  0  0  0  0  0  0
    2.3970   18.8080   39.2190 C   0  0  0  0  0  0  0  0  0  0  0  0
   -0.1240   16.2840   43.9870 N   0  0  0  0  0  0  0  0  0  0  0  0
   -0.6090   18.9060   44.6340 C   0  0  0  0  0  0  0  0  0  0  0  0
    0.2870   17.2020   43.1420 C   0  0  0  0  0  0  0  0  0  0  0  0
    2.4370   21.2680   36.9460 O   0  0  0  0  0  1  0  0  0  0  0  0
    2.6390   18.9640   37.7710 C   0  0  0  0  0  0  0  0  0  0  0  0
    2.4750   17.2780   39.8320 S   0  0  0  0  0  0  0  0  0  0  0  0
    4.0720   20.8500   35.5840 O   0  0  0  0  0  0  0  0  0  0  0  0
    3.4050   20.4780   36.6190 C   0  0  0  0  0  0  0  0  0  0  0  0
   -0.0150   19.4390   42.1420 C   0  0  0  0  0  0  0  0  0  0  0  0
    3.8030   19.4270   37.4010 C   0  0  0  0  0  0  0  0  0  0  0  0
   -0.0420   18.5020   43.3770 N   0  0  0  0  0  0  0  0  0  0  0  0
   -0.1510   20.9060   42.5100 C   0  0  0  0  0  0  0  0  0  0  0  0
    1.6680   20.0770   40.1030 S   0  0  0  0  0  0  0  0  0  0  0  0
    3.3545   19.1611   39.6295 H   0  0  0  0  0  0  0  0  0  0  0  0
   -0.6858   16.5535   44.8072 H   0  0  0  0  0  0  0  0  0  0  0  0
    0.1155   15.2947   43.8294 H   0  0  0  0  0  0  0  0  0  0  0  0
   -0.0148   18.4826   45.4572 H   0  0  0  0  0  0  0  0  0  0  0  0
   -0.6019   20.0038   44.7035 H   0  0  0  0  0  0  0  0  0  0  0  0
   -1.6443   18.5409   44.7035 H   0  0  0  0  0  0  0  0  0  0  0  0
    2.5157   17.9740   37.3077 H   0  0  0  0  0  0  0  0  0  0  0  0
    1.9172   19.7281   37.4467 H   0  0  0  0  0  0  0  0  0  0  0  0
   -0.9129   19.4040   41.5076 H   0  0  0  0  0  0  0  0  0  0  0  0
    4.3736   18.6833   36.8253 H   0  0  0  0  0  0  0  0  0  0  0  0
    4.4782   19.6947   38.2271 H   0  0  0  0  0  0  0  0  0  0  0  0
   -0.1606   21.0100   43.6050 H   0  0  0  0  0  0  0  0  0  0  0  0
    0.6989   21.4683   42.0958 H   0  0  0  0  0  0  0  0  0  0  0  0
   -1.0897   21.3024   42.0958 H   0  0  0  0  0  0  0  0  0  0  0  0
  1  3  2  0
  1  2  1  0
  2  7  2  0
  3 13  1  0
  4  9  1  0
  4 10  1  0
  4 17  1  0
  7 15  1  0
  7  5  1  0
 10  1  1  0
 11 12  2  0
 12  8  1  0
 12 14  1  0
 13 16  1  0
 13 15  1  0
 14  9  1  0
 15  6  1  0
 17  3  1  0
  4 18  1  0
  5 19  1  0
  5 20  1  0
  6 21  1  0
  6 22  1  0
  6 23  1  0
  9 24  1  0
  9 25  1  0
 13 26  1  0
 14 27  1  0
 14 28  1  0
 16 29  1  0
 16 30  1  0
 16 31  1  0
M  CHG  1   8  -1
M  END
>  <mol_id>  (14) 
2026-08-24-6tgu-s0-n20-refligand-0014

>  <rmsd_to_ref>  (14) 


$$$$

     RDKit          3D

 44 47  0  0  0  0  0  0  0  0999 V2000
   -0.5510   17.1010   45.7860 C   0  0  0  0  0  0  0  0  0  0  0  0
    1.4860   18.0920   41.2230 C   0  0  0  0  0  0  0  0  0  0  0  0
    1.4560   15.5130   41.9630 S   0  0  0  0  0  0  0  0  0  0  0  0
    0.2040   17.3960   43.3820 C   0  0  0  0  0  0  0  0  0  0  0  0
    3.3900   18.9170   38.5760 C   0  0  0  0  0  0  0  0  0  0  0  0
    2.2320   17.2580   40.1790 C   0  0  0  0  0  0  0  0  0  0  0  0
    1.6050   20.1810   39.9120 C   0  0  0  0  0  0  0  0  0  0  0  0
    1.3060   19.5030   40.9300 C   0  0  0  0  0  0  0  0  0  0  0  0
    3.8150   19.7470   36.1750 C   0  0  0  0  0  0  0  0  0  0  0  0
    3.0190   20.9680   36.3150 C   0  0  0  0  0  0  0  0  0  0  0  0
    3.7820   18.7430   37.0710 C   0  0  0  0  0  0  0  0  0  0  0  0
   -0.0010   18.6290   43.5790 N   0  0  0  0  0  0  0  0  0  0  0  0
    2.1420   15.8040   40.4950 C   0  0  0  0  0  0  0  0  0  0  0  0
    2.7920   21.8020   35.4730 O   0  0  0  0  0  0  0  0  0  0  0  0
   -0.2990   16.4290   44.4310 C   0  0  0  0  0  0  0  0  0  0  0  0
    2.9240   17.6520   39.0190 C   0  0  0  0  0  0  0  0  0  0  0  0
   -1.5230   16.5010   46.6070 O   0  0  0  0  0  0  0  0  0  0  0  0
    2.3710   21.1560   37.7250 C   0  0  0  0  0  0  0  0  0  0  0  0
    1.0170   17.0330   42.2000 C   0  0  0  0  0  0  0  0  0  0  0  0
   -0.9160   20.5030   44.4190 O   0  0  0  0  0  0  0  0  0  0  0  0
    2.4320   19.9980   38.6920 C   0  0  0  0  0  0  0  0  0  0  0  0
   -1.0990   18.4880   45.5130 N   0  0  0  0  0  0  0  0  0  0  0  0
   -0.6540   19.1590   44.5130 C   0  0  0  0  0  0  0  0  0  0  0  0
    4.2790   19.4060   39.8010 C   0  0  0  0  0  0  0  0  0  0  0  0
    0.4155   17.0465   46.3085 H   0  0  0  0  0  0  0  0  0  0  0  0
    1.1269   21.1715   39.9314 H   0  0  0  0  0  0  0  0  0  0  0  0
    0.8261   20.0781   41.7356 H   0  0  0  0  0  0  0  0  0  0  0  0
    3.5223   19.3033   35.2120 H   0  0  0  0  0  0  0  0  0  0  0  0
    4.8356   20.1328   36.3148 H   0  0  0  0  0  0  0  0  0  0  0  0
    3.0754   18.0049   36.6637 H   0  0  0  0  0  0  0  0  0  0  0  0
    4.8539   18.5133   37.1626 H   0  0  0  0  0  0  0  0  0  0  0  0
    2.4959   15.0108   39.8200 H   0  0  0  0  0  0  0  0  0  0  0  0
   -1.2418   15.9861   44.0775 H   0  0  0  0  0  0  0  0  0  0  0  0
    0.4797   15.6663   44.5791 H   0  0  0  0  0  0  0  0  0  0  0  0
    2.2695   17.3166   38.2010 H   0  0  0  0  0  0  0  0  0  0  0  0
    3.9054   17.2554   39.3184 H   0  0  0  0  0  0  0  0  0  0  0  0
   -1.2875   16.6464   47.5575 H   0  0  0  0  0  0  0  0  0  0  0  0
    2.8724   22.0096   38.2045 H   0  0  0  0  0  0  0  0  0  0  0  0
    1.2983   21.2870   37.5197 H   0  0  0  0  0  0  0  0  0  0  0  0
    2.0566   19.1510   38.0989 H   0  0  0  0  0  0  0  0  0  0  0  0
   -1.8233   18.8892   46.1256 H   0  0  0  0  0  0  0  0  0  0  0  0
    3.7841   19.1338   40.7449 H   0  0  0  0  0  0  0  0  0  0  0  0
    5.2667   18.9242   39.7526 H   0  0  0  0  0  0  0  0  0  0  0  0
    4.4010   20.4981   39.7526 H   0  0  0  0  0  0  0  0  0  0  0  0
  1 17  1  0
  2 19  2  0
  3 19  1  0
  4 12  2  0
  4 15  1  0
  5 21  1  0
  5 16  1  0
  5 24  1  0
  6 13  2  0
  6  2  1  0
  7  8  2  0
  8  2  1  0
  9 10  1  0
  9 11  1  0
 10 18  1  0
 11  5  1  0
 12 23  1  0
 13  3  1  0
 14 10  2  0
 15  1  1  0
 16  6  1  0
 19  4  1  0
 20 23  2  0
 21 18  1  0
 21  7  1  0
 22  1  1  0
 23 22  1  0
  1 25  1  0
  7 26  1  0
  8 27  1  0
  9 28  1  0
  9 29  1  0
 11 30  1  0
 11 31  1  0
 13 32  1  0
 15 33  1  0
 15 34  1  0
 16 35  1  0
 16 36  1  0
 17 37  1  0
 18 38  1  0
 18 39  1  0
 21 40  1  0
 22 41  1  0
 24 42  1  0
 24 43  1  0
 24 44  1  0
M  END
>  <mol_id>  (15) 
2026-08-24-6tgu-s0-n20-refligand-0015

>  <rmsd_to_ref>  (15) 


$$$$

     RDKit          3D

 49 49  0  0  0  0  0  0  0  0999 V2000
    0.5170   20.3810   41.5770 C   0  0  0  0  0  0  0  0  0  0  0  0
    1.8280   21.0840   39.5390 F   0  0  0  0  0  0  0  0  0  0  0  0
    1.1660   15.7340   42.2150 C   0  0  0  0  0  0  0  0  0  0  0  0
    3.0280   20.4800   37.0190 C   0  0  0  0  0  0  0  0  0  0  0  0
   -0.9210   19.4790   44.6600 O   0  0  0  0  0  0  0  0  0  0  0  0
   -0.0760   18.2200   46.2680 C   0  0  0  0  0  0  0  0  0  0  0  0
    3.1250   18.5290   38.5050 C   0  0  0  0  0  0  0  0  0  0  0  0
   -0.0610   20.6910   42.8100 C   0  0  0  0  0  0  0  0  0  0  0  0
   -1.2230   18.2130   45.3020 C   0  0  0  0  0  0  0  0  0  0  0  0
    0.6160   18.9150   41.3280 C   0  0  0  0  0  0  0  0  0  0  0  0
   -0.2190   19.5360   43.5610 C   0  0  0  0  0  0  0  0  0  0  0  0
   -0.2870   14.6830   44.1170 S   0  0  0  0  0  0  0  0  0  0  0  0
   -0.0550   18.2590   42.3760 C   0  0  0  0  0  0  0  0  0  0  0  0
    2.2640   13.6460   41.4440 C   0  0  0  0  0  0  0  0  0  0  0  0
    4.6560   17.0140   37.8100 O   0  0  0  0  0  0  0  0  0  0  0  0
   -0.2810   13.1210   44.6640 C   0  0  0  0  0  0  0  0  0  0  0  0
    0.7200   17.0490   42.6040 N   0  0  0  0  0  0  0  0  0  0  0  0
    1.9660   20.1290   39.1490 N   0  0  0  0  0  0  0  0  0  0  0  0
    3.7060   20.4020   36.1740 O   0  0  0  0  0  0  0  0  0  0  0  0
    2.4040   21.5200   36.7760 O   0  0  0  0  0  1  0  0  0  0  0  0
    3.1000   17.7080   39.2780 O   0  0  0  0  0  0  0  0  0  0  0  0
    1.4860   13.4320   42.4140 N   0  0  0  0  0  0  0  0  0  0  0  0
    2.7680   19.7050   38.1870 C   0  0  0  0  0  0  0  0  0  0  0  0
    2.3310   15.3040   40.9950 S   0  0  0  0  0  0  0  0  0  0  0  0
    3.7600   17.6710   37.3290 C   0  0  0  0  0  0  0  0  0  0  0  0
    3.6750   17.6020   36.3510 N   0  0  0  0  0  0  0  0  0  0  0  0
    0.8490   14.6560   42.8540 C   0  0  0  0  0  0  0  0  0  0  0  0
   -0.0949   20.8304   40.7810 H   0  0  0  0  0  0  0  0  0  0  0  0
    1.5415   20.7814   41.5859 H   0  0  0  0  0  0  0  0  0  0  0  0
   -0.4636   18.2176   47.2974 H   0  0  0  0  0  0  0  0  0  0  0  0
    0.5440   17.3256   46.1076 H   0  0  0  0  0  0  0  0  0  0  0  0
    0.5330   19.1219   46.1076 H   0  0  0  0  0  0  0  0  0  0  0  0
    0.5904   21.3923   43.3521 H   0  0  0  0  0  0  0  0  0  0  0  0
   -1.0458   21.1517   42.6427 H   0  0  0  0  0  0  0  0  0  0  0  0
   -2.1996   18.2202   45.8082 H   0  0  0  0  0  0  0  0  0  0  0  0
   -1.3076   17.3353   44.6444 H   0  0  0  0  0  0  0  0  0  0  0  0
    0.1442   18.6653   40.3662 H   0  0  0  0  0  0  0  0  0  0  0  0
    1.6693   18.6005   41.2871 H   0  0  0  0  0  0  0  0  0  0  0  0
    0.5008   19.4064   44.3826 H   0  0  0  0  0  0  0  0  0  0  0  0
   -1.0729   17.8540   42.2772 H   0  0  0  0  0  0  0  0  0  0  0  0
    2.8385   12.8554   40.9392 H   0  0  0  0  0  0  0  0  0  0  0  0
   -0.2810   13.1177   45.7640 H   0  0  0  0  0  0  0  0  0  0  0  0
   -1.1772   12.6001   44.2958 H   0  0  0  0  0  0  0  0  0  0  0  0
    0.6191   12.6070   44.2958 H   0  0  0  0  0  0  0  0  0  0  0  0
    1.1914   17.2183   43.5040 H   0  0  0  0  0  0  0  0  0  0  0  0
    2.2344   19.5620   39.9659 H   0  0  0  0  0  0  0  0  0  0  0  0
    1.8587   19.3019   37.7171 H   0  0  0  0  0  0  0  0  0  0  0  0
    2.9386   18.1285   35.8596 H   0  0  0  0  0  0  0  0  0  0  0  0
    4.3225   17.0033   35.8187 H   0  0  0  0  0  0  0  0  0  0  0  0
  1  8  1  0
  3 17  1  0
  3 27  2  0
  5  9  1  0
  7 21  2  0
  8 11  1  0
  9  6  1  0
 10  1  1  0
 10 13  1  0
 11  5  1  0
 12 16  1  0
 13 17  1  0
 13 11  1  0
 14 22  2  0
 18  2  1  0
 19  4  2  0
 20  4  1  0
 22 27  1  0
 23  4  1  0
 23  7  1  0
 23 18  1  0
 24 14  1  0
 24  3  1  0
 25 15  2  0
 25  7  1  0
 26 25  1  0
 27 12  1  0
  1 28  1  0
  1 29  1  0
  6 30  1  0
  6 31  1  0
  6 32  1  0
  8 33  1  0
  8 34  1  0
  9 35  1  0
  9 36  1  0
 10 37  1  0
 10 38  1  0
 11 39  1  0
 13 40  1  0
 14 41  1  0
 16 42  1  0
 16 43  1  0
 16 44  1  0
 17 45  1  0
 18 46  1  0
 23 47  1  0
 26 48  1  0
 26 49  1  0
M  CHG  1  20  -1
M  END
>  <mol_id>  (16) 
2026-08-24-6tgu-s0-n20-refligand-0016

>  <rmsd_to_ref>  (16) 


$$$$

     RDKit          3D

 64 67  0  0  0  0  0  0  0  0999 V2000
    4.7150   14.5490   35.8980 C   0  0  0  0  0  0  0  0  0  0  0  0
    2.4790   18.6720   39.2830 C   0  0  0  0  0  0  0  0  0  0  0  0
   -0.7900   16.1800   45.6980 O   0  0  0  0  0  0  0  0  0  0  0  0
    4.7240   11.0010   36.2630 O   0  0  0  0  0  0  0  0  0  0  0  0
    3.3640   16.9870   38.1660 C   0  0  0  0  0  0  0  0  0  0  0  0
    4.4990   12.1500   37.7580 O   0  0  0  0  0  0  0  0  0  0  0  0
   -1.7080   19.6450   45.8000 F   0  0  0  0  0  0  0  0  0  0  0  0
    3.2010   20.6540   40.5870 C   0  0  0  0  0  0  0  0  0  0  0  0
    2.2900   21.2020   36.9860 O   0  0  0  0  0  1  0  0  0  0  0  0
    4.9460   13.2680   35.6340 C   0  0  0  0  0  0  0  0  0  0  0  0
   -0.1950   19.2510   44.1090 C   0  0  0  0  0  0  0  0  0  0  0  0
    4.6300   12.3830   36.5630 C   0  0  0  0  0  0  0  0  0  0  0  0
    3.9580   13.0150   38.5890 C   0  0  0  0  0  0  0  0  0  0  0  0
    4.0690   16.3070   37.2240 N   0  0  0  0  0  0  0  0  0  0  0  0
    2.9840   16.4210   39.3410 N   0  0  0  0  0  0  0  0  0  0  0  0
    4.6370   10.6950   35.4870 O   0  0  0  0  0  0  0  0  0  0  0  0
    6.0630   12.9960   34.2150 S   0  0  0  0  0  0  0  0  0  0  0  0
    4.2970   14.9900   37.1280 C   0  0  0  0  0  0  0  0  0  0  0  0
   -0.7230   18.6130   45.3860 C   0  0  0  0  0  0  0  0  0  0  0  0
    1.0680   19.1470   41.0590 C   0  0  0  0  0  0  0  0  0  0  0  0
    3.2140   20.4460   36.5700 C   0  0  0  0  0  0  0  0  0  0  0  0
   -0.9420   21.4090   43.6440 O   0  0  0  0  0  1  0  0  0  0  0  0
    2.2930   17.5170   40.0570 C   0  0  0  0  0  0  0  0  0  0  0  0
    4.0930   20.7920   35.8020 O   0  0  0  0  0  0  0  0  0  0  0  0
    1.9750   19.8660   40.1230 C   0  0  0  0  0  0  0  0  0  0  0  0
    1.4420   17.6160   41.2690 C   0  0  0  0  0  0  0  0  0  0  0  0
    3.0410   18.4670   38.1000 C   0  0  0  0  0  0  0  0  0  0  0  0
   -0.7690   17.0030   43.6100 O   0  0  0  0  0  0  0  0  0  0  0  0
    0.2350   18.5120   46.2460 F   0  0  0  0  0  0  0  0  0  0  0  0
    0.6240   20.1630   42.0350 C   0  0  0  0  0  0  0  0  0  0  0  0
    4.0960   14.2890   38.1510 C   0  0  0  0  0  0  0  0  0  0  0  0
    0.8120   21.4860   41.2970 C   0  0  0  0  0  0  0  0  0  0  0  0
    0.7680   19.3920   43.1140 N   0  0  0  0  0  0  0  0  0  0  0  0
   -2.1190   19.5980   43.0680 O   0  0  0  0  0  0  0  0  0  0  0  0
   -1.2110   20.0950   43.7650 C   0  0  0  0  0  0  0  0  0  0  0  0
   -0.3640   14.9850   45.1350 C   0  0  0  0  0  0  0  0  0  0  0  0
    1.0420   21.0280   39.8800 O   0  0  0  0  0  0  0  0  0  0  0  0
    3.4050   19.1850   36.8650 C   0  0  0  0  0  0  0  0  0  0  0  0
   -1.2410   17.2270   44.9210 C   0  0  0  0  0  0  0  0  0  0  0  0
    3.9463   14.8735   35.1812 H   0  0  0  0  0  0  0  0  0  0  0  0
    5.7280   14.9740   35.8417 H   0  0  0  0  0  0  0  0  0  0  0  0
    3.2302   20.6728   41.6865 H   0  0  0  0  0  0  0  0  0  0  0  0
    4.1129   20.1724   40.2041 H   0  0  0  0  0  0  0  0  0  0  0  0
    3.1416   21.6835   40.2041 H   0  0  0  0  0  0  0  0  0  0  0  0
    4.1551   12.6872   35.1369 H   0  0  0  0  0  0  0  0  0  0  0  0
    4.2237   13.3975   36.4378 H   0  0  0  0  0  0  0  0  0  0  0  0
    2.8865   12.7880   38.6912 H   0  0  0  0  0  0  0  0  0  0  0  0
    4.4751   12.9286   39.5560 H   0  0  0  0  0  0  0  0  0  0  0  0
    4.4863   16.8844   36.4801 H   0  0  0  0  0  0  0  0  0  0  0  0
    4.3666    9.7439   35.5357 H   0  0  0  0  0  0  0  0  0  0  0  0
    7.3174   12.6905   34.6733 H   0  0  0  0  0  0  0  0  0  0  0  0
    0.0790   18.7690   40.7608 H   0  0  0  0  0  0  0  0  0  0  0  0
    1.9998   17.4353   42.1997 H   0  0  0  0  0  0  0  0  0  0  0  0
    0.6139   16.8989   41.3695 H   0  0  0  0  0  0  0  0  0  0  0  0
    0.1247   16.5789   43.6490 H   0  0  0  0  0  0  0  0  0  0  0  0
   -0.1615   20.7526   42.5303 H   0  0  0  0  0  0  0  0  0  0  0  0
    3.9938   14.9625   39.0147 H   0  0  0  0  0  0  0  0  0  0  0  0
   -0.0866   22.1161   41.3720 H   0  0  0  0  0  0  0  0  0  0  0  0
    1.6273   22.1050   41.6996 H   0  0  0  0  0  0  0  0  0  0  0  0
   -0.1102   14.2731   45.9342 H   0  0  0  0  0  0  0  0  0  0  0  0
   -1.1681   14.5658   44.5123 H   0  0  0  0  0  0  0  0  0  0  0  0
    0.5239   15.1690   44.5123 H   0  0  0  0  0  0  0  0  0  0  0  0
    3.9019   18.5826   36.0903 H   0  0  0  0  0  0  0  0  0  0  0  0
   -2.3383   17.2535   44.9937 H   0  0  0  0  0  0  0  0  0  0  0  0
  1 18  1  0
  2 23  2  0
  2 25  1  0
  5 15  2  0
  6 13  1  0
 10 17  1  0
 10  1  1  0
 10 12  1  0
 11 19  1  0
 12  4  1  0
 12  6  1  0
 14  5  1  0
 15 23  1  0
 16  4  1  0
 18 14  1  0
 18 31  2  0
 19  7  1  0
 19 29  1  0
 20 26  1  0
 20 30  1  0
 21 38  1  0
 21  9  1  0
 22 35  1  0
 23 26  1  0
 24 21  2  0
 25  8  1  0
 25 20  1  0
 27  5  1  0
 27  2  1  0
 30 33  1  0
 31 13  1  0
 32 30  1  0
 33 11  2  3
 34 35  2  0
 35 11  1  0
 36  3  1  0
 37 25  1  0
 37 32  1  0
 38 27  2  3
 39 28  1  0
 39 19  1  0
 39  3  1  0
  1 40  1  0
  1 41  1  0
  8 42  1  0
  8 43  1  0
  8 44  1  0
 10 45  1  0
 12 46  1  0
 13 47  1  0
 13 48  1  0
 14 49  1  0
 16 50  1  0
 17 51  1  0
 20 52  1  0
 26 53  1  0
 26 54  1  0
 28 55  1  0
 30 56  1  0
 31 57  1  0
 32 58  1  0
 32 59  1  0
 36 60  1  0
 36 61  1  0
 36 62  1  0
 38 63  1  0
 39 64  1  0
M  CHG  2   9  -1  22  -1
M  END
>  <mol_id>  (17) 
2026-08-24-6tgu-s0-n20-refligand-0017

>  <rmsd_to_ref>  (17) 


$$$$

     RDKit          3D

 31 34  0  0  0  0  0  0  0  0999 V2000
    0.9040   18.9680   41.9870 C   0  0  0  0  0  0  0  0  0  0  0  0
    3.3470   19.4590   36.7740 N   0  0  0  0  0  4  0  0  0  0  0  0
    0.4680   21.1350   41.6110 N   0  0  0  0  0  0  0  0  0  0  0  0
    0.7250   17.7350   42.6850 C   0  0  0  0  0  0  0  0  0  0  0  0
    3.9700   17.2080   37.2850 N   0  0  0  0  0  4  0  0  0  0  0  0
    1.3210   20.7100   40.7210 C   0  0  0  0  0  0  0  0  0  0  0  0
   -0.8020   19.9810   43.4140 C   0  0  0  0  0  0  0  0  0  0  0  0
    2.7460   18.7110   38.6810 C   0  0  0  0  0  0  0  0  0  0  0  0
   -0.9240   18.7840   44.0900 C   0  0  0  0  0  0  0  0  0  0  0  0
    2.4250   18.5060   39.9890 C   0  0  0  0  0  0  0  0  0  0  0  0
    2.3560   21.1960   37.7150 O   0  0  0  0  0  0  0  0  0  0  0  0
    3.2720   18.3930   37.5250 C   0  0  0  0  0  0  0  0  0  0  0  0
   -0.1400   17.6620   43.7470 C   0  0  0  0  0  0  0  0  0  0  0  0
    2.7460   19.9140   37.9160 C   0  0  0  0  0  0  0  0  0  0  0  0
    0.1170   20.0640   42.3730 C   0  0  0  0  0  0  0  0  0  0  0  0
    1.6430   19.3730   40.8390 C   0  0  0  0  0  0  0  0  0  0  0  0
    4.2895   19.8191   36.5669 H   0  0  0  0  0  0  0  0  0  0  0  0
    3.0118   19.5664   35.8060 H   0  0  0  0  0  0  0  0  0  0  0  0
    1.2827   16.8408   42.3699 H   0  0  0  0  0  0  0  0  0  0  0  0
    4.2264   16.7727   38.1826 H   0  0  0  0  0  0  0  0  0  0  0  0
    3.3747   16.5617   36.7477 H   0  0  0  0  0  0  0  0  0  0  0  0
    4.8239   17.4153   36.7477 H   0  0  0  0  0  0  0  0  0  0  0  0
    1.7472   21.3608   39.9433 H   0  0  0  0  0  0  0  0  0  0  0  0
   -1.4173   20.8494   43.6920 H   0  0  0  0  0  0  0  0  0  0  0  0
    3.6966   19.1724   38.9866 H   0  0  0  0  0  0  0  0  0  0  0  0
   -1.6481   18.7028   44.9141 H   0  0  0  0  0  0  0  0  0  0  0  0
    1.8946   17.5424   40.0028 H   0  0  0  0  0  0  0  0  0  0  0  0
    3.4157   18.6634   40.4404 H   0  0  0  0  0  0  0  0  0  0  0  0
    2.2207   21.6407   38.5891 H   0  0  0  0  0  0  0  0  0  0  0  0
   -0.2222   16.7323   44.3291 H   0  0  0  0  0  0  0  0  0  0  0  0
    0.8752   20.3459   43.1184 H   0  0  0  0  0  0  0  0  0  0  0  0
  1 15  1  0
  1  4  1  0
  2 12  1  0
  2 14  1  0
  3 15  1  0
  4 13  2  0
  6 16  1  0
  6  3  2  0
  7  9  2  0
  8 10  1  0
 10 16  1  0
 12  5  1  0
 12 14  1  0
 12  8  1  0
 13  9  1  0
 14 11  1  0
 14  8  1  0
 15  7  1  0
 16  1  2  0
  2 17  1  0
  2 18  1  0
  4 19  1  0
  5 20  1  0
  5 21  1  0
  5 22  1  0
  6 23  1  0
  7 24  1  0
  8 25  1  0
  9 26  1  0
 10 27  1  0
 10 28  1  0
 11 29  1  0
 13 30  1  0
 15 31  1  0
M  CHG  2   2   1   5   1
M  END
>  <mol_id>  (18) 
2026-08-24-6tgu-s0-n20-refligand-0018

>  <rmsd_to_ref>  (18) 


$$$$

     RDKit          3D

 32 34  0  0  0  0  0  0  0  0999 V2000
    3.5400   19.8290   36.8030 C   0  0  0  0  0  0  0  0  0  0  0  0
    0.6060   16.9810   42.7100 C   0  0  0  0  0  0  0  0  0  0  0  0
    1.0390   13.1030   42.9260 C   0  0  0  0  0  0  0  0  0  0  0  0
    2.6860   20.1900   37.9260 C   0  0  0  0  0  0  0  0  0  0  0  0
    1.2040   18.6480   41.3050 C   0  0  0  0  0  0  0  0  0  0  0  0
    0.5030   15.6130   43.3440 O   0  0  0  0  0  0  0  0  0  0  0  0
    0.9870   14.4470   42.7100 C   0  0  0  0  0  0  0  0  0  0  0  0
    1.1310   20.7790   40.4420 C   0  0  0  0  0  0  0  0  0  0  0  0
    0.4980   19.4640   42.0460 N   0  0  0  0  0  0  0  0  0  0  0  0
    3.0350   17.9000   38.7010 C   0  0  0  0  0  0  0  0  0  0  0  0
    1.2740   17.2920   41.6290 N   0  0  0  0  0  0  0  0  0  0  0  0
    3.8130   17.6060   37.6130 C   0  0  0  0  0  0  0  0  0  0  0  0
   -0.1350   17.8600   43.5430 N   0  0  0  0  0  0  0  0  0  0  0  0
   -0.1980   19.1300   43.1970 C   0  0  0  0  0  0  0  0  0  0  0  0
    0.4590   20.7730   41.5920 N   0  0  0  0  0  0  0  0  0  0  0  0
    3.7500   20.6900   35.9460 O   0  0  0  0  0  0  0  0  0  0  0  0
    2.4800   19.1820   38.9250 C   0  0  0  0  0  0  0  0  0  0  0  0
    1.6290   19.5120   40.1330 C   0  0  0  0  0  0  0  0  0  0  0  0
   -0.7530   19.9660   43.8600 O   0  0  0  0  0  0  0  0  0  0  0  0
   -0.8460   17.4160   44.7850 C   0  0  0  0  0  0  0  0  0  0  0  0
    2.0980   21.4380   37.8860 Cl  0  0  0  0  0  0  0  0  0  0  0  0
    4.0350   18.5390   36.6670 N   0  0  0  0  0  0  0  0  0  0  0  0
    1.5168   12.4450   42.1852 H   0  0  0  0  0  0  0  0  0  0  0  0
    0.6032   12.6758   43.8412 H   0  0  0  0  0  0  0  0  0  0  0  0
    3.5546   20.6160   38.4496 H   0  0  0  0  0  0  0  0  0  0  0  0
    1.4666   14.7010   41.7532 H   0  0  0  0  0  0  0  0  0  0  0  0
    1.2755   21.6707   39.8143 H   0  0  0  0  0  0  0  0  0  0  0  0
    2.8327   17.1043   39.4331 H   0  0  0  0  0  0  0  0  0  0  0  0
    4.2579   16.6051   37.5113 H   0  0  0  0  0  0  0  0  0  0  0  0
   -0.2908   17.7627   45.6691 H   0  0  0  0  0  0  0  0  0  0  0  0
   -1.8603   17.8415   44.7988 H   0  0  0  0  0  0  0  0  0  0  0  0
   -0.9088   16.3179   44.7988 H   0  0  0  0  0  0  0  0  0  0  0  0
  1  4  1  0
  2  6  1  0
  2 13  1  0
  4 21  1  0
  4 17  1  0
  5 11  1  0
  5  9  1  0
  7  3  2  3
  7  6  1  0
  8 15  2  0
  9 14  1  0
 10 17  2  0
 11  2  2  0
 12 10  1  0
 13 20  1  0
 14 13  1  0
 14 19  2  0
 15  9  1  0
 16  1  2  0
 17 18  1  0
 18  8  1  0
 18  5  2  0
 22  1  1  0
 22 12  2  0
  3 23  1  0
  3 24  1  0
  4 25  1  0
  7 26  1  0
  8 27  1  0
 10 28  1  0
 12 29  1  0
 20 30  1  0
 20 31  1  0
 20 32  1  0
M  END
>  <mol_id>  (19) 
2026-08-24-6tgu-s0-n20-refligand-0019

>  <rmsd_to_ref>  (19) 


$$$$

     RDKit          3D

 38 41  0  0  0  0  0  0  0  0999 V2000
    1.0040   20.7990   40.9280 C   0  0  0  0  0  0  0  0  0  0  0  0
    3.5000   18.8610   36.9660 C   0  0  0  0  0  0  0  0  0  0  0  0
    3.0720   20.1170   37.2430 C   0  0  0  0  0  0  0  0  0  0  0  0
    3.2110   17.7860   37.8120 C   0  0  0  0  0  0  0  0  0  0  0  0
    2.6710   14.5620   40.2330 N   0  0  0  0  0  4  0  0  0  0  0  0
    1.5200   15.9160   41.9550 C   0  0  0  0  0  0  0  0  0  0  0  0
    2.0040   19.2950   39.2190 C   0  0  0  0  0  0  0  0  0  0  0  0
    0.3280   19.2100   42.4260 C   0  0  0  0  0  0  0  0  0  0  0  0
   -0.6500   20.3300   43.9800 N   0  0  0  0  0  0  0  0  0  0  0  0
    2.2180   15.8070   40.5510 C   0  0  0  0  0  0  0  0  0  0  0  0
   -0.3170   21.2270   43.1200 N   0  0  0  0  0  0  0  0  0  0  0  0
    0.3520   20.5340   42.1640 C   0  0  0  0  0  0  0  0  0  0  0  0
   -0.5060   17.8120   44.4680 C   0  0  0  0  0  0  0  0  0  0  0  0
    2.3240   20.3210   38.3170 C   0  0  0  0  0  0  0  0  0  0  0  0
    1.0260   18.4550   41.4330 C   0  0  0  0  0  0  0  0  0  0  0  0
    0.9830   17.1820   41.8570 N   0  0  0  0  0  4  0  0  0  0  0  0
    2.3590   16.8650   39.8410 N   0  0  0  0  0  0  0  0  0  0  0  0
   -0.3200   19.0730   43.6640 C   0  0  0  0  0  0  0  0  0  0  0  0
    2.4910   17.9890   39.0070 C   0  0  0  0  0  0  0  0  0  0  0  0
    3.4010   21.1190   36.4730 O   0  0  0  0  0  0  0  0  0  0  0  0
    1.3630   19.5330   40.5020 C   0  0  0  0  0  0  0  0  0  0  0  0
    1.1787   21.7668   40.4352 H   0  0  0  0  0  0  0  0  0  0  0  0
    4.0887   18.6833   36.0539 H   0  0  0  0  0  0  0  0  0  0  0  0
    3.5480   16.7740   37.5431 H   0  0  0  0  0  0  0  0  0  0  0  0
    2.8626   14.0353   41.0971 H   0  0  0  0  0  0  0  0  0  0  0  0
    1.9561   14.0672   39.6807 H   0  0  0  0  0  0  0  0  0  0  0  0
    3.5367   14.6423   39.6807 H   0  0  0  0  0  0  0  0  0  0  0  0
    0.7405   15.1507   42.0840 H   0  0  0  0  0  0  0  0  0  0  0  0
    2.1855   15.7602   42.8169 H   0  0  0  0  0  0  0  0  0  0  0  0
    1.2485   15.5727   40.0872 H   0  0  0  0  0  0  0  0  0  0  0  0
   -0.4705   18.0526   45.5408 H   0  0  0  0  0  0  0  0  0  0  0  0
   -1.4802   17.3626   44.2250 H   0  0  0  0  0  0  0  0  0  0  0  0
    0.2969   17.1004   44.2250 H   0  0  0  0  0  0  0  0  0  0  0  0
    1.9390   21.3334   38.5091 H   0  0  0  0  0  0  0  0  0  0  0  0
    0.8650   17.3680   42.8632 H   0  0  0  0  0  0  0  0  0  0  0  0
    0.5980   16.9179   40.9389 H   0  0  0  0  0  0  0  0  0  0  0  0
    2.6922   17.3989   40.6564 H   0  0  0  0  0  0  0  0  0  0  0  0
    3.0824   22.0319   36.6854 H   0  0  0  0  0  0  0  0  0  0  0  0
  1 12  1  0
  2  3  2  0
  2  4  1  0
  3 14  1  0
  4 19  2  0
  7 21  1  0
  8 18  1  0
 10  5  1  0
 10  6  1  0
 11  9  1  0
 12  8  1  0
 12 11  2  0
 14  7  2  0
 15 16  1  0
 15  8  2  0
 16  6  1  0
 17 10  1  0
 18  9  2  0
 18 13  1  0
 19  7  1  0
 19 17  1  0
 20  3  1  0
 21  1  2  0
 21 15  1  0
  1 22  1  0
  2 23  1  0
  4 24  1  0
  5 25  1  0
  5 26  1  0
  5 27  1  0
  6 28  1  0
  6 29  1  0
 10 30  1  0
 13 31  1  0
 13 32  1  0
 13 33  1  0
 14 34  1  0
 16 35  1  0
 16 36  1  0
 17 37  1  0
 20 38  1  0
M  CHG  2   5   1  16   1
M  END
>  <mol_id>  (20) 
2026-08-24-6tgu-s0-n20-refligand-0020

>  <rmsd_to_ref>  (20) 


$$$$
