@<TRIPOS>MOLECULE
5lvo.A
42 44 1 0 0 
SMALL
USER_CHARGES


@<TRIPOS>ATOM
  1 PG       6.0446    11.6596    35.3481 P.3   1 ATP   1.3712 
  2 O1G      6.6857    10.3761    35.8233 O.co2 1 ATP  -1.0333 
  3 O2G      7.0128    12.7983    35.0863 O.co2 1 ATP  -1.0333 
  4 O3G      4.9242    11.5942    34.3065 O.co2 1 ATP  -1.0333 
  5 PB       4.4287    13.2325    37.1738 P.3   1 ATP   1.4424 
  6 O1B      3.4541    12.5419    38.1258 O.co2 1 ATP  -0.9500 
  7 O2B      3.8999    14.1203    36.0895 O.co2 1 ATP  -0.9500 
  8 O3B      5.3979    12.0662    36.7543 O.3   1 ATP  -0.5424 
  9 PA       5.2417    15.5211    38.7997 P.3   1 ATP   1.4424 
 10 O1A      6.5190    15.7267    39.5253 O.co2 1 ATP  -0.9500 
 11 O2A      4.6087    16.5654    37.9224 O.co2 1 ATP  -0.9500 
 12 O3A      5.5021    14.1349    37.9925 O.3   1 ATP  -0.5424 
 13 O5'      4.4612    14.9348    40.0504 O.3   1 ATP  -0.5512 
 14 C5'      3.2714    14.5500    40.3109 C.3   1 ATP   0.1200 
 15 H5'1     2.9968    13.7642    39.6072 H     1 ATP   0.0800 
 16 H5'2     2.5964    15.3974    40.1908 H     1 ATP   0.0800 
 17 C4'      3.1269    14.0082    41.7280 C.3   1 ATP   0.2000 
 18 H4'      3.9114    13.3767    42.1450 H     1 ATP   0.0800 
 19 O4'      2.9377    15.1665    42.6179 O.3   1 ATP  -0.5600 
 20 C3'      1.7591    13.4263    41.4654 C.3   1 ATP   0.2000 
 21 H3'      1.7570    12.7644    40.5994 H     1 ATP   0.0800 
 22 O3'      1.2149    12.6157    42.4820 O.3   1 ATP  -0.6800 
 23 H3'      0.4167    13.0444    42.7991 H     1 ATP   0.4000 
 24 C2'      0.9728    14.7240    41.4281 C.3   1 ATP  -0.1526 
 25 H2'      1.0549    15.2374    40.4701 H     1 ATP   0.0800 
 26 O2'     -0.3948    14.5027    41.5793 O.3   1 ATP  -0.9274 
 27 C1'      1.5746    15.5672    42.5827 C.3   1 ATP   0.4556 
 28 H1'      1.0270    15.4040    43.5109 H     1 ATP   0.0800 
 29 N9       1.5120    17.0389    42.3170 N.pl3 1 ATP   0.0476 
 30 C8       2.0956    17.6708    41.2975 C.2   1 ATP   0.0365 
 31 H8       2.6829    17.1805    40.5352 H     1 ATP   0.1500 
 32 N7       1.8636    18.9827    41.3369 N.2   1 ATP  -0.5653 
 33 C5       1.1275    19.2082    42.4235 C.ar  1 ATP   0.2272 
 34 C6       0.5593    20.3890    42.9974 C.ar  1 ATP   0.4100 
 35 N6       0.7458    21.5608    42.3753 N.pl3 1 ATP  -0.9000 
 36 H61      0.3237    22.4011    42.7439 H     1 ATP   0.4000 
 37 H62      1.3086    21.6040    41.5377 H     1 ATP   0.4000 
 38 N1      -0.1692    20.2671    44.1012 N.ar  1 ATP  -0.6200 
 39 C2      -0.3612    19.0560    44.6559 C.ar  1 ATP   0.4700 
 40 H2      -0.9676    19.0057    45.5482 H     1 ATP   0.1500 
 41 N3       0.1446    17.9055    44.1831 N.ar  1 ATP  -0.5670 
 42 C4       0.8842    17.9569    43.0899 C.ar  1 ATP   0.1054 
@<TRIPOS>BOND
  1   1   2  ar  
  2   1   3  ar  
  3   1   4  ar  
  4   1   8  1   
  5   5   6  ar  
  6   5   7  ar  
  7   5   8  1   
  8   5  12  1   
  9   9  10  ar  
 10   9  11  ar  
 11   9  12  1   
 12   9  13  1   
 13  13  14  1   
 14  14  15  1   
 15  14  16  1   
 16  14  17  1   
 17  17  18  1   
 18  17  19  1   
 19  17  20  1   
 20  19  27  1   
 21  20  21  1   
 22  20  22  1   
 23  20  24  1   
 24  22  23  1   
 25  24  25  1   
 26  24  26  1   
 27  24  27  1   
 28  27  28  1   
 29  27  29  1   
 30  29  30  1   
 31  29  42  1   
 32  30  31  1   
 33  30  32  2   
 34  32  33  1   
 35  33  34  ar  
 36  33  42  ar  
 37  34  35  1   
 38  34  38  ar  
 39  35  36  1   
 40  35  37  1   
 41  38  39  ar  
 42  39  40  1   
 43  39  41  ar  
 44  41  42  ar  
@<TRIPOS>SUBSTRUCTURE
  1 ATP  14 GROUP 4 A **** 0

# MOE 2012.10 (io_trps.svl 2012.10)
