5lvo.A
     RDKit          3D

 31 33  0  0  0  0  0  0  0  0999 V2000
    6.0446   11.6596   35.3481 P   0  0  0  0  0  5  0  0  0  0  0  0
    6.6857   10.3761   35.8233 O   0  0  0  0  0  0  0  0  0  0  0  0
    7.0128   12.7983   35.0863 O   0  0  0  0  0  0  0  0  0  0  0  0
    4.9242   11.5942   34.3065 O   0  0  0  0  0  0  0  0  0  0  0  0
    4.4287   13.2325   37.1738 P   0  0  2  0  0  5  0  0  0  0  0  0
    3.4541   12.5419   38.1258 O   0  0  0  0  0  0  0  0  0  0  0  0
    3.8999   14.1203   36.0895 O   0  0  0  0  0  0  0  0  0  0  0  0
    5.3979   12.0662   36.7543 O   0  0  0  0  0  0  0  0  0  0  0  0
    5.2417   15.5211   38.7997 P   0  0  1  0  0  5  0  0  0  0  0  0
    6.5190   15.7267   39.5253 O   0  0  0  0  0  0  0  0  0  0  0  0
    4.6087   16.5654   37.9224 O   0  0  0  0  0  0  0  0  0  0  0  0
    5.5021   14.1349   37.9925 O   0  0  0  0  0  0  0  0  0  0  0  0
    4.4612   14.9348   40.0504 O   0  0  0  0  0  0  0  0  0  0  0  0
    3.2714   14.5500   40.3109 C   0  0  0  0  0  0  0  0  0  0  0  0
    3.1269   14.0082   41.7280 C   0  0  1  0  0  0  0  0  0  0  0  0
    2.9377   15.1665   42.6179 O   0  0  0  0  0  0  0  0  0  0  0  0
    1.7591   13.4263   41.4654 C   0  0  1  0  0  0  0  0  0  0  0  0
    1.2149   12.6157   42.4820 O   0  0  0  0  0  0  0  0  0  0  0  0
    0.9728   14.7240   41.4281 C   0  0  1  0  0  0  0  0  0  0  0  0
   -0.3948   14.5027   41.5793 O   0  0  0  0  0  0  0  0  0  0  0  0
    1.5746   15.5672   42.5827 C   0  0  2  0  0  0  0  0  0  0  0  0
    1.5120   17.0389   42.3170 N   0  0  0  0  0  0  0  0  0  0  0  0
    2.0956   17.6708   41.2975 C   0  0  0  0  0  0  0  0  0  0  0  0
    1.8636   18.9827   41.3369 N   0  0  0  0  0  0  0  0  0  0  0  0
    1.1275   19.2082   42.4235 C   0  0  0  0  0  0  0  0  0  0  0  0
    0.5593   20.3890   42.9974 C   0  0  0  0  0  0  0  0  0  0  0  0
    0.7458   21.5608   42.3753 N   0  0  0  0  0  0  0  0  0  0  0  0
   -0.1692   20.2671   44.1012 N   0  0  0  0  0  0  0  0  0  0  0  0
   -0.3612   19.0560   44.6559 C   0  0  0  0  0  0  0  0  0  0  0  0
    0.1446   17.9055   44.1831 N   0  0  0  0  0  0  0  0  0  0  0  0
    0.8842   17.9569   43.0899 C   0  0  0  0  0  0  0  0  0  0  0  0
  1  2  2  0
  1  3  1  0
  1  4  1  0
  1  8  1  0
  5  6  2  0
  5  7  1  6
  5  8  1  0
  5 12  1  0
  9 10  2  0
  9 11  1  6
  9 12  1  0
  9 13  1  0
 13 14  1  0
 15 14  1  6
 15 16  1  0
 15 17  1  0
 16 21  1  0
 17 18  1  1
 17 19  1  0
 19 20  1  1
 19 21  1  0
 21 22  1  6
 22 23  1  0
 22 31  1  0
 23 24  2  0
 24 25  1  0
 25 26  2  0
 25 31  1  0
 26 27  1  0
 26 28  1  0
 28 29  2  0
 29 30  1  0
 30 31  2  0
M  CHG  5   3  -1   4  -1   7  -1  11  -1  20  -1
M  END
>  <_TriposChargeType>  (1) 
USER_CHARGES

$$$$
