6tgu.A
     RDKit          3D

 32 34  0  0  0  0  0  0  0  0999 V2000
    3.2704   20.0816   36.9100 C   0  0  0  0  0  0  0  0  0  0  0  0
    2.7239   19.8375   38.3194 C   0  0  0  0  0  0  0  0  0  0  0  0
    1.9745   20.8172   38.9669 C   0  0  0  0  0  0  0  0  0  0  0  0
    1.3019   20.5646   40.1670 C   0  0  0  0  0  0  0  0  0  0  0  0
    1.5079   19.3565   40.8488 C   0  0  0  0  0  0  0  0  0  0  0  0
    0.4444   17.8615   42.6087 C   0  0  0  0  0  0  0  0  0  0  0  0
    0.4288   15.6073   42.9153 C   0  0  0  0  0  0  0  0  0  0  0  0
    0.8553   14.2304   42.6635 C   0  0  0  0  0  0  0  0  0  0  0  0
    0.2328   13.1351   43.2790 C   0  0  0  0  0  0  0  0  0  0  0  0
    0.6322   11.8319   42.9995 C   0  0  0  0  0  0  0  0  0  0  0  0
    1.6306   11.6302   42.0652 C   0  0  0  0  0  0  0  0  0  0  0  0
    2.2690   12.6840   41.4288 C   0  0  0  0  0  0  0  0  0  0  0  0
    1.8629   13.9810   41.7304 C   0  0  0  0  0  0  0  0  0  0  0  0
   -0.5843   15.9508   43.7709 C   0  0  0  0  0  0  0  0  0  0  0  0
    2.2504   18.3557   40.2060 C   0  0  0  0  0  0  0  0  0  0  0  0
    2.8437   18.6148   38.9691 C   0  0  0  0  0  0  0  0  0  0  0  0
    0.7803   19.0569   42.0413 N   0  0  0  0  0  0  0  0  0  0  0  0
    0.9791   16.6716   42.1626 N   0  0  0  0  0  0  0  0  0  0  0  0
    2.8674   21.1275   36.3211 O   0  0  0  0  0  0  0  0  0  0  0  0
    4.0035   19.1925   36.4244 O   0  0  0  0  0  0  0  0  0  0  0  0
    3.4800   17.5959   38.3007 O   0  0  0  0  0  0  0  0  0  0  0  0
   -0.9334   17.6347   43.6687 S   0  0  0  0  0  0  0  0  0  0  0  0
    2.1103   10.0114   41.6767 Cl  0  0  0  0  0  0  0  0  0  0  0  0
    1.9097   21.8205   38.5206 H   0  0  0  0  0  0  0  0  0  0  0  0
    0.6099   21.3151   40.5769 H   0  0  0  0  0  0  0  0  0  0  0  0
   -0.5845   13.3089   43.9944 H   0  0  0  0  0  0  0  0  0  0  0  0
    0.1628   10.9792   43.5119 H   0  0  0  0  0  0  0  0  0  0  0  0
    3.0758   12.4998   40.7041 H   0  0  0  0  0  0  0  0  0  0  0  0
    2.3468   14.8280   41.2221 H   0  0  0  0  0  0  0  0  0  0  0  0
   -1.1055   15.2454   44.4348 H   0  0  0  0  0  0  0  0  0  0  0  0
    2.3653   17.3677   40.6757 H   0  0  0  0  0  0  0  0  0  0  0  0
    0.4535   19.8836   42.5615 H   0  0  0  0  0  0  0  0  0  0  0  0
  1  2  1  0
  1 19  1  0
  1 20  2  0
  2  3  1  0
  2 16  2  0
  3  4  2  0
  4  5  1  0
  5 15  2  0
  5 17  1  0
  6 17  1  0
  6 18  2  0
  6 22  1  0
  7  8  1  0
  7 14  2  0
  7 18  1  0
  8  9  1  0
  8 13  2  0
  9 10  2  0
 10 11  1  0
 11 12  2  0
 11 23  1  0
 12 13  1  0
 14 22  1  0
 15 16  1  0
 16 21  1  0
  3 24  1  0
  4 25  1  0
  9 26  1  0
 10 27  1  0
 12 28  1  0
 13 29  1  0
 14 30  1  0
 15 31  1  0
 17 32  1  0
M  CHG  2  19  -1  21  -1
M  END
>  <mol_id>  (1) 
2026-08-23-6tgu-s0-n100-r8-0001

>  <rmsd_to_ref>  (1) 
0.0

$$$$
6tgu.A
     RDKit          3D

 32 34  0  0  0  0  0  0  0  0999 V2000
    3.7037   19.5171   36.7661 C   0  0  0  0  0  0  0  0  0  0  0  0
    3.0576   19.4270   38.1514 C   0  0  0  0  0  0  0  0  0  0  0  0
    2.3377   20.5022   38.6674 C   0  0  0  0  0  0  0  0  0  0  0  0
    1.5782   20.3938   39.8369 C   0  0  0  0  0  0  0  0  0  0  0  0
    1.6610   19.2371   40.6255 C   0  0  0  0  0  0  0  0  0  0  0  0
    0.3949   17.9645   42.4258 C   0  0  0  0  0  0  0  0  0  0  0  0
    0.2097   15.7494   42.9106 C   0  0  0  0  0  0  0  0  0  0  0  0
    0.5574   14.3325   42.7987 C   0  0  0  0  0  0  0  0  0  0  0  0
   -0.1733   13.3336   43.4578 C   0  0  0  0  0  0  0  0  0  0  0  0
    0.1540   11.9893   43.3107 C   0  0  0  0  0  0  0  0  0  0  0  0
    1.1914   11.6482   42.4635 C   0  0  0  0  0  0  0  0  0  0  0  0
    1.9364   12.6030   41.7880 C   0  0  0  0  0  0  0  0  0  0  0  0
    1.6007   13.9435   41.9571 C   0  0  0  0  0  0  0  0  0  0  0  0
   -0.8281   16.2258   43.6672 C   0  0  0  0  0  0  0  0  0  0  0  0
    2.3723   18.1417   40.1155 C   0  0  0  0  0  0  0  0  0  0  0  0
    3.0555   18.2583   38.9036 C   0  0  0  0  0  0  0  0  0  0  0  0
    0.8440   19.0847   41.7877 N   0  0  0  0  0  0  0  0  0  0  0  0
    0.8747   16.7104   42.1128 N   0  0  0  0  0  0  0  0  0  0  0  0
    3.4081   20.5325   36.0699 O   0  0  0  0  0  0  0  0  0  0  0  0
    4.4036   18.5466   36.4028 O   0  0  0  0  0  0  0  0  0  0  0  0
    3.6614   17.1493   38.3625 O   0  0  0  0  0  0  0  0  0  0  0  0
   -1.0567   17.9135   43.4074 S   0  0  0  0  0  0  0  0  0  0  0  0
    1.5842    9.9758   42.2386 Cl  0  0  0  0  0  0  0  0  0  0  0  0
    2.3675   21.4664   38.1387 H   0  0  0  0  0  0  0  0  0  0  0  0
    0.9145   21.2175   40.1387 H   0  0  0  0  0  0  0  0  0  0  0  0
   -1.0190   13.6173   44.1014 H   0  0  0  0  0  0  0  0  0  0  0  0
   -0.4017   11.2135   43.8577 H   0  0  0  0  0  0  0  0  0  0  0  0
    2.7715   12.3088   41.1352 H   0  0  0  0  0  0  0  0  0  0  0  0
    2.1702   14.7130   41.4155 H   0  0  0  0  0  0  0  0  0  0  0  0
   -1.4347   15.6125   44.3497 H   0  0  0  0  0  0  0  0  0  0  0  0
    2.3920   17.1916   40.6695 H   0  0  0  0  0  0  0  0  0  0  0  0
    0.5425   19.9710   42.2172 H   0  0  0  0  0  0  0  0  0  0  0  0
  1  2  1  0
  1 19  1  0
  1 20  2  0
  2  3  1  0
  2 16  2  0
  3  4  2  0
  4  5  1  0
  5 15  2  0
  5 17  1  0
  6 17  1  0
  6 18  2  0
  6 22  1  0
  7  8  1  0
  7 14  2  0
  7 18  1  0
  8  9  1  0
  8 13  2  0
  9 10  2  0
 10 11  1  0
 11 12  2  0
 11 23  1  0
 12 13  1  0
 14 22  1  0
 15 16  1  0
 16 21  1  0
  3 24  1  0
  4 25  1  0
  9 26  1  0
 10 27  1  0
 12 28  1  0
 13 29  1  0
 14 30  1  0
 15 31  1  0
 17 32  1  0
M  CHG  2  19  -1  21  -1
M  END
>  <mol_id>  (2) 
2026-08-23-6tgu-s0-n100-r8-0002

>  <rmsd_to_ref>  (2) 
0.5000000000110513

$$$$
6tgu.A
     RDKit          3D

 32 34  0  0  0  0  0  0  0  0999 V2000
    2.7982   19.9182   36.5276 C   0  0  0  0  0  0  0  0  0  0  0  0
    2.3823   19.7549   37.9922 C   0  0  0  0  0  0  0  0  0  0  0  0
    1.6008   20.7237   38.6177 C   0  0  0  0  0  0  0  0  0  0  0  0
    1.0447   20.5235   39.8855 C   0  0  0  0  0  0  0  0  0  0  0  0
    1.4060   19.4002   40.6434 C   0  0  0  0  0  0  0  0  0  0  0  0
    0.6121   17.9838   42.5997 C   0  0  0  0  0  0  0  0  0  0  0  0
    0.8166   15.7712   43.0876 C   0  0  0  0  0  0  0  0  0  0  0  0
    1.3417   14.4165   42.9137 C   0  0  0  0  0  0  0  0  0  0  0  0
    0.8652   13.3325   43.6647 C   0  0  0  0  0  0  0  0  0  0  0  0
    1.3549   12.0464   43.4596 C   0  0  0  0  0  0  0  0  0  0  0  0
    2.2943   11.8451   42.4659 C   0  0  0  0  0  0  0  0  0  0  0  0
    2.7886   12.8873   41.6962 C   0  0  0  0  0  0  0  0  0  0  0  0
    2.2945   14.1687   41.9243 C   0  0  0  0  0  0  0  0  0  0  0  0
   -0.1556   16.1052   43.9929 C   0  0  0  0  0  0  0  0  0  0  0  0
    2.1828   18.4103   40.0248 C   0  0  0  0  0  0  0  0  0  0  0  0
    2.6568   18.6073   38.7265 C   0  0  0  0  0  0  0  0  0  0  0  0
    0.7988   19.1483   41.9119 N   0  0  0  0  0  0  0  0  0  0  0  0
    1.2138   16.8066   42.2088 N   0  0  0  0  0  0  0  0  0  0  0  0
    2.2623   20.8726   35.8912 O   0  0  0  0  0  0  0  0  0  0  0  0
    3.5677   19.0521   36.0569 O   0  0  0  0  0  0  0  0  0  0  0  0
    3.3278   17.5886   38.0927 O   0  0  0  0  0  0  0  0  0  0  0  0
   -0.6572   17.7401   43.7840 S   0  0  0  0  0  0  0  0  0  0  0  0
    2.8831   10.2426   42.1714 Cl  0  0  0  0  0  0  0  0  0  0  0  0
    1.4153   21.6756   38.0987 H   0  0  0  0  0  0  0  0  0  0  0  0
    0.3225   21.2486   40.2888 H   0  0  0  0  0  0  0  0  0  0  0  0
    0.0918   13.5017   44.4284 H   0  0  0  0  0  0  0  0  0  0  0  0
    1.0015   11.2066   44.0760 H   0  0  0  0  0  0  0  0  0  0  0  0
    3.5518   12.7062   40.9250 H   0  0  0  0  0  0  0  0  0  0  0  0
    2.6631   15.0043   41.3112 H   0  0  0  0  0  0  0  0  0  0  0  0
   -0.5619   15.4208   44.7522 H   0  0  0  0  0  0  0  0  0  0  0  0
    2.4185   17.4797   40.5618 H   0  0  0  0  0  0  0  0  0  0  0  0
    0.4410   19.9882   42.3887 H   0  0  0  0  0  0  0  0  0  0  0  0
  1  2  1  0
  1 19  1  0
  1 20  2  0
  2  3  1  0
  2 16  2  0
  3  4  2  0
  4  5  1  0
  5 15  2  0
  5 17  1  0
  6 17  1  0
  6 18  2  0
  6 22  1  0
  7  8  1  0
  7 14  2  0
  7 18  1  0
  8  9  1  0
  8 13  2  0
  9 10  2  0
 10 11  1  0
 11 12  2  0
 11 23  1  0
 12 13  1  0
 14 22  1  0
 15 16  1  0
 16 21  1  0
  3 24  1  0
  4 25  1  0
  9 26  1  0
 10 27  1  0
 12 28  1  0
 13 29  1  0
 14 30  1  0
 15 31  1  0
 17 32  1  0
M  CHG  2  19  -1  21  -1
M  END
>  <mol_id>  (3) 
2026-08-23-6tgu-s0-n100-r8-0003

>  <rmsd_to_ref>  (3) 
0.5459183673489663

$$$$
6tgu.A
     RDKit          3D

 32 34  0  0  0  0  0  0  0  0999 V2000
    2.8946   20.3895   37.2349 C   0  0  0  0  0  0  0  0  0  0  0  0
    2.6083   20.0177   38.6924 C   0  0  0  0  0  0  0  0  0  0  0  0
    2.0959   20.9647   39.5763 C   0  0  0  0  0  0  0  0  0  0  0  0
    1.6453   20.6192   40.8546 C   0  0  0  0  0  0  0  0  0  0  0  0
    1.8605   19.3255   41.3513 C   0  0  0  0  0  0  0  0  0  0  0  0
    1.0155   17.7115   43.1245 C   0  0  0  0  0  0  0  0  0  0  0  0
    0.8409   15.4442   43.1917 C   0  0  0  0  0  0  0  0  0  0  0  0
    1.0756   14.0801   42.7171 C   0  0  0  0  0  0  0  0  0  0  0  0
    0.4800   12.9676   43.3283 C   0  0  0  0  0  0  0  0  0  0  0  0
    0.6900   11.6818   42.8398 C   0  0  0  0  0  0  0  0  0  0  0  0
    1.4658   11.5211   41.7073 C   0  0  0  0  0  0  0  0  0  0  0  0
    2.0690   12.5939   41.0682 C   0  0  0  0  0  0  0  0  0  0  0  0
    1.8560   13.8714   41.5789 C   0  0  0  0  0  0  0  0  0  0  0  0
    0.0493   15.7558   44.2653 C   0  0  0  0  0  0  0  0  0  0  0  0
    2.3651   18.3576   40.4712 C   0  0  0  0  0  0  0  0  0  0  0  0
    2.7318   18.7198   39.1737 C   0  0  0  0  0  0  0  0  0  0  0  0
    1.3503   18.9385   42.6284 N   0  0  0  0  0  0  0  0  0  0  0  0
    1.3367   16.5480   42.4582 N   0  0  0  0  0  0  0  0  0  0  0  0
    2.4892   21.5261   36.8516 O   0  0  0  0  0  0  0  0  0  0  0  0
    3.4311   19.5138   36.5214 O   0  0  0  0  0  0  0  0  0  0  0  0
    3.1259   17.7449   38.2882 O   0  0  0  0  0  0  0  0  0  0  0  0
   -0.1481   17.4610   44.4115 S   0  0  0  0  0  0  0  0  0  0  0  0
    1.7028    9.9302   41.0636 Cl  0  0  0  0  0  0  0  0  0  0  0  0
    2.0440   22.0167   39.2591 H   0  0  0  0  0  0  0  0  0  0  0  0
    1.1211   21.3639   41.4716 H   0  0  0  0  0  0  0  0  0  0  0  0
   -0.1638   13.1137   44.2082 H   0  0  0  0  0  0  0  0  0  0  0  0
    0.2475   10.8106   43.3449 H   0  0  0  0  0  0  0  0  0  0  0  0
    2.6997   12.4394   40.1803 H   0  0  0  0  0  0  0  0  0  0  0  0
    2.3129   14.7354   41.0742 H   0  0  0  0  0  0  0  0  0  0  0  0
   -0.4003   15.0159   44.9438 H   0  0  0  0  0  0  0  0  0  0  0  0
    2.4719   17.3141   40.8026 H   0  0  0  0  0  0  0  0  0  0  0  0
    1.2112   19.7181   43.2871 H   0  0  0  0  0  0  0  0  0  0  0  0
  1  2  1  0
  1 19  1  0
  1 20  2  0
  2  3  1  0
  2 16  2  0
  3  4  2  0
  4  5  1  0
  5 15  2  0
  5 17  1  0
  6 17  1  0
  6 18  2  0
  6 22  1  0
  7  8  1  0
  7 14  2  0
  7 18  1  0
  8  9  1  0
  8 13  2  0
  9 10  2  0
 10 11  1  0
 11 12  2  0
 11 23  1  0
 12 13  1  0
 14 22  1  0
 15 16  1  0
 16 21  1  0
  3 24  1  0
  4 25  1  0
  9 26  1  0
 10 27  1  0
 12 28  1  0
 13 29  1  0
 14 30  1  0
 15 31  1  0
 17 32  1  0
M  CHG  2  19  -1  21  -1
M  END
>  <mol_id>  (4) 
2026-08-23-6tgu-s0-n100-r8-0004

>  <rmsd_to_ref>  (4) 
0.5918367346974794

$$$$
6tgu.A
     RDKit          3D

 32 34  0  0  0  0  0  0  0  0999 V2000
    3.3237   19.3609   36.5518 C   0  0  0  0  0  0  0  0  0  0  0  0
    2.7053   19.3047   37.9515 C   0  0  0  0  0  0  0  0  0  0  0  0
    1.8537   20.3164   38.3895 C   0  0  0  0  0  0  0  0  0  0  0  0
    1.1236   20.2091   39.5777 C   0  0  0  0  0  0  0  0  0  0  0  0
    1.3640   19.1442   40.4581 C   0  0  0  0  0  0  0  0  0  0  0  0
    0.2899   17.8740   42.3807 C   0  0  0  0  0  0  0  0  0  0  0  0
    0.4018   15.7029   43.0510 C   0  0  0  0  0  0  0  0  0  0  0  0
    0.9325   14.3393   43.0509 C   0  0  0  0  0  0  0  0  0  0  0  0
    0.3447   13.3128   43.8039 C   0  0  0  0  0  0  0  0  0  0  0  0
    0.8454   12.0153   43.7629 C   0  0  0  0  0  0  0  0  0  0  0  0
    1.9125   11.7422   42.9280 C   0  0  0  0  0  0  0  0  0  0  0  0
    2.5202   12.7257   42.1621 C   0  0  0  0  0  0  0  0  0  0  0  0
    2.0119   14.0201   42.2255 C   0  0  0  0  0  0  0  0  0  0  0  0
   -0.6842   16.1019   43.7844 C   0  0  0  0  0  0  0  0  0  0  0  0
    2.2098   18.1119   40.0277 C   0  0  0  0  0  0  0  0  0  0  0  0
    2.8628   18.2139   38.7980 C   0  0  0  0  0  0  0  0  0  0  0  0
    0.5827   18.9852   41.6436 N   0  0  0  0  0  0  0  0  0  0  0  0
    0.9285   16.6715   42.1642 N   0  0  0  0  0  0  0  0  0  0  0  0
    2.8918   20.2662   35.7792 O   0  0  0  0  0  0  0  0  0  0  0  0
    4.1429   18.4630   36.2576 O   0  0  0  0  0  0  0  0  0  0  0  0
    3.6057   17.1518   38.3399 O   0  0  0  0  0  0  0  0  0  0  0  0
   -1.1352   17.7170   43.3896 S   0  0  0  0  0  0  0  0  0  0  0  0
    2.5207   10.1226   42.8356 Cl  0  0  0  0  0  0  0  0  0  0  0  0
    1.7522   21.2279   37.7821 H   0  0  0  0  0  0  0  0  0  0  0  0
    0.3593   20.9615   39.8222 H   0  0  0  0  0  0  0  0  0  0  0  0
   -0.5263   13.5370   44.4372 H   0  0  0  0  0  0  0  0  0  0  0  0
    0.4008   11.2226   44.3826 H   0  0  0  0  0  0  0  0  0  0  0  0
    3.3820   12.4889   41.5208 H   0  0  0  0  0  0  0  0  0  0  0  0
    2.4710   14.8089   41.6114 H   0  0  0  0  0  0  0  0  0  0  0  0
   -1.1996   15.4745   44.5265 H   0  0  0  0  0  0  0  0  0  0  0  0
    2.3586   17.2230   40.6583 H   0  0  0  0  0  0  0  0  0  0  0  0
    0.1700   19.8576   42.0035 H   0  0  0  0  0  0  0  0  0  0  0  0
  1  2  1  0
  1 19  1  0
  1 20  2  0
  2  3  1  0
  2 16  2  0
  3  4  2  0
  4  5  1  0
  5 15  2  0
  5 17  1  0
  6 17  1  0
  6 18  2  0
  6 22  1  0
  7  8  1  0
  7 14  2  0
  7 18  1  0
  8  9  1  0
  8 13  2  0
  9 10  2  0
 10 11  1  0
 11 12  2  0
 11 23  1  0
 12 13  1  0
 14 22  1  0
 15 16  1  0
 16 21  1  0
  3 24  1  0
  4 25  1  0
  9 26  1  0
 10 27  1  0
 12 28  1  0
 13 29  1  0
 14 30  1  0
 15 31  1  0
 17 32  1  0
M  CHG  2  19  -1  21  -1
M  END
>  <mol_id>  (5) 
2026-08-23-6tgu-s0-n100-r8-0005

>  <rmsd_to_ref>  (5) 
0.6377551020482137

$$$$
6tgu.A
     RDKit          3D

 32 34  0  0  0  0  0  0  0  0999 V2000
    4.1116   19.4915   37.1008 C   0  0  0  0  0  0  0  0  0  0  0  0
    3.3565   19.4024   38.4299 C   0  0  0  0  0  0  0  0  0  0  0  0
    2.6227   20.4890   38.9006 C   0  0  0  0  0  0  0  0  0  0  0  0
    1.7711   20.3865   40.0055 C   0  0  0  0  0  0  0  0  0  0  0  0
    1.7654   19.2202   40.7843 C   0  0  0  0  0  0  0  0  0  0  0  0
    0.3331   17.9594   42.4642 C   0  0  0  0  0  0  0  0  0  0  0  0
    0.0603   15.7445   42.9063 C   0  0  0  0  0  0  0  0  0  0  0  0
    0.3836   14.3210   42.8052 C   0  0  0  0  0  0  0  0  0  0  0  0
   -0.4191   13.3328   43.3928 C   0  0  0  0  0  0  0  0  0  0  0  0
   -0.1116   11.9828   43.2558 C   0  0  0  0  0  0  0  0  0  0  0  0
    0.9814   11.6261   42.4886 C   0  0  0  0  0  0  0  0  0  0  0  0
    1.7986   12.5700   41.8852 C   0  0  0  0  0  0  0  0  0  0  0  0
    1.4809   13.9162   42.0435 C   0  0  0  0  0  0  0  0  0  0  0  0
   -1.0229   16.2374   43.5848 C   0  0  0  0  0  0  0  0  0  0  0  0
    2.4898   18.1137   40.3186 C   0  0  0  0  0  0  0  0  0  0  0  0
    3.2688   18.2266   39.1656 C   0  0  0  0  0  0  0  0  0  0  0  0
    0.8562   19.0752   41.8768 N   0  0  0  0  0  0  0  0  0  0  0  0
    0.8076   16.6977   42.1749 N   0  0  0  0  0  0  0  0  0  0  0  0
    3.8948   20.5206   36.3957 O   0  0  0  0  0  0  0  0  0  0  0  0
    4.8159   18.5086   36.7820 O   0  0  0  0  0  0  0  0  0  0  0  0
    3.8903   17.1092   38.6605 O   0  0  0  0  0  0  0  0  0  0  0  0
   -1.1921   17.9324   43.3281 S   0  0  0  0  0  0  0  0  0  0  0  0
    1.3528    9.9473   42.2752 Cl  0  0  0  0  0  0  0  0  0  0  0  0
    2.7158   21.4575   38.3875 H   0  0  0  0  0  0  0  0  0  0  0  0
    1.1045   21.2224   40.2641 H   0  0  0  0  0  0  0  0  0  0  0  0
   -1.3062   13.6297   43.9714 H   0  0  0  0  0  0  0  0  0  0  0  0
   -0.7261   11.2147   43.7481 H   0  0  0  0  0  0  0  0  0  0  0  0
    2.6757   12.2630   41.2965 H   0  0  0  0  0  0  0  0  0  0  0  0
    2.1086   14.6777   41.5575 H   0  0  0  0  0  0  0  0  0  0  0  0
   -1.6951   15.6315   44.2102 H   0  0  0  0  0  0  0  0  0  0  0  0
    2.4443   17.1578   40.8610 H   0  0  0  0  0  0  0  0  0  0  0  0
    0.5418   19.9639   42.2919 H   0  0  0  0  0  0  0  0  0  0  0  0
  1  2  1  0
  1 19  1  0
  1 20  2  0
  2  3  1  0
  2 16  2  0
  3  4  2  0
  4  5  1  0
  5 15  2  0
  5 17  1  0
  6 17  1  0
  6 18  2  0
  6 22  1  0
  7  8  1  0
  7 14  2  0
  7 18  1  0
  8  9  1  0
  8 13  2  0
  9 10  2  0
 10 11  1  0
 11 12  2  0
 11 23  1  0
 12 13  1  0
 14 22  1  0
 15 16  1  0
 16 21  1  0
  3 24  1  0
  4 25  1  0
  9 26  1  0
 10 27  1  0
 12 28  1  0
 13 29  1  0
 14 30  1  0
 15 31  1  0
 17 32  1  0
M  CHG  2  19  -1  21  -1
M  END
>  <mol_id>  (6) 
2026-08-23-6tgu-s0-n100-r8-0006

>  <rmsd_to_ref>  (6) 
0.6836734693904465

$$$$
6tgu.A
     RDKit          3D

 32 34  0  0  0  0  0  0  0  0999 V2000
    4.3518   19.6625   37.2989 C   0  0  0  0  0  0  0  0  0  0  0  0
    3.4883   19.5458   38.5580 C   0  0  0  0  0  0  0  0  0  0  0  0
    2.6279   20.5785   38.9238 C   0  0  0  0  0  0  0  0  0  0  0  0
    1.6902   20.4340   39.9516 C   0  0  0  0  0  0  0  0  0  0  0  0
    1.7091   19.2930   40.7667 C   0  0  0  0  0  0  0  0  0  0  0  0
    0.2376   17.9611   42.3554 C   0  0  0  0  0  0  0  0  0  0  0  0
    0.1082   15.7438   42.8480 C   0  0  0  0  0  0  0  0  0  0  0  0
    0.5551   14.3507   42.8253 C   0  0  0  0  0  0  0  0  0  0  0  0
   -0.2141   13.3142   43.3731 C   0  0  0  0  0  0  0  0  0  0  0  0
    0.2144   11.9919   43.3108 C   0  0  0  0  0  0  0  0  0  0  0  0
    1.3984   11.7086   42.6565 C   0  0  0  0  0  0  0  0  0  0  0  0
    2.1872   12.7018   42.0958 C   0  0  0  0  0  0  0  0  0  0  0  0
    1.7470   14.0200   42.1785 C   0  0  0  0  0  0  0  0  0  0  0  0
   -1.0692   16.1612   43.4101 C   0  0  0  0  0  0  0  0  0  0  0  0
    2.5614   18.2397   40.4058 C   0  0  0  0  0  0  0  0  0  0  0  0
    3.4306   18.3871   39.3233 C   0  0  0  0  0  0  0  0  0  0  0  0
    0.7188   19.1009   41.7785 N   0  0  0  0  0  0  0  0  0  0  0  0
    0.8384   16.7368   42.1532 N   0  0  0  0  0  0  0  0  0  0  0  0
    4.1167   20.6501   36.5422 O   0  0  0  0  0  0  0  0  0  0  0  0
    5.1606   18.7347   37.0781 O   0  0  0  0  0  0  0  0  0  0  0  0
    4.1852   17.3132   38.9144 O   0  0  0  0  0  0  0  0  0  0  0  0
   -1.3529   17.8282   43.0809 S   0  0  0  0  0  0  0  0  0  0  0  0
    1.9243   10.0623   42.5352 Cl  0  0  0  0  0  0  0  0  0  0  0  0
    2.6877   21.5371   38.3878 H   0  0  0  0  0  0  0  0  0  0  0  0
    0.9364   21.2171   40.1209 H   0  0  0  0  0  0  0  0  0  0  0  0
   -1.1718   13.5503   43.8601 H   0  0  0  0  0  0  0  0  0  0  0  0
   -0.3774   11.1881   43.7729 H   0  0  0  0  0  0  0  0  0  0  0  0
    3.1366   12.4545   41.5983 H   0  0  0  0  0  0  0  0  0  0  0  0
    2.3518   14.8185   41.7242 H   0  0  0  0  0  0  0  0  0  0  0  0
   -1.7438   15.5176   43.9939 H   0  0  0  0  0  0  0  0  0  0  0  0
    2.5451   17.2984   40.9748 H   0  0  0  0  0  0  0  0  0  0  0  0
    0.2960   19.9707   42.1331 H   0  0  0  0  0  0  0  0  0  0  0  0
  1  2  1  0
  1 19  1  0
  1 20  2  0
  2  3  1  0
  2 16  2  0
  3  4  2  0
  4  5  1  0
  5 15  2  0
  5 17  1  0
  6 17  1  0
  6 18  2  0
  6 22  1  0
  7  8  1  0
  7 14  2  0
  7 18  1  0
  8  9  1  0
  8 13  2  0
  9 10  2  0
 10 11  1  0
 11 12  2  0
 11 23  1  0
 12 13  1  0
 14 22  1  0
 15 16  1  0
 16 21  1  0
  3 24  1  0
  4 25  1  0
  9 26  1  0
 10 27  1  0
 12 28  1  0
 13 29  1  0
 14 30  1  0
 15 31  1  0
 17 32  1  0
M  CHG  2  19  -1  21  -1
M  END
>  <mol_id>  (7) 
2026-08-23-6tgu-s0-n100-r8-0007

>  <rmsd_to_ref>  (7) 
0.7295918367371954

$$$$
6tgu.A
     RDKit          3D

 32 34  0  0  0  0  0  0  0  0999 V2000
    3.9248   20.2491   37.3046 C   0  0  0  0  0  0  0  0  0  0  0  0
    3.2508   19.9608   38.6489 C   0  0  0  0  0  0  0  0  0  0  0  0
    2.6314   20.9839   39.3634 C   0  0  0  0  0  0  0  0  0  0  0  0
    1.8463   20.7301   40.4928 C   0  0  0  0  0  0  0  0  0  0  0  0
    1.8029   19.4418   41.0452 C   0  0  0  0  0  0  0  0  0  0  0  0
    0.3897   17.9809   42.5723 C   0  0  0  0  0  0  0  0  0  0  0  0
   -0.0191   15.7435   42.6246 C   0  0  0  0  0  0  0  0  0  0  0  0
    0.1901   14.3466   42.2426 C   0  0  0  0  0  0  0  0  0  0  0  0
   -0.6453   13.3177   42.7004 C   0  0  0  0  0  0  0  0  0  0  0  0
   -0.4488   12.0005   42.2977 C   0  0  0  0  0  0  0  0  0  0  0  0
    0.5638   11.7262   41.3977 C   0  0  0  0  0  0  0  0  0  0  0  0
    1.4094   12.7138   40.9154 C   0  0  0  0  0  0  0  0  0  0  0  0
    1.2037   14.0239   41.3389 C   0  0  0  0  0  0  0  0  0  0  0  0
   -1.0173   16.1673   43.4615 C   0  0  0  0  0  0  0  0  0  0  0  0
    2.4117   18.3988   40.3327 C   0  0  0  0  0  0  0  0  0  0  0  0
    3.1224   18.6763   39.1635 C   0  0  0  0  0  0  0  0  0  0  0  0
    0.9564   19.1522   42.1591 N   0  0  0  0  0  0  0  0  0  0  0  0
    0.7494   16.7683   42.0236 N   0  0  0  0  0  0  0  0  0  0  0  0
    3.7412   21.4029   36.8165 O   0  0  0  0  0  0  0  0  0  0  0  0
    4.5321   19.3013   36.7601 O   0  0  0  0  0  0  0  0  0  0  0  0
    3.6255   17.6364   38.4184 O   0  0  0  0  0  0  0  0  0  0  0  0
   -1.0755   17.8877   43.5303 S   0  0  0  0  0  0  0  0  0  0  0  0
    0.7946   10.0969   40.8557 Cl  0  0  0  0  0  0  0  0  0  0  0  0
    2.7638   22.0234   39.0289 H   0  0  0  0  0  0  0  0  0  0  0  0
    1.2616   21.5427   40.9487 H   0  0  0  0  0  0  0  0  0  0  0  0
   -1.4694   13.5558   43.3890 H   0  0  0  0  0  0  0  0  0  0  0  0
   -1.0864   11.1935   42.6878 H   0  0  0  0  0  0  0  0  0  0  0  0
    2.2220   12.4682   40.2158 H   0  0  0  0  0  0  0  0  0  0  0  0
    1.8544   14.8223   40.9529 H   0  0  0  0  0  0  0  0  0  0  0  0
   -1.6919   15.4982   44.0159 H   0  0  0  0  0  0  0  0  0  0  0  0
    2.3295   17.3633   40.6945 H   0  0  0  0  0  0  0  0  0  0  0  0
    0.7361   19.9657   42.7512 H   0  0  0  0  0  0  0  0  0  0  0  0
  1  2  1  0
  1 19  1  0
  1 20  2  0
  2  3  1  0
  2 16  2  0
  3  4  2  0
  4  5  1  0
  5 15  2  0
  5 17  1  0
  6 17  1  0
  6 18  2  0
  6 22  1  0
  7  8  1  0
  7 14  2  0
  7 18  1  0
  8  9  1  0
  8 13  2  0
  9 10  2  0
 10 11  1  0
 11 12  2  0
 11 23  1  0
 12 13  1  0
 14 22  1  0
 15 16  1  0
 16 21  1  0
  3 24  1  0
  4 25  1  0
  9 26  1  0
 10 27  1  0
 12 28  1  0
 13 29  1  0
 14 30  1  0
 15 31  1  0
 17 32  1  0
M  CHG  2  19  -1  21  -1
M  END
>  <mol_id>  (8) 
2026-08-23-6tgu-s0-n100-r8-0008

>  <rmsd_to_ref>  (8) 
0.7755102040823855

$$$$
6tgu.A
     RDKit          3D

 32 34  0  0  0  0  0  0  0  0999 V2000
    3.9135   19.5036   36.8683 C   0  0  0  0  0  0  0  0  0  0  0  0
    3.1456   19.5095   38.1931 C   0  0  0  0  0  0  0  0  0  0  0  0
    2.3169   20.5788   38.5254 C   0  0  0  0  0  0  0  0  0  0  0  0
    1.4578   20.5368   39.6284 C   0  0  0  0  0  0  0  0  0  0  0  0
    1.5347   19.4745   40.5407 C   0  0  0  0  0  0  0  0  0  0  0  0
    0.1823   18.3057   42.3486 C   0  0  0  0  0  0  0  0  0  0  0  0
    0.0852   16.1437   43.0499 C   0  0  0  0  0  0  0  0  0  0  0  0
    0.5263   14.7503   43.1217 C   0  0  0  0  0  0  0  0  0  0  0  0
   -0.2024   13.7749   43.8172 C   0  0  0  0  0  0  0  0  0  0  0  0
    0.2175   12.4486   43.8445 C   0  0  0  0  0  0  0  0  0  0  0  0
    1.3491   12.0965   43.1333 C   0  0  0  0  0  0  0  0  0  0  0  0
    2.0962   13.0276   42.4276 C   0  0  0  0  0  0  0  0  0  0  0  0
    1.6661   14.3516   42.4218 C   0  0  0  0  0  0  0  0  0  0  0  0
   -1.0464   16.6209   43.6568 C   0  0  0  0  0  0  0  0  0  0  0  0
    2.3556   18.3852   40.2157 C   0  0  0  0  0  0  0  0  0  0  0  0
    3.1424   18.4258   39.0631 C   0  0  0  0  0  0  0  0  0  0  0  0
    0.6218   19.3841   41.6361 N   0  0  0  0  0  0  0  0  0  0  0  0
    0.7640   17.0628   42.2154 N   0  0  0  0  0  0  0  0  0  0  0  0
    3.6249   20.4202   36.0439 O   0  0  0  0  0  0  0  0  0  0  0  0
    4.7017   18.5523   36.6742 O   0  0  0  0  0  0  0  0  0  0  0  0
    3.8623   17.3125   38.6995 O   0  0  0  0  0  0  0  0  0  0  0  0
   -1.3501   18.2535   43.1984 S   0  0  0  0  0  0  0  0  0  0  0  0
    1.8610   10.4414   43.1245 Cl  0  0  0  0  0  0  0  0  0  0  0  0
    2.3387   21.4842   37.9010 H   0  0  0  0  0  0  0  0  0  0  0  0
    0.7203   21.3386   39.7806 H   0  0  0  0  0  0  0  0  0  0  0  0
   -1.1208   14.0628   44.3498 H   0  0  0  0  0  0  0  0  0  0  0  0
   -0.3401   11.6955   44.4205 H   0  0  0  0  0  0  0  0  0  0  0  0
    3.0055   12.7276   41.8861 H   0  0  0  0  0  0  0  0  0  0  0  0
    2.2372   15.1001   41.8530 H   0  0  0  0  0  0  0  0  0  0  0  0
   -1.6771   16.0391   44.3451 H   0  0  0  0  0  0  0  0  0  0  0  0
    2.3796   17.4998   40.8679 H   0  0  0  0  0  0  0  0  0  0  0  0
    0.2283   20.2861   41.9399 H   0  0  0  0  0  0  0  0  0  0  0  0
  1  2  1  0
  1 19  1  0
  1 20  2  0
  2  3  1  0
  2 16  2  0
  3  4  2  0
  4  5  1  0
  5 15  2  0
  5 17  1  0
  6 17  1  0
  6 18  2  0
  6 22  1  0
  7  8  1  0
  7 14  2  0
  7 18  1  0
  8  9  1  0
  8 13  2  0
  9 10  2  0
 10 11  1  0
 11 12  2  0
 11 23  1  0
 12 13  1  0
 14 22  1  0
 15 16  1  0
 16 21  1  0
  3 24  1  0
  4 25  1  0
  9 26  1  0
 10 27  1  0
 12 28  1  0
 13 29  1  0
 14 30  1  0
 15 31  1  0
 17 32  1  0
M  CHG  2  19  -1  21  -1
M  END
>  <mol_id>  (9) 
2026-08-23-6tgu-s0-n100-r8-0009

>  <rmsd_to_ref>  (9) 
0.821428571432385

$$$$
6tgu.A
     RDKit          3D

 32 34  0  0  0  0  0  0  0  0999 V2000
    3.8322   19.0958   36.4289 C   0  0  0  0  0  0  0  0  0  0  0  0
    3.2375   19.1296   37.8395 C   0  0  0  0  0  0  0  0  0  0  0  0
    2.6475   20.2921   38.3307 C   0  0  0  0  0  0  0  0  0  0  0  0
    1.9294   20.3097   39.5309 C   0  0  0  0  0  0  0  0  0  0  0  0
    1.9312   19.1853   40.3690 C   0  0  0  0  0  0  0  0  0  0  0  0
    0.6216   18.1228   42.2715 C   0  0  0  0  0  0  0  0  0  0  0  0
    0.2412   15.9599   42.8653 C   0  0  0  0  0  0  0  0  0  0  0  0
    0.4442   14.5119   42.8071 C   0  0  0  0  0  0  0  0  0  0  0  0
   -0.3529   13.6196   43.5381 C   0  0  0  0  0  0  0  0  0  0  0  0
   -0.1645   12.2443   43.4420 C   0  0  0  0  0  0  0  0  0  0  0  0
    0.7993   11.7660   42.5744 C   0  0  0  0  0  0  0  0  0  0  0  0
    1.6057   12.6125   41.8285 C   0  0  0  0  0  0  0  0  0  0  0  0
    1.4094   13.9856   41.9471 C   0  0  0  0  0  0  0  0  0  0  0  0
   -0.7135   16.5688   43.6362 C   0  0  0  0  0  0  0  0  0  0  0  0
    2.5109   18.0039   39.8850 C   0  0  0  0  0  0  0  0  0  0  0  0
    3.1522   18.0002   38.6449 C   0  0  0  0  0  0  0  0  0  0  0  0
    1.1513   19.1646   41.5659 N   0  0  0  0  0  0  0  0  0  0  0  0
    0.9636   16.8151   42.0000 N   0  0  0  0  0  0  0  0  0  0  0  0
    3.6089   20.1048   35.6974 O   0  0  0  0  0  0  0  0  0  0  0  0
    4.4188   18.0460   36.0860 O   0  0  0  0  0  0  0  0  0  0  0  0
    3.6245   16.8144   38.1344 O   0  0  0  0  0  0  0  0  0  0  0  0
   -0.7868   18.2581   43.3066 S   0  0  0  0  0  0  0  0  0  0  0  0
    1.0176   10.0549   42.4135 Cl  0  0  0  0  0  0  0  0  0  0  0  0
    2.7496   21.2250   37.7569 H   0  0  0  0  0  0  0  0  0  0  0  0
    1.3621   21.2074   39.8179 H   0  0  0  0  0  0  0  0  0  0  0  0
   -1.1399   14.0131   44.1982 H   0  0  0  0  0  0  0  0  0  0  0  0
   -0.7704   11.5516   44.0445 H   0  0  0  0  0  0  0  0  0  0  0  0
    2.3807   12.2092   41.1602 H   0  0  0  0  0  0  0  0  0  0  0  0
    2.0287   14.6710   41.3498 H   0  0  0  0  0  0  0  0  0  0  0  0
   -1.3487   16.0485   44.3682 H   0  0  0  0  0  0  0  0  0  0  0  0
    2.4604   17.0811   40.4816 H   0  0  0  0  0  0  0  0  0  0  0  0
    0.9554   20.0940   41.9644 H   0  0  0  0  0  0  0  0  0  0  0  0
  1  2  1  0
  1 19  1  0
  1 20  2  0
  2  3  1  0
  2 16  2  0
  3  4  2  0
  4  5  1  0
  5 15  2  0
  5 17  1  0
  6 17  1  0
  6 18  2  0
  6 22  1  0
  7  8  1  0
  7 14  2  0
  7 18  1  0
  8  9  1  0
  8 13  2  0
  9 10  2  0
 10 11  1  0
 11 12  2  0
 11 23  1  0
 12 13  1  0
 14 22  1  0
 15 16  1  0
 16 21  1  0
  3 24  1  0
  4 25  1  0
  9 26  1  0
 10 27  1  0
 12 28  1  0
 13 29  1  0
 14 30  1  0
 15 31  1  0
 17 32  1  0
M  CHG  2  19  -1  21  -1
M  END
>  <mol_id>  (10) 
2026-08-23-6tgu-s0-n100-r8-0010

>  <rmsd_to_ref>  (10) 
0.8673469387816973

$$$$
6tgu.A
     RDKit          3D

 32 34  0  0  0  0  0  0  0  0999 V2000
    3.2219   20.9736   37.6744 C   0  0  0  0  0  0  0  0  0  0  0  0
    2.7053   20.4098   39.0010 C   0  0  0  0  0  0  0  0  0  0  0  0
    1.9027   21.1855   39.8345 C   0  0  0  0  0  0  0  0  0  0  0  0
    1.2588   20.6487   40.9542 C   0  0  0  0  0  0  0  0  0  0  0  0
    1.5462   19.3412   41.3722 C   0  0  0  0  0  0  0  0  0  0  0  0
    0.5950   17.4511   42.7814 C   0  0  0  0  0  0  0  0  0  0  0  0
    0.7227   15.1857   42.6153 C   0  0  0  0  0  0  0  0  0  0  0  0
    1.2316   13.9201   42.0857 C   0  0  0  0  0  0  0  0  0  0  0  0
    0.6845   12.6844   42.4593 C   0  0  0  0  0  0  0  0  0  0  0  0
    1.1616   11.4948   41.9178 C   0  0  0  0  0  0  0  0  0  0  0  0
    2.1615   11.5536   40.9654 C   0  0  0  0  0  0  0  0  0  0  0  0
    2.7268   12.7542   40.5628 C   0  0  0  0  0  0  0  0  0  0  0  0
    2.2437   13.9327   41.1246 C   0  0  0  0  0  0  0  0  0  0  0  0
   -0.3015   15.2807   43.5199 C   0  0  0  0  0  0  0  0  0  0  0  0
    2.3433   18.5435   40.5389 C   0  0  0  0  0  0  0  0  0  0  0  0
    2.9073   19.0893   39.3843 C   0  0  0  0  0  0  0  0  0  0  0  0
    0.8503   18.7566   42.4745 N   0  0  0  0  0  0  0  0  0  0  0  0
    1.1983   16.4150   42.1007 N   0  0  0  0  0  0  0  0  0  0  0  0
    2.7488   22.0911   37.3131 O   0  0  0  0  0  0  0  0  0  0  0  0
    4.0041   20.2519   37.0180 O   0  0  0  0  0  0  0  0  0  0  0  0
    3.5993   18.2725   38.5218 O   0  0  0  0  0  0  0  0  0  0  0  0
   -0.7557   16.9240   43.7669 S   0  0  0  0  0  0  0  0  0  0  0  0
    2.7373   10.0834   40.2522 Cl  0  0  0  0  0  0  0  0  0  0  0  0
    1.7712   22.2532   39.6050 H   0  0  0  0  0  0  0  0  0  0  0  0
    0.5254   21.2532   41.5080 H   0  0  0  0  0  0  0  0  0  0  0  0
   -0.1350   12.6549   43.1924 H   0  0  0  0  0  0  0  0  0  0  0  0
    0.7511   10.5268   42.2412 H   0  0  0  0  0  0  0  0  0  0  0  0
    3.5364   12.7747   39.8184 H   0  0  0  0  0  0  0  0  0  0  0  0
    2.6690   14.8952   40.8040 H   0  0  0  0  0  0  0  0  0  0  0  0
   -0.7713   14.4220   44.0219 H   0  0  0  0  0  0  0  0  0  0  0  0
    2.5240   17.4890   40.7946 H   0  0  0  0  0  0  0  0  0  0  0  0
    0.4777   19.4358   43.1533 H   0  0  0  0  0  0  0  0  0  0  0  0
  1  2  1  0
  1 19  1  0
  1 20  2  0
  2  3  1  0
  2 16  2  0
  3  4  2  0
  4  5  1  0
  5 15  2  0
  5 17  1  0
  6 17  1  0
  6 18  2  0
  6 22  1  0
  7  8  1  0
  7 14  2  0
  7 18  1  0
  8  9  1  0
  8 13  2  0
  9 10  2  0
 10 11  1  0
 11 12  2  0
 11 23  1  0
 12 13  1  0
 14 22  1  0
 15 16  1  0
 16 21  1  0
  3 24  1  0
  4 25  1  0
  9 26  1  0
 10 27  1  0
 12 28  1  0
 13 29  1  0
 14 30  1  0
 15 31  1  0
 17 32  1  0
M  CHG  2  19  -1  21  -1
M  END
>  <mol_id>  (11) 
2026-08-23-6tgu-s0-n100-r8-0011

>  <rmsd_to_ref>  (11) 
0.9132653061303578

$$$$
6tgu.A
     RDKit          3D

 32 34  0  0  0  0  0  0  0  0999 V2000
    2.6020   20.6372   36.4723 C   0  0  0  0  0  0  0  0  0  0  0  0
    2.3537   20.1603   37.8319 C   0  0  0  0  0  0  0  0  0  0  0  0
    2.3204   21.0423   38.9024 C   0  0  0  0  0  0  0  0  0  0  0  0
    2.0888   20.6196   40.1918 C   0  0  0  0  0  0  0  0  0  0  0  0
    1.8756   19.2554   40.4610 C   0  0  0  0  0  0  0  0  0  0  0  0
    1.1074   17.6452   42.2207 C   0  0  0  0  0  0  0  0  0  0  0  0
    0.6378   15.4986   42.8281 C   0  0  0  0  0  0  0  0  0  0  0  0
    1.0580   14.0724   42.9354 C   0  0  0  0  0  0  0  0  0  0  0  0
    0.1928   13.1213   43.4607 C   0  0  0  0  0  0  0  0  0  0  0  0
    0.5887   11.7962   43.5397 C   0  0  0  0  0  0  0  0  0  0  0  0
    1.8375   11.4073   43.1027 C   0  0  0  0  0  0  0  0  0  0  0  0
    2.6810   12.3519   42.5898 C   0  0  0  0  0  0  0  0  0  0  0  0
    2.3166   13.6769   42.4966 C   0  0  0  0  0  0  0  0  0  0  0  0
   -0.6475   15.8553   43.2412 C   0  0  0  0  0  0  0  0  0  0  0  0
    1.9090   18.3716   39.3909 C   0  0  0  0  0  0  0  0  0  0  0  0
    2.1423   18.8088   38.1056 C   0  0  0  0  0  0  0  0  0  0  0  0
    1.6539   18.8569   41.7983 N   0  0  0  0  0  0  0  0  0  0  0  0
    1.3867   16.4226   42.3613 N   0  0  0  0  0  0  0  0  0  0  0  0
    2.6304   19.7087   35.4384 O   0  0  0  0  0  0  0  0  0  0  0  0
    2.7832   21.8790   36.2803 O   0  0  0  0  0  0  0  0  0  0  0  0
    2.1733   17.9270   37.0641 O   0  0  0  0  0  0  0  0  0  0  0  0
   -0.6740   17.7005   42.8804 S   0  0  0  0  0  0  0  0  0  0  0  0
    2.2383    9.7081   43.2465 Cl  0  0  0  0  0  0  0  0  0  0  0  0
    2.4754   22.1237   38.7741 H   0  0  0  0  0  0  0  0  0  0  0  0
    2.0667   21.3298   41.0251 H   0  0  0  0  0  0  0  0  0  0  0  0
   -0.8048   13.4055   43.8124 H   0  0  0  0  0  0  0  0  0  0  0  0
   -0.1423   11.1086   43.9628 H   0  0  0  0  0  0  0  0  0  0  0  0
    3.6584   12.0436   42.2489 H   0  0  0  0  0  0  0  0  0  0  0  0
    2.9795   14.4179   42.0901 H   0  0  0  0  0  0  0  0  0  0  0  0
   -1.4443   15.3590   43.6399 H   0  0  0  0  0  0  0  0  0  0  0  0
    1.7489   17.2971   39.5720 H   0  0  0  0  0  0  0  0  0  0  0  0
    1.9298   19.5460   42.5628 H   0  0  0  0  0  0  0  0  0  0  0  0
  1  2  1  0
  1 19  1  0
  1 20  2  0
  2  3  1  0
  2 16  2  0
  3  4  2  0
  4  5  1  0
  5 15  2  0
  5 17  1  0
  6 17  1  0
  6 18  2  0
  6 22  1  0
  7  8  1  0
  7 14  2  0
  7 18  1  0
  8  9  1  0
  8 13  2  0
  9 10  2  0
 10 11  1  0
 11 12  2  0
 11 23  1  0
 12 13  1  0
 14 22  1  0
 15 16  1  0
 16 21  1  0
  3 24  1  0
  4 25  1  0
  9 26  1  0
 10 27  1  0
 12 28  1  0
 13 29  1  0
 14 30  1  0
 15 31  1  0
 17 32  1  0
M  CHG  2  19  -1  21  -1
M  END
>  <mol_id>  (12) 
2026-08-23-6tgu-s0-n100-r8-0012

>  <rmsd_to_ref>  (12) 
0.9591836734722021

$$$$
6tgu.A
     RDKit          3D

 32 34  0  0  0  0  0  0  0  0999 V2000
    2.3373   19.4049   36.2529 C   0  0  0  0  0  0  0  0  0  0  0  0
    2.1356   19.3597   37.7701 C   0  0  0  0  0  0  0  0  0  0  0  0
    1.4666   20.3909   38.4257 C   0  0  0  0  0  0  0  0  0  0  0  0
    1.0971   20.2979   39.7715 C   0  0  0  0  0  0  0  0  0  0  0  0
    1.5485   19.2245   40.5530 C   0  0  0  0  0  0  0  0  0  0  0  0
    1.0264   17.9753   42.7048 C   0  0  0  0  0  0  0  0  0  0  0  0
    1.2683   15.7999   43.3253 C   0  0  0  0  0  0  0  0  0  0  0  0
    1.7437   14.4235   43.1814 C   0  0  0  0  0  0  0  0  0  0  0  0
    1.3657   13.4096   44.0732 C   0  0  0  0  0  0  0  0  0  0  0  0
    1.8025   12.1001   43.8984 C   0  0  0  0  0  0  0  0  0  0  0  0
    2.5852   11.8033   42.7985 C   0  0  0  0  0  0  0  0  0  0  0  0
    2.9775   12.7738   41.8889 C   0  0  0  0  0  0  0  0  0  0  0  0
    2.5396   14.0803   42.0874 C   0  0  0  0  0  0  0  0  0  0  0  0
    0.4422   16.2234   44.3325 C   0  0  0  0  0  0  0  0  0  0  0  0
    2.2137   18.1729   39.9066 C   0  0  0  0  0  0  0  0  0  0  0  0
    2.4974   18.2625   38.5426 C   0  0  0  0  0  0  0  0  0  0  0  0
    1.1279   19.0812   41.9109 N   0  0  0  0  0  0  0  0  0  0  0  0
    1.5486   16.7580   42.3224 N   0  0  0  0  0  0  0  0  0  0  0  0
    1.7284   20.3232   35.6291 O   0  0  0  0  0  0  0  0  0  0  0  0
    3.0184   18.4879   35.7440 O   0  0  0  0  0  0  0  0  0  0  0  0
    3.0553   17.1838   37.8984 O   0  0  0  0  0  0  0  0  0  0  0  0
   -0.0614   17.8505   44.0739 S   0  0  0  0  0  0  0  0  0  0  0  0
    3.1026   10.1694   42.5454 Cl  0  0  0  0  0  0  0  0  0  0  0  0
    1.2213   21.3065   37.8676 H   0  0  0  0  0  0  0  0  0  0  0  0
    0.4511   21.0683   40.2178 H   0  0  0  0  0  0  0  0  0  0  0  0
    0.7134   13.6533   44.9247 H   0  0  0  0  0  0  0  0  0  0  0  0
    1.5303   11.3168   44.6210 H   0  0  0  0  0  0  0  0  0  0  0  0
    3.6184   12.5178   41.0323 H   0  0  0  0  0  0  0  0  0  0  0  0
    2.8272   14.8594   41.3661 H   0  0  0  0  0  0  0  0  0  0  0  0
    0.1404   15.6067   45.1919 H   0  0  0  0  0  0  0  0  0  0  0  0
    2.5115   17.2785   40.4734 H   0  0  0  0  0  0  0  0  0  0  0  0
    0.8546   19.9625   42.3688 H   0  0  0  0  0  0  0  0  0  0  0  0
  1  2  1  0
  1 19  1  0
  1 20  2  0
  2  3  1  0
  2 16  2  0
  3  4  2  0
  4  5  1  0
  5 15  2  0
  5 17  1  0
  6 17  1  0
  6 18  2  0
  6 22  1  0
  7  8  1  0
  7 14  2  0
  7 18  1  0
  8  9  1  0
  8 13  2  0
  9 10  2  0
 10 11  1  0
 11 12  2  0
 11 23  1  0
 12 13  1  0
 14 22  1  0
 15 16  1  0
 16 21  1  0
  3 24  1  0
  4 25  1  0
  9 26  1  0
 10 27  1  0
 12 28  1  0
 13 29  1  0
 14 30  1  0
 15 31  1  0
 17 32  1  0
M  CHG  2  19  -1  21  -1
M  END
>  <mol_id>  (13) 
2026-08-23-6tgu-s0-n100-r8-0013

>  <rmsd_to_ref>  (13) 
1.0051020408259757

$$$$
6tgu.A
     RDKit          3D

 32 34  0  0  0  0  0  0  0  0999 V2000
    2.7578   21.4618   37.3250 C   0  0  0  0  0  0  0  0  0  0  0  0
    2.4210   20.7293   38.5446 C   0  0  0  0  0  0  0  0  0  0  0  0
    2.2379   21.3943   39.7485 C   0  0  0  0  0  0  0  0  0  0  0  0
    1.9205   20.7288   40.9110 C   0  0  0  0  0  0  0  0  0  0  0  0
    1.7707   19.3301   40.9065 C   0  0  0  0  0  0  0  0  0  0  0  0
    0.9531   17.3872   42.2615 C   0  0  0  0  0  0  0  0  0  0  0  0
    0.5678   15.1458   42.4212 C   0  0  0  0  0  0  0  0  0  0  0  0
    1.0658   13.7453   42.3095 C   0  0  0  0  0  0  0  0  0  0  0  0
    0.2193   12.6746   42.5663 C   0  0  0  0  0  0  0  0  0  0  0  0
    0.6893   11.3774   42.4427 C   0  0  0  0  0  0  0  0  0  0  0  0
    1.9938   11.1340   42.0675 C   0  0  0  0  0  0  0  0  0  0  0  0
    2.8181   12.1951   41.8195 C   0  0  0  0  0  0  0  0  0  0  0  0
    2.3806   13.4963   41.9322 C   0  0  0  0  0  0  0  0  0  0  0  0
   -0.7689   15.3604   42.7636 C   0  0  0  0  0  0  0  0  0  0  0  0
    1.9539   18.6634   39.7028 C   0  0  0  0  0  0  0  0  0  0  0  0
    2.2718   19.3423   38.5471 C   0  0  0  0  0  0  0  0  0  0  0  0
    1.4573   18.6799   42.1212 N   0  0  0  0  0  0  0  0  0  0  0  0
    1.2953   16.1738   42.2053 N   0  0  0  0  0  0  0  0  0  0  0  0
    2.9358   20.7442   36.1479 O   0  0  0  0  0  0  0  0  0  0  0  0
    2.8767   22.7246   37.3796 O   0  0  0  0  0  0  0  0  0  0  0  0
    2.4500   18.6721   37.3714 O   0  0  0  0  0  0  0  0  0  0  0  0
   -0.8795   17.2373   42.7419 S   0  0  0  0  0  0  0  0  0  0  0  0
    2.4865    9.4579   41.9401 Cl  0  0  0  0  0  0  0  0  0  0  0  0
    2.3352   22.4865   39.8340 H   0  0  0  0  0  0  0  0  0  0  0  0
    1.7803   21.2698   41.8528 H   0  0  0  0  0  0  0  0  0  0  0  0
   -0.8214   12.8426   42.8638 H   0  0  0  0  0  0  0  0  0  0  0  0
   -0.0314   10.5905   42.6604 H   0  0  0  0  0  0  0  0  0  0  0  0
    3.8392   12.0005   41.5262 H   0  0  0  0  0  0  0  0  0  0  0  0
    3.0288   14.3294   41.7338 H   0  0  0  0  0  0  0  0  0  0  0  0
   -1.5650   14.7628   42.9856 H   0  0  0  0  0  0  0  0  0  0  0  0
    1.8465   17.5677   39.6697 H   0  0  0  0  0  0  0  0  0  0  0  0
    1.6207   19.2267   43.0212 H   0  0  0  0  0  0  0  0  0  0  0  0
  1  2  1  0
  1 19  1  0
  1 20  2  0
  2  3  1  0
  2 16  2  0
  3  4  2  0
  4  5  1  0
  5 15  2  0
  5 17  1  0
  6 17  1  0
  6 18  2  0
  6 22  1  0
  7  8  1  0
  7 14  2  0
  7 18  1  0
  8  9  1  0
  8 13  2  0
  9 10  2  0
 10 11  1  0
 11 12  2  0
 11 23  1  0
 12 13  1  0
 14 22  1  0
 15 16  1  0
 16 21  1  0
  3 24  1  0
  4 25  1  0
  9 26  1  0
 10 27  1  0
 12 28  1  0
 13 29  1  0
 14 30  1  0
 15 31  1  0
 17 32  1  0
M  CHG  2  19  -1  21  -1
M  END
>  <mol_id>  (14) 
2026-08-23-6tgu-s0-n100-r8-0014

>  <rmsd_to_ref>  (14) 
1.051020408166264

$$$$
6tgu.A
     RDKit          3D

 32 34  0  0  0  0  0  0  0  0999 V2000
    2.3240   19.2151   36.3138 C   0  0  0  0  0  0  0  0  0  0  0  0
    2.1176   19.2447   37.8308 C   0  0  0  0  0  0  0  0  0  0  0  0
    1.4695   20.3194   38.4355 C   0  0  0  0  0  0  0  0  0  0  0  0
    1.0947   20.2970   39.7829 C   0  0  0  0  0  0  0  0  0  0  0  0
    1.5209   19.2516   40.6150 C   0  0  0  0  0  0  0  0  0  0  0  0
    0.9665   18.1152   42.8206 C   0  0  0  0  0  0  0  0  0  0  0  0
    1.1597   15.9663   43.5421 C   0  0  0  0  0  0  0  0  0  0  0  0
    1.6054   14.5748   43.4639 C   0  0  0  0  0  0  0  0  0  0  0  0
    1.2034   13.6118   44.4003 C   0  0  0  0  0  0  0  0  0  0  0  0
    1.6120   12.2865   44.2880 C   0  0  0  0  0  0  0  0  0  0  0  0
    2.3908   11.9221   43.2058 C   0  0  0  0  0  0  0  0  0  0  0  0
    2.8063   12.8406   42.2535 C   0  0  0  0  0  0  0  0  0  0  0  0
    2.3964   14.1641   42.3897 C   0  0  0  0  0  0  0  0  0  0  0  0
    0.3404   16.4538   44.5257 C   0  0  0  0  0  0  0  0  0  0  0  0
    2.1646   18.1571   40.0203 C   0  0  0  0  0  0  0  0  0  0  0  0
    2.4537   18.1771   38.6546 C   0  0  0  0  0  0  0  0  0  0  0  0
    1.0939   19.1807   41.9766 N   0  0  0  0  0  0  0  0  0  0  0  0
    1.4631   16.8705   42.4968 N   0  0  0  0  0  0  0  0  0  0  0  0
    1.7367   20.1164   35.6460 O   0  0  0  0  0  0  0  0  0  0  0  0
    2.9863   18.2610   35.8504 O   0  0  0  0  0  0  0  0  0  0  0  0
    2.9895   17.0578   38.0631 O   0  0  0  0  0  0  0  0  0  0  0  0
   -0.1271   18.0776   44.1902 S   0  0  0  0  0  0  0  0  0  0  0  0
    2.8734   10.2674   43.0305 Cl  0  0  0  0  0  0  0  0  0  0  0  0
    1.2454   21.2132   37.8348 H   0  0  0  0  0  0  0  0  0  0  0  0
    0.4645   21.1011   40.1908 H   0  0  0  0  0  0  0  0  0  0  0  0
    0.5544   13.9088   45.2374 H   0  0  0  0  0  0  0  0  0  0  0  0
    1.3212   11.5436   45.0453 H   0  0  0  0  0  0  0  0  0  0  0  0
    3.4436   12.5314   41.4120 H   0  0  0  0  0  0  0  0  0  0  0  0
    2.7026   14.9024   41.6340 H   0  0  0  0  0  0  0  0  0  0  0  0
    0.0233   15.8844   45.4118 H   0  0  0  0  0  0  0  0  0  0  0  0
    2.4416   17.2837   40.6290 H   0  0  0  0  0  0  0  0  0  0  0  0
    0.8387   20.0879   42.3921 H   0  0  0  0  0  0  0  0  0  0  0  0
  1  2  1  0
  1 19  1  0
  1 20  2  0
  2  3  1  0
  2 16  2  0
  3  4  2  0
  4  5  1  0
  5 15  2  0
  5 17  1  0
  6 17  1  0
  6 18  2  0
  6 22  1  0
  7  8  1  0
  7 14  2  0
  7 18  1  0
  8  9  1  0
  8 13  2  0
  9 10  2  0
 10 11  1  0
 11 12  2  0
 11 23  1  0
 12 13  1  0
 14 22  1  0
 15 16  1  0
 16 21  1  0
  3 24  1  0
  4 25  1  0
  9 26  1  0
 10 27  1  0
 12 28  1  0
 13 29  1  0
 14 30  1  0
 15 31  1  0
 17 32  1  0
M  CHG  2  19  -1  21  -1
M  END
>  <mol_id>  (15) 
2026-08-23-6tgu-s0-n100-r8-0015

>  <rmsd_to_ref>  (15) 
1.096938775513105

$$$$
6tgu.A
     RDKit          3D

 32 34  0  0  0  0  0  0  0  0999 V2000
    3.7546   20.9226   37.5282 C   0  0  0  0  0  0  0  0  0  0  0  0
    2.6856   20.3463   38.3322 C   0  0  0  0  0  0  0  0  0  0  0  0
    1.6124   21.1110   38.7736 C   0  0  0  0  0  0  0  0  0  0  0  0
    0.6074   20.5494   39.5267 C   0  0  0  0  0  0  0  0  0  0  0  0
    0.6893   19.1865   39.8401 C   0  0  0  0  0  0  0  0  0  0  0  0
    0.0165   17.2915   41.2867 C   0  0  0  0  0  0  0  0  0  0  0  0
    0.4937   15.3353   42.2806 C   0  0  0  0  0  0  0  0  0  0  0  0
    0.7282   13.8887   42.1344 C   0  0  0  0  0  0  0  0  0  0  0  0
    0.6747   13.2432   40.9166 C   0  0  0  0  0  0  0  0  0  0  0  0
    0.9095   11.8855   40.8628 C   0  0  0  0  0  0  0  0  0  0  0  0
    1.2012   11.1251   41.9862 C   0  0  0  0  0  0  0  0  0  0  0  0
    1.2539   11.7610   43.1869 C   0  0  0  0  0  0  0  0  0  0  0  0
    1.0215   13.1100   43.2473 C   0  0  0  0  0  0  0  0  0  0  0  0
    0.5893   15.9469   43.5341 C   0  0  0  0  0  0  0  0  0  0  0  0
    1.7626   18.4224   39.4001 C   0  0  0  0  0  0  0  0  0  0  0  0
    2.7756   18.9859   38.6414 C   0  0  0  0  0  0  0  0  0  0  0  0
   -0.3059   18.5196   40.5879 N   0  0  0  0  0  0  0  0  0  0  0  0
    0.2055   16.1693   41.3184 N   0  0  0  0  0  0  0  0  0  0  0  0
    3.7071   22.2955   37.2109 O   0  0  0  0  0  0  0  0  0  0  0  0
    4.6903   20.1705   37.1420 O   0  0  0  0  0  0  0  0  0  0  0  0
    3.8653   18.2172   38.1938 O   0  0  0  0  0  0  0  0  0  0  0  0
    0.2321   17.7451   43.1237 S   0  0  0  0  0  0  0  0  0  0  0  0
    1.5071    9.4142   41.9317 Cl  0  0  0  0  0  0  0  0  0  0  0  0
    1.5383   22.1828   38.5379 H   0  0  0  0  0  0  0  0  0  0  0  0
   -0.2385   21.1315   39.8821 H   0  0  0  0  0  0  0  0  0  0  0  0
    0.4488   13.8040   40.0199 H   0  0  0  0  0  0  0  0  0  0  0  0
    0.8699   11.3653   39.9134 H   0  0  0  0  0  0  0  0  0  0  0  0
    1.4798   11.2039   44.0796 H   0  0  0  0  0  0  0  0  0  0  0  0
    1.0763   13.5657   44.2465 H   0  0  0  0  0  0  0  0  0  0  0  0
    0.7855   15.6163   44.4859 H   0  0  0  0  0  0  0  0  0  0  0  0
    1.8054   17.3675   39.6561 H   0  0  0  0  0  0  0  0  0  0  0  0
   -1.2709   18.8573   40.6669 H   0  0  0  0  0  0  0  0  0  0  0  0
  1  2  1  0
  1 19  1  0
  1 20  2  0
  2  3  1  0
  2 16  2  0
  3  4  2  0
  4  5  1  0
  5 15  2  0
  5 17  1  0
  6 17  1  0
  6 18  2  0
  6 22  1  0
  7  8  1  0
  7 14  2  0
  7 18  1  0
  8  9  1  0
  8 13  2  0
  9 10  2  0
 10 11  1  0
 11 12  2  0
 11 23  1  0
 12 13  1  0
 14 22  1  0
 15 16  1  0
 16 21  1  0
  3 24  1  0
  4 25  1  0
  9 26  1  0
 10 27  1  0
 12 28  1  0
 13 29  1  0
 14 30  1  0
 15 31  1  0
 17 32  1  0
M  CHG  2  19  -1  21  -1
M  END
>  <mol_id>  (16) 
2026-08-23-6tgu-s0-n100-r8-0016

>  <rmsd_to_ref>  (16) 
1.1428571428574645

$$$$
6tgu.A
     RDKit          3D

 32 34  0  0  0  0  0  0  0  0999 V2000
    3.9673   19.2887   36.3856 C   0  0  0  0  0  0  0  0  0  0  0  0
    3.4503   19.3675   37.8247 C   0  0  0  0  0  0  0  0  0  0  0  0
    3.0490   20.5867   38.3663 C   0  0  0  0  0  0  0  0  0  0  0  0
    2.3976   20.6715   39.6012 C   0  0  0  0  0  0  0  0  0  0  0  0
    2.2850   19.5366   40.4173 C   0  0  0  0  0  0  0  0  0  0  0  0
    0.9337   18.6144   42.3633 C   0  0  0  0  0  0  0  0  0  0  0  0
    0.2892   16.5090   42.9356 C   0  0  0  0  0  0  0  0  0  0  0  0
    0.2890   15.0489   42.8405 C   0  0  0  0  0  0  0  0  0  0  0  0
   -0.5874   14.2550   43.5941 C   0  0  0  0  0  0  0  0  0  0  0  0
   -0.5939   12.8698   43.4633 C   0  0  0  0  0  0  0  0  0  0  0  0
    0.2532   12.2869   42.5396 C   0  0  0  0  0  0  0  0  0  0  0  0
    1.1317   13.0344   41.7699 C   0  0  0  0  0  0  0  0  0  0  0  0
    1.1312   14.4181   41.9235 C   0  0  0  0  0  0  0  0  0  0  0  0
   -0.5355   17.2225   43.7646 C   0  0  0  0  0  0  0  0  0  0  0  0
    2.6739   18.2999   39.8830 C   0  0  0  0  0  0  0  0  0  0  0  0
    3.2493   18.2403   38.6124 C   0  0  0  0  0  0  0  0  0  0  0  0
    1.5672   19.5920   41.6513 N   0  0  0  0  0  0  0  0  0  0  0  0
    1.0802   17.2796   42.0509 N   0  0  0  0  0  0  0  0  0  0  0  0
    3.8500   20.3367   35.6849 O   0  0  0  0  0  0  0  0  0  0  0  0
    4.3877   18.1778   35.9943 O   0  0  0  0  0  0  0  0  0  0  0  0
    3.5300   17.0145   38.0570 O   0  0  0  0  0  0  0  0  0  0  0  0
   -0.3923   18.9139   43.4703 S   0  0  0  0  0  0  0  0  0  0  0  0
    0.2272   10.5666   42.3365 Cl  0  0  0  0  0  0  0  0  0  0  0  0
    3.2506   21.5112   37.8054 H   0  0  0  0  0  0  0  0  0  0  0  0
    1.9729   21.6304   39.9329 H   0  0  0  0  0  0  0  0  0  0  0  0
   -1.2810   14.7351   44.3001 H   0  0  0  0  0  0  0  0  0  0  0  0
   -1.2598   12.2510   44.0826 H   0  0  0  0  0  0  0  0  0  0  0  0
    1.8117   12.5465   41.0561 H   0  0  0  0  0  0  0  0  0  0  0  0
    1.8096   15.0277   41.3086 H   0  0  0  0  0  0  0  0  0  0  0  0
   -1.2006   16.7751   44.5179 H   0  0  0  0  0  0  0  0  0  0  0  0
    2.5258   17.3778   40.4643 H   0  0  0  0  0  0  0  0  0  0  0  0
    1.5195   20.5290   42.0762 H   0  0  0  0  0  0  0  0  0  0  0  0
  1  2  1  0
  1 19  1  0
  1 20  2  0
  2  3  1  0
  2 16  2  0
  3  4  2  0
  4  5  1  0
  5 15  2  0
  5 17  1  0
  6 17  1  0
  6 18  2  0
  6 22  1  0
  7  8  1  0
  7 14  2  0
  7 18  1  0
  8  9  1  0
  8 13  2  0
  9 10  2  0
 10 11  1  0
 11 12  2  0
 11 23  1  0
 12 13  1  0
 14 22  1  0
 15 16  1  0
 16 21  1  0
  3 24  1  0
  4 25  1  0
  9 26  1  0
 10 27  1  0
 12 28  1  0
 13 29  1  0
 14 30  1  0
 15 31  1  0
 17 32  1  0
M  CHG  2  19  -1  21  -1
M  END
>  <mol_id>  (17) 
2026-08-23-6tgu-s0-n100-r8-0017

>  <rmsd_to_ref>  (17) 
1.1887755102080766

$$$$
6tgu.A
     RDKit          3D

 32 34  0  0  0  0  0  0  0  0999 V2000
    3.6908   21.0069   37.6575 C   0  0  0  0  0  0  0  0  0  0  0  0
    2.6532   20.3188   38.4561 C   0  0  0  0  0  0  0  0  0  0  0  0
    1.3243   20.6645   38.2826 C   0  0  0  0  0  0  0  0  0  0  0  0
    0.3539   20.0255   39.0207 C   0  0  0  0  0  0  0  0  0  0  0  0
    0.7059   19.0461   39.9278 C   0  0  0  0  0  0  0  0  0  0  0  0
    0.0690   17.3216   41.6250 C   0  0  0  0  0  0  0  0  0  0  0  0
    0.5789   15.4466   42.7734 C   0  0  0  0  0  0  0  0  0  0  0  0
    0.8281   14.0022   42.7318 C   0  0  0  0  0  0  0  0  0  0  0  0
    1.1295   13.3114   43.8705 C   0  0  0  0  0  0  0  0  0  0  0  0
    1.3713   11.9471   43.8189 C   0  0  0  0  0  0  0  0  0  0  0  0
    1.3128   11.2505   42.6079 C   0  0  0  0  0  0  0  0  0  0  0  0
    1.0077   11.9433   41.4509 C   0  0  0  0  0  0  0  0  0  0  0  0
    0.7775   13.2871   41.5525 C   0  0  0  0  0  0  0  0  0  0  0  0
    0.6470   16.1729   43.9371 C   0  0  0  0  0  0  0  0  0  0  0  0
    2.0245   18.6943   40.1092 C   0  0  0  0  0  0  0  0  0  0  0  0
    3.0045   19.3287   39.3743 C   0  0  0  0  0  0  0  0  0  0  0  0
   -0.2772   18.3839   40.6782 N   0  0  0  0  0  0  0  0  0  0  0  0
    0.2778   16.2316   41.7614 N   0  0  0  0  0  0  0  0  0  0  0  0
    4.9995   20.6479   37.8431 O   0  0  0  0  0  0  0  0  0  0  0  0
    3.3447   21.8975   36.8361 O   0  0  0  0  0  0  0  0  0  0  0  0
    4.3220   18.9693   39.5623 O   0  0  0  0  0  0  0  0  0  0  0  0
    0.2715   17.9153   43.4590 S   0  0  0  0  0  0  0  0  0  0  0  0
    1.6171    9.5297   42.5181 Cl  0  0  0  0  0  0  0  0  0  0  0  0
    1.0008   21.4222   37.5870 H   0  0  0  0  0  0  0  0  0  0  0  0
   -0.6946   20.2674   38.9126 H   0  0  0  0  0  0  0  0  0  0  0  0
    1.1750   13.8446   44.8105 H   0  0  0  0  0  0  0  0  0  0  0  0
    1.6113   11.4010   44.7285 H   0  0  0  0  0  0  0  0  0  0  0  0
    0.9581   11.4269   40.5086 H   0  0  0  0  0  0  0  0  0  0  0  0
    0.5346   13.8321   40.6328 H   0  0  0  0  0  0  0  0  0  0  0  0
    0.8763   15.8853   45.0227 H   0  0  0  0  0  0  0  0  0  0  0  0
    2.3109   17.9154   40.8305 H   0  0  0  0  0  0  0  0  0  0  0  0
   -1.2821   18.5893   40.6220 H   0  0  0  0  0  0  0  0  0  0  0  0
  1  2  1  0
  1 19  1  0
  1 20  2  0
  2  3  1  0
  2 16  2  0
  3  4  2  0
  4  5  1  0
  5 15  2  0
  5 17  1  0
  6 17  1  0
  6 18  2  0
  6 22  1  0
  7  8  1  0
  7 14  2  0
  7 18  1  0
  8  9  1  0
  8 13  2  0
  9 10  2  0
 10 11  1  0
 11 12  2  0
 11 23  1  0
 12 13  1  0
 14 22  1  0
 15 16  1  0
 16 21  1  0
  3 24  1  0
  4 25  1  0
  9 26  1  0
 10 27  1  0
 12 28  1  0
 13 29  1  0
 14 30  1  0
 15 31  1  0
 17 32  1  0
M  CHG  2  19  -1  21  -1
M  END
>  <mol_id>  (18) 
2026-08-23-6tgu-s0-n100-r8-0018

>  <rmsd_to_ref>  (18) 
1.2346938775517229

$$$$
6tgu.A
     RDKit          3D

 32 34  0  0  0  0  0  0  0  0999 V2000
    4.7160   19.4777   36.9125 C   0  0  0  0  0  0  0  0  0  0  0  0
    4.0768   19.3812   38.3005 C   0  0  0  0  0  0  0  0  0  0  0  0
    3.6950   20.5329   38.9850 C   0  0  0  0  0  0  0  0  0  0  0  0
    2.9409   20.4809   40.1619 C   0  0  0  0  0  0  0  0  0  0  0  0
    2.6942   19.2496   40.7863 C   0  0  0  0  0  0  0  0  0  0  0  0
    1.1257   18.1471   42.4559 C   0  0  0  0  0  0  0  0  0  0  0  0
    0.3194   16.0288   42.6512 C   0  0  0  0  0  0  0  0  0  0  0  0
    0.2487   14.6012   42.3379 C   0  0  0  0  0  0  0  0  0  0  0  0
   -0.7334   13.7667   42.8903 C   0  0  0  0  0  0  0  0  0  0  0  0
   -0.8030   12.4187   42.5526 C   0  0  0  0  0  0  0  0  0  0  0  0
    0.0908   11.9208   41.6233 C   0  0  0  0  0  0  0  0  0  0  0  0
    1.0740   12.7117   41.0483 C   0  0  0  0  0  0  0  0  0  0  0  0
    1.1346   14.0554   41.4076 C   0  0  0  0  0  0  0  0  0  0  0  0
   -0.5366   16.6679   43.5086 C   0  0  0  0  0  0  0  0  0  0  0  0
    3.0621   18.0804   40.1054 C   0  0  0  0  0  0  0  0  0  0  0  0
    3.7452   18.1676   38.8910 C   0  0  0  0  0  0  0  0  0  0  0  0
    1.8725   19.1732   41.9526 N   0  0  0  0  0  0  0  0  0  0  0  0
    1.2272   16.8650   41.9593 N   0  0  0  0  0  0  0  0  0  0  0  0
    4.7189   20.6218   36.3702 O   0  0  0  0  0  0  0  0  0  0  0  0
    5.1090   18.4098   36.3939 O   0  0  0  0  0  0  0  0  0  0  0  0
    4.0079   17.0194   38.1821 O   0  0  0  0  0  0  0  0  0  0  0  0
   -0.2762   18.3707   43.4845 S   0  0  0  0  0  0  0  0  0  0  0  0
   -0.0099   10.2538   41.1624 Cl  0  0  0  0  0  0  0  0  0  0  0  0
    3.9959   21.5135   38.5877 H   0  0  0  0  0  0  0  0  0  0  0  0
    2.5406   21.4078   40.5986 H   0  0  0  0  0  0  0  0  0  0  0  0
   -1.4606   14.1845   43.6020 H   0  0  0  0  0  0  0  0  0  0  0  0
   -1.5544   11.7624   43.0160 H   0  0  0  0  0  0  0  0  0  0  0  0
    1.7880   12.2882   40.3265 H   0  0  0  0  0  0  0  0  0  0  0  0
    1.8974   14.7011   40.9482 H   0  0  0  0  0  0  0  0  0  0  0  0
   -1.2899   16.1613   44.1299 H   0  0  0  0  0  0  0  0  0  0  0  0
    2.8127   17.0957   40.5275 H   0  0  0  0  0  0  0  0  0  0  0  0
    1.8376   20.0397   42.5083 H   0  0  0  0  0  0  0  0  0  0  0  0
  1  2  1  0
  1 19  1  0
  1 20  2  0
  2  3  1  0
  2 16  2  0
  3  4  2  0
  4  5  1  0
  5 15  2  0
  5 17  1  0
  6 17  1  0
  6 18  2  0
  6 22  1  0
  7  8  1  0
  7 14  2  0
  7 18  1  0
  8  9  1  0
  8 13  2  0
  9 10  2  0
 10 11  1  0
 11 12  2  0
 11 23  1  0
 12 13  1  0
 14 22  1  0
 15 16  1  0
 16 21  1  0
  3 24  1  0
  4 25  1  0
  9 26  1  0
 10 27  1  0
 12 28  1  0
 13 29  1  0
 14 30  1  0
 15 31  1  0
 17 32  1  0
M  CHG  2  19  -1  21  -1
M  END
>  <mol_id>  (19) 
2026-08-23-6tgu-s0-n100-r8-0019

>  <rmsd_to_ref>  (19) 
1.2806122449020625

$$$$
6tgu.A
     RDKit          3D

 32 34  0  0  0  0  0  0  0  0999 V2000
    3.6100   20.1438   36.4551 C   0  0  0  0  0  0  0  0  0  0  0  0
    3.3043   19.6710   37.8044 C   0  0  0  0  0  0  0  0  0  0  0  0
    3.6338   20.4302   38.9180 C   0  0  0  0  0  0  0  0  0  0  0  0
    3.3574   20.0085   40.1990 C   0  0  0  0  0  0  0  0  0  0  0  0
    2.7210   18.7726   40.4143 C   0  0  0  0  0  0  0  0  0  0  0  0
    1.5752   17.3716   42.1476 C   0  0  0  0  0  0  0  0  0  0  0  0
    0.4592   15.4566   42.6810 C   0  0  0  0  0  0  0  0  0  0  0  0
    0.3880   13.9676   42.6781 C   0  0  0  0  0  0  0  0  0  0  0  0
   -0.7087   13.3143   43.2254 C   0  0  0  0  0  0  0  0  0  0  0  0
   -0.7710   11.9306   43.2017 C   0  0  0  0  0  0  0  0  0  0  0  0
    0.2475   11.1896   42.6401 C   0  0  0  0  0  0  0  0  0  0  0  0
    1.3223   11.8430   42.1067 C   0  0  0  0  0  0  0  0  0  0  0  0
    1.4133   13.2173   42.1135 C   0  0  0  0  0  0  0  0  0  0  0  0
   -0.6059   16.1811   43.2202 C   0  0  0  0  0  0  0  0  0  0  0  0
    2.3910   18.0117   39.3011 C   0  0  0  0  0  0  0  0  0  0  0  0
    2.6741   18.4461   38.0249 C   0  0  0  0  0  0  0  0  0  0  0  0
    2.4649   18.3667   41.7433 N   0  0  0  0  0  0  0  0  0  0  0  0
    1.4411   16.1179   42.2004 N   0  0  0  0  0  0  0  0  0  0  0  0
    3.2628   19.3396   35.3759 O   0  0  0  0  0  0  0  0  0  0  0  0
    4.1806   21.2689   36.3128 O   0  0  0  0  0  0  0  0  0  0  0  0
    2.3444   17.6857   36.9403 O   0  0  0  0  0  0  0  0  0  0  0  0
   -0.0411   17.9554   42.9590 S   0  0  0  0  0  0  0  0  0  0  0  0
    0.0697    9.4471   42.6611 Cl  0  0  0  0  0  0  0  0  0  0  0  0
    4.1305   21.4079   38.8331 H   0  0  0  0  0  0  0  0  0  0  0  0
    3.6253   20.6204   41.0667 H   0  0  0  0  0  0  0  0  0  0  0  0
   -1.5308   13.8812   43.6753 H   0  0  0  0  0  0  0  0  0  0  0  0
   -1.6603   11.4895   43.6495 H   0  0  0  0  0  0  0  0  0  0  0  0
    2.1182   11.2592   41.6680 H   0  0  0  0  0  0  0  0  0  0  0  0
    2.2574   13.7298   41.6909 H   0  0  0  0  0  0  0  0  0  0  0  0
   -1.4952   15.9435   43.6593 H   0  0  0  0  0  0  0  0  0  0  0  0
    1.8951   17.0380   39.4393 H   0  0  0  0  0  0  0  0  0  0  0  0
    3.0019   18.8667   42.5161 H   0  0  0  0  0  0  0  0  0  0  0  0
  1  2  1  0
  1 19  1  0
  1 20  2  0
  2  3  1  0
  2 16  2  0
  3  4  2  0
  4  5  1  0
  5 15  2  0
  5 17  1  0
  6 17  1  0
  6 18  2  0
  6 22  1  0
  7  8  1  0
  7 14  2  0
  7 18  1  0
  8  9  1  0
  8 13  2  0
  9 10  2  0
 10 11  1  0
 11 12  2  0
 11 23  1  0
 12 13  1  0
 14 22  1  0
 15 16  1  0
 16 21  1  0
  3 24  1  0
  4 25  1  0
  9 26  1  0
 10 27  1  0
 12 28  1  0
 13 29  1  0
 14 30  1  0
 15 31  1  0
 17 32  1  0
M  CHG  2  19  -1  21  -1
M  END
>  <mol_id>  (20) 
2026-08-23-6tgu-s0-n100-r8-0020

>  <rmsd_to_ref>  (20) 
1.3265306122470812

$$$$
6tgu.A
     RDKit          3D

 32 34  0  0  0  0  0  0  0  0999 V2000
    1.6343   21.2302   37.0451 C   0  0  0  0  0  0  0  0  0  0  0  0
    1.7084   20.6757   38.4704 C   0  0  0  0  0  0  0  0  0  0  0  0
    1.3641   21.4742   39.5588 C   0  0  0  0  0  0  0  0  0  0  0  0
    1.2362   20.9529   40.8505 C   0  0  0  0  0  0  0  0  0  0  0  0
    1.6252   19.6325   41.1186 C   0  0  0  0  0  0  0  0  0  0  0  0
    1.2919   17.7681   42.8145 C   0  0  0  0  0  0  0  0  0  0  0  0
    1.2533   15.5009   42.6296 C   0  0  0  0  0  0  0  0  0  0  0  0
    1.4426   14.2214   41.9453 C   0  0  0  0  0  0  0  0  0  0  0  0
    1.0602   13.0040   42.5264 C   0  0  0  0  0  0  0  0  0  0  0  0
    1.2183   11.8017   41.8441 C   0  0  0  0  0  0  0  0  0  0  0  0
    1.7216   11.8308   40.5571 C   0  0  0  0  0  0  0  0  0  0  0  0
    2.1069   13.0126   39.9423 C   0  0  0  0  0  0  0  0  0  0  0  0
    1.9515   14.2039   40.6457 C   0  0  0  0  0  0  0  0  0  0  0  0
    0.7135   15.6268   43.8823 C   0  0  0  0  0  0  0  0  0  0  0  0
    1.9638   18.8122   40.0329 C   0  0  0  0  0  0  0  0  0  0  0  0
    2.0049   19.3456   38.7434 C   0  0  0  0  0  0  0  0  0  0  0  0
    1.4411   19.0655   42.4170 N   0  0  0  0  0  0  0  0  0  0  0  0
    1.5111   16.7156   41.9513 N   0  0  0  0  0  0  0  0  0  0  0  0
    1.0944   22.3673   36.9086 O   0  0  0  0  0  0  0  0  0  0  0  0
    2.0373   20.4851   36.1252 O   0  0  0  0  0  0  0  0  0  0  0  0
    2.2352   18.5104   37.6761 O   0  0  0  0  0  0  0  0  0  0  0  0
    0.4679   17.2839   44.2842 S   0  0  0  0  0  0  0  0  0  0  0  0
    1.8860   10.3458   39.6799 Cl  0  0  0  0  0  0  0  0  0  0  0  0
    1.1873   22.5478   39.3974 H   0  0  0  0  0  0  0  0  0  0  0  0
    0.8297   21.5800   41.6576 H   0  0  0  0  0  0  0  0  0  0  0  0
    0.6282   12.9993   43.5380 H   0  0  0  0  0  0  0  0  0  0  0  0
    0.9482   10.8472   42.3194 H   0  0  0  0  0  0  0  0  0  0  0  0
    2.5248   13.0089   38.9248 H   0  0  0  0  0  0  0  0  0  0  0  0
    2.2360   15.1524   40.1667 H   0  0  0  0  0  0  0  0  0  0  0  0
    0.4694   14.7823   44.5435 H   0  0  0  0  0  0  0  0  0  0  0  0
    2.1967   17.7497   40.1971 H   0  0  0  0  0  0  0  0  0  0  0  0
    1.4168   19.7528   43.1838 H   0  0  0  0  0  0  0  0  0  0  0  0
  1  2  1  0
  1 19  1  0
  1 20  2  0
  2  3  1  0
  2 16  2  0
  3  4  2  0
  4  5  1  0
  5 15  2  0
  5 17  1  0
  6 17  1  0
  6 18  2  0
  6 22  1  0
  7  8  1  0
  7 14  2  0
  7 18  1  0
  8  9  1  0
  8 13  2  0
  9 10  2  0
 10 11  1  0
 11 12  2  0
 11 23  1  0
 12 13  1  0
 14 22  1  0
 15 16  1  0
 16 21  1  0
  3 24  1  0
  4 25  1  0
  9 26  1  0
 10 27  1  0
 12 28  1  0
 13 29  1  0
 14 30  1  0
 15 31  1  0
 17 32  1  0
M  CHG  2  19  -1  21  -1
M  END
>  <mol_id>  (21) 
2026-08-23-6tgu-s0-n100-r8-0021

>  <rmsd_to_ref>  (21) 
1.3724489795983383

$$$$
6tgu.A
     RDKit          3D

 32 34  0  0  0  0  0  0  0  0999 V2000
    2.1167   21.0407   36.8965 C   0  0  0  0  0  0  0  0  0  0  0  0
    1.9852   20.4544   38.2341 C   0  0  0  0  0  0  0  0  0  0  0  0
    2.5485   21.1161   39.3011 C   0  0  0  0  0  0  0  0  0  0  0  0
    2.3990   20.5252   40.5503 C   0  0  0  0  0  0  0  0  0  0  0  0
    1.7072   19.3176   40.7014 C   0  0  0  0  0  0  0  0  0  0  0  0
    1.0063   17.4852   42.1918 C   0  0  0  0  0  0  0  0  0  0  0  0
    0.6255   15.2289   42.5120 C   0  0  0  0  0  0  0  0  0  0  0  0
    1.1300   13.8456   42.7397 C   0  0  0  0  0  0  0  0  0  0  0  0
    0.2576   12.7963   42.8659 C   0  0  0  0  0  0  0  0  0  0  0  0
    0.7964   11.5458   43.0830 C   0  0  0  0  0  0  0  0  0  0  0  0
    2.1510   11.3046   43.1774 C   0  0  0  0  0  0  0  0  0  0  0  0
    3.0295   12.3587   43.0509 C   0  0  0  0  0  0  0  0  0  0  0  0
    2.5022   13.6106   42.8342 C   0  0  0  0  0  0  0  0  0  0  0  0
   -0.7472   15.4567   42.4449 C   0  0  0  0  0  0  0  0  0  0  0  0
    1.1522   18.6844   39.5839 C   0  0  0  0  0  0  0  0  0  0  0  0
    1.2964   19.2633   38.3423 C   0  0  0  0  0  0  0  0  0  0  0  0
    1.5534   18.7280   42.0109 N   0  0  0  0  0  0  0  0  0  0  0  0
    1.3987   16.2423   42.3829 N   0  0  0  0  0  0  0  0  0  0  0  0
    2.8069   22.2521   36.7076 O   0  0  0  0  0  0  0  0  0  0  0  0
    1.5909   20.4279   35.9055 O   0  0  0  0  0  0  0  0  0  0  0  0
    0.7301   18.5996   37.2665 O   0  0  0  0  0  0  0  0  0  0  0  0
   -0.9073   17.2464   42.1799 S   0  0  0  0  0  0  0  0  0  0  0  0
    2.7900    9.6807   43.4585 Cl  0  0  0  0  0  0  0  0  0  0  0  0
    3.0921   22.0578   39.2087 H   0  0  0  0  0  0  0  0  0  0  0  0
    2.8174   20.9865   41.4519 H   0  0  0  0  0  0  0  0  0  0  0  0
   -0.8067   12.9163   42.8007 H   0  0  0  0  0  0  0  0  0  0  0  0
    0.0949   10.7315   43.1802 H   0  0  0  0  0  0  0  0  0  0  0  0
    4.1096   12.2278   43.1167 H   0  0  0  0  0  0  0  0  0  0  0  0
    3.2178   14.4214   42.7389 H   0  0  0  0  0  0  0  0  0  0  0  0
   -1.6369   14.7368   42.5273 H   0  0  0  0  0  0  0  0  0  0  0  0
    0.6062   17.7408   39.6798 H   0  0  0  0  0  0  0  0  0  0  0  0
    1.8774   19.2910   42.8276 H   0  0  0  0  0  0  0  0  0  0  0  0
  1  2  1  0
  1 19  1  0
  1 20  2  0
  2  3  1  0
  2 16  2  0
  3  4  2  0
  4  5  1  0
  5 15  2  0
  5 17  1  0
  6 17  1  0
  6 18  2  0
  6 22  1  0
  7  8  1  0
  7 14  2  0
  7 18  1  0
  8  9  1  0
  8 13  2  0
  9 10  2  0
 10 11  1  0
 11 12  2  0
 11 23  1  0
 12 13  1  0
 14 22  1  0
 15 16  1  0
 16 21  1  0
  3 24  1  0
  4 25  1  0
  9 26  1  0
 10 27  1  0
 12 28  1  0
 13 29  1  0
 14 30  1  0
 15 31  1  0
 17 32  1  0
M  CHG  2  19  -1  21  -1
M  END
>  <mol_id>  (22) 
2026-08-23-6tgu-s0-n100-r8-0022

>  <rmsd_to_ref>  (22) 
1.4183673469416522

$$$$
6tgu.A
     RDKit          3D

 32 34  0  0  0  0  0  0  0  0999 V2000
    2.4298   18.4000   35.8849 C   0  0  0  0  0  0  0  0  0  0  0  0
    2.1907   18.6492   37.3766 C   0  0  0  0  0  0  0  0  0  0  0  0
    1.7515   19.8931   37.8244 C   0  0  0  0  0  0  0  0  0  0  0  0
    1.3419   20.1041   39.1450 C   0  0  0  0  0  0  0  0  0  0  0  0
    1.5288   19.1025   40.1087 C   0  0  0  0  0  0  0  0  0  0  0  0
    0.6983   18.3654   42.3957 C   0  0  0  0  0  0  0  0  0  0  0  0
    0.4414   16.3211   43.3603 C   0  0  0  0  0  0  0  0  0  0  0  0
    0.6047   14.8704   43.4600 C   0  0  0  0  0  0  0  0  0  0  0  0
   -0.0064   14.1217   44.4760 C   0  0  0  0  0  0  0  0  0  0  0  0
    0.1346   12.7387   44.5325 C   0  0  0  0  0  0  0  0  0  0  0  0
    0.8560   12.1044   43.5387 C   0  0  0  0  0  0  0  0  0  0  0  0
    1.4719   12.8053   42.5127 C   0  0  0  0  0  0  0  0  0  0  0  0
    1.3286   14.1896   42.4800 C   0  0  0  0  0  0  0  0  0  0  0  0
   -0.2925   17.0714   44.2406 C   0  0  0  0  0  0  0  0  0  0  0  0
    1.9595   17.8413   39.6729 C   0  0  0  0  0  0  0  0  0  0  0  0
    2.2852   17.6424   38.3300 C   0  0  0  0  0  0  0  0  0  0  0  0
    1.0579   19.2780   41.4462 N   0  0  0  0  0  0  0  0  0  0  0  0
    0.9474   17.0186   42.2380 N   0  0  0  0  0  0  0  0  0  0  0  0
    2.0518   19.3119   35.0920 O   0  0  0  0  0  0  0  0  0  0  0  0
    2.9028   17.2875   35.5647 O   0  0  0  0  0  0  0  0  0  0  0  0
    2.6052   16.3784   37.8946 O   0  0  0  0  0  0  0  0  0  0  0  0
   -0.4194   18.7033   43.7034 S   0  0  0  0  0  0  0  0  0  0  0  0
    1.0059   10.3788   43.5731 Cl  0  0  0  0  0  0  0  0  0  0  0  0
    1.7260   20.7355   37.1174 H   0  0  0  0  0  0  0  0  0  0  0  0
    0.8722   21.0576   39.4283 H   0  0  0  0  0  0  0  0  0  0  0  0
   -0.6070   14.6361   45.2406 H   0  0  0  0  0  0  0  0  0  0  0  0
   -0.3189   12.1616   45.3518 H   0  0  0  0  0  0  0  0  0  0  0  0
    2.0588   12.2807   41.7444 H   0  0  0  0  0  0  0  0  0  0  0  0
    1.7963   14.7596   41.6636 H   0  0  0  0  0  0  0  0  0  0  0  0
   -0.7410   16.6836   45.1671 H   0  0  0  0  0  0  0  0  0  0  0  0
    2.0407   17.0096   40.3883 H   0  0  0  0  0  0  0  0  0  0  0  0
    0.9759   20.2603   41.7448 H   0  0  0  0  0  0  0  0  0  0  0  0
  1  2  1  0
  1 19  1  0
  1 20  2  0
  2  3  1  0
  2 16  2  0
  3  4  2  0
  4  5  1  0
  5 15  2  0
  5 17  1  0
  6 17  1  0
  6 18  2  0
  6 22  1  0
  7  8  1  0
  7 14  2  0
  7 18  1  0
  8  9  1  0
  8 13  2  0
  9 10  2  0
 10 11  1  0
 11 12  2  0
 11 23  1  0
 12 13  1  0
 14 22  1  0
 15 16  1  0
 16 21  1  0
  3 24  1  0
  4 25  1  0
  9 26  1  0
 10 27  1  0
 12 28  1  0
 13 29  1  0
 14 30  1  0
 15 31  1  0
 17 32  1  0
M  CHG  2  19  -1  21  -1
M  END
>  <mol_id>  (23) 
2026-08-23-6tgu-s0-n100-r8-0023

>  <rmsd_to_ref>  (23) 
1.4642857142901142

$$$$
6tgu.A
     RDKit          3D

 32 34  0  0  0  0  0  0  0  0999 V2000
    2.0253   20.5247   36.9757 C   0  0  0  0  0  0  0  0  0  0  0  0
    1.4575   20.0091   38.2138 C   0  0  0  0  0  0  0  0  0  0  0  0
    0.6354   20.7886   39.0188 C   0  0  0  0  0  0  0  0  0  0  0  0
    0.1019   20.2839   40.1820 C   0  0  0  0  0  0  0  0  0  0  0  0
    0.4059   18.9638   40.5389 C   0  0  0  0  0  0  0  0  0  0  0  0
    0.5648   17.2143   42.2854 C   0  0  0  0  0  0  0  0  0  0  0  0
    1.5615   15.3856   43.1247 C   0  0  0  0  0  0  0  0  0  0  0  0
    1.8072   13.9380   43.0104 C   0  0  0  0  0  0  0  0  0  0  0  0
    1.2713   13.1674   41.9997 C   0  0  0  0  0  0  0  0  0  0  0  0
    1.5515   11.8178   41.9605 C   0  0  0  0  0  0  0  0  0  0  0  0
    2.3563   11.1867   42.8983 C   0  0  0  0  0  0  0  0  0  0  0  0
    2.8847   11.9460   43.8949 C   0  0  0  0  0  0  0  0  0  0  0  0
    2.6101   13.2876   43.9397 C   0  0  0  0  0  0  0  0  0  0  0  0
    2.1531   16.1272   44.1515 C   0  0  0  0  0  0  0  0  0  0  0  0
    1.2286   18.1850   39.7350 C   0  0  0  0  0  0  0  0  0  0  0  0
    1.7668   18.6912   38.5631 C   0  0  0  0  0  0  0  0  0  0  0  0
   -0.1140   18.3541   41.7017 N   0  0  0  0  0  0  0  0  0  0  0  0
    0.8252   16.1067   42.3233 N   0  0  0  0  0  0  0  0  0  0  0  0
    1.7497   21.8552   36.5994 O   0  0  0  0  0  0  0  0  0  0  0  0
    2.7473   19.7600   36.2797 O   0  0  0  0  0  0  0  0  0  0  0  0
    2.6012   17.9075   37.7456 O   0  0  0  0  0  0  0  0  0  0  0  0
    1.5299   17.8630   43.7936 S   0  0  0  0  0  0  0  0  0  0  0  0
    2.7243    9.4878   42.8563 Cl  0  0  0  0  0  0  0  0  0  0  0  0
    0.3924   21.8277   38.7521 H   0  0  0  0  0  0  0  0  0  0  0  0
   -0.5414   20.8786   40.8249 H   0  0  0  0  0  0  0  0  0  0  0  0
    0.6384   13.6253   41.2520 H   0  0  0  0  0  0  0  0  0  0  0  0
    1.1368   11.2002   41.1730 H   0  0  0  0  0  0  0  0  0  0  0  0
    3.5157   11.4912   44.6388 H   0  0  0  0  0  0  0  0  0  0  0  0
    3.0646   13.8467   44.7703 H   0  0  0  0  0  0  0  0  0  0  0  0
    2.7677   15.9031   44.9425 H   0  0  0  0  0  0  0  0  0  0  0  0
    1.4512   17.1641   40.0323 H   0  0  0  0  0  0  0  0  0  0  0  0
   -0.9681   18.6739   42.1705 H   0  0  0  0  0  0  0  0  0  0  0  0
  1  2  1  0
  1 19  1  0
  1 20  2  0
  2  3  1  0
  2 16  2  0
  3  4  2  0
  4  5  1  0
  5 15  2  0
  5 17  1  0
  6 17  1  0
  6 18  2  0
  6 22  1  0
  7  8  1  0
  7 14  2  0
  7 18  1  0
  8  9  1  0
  8 13  2  0
  9 10  2  0
 10 11  1  0
 11 12  2  0
 11 23  1  0
 12 13  1  0
 14 22  1  0
 15 16  1  0
 16 21  1  0
  3 24  1  0
  4 25  1  0
  9 26  1  0
 10 27  1  0
 12 28  1  0
 13 29  1  0
 14 30  1  0
 15 31  1  0
 17 32  1  0
M  CHG  2  19  -1  21  -1
M  END
>  <mol_id>  (24) 
2026-08-23-6tgu-s0-n100-r8-0024

>  <rmsd_to_ref>  (24) 
1.5102040816346853

$$$$
6tgu.A
     RDKit          3D

 32 34  0  0  0  0  0  0  0  0999 V2000
    5.2506   19.3703   37.9678 C   0  0  0  0  0  0  0  0  0  0  0  0
    4.1595   19.2170   39.0311 C   0  0  0  0  0  0  0  0  0  0  0  0
    3.3957   20.3138   39.4240 C   0  0  0  0  0  0  0  0  0  0  0  0
    2.2719   20.1792   40.2458 C   0  0  0  0  0  0  0  0  0  0  0  0
    1.9817   18.9450   40.8452 C   0  0  0  0  0  0  0  0  0  0  0  0
    0.0709   17.6590   41.9216 C   0  0  0  0  0  0  0  0  0  0  0  0
   -0.4509   15.4460   41.9989 C   0  0  0  0  0  0  0  0  0  0  0  0
   -0.2028   14.0163   41.8104 C   0  0  0  0  0  0  0  0  0  0  0  0
   -1.1955   13.0530   42.0401 C   0  0  0  0  0  0  0  0  0  0  0  0
   -0.9484   11.7012   41.8223 C   0  0  0  0  0  0  0  0  0  0  0  0
    0.2868   11.3238   41.3301 C   0  0  0  0  0  0  0  0  0  0  0  0
    1.2950   12.2435   41.0836 C   0  0  0  0  0  0  0  0  0  0  0  0
    1.0320   13.5902   41.3187 C   0  0  0  0  0  0  0  0  0  0  0  0
   -1.6440   15.9664   42.4256 C   0  0  0  0  0  0  0  0  0  0  0  0
    2.7337   17.8288   40.4521 C   0  0  0  0  0  0  0  0  0  0  0  0
    3.8016   17.9855   39.5666 C   0  0  0  0  0  0  0  0  0  0  0  0
    0.8031   18.7749   41.6346 N   0  0  0  0  0  0  0  0  0  0  0  0
    0.5254   16.3946   41.6126 N   0  0  0  0  0  0  0  0  0  0  0  0
    5.2985   20.4820   37.3637 O   0  0  0  0  0  0  0  0  0  0  0  0
    5.9514   18.3634   37.7253 O   0  0  0  0  0  0  0  0  0  0  0  0
    4.4648   16.8723   39.1075 O   0  0  0  0  0  0  0  0  0  0  0  0
   -1.6299   17.6873   42.3456 S   0  0  0  0  0  0  0  0  0  0  0  0
    0.5953    9.6483   41.0152 Cl  0  0  0  0  0  0  0  0  0  0  0  0
    3.6854   21.3167   39.0773 H   0  0  0  0  0  0  0  0  0  0  0  0
    1.6144   21.0432   40.4223 H   0  0  0  0  0  0  0  0  0  0  0  0
   -2.1857   13.3712   42.3984 H   0  0  0  0  0  0  0  0  0  0  0  0
   -1.7206   10.9479   42.0374 H   0  0  0  0  0  0  0  0  0  0  0  0
    2.2775   11.9173   40.7119 H   0  0  0  0  0  0  0  0  0  0  0  0
    1.8147   14.3351   41.1123 H   0  0  0  0  0  0  0  0  0  0  0  0
   -2.4974   15.3656   42.7731 H   0  0  0  0  0  0  0  0  0  0  0  0
    2.4827   16.8309   40.8409 H   0  0  0  0  0  0  0  0  0  0  0  0
    0.4448   19.6420   42.0597 H   0  0  0  0  0  0  0  0  0  0  0  0
  1  2  1  0
  1 19  1  0
  1 20  2  0
  2  3  1  0
  2 16  2  0
  3  4  2  0
  4  5  1  0
  5 15  2  0
  5 17  1  0
  6 17  1  0
  6 18  2  0
  6 22  1  0
  7  8  1  0
  7 14  2  0
  7 18  1  0
  8  9  1  0
  8 13  2  0
  9 10  2  0
 10 11  1  0
 11 12  2  0
 11 23  1  0
 12 13  1  0
 14 22  1  0
 15 16  1  0
 16 21  1  0
  3 24  1  0
  4 25  1  0
  9 26  1  0
 10 27  1  0
 12 28  1  0
 13 29  1  0
 14 30  1  0
 15 31  1  0
 17 32  1  0
M  CHG  2  19  -1  21  -1
M  END
>  <mol_id>  (25) 
2026-08-23-6tgu-s0-n100-r8-0025

>  <rmsd_to_ref>  (25) 
1.5561224489890895

$$$$
6tgu.A
     RDKit          3D

 32 34  0  0  0  0  0  0  0  0999 V2000
    2.9647   20.6533   36.3424 C   0  0  0  0  0  0  0  0  0  0  0  0
    2.3108   20.1679   37.5492 C   0  0  0  0  0  0  0  0  0  0  0  0
    1.1743   20.7826   38.0178 C   0  0  0  0  0  0  0  0  0  0  0  0
    0.5476   20.3376   39.1622 C   0  0  0  0  0  0  0  0  0  0  0  0
    1.0263   19.2523   39.8986 C   0  0  0  0  0  0  0  0  0  0  0  0
    0.8650   17.8508   41.9311 C   0  0  0  0  0  0  0  0  0  0  0  0
    1.3553   15.8915   43.0192 C   0  0  0  0  0  0  0  0  0  0  0  0
    1.1828   14.4273   43.2203 C   0  0  0  0  0  0  0  0  0  0  0  0
    0.3299   13.6886   42.4335 C   0  0  0  0  0  0  0  0  0  0  0  0
    0.1734   12.3127   42.6509 C   0  0  0  0  0  0  0  0  0  0  0  0
    0.8789   11.6939   43.6607 C   0  0  0  0  0  0  0  0  0  0  0  0
    1.7409   12.4392   44.4555 C   0  0  0  0  0  0  0  0  0  0  0  0
    1.8670   13.7730   44.2148 C   0  0  0  0  0  0  0  0  0  0  0  0
    2.2176   16.6018   43.8385 C   0  0  0  0  0  0  0  0  0  0  0  0
    2.1668   18.6346   39.4274 C   0  0  0  0  0  0  0  0  0  0  0  0
    2.7917   19.0913   38.2718 C   0  0  0  0  0  0  0  0  0  0  0  0
    0.3604   18.8237   41.0795 N   0  0  0  0  0  0  0  0  0  0  0  0
    0.7194   16.5505   42.1031 N   0  0  0  0  0  0  0  0  0  0  0  0
    2.4190   21.7457   35.6675 O   0  0  0  0  0  0  0  0  0  0  0  0
    4.0071   20.1424   35.8634 O   0  0  0  0  0  0  0  0  0  0  0  0
    3.9480   18.4639   37.7949 O   0  0  0  0  0  0  0  0  0  0  0  0
    2.0510   18.3239   43.1912 S   0  0  0  0  0  0  0  0  0  0  0  0
    0.7544    9.9881   44.0184 Cl  0  0  0  0  0  0  0  0  0  0  0  0
    0.7502   21.6172   37.5108 H   0  0  0  0  0  0  0  0  0  0  0  0
   -0.3498   20.8431   39.5109 H   0  0  0  0  0  0  0  0  0  0  0  0
   -0.2333   14.1526   41.6364 H   0  0  0  0  0  0  0  0  0  0  0  0
   -0.4769   11.7051   42.0633 H   0  0  0  0  0  0  0  0  0  0  0  0
    2.3121   11.9898   45.2580 H   0  0  0  0  0  0  0  0  0  0  0  0
    2.5617   14.3250   44.8673 H   0  0  0  0  0  0  0  0  0  0  0  0
    2.8705   16.3313   44.6691 H   0  0  0  0  0  0  0  0  0  0  0  0
    2.5782   17.7786   39.9705 H   0  0  0  0  0  0  0  0  0  0  0  0
   -0.5665   19.2663   41.3213 H   0  0  0  0  0  0  0  0  0  0  0  0
  1  2  1  0
  1 19  1  0
  1 20  2  0
  2  3  1  0
  2 16  2  0
  3  4  2  0
  4  5  1  0
  5 15  2  0
  5 17  1  0
  6 17  1  0
  6 18  2  0
  6 22  1  0
  7  8  1  0
  7 14  2  0
  7 18  1  0
  8  9  1  0
  8 13  2  0
  9 10  2  0
 10 11  1  0
 11 12  2  0
 11 23  1  0
 12 13  1  0
 14 22  1  0
 15 16  1  0
 16 21  1  0
  3 24  1  0
  4 25  1  0
  9 26  1  0
 10 27  1  0
 12 28  1  0
 13 29  1  0
 14 30  1  0
 15 31  1  0
 17 32  1  0
M  CHG  2  19  -1  21  -1
M  END
>  <mol_id>  (26) 
2026-08-23-6tgu-s0-n100-r8-0026

>  <rmsd_to_ref>  (26) 
1.6020408163306645

$$$$
6tgu.A
     RDKit          3D

 32 34  0  0  0  0  0  0  0  0999 V2000
    2.1232   18.7657   36.1915 C   0  0  0  0  0  0  0  0  0  0  0  0
    2.4022   18.7008   37.6957 C   0  0  0  0  0  0  0  0  0  0  0  0
    2.4992   19.8692   38.4480 C   0  0  0  0  0  0  0  0  0  0  0  0
    2.5630   19.8489   39.8452 C   0  0  0  0  0  0  0  0  0  0  0  0
    2.7083   18.6314   40.5258 C   0  0  0  0  0  0  0  0  0  0  0  0
    2.3798   17.5854   42.8195 C   0  0  0  0  0  0  0  0  0  0  0  0
    1.8103   15.4885   43.4935 C   0  0  0  0  0  0  0  0  0  0  0  0
    1.5554   14.0592   43.3117 C   0  0  0  0  0  0  0  0  0  0  0  0
    1.0633   13.2541   44.3489 C   0  0  0  0  0  0  0  0  0  0  0  0
    0.7959   11.9040   44.1448 C   0  0  0  0  0  0  0  0  0  0  0  0
    0.9830   11.3744   42.8818 C   0  0  0  0  0  0  0  0  0  0  0  0
    1.4624   12.1357   41.8265 C   0  0  0  0  0  0  0  0  0  0  0  0
    1.7347   13.4819   42.0537 C   0  0  0  0  0  0  0  0  0  0  0  0
    1.6143   16.1574   44.6727 C   0  0  0  0  0  0  0  0  0  0  0  0
    2.6017   17.4458   39.7847 C   0  0  0  0  0  0  0  0  0  0  0  0
    2.4588   17.5024   38.3971 C   0  0  0  0  0  0  0  0  0  0  0  0
    2.7104   18.5879   41.9538 N   0  0  0  0  0  0  0  0  0  0  0  0
    2.1611   16.2953   42.3853 N   0  0  0  0  0  0  0  0  0  0  0  0
    1.8255   19.9027   35.7206 O   0  0  0  0  0  0  0  0  0  0  0  0
    2.1323   17.6829   35.5660 O   0  0  0  0  0  0  0  0  0  0  0  0
    2.2506   16.3399   37.6935 O   0  0  0  0  0  0  0  0  0  0  0  0
    1.8323   17.8534   44.4632 S   0  0  0  0  0  0  0  0  0  0  0  0
    0.6155    9.7046   42.6024 Cl  0  0  0  0  0  0  0  0  0  0  0  0
    2.5265   20.8378   37.9273 H   0  0  0  0  0  0  0  0  0  0  0  0
    2.4991   20.7899   40.4112 H   0  0  0  0  0  0  0  0  0  0  0  0
    0.8857   13.6970   45.3400 H   0  0  0  0  0  0  0  0  0  0  0  0
    0.4428   11.2707   44.9719 H   0  0  0  0  0  0  0  0  0  0  0  0
    1.6233   11.6872   40.8350 H   0  0  0  0  0  0  0  0  0  0  0  0
    2.0994   14.1044   41.2233 H   0  0  0  0  0  0  0  0  0  0  0  0
    1.3525   15.6758   45.6264 H   0  0  0  0  0  0  0  0  0  0  0  0
    2.6308   16.4723   40.2961 H   0  0  0  0  0  0  0  0  0  0  0  0
    3.0128   19.4618   42.4074 H   0  0  0  0  0  0  0  0  0  0  0  0
  1  2  1  0
  1 19  1  0
  1 20  2  0
  2  3  1  0
  2 16  2  0
  3  4  2  0
  4  5  1  0
  5 15  2  0
  5 17  1  0
  6 17  1  0
  6 18  2  0
  6 22  1  0
  7  8  1  0
  7 14  2  0
  7 18  1  0
  8  9  1  0
  8 13  2  0
  9 10  2  0
 10 11  1  0
 11 12  2  0
 11 23  1  0
 12 13  1  0
 14 22  1  0
 15 16  1  0
 16 21  1  0
  3 24  1  0
  4 25  1  0
  9 26  1  0
 10 27  1  0
 12 28  1  0
 13 29  1  0
 14 30  1  0
 15 31  1  0
 17 32  1  0
M  CHG  2  19  -1  21  -1
M  END
>  <mol_id>  (27) 
2026-08-23-6tgu-s0-n100-r8-0027

>  <rmsd_to_ref>  (27) 
1.647959183674642

$$$$
6tgu.A
     RDKit          3D

 32 34  0  0  0  0  0  0  0  0999 V2000
    1.6561   21.0989   37.5981 C   0  0  0  0  0  0  0  0  0  0  0  0
    1.1703   20.4051   38.7870 C   0  0  0  0  0  0  0  0  0  0  0  0
    0.4692   21.1104   39.7484 C   0  0  0  0  0  0  0  0  0  0  0  0
    0.0057   20.4756   40.8866 C   0  0  0  0  0  0  0  0  0  0  0  0
    0.2569   19.1066   41.0501 C   0  0  0  0  0  0  0  0  0  0  0  0
   -0.1298   16.9802   42.2352 C   0  0  0  0  0  0  0  0  0  0  0  0
    0.3989   14.7844   42.3859 C   0  0  0  0  0  0  0  0  0  0  0  0
    1.3910   13.7029   42.5950 C   0  0  0  0  0  0  0  0  0  0  0  0
    2.7127   13.9694   42.8479 C   0  0  0  0  0  0  0  0  0  0  0  0
    3.6426   12.9369   43.0287 C   0  0  0  0  0  0  0  0  0  0  0  0
    3.2410   11.6030   42.9540 C   0  0  0  0  0  0  0  0  0  0  0  0
    1.9308   11.3624   42.7041 C   0  0  0  0  0  0  0  0  0  0  0  0
    1.0138   12.3796   42.5257 C   0  0  0  0  0  0  0  0  0  0  0  0
   -0.9466   14.4727   42.1197 C   0  0  0  0  0  0  0  0  0  0  0  0
    0.9649   18.3973   40.0759 C   0  0  0  0  0  0  0  0  0  0  0  0
    1.4209   19.0471   38.9464 C   0  0  0  0  0  0  0  0  0  0  0  0
   -0.1745   18.3962   42.2080 N   0  0  0  0  0  0  0  0  0  0  0  0
    0.6801   16.0432   42.4181 N   0  0  0  0  0  0  0  0  0  0  0  0
    2.3658   20.4031   36.6344 O   0  0  0  0  0  0  0  0  0  0  0  0
    1.4560   22.3289   37.4033 O   0  0  0  0  0  0  0  0  0  0  0  0
    2.1271   18.3611   37.9651 O   0  0  0  0  0  0  0  0  0  0  0  0
   -1.7047   16.0571   41.9349 S   0  0  0  0  0  0  0  0  0  0  0  0
    4.3732   10.2826   43.1744 Cl  0  0  0  0  0  0  0  0  0  0  0  0
    0.2631   22.1723   39.6404 H   0  0  0  0  0  0  0  0  0  0  0  0
   -0.5532   20.9991   41.6675 H   0  0  0  0  0  0  0  0  0  0  0  0
    3.0636   14.9683   42.9135 H   0  0  0  0  0  0  0  0  0  0  0  0
    4.6844   13.1700   43.2261 H   0  0  0  0  0  0  0  0  0  0  0  0
    1.5769   10.3394   42.6396 H   0  0  0  0  0  0  0  0  0  0  0  0
    0.0029   12.1141   42.3339 H   0  0  0  0  0  0  0  0  0  0  0  0
   -1.4176   13.5203   42.0417 H   0  0  0  0  0  0  0  0  0  0  0  0
    1.1720   17.3329   40.1788 H   0  0  0  0  0  0  0  0  0  0  0  0
   -0.5260   18.9259   43.0432 H   0  0  0  0  0  0  0  0  0  0  0  0
  1  2  1  0
  1 19  1  0
  1 20  2  0
  2  3  1  0
  2 16  2  0
  3  4  2  0
  4  5  1  0
  5 15  2  0
  5 17  1  0
  6 17  1  0
  6 18  2  0
  6 22  1  0
  7  8  1  0
  7 14  2  0
  7 18  1  0
  8  9  1  0
  8 13  2  0
  9 10  2  0
 10 11  1  0
 11 12  2  0
 11 23  1  0
 12 13  1  0
 14 22  1  0
 15 16  1  0
 16 21  1  0
  3 24  1  0
  4 25  1  0
  9 26  1  0
 10 27  1  0
 12 28  1  0
 13 29  1  0
 14 30  1  0
 15 31  1  0
 17 32  1  0
M  CHG  2  19  -1  21  -1
M  END
>  <mol_id>  (28) 
2026-08-23-6tgu-s0-n100-r8-0028

>  <rmsd_to_ref>  (28) 
1.6938775510266049

$$$$
6tgu.A
     RDKit          3D

 32 34  0  0  0  0  0  0  0  0999 V2000
    1.8050   19.3390   35.9183 C   0  0  0  0  0  0  0  0  0  0  0  0
    1.6147   19.3644   37.4374 C   0  0  0  0  0  0  0  0  0  0  0  0
    0.7045   20.2425   38.0216 C   0  0  0  0  0  0  0  0  0  0  0  0
    0.3646   20.1661   39.3763 C   0  0  0  0  0  0  0  0  0  0  0  0
    1.0687   19.3060   40.2314 C   0  0  0  0  0  0  0  0  0  0  0  0
    0.8691   18.1395   42.4815 C   0  0  0  0  0  0  0  0  0  0  0  0
    1.6489   16.1510   43.2647 C   0  0  0  0  0  0  0  0  0  0  0  0
    2.4565   14.9316   43.2205 C   0  0  0  0  0  0  0  0  0  0  0  0
    2.3426   13.9289   44.1940 C   0  0  0  0  0  0  0  0  0  0  0  0
    3.0960   12.7619   44.1143 C   0  0  0  0  0  0  0  0  0  0  0  0
    3.9330   12.5857   43.0286 C   0  0  0  0  0  0  0  0  0  0  0  0
    4.0719   13.5487   42.0404 C   0  0  0  0  0  0  0  0  0  0  0  0
    3.3179   14.7144   42.1440 C   0  0  0  0  0  0  0  0  0  0  0  0
    0.7384   16.4312   44.2490 C   0  0  0  0  0  0  0  0  0  0  0  0
    1.9802   18.4080   39.6580 C   0  0  0  0  0  0  0  0  0  0  0  0
    2.2381   18.4581   38.2868 C   0  0  0  0  0  0  0  0  0  0  0  0
    0.6919   19.1692   41.6028 N   0  0  0  0  0  0  0  0  0  0  0  0
    1.6830   17.0665   42.1864 N   0  0  0  0  0  0  0  0  0  0  0  0
    0.9870   20.0223   35.2349 O   0  0  0  0  0  0  0  0  0  0  0  0
    2.6974   18.5856   35.4713 O   0  0  0  0  0  0  0  0  0  0  0  0
    3.0526   17.5071   37.7195 O   0  0  0  0  0  0  0  0  0  0  0  0
   -0.1580   17.8535   43.8731 S   0  0  0  0  0  0  0  0  0  0  0  0
    4.8467   11.1198   42.8947 Cl  0  0  0  0  0  0  0  0  0  0  0  0
    0.2387   21.0199   37.3983 H   0  0  0  0  0  0  0  0  0  0  0  0
   -0.4566   20.7819   39.7717 H   0  0  0  0  0  0  0  0  0  0  0  0
    1.6462   14.0671   45.0342 H   0  0  0  0  0  0  0  0  0  0  0  0
    3.0270   11.9949   44.8997 H   0  0  0  0  0  0  0  0  0  0  0  0
    4.7603   13.3954   41.1963 H   0  0  0  0  0  0  0  0  0  0  0  0
    3.4030   15.4814   41.3600 H   0  0  0  0  0  0  0  0  0  0  0  0
    0.5982   15.8283   45.1583 H   0  0  0  0  0  0  0  0  0  0  0  0
    2.4915   17.6649   40.2877 H   0  0  0  0  0  0  0  0  0  0  0  0
    0.2034   19.9866   41.9952 H   0  0  0  0  0  0  0  0  0  0  0  0
  1  2  1  0
  1 19  1  0
  1 20  2  0
  2  3  1  0
  2 16  2  0
  3  4  2  0
  4  5  1  0
  5 15  2  0
  5 17  1  0
  6 17  1  0
  6 18  2  0
  6 22  1  0
  7  8  1  0
  7 14  2  0
  7 18  1  0
  8  9  1  0
  8 13  2  0
  9 10  2  0
 10 11  1  0
 11 12  2  0
 11 23  1  0
 12 13  1  0
 14 22  1  0
 15 16  1  0
 16 21  1  0
  3 24  1  0
  4 25  1  0
  9 26  1  0
 10 27  1  0
 12 28  1  0
 13 29  1  0
 14 30  1  0
 15 31  1  0
 17 32  1  0
M  CHG  2  19  -1  21  -1
M  END
>  <mol_id>  (29) 
2026-08-23-6tgu-s0-n100-r8-0029

>  <rmsd_to_ref>  (29) 
1.739795918376761

$$$$
6tgu.A
     RDKit          3D

 32 34  0  0  0  0  0  0  0  0999 V2000
    3.4131   21.3880   37.6479 C   0  0  0  0  0  0  0  0  0  0  0  0
    3.0166   20.5969   38.8312 C   0  0  0  0  0  0  0  0  0  0  0  0
    1.6659   20.4467   39.1224 C   0  0  0  0  0  0  0  0  0  0  0  0
    1.2667   19.6890   40.2302 C   0  0  0  0  0  0  0  0  0  0  0  0
    2.1845   19.0828   41.0461 C   0  0  0  0  0  0  0  0  0  0  0  0
    1.1056   17.0886   41.9184 C   0  0  0  0  0  0  0  0  0  0  0  0
    0.2614   14.9996   41.8947 C   0  0  0  0  0  0  0  0  0  0  0  0
    0.3415   13.5930   42.2608 C   0  0  0  0  0  0  0  0  0  0  0  0
    1.4152   13.1581   43.0128 C   0  0  0  0  0  0  0  0  0  0  0  0
    1.4599   11.8228   43.3210 C   0  0  0  0  0  0  0  0  0  0  0  0
    0.5334   10.8878   42.9465 C   0  0  0  0  0  0  0  0  0  0  0  0
   -0.5510   11.3307   42.1882 C   0  0  0  0  0  0  0  0  0  0  0  0
   -0.6219   12.6831   41.8594 C   0  0  0  0  0  0  0  0  0  0  0  0
   -0.8347   15.4395   41.0464 C   0  0  0  0  0  0  0  0  0  0  0  0
    3.5196   19.2515   40.7330 C   0  0  0  0  0  0  0  0  0  0  0  0
    3.9534   19.9920   39.6483 C   0  0  0  0  0  0  0  0  0  0  0  0
    1.8911   18.2571   42.1553 N   0  0  0  0  0  0  0  0  0  0  0  0
    1.0416   15.9920   42.1600 N   0  0  0  0  0  0  0  0  0  0  0  0
    4.7623   21.5246   37.3539 O   0  0  0  0  0  0  0  0  0  0  0  0
    2.5031   21.9224   36.9329 O   0  0  0  0  0  0  0  0  0  0  0  0
    5.2887   20.1556   39.3412 O   0  0  0  0  0  0  0  0  0  0  0  0
   -0.4618   17.2554   40.8237 S   0  0  0  0  0  0  0  0  0  0  0  0
    0.6348    9.1922   43.3684 Cl  0  0  0  0  0  0  0  0  0  0  0  0
    0.9197   20.9252   38.4733 H   0  0  0  0  0  0  0  0  0  0  0  0
    0.2144   19.6144   40.4295 H   0  0  0  0  0  0  0  0  0  0  0  0
    2.1935   13.8439   43.3497 H   0  0  0  0  0  0  0  0  0  0  0  0
    2.3111   11.4772   43.9232 H   0  0  0  0  0  0  0  0  0  0  0  0
   -1.3329   10.6388   41.8543 H   0  0  0  0  0  0  0  0  0  0  0  0
   -1.4849   12.9920   41.2649 H   0  0  0  0  0  0  0  0  0  0  0  0
   -1.6238   14.9331   40.6438 H   0  0  0  0  0  0  0  0  0  0  0  0
    4.3001   18.7961   41.3337 H   0  0  0  0  0  0  0  0  0  0  0  0
    2.2209   18.4680   43.1219 H   0  0  0  0  0  0  0  0  0  0  0  0
  1  2  1  0
  1 19  1  0
  1 20  2  0
  2  3  1  0
  2 16  2  0
  3  4  2  0
  4  5  1  0
  5 15  2  0
  5 17  1  0
  6 17  1  0
  6 18  2  0
  6 22  1  0
  7  8  1  0
  7 14  2  0
  7 18  1  0
  8  9  1  0
  8 13  2  0
  9 10  2  0
 10 11  1  0
 11 12  2  0
 11 23  1  0
 12 13  1  0
 14 22  1  0
 15 16  1  0
 16 21  1  0
  3 24  1  0
  4 25  1  0
  9 26  1  0
 10 27  1  0
 12 28  1  0
 13 29  1  0
 14 30  1  0
 15 31  1  0
 17 32  1  0
M  CHG  2  19  -1  21  -1
M  END
>  <mol_id>  (30) 
2026-08-23-6tgu-s0-n100-r8-0030

>  <rmsd_to_ref>  (30) 
1.7857142857168335

$$$$
6tgu.A
     RDKit          3D

 32 34  0  0  0  0  0  0  0  0999 V2000
    3.1251   18.8547   35.4988 C   0  0  0  0  0  0  0  0  0  0  0  0
    2.4293   19.0040   36.8546 C   0  0  0  0  0  0  0  0  0  0  0  0
    1.3153   19.8291   36.9908 C   0  0  0  0  0  0  0  0  0  0  0  0
    0.5422   19.8457   38.1564 C   0  0  0  0  0  0  0  0  0  0  0  0
    0.9734   19.1532   39.2971 C   0  0  0  0  0  0  0  0  0  0  0  0
    0.1054   18.1919   41.4848 C   0  0  0  0  0  0  0  0  0  0  0  0
    0.7118   16.3843   42.7259 C   0  0  0  0  0  0  0  0  0  0  0  0
    1.5706   15.2616   43.1044 C   0  0  0  0  0  0  0  0  0  0  0  0
    1.2044   14.3500   44.1048 C   0  0  0  0  0  0  0  0  0  0  0  0
    2.0208   13.2699   44.4257 C   0  0  0  0  0  0  0  0  0  0  0  0
    3.1867   13.0833   43.7072 C   0  0  0  0  0  0  0  0  0  0  0  0
    3.5841   13.9571   42.7064 C   0  0  0  0  0  0  0  0  0  0  0  0
    2.7593   15.0381   42.4078 C   0  0  0  0  0  0  0  0  0  0  0  0
   -0.4961   16.6560   43.3120 C   0  0  0  0  0  0  0  0  0  0  0  0
    2.0865   18.3094   39.1739 C   0  0  0  0  0  0  0  0  0  0  0  0
    2.7901   18.2563   37.9692 C   0  0  0  0  0  0  0  0  0  0  0  0
    0.1644   19.1075   40.4738 N   0  0  0  0  0  0  0  0  0  0  0  0
    1.0448   17.1909   41.6120 N   0  0  0  0  0  0  0  0  0  0  0  0
    2.5412   19.3763   34.5037 O   0  0  0  0  0  0  0  0  0  0  0  0
    4.1671   18.1640   35.4693 O   0  0  0  0  0  0  0  0  0  0  0  0
    3.8139   17.3501   37.8265 O   0  0  0  0  0  0  0  0  0  0  0  0
   -1.3100   17.9296   42.4854 S   0  0  0  0  0  0  0  0  0  0  0  0
    4.1929   11.7199   44.0680 Cl  0  0  0  0  0  0  0  0  0  0  0  0
    1.0348   20.4881   36.1558 H   0  0  0  0  0  0  0  0  0  0  0  0
   -0.4058   20.4031   38.1784 H   0  0  0  0  0  0  0  0  0  0  0  0
    0.2564   14.4909   44.6446 H   0  0  0  0  0  0  0  0  0  0  0  0
    1.7438   12.5784   45.2351 H   0  0  0  0  0  0  0  0  0  0  0  0
    4.5271   13.8000   42.1622 H   0  0  0  0  0  0  0  0  0  0  0  0
    3.0507   15.7314   41.6051 H   0  0  0  0  0  0  0  0  0  0  0  0
   -0.8934   16.1309   44.1931 H   0  0  0  0  0  0  0  0  0  0  0  0
    2.4050   17.6901   40.0254 H   0  0  0  0  0  0  0  0  0  0  0  0
   -0.4848   19.9004   40.5770 H   0  0  0  0  0  0  0  0  0  0  0  0
  1  2  1  0
  1 19  1  0
  1 20  2  0
  2  3  1  0
  2 16  2  0
  3  4  2  0
  4  5  1  0
  5 15  2  0
  5 17  1  0
  6 17  1  0
  6 18  2  0
  6 22  1  0
  7  8  1  0
  7 14  2  0
  7 18  1  0
  8  9  1  0
  8 13  2  0
  9 10  2  0
 10 11  1  0
 11 12  2  0
 11 23  1  0
 12 13  1  0
 14 22  1  0
 15 16  1  0
 16 21  1  0
  3 24  1  0
  4 25  1  0
  9 26  1  0
 10 27  1  0
 12 28  1  0
 13 29  1  0
 14 30  1  0
 15 31  1  0
 17 32  1  0
M  CHG  2  19  -1  21  -1
M  END
>  <mol_id>  (31) 
2026-08-23-6tgu-s0-n100-r8-0031

>  <rmsd_to_ref>  (31) 
1.8316326530632419

$$$$
6tgu.A
     RDKit          3D

 32 34  0  0  0  0  0  0  0  0999 V2000
    4.1746   19.0493   36.9101 C   0  0  0  0  0  0  0  0  0  0  0  0
    3.5347   19.2070   38.2191 C   0  0  0  0  0  0  0  0  0  0  0  0
    3.0231   18.0812   38.8036 C   0  0  0  0  0  0  0  0  0  0  0  0
    2.4130   18.2093   40.0435 C   0  0  0  0  0  0  0  0  0  0  0  0
    2.3005   19.4091   40.7061 C   0  0  0  0  0  0  0  0  0  0  0  0
    1.1403   18.4366   42.6165 C   0  0  0  0  0  0  0  0  0  0  0  0
    0.3829   16.4302   43.3585 C   0  0  0  0  0  0  0  0  0  0  0  0
    0.2120   15.0003   43.1658 C   0  0  0  0  0  0  0  0  0  0  0  0
    0.6701   14.3665   42.0359 C   0  0  0  0  0  0  0  0  0  0  0  0
    0.5363   13.0322   41.8059 C   0  0  0  0  0  0  0  0  0  0  0  0
   -0.0910   12.2496   42.7445 C   0  0  0  0  0  0  0  0  0  0  0  0
   -0.5652   12.8659   43.8996 C   0  0  0  0  0  0  0  0  0  0  0  0
   -0.4173   14.2297   44.1128 C   0  0  0  0  0  0  0  0  0  0  0  0
   -0.0940   17.1415   44.5538 C   0  0  0  0  0  0  0  0  0  0  0  0
    2.8484   20.5164   40.0439 C   0  0  0  0  0  0  0  0  0  0  0  0
    3.4533   20.4245   38.8275 C   0  0  0  0  0  0  0  0  0  0  0  0
    1.6877   19.5759   41.9658 N   0  0  0  0  0  0  0  0  0  0  0  0
    0.9557   17.2928   42.5559 N   0  0  0  0  0  0  0  0  0  0  0  0
    4.7087   20.1892   36.2867 O   0  0  0  0  0  0  0  0  0  0  0  0
    4.2672   17.9447   36.3215 O   0  0  0  0  0  0  0  0  0  0  0  0
    3.9829   21.5507   38.2079 O   0  0  0  0  0  0  0  0  0  0  0  0
    0.3303   18.7851   44.3295 S   0  0  0  0  0  0  0  0  0  0  0  0
   -0.3172   10.5443   42.5585 Cl  0  0  0  0  0  0  0  0  0  0  0  0
    3.0801   17.0928   38.3274 H   0  0  0  0  0  0  0  0  0  0  0  0
    2.0229   17.3105   40.4743 H   0  0  0  0  0  0  0  0  0  0  0  0
    1.1743   14.9856   41.2777 H   0  0  0  0  0  0  0  0  0  0  0  0
    0.9134   12.5980   40.9080 H   0  0  0  0  0  0  0  0  0  0  0  0
   -1.0632   12.2575   44.6495 H   0  0  0  0  0  0  0  0  0  0  0  0
   -0.8168   14.6151   45.0366 H   0  0  0  0  0  0  0  0  0  0  0  0
   -0.6302   16.5903   45.3994 H   0  0  0  0  0  0  0  0  0  0  0  0
    2.7997   21.5076   40.5048 H   0  0  0  0  0  0  0  0  0  0  0  0
    1.6674   20.5440   42.3619 H   0  0  0  0  0  0  0  0  0  0  0  0
  1  2  1  0
  1 19  1  0
  1 20  2  0
  2  3  1  0
  2 16  2  0
  3  4  2  0
  4  5  1  0
  5 15  2  0
  5 17  1  0
  6 17  1  0
  6 18  2  0
  6 22  1  0
  7  8  1  0
  7 14  2  0
  7 18  1  0
  8  9  1  0
  8 13  2  0
  9 10  2  0
 10 11  1  0
 11 12  2  0
 11 23  1  0
 12 13  1  0
 14 22  1  0
 15 16  1  0
 16 21  1  0
  3 24  1  0
  4 25  1  0
  9 26  1  0
 10 27  1  0
 12 28  1  0
 13 29  1  0
 14 30  1  0
 15 31  1  0
 17 32  1  0
M  CHG  2  19  -1  21  -1
M  END
>  <mol_id>  (32) 
2026-08-23-6tgu-s0-n100-r8-0032

>  <rmsd_to_ref>  (32) 
1.8775510204128683

$$$$
6tgu.A
     RDKit          3D

 32 34  0  0  0  0  0  0  0  0999 V2000
    2.1452   21.2177   38.7138 C   0  0  0  0  0  0  0  0  0  0  0  0
    2.0437   20.3614   39.9792 C   0  0  0  0  0  0  0  0  0  0  0  0
    1.7433   20.9468   41.2071 C   0  0  0  0  0  0  0  0  0  0  0  0
    1.4560   20.1827   42.3429 C   0  0  0  0  0  0  0  0  0  0  0  0
    1.6350   18.7919   42.3196 C   0  0  0  0  0  0  0  0  0  0  0  0
    0.9272   16.6765   43.5392 C   0  0  0  0  0  0  0  0  0  0  0  0
    0.5804   14.5374   42.8469 C   0  0  0  0  0  0  0  0  0  0  0  0
    0.6322   13.4241   41.8986 C   0  0  0  0  0  0  0  0  0  0  0  0
    0.0429   12.1827   42.1769 C   0  0  0  0  0  0  0  0  0  0  0  0
    0.0747   11.1482   41.2470 C   0  0  0  0  0  0  0  0  0  0  0  0
    0.6627   11.3793   40.0177 C   0  0  0  0  0  0  0  0  0  0  0  0
    1.2522   12.5934   39.6987 C   0  0  0  0  0  0  0  0  0  0  0  0
    1.2200   13.6123   40.6467 C   0  0  0  0  0  0  0  0  0  0  0  0
   -0.0194   14.4686   44.0765 C   0  0  0  0  0  0  0  0  0  0  0  0
    1.9264   18.1858   41.0892 C   0  0  0  0  0  0  0  0  0  0  0  0
    2.1296   18.9745   39.9553 C   0  0  0  0  0  0  0  0  0  0  0  0
    1.2853   17.9909   43.4498 N   0  0  0  0  0  0  0  0  0  0  0  0
    1.0528   15.8165   42.4690 N   0  0  0  0  0  0  0  0  0  0  0  0
    1.7823   22.4262   38.8188 O   0  0  0  0  0  0  0  0  0  0  0  0
    2.4997   20.6380   37.6640 O   0  0  0  0  0  0  0  0  0  0  0  0
    2.3108   18.3666   38.7357 O   0  0  0  0  0  0  0  0  0  0  0  0
   -0.0543   16.0160   44.8329 S   0  0  0  0  0  0  0  0  0  0  0  0
    0.6738   10.1138   38.8345 Cl  0  0  0  0  0  0  0  0  0  0  0  0
    1.7318   22.0439   41.2859 H   0  0  0  0  0  0  0  0  0  0  0  0
    1.0890   20.6736   43.2562 H   0  0  0  0  0  0  0  0  0  0  0  0
   -0.4527   12.0240   43.1461 H   0  0  0  0  0  0  0  0  0  0  0  0
   -0.3594   10.1660   41.4854 H   0  0  0  0  0  0  0  0  0  0  0  0
    1.7330   12.7473   38.7214 H   0  0  0  0  0  0  0  0  0  0  0  0
    1.6677   14.5873   40.4039 H   0  0  0  0  0  0  0  0  0  0  0  0
   -0.4247   13.5480   44.5216 H   0  0  0  0  0  0  0  0  0  0  0  0
    1.9948   17.0903   41.0175 H   0  0  0  0  0  0  0  0  0  0  0  0
    1.3069   18.4901   44.3504 H   0  0  0  0  0  0  0  0  0  0  0  0
  1  2  1  0
  1 19  1  0
  1 20  2  0
  2  3  1  0
  2 16  2  0
  3  4  2  0
  4  5  1  0
  5 15  2  0
  5 17  1  0
  6 17  1  0
  6 18  2  0
  6 22  1  0
  7  8  1  0
  7 14  2  0
  7 18  1  0
  8  9  1  0
  8 13  2  0
  9 10  2  0
 10 11  1  0
 11 12  2  0
 11 23  1  0
 12 13  1  0
 14 22  1  0
 15 16  1  0
 16 21  1  0
  3 24  1  0
  4 25  1  0
  9 26  1  0
 10 27  1  0
 12 28  1  0
 13 29  1  0
 14 30  1  0
 15 31  1  0
 17 32  1  0
M  CHG  2  19  -1  21  -1
M  END
>  <mol_id>  (33) 
2026-08-23-6tgu-s0-n100-r8-0033

>  <rmsd_to_ref>  (33) 
1.9234693877631586

$$$$
6tgu.A
     RDKit          3D

 32 34  0  0  0  0  0  0  0  0999 V2000
    1.5755   21.8358   37.3707 C   0  0  0  0  0  0  0  0  0  0  0  0
    1.0499   20.8793   38.3426 C   0  0  0  0  0  0  0  0  0  0  0  0
   -0.3287   20.8028   38.4826 C   0  0  0  0  0  0  0  0  0  0  0  0
   -0.8653   19.8985   39.4050 C   0  0  0  0  0  0  0  0  0  0  0  0
   -0.0138   19.0897   40.1680 C   0  0  0  0  0  0  0  0  0  0  0  0
    0.2861   17.2879   41.8801 C   0  0  0  0  0  0  0  0  0  0  0  0
    1.5314   15.6291   42.7477 C   0  0  0  0  0  0  0  0  0  0  0  0
    2.0429   14.2719   42.6020 C   0  0  0  0  0  0  0  0  0  0  0  0
    2.8610   13.7098   43.5656 C   0  0  0  0  0  0  0  0  0  0  0  0
    3.3649   12.4286   43.4693 C   0  0  0  0  0  0  0  0  0  0  0  0
    3.0533   11.6511   42.3708 C   0  0  0  0  0  0  0  0  0  0  0  0
    2.2458   12.1732   41.3954 C   0  0  0  0  0  0  0  0  0  0  0  0
    1.7490   13.4682   41.5139 C   0  0  0  0  0  0  0  0  0  0  0  0
    1.8254   16.4169   43.8408 C   0  0  0  0  0  0  0  0  0  0  0  0
    1.3661   19.1650   40.0286 C   0  0  0  0  0  0  0  0  0  0  0  0
    1.8979   20.0718   39.1041 C   0  0  0  0  0  0  0  0  0  0  0  0
   -0.5570   18.1729   41.1079 N   0  0  0  0  0  0  0  0  0  0  0  0
    0.7490   16.2408   41.8787 N   0  0  0  0  0  0  0  0  0  0  0  0
    2.9511   21.9499   37.1964 O   0  0  0  0  0  0  0  0  0  0  0  0
    0.8283   22.5703   36.6757 O   0  0  0  0  0  0  0  0  0  0  0  0
    3.2914   20.1772   38.9338 O   0  0  0  0  0  0  0  0  0  0  0  0
    0.9461   18.0115   43.5476 S   0  0  0  0  0  0  0  0  0  0  0  0
    3.6629   10.0210   42.1927 Cl  0  0  0  0  0  0  0  0  0  0  0  0
   -1.0114   21.4150   37.9068 H   0  0  0  0  0  0  0  0  0  0  0  0
   -1.9529   19.8173   39.5352 H   0  0  0  0  0  0  0  0  0  0  0  0
    3.1280   14.2764   44.4342 H   0  0  0  0  0  0  0  0  0  0  0  0
    4.0044   12.0408   44.2610 H   0  0  0  0  0  0  0  0  0  0  0  0
    1.9695   11.6167   40.5184 H   0  0  0  0  0  0  0  0  0  0  0  0
    1.1124   13.8551   40.7273 H   0  0  0  0  0  0  0  0  0  0  0  0
    2.4482   16.2385   44.7675 H   0  0  0  0  0  0  0  0  0  0  0  0
    2.0290   18.5468   40.6118 H   0  0  0  0  0  0  0  0  0  0  0  0
   -1.5977   18.1412   41.2418 H   0  0  0  0  0  0  0  0  0  0  0  0
  1  2  1  0
  1 19  1  0
  1 20  2  0
  2  3  1  0
  2 16  2  0
  3  4  2  0
  4  5  1  0
  5 15  2  0
  5 17  1  0
  6 17  1  0
  6 18  2  0
  6 22  1  0
  7  8  1  0
  7 14  2  0
  7 18  1  0
  8  9  1  0
  8 13  2  0
  9 10  2  0
 10 11  1  0
 11 12  2  0
 11 23  1  0
 12 13  1  0
 14 22  1  0
 15 16  1  0
 16 21  1  0
  3 24  1  0
  4 25  1  0
  9 26  1  0
 10 27  1  0
 12 28  1  0
 13 29  1  0
 14 30  1  0
 15 31  1  0
 17 32  1  0
M  CHG  2  19  -1  21  -1
M  END
>  <mol_id>  (34) 
2026-08-23-6tgu-s0-n100-r8-0034

>  <rmsd_to_ref>  (34) 
1.9693877551042953

$$$$
6tgu.A
     RDKit          3D

 32 34  0  0  0  0  0  0  0  0999 V2000
    4.6757   18.3511   37.3228 C   0  0  0  0  0  0  0  0  0  0  0  0
    3.6280   18.6945   38.3853 C   0  0  0  0  0  0  0  0  0  0  0  0
    2.8769   19.8636   38.2862 C   0  0  0  0  0  0  0  0  0  0  0  0
    1.7869   20.1186   39.1248 C   0  0  0  0  0  0  0  0  0  0  0  0
    1.5244   19.2756   40.2144 C   0  0  0  0  0  0  0  0  0  0  0  0
   -0.3383   18.6184   41.8149 C   0  0  0  0  0  0  0  0  0  0  0  0
   -0.8498   16.6703   42.8727 C   0  0  0  0  0  0  0  0  0  0  0  0
   -0.6050   15.2988   43.3203 C   0  0  0  0  0  0  0  0  0  0  0  0
   -1.5848   14.5478   43.9851 C   0  0  0  0  0  0  0  0  0  0  0  0
   -1.3423   13.2335   44.3722 C   0  0  0  0  0  0  0  0  0  0  0  0
   -0.1264   12.6608   44.0497 C   0  0  0  0  0  0  0  0  0  0  0  0
    0.8684   13.3652   43.3884 C   0  0  0  0  0  0  0  0  0  0  0  0
    0.6107   14.6826   43.0195 C   0  0  0  0  0  0  0  0  0  0  0  0
   -2.0267   17.3423   43.0721 C   0  0  0  0  0  0  0  0  0  0  0  0
    2.2638   18.0891   40.3223 C   0  0  0  0  0  0  0  0  0  0  0  0
    3.2953   17.8269   39.4188 C   0  0  0  0  0  0  0  0  0  0  0  0
    0.3785   19.4854   41.0415 N   0  0  0  0  0  0  0  0  0  0  0  0
    0.1075   17.3398   42.0743 N   0  0  0  0  0  0  0  0  0  0  0  0
    4.6962   19.0855   36.2916 O   0  0  0  0  0  0  0  0  0  0  0  0
    5.3694   17.3296   37.5200 O   0  0  0  0  0  0  0  0  0  0  0  0
    3.9433   16.6156   39.4694 O   0  0  0  0  0  0  0  0  0  0  0  0
   -2.0211   18.8541   42.2462 S   0  0  0  0  0  0  0  0  0  0  0  0
    0.1745   11.0122   44.4891 Cl  0  0  0  0  0  0  0  0  0  0  0  0
    3.1496   20.6093   37.5249 H   0  0  0  0  0  0  0  0  0  0  0  0
    1.1342   20.9822   38.9292 H   0  0  0  0  0  0  0  0  0  0  0  0
   -2.5610   15.0051   44.2041 H   0  0  0  0  0  0  0  0  0  0  0  0
   -2.1031   12.6617   44.9238 H   0  0  0  0  0  0  0  0  0  0  0  0
    1.8364   12.8949   43.1610 H   0  0  0  0  0  0  0  0  0  0  0  0
    1.3824   15.2505   42.4791 H   0  0  0  0  0  0  0  0  0  0  0  0
   -2.8638   16.9666   43.6788 H   0  0  0  0  0  0  0  0  0  0  0  0
    2.0314   17.3658   41.1178 H   0  0  0  0  0  0  0  0  0  0  0  0
    0.0346   20.4562   41.0569 H   0  0  0  0  0  0  0  0  0  0  0  0
  1  2  1  0
  1 19  1  0
  1 20  2  0
  2  3  1  0
  2 16  2  0
  3  4  2  0
  4  5  1  0
  5 15  2  0
  5 17  1  0
  6 17  1  0
  6 18  2  0
  6 22  1  0
  7  8  1  0
  7 14  2  0
  7 18  1  0
  8  9  1  0
  8 13  2  0
  9 10  2  0
 10 11  1  0
 11 12  2  0
 11 23  1  0
 12 13  1  0
 14 22  1  0
 15 16  1  0
 16 21  1  0
  3 24  1  0
  4 25  1  0
  9 26  1  0
 10 27  1  0
 12 28  1  0
 13 29  1  0
 14 30  1  0
 15 31  1  0
 17 32  1  0
M  CHG  2  19  -1  21  -1
M  END
>  <mol_id>  (35) 
2026-08-23-6tgu-s0-n100-r8-0035

>  <rmsd_to_ref>  (35) 
2.0153061224554434

$$$$
6tgu.A
     RDKit          3D

 32 34  0  0  0  0  0  0  0  0999 V2000
    2.5300   21.3939   37.0532 C   0  0  0  0  0  0  0  0  0  0  0  0
    2.1177   20.6538   38.2307 C   0  0  0  0  0  0  0  0  0  0  0  0
    0.9571   19.8835   38.1923 C   0  0  0  0  0  0  0  0  0  0  0  0
    0.5156   19.1682   39.2866 C   0  0  0  0  0  0  0  0  0  0  0  0
    1.2110   19.1788   40.4953 C   0  0  0  0  0  0  0  0  0  0  0  0
    1.2398   17.3008   42.1678 C   0  0  0  0  0  0  0  0  0  0  0  0
    1.7127   15.2014   42.8829 C   0  0  0  0  0  0  0  0  0  0  0  0
    1.3043   13.7948   42.9509 C   0  0  0  0  0  0  0  0  0  0  0  0
    0.1201   13.3695   42.3670 C   0  0  0  0  0  0  0  0  0  0  0  0
   -0.3028   12.0546   42.3915 C   0  0  0  0  0  0  0  0  0  0  0  0
    0.4888   11.1314   43.0245 C   0  0  0  0  0  0  0  0  0  0  0  0
    1.6692   11.5177   43.6158 C   0  0  0  0  0  0  0  0  0  0  0  0
    2.0824   12.8519   43.5817 C   0  0  0  0  0  0  0  0  0  0  0  0
    2.8687   15.6682   43.4667 C   0  0  0  0  0  0  0  0  0  0  0  0
    2.3581   19.9375   40.5385 C   0  0  0  0  0  0  0  0  0  0  0  0
    2.7999   20.6605   39.4265 C   0  0  0  0  0  0  0  0  0  0  0  0
    0.6819   18.4484   41.5775 N   0  0  0  0  0  0  0  0  0  0  0  0
    1.0421   16.1595   42.2885 N   0  0  0  0  0  0  0  0  0  0  0  0
    1.7987   21.3298   35.8852 O   0  0  0  0  0  0  0  0  0  0  0  0
    3.5712   22.1303   37.0303 O   0  0  0  0  0  0  0  0  0  0  0  0
    3.9762   21.4221   39.5200 O   0  0  0  0  0  0  0  0  0  0  0  0
    2.9117   17.4741   43.1164 S   0  0  0  0  0  0  0  0  0  0  0  0
   -0.0602    9.4530   43.0482 Cl  0  0  0  0  0  0  0  0  0  0  0  0
    0.3830   19.8316   37.3013 H   0  0  0  0  0  0  0  0  0  0  0  0
   -0.3982   18.5771   39.2148 H   0  0  0  0  0  0  0  0  0  0  0  0
   -0.4699   14.1630   41.8794 H   0  0  0  0  0  0  0  0  0  0  0  0
   -1.2360   11.8375   41.9071 H   0  0  0  0  0  0  0  0  0  0  0  0
    2.3115   10.8052   44.1210 H   0  0  0  0  0  0  0  0  0  0  0  0
    3.0063   13.1017   44.0529 H   0  0  0  0  0  0  0  0  0  0  0  0
    3.6995   15.1433   44.0711 H   0  0  0  0  0  0  0  0  0  0  0  0
    2.9040   19.9510   41.4618 H   0  0  0  0  0  0  0  0  0  0  0  0
   -0.2282   18.7962   41.9904 H   0  0  0  0  0  0  0  0  0  0  0  0
  1  2  1  0
  1 19  1  0
  1 20  2  0
  2  3  1  0
  2 16  2  0
  3  4  2  0
  4  5  1  0
  5 15  2  0
  5 17  1  0
  6 17  1  0
  6 18  2  0
  6 22  1  0
  7  8  1  0
  7 14  2  0
  7 18  1  0
  8  9  1  0
  8 13  2  0
  9 10  2  0
 10 11  1  0
 11 12  2  0
 11 23  1  0
 12 13  1  0
 14 22  1  0
 15 16  1  0
 16 21  1  0
  3 24  1  0
  4 25  1  0
  9 26  1  0
 10 27  1  0
 12 28  1  0
 13 29  1  0
 14 30  1  0
 15 31  1  0
 17 32  1  0
M  CHG  2  19  -1  21  -1
M  END
>  <mol_id>  (36) 
2026-08-23-6tgu-s0-n100-r8-0036

>  <rmsd_to_ref>  (36) 
2.0612244897971324

$$$$
6tgu.A
     RDKit          3D

 32 34  0  0  0  0  0  0  0  0999 V2000
    4.9486   19.0372   37.6766 C   0  0  0  0  0  0  0  0  0  0  0  0
    4.0469   19.0718   38.9137 C   0  0  0  0  0  0  0  0  0  0  0  0
    3.7158   20.2845   39.5139 C   0  0  0  0  0  0  0  0  0  0  0  0
    2.7500   20.3744   40.5217 C   0  0  0  0  0  0  0  0  0  0  0  0
    2.2076   19.2093   41.0830 C   0  0  0  0  0  0  0  0  0  0  0  0
    0.2009   18.3922   42.4130 C   0  0  0  0  0  0  0  0  0  0  0  0
   -0.9334   16.4204   42.4423 C   0  0  0  0  0  0  0  0  0  0  0  0
   -1.1537   15.0107   42.1175 C   0  0  0  0  0  0  0  0  0  0  0  0
   -2.3366   14.3436   42.4663 C   0  0  0  0  0  0  0  0  0  0  0  0
   -2.5393   13.0119   42.1180 C   0  0  0  0  0  0  0  0  0  0  0  0
   -1.5673   12.3643   41.3789 C   0  0  0  0  0  0  0  0  0  0  0  0
   -0.3854   12.9876   41.0080 C   0  0  0  0  0  0  0  0  0  0  0  0
   -0.1963   14.3169   41.3757 C   0  0  0  0  0  0  0  0  0  0  0  0
   -1.8340   17.2001   43.1186 C   0  0  0  0  0  0  0  0  0  0  0  0
    2.5219   17.9813   40.4835 C   0  0  0  0  0  0  0  0  0  0  0  0
    3.4313   17.9356   39.4253 C   0  0  0  0  0  0  0  0  0  0  0  0
    1.1746   19.2844   42.0671 N   0  0  0  0  0  0  0  0  0  0  0  0
    0.2046   17.0964   41.9422 N   0  0  0  0  0  0  0  0  0  0  0  0
    5.2258   20.1539   37.1482 O   0  0  0  0  0  0  0  0  0  0  0  0
    5.2712   17.9101   37.2415 O   0  0  0  0  0  0  0  0  0  0  0  0
    3.6522   16.7431   38.7780 O   0  0  0  0  0  0  0  0  0  0  0  0
   -1.3239   18.8453   43.1500 S   0  0  0  0  0  0  0  0  0  0  0  0
   -1.8238   10.7184   40.9028 Cl  0  0  0  0  0  0  0  0  0  0  0  0
    4.2299   21.1998   39.1852 H   0  0  0  0  0  0  0  0  0  0  0  0
    2.4152   21.3609   40.8746 H   0  0  0  0  0  0  0  0  0  0  0  0
   -3.1170   14.8819   43.0242 H   0  0  0  0  0  0  0  0  0  0  0  0
   -3.4549   12.4849   42.4247 H   0  0  0  0  0  0  0  0  0  0  0  0
    0.3833   12.4454   40.4377 H   0  0  0  0  0  0  0  0  0  0  0  0
    0.7280   14.8319   41.0750 H   0  0  0  0  0  0  0  0  0  0  0  0
   -2.7595   16.8257   43.5803 H   0  0  0  0  0  0  0  0  0  0  0  0
    2.0524   17.0551   40.8465 H   0  0  0  0  0  0  0  0  0  0  0  0
    1.1624   20.1611   42.6076 H   0  0  0  0  0  0  0  0  0  0  0  0
  1  2  1  0
  1 19  1  0
  1 20  2  0
  2  3  1  0
  2 16  2  0
  3  4  2  0
  4  5  1  0
  5 15  2  0
  5 17  1  0
  6 17  1  0
  6 18  2  0
  6 22  1  0
  7  8  1  0
  7 14  2  0
  7 18  1  0
  8  9  1  0
  8 13  2  0
  9 10  2  0
 10 11  1  0
 11 12  2  0
 11 23  1  0
 12 13  1  0
 14 22  1  0
 15 16  1  0
 16 21  1  0
  3 24  1  0
  4 25  1  0
  9 26  1  0
 10 27  1  0
 12 28  1  0
 13 29  1  0
 14 30  1  0
 15 31  1  0
 17 32  1  0
M  CHG  2  19  -1  21  -1
M  END
>  <mol_id>  (37) 
2026-08-23-6tgu-s0-n100-r8-0037

>  <rmsd_to_ref>  (37) 
2.10714285715246

$$$$
6tgu.A
     RDKit          3D

 32 34  0  0  0  0  0  0  0  0999 V2000
    2.5403   22.7997   38.2824 C   0  0  0  0  0  0  0  0  0  0  0  0
    2.4300   21.4176   38.7335 C   0  0  0  0  0  0  0  0  0  0  0  0
    1.3416   20.9741   39.4474 C   0  0  0  0  0  0  0  0  0  0  0  0
    1.2522   19.6488   39.8677 C   0  0  0  0  0  0  0  0  0  0  0  0
    2.2195   18.7135   39.6069 C   0  0  0  0  0  0  0  0  0  0  0  0
    1.4400   16.7837   41.0022 C   0  0  0  0  0  0  0  0  0  0  0  0
    0.6448   15.1015   42.3158 C   0  0  0  0  0  0  0  0  0  0  0  0
    0.6372   13.6640   42.7012 C   0  0  0  0  0  0  0  0  0  0  0  0
   -0.1844   13.2401   43.7147 C   0  0  0  0  0  0  0  0  0  0  0  0
   -0.1704   11.8924   44.0549 C   0  0  0  0  0  0  0  0  0  0  0  0
    0.6262   10.9725   43.4232 C   0  0  0  0  0  0  0  0  0  0  0  0
    1.4403   11.4230   42.4107 C   0  0  0  0  0  0  0  0  0  0  0  0
    1.4410   12.7442   42.0614 C   0  0  0  0  0  0  0  0  0  0  0  0
   -0.1694   16.0082   42.9750 C   0  0  0  0  0  0  0  0  0  0  0  0
    3.3249   19.1726   38.8794 C   0  0  0  0  0  0  0  0  0  0  0  0
    3.4164   20.4778   38.4633 C   0  0  0  0  0  0  0  0  0  0  0  0
    2.2244   17.3781   40.0002 N   0  0  0  0  0  0  0  0  0  0  0  0
    1.3915   15.5724   41.3714 N   0  0  0  0  0  0  0  0  0  0  0  0
    3.6795   23.1591   37.5603 O   0  0  0  0  0  0  0  0  0  0  0  0
    1.6435   23.6516   38.5295 O   0  0  0  0  0  0  0  0  0  0  0  0
    4.5121   20.9420   37.7397 O   0  0  0  0  0  0  0  0  0  0  0  0
    0.2650   17.6010   42.0816 S   0  0  0  0  0  0  0  0  0  0  0  0
    0.5838    9.2933   43.9113 Cl  0  0  0  0  0  0  0  0  0  0  0  0
    0.5650   21.6761   39.6708 H   0  0  0  0  0  0  0  0  0  0  0  0
    0.3773   19.3833   40.4067 H   0  0  0  0  0  0  0  0  0  0  0  0
   -0.8336   13.9060   44.2512 H   0  0  0  0  0  0  0  0  0  0  0  0
   -0.8258   11.5833   44.8560 H   0  0  0  0  0  0  0  0  0  0  0  0
    2.0893   10.7241   41.8812 H   0  0  0  0  0  0  0  0  0  0  0  0
    2.0925   13.1034   41.2535 H   0  0  0  0  0  0  0  0  0  0  0  0
   -0.8622   15.9716   43.7467 H   0  0  0  0  0  0  0  0  0  0  0  0
    4.1376   18.5111   38.6243 H   0  0  0  0  0  0  0  0  0  0  0  0
    2.8917   16.7197   39.4894 H   0  0  0  0  0  0  0  0  0  0  0  0
  1  2  1  0
  1 19  1  0
  1 20  2  0
  2  3  1  0
  2 16  2  0
  3  4  2  0
  4  5  1  0
  5 15  2  0
  5 17  1  0
  6 17  1  0
  6 18  2  0
  6 22  1  0
  7  8  1  0
  7 14  2  0
  7 18  1  0
  8  9  1  0
  8 13  2  0
  9 10  2  0
 10 11  1  0
 11 12  2  0
 11 23  1  0
 12 13  1  0
 14 22  1  0
 15 16  1  0
 16 21  1  0
  3 24  1  0
  4 25  1  0
  9 26  1  0
 10 27  1  0
 12 28  1  0
 13 29  1  0
 14 30  1  0
 15 31  1  0
 17 32  1  0
M  CHG  2  19  -1  21  -1
M  END
>  <mol_id>  (38) 
2026-08-23-6tgu-s0-n100-r8-0038

>  <rmsd_to_ref>  (38) 
2.153061224490016

$$$$
6tgu.A
     RDKit          3D

 32 34  0  0  0  0  0  0  0  0999 V2000
    1.5297   19.1561   35.8807 C   0  0  0  0  0  0  0  0  0  0  0  0
    1.8363   19.2495   37.3780 C   0  0  0  0  0  0  0  0  0  0  0  0
    2.1525   20.4750   37.9601 C   0  0  0  0  0  0  0  0  0  0  0  0
    2.2516   20.6344   39.3462 C   0  0  0  0  0  0  0  0  0  0  0  0
    2.2065   19.5143   40.1888 C   0  0  0  0  0  0  0  0  0  0  0  0
    1.7701   18.8631   42.6073 C   0  0  0  0  0  0  0  0  0  0  0  0
    0.8709   17.0077   43.5689 C   0  0  0  0  0  0  0  0  0  0  0  0
    0.3709   15.6327   43.5888 C   0  0  0  0  0  0  0  0  0  0  0  0
   -0.2214   15.0736   44.7301 C   0  0  0  0  0  0  0  0  0  0  0  0
   -0.7207   13.7749   44.7169 C   0  0  0  0  0  0  0  0  0  0  0  0
   -0.6627   13.0541   43.5390 C   0  0  0  0  0  0  0  0  0  0  0  0
   -0.0908   13.5701   42.3859 C   0  0  0  0  0  0  0  0  0  0  0  0
    0.4134   14.8672   42.4224 C   0  0  0  0  0  0  0  0  0  0  0  0
    0.8254   17.8547   44.6445 C   0  0  0  0  0  0  0  0  0  0  0  0
    1.8784   18.2752   39.6204 C   0  0  0  0  0  0  0  0  0  0  0  0
    1.7077   18.1662   38.2390 C   0  0  0  0  0  0  0  0  0  0  0  0
    2.2419   19.6660   41.6090 N   0  0  0  0  0  0  0  0  0  0  0  0
    1.3224   17.5832   42.3577 N   0  0  0  0  0  0  0  0  0  0  0  0
    1.4169   20.2526   35.2577 O   0  0  0  0  0  0  0  0  0  0  0  0
    1.3362   18.0131   35.4119 O   0  0  0  0  0  0  0  0  0  0  0  0
    1.2845   16.9723   37.7049 O   0  0  0  0  0  0  0  0  0  0  0  0
    1.3233   19.4429   44.2002 S   0  0  0  0  0  0  0  0  0  0  0  0
   -1.3173   11.4505   43.4962 Cl  0  0  0  0  0  0  0  0  0  0  0  0
    2.3296   21.3441   37.3096 H   0  0  0  0  0  0  0  0  0  0  0  0
    2.3652   21.6405   39.7762 H   0  0  0  0  0  0  0  0  0  0  0  0
   -0.2926   15.6713   45.6507 H   0  0  0  0  0  0  0  0  0  0  0  0
   -1.1529   13.3308   45.6257 H   0  0  0  0  0  0  0  0  0  0  0  0
   -0.0370   12.9698   41.4657 H   0  0  0  0  0  0  0  0  0  0  0  0
    0.8550   15.2984   41.5119 H   0  0  0  0  0  0  0  0  0  0  0  0
    0.5126   17.5600   45.6571 H   0  0  0  0  0  0  0  0  0  0  0  0
    1.7556   17.3902   40.2620 H   0  0  0  0  0  0  0  0  0  0  0  0
    2.7016   20.5280   41.9353 H   0  0  0  0  0  0  0  0  0  0  0  0
  1  2  1  0
  1 19  1  0
  1 20  2  0
  2  3  1  0
  2 16  2  0
  3  4  2  0
  4  5  1  0
  5 15  2  0
  5 17  1  0
  6 17  1  0
  6 18  2  0
  6 22  1  0
  7  8  1  0
  7 14  2  0
  7 18  1  0
  8  9  1  0
  8 13  2  0
  9 10  2  0
 10 11  1  0
 11 12  2  0
 11 23  1  0
 12 13  1  0
 14 22  1  0
 15 16  1  0
 16 21  1  0
  3 24  1  0
  4 25  1  0
  9 26  1  0
 10 27  1  0
 12 28  1  0
 13 29  1  0
 14 30  1  0
 15 31  1  0
 17 32  1  0
M  CHG  2  19  -1  21  -1
M  END
>  <mol_id>  (39) 
2026-08-23-6tgu-s0-n100-r8-0039

>  <rmsd_to_ref>  (39) 
2.1989795918408523

$$$$
6tgu.A
     RDKit          3D

 32 34  0  0  0  0  0  0  0  0999 V2000
    1.8209   19.7112   36.1071 C   0  0  0  0  0  0  0  0  0  0  0  0
    1.5572   19.5718   37.5347 C   0  0  0  0  0  0  0  0  0  0  0  0
    1.3476   20.6498   38.3537 C   0  0  0  0  0  0  0  0  0  0  0  0
    1.1031   20.4454   39.6978 C   0  0  0  0  0  0  0  0  0  0  0  0
    1.0636   19.1813   40.2420 C   0  0  0  0  0  0  0  0  0  0  0  0
    0.7568   17.7180   42.2496 C   0  0  0  0  0  0  0  0  0  0  0  0
    1.1175   15.7401   43.3099 C   0  0  0  0  0  0  0  0  0  0  0  0
    2.0284   14.8103   43.9677 C   0  0  0  0  0  0  0  0  0  0  0  0
    3.3667   15.1027   44.1100 C   0  0  0  0  0  0  0  0  0  0  0  0
    4.2703   14.2599   44.7229 C   0  0  0  0  0  0  0  0  0  0  0  0
    3.8213   13.0564   45.2243 C   0  0  0  0  0  0  0  0  0  0  0  0
    2.4814   12.7567   45.0853 C   0  0  0  0  0  0  0  0  0  0  0  0
    1.5839   13.6186   44.4642 C   0  0  0  0  0  0  0  0  0  0  0  0
   -0.2912   15.4450   43.1538 C   0  0  0  0  0  0  0  0  0  0  0  0
    1.2720   18.0936   39.4316 C   0  0  0  0  0  0  0  0  0  0  0  0
    1.5193   18.2911   38.0748 C   0  0  0  0  0  0  0  0  0  0  0  0
    0.8100   18.9850   41.6314 N   0  0  0  0  0  0  0  0  0  0  0  0
    1.4218   16.8899   42.8040 N   0  0  0  0  0  0  0  0  0  0  0  0
    1.8620   20.9924   35.5497 O   0  0  0  0  0  0  0  0  0  0  0  0
    2.0033   18.6897   35.4161 O   0  0  0  0  0  0  0  0  0  0  0  0
    1.7238   17.1575   37.2974 O   0  0  0  0  0  0  0  0  0  0  0  0
   -0.9623   16.8353   42.3187 S   0  0  0  0  0  0  0  0  0  0  0  0
    4.8732   11.9055   46.0221 Cl  0  0  0  0  0  0  0  0  0  0  0  0
    1.3771   21.6486   37.9332 H   0  0  0  0  0  0  0  0  0  0  0  0
    0.9432   21.3057   40.3126 H   0  0  0  0  0  0  0  0  0  0  0  0
    3.7413   16.0522   43.7188 H   0  0  0  0  0  0  0  0  0  0  0  0
    5.3174   14.5098   44.8238 H   0  0  0  0  0  0  0  0  0  0  0  0
    2.1279   11.8127   45.4783 H   0  0  0  0  0  0  0  0  0  0  0  0
    0.5721   13.2946   44.4077 H   0  0  0  0  0  0  0  0  0  0  0  0
   -0.7926   14.5071   43.5120 H   0  0  0  0  0  0  0  0  0  0  0  0
    1.2400   17.0956   39.8655 H   0  0  0  0  0  0  0  0  0  0  0  0
    0.6512   19.8398   42.2408 H   0  0  0  0  0  0  0  0  0  0  0  0
  1  2  1  0
  1 19  1  0
  1 20  2  0
  2  3  1  0
  2 16  2  0
  3  4  2  0
  4  5  1  0
  5 15  2  0
  5 17  1  0
  6 17  1  0
  6 18  2  0
  6 22  1  0
  7  8  1  0
  7 14  2  0
  7 18  1  0
  8  9  1  0
  8 13  2  0
  9 10  2  0
 10 11  1  0
 11 12  2  0
 11 23  1  0
 12 13  1  0
 14 22  1  0
 15 16  1  0
 16 21  1  0
  3 24  1  0
  4 25  1  0
  9 26  1  0
 10 27  1  0
 12 28  1  0
 13 29  1  0
 14 30  1  0
 15 31  1  0
 17 32  1  0
M  CHG  2  19  -1  21  -1
M  END
>  <mol_id>  (40) 
2026-08-23-6tgu-s0-n100-r8-0040

>  <rmsd_to_ref>  (40) 
2.2448979591844647

$$$$
6tgu.A
     RDKit          3D

 32 34  0  0  0  0  0  0  0  0999 V2000
    0.8859   20.9881   37.5280 C   0  0  0  0  0  0  0  0  0  0  0  0
    0.3260   20.2045   38.7184 C   0  0  0  0  0  0  0  0  0  0  0  0
   -0.9941   20.3841   39.1255 C   0  0  0  0  0  0  0  0  0  0  0  0
   -1.5957   19.5563   40.0791 C   0  0  0  0  0  0  0  0  0  0  0  0
   -0.8256   18.6220   40.7866 C   0  0  0  0  0  0  0  0  0  0  0  0
   -1.0497   16.4933   42.1584 C   0  0  0  0  0  0  0  0  0  0  0  0
    0.3046   14.6869   42.4387 C   0  0  0  0  0  0  0  0  0  0  0  0
    1.5512   13.9306   42.3155 C   0  0  0  0  0  0  0  0  0  0  0  0
    1.6516   12.5920   42.7207 C   0  0  0  0  0  0  0  0  0  0  0  0
    2.8373   11.8812   42.5635 C   0  0  0  0  0  0  0  0  0  0  0  0
    3.9101   12.5069   41.9568 C   0  0  0  0  0  0  0  0  0  0  0  0
    3.8525   13.8270   41.5361 C   0  0  0  0  0  0  0  0  0  0  0  0
    2.6609   14.5248   41.7124 C   0  0  0  0  0  0  0  0  0  0  0  0
   -0.8518   14.1764   42.9663 C   0  0  0  0  0  0  0  0  0  0  0  0
    0.5018   18.4210   40.3819 C   0  0  0  0  0  0  0  0  0  0  0  0
    1.0488   19.2125   39.3703 C   0  0  0  0  0  0  0  0  0  0  0  0
   -1.4362   17.7259   41.7168 N   0  0  0  0  0  0  0  0  0  0  0  0
    0.2009   15.9833   41.8812 N   0  0  0  0  0  0  0  0  0  0  0  0
    0.0527   21.6602   36.8518 O   0  0  0  0  0  0  0  0  0  0  0  0
    2.1006   20.8383   37.2715 O   0  0  0  0  0  0  0  0  0  0  0  0
    2.3147   18.9377   38.9103 O   0  0  0  0  0  0  0  0  0  0  0  0
   -2.1583   15.2828   42.7741 S   0  0  0  0  0  0  0  0  0  0  0  0
    5.3800   11.6217   41.7172 Cl  0  0  0  0  0  0  0  0  0  0  0  0
   -1.5816   21.2023   38.6834 H   0  0  0  0  0  0  0  0  0  0  0  0
   -2.6751   19.6384   40.2744 H   0  0  0  0  0  0  0  0  0  0  0  0
    0.7787   12.0958   43.1700 H   0  0  0  0  0  0  0  0  0  0  0  0
    2.9194   10.8421   42.9150 H   0  0  0  0  0  0  0  0  0  0  0  0
    4.7262   14.3105   41.0747 H   0  0  0  0  0  0  0  0  0  0  0  0
    2.5923   15.5675   41.3689 H   0  0  0  0  0  0  0  0  0  0  0  0
   -0.9352   13.1913   43.4486 H   0  0  0  0  0  0  0  0  0  0  0  0
    1.1114   17.6407   40.8610 H   0  0  0  0  0  0  0  0  0  0  0  0
   -2.3184   18.0682   42.1236 H   0  0  0  0  0  0  0  0  0  0  0  0
  1  2  1  0
  1 19  1  0
  1 20  2  0
  2  3  1  0
  2 16  2  0
  3  4  2  0
  4  5  1  0
  5 15  2  0
  5 17  1  0
  6 17  1  0
  6 18  2  0
  6 22  1  0
  7  8  1  0
  7 14  2  0
  7 18  1  0
  8  9  1  0
  8 13  2  0
  9 10  2  0
 10 11  1  0
 11 12  2  0
 11 23  1  0
 12 13  1  0
 14 22  1  0
 15 16  1  0
 16 21  1  0
  3 24  1  0
  4 25  1  0
  9 26  1  0
 10 27  1  0
 12 28  1  0
 13 29  1  0
 14 30  1  0
 15 31  1  0
 17 32  1  0
M  CHG  2  19  -1  21  -1
M  END
>  <mol_id>  (41) 
2026-08-23-6tgu-s0-n100-r8-0041

>  <rmsd_to_ref>  (41) 
2.2908163265324117

$$$$
6tgu.A
     RDKit          3D

 32 34  0  0  0  0  0  0  0  0999 V2000
    3.6965   21.7938   39.6557 C   0  0  0  0  0  0  0  0  0  0  0  0
    2.6506   20.9824   40.2666 C   0  0  0  0  0  0  0  0  0  0  0  0
    1.4315   21.5291   40.5813 C   0  0  0  0  0  0  0  0  0  0  0  0
    0.4773   20.7382   41.1527 C   0  0  0  0  0  0  0  0  0  0  0  0
    0.7554   19.3966   41.4058 C   0  0  0  0  0  0  0  0  0  0  0  0
    0.0794   17.1371   42.2179 C   0  0  0  0  0  0  0  0  0  0  0  0
    0.3357   14.9149   42.1272 C   0  0  0  0  0  0  0  0  0  0  0  0
    0.1130   13.6711   41.3578 C   0  0  0  0  0  0  0  0  0  0  0  0
   -0.5111   13.6618   40.1305 C   0  0  0  0  0  0  0  0  0  0  0  0
   -0.7116   12.4922   39.4158 C   0  0  0  0  0  0  0  0  0  0  0  0
   -0.2820   11.2815   39.9262 C   0  0  0  0  0  0  0  0  0  0  0  0
    0.3452   11.2732   41.1549 C   0  0  0  0  0  0  0  0  0  0  0  0
    0.5333   12.4507   41.8475 C   0  0  0  0  0  0  0  0  0  0  0  0
    0.9466   14.9178   43.3392 C   0  0  0  0  0  0  0  0  0  0  0  0
    2.0029   18.8506   41.0800 C   0  0  0  0  0  0  0  0  0  0  0  0
    2.9566   19.6551   40.5051 C   0  0  0  0  0  0  0  0  0  0  0  0
   -0.2100   18.5369   42.0060 N   0  0  0  0  0  0  0  0  0  0  0  0
   -0.0214   16.1178   41.7435 N   0  0  0  0  0  0  0  0  0  0  0  0
    3.4716   23.1409   39.3810 O   0  0  0  0  0  0  0  0  0  0  0  0
    4.8124   21.2484   39.3806 O   0  0  0  0  0  0  0  0  0  0  0  0
    4.1848   19.0905   40.1917 O   0  0  0  0  0  0  0  0  0  0  0  0
    0.9645   16.6776   43.8496 S   0  0  0  0  0  0  0  0  0  0  0  0
   -0.5468    9.8286   39.0063 Cl  0  0  0  0  0  0  0  0  0  0  0  0
    1.2268   22.5694   40.3813 H   0  0  0  0  0  0  0  0  0  0  0  0
   -0.4981   21.1428   41.4130 H   0  0  0  0  0  0  0  0  0  0  0  0
   -0.8533   14.5912   39.7147 H   0  0  0  0  0  0  0  0  0  0  0  0
   -1.2190   12.5689   38.4420 H   0  0  0  0  0  0  0  0  0  0  0  0
    0.6978   10.3406   41.5906 H   0  0  0  0  0  0  0  0  0  0  0  0
    1.0303   12.4187   42.8140 H   0  0  0  0  0  0  0  0  0  0  0  0
    1.3673   14.1288   43.9606 H   0  0  0  0  0  0  0  0  0  0  0  0
    2.2166   17.8033   41.2790 H   0  0  0  0  0  0  0  0  0  0  0  0
   -1.1312   18.9507   42.2864 H   0  0  0  0  0  0  0  0  0  0  0  0
  1  2  1  0
  1 19  1  0
  1 20  2  0
  2  3  1  0
  2 16  2  0
  3  4  2  0
  4  5  1  0
  5 15  2  0
  5 17  1  0
  6 17  1  0
  6 18  2  0
  6 22  1  0
  7  8  1  0
  7 14  2  0
  7 18  1  0
  8  9  1  0
  8 13  2  0
  9 10  2  0
 10 11  1  0
 11 12  2  0
 11 23  1  0
 12 13  1  0
 14 22  1  0
 15 16  1  0
 16 21  1  0
  3 24  1  0
  4 25  1  0
  9 26  1  0
 10 27  1  0
 12 28  1  0
 13 29  1  0
 14 30  1  0
 15 31  1  0
 17 32  1  0
M  CHG  2  19  -1  21  -1
M  END
>  <mol_id>  (42) 
2026-08-23-6tgu-s0-n100-r8-0042

>  <rmsd_to_ref>  (42) 
2.3367346938778915

$$$$
6tgu.A
     RDKit          3D

 32 34  0  0  0  0  0  0  0  0999 V2000
    3.4970   21.1105   39.8781 C   0  0  0  0  0  0  0  0  0  0  0  0
    2.3927   20.2853   40.5446 C   0  0  0  0  0  0  0  0  0  0  0  0
    1.1979   20.8864   40.9341 C   0  0  0  0  0  0  0  0  0  0  0  0
    0.0985   20.1390   41.3689 C   0  0  0  0  0  0  0  0  0  0  0  0
    0.2283   18.7607   41.5928 C   0  0  0  0  0  0  0  0  0  0  0  0
   -1.1615   16.6429   41.8093 C   0  0  0  0  0  0  0  0  0  0  0  0
   -0.7571   14.4689   41.2744 C   0  0  0  0  0  0  0  0  0  0  0  0
    0.0718   13.3346   40.8656 C   0  0  0  0  0  0  0  0  0  0  0  0
   -0.4748   12.0696   40.6068 C   0  0  0  0  0  0  0  0  0  0  0  0
    0.3272   11.0131   40.1865 C   0  0  0  0  0  0  0  0  0  0  0  0
    1.6750   11.2434   39.9841 C   0  0  0  0  0  0  0  0  0  0  0  0
    2.2559   12.4799   40.2222 C   0  0  0  0  0  0  0  0  0  0  0  0
    1.4387   13.5212   40.6533 C   0  0  0  0  0  0  0  0  0  0  0  0
   -2.1130   14.4001   41.4569 C   0  0  0  0  0  0  0  0  0  0  0  0
    1.4205   18.1383   41.1959 C   0  0  0  0  0  0  0  0  0  0  0  0
    2.4717   18.9055   40.6906 C   0  0  0  0  0  0  0  0  0  0  0  0
   -0.9005   17.9727   41.9749 N   0  0  0  0  0  0  0  0  0  0  0  0
   -0.1922   15.7621   41.3787 N   0  0  0  0  0  0  0  0  0  0  0  0
    3.1991   22.2986   39.5575 O   0  0  0  0  0  0  0  0  0  0  0  0
    4.5731   20.5232   39.6314 O   0  0  0  0  0  0  0  0  0  0  0  0
    3.5941   18.2753   40.2081 O   0  0  0  0  0  0  0  0  0  0  0  0
   -2.7763   15.9634   41.7468 S   0  0  0  0  0  0  0  0  0  0  0  0
    2.6787    9.9481   39.4216 Cl  0  0  0  0  0  0  0  0  0  0  0  0
    1.1165   21.9829   40.8985 H   0  0  0  0  0  0  0  0  0  0  0  0
   -0.8700   20.6333   41.5355 H   0  0  0  0  0  0  0  0  0  0  0  0
   -1.5552   11.9097   40.7383 H   0  0  0  0  0  0  0  0  0  0  0  0
   -0.1027   10.0146   40.0186 H   0  0  0  0  0  0  0  0  0  0  0  0
    3.3349   12.6339   40.0743 H   0  0  0  0  0  0  0  0  0  0  0  0
    1.8799   14.5131   40.8305 H   0  0  0  0  0  0  0  0  0  0  0  0
   -2.7000   13.4705   41.4229 H   0  0  0  0  0  0  0  0  0  0  0  0
    1.5273   17.0469   41.2826 H   0  0  0  0  0  0  0  0  0  0  0  0
   -1.6441   18.4971   42.4575 H   0  0  0  0  0  0  0  0  0  0  0  0
  1  2  1  0
  1 19  1  0
  1 20  2  0
  2  3  1  0
  2 16  2  0
  3  4  2  0
  4  5  1  0
  5 15  2  0
  5 17  1  0
  6 17  1  0
  6 18  2  0
  6 22  1  0
  7  8  1  0
  7 14  2  0
  7 18  1  0
  8  9  1  0
  8 13  2  0
  9 10  2  0
 10 11  1  0
 11 12  2  0
 11 23  1  0
 12 13  1  0
 14 22  1  0
 15 16  1  0
 16 21  1  0
  3 24  1  0
  4 25  1  0
  9 26  1  0
 10 27  1  0
 12 28  1  0
 13 29  1  0
 14 30  1  0
 15 31  1  0
 17 32  1  0
M  CHG  2  19  -1  21  -1
M  END
>  <mol_id>  (43) 
2026-08-23-6tgu-s0-n100-r8-0043

>  <rmsd_to_ref>  (43) 
2.3826530612324737

$$$$
6tgu.A
     RDKit          3D

 32 34  0  0  0  0  0  0  0  0999 V2000
    4.7449   17.8221   36.7206 C   0  0  0  0  0  0  0  0  0  0  0  0
    3.6779   18.1530   37.6761 C   0  0  0  0  0  0  0  0  0  0  0  0
    3.2461   19.4598   37.8145 C   0  0  0  0  0  0  0  0  0  0  0  0
    2.2262   19.7179   38.7266 C   0  0  0  0  0  0  0  0  0  0  0  0
    1.6638   18.6723   39.4786 C   0  0  0  0  0  0  0  0  0  0  0  0
    0.4360   17.8538   41.4184 C   0  0  0  0  0  0  0  0  0  0  0  0
    0.0689   16.2326   42.9366 C   0  0  0  0  0  0  0  0  0  0  0  0
   -0.4521   14.8941   43.2071 C   0  0  0  0  0  0  0  0  0  0  0  0
   -0.3896   14.3805   44.4660 C   0  0  0  0  0  0  0  0  0  0  0  0
   -0.8616   13.0997   44.7494 C   0  0  0  0  0  0  0  0  0  0  0  0
   -1.4102   12.2932   43.7855 C   0  0  0  0  0  0  0  0  0  0  0  0
   -1.4802   12.8022   42.4997 C   0  0  0  0  0  0  0  0  0  0  0  0
   -1.0034   14.0943   42.2140 C   0  0  0  0  0  0  0  0  0  0  0  0
    0.6743   17.0418   43.9126 C   0  0  0  0  0  0  0  0  0  0  0  0
    2.1557   17.3714   39.2830 C   0  0  0  0  0  0  0  0  0  0  0  0
    3.1535   17.0981   38.3927 C   0  0  0  0  0  0  0  0  0  0  0  0
    0.6288   18.8528   40.3985 N   0  0  0  0  0  0  0  0  0  0  0  0
    0.0511   16.8256   41.7604 N   0  0  0  0  0  0  0  0  0  0  0  0
    5.3154   18.8868   35.9898 O   0  0  0  0  0  0  0  0  0  0  0  0
    5.1199   16.6315   36.5784 O   0  0  0  0  0  0  0  0  0  0  0  0
    3.5904   15.7812   38.2476 O   0  0  0  0  0  0  0  0  0  0  0  0
    1.1357   18.4825   43.1071 S   0  0  0  0  0  0  0  0  0  0  0  0
   -1.9927   10.6951   44.2016 Cl  0  0  0  0  0  0  0  0  0  0  0  0
    3.6935   20.2719   37.2241 H   0  0  0  0  0  0  0  0  0  0  0  0
    1.8594   20.7242   38.8636 H   0  0  0  0  0  0  0  0  0  0  0  0
    0.0204   14.9097   45.3280 H   0  0  0  0  0  0  0  0  0  0  0  0
   -0.8078   12.7042   45.7565 H   0  0  0  0  0  0  0  0  0  0  0  0
   -1.9127   12.1728   41.7490 H   0  0  0  0  0  0  0  0  0  0  0  0
   -1.0753   14.4565   41.1993 H   0  0  0  0  0  0  0  0  0  0  0  0
    0.8078   16.7425   45.0232 H   0  0  0  0  0  0  0  0  0  0  0  0
    1.7457   16.5507   39.8420 H   0  0  0  0  0  0  0  0  0  0  0  0
   -0.0059   19.6963   40.3649 H   0  0  0  0  0  0  0  0  0  0  0  0
  1  2  1  0
  1 19  1  0
  1 20  2  0
  2  3  1  0
  2 16  2  0
  3  4  2  0
  4  5  1  0
  5 15  2  0
  5 17  1  0
  6 17  1  0
  6 18  2  0
  6 22  1  0
  7  8  1  0
  7 14  2  0
  7 18  1  0
  8  9  1  0
  8 13  2  0
  9 10  2  0
 10 11  1  0
 11 12  2  0
 11 23  1  0
 12 13  1  0
 14 22  1  0
 15 16  1  0
 16 21  1  0
  3 24  1  0
  4 25  1  0
  9 26  1  0
 10 27  1  0
 12 28  1  0
 13 29  1  0
 14 30  1  0
 15 31  1  0
 17 32  1  0
M  CHG  2  19  -1  21  -1
M  END
>  <mol_id>  (44) 
2026-08-23-6tgu-s0-n100-r8-0044

>  <rmsd_to_ref>  (44) 
2.428571428577351

$$$$
6tgu.A
     RDKit          3D

 32 34  0  0  0  0  0  0  0  0999 V2000
    2.5384   22.0038   39.3026 C   0  0  0  0  0  0  0  0  0  0  0  0
    1.5878   21.0184   39.9882 C   0  0  0  0  0  0  0  0  0  0  0  0
    0.2782   21.3893   40.2852 C   0  0  0  0  0  0  0  0  0  0  0  0
   -0.6710   20.4653   40.7341 C   0  0  0  0  0  0  0  0  0  0  0  0
   -0.2805   19.1602   41.0675 C   0  0  0  0  0  0  0  0  0  0  0  0
   -1.2288   16.8239   41.3926 C   0  0  0  0  0  0  0  0  0  0  0  0
   -0.3711   14.7463   41.0410 C   0  0  0  0  0  0  0  0  0  0  0  0
    0.6879   13.7789   40.7516 C   0  0  0  0  0  0  0  0  0  0  0  0
    0.4191   12.4148   40.5699 C   0  0  0  0  0  0  0  0  0  0  0  0
    1.4368   11.5173   40.2620 C   0  0  0  0  0  0  0  0  0  0  0  0
    2.7201   12.0021   40.0936 C   0  0  0  0  0  0  0  0  0  0  0  0
    3.0292   13.3439   40.2583 C   0  0  0  0  0  0  0  0  0  0  0  0
    1.9991   14.2244   40.5774 C   0  0  0  0  0  0  0  0  0  0  0  0
   -1.6936   14.4162   41.1770 C   0  0  0  0  0  0  0  0  0  0  0  0
    1.0310   18.7675   40.7645 C   0  0  0  0  0  0  0  0  0  0  0  0
    1.9329   19.6963   40.2421 C   0  0  0  0  0  0  0  0  0  0  0  0
   -1.2477   18.1870   41.4658 N   0  0  0  0  0  0  0  0  0  0  0  0
   -0.0820   16.1312   41.0674 N   0  0  0  0  0  0  0  0  0  0  0  0
    2.0264   23.0824   38.8812 O   0  0  0  0  0  0  0  0  0  0  0  0
    3.7215   21.6318   39.1423 O   0  0  0  0  0  0  0  0  0  0  0  0
    3.1822   19.2760   39.8517 O   0  0  0  0  0  0  0  0  0  0  0  0
   -2.6700   15.8282   41.3214 S   0  0  0  0  0  0  0  0  0  0  0  0
    3.9903   10.9027   39.6699 Cl  0  0  0  0  0  0  0  0  0  0  0  0
   -0.0185   22.4415   40.1630 H   0  0  0  0  0  0  0  0  0  0  0  0
   -1.7260   20.7628   40.8258 H   0  0  0  0  0  0  0  0  0  0  0  0
   -0.6130   12.0483   40.6723 H   0  0  0  0  0  0  0  0  0  0  0  0
    1.2242   10.4434   40.1548 H   0  0  0  0  0  0  0  0  0  0  0  0
    4.0620   13.7034   40.1398 H   0  0  0  0  0  0  0  0  0  0  0  0
    2.2235   15.2948   40.6948 H   0  0  0  0  0  0  0  0  0  0  0  0
   -2.0806   13.3866   41.1920 H   0  0  0  0  0  0  0  0  0  0  0  0
    1.3489   17.7288   40.9383 H   0  0  0  0  0  0  0  0  0  0  0  0
   -2.1052   18.5809   41.8786 H   0  0  0  0  0  0  0  0  0  0  0  0
  1  2  1  0
  1 19  1  0
  1 20  2  0
  2  3  1  0
  2 16  2  0
  3  4  2  0
  4  5  1  0
  5 15  2  0
  5 17  1  0
  6 17  1  0
  6 18  2  0
  6 22  1  0
  7  8  1  0
  7 14  2  0
  7 18  1  0
  8  9  1  0
  8 13  2  0
  9 10  2  0
 10 11  1  0
 11 12  2  0
 11 23  1  0
 12 13  1  0
 14 22  1  0
 15 16  1  0
 16 21  1  0
  3 24  1  0
  4 25  1  0
  9 26  1  0
 10 27  1  0
 12 28  1  0
 13 29  1  0
 14 30  1  0
 15 31  1  0
 17 32  1  0
M  CHG  2  19  -1  21  -1
M  END
>  <mol_id>  (45) 
2026-08-23-6tgu-s0-n100-r8-0045

>  <rmsd_to_ref>  (45) 
2.474489795923572

$$$$
6tgu.A
     RDKit          3D

 32 34  0  0  0  0  0  0  0  0999 V2000
    1.2905   22.7269   37.5514 C   0  0  0  0  0  0  0  0  0  0  0  0
    1.4249   21.3447   38.0236 C   0  0  0  0  0  0  0  0  0  0  0  0
    0.6833   20.9296   39.1240 C   0  0  0  0  0  0  0  0  0  0  0  0
    0.8055   19.6141   39.5851 C   0  0  0  0  0  0  0  0  0  0  0  0
    1.6389   18.6994   38.9901 C   0  0  0  0  0  0  0  0  0  0  0  0
    1.6540   16.9791   40.7400 C   0  0  0  0  0  0  0  0  0  0  0  0
    1.5557   15.5213   42.5432 C   0  0  0  0  0  0  0  0  0  0  0  0
    1.6234   14.1691   43.1707 C   0  0  0  0  0  0  0  0  0  0  0  0
    1.8709   13.0587   42.3974 C   0  0  0  0  0  0  0  0  0  0  0  0
    1.9539   11.7761   42.9039 C   0  0  0  0  0  0  0  0  0  0  0  0
    1.7745   11.6358   44.2639 C   0  0  0  0  0  0  0  0  0  0  0  0
    1.5238   12.7543   45.0503 C   0  0  0  0  0  0  0  0  0  0  0  0
    1.4474   14.0116   44.5146 C   0  0  0  0  0  0  0  0  0  0  0  0
    1.3005   16.6329   43.3859 C   0  0  0  0  0  0  0  0  0  0  0  0
    2.3703   19.1278   37.8959 C   0  0  0  0  0  0  0  0  0  0  0  0
    2.2726   20.4329   37.4092 C   0  0  0  0  0  0  0  0  0  0  0  0
    1.8304   17.3698   39.4163 N   0  0  0  0  0  0  0  0  0  0  0  0
    1.7179   15.7137   41.3013 N   0  0  0  0  0  0  0  0  0  0  0  0
    2.0340   23.1350   36.4658 O   0  0  0  0  0  0  0  0  0  0  0  0
    0.5206   23.5241   38.1164 O   0  0  0  0  0  0  0  0  0  0  0  0
    3.0267   20.8246   36.3034 O   0  0  0  0  0  0  0  0  0  0  0  0
    1.3190   18.0233   42.1703 S   0  0  0  0  0  0  0  0  0  0  0  0
    1.8506   10.0684   45.0652 Cl  0  0  0  0  0  0  0  0  0  0  0  0
    0.0097   21.6122   39.6334 H   0  0  0  0  0  0  0  0  0  0  0  0
    0.2049   19.3581   40.4225 H   0  0  0  0  0  0  0  0  0  0  0  0
    2.0064   13.1991   41.3464 H   0  0  0  0  0  0  0  0  0  0  0  0
    2.1491   10.9095   42.2880 H   0  0  0  0  0  0  0  0  0  0  0  0
    1.3801   12.6612   46.1144 H   0  0  0  0  0  0  0  0  0  0  0  0
    1.2482   14.8490   45.1805 H   0  0  0  0  0  0  0  0  0  0  0  0
    1.1286   16.7377   44.4609 H   0  0  0  0  0  0  0  0  0  0  0  0
    3.0622   18.4585   37.3615 H   0  0  0  0  0  0  0  0  0  0  0  0
    2.1156   16.6415   38.7235 H   0  0  0  0  0  0  0  0  0  0  0  0
  1  2  1  0
  1 19  1  0
  1 20  2  0
  2  3  1  0
  2 16  2  0
  3  4  2  0
  4  5  1  0
  5 15  2  0
  5 17  1  0
  6 17  1  0
  6 18  2  0
  6 22  1  0
  7  8  1  0
  7 14  2  0
  7 18  1  0
  8  9  1  0
  8 13  2  0
  9 10  2  0
 10 11  1  0
 11 12  2  0
 11 23  1  0
 12 13  1  0
 14 22  1  0
 15 16  1  0
 16 21  1  0
  3 24  1  0
  4 25  1  0
  9 26  1  0
 10 27  1  0
 12 28  1  0
 13 29  1  0
 14 30  1  0
 15 31  1  0
 17 32  1  0
M  CHG  2  19  -1  21  -1
M  END
>  <mol_id>  (46) 
2026-08-23-6tgu-s0-n100-r8-0046

>  <rmsd_to_ref>  (46) 
2.5204081632664344

$$$$
6tgu.A
     RDKit          3D

 32 34  0  0  0  0  0  0  0  0999 V2000
    1.4759   18.5929   36.6815 C   0  0  0  0  0  0  0  0  0  0  0  0
    1.9472   18.5634   38.1381 C   0  0  0  0  0  0  0  0  0  0  0  0
    2.5480   19.6827   38.7099 C   0  0  0  0  0  0  0  0  0  0  0  0
    2.8178   19.7613   40.0801 C   0  0  0  0  0  0  0  0  0  0  0  0
    2.6483   18.6340   40.8970 C   0  0  0  0  0  0  0  0  0  0  0  0
    2.3479   17.9723   43.3332 C   0  0  0  0  0  0  0  0  0  0  0  0
    1.2175   16.2770   44.3449 C   0  0  0  0  0  0  0  0  0  0  0  0
    0.4709   15.0192   44.3881 C   0  0  0  0  0  0  0  0  0  0  0  0
   -0.0959   14.5316   45.5742 C   0  0  0  0  0  0  0  0  0  0  0  0
   -0.8308   13.3502   45.5862 C   0  0  0  0  0  0  0  0  0  0  0  0
   -1.0321   12.6823   44.3929 C   0  0  0  0  0  0  0  0  0  0  0  0
   -0.4947   13.1320   43.1963 C   0  0  0  0  0  0  0  0  0  0  0  0
    0.2472   14.3100   43.2070 C   0  0  0  0  0  0  0  0  0  0  0  0
    1.4443   17.0707   45.4380 C   0  0  0  0  0  0  0  0  0  0  0  0
    2.0347   17.5031   40.3398 C   0  0  0  0  0  0  0  0  0  0  0  0
    1.7051   17.4870   38.9832 C   0  0  0  0  0  0  0  0  0  0  0  0
    2.8579   18.7155   42.3079 N   0  0  0  0  0  0  0  0  0  0  0  0
    1.6426   16.8099   43.1050 N   0  0  0  0  0  0  0  0  0  0  0  0
    1.5092   19.7169   36.0996 O   0  0  0  0  0  0  0  0  0  0  0  0
    1.0221   17.5269   36.2108 O   0  0  0  0  0  0  0  0  0  0  0  0
    1.0106   16.4166   38.4715 O   0  0  0  0  0  0  0  0  0  0  0  0
    2.1856   18.5563   44.9782 S   0  0  0  0  0  0  0  0  0  0  0  0
   -1.9794   11.2318   44.3855 Cl  0  0  0  0  0  0  0  0  0  0  0  0
    2.8186   20.5308   38.0638 H   0  0  0  0  0  0  0  0  0  0  0  0
    3.1635   20.7094   40.5179 H   0  0  0  0  0  0  0  0  0  0  0  0
    0.0426   15.0922   46.5105 H   0  0  0  0  0  0  0  0  0  0  0  0
   -1.2433   12.9556   46.5265 H   0  0  0  0  0  0  0  0  0  0  0  0
   -0.6506   12.5721   42.2623 H   0  0  0  0  0  0  0  0  0  0  0  0
    0.6663   14.6902   42.2637 H   0  0  0  0  0  0  0  0  0  0  0  0
    1.1873   16.7962   46.4717 H   0  0  0  0  0  0  0  0  0  0  0  0
    1.8132   16.6296   40.9707 H   0  0  0  0  0  0  0  0  0  0  0  0
    3.5037   19.4623   42.6015 H   0  0  0  0  0  0  0  0  0  0  0  0
  1  2  1  0
  1 19  1  0
  1 20  2  0
  2  3  1  0
  2 16  2  0
  3  4  2  0
  4  5  1  0
  5 15  2  0
  5 17  1  0
  6 17  1  0
  6 18  2  0
  6 22  1  0
  7  8  1  0
  7 14  2  0
  7 18  1  0
  8  9  1  0
  8 13  2  0
  9 10  2  0
 10 11  1  0
 11 12  2  0
 11 23  1  0
 12 13  1  0
 14 22  1  0
 15 16  1  0
 16 21  1  0
  3 24  1  0
  4 25  1  0
  9 26  1  0
 10 27  1  0
 12 28  1  0
 13 29  1  0
 14 30  1  0
 15 31  1  0
 17 32  1  0
M  CHG  2  19  -1  21  -1
M  END
>  <mol_id>  (47) 
2026-08-23-6tgu-s0-n100-r8-0047

>  <rmsd_to_ref>  (47) 
2.5663265306185856

$$$$
6tgu.A
     RDKit          3D

 32 34  0  0  0  0  0  0  0  0999 V2000
    2.7301   22.7283   38.4201 C   0  0  0  0  0  0  0  0  0  0  0  0
    1.9988   21.7667   39.2270 C   0  0  0  0  0  0  0  0  0  0  0  0
    2.7326   20.8275   39.9395 C   0  0  0  0  0  0  0  0  0  0  0  0
    2.1102   19.8895   40.7228 C   0  0  0  0  0  0  0  0  0  0  0  0
    0.7335   19.9216   40.7708 C   0  0  0  0  0  0  0  0  0  0  0  0
    0.7440   17.7300   41.9333 C   0  0  0  0  0  0  0  0  0  0  0  0
    1.5228   15.6284   42.0497 C   0  0  0  0  0  0  0  0  0  0  0  0
    1.4825   14.2495   41.5282 C   0  0  0  0  0  0  0  0  0  0  0  0
    2.2861   13.2629   42.0686 C   0  0  0  0  0  0  0  0  0  0  0  0
    2.2296   11.9850   41.5706 C   0  0  0  0  0  0  0  0  0  0  0  0
    1.4035   11.6185   40.5431 C   0  0  0  0  0  0  0  0  0  0  0  0
    0.5957   12.5941   39.9939 C   0  0  0  0  0  0  0  0  0  0  0  0
    0.6541   13.8693   40.4943 C   0  0  0  0  0  0  0  0  0  0  0  0
    2.3584   15.9872   43.1116 C   0  0  0  0  0  0  0  0  0  0  0  0
   -0.0343   20.8404   40.0769 C   0  0  0  0  0  0  0  0  0  0  0  0
    0.5973   21.7802   39.2910 C   0  0  0  0  0  0  0  0  0  0  0  0
    0.0644   18.9307   41.5850 N   0  0  0  0  0  0  0  0  0  0  0  0
    0.8080   16.6306   41.6097 N   0  0  0  0  0  0  0  0  0  0  0  0
    2.0026   23.6588   37.6792 O   0  0  0  0  0  0  0  0  0  0  0  0
    4.0151   22.7167   38.3894 O   0  0  0  0  0  0  0  0  0  0  0  0
   -0.1288   22.7203   38.5763 O   0  0  0  0  0  0  0  0  0  0  0  0
    2.0024   17.7573   43.3496 S   0  0  0  0  0  0  0  0  0  0  0  0
    1.3630    9.9840   39.9429 Cl  0  0  0  0  0  0  0  0  0  0  0  0
    3.8319   20.8019   39.9052 H   0  0  0  0  0  0  0  0  0  0  0  0
    2.6888   19.1606   41.2792 H   0  0  0  0  0  0  0  0  0  0  0  0
    2.9457   13.5255   42.8806 H   0  0  0  0  0  0  0  0  0  0  0  0
    2.8649   11.2366   42.0091 H   0  0  0  0  0  0  0  0  0  0  0  0
   -0.0990   12.4119   39.1787 H   0  0  0  0  0  0  0  0  0  0  0  0
    0.0214   14.6577   40.0744 H   0  0  0  0  0  0  0  0  0  0  0  0
    3.0469   15.4229   43.6764 H   0  0  0  0  0  0  0  0  0  0  0  0
   -1.1296   20.8552   40.1248 H   0  0  0  0  0  0  0  0  0  0  0  0
   -0.9374   19.1137   41.9190 H   0  0  0  0  0  0  0  0  0  0  0  0
  1  2  1  0
  1 19  1  0
  1 20  2  0
  2  3  1  0
  2 16  2  0
  3  4  2  0
  4  5  1  0
  5 15  2  0
  5 17  1  0
  6 17  1  0
  6 18  2  0
  6 22  1  0
  7  8  1  0
  7 14  2  0
  7 18  1  0
  8  9  1  0
  8 13  2  0
  9 10  2  0
 10 11  1  0
 11 12  2  0
 11 23  1  0
 12 13  1  0
 14 22  1  0
 15 16  1  0
 16 21  1  0
  3 24  1  0
  4 25  1  0
  9 26  1  0
 10 27  1  0
 12 28  1  0
 13 29  1  0
 14 30  1  0
 15 31  1  0
 17 32  1  0
M  CHG  2  19  -1  21  -1
M  END
>  <mol_id>  (48) 
2026-08-23-6tgu-s0-n100-r8-0048

>  <rmsd_to_ref>  (48) 
2.612244897963234

$$$$
6tgu.A
     RDKit          3D

 32 34  0  0  0  0  0  0  0  0999 V2000
    2.2405   17.3433   34.8999 C   0  0  0  0  0  0  0  0  0  0  0  0
    2.3409   17.9604   36.2977 C   0  0  0  0  0  0  0  0  0  0  0  0
    2.1028   19.3195   36.4896 C   0  0  0  0  0  0  0  0  0  0  0  0
    1.9981   19.8814   37.7662 C   0  0  0  0  0  0  0  0  0  0  0  0
    2.3063   19.1157   38.9000 C   0  0  0  0  0  0  0  0  0  0  0  0
    1.9222   19.0409   41.4120 C   0  0  0  0  0  0  0  0  0  0  0  0
    1.7181   17.3258   42.8927 C   0  0  0  0  0  0  0  0  0  0  0  0
    1.7868   15.9292   43.3241 C   0  0  0  0  0  0  0  0  0  0  0  0
    1.3477   15.5203   44.5914 C   0  0  0  0  0  0  0  0  0  0  0  0
    1.3908   14.1818   44.9688 C   0  0  0  0  0  0  0  0  0  0  0  0
    1.8357   13.2482   44.0518 C   0  0  0  0  0  0  0  0  0  0  0  0
    2.2736   13.6080   42.7862 C   0  0  0  0  0  0  0  0  0  0  0  0
    2.2334   14.9536   42.4315 C   0  0  0  0  0  0  0  0  0  0  0  0
    1.2460   18.3465   43.6748 C   0  0  0  0  0  0  0  0  0  0  0  0
    2.5373   17.7437   38.7254 C   0  0  0  0  0  0  0  0  0  0  0  0
    2.5565   17.1989   37.4401 C   0  0  0  0  0  0  0  0  0  0  0  0
    2.1428   19.6550   40.2129 N   0  0  0  0  0  0  0  0  0  0  0  0
    2.0283   17.6739   41.5568 N   0  0  0  0  0  0  0  0  0  0  0  0
    1.7751   18.0864   33.9865 O   0  0  0  0  0  0  0  0  0  0  0  0
    2.5484   16.1364   34.7896 O   0  0  0  0  0  0  0  0  0  0  0  0
    2.6795   15.8383   37.2872 O   0  0  0  0  0  0  0  0  0  0  0  0
    1.1345   19.8116   42.7754 S   0  0  0  0  0  0  0  0  0  0  0  0
    1.8565   11.5730   44.4933 Cl  0  0  0  0  0  0  0  0  0  0  0  0
    1.9937   19.9709   35.6100 H   0  0  0  0  0  0  0  0  0  0  0  0
    1.6733   20.9261   37.8811 H   0  0  0  0  0  0  0  0  0  0  0  0
    0.9631   16.2699   45.2987 H   0  0  0  0  0  0  0  0  0  0  0  0
    1.0771   13.8728   45.9768 H   0  0  0  0  0  0  0  0  0  0  0  0
    2.6433   12.8495   42.0805 H   0  0  0  0  0  0  0  0  0  0  0  0
    2.5609   15.2546   41.4254 H   0  0  0  0  0  0  0  0  0  0  0  0
    0.9743   18.2443   44.7358 H   0  0  0  0  0  0  0  0  0  0  0  0
    2.7033   17.0975   39.6000 H   0  0  0  0  0  0  0  0  0  0  0  0
    2.2012   20.6821   40.2632 H   0  0  0  0  0  0  0  0  0  0  0  0
  1  2  1  0
  1 19  1  0
  1 20  2  0
  2  3  1  0
  2 16  2  0
  3  4  2  0
  4  5  1  0
  5 15  2  0
  5 17  1  0
  6 17  1  0
  6 18  2  0
  6 22  1  0
  7  8  1  0
  7 14  2  0
  7 18  1  0
  8  9  1  0
  8 13  2  0
  9 10  2  0
 10 11  1  0
 11 12  2  0
 11 23  1  0
 12 13  1  0
 14 22  1  0
 15 16  1  0
 16 21  1  0
  3 24  1  0
  4 25  1  0
  9 26  1  0
 10 27  1  0
 12 28  1  0
 13 29  1  0
 14 30  1  0
 15 31  1  0
 17 32  1  0
M  CHG  2  19  -1  21  -1
M  END
>  <mol_id>  (49) 
2026-08-23-6tgu-s0-n100-r8-0049

>  <rmsd_to_ref>  (49) 
2.6581632653117544

$$$$
6tgu.A
     RDKit          3D

 32 34  0  0  0  0  0  0  0  0999 V2000
    5.1278   20.1587   37.6888 C   0  0  0  0  0  0  0  0  0  0  0  0
    4.1429   19.7712   38.6887 C   0  0  0  0  0  0  0  0  0  0  0  0
    3.2824   18.6939   38.4487 C   0  0  0  0  0  0  0  0  0  0  0  0
    2.3589   18.3163   39.4003 C   0  0  0  0  0  0  0  0  0  0  0  0
    2.2624   18.9857   40.6002 C   0  0  0  0  0  0  0  0  0  0  0  0
    1.1743   17.2078   41.8146 C   0  0  0  0  0  0  0  0  0  0  0  0
    0.7843   14.9672   42.0317 C   0  0  0  0  0  0  0  0  0  0  0  0
   -0.1232   13.8151   41.8646 C   0  0  0  0  0  0  0  0  0  0  0  0
   -1.3860   13.9276   41.3459 C   0  0  0  0  0  0  0  0  0  0  0  0
   -2.2670   12.8956   41.1628 C   0  0  0  0  0  0  0  0  0  0  0  0
   -1.8485   11.6288   41.5345 C   0  0  0  0  0  0  0  0  0  0  0  0
   -0.5869   11.5093   42.0555 C   0  0  0  0  0  0  0  0  0  0  0  0
    0.2920   12.5320   42.2396 C   0  0  0  0  0  0  0  0  0  0  0  0
    2.0417   14.8030   42.5976 C   0  0  0  0  0  0  0  0  0  0  0  0
    3.0925   20.0449   40.8579 C   0  0  0  0  0  0  0  0  0  0  0  0
    4.0100   20.4103   39.8988 C   0  0  0  0  0  0  0  0  0  0  0  0
    1.3625   18.5678   41.6391 N   0  0  0  0  0  0  0  0  0  0  0  0
    0.4714   16.1828   41.6905 N   0  0  0  0  0  0  0  0  0  0  0  0
    5.9719   21.2300   38.0259 O   0  0  0  0  0  0  0  0  0  0  0  0
    5.2509   19.5930   36.5795 O   0  0  0  0  0  0  0  0  0  0  0  0
    4.8714   21.4862   40.1331 O   0  0  0  0  0  0  0  0  0  0  0  0
    2.7544   16.4483   42.6216 S   0  0  0  0  0  0  0  0  0  0  0  0
   -2.8684   10.2102   41.3736 Cl  0  0  0  0  0  0  0  0  0  0  0  0
    3.3312   18.1420   37.5217 H   0  0  0  0  0  0  0  0  0  0  0  0
    1.7091   17.4856   39.1953 H   0  0  0  0  0  0  0  0  0  0  0  0
   -1.7537   14.9197   41.0443 H   0  0  0  0  0  0  0  0  0  0  0  0
   -3.2358   13.0417   40.7490 H   0  0  0  0  0  0  0  0  0  0  0  0
   -0.2579   10.5007   42.3471 H   0  0  0  0  0  0  0  0  0  0  0  0
    1.2944   12.3637   42.6608 H   0  0  0  0  0  0  0  0  0  0  0  0
    2.5604   13.8655   42.9837 H   0  0  0  0  0  0  0  0  0  0  0  0
    3.0035   20.5686   41.8031 H   0  0  0  0  0  0  0  0  0  0  0  0
    0.8935   19.3298   42.2146 H   0  0  0  0  0  0  0  0  0  0  0  0
  1  2  1  0
  1 19  1  0
  1 20  2  0
  2  3  1  0
  2 16  2  0
  3  4  2  0
  4  5  1  0
  5 15  2  0
  5 17  1  0
  6 17  1  0
  6 18  2  0
  6 22  1  0
  7  8  1  0
  7 14  2  0
  7 18  1  0
  8  9  1  0
  8 13  2  0
  9 10  2  0
 10 11  1  0
 11 12  2  0
 11 23  1  0
 12 13  1  0
 14 22  1  0
 15 16  1  0
 16 21  1  0
  3 24  1  0
  4 25  1  0
  9 26  1  0
 10 27  1  0
 12 28  1  0
 13 29  1  0
 14 30  1  0
 15 31  1  0
 17 32  1  0
M  CHG  2  19  -1  21  -1
M  END
>  <mol_id>  (50) 
2026-08-23-6tgu-s0-n100-r8-0050

>  <rmsd_to_ref>  (50) 
2.704081632655059

$$$$
6tgu.A
     RDKit          3D

 32 34  0  0  0  0  0  0  0  0999 V2000
    2.8612   17.2436   35.0247 C   0  0  0  0  0  0  0  0  0  0  0  0
    2.9230   17.5837   36.5164 C   0  0  0  0  0  0  0  0  0  0  0  0
    3.2907   18.8601   36.9362 C   0  0  0  0  0  0  0  0  0  0  0  0
    3.1766   19.2639   38.2705 C   0  0  0  0  0  0  0  0  0  0  0  0
    2.8496   18.3292   39.2635 C   0  0  0  0  0  0  0  0  0  0  0  0
    1.9366   18.1831   41.6317 C   0  0  0  0  0  0  0  0  0  0  0  0
    0.6611   16.6330   42.7022 C   0  0  0  0  0  0  0  0  0  0  0  0
   -0.0058   15.3396   42.8558 C   0  0  0  0  0  0  0  0  0  0  0  0
   -0.8465   15.0613   43.9430 C   0  0  0  0  0  0  0  0  0  0  0  0
   -1.4975   13.8364   44.0520 C   0  0  0  0  0  0  0  0  0  0  0  0
   -1.3359   12.9072   43.0416 C   0  0  0  0  0  0  0  0  0  0  0  0
   -0.5187   13.1432   41.9464 C   0  0  0  0  0  0  0  0  0  0  0  0
    0.1330   14.3704   41.8611 C   0  0  0  0  0  0  0  0  0  0  0  0
    0.5448   17.6653   43.5950 C   0  0  0  0  0  0  0  0  0  0  0  0
    2.4661   17.0432   38.8570 C   0  0  0  0  0  0  0  0  0  0  0  0
    2.5159   16.6964   37.5056 C   0  0  0  0  0  0  0  0  0  0  0  0
    2.6665   18.7379   40.6202 N   0  0  0  0  0  0  0  0  0  0  0  0
    1.3778   16.9278   41.5184 N   0  0  0  0  0  0  0  0  0  0  0  0
    2.9941   18.2110   34.2187 O   0  0  0  0  0  0  0  0  0  0  0  0
    2.6049   16.0572   34.7239 O   0  0  0  0  0  0  0  0  0  0  0  0
    2.0395   15.4701   37.1070 O   0  0  0  0  0  0  0  0  0  0  0  0
    1.3076   19.0886   42.9947 S   0  0  0  0  0  0  0  0  0  0  0  0
   -2.1725   11.3935   43.1435 Cl  0  0  0  0  0  0  0  0  0  0  0  0
    3.6829   19.5724   36.1954 H   0  0  0  0  0  0  0  0  0  0  0  0
    3.3438   20.3169   38.5414 H   0  0  0  0  0  0  0  0  0  0  0  0
   -0.9937   15.8236   44.7222 H   0  0  0  0  0  0  0  0  0  0  0  0
   -2.1281   13.6121   44.9249 H   0  0  0  0  0  0  0  0  0  0  0  0
   -0.3888   12.3801   41.1648 H   0  0  0  0  0  0  0  0  0  0  0  0
    0.7716   14.5809   40.9905 H   0  0  0  0  0  0  0  0  0  0  0  0
    0.0326   17.5949   44.5659 H   0  0  0  0  0  0  0  0  0  0  0  0
    2.1266   16.3085   39.6019 H   0  0  0  0  0  0  0  0  0  0  0  0
    3.1711   19.5977   40.8793 H   0  0  0  0  0  0  0  0  0  0  0  0
  1  2  1  0
  1 19  1  0
  1 20  2  0
  2  3  1  0
  2 16  2  0
  3  4  2  0
  4  5  1  0
  5 15  2  0
  5 17  1  0
  6 17  1  0
  6 18  2  0
  6 22  1  0
  7  8  1  0
  7 14  2  0
  7 18  1  0
  8  9  1  0
  8 13  2  0
  9 10  2  0
 10 11  1  0
 11 12  2  0
 11 23  1  0
 12 13  1  0
 14 22  1  0
 15 16  1  0
 16 21  1  0
  3 24  1  0
  4 25  1  0
  9 26  1  0
 10 27  1  0
 12 28  1  0
 13 29  1  0
 14 30  1  0
 15 31  1  0
 17 32  1  0
M  CHG  2  19  -1  21  -1
M  END
>  <mol_id>  (51) 
2026-08-23-6tgu-s0-n100-r8-0051

>  <rmsd_to_ref>  (51) 
2.7500000000046034

$$$$
6tgu.A
     RDKit          3D

 32 34  0  0  0  0  0  0  0  0999 V2000
    1.7152   20.7237   35.6587 C   0  0  0  0  0  0  0  0  0  0  0  0
    1.8369   19.8719   36.8367 C   0  0  0  0  0  0  0  0  0  0  0  0
    2.8523   20.0437   37.7627 C   0  0  0  0  0  0  0  0  0  0  0  0
    2.9425   19.2359   38.8514 C   0  0  0  0  0  0  0  0  0  0  0  0
    2.0388   18.1965   39.1108 C   0  0  0  0  0  0  0  0  0  0  0  0
    1.2827   16.6453   40.9350 C   0  0  0  0  0  0  0  0  0  0  0  0
    0.3554   15.2433   42.4408 C   0  0  0  0  0  0  0  0  0  0  0  0
    0.5401   14.3591   43.6213 C   0  0  0  0  0  0  0  0  0  0  0  0
   -0.5123   13.6897   44.1582 C   0  0  0  0  0  0  0  0  0  0  0  0
   -0.3591   12.8644   45.2526 C   0  0  0  0  0  0  0  0  0  0  0  0
    0.8865   12.6972   45.8365 C   0  0  0  0  0  0  0  0  0  0  0  0
    1.9810   13.3777   45.2980 C   0  0  0  0  0  0  0  0  0  0  0  0
    1.7794   14.1868   44.2097 C   0  0  0  0  0  0  0  0  0  0  0  0
   -0.8593   15.4118   41.8613 C   0  0  0  0  0  0  0  0  0  0  0  0
    1.0415   18.0458   38.1781 C   0  0  0  0  0  0  0  0  0  0  0  0
    0.9412   18.8600   37.0709 C   0  0  0  0  0  0  0  0  0  0  0  0
    2.2466   17.4338   40.2505 N   0  0  0  0  0  0  0  0  0  0  0  0
    1.3359   15.9064   41.8914 N   0  0  0  0  0  0  0  0  0  0  0  0
    2.6300   21.7436   35.4385 O   0  0  0  0  0  0  0  0  0  0  0  0
    0.7608   20.4907   34.8723 O   0  0  0  0  0  0  0  0  0  0  0  0
   -0.0846   18.6696   36.1556 O   0  0  0  0  0  0  0  0  0  0  0  0
   -0.4853   16.5764   40.4913 S   0  0  0  0  0  0  0  0  0  0  0  0
    1.1053   11.6548   47.2277 Cl  0  0  0  0  0  0  0  0  0  0  0  0
    3.5679   20.8357   37.5955 H   0  0  0  0  0  0  0  0  0  0  0  0
    3.7668   19.4220   39.5460 H   0  0  0  0  0  0  0  0  0  0  0  0
   -1.4930   13.8021   43.7232 H   0  0  0  0  0  0  0  0  0  0  0  0
   -1.2051   12.3542   45.6487 H   0  0  0  0  0  0  0  0  0  0  0  0
    2.9596   13.2520   45.7497 H   0  0  0  0  0  0  0  0  0  0  0  0
    2.6529   14.7130   43.8015 H   0  0  0  0  0  0  0  0  0  0  0  0
   -1.8812   15.0196   42.0532 H   0  0  0  0  0  0  0  0  0  0  0  0
    0.3048   17.2720   38.2796 H   0  0  0  0  0  0  0  0  0  0  0  0
    3.2095   17.4177   40.6721 H   0  0  0  0  0  0  0  0  0  0  0  0
  1  2  1  0
  1 19  1  0
  1 20  2  0
  2  3  1  0
  2 16  2  0
  3  4  2  0
  4  5  1  0
  5 15  2  0
  5 17  1  0
  6 17  1  0
  6 18  2  0
  6 22  1  0
  7  8  1  0
  7 14  2  0
  7 18  1  0
  8  9  1  0
  8 13  2  0
  9 10  2  0
 10 11  1  0
 11 12  2  0
 11 23  1  0
 12 13  1  0
 14 22  1  0
 15 16  1  0
 16 21  1  0
  3 24  1  0
  4 25  1  0
  9 26  1  0
 10 27  1  0
 12 28  1  0
 13 29  1  0
 14 30  1  0
 15 31  1  0
 17 32  1  0
M  CHG  2  19  -1  21  -1
M  END
>  <mol_id>  (52) 
2026-08-23-6tgu-s0-n100-r8-0052

>  <rmsd_to_ref>  (52) 
2.795918367350575

$$$$
6tgu.A
     RDKit          3D

 32 34  0  0  0  0  0  0  0  0999 V2000
    6.1269   17.4727   38.7072 C   0  0  0  0  0  0  0  0  0  0  0  0
    4.9752   17.9644   39.5884 C   0  0  0  0  0  0  0  0  0  0  0  0
    4.5599   19.2930   39.5332 C   0  0  0  0  0  0  0  0  0  0  0  0
    3.3984   19.7346   40.1753 C   0  0  0  0  0  0  0  0  0  0  0  0
    2.7068   18.8798   41.0458 C   0  0  0  0  0  0  0  0  0  0  0  0
    0.4293   18.5682   42.1318 C   0  0  0  0  0  0  0  0  0  0  0  0
   -0.7482   16.7217   42.7479 C   0  0  0  0  0  0  0  0  0  0  0  0
   -0.9377   15.2947   43.0107 C   0  0  0  0  0  0  0  0  0  0  0  0
   -2.1900   14.7606   43.3461 C   0  0  0  0  0  0  0  0  0  0  0  0
   -2.3547   13.3955   43.5590 C   0  0  0  0  0  0  0  0  0  0  0  0
   -1.2652   12.5618   43.3904 C   0  0  0  0  0  0  0  0  0  0  0  0
   -0.0104   13.0469   43.0539 C   0  0  0  0  0  0  0  0  0  0  0  0
    0.1366   14.4171   42.8562 C   0  0  0  0  0  0  0  0  0  0  0  0
   -1.7497   17.6533   42.8207 C   0  0  0  0  0  0  0  0  0  0  0  0
    3.1050   17.5367   41.1045 C   0  0  0  0  0  0  0  0  0  0  0  0
    4.2242   17.1103   40.3871 C   0  0  0  0  0  0  0  0  0  0  0  0
    1.4845   19.2939   41.6589 N   0  0  0  0  0  0  0  0  0  0  0  0
    0.4941   17.1976   42.2659 N   0  0  0  0  0  0  0  0  0  0  0  0
    6.5512   18.2804   37.8293 O   0  0  0  0  0  0  0  0  0  0  0  0
    6.5001   16.2903   38.8698 O   0  0  0  0  0  0  0  0  0  0  0  0
    4.5432   15.7733   40.3687 O   0  0  0  0  0  0  0  0  0  0  0  0
   -1.2049   19.1893   42.2622 S   0  0  0  0  0  0  0  0  0  0  0  0
   -1.4643   10.8552   43.6121 Cl  0  0  0  0  0  0  0  0  0  0  0  0
    5.1641   20.0172   38.9671 H   0  0  0  0  0  0  0  0  0  0  0  0
    3.0267   20.7545   39.9972 H   0  0  0  0  0  0  0  0  0  0  0  0
   -3.0563   15.4316   43.4424 H   0  0  0  0  0  0  0  0  0  0  0  0
   -3.3324   12.9879   43.8555 H   0  0  0  0  0  0  0  0  0  0  0  0
    0.8470   12.3663   42.9458 H   0  0  0  0  0  0  0  0  0  0  0  0
    1.1211   14.8170   42.5720 H   0  0  0  0  0  0  0  0  0  0  0  0
   -2.7664   17.4481   43.1869 H   0  0  0  0  0  0  0  0  0  0  0  0
    2.5364   16.8198   41.7150 H   0  0  0  0  0  0  0  0  0  0  0  0
    1.3821   20.3136   41.7616 H   0  0  0  0  0  0  0  0  0  0  0  0
  1  2  1  0
  1 19  1  0
  1 20  2  0
  2  3  1  0
  2 16  2  0
  3  4  2  0
  4  5  1  0
  5 15  2  0
  5 17  1  0
  6 17  1  0
  6 18  2  0
  6 22  1  0
  7  8  1  0
  7 14  2  0
  7 18  1  0
  8  9  1  0
  8 13  2  0
  9 10  2  0
 10 11  1  0
 11 12  2  0
 11 23  1  0
 12 13  1  0
 14 22  1  0
 15 16  1  0
 16 21  1  0
  3 24  1  0
  4 25  1  0
  9 26  1  0
 10 27  1  0
 12 28  1  0
 13 29  1  0
 14 30  1  0
 15 31  1  0
 17 32  1  0
M  CHG  2  19  -1  21  -1
M  END
>  <mol_id>  (53) 
2026-08-23-6tgu-s0-n100-r8-0053

>  <rmsd_to_ref>  (53) 
2.841836734695209

$$$$
6tgu.A
     RDKit          3D

 32 34  0  0  0  0  0  0  0  0999 V2000
    3.9690   20.3704   36.3306 C   0  0  0  0  0  0  0  0  0  0  0  0
    3.3613   19.7055   37.4662 C   0  0  0  0  0  0  0  0  0  0  0  0
    2.6226   20.4087   38.3942 C   0  0  0  0  0  0  0  0  0  0  0  0
    2.0309   19.8111   39.4829 C   0  0  0  0  0  0  0  0  0  0  0  0
    2.1530   18.4335   39.7045 C   0  0  0  0  0  0  0  0  0  0  0  0
    1.1876   16.5787   41.0742 C   0  0  0  0  0  0  0  0  0  0  0  0
    0.3794   14.7436   42.1484 C   0  0  0  0  0  0  0  0  0  0  0  0
   -0.2462   14.0846   43.3314 C   0  0  0  0  0  0  0  0  0  0  0  0
   -0.5688   14.8298   44.4465 C   0  0  0  0  0  0  0  0  0  0  0  0
   -1.1515   14.2541   45.5635 C   0  0  0  0  0  0  0  0  0  0  0  0
   -1.4146   12.9087   45.5614 C   0  0  0  0  0  0  0  0  0  0  0  0
   -1.0822   12.1883   44.4349 C   0  0  0  0  0  0  0  0  0  0  0  0
   -0.5054   12.7402   43.3207 C   0  0  0  0  0  0  0  0  0  0  0  0
    0.7051   13.9751   41.0139 C   0  0  0  0  0  0  0  0  0  0  0  0
    2.8912   17.7475   38.7731 C   0  0  0  0  0  0  0  0  0  0  0  0
    3.4882   18.3487   37.6751 C   0  0  0  0  0  0  0  0  0  0  0  0
    1.5327   17.9091   40.8329 N   0  0  0  0  0  0  0  0  0  0  0  0
    0.6433   15.9908   42.0991 N   0  0  0  0  0  0  0  0  0  0  0  0
    4.7043   19.6084   35.4236 O   0  0  0  0  0  0  0  0  0  0  0  0
    3.8542   21.6215   36.1347 O   0  0  0  0  0  0  0  0  0  0  0  0
    4.2219   17.5973   36.7696 O   0  0  0  0  0  0  0  0  0  0  0  0
    1.3999   15.1834   39.9184 S   0  0  0  0  0  0  0  0  0  0  0  0
   -2.1401   12.1082   46.9124 Cl  0  0  0  0  0  0  0  0  0  0  0  0
    2.5136   21.4728   38.2449 H   0  0  0  0  0  0  0  0  0  0  0  0
    1.4705   20.4502   40.1576 H   0  0  0  0  0  0  0  0  0  0  0  0
   -0.3726   15.8982   44.4794 H   0  0  0  0  0  0  0  0  0  0  0  0
   -1.4141   14.8092   46.4461 H   0  0  0  0  0  0  0  0  0  0  0  0
   -1.2915   11.1301   44.4394 H   0  0  0  0  0  0  0  0  0  0  0  0
   -0.2813   12.1015   42.4897 H   0  0  0  0  0  0  0  0  0  0  0  0
    0.5713   12.9305   40.8473 H   0  0  0  0  0  0  0  0  0  0  0  0
    3.0390   16.6928   38.8754 H   0  0  0  0  0  0  0  0  0  0  0  0
    1.2878   18.5923   41.6196 H   0  0  0  0  0  0  0  0  0  0  0  0
  1  2  1  0
  1 19  1  0
  1 20  2  0
  2  3  1  0
  2 16  2  0
  3  4  2  0
  4  5  1  0
  5 15  2  0
  5 17  1  0
  6 17  1  0
  6 18  2  0
  6 22  1  0
  7  8  1  0
  7 14  2  0
  7 18  1  0
  8  9  1  0
  8 13  2  0
  9 10  2  0
 10 11  1  0
 11 12  2  0
 11 23  1  0
 12 13  1  0
 14 22  1  0
 15 16  1  0
 16 21  1  0
  3 24  1  0
  4 25  1  0
  9 26  1  0
 10 27  1  0
 12 28  1  0
 13 29  1  0
 14 30  1  0
 15 31  1  0
 17 32  1  0
M  CHG  2  19  -1  21  -1
M  END
>  <mol_id>  (54) 
2026-08-23-6tgu-s0-n100-r8-0054

>  <rmsd_to_ref>  (54) 
2.887755102041658

$$$$
6tgu.A
     RDKit          3D

 32 34  0  0  0  0  0  0  0  0999 V2000
    5.6286   19.2907   39.1660 C   0  0  0  0  0  0  0  0  0  0  0  0
    4.7040   18.7106   40.2398 C   0  0  0  0  0  0  0  0  0  0  0  0
    4.3891   19.4508   41.3771 C   0  0  0  0  0  0  0  0  0  0  0  0
    3.4061   19.0380   42.2825 C   0  0  0  0  0  0  0  0  0  0  0  0
    2.8263   17.7668   42.1612 C   0  0  0  0  0  0  0  0  0  0  0  0
    0.7758   16.4419   42.8707 C   0  0  0  0  0  0  0  0  0  0  0  0
   -0.4037   14.7707   41.8750 C   0  0  0  0  0  0  0  0  0  0  0  0
   -0.6498   13.7363   40.8697 C   0  0  0  0  0  0  0  0  0  0  0  0
   -1.8543   13.0203   40.8194 C   0  0  0  0  0  0  0  0  0  0  0  0
   -2.0806   12.0643   39.8341 C   0  0  0  0  0  0  0  0  0  0  0  0
   -1.1095   11.8608   38.8719 C   0  0  0  0  0  0  0  0  0  0  0  0
    0.0935   12.5507   38.8807 C   0  0  0  0  0  0  0  0  0  0  0  0
    0.3057   13.4950   39.8813 C   0  0  0  0  0  0  0  0  0  0  0  0
   -1.2992   15.1176   42.8518 C   0  0  0  0  0  0  0  0  0  0  0  0
    3.1240   17.0136   41.0165 C   0  0  0  0  0  0  0  0  0  0  0  0
    4.0526   17.4920   40.0903 C   0  0  0  0  0  0  0  0  0  0  0  0
    1.7763   17.3556   43.0384 N   0  0  0  0  0  0  0  0  0  0  0  0
    0.7590   15.5736   41.8000 N   0  0  0  0  0  0  0  0  0  0  0  0
    5.9416   20.5113   39.2893 O   0  0  0  0  0  0  0  0  0  0  0  0
    5.9337   18.5391   38.2143 O   0  0  0  0  0  0  0  0  0  0  0  0
    4.2587   16.7965   38.9226 O   0  0  0  0  0  0  0  0  0  0  0  0
   -0.7523   16.4962   43.7283 S   0  0  0  0  0  0  0  0  0  0  0  0
   -1.3942   10.7029   37.6151 Cl  0  0  0  0  0  0  0  0  0  0  0  0
    4.9303   20.3890   41.5691 H   0  0  0  0  0  0  0  0  0  0  0  0
    3.0872   19.7118   43.0914 H   0  0  0  0  0  0  0  0  0  0  0  0
   -2.6329   13.2177   41.5709 H   0  0  0  0  0  0  0  0  0  0  0  0
   -3.0138   11.4820   39.8212 H   0  0  0  0  0  0  0  0  0  0  0  0
    0.8604   12.3567   38.1164 H   0  0  0  0  0  0  0  0  0  0  0  0
    1.2473   14.0636   39.8932 H   0  0  0  0  0  0  0  0  0  0  0  0
   -2.2419   14.5867   43.0502 H   0  0  0  0  0  0  0  0  0  0  0  0
    2.6265   16.0470   40.8486 H   0  0  0  0  0  0  0  0  0  0  0  0
    1.7736   17.8291   43.9531 H   0  0  0  0  0  0  0  0  0  0  0  0
  1  2  1  0
  1 19  1  0
  1 20  2  0
  2  3  1  0
  2 16  2  0
  3  4  2  0
  4  5  1  0
  5 15  2  0
  5 17  1  0
  6 17  1  0
  6 18  2  0
  6 22  1  0
  7  8  1  0
  7 14  2  0
  7 18  1  0
  8  9  1  0
  8 13  2  0
  9 10  2  0
 10 11  1  0
 11 12  2  0
 11 23  1  0
 12 13  1  0
 14 22  1  0
 15 16  1  0
 16 21  1  0
  3 24  1  0
  4 25  1  0
  9 26  1  0
 10 27  1  0
 12 28  1  0
 13 29  1  0
 14 30  1  0
 15 31  1  0
 17 32  1  0
M  CHG  2  19  -1  21  -1
M  END
>  <mol_id>  (55) 
2026-08-23-6tgu-s0-n100-r8-0055

>  <rmsd_to_ref>  (55) 
2.933673469394044

$$$$
6tgu.A
     RDKit          3D

 32 34  0  0  0  0  0  0  0  0999 V2000
    1.1693   22.7350   39.4836 C   0  0  0  0  0  0  0  0  0  0  0  0
    1.0941   21.2929   39.4824 C   0  0  0  0  0  0  0  0  0  0  0  0
    1.0560   20.6195   40.6912 C   0  0  0  0  0  0  0  0  0  0  0  0
    0.9837   19.2391   40.7458 C   0  0  0  0  0  0  0  0  0  0  0  0
    0.9457   18.4459   39.6231 C   0  0  0  0  0  0  0  0  0  0  0  0
    1.3979   16.1433   40.5623 C   0  0  0  0  0  0  0  0  0  0  0  0
    2.0116   14.3895   41.8180 C   0  0  0  0  0  0  0  0  0  0  0  0
    1.9860   12.9169   41.9926 C   0  0  0  0  0  0  0  0  0  0  0  0
    1.3615   12.0783   41.1020 C   0  0  0  0  0  0  0  0  0  0  0  0
    1.3489   10.6995   41.2819 C   0  0  0  0  0  0  0  0  0  0  0  0
    1.9836   10.1359   42.3912 C   0  0  0  0  0  0  0  0  0  0  0  0
    2.6056   10.9848   43.2757 C   0  0  0  0  0  0  0  0  0  0  0  0
    2.6038   12.3439   43.0763 C   0  0  0  0  0  0  0  0  0  0  0  0
    2.6176   15.2192   42.6806 C   0  0  0  0  0  0  0  0  0  0  0  0
    0.9848   19.1431   38.4017 C   0  0  0  0  0  0  0  0  0  0  0  0
    1.0565   20.5145   38.3462 C   0  0  0  0  0  0  0  0  0  0  0  0
    0.8957   17.0679   39.5634 N   0  0  0  0  0  0  0  0  0  0  0  0
    1.4390   15.0200   40.7948 N   0  0  0  0  0  0  0  0  0  0  0  0
    1.2086   23.4472   38.2884 O   0  0  0  0  0  0  0  0  0  0  0  0
    1.2035   23.4272   40.5450 O   0  0  0  0  0  0  0  0  0  0  0  0
    1.0950   21.1984   37.1268 O   0  0  0  0  0  0  0  0  0  0  0  0
    2.3654   16.8394   42.0316 S   0  0  0  0  0  0  0  0  0  0  0  0
    1.9661    8.3907   42.6137 Cl  0  0  0  0  0  0  0  0  0  0  0  0
    1.0853   21.2058   41.5971 H   0  0  0  0  0  0  0  0  0  0  0  0
    0.9434   18.7979   41.7145 H   0  0  0  0  0  0  0  0  0  0  0  0
    0.8619   12.4849   40.2341 H   0  0  0  0  0  0  0  0  0  0  0  0
    0.8637   10.0291   40.5938 H   0  0  0  0  0  0  0  0  0  0  0  0
    3.0980   10.5565   44.1361 H   0  0  0  0  0  0  0  0  0  0  0  0
    3.1163   12.9423   43.8204 H   0  0  0  0  0  0  0  0  0  0  0  0
    3.1900   14.9877   43.6447 H   0  0  0  0  0  0  0  0  0  0  0  0
    0.9590   18.6067   37.4606 H   0  0  0  0  0  0  0  0  0  0  0  0
    0.4649   16.5954   38.7421 H   0  0  0  0  0  0  0  0  0  0  0  0
  1  2  1  0
  1 19  1  0
  1 20  2  0
  2  3  1  0
  2 16  2  0
  3  4  2  0
  4  5  1  0
  5 15  2  0
  5 17  1  0
  6 17  1  0
  6 18  2  0
  6 22  1  0
  7  8  1  0
  7 14  2  0
  7 18  1  0
  8  9  1  0
  8 13  2  0
  9 10  2  0
 10 11  1  0
 11 12  2  0
 11 23  1  0
 12 13  1  0
 14 22  1  0
 15 16  1  0
 16 21  1  0
  3 24  1  0
  4 25  1  0
  9 26  1  0
 10 27  1  0
 12 28  1  0
 13 29  1  0
 14 30  1  0
 15 31  1  0
 17 32  1  0
M  CHG  2  19  -1  21  -1
M  END
>  <mol_id>  (56) 
2026-08-23-6tgu-s0-n100-r8-0056

>  <rmsd_to_ref>  (56) 
2.9795918367370984

$$$$
6tgu.A
     RDKit          3D

 32 34  0  0  0  0  0  0  0  0999 V2000
   -0.0792   18.1990   36.7601 C   0  0  0  0  0  0  0  0  0  0  0  0
    0.0537   18.3367   38.2793 C   0  0  0  0  0  0  0  0  0  0  0  0
   -0.9232   19.0012   39.0174 C   0  0  0  0  0  0  0  0  0  0  0  0
   -0.9362   18.9842   40.4160 C   0  0  0  0  0  0  0  0  0  0  0  0
    0.1442   18.4375   41.1236 C   0  0  0  0  0  0  0  0  0  0  0  0
    0.7567   17.5089   43.4096 C   0  0  0  0  0  0  0  0  0  0  0  0
    2.2102   15.8928   44.0811 C   0  0  0  0  0  0  0  0  0  0  0  0
    3.3001   14.9321   43.9071 C   0  0  0  0  0  0  0  0  0  0  0  0
    3.6793   14.0456   44.9252 C   0  0  0  0  0  0  0  0  0  0  0  0
    4.6964   13.1171   44.7268 C   0  0  0  0  0  0  0  0  0  0  0  0
    5.3022   13.0521   43.4862 C   0  0  0  0  0  0  0  0  0  0  0  0
    4.9545   13.9054   42.4499 C   0  0  0  0  0  0  0  0  0  0  0  0
    3.9424   14.8352   42.6716 C   0  0  0  0  0  0  0  0  0  0  0  0
    1.4849   16.0271   45.2354 C   0  0  0  0  0  0  0  0  0  0  0  0
    1.1302   17.7553   40.3965 C   0  0  0  0  0  0  0  0  0  0  0  0
    1.0703   17.7238   39.0021 C   0  0  0  0  0  0  0  0  0  0  0  0
    0.1171   18.3546   42.5496 N   0  0  0  0  0  0  0  0  0  0  0  0
    1.7587   16.6632   42.9836 N   0  0  0  0  0  0  0  0  0  0  0  0
   -1.1806   18.5648   36.2539 O   0  0  0  0  0  0  0  0  0  0  0  0
    0.8747   17.6641   36.1538 O   0  0  0  0  0  0  0  0  0  0  0  0
    1.9816   16.9659   38.3058 O   0  0  0  0  0  0  0  0  0  0  0  0
    0.1668   17.1137   45.0124 S   0  0  0  0  0  0  0  0  0  0  0  0
    6.5421   11.8735   43.2116 Cl  0  0  0  0  0  0  0  0  0  0  0  0
   -1.7086   19.5566   38.4839 H   0  0  0  0  0  0  0  0  0  0  0  0
   -1.7956   19.4005   40.9620 H   0  0  0  0  0  0  0  0  0  0  0  0
    3.1644   14.0849   45.8964 H   0  0  0  0  0  0  0  0  0  0  0  0
    5.0120   12.4482   45.5410 H   0  0  0  0  0  0  0  0  0  0  0  0
    5.4655   13.8491   41.4774 H   0  0  0  0  0  0  0  0  0  0  0  0
    3.6421   15.5084   41.8552 H   0  0  0  0  0  0  0  0  0  0  0  0
    1.7137   15.5101   46.1790 H   0  0  0  0  0  0  0  0  0  0  0  0
    1.9498   17.2457   40.9242 H   0  0  0  0  0  0  0  0  0  0  0  0
   -0.4880   19.0516   43.0067 H   0  0  0  0  0  0  0  0  0  0  0  0
  1  2  1  0
  1 19  1  0
  1 20  2  0
  2  3  1  0
  2 16  2  0
  3  4  2  0
  4  5  1  0
  5 15  2  0
  5 17  1  0
  6 17  1  0
  6 18  2  0
  6 22  1  0
  7  8  1  0
  7 14  2  0
  7 18  1  0
  8  9  1  0
  8 13  2  0
  9 10  2  0
 10 11  1  0
 11 12  2  0
 11 23  1  0
 12 13  1  0
 14 22  1  0
 15 16  1  0
 16 21  1  0
  3 24  1  0
  4 25  1  0
  9 26  1  0
 10 27  1  0
 12 28  1  0
 13 29  1  0
 14 30  1  0
 15 31  1  0
 17 32  1  0
M  CHG  2  19  -1  21  -1
M  END
>  <mol_id>  (57) 
2026-08-23-6tgu-s0-n100-r8-0057

>  <rmsd_to_ref>  (57) 
3.025510204091045

$$$$
6tgu.A
     RDKit          3D

 32 34  0  0  0  0  0  0  0  0999 V2000
    2.8017   23.3611   40.8644 C   0  0  0  0  0  0  0  0  0  0  0  0
    2.6790   21.9221   40.6745 C   0  0  0  0  0  0  0  0  0  0  0  0
    1.7442   21.1585   41.3282 C   0  0  0  0  0  0  0  0  0  0  0  0
    1.6794   19.7937   41.1035 C   0  0  0  0  0  0  0  0  0  0  0  0
    2.5120   19.1227   40.2437 C   0  0  0  0  0  0  0  0  0  0  0  0
    1.9531   16.7378   40.7788 C   0  0  0  0  0  0  0  0  0  0  0  0
    1.3516   14.6486   41.3984 C   0  0  0  0  0  0  0  0  0  0  0  0
    1.3133   13.1870   41.1035 C   0  0  0  0  0  0  0  0  0  0  0  0
    1.8537   12.6778   39.9432 C   0  0  0  0  0  0  0  0  0  0  0  0
    1.8357   11.3318   39.6421 C   0  0  0  0  0  0  0  0  0  0  0  0
    1.2627   10.4690   40.5225 C   0  0  0  0  0  0  0  0  0  0  0  0
    0.7210   10.9713   41.6833 C   0  0  0  0  0  0  0  0  0  0  0  0
    0.7372   12.3159   41.9877 C   0  0  0  0  0  0  0  0  0  0  0  0
    0.8130   15.1435   42.5522 C   0  0  0  0  0  0  0  0  0  0  0  0
    3.4617   19.9168   39.5831 C   0  0  0  0  0  0  0  0  0  0  0  0
    3.5274   21.2728   39.8050 C   0  0  0  0  0  0  0  0  0  0  0  0
    2.5250   17.7592   39.9765 N   0  0  0  0  0  0  0  0  0  0  0  0
    1.8907   15.5058   40.5858 N   0  0  0  0  0  0  0  0  0  0  0  0
    1.9678   24.0561   41.7296 O   0  0  0  0  0  0  0  0  0  0  0  0
    3.7173   23.9407   40.1904 O   0  0  0  0  0  0  0  0  0  0  0  0
    4.5137   21.9868   39.0963 O   0  0  0  0  0  0  0  0  0  0  0  0
    1.1524   16.9264   42.3553 S   0  0  0  0  0  0  0  0  0  0  0  0
    1.2317    8.7567   40.1550 Cl  0  0  0  0  0  0  0  0  0  0  0  0
    1.0750   21.6687   42.0135 H   0  0  0  0  0  0  0  0  0  0  0  0
    0.9161   19.2621   41.6441 H   0  0  0  0  0  0  0  0  0  0  0  0
    2.3257   13.3449   39.2068 H   0  0  0  0  0  0  0  0  0  0  0  0
    2.2676   10.9688   38.7258 H   0  0  0  0  0  0  0  0  0  0  0  0
    0.2499   10.3085   42.4189 H   0  0  0  0  0  0  0  0  0  0  0  0
    0.2926   12.6713   42.9268 H   0  0  0  0  0  0  0  0  0  0  0  0
    0.3328   14.6975   43.3560 H   0  0  0  0  0  0  0  0  0  0  0  0
    4.1577   19.4552   38.8841 H   0  0  0  0  0  0  0  0  0  0  0  0
    2.9975   17.4296   39.0979 H   0  0  0  0  0  0  0  0  0  0  0  0
  1  2  1  0
  1 19  1  0
  1 20  2  0
  2  3  1  0
  2 16  2  0
  3  4  2  0
  4  5  1  0
  5 15  2  0
  5 17  1  0
  6 17  1  0
  6 18  2  0
  6 22  1  0
  7  8  1  0
  7 14  2  0
  7 18  1  0
  8  9  1  0
  8 13  2  0
  9 10  2  0
 10 11  1  0
 11 12  2  0
 11 23  1  0
 12 13  1  0
 14 22  1  0
 15 16  1  0
 16 21  1  0
  3 24  1  0
  4 25  1  0
  9 26  1  0
 10 27  1  0
 12 28  1  0
 13 29  1  0
 14 30  1  0
 15 31  1  0
 17 32  1  0
M  CHG  2  19  -1  21  -1
M  END
>  <mol_id>  (58) 
2026-08-23-6tgu-s0-n100-r8-0058

>  <rmsd_to_ref>  (58) 
3.07142857142997

$$$$
6tgu.A
     RDKit          3D

 32 34  0  0  0  0  0  0  0  0999 V2000
    1.5258   21.6793   40.4870 C   0  0  0  0  0  0  0  0  0  0  0  0
    1.2175   20.4665   41.3696 C   0  0  0  0  0  0  0  0  0  0  0  0
    0.3170   20.5722   42.4272 C   0  0  0  0  0  0  0  0  0  0  0  0
   -0.1332   19.4517   43.1332 C   0  0  0  0  0  0  0  0  0  0  0  0
    0.4491   18.1961   42.9067 C   0  0  0  0  0  0  0  0  0  0  0  0
    0.0036   15.7131   43.2215 C   0  0  0  0  0  0  0  0  0  0  0  0
    0.6007   13.8730   42.0244 C   0  0  0  0  0  0  0  0  0  0  0  0
    1.3362   13.1422   40.9918 C   0  0  0  0  0  0  0  0  0  0  0  0
    1.0867   11.7899   40.7178 C   0  0  0  0  0  0  0  0  0  0  0  0
    1.7743   11.1231   39.7085 C   0  0  0  0  0  0  0  0  0  0  0  0
    2.6829   11.8317   38.9451 C   0  0  0  0  0  0  0  0  0  0  0  0
    2.9560   13.1712   39.1781 C   0  0  0  0  0  0  0  0  0  0  0  0
    2.2660   13.8177   40.1998 C   0  0  0  0  0  0  0  0  0  0  0  0
   -0.3670   13.3135   42.8162 C   0  0  0  0  0  0  0  0  0  0  0  0
    1.3489   18.0703   41.8387 C   0  0  0  0  0  0  0  0  0  0  0  0
    1.7172   19.1976   41.1021 C   0  0  0  0  0  0  0  0  0  0  0  0
   -0.0426   17.0316   43.5725 N   0  0  0  0  0  0  0  0  0  0  0  0
    0.7738   15.2700   42.1674 N   0  0  0  0  0  0  0  0  0  0  0  0
    0.8061   22.7055   40.6656 O   0  0  0  0  0  0  0  0  0  0  0  0
    2.4051   21.5332   39.6099 O   0  0  0  0  0  0  0  0  0  0  0  0
    2.5169   19.0465   39.9942 O   0  0  0  0  0  0  0  0  0  0  0  0
   -1.1457   14.5119   43.7781 S   0  0  0  0  0  0  0  0  0  0  0  0
    3.5167   11.0251   37.6584 Cl  0  0  0  0  0  0  0  0  0  0  0  0
   -0.0515   21.5676   42.7161 H   0  0  0  0  0  0  0  0  0  0  0  0
   -0.9456   19.5556   43.8675 H   0  0  0  0  0  0  0  0  0  0  0  0
    0.3353   11.2474   41.3102 H   0  0  0  0  0  0  0  0  0  0  0  0
    1.5983   10.0535   39.5219 H   0  0  0  0  0  0  0  0  0  0  0  0
    3.6990   13.7091   38.5710 H   0  0  0  0  0  0  0  0  0  0  0  0
    2.4579   14.8845   40.3871 H   0  0  0  0  0  0  0  0  0  0  0  0
   -0.6141   12.2417   42.8352 H   0  0  0  0  0  0  0  0  0  0  0  0
    1.7641   17.0847   41.5816 H   0  0  0  0  0  0  0  0  0  0  0  0
   -0.5118   17.2186   44.4701 H   0  0  0  0  0  0  0  0  0  0  0  0
  1  2  1  0
  1 19  1  0
  1 20  2  0
  2  3  1  0
  2 16  2  0
  3  4  2  0
  4  5  1  0
  5 15  2  0
  5 17  1  0
  6 17  1  0
  6 18  2  0
  6 22  1  0
  7  8  1  0
  7 14  2  0
  7 18  1  0
  8  9  1  0
  8 13  2  0
  9 10  2  0
 10 11  1  0
 11 12  2  0
 11 23  1  0
 12 13  1  0
 14 22  1  0
 15 16  1  0
 16 21  1  0
  3 24  1  0
  4 25  1  0
  9 26  1  0
 10 27  1  0
 12 28  1  0
 13 29  1  0
 14 30  1  0
 15 31  1  0
 17 32  1  0
M  CHG  2  19  -1  21  -1
M  END
>  <mol_id>  (59) 
2026-08-23-6tgu-s0-n100-r8-0059

>  <rmsd_to_ref>  (59) 
3.117346938781016

$$$$
6tgu.A
     RDKit          3D

 32 34  0  0  0  0  0  0  0  0999 V2000
    0.9428   23.5819   39.9037 C   0  0  0  0  0  0  0  0  0  0  0  0
    0.9398   22.2040   40.3674 C   0  0  0  0  0  0  0  0  0  0  0  0
    0.1828   21.8014   41.4419 C   0  0  0  0  0  0  0  0  0  0  0  0
    0.1732   20.5017   41.8857 C   0  0  0  0  0  0  0  0  0  0  0  0
    0.9411   19.5035   41.2630 C   0  0  0  0  0  0  0  0  0  0  0  0
    1.2607   16.9965   41.1956 C   0  0  0  0  0  0  0  0  0  0  0  0
    1.6556   14.8107   40.8815 C   0  0  0  0  0  0  0  0  0  0  0  0
    1.6213   13.4320   41.4135 C   0  0  0  0  0  0  0  0  0  0  0  0
    1.1669   13.1451   42.6832 C   0  0  0  0  0  0  0  0  0  0  0  0
    1.1433   11.8415   43.1566 C   0  0  0  0  0  0  0  0  0  0  0  0
    1.5745   10.7879   42.3716 C   0  0  0  0  0  0  0  0  0  0  0  0
    2.0273   11.0885   41.1019 C   0  0  0  0  0  0  0  0  0  0  0  0
    2.0454   12.3785   40.6467 C   0  0  0  0  0  0  0  0  0  0  0  0
    2.1083   15.0730   39.6016 C   0  0  0  0  0  0  0  0  0  0  0  0
    1.6876   19.9274   40.1953 C   0  0  0  0  0  0  0  0  0  0  0  0
    1.7010   21.2386   39.7425 C   0  0  0  0  0  0  0  0  0  0  0  0
    0.8630   18.2253   41.8004 N   0  0  0  0  0  0  0  0  0  0  0  0
    1.2697   15.8546   41.5519 N   0  0  0  0  0  0  0  0  0  0  0  0
    1.7066   23.9696   38.8187 O   0  0  0  0  0  0  0  0  0  0  0  0
    0.2477   24.4828   40.4718 O   0  0  0  0  0  0  0  0  0  0  0  0
    2.4743   21.6194   38.6546 O   0  0  0  0  0  0  0  0  0  0  0  0
    1.9242   16.8662   39.4907 S   0  0  0  0  0  0  0  0  0  0  0  0
    1.5641    9.1272   42.9202 Cl  0  0  0  0  0  0  0  0  0  0  0  0
   -0.4271   22.5232   41.9615 H   0  0  0  0  0  0  0  0  0  0  0  0
   -0.4577   20.2575   42.7509 H   0  0  0  0  0  0  0  0  0  0  0  0
    0.8160   13.9528   43.3371 H   0  0  0  0  0  0  0  0  0  0  0  0
    0.7862   11.5932   44.1604 H   0  0  0  0  0  0  0  0  0  0  0  0
    2.3766   10.2935   40.4464 H   0  0  0  0  0  0  0  0  0  0  0  0
    2.4119   12.5524   39.6406 H   0  0  0  0  0  0  0  0  0  0  0  0
    2.4803   14.4354   38.8346 H   0  0  0  0  0  0  0  0  0  0  0  0
    2.3080   19.2383   39.6715 H   0  0  0  0  0  0  0  0  0  0  0  0
    0.4657   18.1091   42.7810 H   0  0  0  0  0  0  0  0  0  0  0  0
  1  2  1  0
  1 19  1  0
  1 20  2  0
  2  3  1  0
  2 16  2  0
  3  4  2  0
  4  5  1  0
  5 15  2  0
  5 17  1  0
  6 17  1  0
  6 18  2  0
  6 22  1  0
  7  8  1  0
  7 14  2  0
  7 18  1  0
  8  9  1  0
  8 13  2  0
  9 10  2  0
 10 11  1  0
 11 12  2  0
 11 23  1  0
 12 13  1  0
 14 22  1  0
 15 16  1  0
 16 21  1  0
  3 24  1  0
  4 25  1  0
  9 26  1  0
 10 27  1  0
 12 28  1  0
 13 29  1  0
 14 30  1  0
 15 31  1  0
 17 32  1  0
M  CHG  2  19  -1  21  -1
M  END
>  <mol_id>  (60) 
2026-08-23-6tgu-s0-n100-r8-0060

>  <rmsd_to_ref>  (60) 
3.163265306124032

$$$$
6tgu.A
     RDKit          3D

 32 34  0  0  0  0  0  0  0  0999 V2000
    6.0899   17.8718   40.2884 C   0  0  0  0  0  0  0  0  0  0  0  0
    4.5851   18.0557   40.5036 C   0  0  0  0  0  0  0  0  0  0  0  0
    3.9367   19.1939   40.0296 C   0  0  0  0  0  0  0  0  0  0  0  0
    2.5429   19.3113   40.0374 C   0  0  0  0  0  0  0  0  0  0  0  0
    1.7589   18.3487   40.6898 C   0  0  0  0  0  0  0  0  0  0  0  0
   -0.6162   17.4459   40.7754 C   0  0  0  0  0  0  0  0  0  0  0  0
   -1.4681   15.3775   41.1896 C   0  0  0  0  0  0  0  0  0  0  0  0
   -1.4104   13.9793   41.6173 C   0  0  0  0  0  0  0  0  0  0  0  0
   -2.5123   13.1202   41.5004 C   0  0  0  0  0  0  0  0  0  0  0  0
   -2.4254   11.7850   41.8822 C   0  0  0  0  0  0  0  0  0  0  0  0
   -1.2136   11.3040   42.3411 C   0  0  0  0  0  0  0  0  0  0  0  0
   -0.0974   12.1171   42.4673 C   0  0  0  0  0  0  0  0  0  0  0  0
   -0.2076   13.4529   42.0909 C   0  0  0  0  0  0  0  0  0  0  0  0
   -2.5844   15.9717   40.6630 C   0  0  0  0  0  0  0  0  0  0  0  0
    2.3945   17.1918   41.1626 C   0  0  0  0  0  0  0  0  0  0  0  0
    3.7821   17.0714   41.0674 C   0  0  0  0  0  0  0  0  0  0  0  0
    0.3324   18.4199   40.6519 N   0  0  0  0  0  0  0  0  0  0  0  0
   -0.2950   16.1686   41.1829 N   0  0  0  0  0  0  0  0  0  0  0  0
    6.6583   18.7095   39.5280 O   0  0  0  0  0  0  0  0  0  0  0  0
    6.6190   16.8675   40.8128 O   0  0  0  0  0  0  0  0  0  0  0  0
    4.3828   15.8916   41.4377 O   0  0  0  0  0  0  0  0  0  0  0  0
   -2.2291   17.5599   40.0980 S   0  0  0  0  0  0  0  0  0  0  0  0
   -1.0791    9.6338   42.7816 Cl  0  0  0  0  0  0  0  0  0  0  0  0
    4.5394   20.0261   39.6370 H   0  0  0  0  0  0  0  0  0  0  0  0
    2.0607   20.1603   39.5308 H   0  0  0  0  0  0  0  0  0  0  0  0
   -3.4608   13.5079   41.1004 H   0  0  0  0  0  0  0  0  0  0  0  0
   -3.3035   11.1254   41.8200 H   0  0  0  0  0  0  0  0  0  0  0  0
    0.8510   11.7169   42.8551 H   0  0  0  0  0  0  0  0  0  0  0  0
    0.6727   14.1079   42.1683 H   0  0  0  0  0  0  0  0  0  0  0  0
   -3.5756   15.4979   40.6082 H   0  0  0  0  0  0  0  0  0  0  0  0
    1.8006   16.3801   41.6080 H   0  0  0  0  0  0  0  0  0  0  0  0
   -0.0444   19.3674   40.5066 H   0  0  0  0  0  0  0  0  0  0  0  0
  1  2  1  0
  1 19  1  0
  1 20  2  0
  2  3  1  0
  2 16  2  0
  3  4  2  0
  4  5  1  0
  5 15  2  0
  5 17  1  0
  6 17  1  0
  6 18  2  0
  6 22  1  0
  7  8  1  0
  7 14  2  0
  7 18  1  0
  8  9  1  0
  8 13  2  0
  9 10  2  0
 10 11  1  0
 11 12  2  0
 11 23  1  0
 12 13  1  0
 14 22  1  0
 15 16  1  0
 16 21  1  0
  3 24  1  0
  4 25  1  0
  9 26  1  0
 10 27  1  0
 12 28  1  0
 13 29  1  0
 14 30  1  0
 15 31  1  0
 17 32  1  0
M  CHG  2  19  -1  21  -1
M  END
>  <mol_id>  (61) 
2026-08-23-6tgu-s0-n100-r8-0061

>  <rmsd_to_ref>  (61) 
3.209183673473039

$$$$
6tgu.A
     RDKit          3D

 32 34  0  0  0  0  0  0  0  0999 V2000
    1.0275   23.7142   40.2333 C   0  0  0  0  0  0  0  0  0  0  0  0
    0.9538   22.3288   40.7032 C   0  0  0  0  0  0  0  0  0  0  0  0
    0.8296   22.0672   42.0599 C   0  0  0  0  0  0  0  0  0  0  0  0
    0.7615   20.7700   42.5192 C   0  0  0  0  0  0  0  0  0  0  0  0
    0.8133   19.6704   41.6547 C   0  0  0  0  0  0  0  0  0  0  0  0
    1.2840   17.2005   41.7149 C   0  0  0  0  0  0  0  0  0  0  0  0
    1.9972   15.0916   41.2594 C   0  0  0  0  0  0  0  0  0  0  0  0
    1.9840   13.6500   41.5957 C   0  0  0  0  0  0  0  0  0  0  0  0
    1.2590   13.1498   42.6467 C   0  0  0  0  0  0  0  0  0  0  0  0
    1.2338   11.8132   42.9681 C   0  0  0  0  0  0  0  0  0  0  0  0
    1.9599   10.9173   42.2171 C   0  0  0  0  0  0  0  0  0  0  0  0
    2.6866   11.4213   41.1634 C   0  0  0  0  0  0  0  0  0  0  0  0
    2.7105   12.7613   40.8428 C   0  0  0  0  0  0  0  0  0  0  0  0
    2.7461   15.6086   40.1738 C   0  0  0  0  0  0  0  0  0  0  0  0
    0.9352   19.9618   40.3237 C   0  0  0  0  0  0  0  0  0  0  0  0
    1.0053   21.2622   39.8439 C   0  0  0  0  0  0  0  0  0  0  0  0
    0.7214   18.3895   42.2181 N   0  0  0  0  0  0  0  0  0  0  0  0
    1.3431   15.9951   41.9064 N   0  0  0  0  0  0  0  0  0  0  0  0
    1.1517   23.9630   38.8723 O   0  0  0  0  0  0  0  0  0  0  0  0
    0.9803   24.6952   41.0429 O   0  0  0  0  0  0  0  0  0  0  0  0
    1.1291   21.5272   38.4824 O   0  0  0  0  0  0  0  0  0  0  0  0
    2.4436   17.3139   40.1863 S   0  0  0  0  0  0  0  0  0  0  0  0
    1.9402    9.2084   42.6099 Cl  0  0  0  0  0  0  0  0  0  0  0  0
    0.7854   22.8906   42.7745 H   0  0  0  0  0  0  0  0  0  0  0  0
    0.6651   20.6189   43.5809 H   0  0  0  0  0  0  0  0  0  0  0  0
    0.6885   13.8518   43.2369 H   0  0  0  0  0  0  0  0  0  0  0  0
    0.6297   11.5167   43.8169 H   0  0  0  0  0  0  0  0  0  0  0  0
    3.2538   10.7165   40.5764 H   0  0  0  0  0  0  0  0  0  0  0  0
    3.3162   13.0420   39.9948 H   0  0  0  0  0  0  0  0  0  0  0  0
    3.4046   14.9845   39.4609 H   0  0  0  0  0  0  0  0  0  0  0  0
    0.9696   19.1848   39.5788 H   0  0  0  0  0  0  0  0  0  0  0  0
    0.1733   18.2898   43.1142 H   0  0  0  0  0  0  0  0  0  0  0  0
  1  2  1  0
  1 19  1  0
  1 20  2  0
  2  3  1  0
  2 16  2  0
  3  4  2  0
  4  5  1  0
  5 15  2  0
  5 17  1  0
  6 17  1  0
  6 18  2  0
  6 22  1  0
  7  8  1  0
  7 14  2  0
  7 18  1  0
  8  9  1  0
  8 13  2  0
  9 10  2  0
 10 11  1  0
 11 12  2  0
 11 23  1  0
 12 13  1  0
 14 22  1  0
 15 16  1  0
 16 21  1  0
  3 24  1  0
  4 25  1  0
  9 26  1  0
 10 27  1  0
 12 28  1  0
 13 29  1  0
 14 30  1  0
 15 31  1  0
 17 32  1  0
M  CHG  2  19  -1  21  -1
M  END
>  <mol_id>  (62) 
2026-08-23-6tgu-s0-n100-r8-0062

>  <rmsd_to_ref>  (62) 
3.255102040816704

$$$$
6tgu.A
     RDKit          3D

 32 34  0  0  0  0  0  0  0  0999 V2000
    4.5732   22.2614   40.2640 C   0  0  0  0  0  0  0  0  0  0  0  0
    4.0407   21.1346   41.1537 C   0  0  0  0  0  0  0  0  0  0  0  0
    3.7511   21.3701   42.4958 C   0  0  0  0  0  0  0  0  0  0  0  0
    3.0892   20.4269   43.2886 C   0  0  0  0  0  0  0  0  0  0  0  0
    2.8514   19.1355   42.7959 C   0  0  0  0  0  0  0  0  0  0  0  0
    1.3817   17.0985   43.1878 C   0  0  0  0  0  0  0  0  0  0  0  0
    0.5239   15.5212   41.7906 C   0  0  0  0  0  0  0  0  0  0  0  0
    0.3825   14.8086   40.5204 C   0  0  0  0  0  0  0  0  0  0  0  0
   -0.5807   13.8070   40.3333 C   0  0  0  0  0  0  0  0  0  0  0  0
   -0.7205   13.1654   39.1066 C   0  0  0  0  0  0  0  0  0  0  0  0
    0.0818   13.5645   38.0543 C   0  0  0  0  0  0  0  0  0  0  0  0
    1.0430   14.5543   38.1937 C   0  0  0  0  0  0  0  0  0  0  0  0
    1.1752   15.1765   39.4321 C   0  0  0  0  0  0  0  0  0  0  0  0
   -0.2416   15.2706   42.8985 C   0  0  0  0  0  0  0  0  0  0  0  0
    3.1268   18.8853   41.4440 C   0  0  0  0  0  0  0  0  0  0  0  0
    3.7162   19.8773   40.6583 C   0  0  0  0  0  0  0  0  0  0  0  0
    2.1205   18.1815   43.5685 N   0  0  0  0  0  0  0  0  0  0  0  0
    1.4023   16.6258   41.8928 N   0  0  0  0  0  0  0  0  0  0  0  0
    4.5716   23.4246   40.7639 O   0  0  0  0  0  0  0  0  0  0  0  0
    4.8897   21.9575   39.0930 O   0  0  0  0  0  0  0  0  0  0  0  0
    3.8855   19.6581   39.3118 O   0  0  0  0  0  0  0  0  0  0  0  0
    0.0717   16.4249   44.1384 S   0  0  0  0  0  0  0  0  0  0  0  0
   -0.1088   12.8030   36.5098 Cl  0  0  0  0  0  0  0  0  0  0  0  0
    4.0523   22.3275   42.9460 H   0  0  0  0  0  0  0  0  0  0  0  0
    2.7545   20.6984   44.3006 H   0  0  0  0  0  0  0  0  0  0  0  0
   -1.2365   13.5238   41.1699 H   0  0  0  0  0  0  0  0  0  0  0  0
   -1.4548   12.3567   38.9769 H   0  0  0  0  0  0  0  0  0  0  0  0
    1.6846   14.8407   37.3474 H   0  0  0  0  0  0  0  0  0  0  0  0
    1.9209   15.9756   39.5556 H   0  0  0  0  0  0  0  0  0  0  0  0
   -0.9607   14.4427   42.9850 H   0  0  0  0  0  0  0  0  0  0  0  0
    2.8788   17.9085   41.0031 H   0  0  0  0  0  0  0  0  0  0  0  0
    2.1571   18.3375   44.5859 H   0  0  0  0  0  0  0  0  0  0  0  0
  1  2  1  0
  1 19  1  0
  1 20  2  0
  2  3  1  0
  2 16  2  0
  3  4  2  0
  4  5  1  0
  5 15  2  0
  5 17  1  0
  6 17  1  0
  6 18  2  0
  6 22  1  0
  7  8  1  0
  7 14  2  0
  7 18  1  0
  8  9  1  0
  8 13  2  0
  9 10  2  0
 10 11  1  0
 11 12  2  0
 11 23  1  0
 12 13  1  0
 14 22  1  0
 15 16  1  0
 16 21  1  0
  3 24  1  0
  4 25  1  0
  9 26  1  0
 10 27  1  0
 12 28  1  0
 13 29  1  0
 14 30  1  0
 15 31  1  0
 17 32  1  0
M  CHG  2  19  -1  21  -1
M  END
>  <mol_id>  (63) 
2026-08-23-6tgu-s0-n100-r8-0063

>  <rmsd_to_ref>  (63) 
3.301020408171285

$$$$
6tgu.A
     RDKit          3D

 32 34  0  0  0  0  0  0  0  0999 V2000
   -1.7813   19.5041   35.7608 C   0  0  0  0  0  0  0  0  0  0  0  0
   -0.7705   19.5156   36.8140 C   0  0  0  0  0  0  0  0  0  0  0  0
   -0.0609   20.6762   37.0643 C   0  0  0  0  0  0  0  0  0  0  0  0
    0.9067   20.7085   38.0522 C   0  0  0  0  0  0  0  0  0  0  0  0
    1.1563   19.5473   38.7960 C   0  0  0  0  0  0  0  0  0  0  0  0
    2.2138   18.4107   40.7105 C   0  0  0  0  0  0  0  0  0  0  0  0
    2.5432   16.4478   41.7886 C   0  0  0  0  0  0  0  0  0  0  0  0
    3.0441   15.0528   41.8141 C   0  0  0  0  0  0  0  0  0  0  0  0
    3.6605   14.4830   40.7290 C   0  0  0  0  0  0  0  0  0  0  0  0
    4.1156   13.1582   40.7620 C   0  0  0  0  0  0  0  0  0  0  0  0
    3.9497   12.3822   41.9094 C   0  0  0  0  0  0  0  0  0  0  0  0
    3.3391   12.9651   42.9698 C   0  0  0  0  0  0  0  0  0  0  0  0
    2.8901   14.2708   42.9379 C   0  0  0  0  0  0  0  0  0  0  0  0
    1.9081   16.9956   42.9177 C   0  0  0  0  0  0  0  0  0  0  0  0
    0.4365   18.3768   38.5406 C   0  0  0  0  0  0  0  0  0  0  0  0
   -0.5252   18.3623   37.5501 C   0  0  0  0  0  0  0  0  0  0  0  0
    2.1532   19.5063   39.8138 N   0  0  0  0  0  0  0  0  0  0  0  0
    2.6352   17.2333   40.7691 N   0  0  0  0  0  0  0  0  0  0  0  0
   -2.4909   18.3450   35.4976 O   0  0  0  0  0  0  0  0  0  0  0  0
   -2.0441   20.5221   35.0640 O   0  0  0  0  0  0  0  0  0  0  0  0
   -1.2528   17.2092   37.2793 O   0  0  0  0  0  0  0  0  0  0  0  0
    1.4897   18.6310   42.3987 S   0  0  0  0  0  0  0  0  0  0  0  0
    4.5051   10.7213   41.9909 Cl  0  0  0  0  0  0  0  0  0  0  0  0
   -0.2397   21.5878   36.4996 H   0  0  0  0  0  0  0  0  0  0  0  0
    1.4869   21.6073   38.2801 H   0  0  0  0  0  0  0  0  0  0  0  0
    3.8083   15.0348   39.8352 H   0  0  0  0  0  0  0  0  0  0  0  0
    4.5993   12.7262   39.8912 H   0  0  0  0  0  0  0  0  0  0  0  0
    3.1918   12.3972   43.8817 H   0  0  0  0  0  0  0  0  0  0  0  0
    2.4212   14.6602   43.8084 H   0  0  0  0  0  0  0  0  0  0  0  0
    1.7132   16.5513   43.8662 H   0  0  0  0  0  0  0  0  0  0  0  0
    0.6107   17.4618   39.1051 H   0  0  0  0  0  0  0  0  0  0  0  0
    2.8447   20.2915   39.8976 H   0  0  0  0  0  0  0  0  0  0  0  0
  1  2  1  0
  1 19  1  0
  1 20  2  0
  2  3  1  0
  2 16  2  0
  3  4  2  0
  4  5  1  0
  5 15  2  0
  5 17  1  0
  6 17  1  0
  6 18  2  0
  6 22  1  0
  7  8  1  0
  7 14  2  0
  7 18  1  0
  8  9  1  0
  8 13  2  0
  9 10  2  0
 10 11  1  0
 11 12  2  0
 11 23  1  0
 12 13  1  0
 14 22  1  0
 15 16  1  0
 16 21  1  0
  3 24  1  0
  4 25  1  0
  9 26  1  0
 10 27  1  0
 12 28  1  0
 13 29  1  0
 14 30  1  0
 15 31  1  0
 17 32  1  0
M  CHG  2  19  -1  21  -1
M  END
>  <mol_id>  (64) 
2026-08-23-6tgu-s0-n100-r8-0064

>  <rmsd_to_ref>  (64) 
3.346938775514206

$$$$
6tgu.A
     RDKit          3D

 32 34  0  0  0  0  0  0  0  0999 V2000
    6.9508   20.1630   40.2904 C   0  0  0  0  0  0  0  0  0  0  0  0
    5.4208   20.2208   40.2754 C   0  0  0  0  0  0  0  0  0  0  0  0
    4.7592   21.2854   39.6675 C   0  0  0  0  0  0  0  0  0  0  0  0
    3.3750   21.2812   39.4663 C   0  0  0  0  0  0  0  0  0  0  0  0
    2.5841   20.2715   40.0336 C   0  0  0  0  0  0  0  0  0  0  0  0
    0.3052   19.1680   39.8050 C   0  0  0  0  0  0  0  0  0  0  0  0
   -0.4262   17.0449   40.1698 C   0  0  0  0  0  0  0  0  0  0  0  0
   -0.3183   15.6688   40.6554 C   0  0  0  0  0  0  0  0  0  0  0  0
   -1.3160   14.7142   40.4117 C   0  0  0  0  0  0  0  0  0  0  0  0
   -1.1777   13.4022   40.8536 C   0  0  0  0  0  0  0  0  0  0  0  0
   -0.0127   13.0406   41.5036 C   0  0  0  0  0  0  0  0  0  0  0  0
    1.0015   13.9508   41.7605 C   0  0  0  0  0  0  0  0  0  0  0  0
    0.8394   15.2616   41.3203 C   0  0  0  0  0  0  0  0  0  0  0  0
   -1.4963   17.5257   39.4626 C   0  0  0  0  0  0  0  0  0  0  0  0
    3.2348   19.1871   40.6391 C   0  0  0  0  0  0  0  0  0  0  0  0
    4.6262   19.1855   40.7531 C   0  0  0  0  0  0  0  0  0  0  0  0
    1.1784   20.2173   39.7842 N   0  0  0  0  0  0  0  0  0  0  0  0
    0.6658   17.9346   40.3045 N   0  0  0  0  0  0  0  0  0  0  0  0
    7.5557   21.0267   39.5896 O   0  0  0  0  0  0  0  0  0  0  0  0
    7.4764   19.2226   40.9254 O   0  0  0  0  0  0  0  0  0  0  0  0
    5.2597   18.0725   41.2531 O   0  0  0  0  0  0  0  0  0  0  0  0
   -1.1923   19.1234   38.8945 S   0  0  0  0  0  0  0  0  0  0  0  0
    0.1912   11.4006   42.0236 Cl  0  0  0  0  0  0  0  0  0  0  0  0
    5.3434   22.1563   39.3355 H   0  0  0  0  0  0  0  0  0  0  0  0
    2.9058   22.0715   38.8619 H   0  0  0  0  0  0  0  0  0  0  0  0
   -2.2227   15.0074   39.8621 H   0  0  0  0  0  0  0  0  0  0  0  0
   -1.9795   12.6673   40.6891 H   0  0  0  0  0  0  0  0  0  0  0  0
    1.9109   13.6449   42.2983 H   0  0  0  0  0  0  0  0  0  0  0  0
    1.6414   15.9925   41.5005 H   0  0  0  0  0  0  0  0  0  0  0  0
   -2.4259   16.9662   39.2815 H   0  0  0  0  0  0  0  0  0  0  0  0
    2.6497   18.3388   41.0238 H   0  0  0  0  0  0  0  0  0  0  0  0
    0.7509   21.1243   39.5485 H   0  0  0  0  0  0  0  0  0  0  0  0
  1  2  1  0
  1 19  1  0
  1 20  2  0
  2  3  1  0
  2 16  2  0
  3  4  2  0
  4  5  1  0
  5 15  2  0
  5 17  1  0
  6 17  1  0
  6 18  2  0
  6 22  1  0
  7  8  1  0
  7 14  2  0
  7 18  1  0
  8  9  1  0
  8 13  2  0
  9 10  2  0
 10 11  1  0
 11 12  2  0
 11 23  1  0
 12 13  1  0
 14 22  1  0
 15 16  1  0
 16 21  1  0
  3 24  1  0
  4 25  1  0
  9 26  1  0
 10 27  1  0
 12 28  1  0
 13 29  1  0
 14 30  1  0
 15 31  1  0
 17 32  1  0
M  CHG  2  19  -1  21  -1
M  END
>  <mol_id>  (65) 
2026-08-23-6tgu-s0-n100-r8-0065

>  <rmsd_to_ref>  (65) 
3.3928571428634915

$$$$
6tgu.A
     RDKit          3D

 32 34  0  0  0  0  0  0  0  0999 V2000
    5.7664   21.7975   40.3529 C   0  0  0  0  0  0  0  0  0  0  0  0
    5.1744   20.4547   40.3209 C   0  0  0  0  0  0  0  0  0  0  0  0
    4.3483   20.0935   41.3607 C   0  0  0  0  0  0  0  0  0  0  0  0
    3.7460   18.8303   41.3984 C   0  0  0  0  0  0  0  0  0  0  0  0
    3.9970   17.9402   40.3630 C   0  0  0  0  0  0  0  0  0  0  0  0
    2.1289   16.3271   40.8169 C   0  0  0  0  0  0  0  0  0  0  0  0
    0.2232   15.3585   41.4952 C   0  0  0  0  0  0  0  0  0  0  0  0
   -0.5689   14.1320   41.7367 C   0  0  0  0  0  0  0  0  0  0  0  0
   -1.8530   14.1961   42.2358 C   0  0  0  0  0  0  0  0  0  0  0  0
   -2.6158   13.0676   42.4806 C   0  0  0  0  0  0  0  0  0  0  0  0
   -2.0989   11.8247   42.2261 C   0  0  0  0  0  0  0  0  0  0  0  0
   -0.8210   11.7304   41.7280 C   0  0  0  0  0  0  0  0  0  0  0  0
   -0.0530   12.8735   41.4817 C   0  0  0  0  0  0  0  0  0  0  0  0
   -0.3100   16.6247   41.7832 C   0  0  0  0  0  0  0  0  0  0  0  0
    4.8386   18.3118   39.3078 C   0  0  0  0  0  0  0  0  0  0  0  0
    5.4345   19.5683   39.2745 C   0  0  0  0  0  0  0  0  0  0  0  0
    3.4165   16.6451   40.3013 N   0  0  0  0  0  0  0  0  0  0  0  0
    1.4471   15.4269   41.0239 N   0  0  0  0  0  0  0  0  0  0  0  0
    6.6135   22.2620   39.3579 O   0  0  0  0  0  0  0  0  0  0  0  0
    5.5206   22.5959   41.3093 O   0  0  0  0  0  0  0  0  0  0  0  0
    6.2796   19.9533   38.2214 O   0  0  0  0  0  0  0  0  0  0  0  0
    0.9856   17.7476   41.3524 S   0  0  0  0  0  0  0  0  0  0  0  0
   -3.0925   10.4023   42.5497 Cl  0  0  0  0  0  0  0  0  0  0  0  0
    4.1194   20.7606   42.2005 H   0  0  0  0  0  0  0  0  0  0  0  0
    3.1216   18.5864   42.2328 H   0  0  0  0  0  0  0  0  0  0  0  0
   -2.3056   15.1385   42.4527 H   0  0  0  0  0  0  0  0  0  0  0  0
   -3.6166   13.1741   42.8748 H   0  0  0  0  0  0  0  0  0  0  0  0
   -0.4450   10.7336   41.5390 H   0  0  0  0  0  0  0  0  0  0  0  0
    0.9644   12.7615   41.0831 H   0  0  0  0  0  0  0  0  0  0  0  0
   -1.2919   16.8655   42.1806 H   0  0  0  0  0  0  0  0  0  0  0  0
    5.0531   17.6332   38.4838 H   0  0  0  0  0  0  0  0  0  0  0  0
    3.9416   15.8810   39.8606 H   0  0  0  0  0  0  0  0  0  0  0  0
  1  2  1  0
  1 19  1  0
  1 20  2  0
  2  3  1  0
  2 16  2  0
  3  4  2  0
  4  5  1  0
  5 15  2  0
  5 17  1  0
  6 17  1  0
  6 18  2  0
  6 22  1  0
  7  8  1  0
  7 14  2  0
  7 18  1  0
  8  9  1  0
  8 13  2  0
  9 10  2  0
 10 11  1  0
 11 12  2  0
 11 23  1  0
 12 13  1  0
 14 22  1  0
 15 16  1  0
 16 21  1  0
  3 24  1  0
  4 25  1  0
  9 26  1  0
 10 27  1  0
 12 28  1  0
 13 29  1  0
 14 30  1  0
 15 31  1  0
 17 32  1  0
M  CHG  2  19  -1  21  -1
M  END
>  <mol_id>  (66) 
2026-08-23-6tgu-s0-n100-r8-0066

>  <rmsd_to_ref>  (66) 
3.438775510210526

$$$$
6tgu.A
     RDKit          3D

 32 34  0  0  0  0  0  0  0  0999 V2000
    2.8945   16.7298   35.3943 C   0  0  0  0  0  0  0  0  0  0  0  0
    2.4388   17.6383   36.5395 C   0  0  0  0  0  0  0  0  0  0  0  0
    1.5915   18.7163   36.2927 C   0  0  0  0  0  0  0  0  0  0  0  0
    1.0041   19.4505   37.3282 C   0  0  0  0  0  0  0  0  0  0  0  0
    1.3935   19.2291   38.6572 C   0  0  0  0  0  0  0  0  0  0  0  0
    0.6041   19.5934   41.0462 C   0  0  0  0  0  0  0  0  0  0  0  0
    0.8981   18.4104   42.9671 C   0  0  0  0  0  0  0  0  0  0  0  0
    1.4929   17.3713   43.8084 C   0  0  0  0  0  0  0  0  0  0  0  0
    1.0443   17.1245   45.1137 C   0  0  0  0  0  0  0  0  0  0  0  0
    1.6014   16.1089   45.8844 C   0  0  0  0  0  0  0  0  0  0  0  0
    2.5817   15.3123   45.3233 C   0  0  0  0  0  0  0  0  0  0  0  0
    3.0508   15.5176   44.0345 C   0  0  0  0  0  0  0  0  0  0  0  0
    2.4886   16.5461   43.2833 C   0  0  0  0  0  0  0  0  0  0  0  0
   -0.1184   19.2346   43.3719 C   0  0  0  0  0  0  0  0  0  0  0  0
    2.2369   18.1412   38.9239 C   0  0  0  0  0  0  0  0  0  0  0  0
    2.7435   17.3782   37.8702 C   0  0  0  0  0  0  0  0  0  0  0  0
    0.7575   19.9249   39.7308 N   0  0  0  0  0  0  0  0  0  0  0  0
    1.2741   18.5274   41.6081 N   0  0  0  0  0  0  0  0  0  0  0  0
    2.3349   16.9102   34.2730 O   0  0  0  0  0  0  0  0  0  0  0  0
    3.7198   15.8334   35.6760 O   0  0  0  0  0  0  0  0  0  0  0  0
    3.4831   16.2532   38.1481 O   0  0  0  0  0  0  0  0  0  0  0  0
   -0.6905   20.1969   42.0626 S   0  0  0  0  0  0  0  0  0  0  0  0
    3.2560   14.0178   46.2567 Cl  0  0  0  0  0  0  0  0  0  0  0  0
    1.3780   18.9988   35.2513 H   0  0  0  0  0  0  0  0  0  0  0  0
    0.2351   20.2031   37.0997 H   0  0  0  0  0  0  0  0  0  0  0  0
    0.2388   17.7439   45.5352 H   0  0  0  0  0  0  0  0  0  0  0  0
    1.2685   15.9434   46.9197 H   0  0  0  0  0  0  0  0  0  0  0  0
    3.8468   14.8839   43.6165 H   0  0  0  0  0  0  0  0  0  0  0  0
    2.8368   16.7120   42.2532 H   0  0  0  0  0  0  0  0  0  0  0  0
   -0.5164   19.2764   44.3966 H   0  0  0  0  0  0  0  0  0  0  0  0
    2.4989   17.8891   39.9621 H   0  0  0  0  0  0  0  0  0  0  0  0
    0.3443   20.8309   39.4675 H   0  0  0  0  0  0  0  0  0  0  0  0
  1  2  1  0
  1 19  1  0
  1 20  2  0
  2  3  1  0
  2 16  2  0
  3  4  2  0
  4  5  1  0
  5 15  2  0
  5 17  1  0
  6 17  1  0
  6 18  2  0
  6 22  1  0
  7  8  1  0
  7 14  2  0
  7 18  1  0
  8  9  1  0
  8 13  2  0
  9 10  2  0
 10 11  1  0
 11 12  2  0
 11 23  1  0
 12 13  1  0
 14 22  1  0
 15 16  1  0
 16 21  1  0
  3 24  1  0
  4 25  1  0
  9 26  1  0
 10 27  1  0
 12 28  1  0
 13 29  1  0
 14 30  1  0
 15 31  1  0
 17 32  1  0
M  CHG  2  19  -1  21  -1
M  END
>  <mol_id>  (67) 
2026-08-23-6tgu-s0-n100-r8-0067

>  <rmsd_to_ref>  (67) 
3.484693877551651

$$$$
6tgu.A
     RDKit          3D

 32 34  0  0  0  0  0  0  0  0999 V2000
    5.3934   21.2400   38.4469 C   0  0  0  0  0  0  0  0  0  0  0  0
    4.4408   20.5187   39.2803 C   0  0  0  0  0  0  0  0  0  0  0  0
    3.9776   21.0106   40.4749 C   0  0  0  0  0  0  0  0  0  0  0  0
    3.0846   20.3096   41.2318 C   0  0  0  0  0  0  0  0  0  0  0  0
    2.5864   19.0538   40.8434 C   0  0  0  0  0  0  0  0  0  0  0  0
    0.7282   17.4470   41.3913 C   0  0  0  0  0  0  0  0  0  0  0  0
   -0.9111   15.9060   41.5207 C   0  0  0  0  0  0  0  0  0  0  0  0
   -1.8356   15.1164   42.3234 C   0  0  0  0  0  0  0  0  0  0  0  0
   -1.8781   15.2264   43.6958 C   0  0  0  0  0  0  0  0  0  0  0  0
   -2.7442   14.4891   44.4835 C   0  0  0  0  0  0  0  0  0  0  0  0
   -3.6107   13.5970   43.8626 C   0  0  0  0  0  0  0  0  0  0  0  0
   -3.5874   13.4686   42.4879 C   0  0  0  0  0  0  0  0  0  0  0  0
   -2.7080   14.2233   41.7426 C   0  0  0  0  0  0  0  0  0  0  0  0
   -0.8926   15.7657   40.0751 C   0  0  0  0  0  0  0  0  0  0  0  0
    3.0639   18.5826   39.6473 C   0  0  0  0  0  0  0  0  0  0  0  0
    3.9683   19.2900   38.8778 C   0  0  0  0  0  0  0  0  0  0  0  0
    1.6958   18.4292   41.7032 N   0  0  0  0  0  0  0  0  0  0  0  0
   -0.0472   16.7698   41.9248 N   0  0  0  0  0  0  0  0  0  0  0  0
    5.8918   22.4765   38.8159 O   0  0  0  0  0  0  0  0  0  0  0  0
    5.7516   20.6860   37.3609 O   0  0  0  0  0  0  0  0  0  0  0  0
    4.4103   18.7456   37.6683 O   0  0  0  0  0  0  0  0  0  0  0  0
    0.4210   16.9586   39.5890 S   0  0  0  0  0  0  0  0  0  0  0  0
   -4.7292   12.6354   44.7943 Cl  0  0  0  0  0  0  0  0  0  0  0  0
    4.3585   21.9884   40.7890 H   0  0  0  0  0  0  0  0  0  0  0  0
    2.7452   20.7460   42.1775 H   0  0  0  0  0  0  0  0  0  0  0  0
   -1.2060   15.9189   44.1854 H   0  0  0  0  0  0  0  0  0  0  0  0
   -2.7398   14.6121   45.5707 H   0  0  0  0  0  0  0  0  0  0  0  0
   -4.2569   12.7795   42.0103 H   0  0  0  0  0  0  0  0  0  0  0  0
   -2.7354   14.0803   40.6690 H   0  0  0  0  0  0  0  0  0  0  0  0
   -1.4451   15.1748   39.4653 H   0  0  0  0  0  0  0  0  0  0  0  0
    2.7516   17.6364   39.2803 H   0  0  0  0  0  0  0  0  0  0  0  0
    1.7200   18.7011   42.7354 H   0  0  0  0  0  0  0  0  0  0  0  0
  1  2  1  0
  1 19  1  0
  1 20  2  0
  2  3  1  0
  2 16  2  0
  3  4  2  0
  4  5  1  0
  5 15  2  0
  5 17  1  0
  6 17  1  0
  6 18  2  0
  6 22  1  0
  7  8  1  0
  7 14  2  0
  7 18  1  0
  8  9  1  0
  8 13  2  0
  9 10  2  0
 10 11  1  0
 11 12  2  0
 11 23  1  0
 12 13  1  0
 14 22  1  0
 15 16  1  0
 16 21  1  0
  3 24  1  0
  4 25  1  0
  9 26  1  0
 10 27  1  0
 12 28  1  0
 13 29  1  0
 14 30  1  0
 15 31  1  0
 17 32  1  0
M  CHG  2  19  -1  21  -1
M  END
>  <mol_id>  (68) 
2026-08-23-6tgu-s0-n100-r8-0068

>  <rmsd_to_ref>  (68) 
3.530612244902843

$$$$
6tgu.A
     RDKit          3D

 32 34  0  0  0  0  0  0  0  0999 V2000
    4.1751   21.2923   41.9995 C   0  0  0  0  0  0  0  0  0  0  0  0
    3.3462   20.1355   42.5645 C   0  0  0  0  0  0  0  0  0  0  0  0
    2.3923   20.3659   43.5533 C   0  0  0  0  0  0  0  0  0  0  0  0
    1.4889   19.3774   43.9574 C   0  0  0  0  0  0  0  0  0  0  0  0
    1.6336   18.0606   43.4971 C   0  0  0  0  0  0  0  0  0  0  0  0
    0.3259   15.8986   43.2164 C   0  0  0  0  0  0  0  0  0  0  0  0
    0.4259   14.2212   41.6827 C   0  0  0  0  0  0  0  0  0  0  0  0
    1.0095   13.4758   40.5670 C   0  0  0  0  0  0  0  0  0  0  0  0
    0.3558   12.3827   39.9805 C   0  0  0  0  0  0  0  0  0  0  0  0
    0.9132   11.7089   38.8983 C   0  0  0  0  0  0  0  0  0  0  0  0
    2.1100   12.1647   38.3783 C   0  0  0  0  0  0  0  0  0  0  0  0
    2.7873   13.2450   38.9236 C   0  0  0  0  0  0  0  0  0  0  0  0
    2.2188   13.8990   40.0132 C   0  0  0  0  0  0  0  0  0  0  0  0
   -0.7789   13.9178   42.2595 C   0  0  0  0  0  0  0  0  0  0  0  0
    2.5815   17.8140   42.4937 C   0  0  0  0  0  0  0  0  0  0  0  0
    3.4157   18.8442   42.0556 C   0  0  0  0  0  0  0  0  0  0  0  0
    0.6824   17.0545   43.8493 N   0  0  0  0  0  0  0  0  0  0  0  0
    1.0431   15.4070   42.1464 N   0  0  0  0  0  0  0  0  0  0  0  0
    3.8315   22.4588   42.3523 O   0  0  0  0  0  0  0  0  0  0  0  0
    5.0692   20.9996   41.1757 O   0  0  0  0  0  0  0  0  0  0  0  0
    4.2677   18.6183   41.0007 O   0  0  0  0  0  0  0  0  0  0  0  0
   -1.2325   15.1188   43.4083 S   0  0  0  0  0  0  0  0  0  0  0  0
    2.7959   11.3610   37.0053 Cl  0  0  0  0  0  0  0  0  0  0  0  0
    2.3481   21.3557   44.0310 H   0  0  0  0  0  0  0  0  0  0  0  0
    0.6632   19.6335   44.6376 H   0  0  0  0  0  0  0  0  0  0  0  0
   -0.6135   12.0526   40.3825 H   0  0  0  0  0  0  0  0  0  0  0  0
    0.4116   10.8310   38.4653 H   0  0  0  0  0  0  0  0  0  0  0  0
    3.7492   13.5768   38.5058 H   0  0  0  0  0  0  0  0  0  0  0  0
    2.7341   14.7684   40.4474 H   0  0  0  0  0  0  0  0  0  0  0  0
   -1.3771   13.0261   42.0210 H   0  0  0  0  0  0  0  0  0  0  0  0
    2.6677   16.8102   42.0523 H   0  0  0  0  0  0  0  0  0  0  0  0
    0.1800   17.2313   44.7309 H   0  0  0  0  0  0  0  0  0  0  0  0
  1  2  1  0
  1 19  1  0
  1 20  2  0
  2  3  1  0
  2 16  2  0
  3  4  2  0
  4  5  1  0
  5 15  2  0
  5 17  1  0
  6 17  1  0
  6 18  2  0
  6 22  1  0
  7  8  1  0
  7 14  2  0
  7 18  1  0
  8  9  1  0
  8 13  2  0
  9 10  2  0
 10 11  1  0
 11 12  2  0
 11 23  1  0
 12 13  1  0
 14 22  1  0
 15 16  1  0
 16 21  1  0
  3 24  1  0
  4 25  1  0
  9 26  1  0
 10 27  1  0
 12 28  1  0
 13 29  1  0
 14 30  1  0
 15 31  1  0
 17 32  1  0
M  CHG  2  19  -1  21  -1
M  END
>  <mol_id>  (69) 
2026-08-23-6tgu-s0-n100-r8-0069

>  <rmsd_to_ref>  (69) 
3.5765306122512777

$$$$
6tgu.A
     RDKit          3D

 32 34  0  0  0  0  0  0  0  0999 V2000
    1.7654   19.8783   34.5486 C   0  0  0  0  0  0  0  0  0  0  0  0
    1.9331   19.2258   35.8584 C   0  0  0  0  0  0  0  0  0  0  0  0
    1.5156   19.8546   37.0001 C   0  0  0  0  0  0  0  0  0  0  0  0
    1.6736   19.2385   38.2364 C   0  0  0  0  0  0  0  0  0  0  0  0
    2.2426   17.9984   38.3647 C   0  0  0  0  0  0  0  0  0  0  0  0
    1.7354   17.4744   40.7735 C   0  0  0  0  0  0  0  0  0  0  0  0
    1.1533   17.1714   42.9348 C   0  0  0  0  0  0  0  0  0  0  0  0
    1.3726   16.4525   44.2122 C   0  0  0  0  0  0  0  0  0  0  0  0
    0.6057   16.7480   45.3129 C   0  0  0  0  0  0  0  0  0  0  0  0
    0.8000   16.0850   46.5058 C   0  0  0  0  0  0  0  0  0  0  0  0
    1.7639   15.1069   46.6409 C   0  0  0  0  0  0  0  0  0  0  0  0
    2.5394   14.8011   45.5449 C   0  0  0  0  0  0  0  0  0  0  0  0
    2.3350   15.4757   44.3473 C   0  0  0  0  0  0  0  0  0  0  0  0
    0.1871   18.1376   42.8188 C   0  0  0  0  0  0  0  0  0  0  0  0
    2.6548   17.3936   37.1718 C   0  0  0  0  0  0  0  0  0  0  0  0
    2.5006   17.9974   35.9553 C   0  0  0  0  0  0  0  0  0  0  0  0
    2.4361   17.2741   39.5406 N   0  0  0  0  0  0  0  0  0  0  0  0
    1.8508   16.9348   41.8567 N   0  0  0  0  0  0  0  0  0  0  0  0
    1.1873   21.1271   34.4416 O   0  0  0  0  0  0  0  0  0  0  0  0
    2.1775   19.2376   33.5270 O   0  0  0  0  0  0  0  0  0  0  0  0
    2.9267   17.3560   34.7927 O   0  0  0  0  0  0  0  0  0  0  0  0
    0.4006   18.6448   41.0270 S   0  0  0  0  0  0  0  0  0  0  0  0
    1.9848   14.2795   48.1818 Cl  0  0  0  0  0  0  0  0  0  0  0  0
    1.0571   20.8424   36.9348 H   0  0  0  0  0  0  0  0  0  0  0  0
    1.3425   19.7767   39.0840 H   0  0  0  0  0  0  0  0  0  0  0  0
   -0.1689   17.5091   45.2655 H   0  0  0  0  0  0  0  0  0  0  0  0
    0.1970   16.3275   47.3466 H   0  0  0  0  0  0  0  0  0  0  0  0
    3.3103   14.0285   45.6279 H   0  0  0  0  0  0  0  0  0  0  0  0
    2.9302   15.2559   43.4661 H   0  0  0  0  0  0  0  0  0  0  0  0
   -0.5277   18.5726   43.4377 H   0  0  0  0  0  0  0  0  0  0  0  0
    3.1146   16.4091   37.2005 H   0  0  0  0  0  0  0  0  0  0  0  0
    3.1526   16.5086   39.5584 H   0  0  0  0  0  0  0  0  0  0  0  0
  1  2  1  0
  1 19  1  0
  1 20  2  0
  2  3  1  0
  2 16  2  0
  3  4  2  0
  4  5  1  0
  5 15  2  0
  5 17  1  0
  6 17  1  0
  6 18  2  0
  6 22  1  0
  7  8  1  0
  7 14  2  0
  7 18  1  0
  8  9  1  0
  8 13  2  0
  9 10  2  0
 10 11  1  0
 11 12  2  0
 11 23  1  0
 12 13  1  0
 14 22  1  0
 15 16  1  0
 16 21  1  0
  3 24  1  0
  4 25  1  0
  9 26  1  0
 10 27  1  0
 12 28  1  0
 13 29  1  0
 14 30  1  0
 15 31  1  0
 17 32  1  0
M  CHG  2  19  -1  21  -1
M  END
>  <mol_id>  (70) 
2026-08-23-6tgu-s0-n100-r8-0070

>  <rmsd_to_ref>  (70) 
3.622448979595581

$$$$
6tgu.A
     RDKit          3D

 32 34  0  0  0  0  0  0  0  0999 V2000
   -0.4498   20.8789   39.6525 C   0  0  0  0  0  0  0  0  0  0  0  0
   -0.2098   19.8809   40.7888 C   0  0  0  0  0  0  0  0  0  0  0  0
   -1.1312   19.7552   41.8260 C   0  0  0  0  0  0  0  0  0  0  0  0
   -1.0455   18.7308   42.7745 C   0  0  0  0  0  0  0  0  0  0  0  0
    0.0813   17.8967   42.8101 C   0  0  0  0  0  0  0  0  0  0  0  0
    0.8523   15.6340   43.6756 C   0  0  0  0  0  0  0  0  0  0  0  0
    2.3473   14.1085   42.8922 C   0  0  0  0  0  0  0  0  0  0  0  0
    3.4208   13.6279   42.0218 C   0  0  0  0  0  0  0  0  0  0  0  0
    3.8696   12.3000   42.0589 C   0  0  0  0  0  0  0  0  0  0  0  0
    4.8688   11.8555   41.1987 C   0  0  0  0  0  0  0  0  0  0  0  0
    5.3855   12.7389   40.2697 C   0  0  0  0  0  0  0  0  0  0  0  0
    4.9667   14.0588   40.1945 C   0  0  0  0  0  0  0  0  0  0  0  0
    3.9741   14.4875   41.0714 C   0  0  0  0  0  0  0  0  0  0  0  0
    1.7054   13.3293   43.8181 C   0  0  0  0  0  0  0  0  0  0  0  0
    1.0126   18.0027   41.7672 C   0  0  0  0  0  0  0  0  0  0  0  0
    0.8544   18.9871   40.7899 C   0  0  0  0  0  0  0  0  0  0  0  0
    0.1549   16.8063   43.7304 N   0  0  0  0  0  0  0  0  0  0  0  0
    1.8206   15.4104   42.7199 N   0  0  0  0  0  0  0  0  0  0  0  0
   -1.5837   21.4416   39.6249 O   0  0  0  0  0  0  0  0  0  0  0  0
    0.4582   20.9973   38.8008 O   0  0  0  0  0  0  0  0  0  0  0  0
    1.7132   19.0150   39.7169 O   0  0  0  0  0  0  0  0  0  0  0  0
    0.3764   14.1724   44.5186 S   0  0  0  0  0  0  0  0  0  0  0  0
    6.6012   12.1885   39.1648 Cl  0  0  0  0  0  0  0  0  0  0  0  0
   -1.9516   20.4841   41.9015 H   0  0  0  0  0  0  0  0  0  0  0  0
   -1.8636   18.5791   43.4940 H   0  0  0  0  0  0  0  0  0  0  0  0
    3.4246   11.5984   42.7798 H   0  0  0  0  0  0  0  0  0  0  0  0
    5.2401   10.8217   41.2568 H   0  0  0  0  0  0  0  0  0  0  0  0
    5.4077   14.7494   39.4606 H   0  0  0  0  0  0  0  0  0  0  0  0
    3.6179   15.5266   41.0141 H   0  0  0  0  0  0  0  0  0  0  0  0
    1.9995   12.3021   44.0795 H   0  0  0  0  0  0  0  0  0  0  0  0
    1.8667   17.3112   41.7191 H   0  0  0  0  0  0  0  0  0  0  0  0
   -0.4155   16.9249   44.5798 H   0  0  0  0  0  0  0  0  0  0  0  0
  1  2  1  0
  1 19  1  0
  1 20  2  0
  2  3  1  0
  2 16  2  0
  3  4  2  0
  4  5  1  0
  5 15  2  0
  5 17  1  0
  6 17  1  0
  6 18  2  0
  6 22  1  0
  7  8  1  0
  7 14  2  0
  7 18  1  0
  8  9  1  0
  8 13  2  0
  9 10  2  0
 10 11  1  0
 11 12  2  0
 11 23  1  0
 12 13  1  0
 14 22  1  0
 15 16  1  0
 16 21  1  0
  3 24  1  0
  4 25  1  0
  9 26  1  0
 10 27  1  0
 12 28  1  0
 13 29  1  0
 14 30  1  0
 15 31  1  0
 17 32  1  0
M  CHG  2  19  -1  21  -1
M  END
>  <mol_id>  (71) 
2026-08-23-6tgu-s0-n100-r8-0071

>  <rmsd_to_ref>  (71) 
3.6683673469478166

$$$$
6tgu.A
     RDKit          3D

 32 34  0  0  0  0  0  0  0  0999 V2000
   -0.2161   22.9793   41.4299 C   0  0  0  0  0  0  0  0  0  0  0  0
    0.0052   21.5975   40.9904 C   0  0  0  0  0  0  0  0  0  0  0  0
   -0.3071   20.5538   41.8543 C   0  0  0  0  0  0  0  0  0  0  0  0
   -0.0977   19.2315   41.4469 C   0  0  0  0  0  0  0  0  0  0  0  0
    0.4111   18.9130   40.2121 C   0  0  0  0  0  0  0  0  0  0  0  0
    0.9673   16.5558   40.6080 C   0  0  0  0  0  0  0  0  0  0  0  0
    1.4519   14.3721   41.2264 C   0  0  0  0  0  0  0  0  0  0  0  0
    1.6691   12.9228   40.9448 C   0  0  0  0  0  0  0  0  0  0  0  0
    1.5575   12.4428   39.6606 C   0  0  0  0  0  0  0  0  0  0  0  0
    1.7488   11.1180   39.3191 C   0  0  0  0  0  0  0  0  0  0  0  0
    2.0688   10.2549   40.3459 C   0  0  0  0  0  0  0  0  0  0  0  0
    2.1826   10.7343   41.6458 C   0  0  0  0  0  0  0  0  0  0  0  0
    1.9855   12.0546   41.9488 C   0  0  0  0  0  0  0  0  0  0  0  0
    1.5816   14.8152   42.5672 C   0  0  0  0  0  0  0  0  0  0  0  0
    0.7168   19.9629   39.3637 C   0  0  0  0  0  0  0  0  0  0  0  0
    0.5203   21.2938   39.7375 C   0  0  0  0  0  0  0  0  0  0  0  0
    0.6715   17.6082   39.7473 N   0  0  0  0  0  0  0  0  0  0  0  0
    1.1617   15.2135   40.3244 N   0  0  0  0  0  0  0  0  0  0  0  0
    0.1030   24.0097   40.5729 O   0  0  0  0  0  0  0  0  0  0  0  0
   -0.6831   23.2256   42.5562 O   0  0  0  0  0  0  0  0  0  0  0  0
    0.8409   22.3229   38.8526 O   0  0  0  0  0  0  0  0  0  0  0  0
    1.2328   16.6202   42.3895 S   0  0  0  0  0  0  0  0  0  0  0  0
    2.3452    8.5357   40.0771 Cl  0  0  0  0  0  0  0  0  0  0  0  0
   -0.7111   20.7488   42.8432 H   0  0  0  0  0  0  0  0  0  0  0  0
   -0.3658   18.4815   42.1492 H   0  0  0  0  0  0  0  0  0  0  0  0
    1.3091   13.1359   38.8855 H   0  0  0  0  0  0  0  0  0  0  0  0
    1.6591   10.7502   38.3066 H   0  0  0  0  0  0  0  0  0  0  0  0
    2.4308   10.0725   42.4594 H   0  0  0  0  0  0  0  0  0  0  0  0
    2.0880   12.3709   42.9849 H   0  0  0  0  0  0  0  0  0  0  0  0
    1.8184   14.3084   43.5070 H   0  0  0  0  0  0  0  0  0  0  0  0
    1.1295   19.7950   38.3568 H   0  0  0  0  0  0  0  0  0  0  0  0
    0.6451   17.4106   38.7215 H   0  0  0  0  0  0  0  0  0  0  0  0
  1  2  1  0
  1 19  1  0
  1 20  2  0
  2  3  1  0
  2 16  2  0
  3  4  2  0
  4  5  1  0
  5 15  2  0
  5 17  1  0
  6 17  1  0
  6 18  2  0
  6 22  1  0
  7  8  1  0
  7 14  2  0
  7 18  1  0
  8  9  1  0
  8 13  2  0
  9 10  2  0
 10 11  1  0
 11 12  2  0
 11 23  1  0
 12 13  1  0
 14 22  1  0
 15 16  1  0
 16 21  1  0
  3 24  1  0
  4 25  1  0
  9 26  1  0
 10 27  1  0
 12 28  1  0
 13 29  1  0
 14 30  1  0
 15 31  1  0
 17 32  1  0
M  CHG  2  19  -1  21  -1
M  END
>  <mol_id>  (72) 
2026-08-23-6tgu-s0-n100-r8-0072

>  <rmsd_to_ref>  (72) 
3.7142857142867416

$$$$
6tgu.A
     RDKit          3D

 32 34  0  0  0  0  0  0  0  0999 V2000
    6.8610   19.5048   38.8565 C   0  0  0  0  0  0  0  0  0  0  0  0
    5.3399   19.6802   38.8421 C   0  0  0  0  0  0  0  0  0  0  0  0
    4.7045   20.2539   37.7431 C   0  0  0  0  0  0  0  0  0  0  0  0
    3.3121   20.2586   37.6100 C   0  0  0  0  0  0  0  0  0  0  0  0
    2.5017   19.8363   38.6738 C   0  0  0  0  0  0  0  0  0  0  0  0
    0.1493   19.0124   39.1745 C   0  0  0  0  0  0  0  0  0  0  0  0
   -0.6838   17.5637   40.7182 C   0  0  0  0  0  0  0  0  0  0  0  0
   -0.6272   16.7162   41.9097 C   0  0  0  0  0  0  0  0  0  0  0  0
   -1.6958   15.8897   42.2853 C   0  0  0  0  0  0  0  0  0  0  0  0
   -1.6080   15.0664   43.4035 C   0  0  0  0  0  0  0  0  0  0  0  0
   -0.4255   15.0430   44.1187 C   0  0  0  0  0  0  0  0  0  0  0  0
    0.6577   15.8394   43.7790 C   0  0  0  0  0  0  0  0  0  0  0  0
    0.5463   16.6649   42.6636 C   0  0  0  0  0  0  0  0  0  0  0  0
   -1.7685   17.6425   39.8853 C   0  0  0  0  0  0  0  0  0  0  0  0
    3.1249   19.2461   39.7827 C   0  0  0  0  0  0  0  0  0  0  0  0
    4.5182   19.1858   39.8480 C   0  0  0  0  0  0  0  0  0  0  0  0
    1.0815   19.7744   38.5310 N   0  0  0  0  0  0  0  0  0  0  0  0
    0.4672   18.2662   40.2894 N   0  0  0  0  0  0  0  0  0  0  0  0
    7.4681   19.7483   37.7724 O   0  0  0  0  0  0  0  0  0  0  0  0
    7.3704   19.0599   39.9083 O   0  0  0  0  0  0  0  0  0  0  0  0
    5.1152   18.5133   40.8877 O   0  0  0  0  0  0  0  0  0  0  0  0
   -1.4070   18.5855   38.4896 S   0  0  0  0  0  0  0  0  0  0  0  0
   -0.2871   13.9923   45.4893 Cl  0  0  0  0  0  0  0  0  0  0  0  0
    5.3167   20.7176   36.9556 H   0  0  0  0  0  0  0  0  0  0  0  0
    2.8518   20.5942   36.6690 H   0  0  0  0  0  0  0  0  0  0  0  0
   -2.6185   15.8924   41.6864 H   0  0  0  0  0  0  0  0  0  0  0  0
   -2.4627   14.4464   43.7122 H   0  0  0  0  0  0  0  0  0  0  0  0
    1.5815   15.8195   44.3758 H   0  0  0  0  0  0  0  0  0  0  0  0
    1.4020   17.2906   42.3699 H   0  0  0  0  0  0  0  0  0  0  0  0
   -2.7408   17.1670   40.0815 H   0  0  0  0  0  0  0  0  0  0  0  0
    2.5169   18.8312   40.6000 H   0  0  0  0  0  0  0  0  0  0  0  0
    0.6952   20.4136   37.8218 H   0  0  0  0  0  0  0  0  0  0  0  0
  1  2  1  0
  1 19  1  0
  1 20  2  0
  2  3  1  0
  2 16  2  0
  3  4  2  0
  4  5  1  0
  5 15  2  0
  5 17  1  0
  6 17  1  0
  6 18  2  0
  6 22  1  0
  7  8  1  0
  7 14  2  0
  7 18  1  0
  8  9  1  0
  8 13  2  0
  9 10  2  0
 10 11  1  0
 11 12  2  0
 11 23  1  0
 12 13  1  0
 14 22  1  0
 15 16  1  0
 16 21  1  0
  3 24  1  0
  4 25  1  0
  9 26  1  0
 10 27  1  0
 12 28  1  0
 13 29  1  0
 14 30  1  0
 15 31  1  0
 17 32  1  0
M  CHG  2  19  -1  21  -1
M  END
>  <mol_id>  (73) 
2026-08-23-6tgu-s0-n100-r8-0073

>  <rmsd_to_ref>  (73) 
3.760204081636294

$$$$
6tgu.A
     RDKit          3D

 32 34  0  0  0  0  0  0  0  0999 V2000
   -1.8934   19.2075   36.0268 C   0  0  0  0  0  0  0  0  0  0  0  0
   -1.1274   19.3080   37.2315 C   0  0  0  0  0  0  0  0  0  0  0  0
   -1.4297   18.7168   38.4347 C   0  0  0  0  0  0  0  0  0  0  0  0
   -0.6251   18.8498   39.5703 C   0  0  0  0  0  0  0  0  0  0  0  0
    0.5264   19.5941   39.5359 C   0  0  0  0  0  0  0  0  0  0  0  0
    1.6776   19.0427   41.7284 C   0  0  0  0  0  0  0  0  0  0  0  0
    2.3034   17.5572   43.3154 C   0  0  0  0  0  0  0  0  0  0  0  0
    2.8682   16.2631   43.7123 C   0  0  0  0  0  0  0  0  0  0  0  0
    3.2640   15.3375   42.7808 C   0  0  0  0  0  0  0  0  0  0  0  0
    3.8362   14.1269   43.1298 C   0  0  0  0  0  0  0  0  0  0  0  0
    4.0298   13.8076   44.4521 C   0  0  0  0  0  0  0  0  0  0  0  0
    3.6432   14.7158   45.4125 C   0  0  0  0  0  0  0  0  0  0  0  0
    3.0724   15.9218   45.0401 C   0  0  0  0  0  0  0  0  0  0  0  0
    1.8716   18.4578   44.3569 C   0  0  0  0  0  0  0  0  0  0  0  0
    0.8415   20.2039   38.3056 C   0  0  0  0  0  0  0  0  0  0  0  0
    0.0390   20.0614   37.1948 C   0  0  0  0  0  0  0  0  0  0  0  0
    1.4377   19.7934   40.5752 N   0  0  0  0  0  0  0  0  0  0  0  0
    2.1253   18.0203   42.1294 N   0  0  0  0  0  0  0  0  0  0  0  0
   -3.0663   18.4652   36.0232 O   0  0  0  0  0  0  0  0  0  0  0  0
   -1.5056   19.7842   34.9846 O   0  0  0  0  0  0  0  0  0  0  0  0
    0.4363   20.7025   36.0135 O   0  0  0  0  0  0  0  0  0  0  0  0
    1.2443   19.9050   43.3877 S   0  0  0  0  0  0  0  0  0  0  0  0
    4.7557   12.2808   44.9685 Cl  0  0  0  0  0  0  0  0  0  0  0  0
   -2.3235   18.1366   38.4884 H   0  0  0  0  0  0  0  0  0  0  0  0
   -0.8782   18.3760   40.5144 H   0  0  0  0  0  0  0  0  0  0  0  0
    3.1225   15.5676   41.7207 H   0  0  0  0  0  0  0  0  0  0  0  0
    4.1314   13.4182   42.3776 H   0  0  0  0  0  0  0  0  0  0  0  0
    3.7718   14.5272   46.4738 H   0  0  0  0  0  0  0  0  0  0  0  0
    2.7897   16.6074   45.8202 H   0  0  0  0  0  0  0  0  0  0  0  0
    1.8843   18.3708   45.3761 H   0  0  0  0  0  0  0  0  0  0  0  0
    1.7344   20.8045   38.2082 H   0  0  0  0  0  0  0  0  0  0  0  0
    2.0538   20.6786   40.4952 H   0  0  0  0  0  0  0  0  0  0  0  0
  1  2  1  0
  1 19  1  0
  1 20  2  0
  2  3  1  0
  2 16  2  0
  3  4  2  0
  4  5  1  0
  5 15  2  0
  5 17  1  0
  6 17  1  0
  6 18  2  0
  6 22  1  0
  7  8  1  0
  7 14  2  0
  7 18  1  0
  8  9  1  0
  8 13  2  0
  9 10  2  0
 10 11  1  0
 11 12  2  0
 11 23  1  0
 12 13  1  0
 14 22  1  0
 15 16  1  0
 16 21  1  0
  3 24  1  0
  4 25  1  0
  9 26  1  0
 10 27  1  0
 12 28  1  0
 13 29  1  0
 14 30  1  0
 15 31  1  0
 17 32  1  0
M  CHG  2  19  -1  21  -1
M  END
>  <mol_id>  (74) 
2026-08-23-6tgu-s0-n100-r8-0074

>  <rmsd_to_ref>  (74) 
3.8061224489880643

$$$$
6tgu.A
     RDKit          3D

 32 34  0  0  0  0  0  0  0  0999 V2000
    6.4676   16.1997   39.2649 C   0  0  0  0  0  0  0  0  0  0  0  0
    5.4832   16.8997   40.2061 C   0  0  0  0  0  0  0  0  0  0  0  0
    5.5681   18.2729   40.4243 C   0  0  0  0  0  0  0  0  0  0  0  0
    4.5798   18.9761   41.1209 C   0  0  0  0  0  0  0  0  0  0  0  0
    3.5521   18.2826   41.7765 C   0  0  0  0  0  0  0  0  0  0  0  0
    1.2174   18.6200   42.7244 C   0  0  0  0  0  0  0  0  0  0  0  0
   -0.5867   17.2468   42.9117 C   0  0  0  0  0  0  0  0  0  0  0  0
   -1.2894   15.9642   42.8629 C   0  0  0  0  0  0  0  0  0  0  0  0
   -2.6755   15.8685   43.0516 C   0  0  0  0  0  0  0  0  0  0  0  0
   -3.3286   14.6427   42.9677 C   0  0  0  0  0  0  0  0  0  0  0  0
   -2.5904   13.5184   42.6495 C   0  0  0  0  0  0  0  0  0  0  0  0
   -1.2191   13.5687   42.4492 C   0  0  0  0  0  0  0  0  0  0  0  0
   -0.5822   14.8026   42.5488 C   0  0  0  0  0  0  0  0  0  0  0  0
   -1.1994   18.4467   43.1588 C   0  0  0  0  0  0  0  0  0  0  0  0
    3.4458   16.9016   41.5582 C   0  0  0  0  0  0  0  0  0  0  0  0
    4.4073   16.2421   40.7904 C   0  0  0  0  0  0  0  0  0  0  0  0
    2.5004   18.9882   42.4377 N   0  0  0  0  0  0  0  0  0  0  0  0
    0.7837   17.3208   42.5671 N   0  0  0  0  0  0  0  0  0  0  0  0
    7.2305   16.9487   38.5866 O   0  0  0  0  0  0  0  0  0  0  0  0
    6.3845   14.9548   39.1817 O   0  0  0  0  0  0  0  0  0  0  0  0
    4.2367   14.9100   40.4964 O   0  0  0  0  0  0  0  0  0  0  0  0
   -0.0991   19.7556   42.9491 S   0  0  0  0  0  0  0  0  0  0  0  0
   -3.3964   11.9920   42.5012 Cl  0  0  0  0  0  0  0  0  0  0  0  0
    6.4394   18.8213   40.0367 H   0  0  0  0  0  0  0  0  0  0  0  0
    4.6088   20.0752   41.1547 H   0  0  0  0  0  0  0  0  0  0  0  0
   -3.2560   16.7771   43.2696 H   0  0  0  0  0  0  0  0  0  0  0  0
   -4.4108   14.5700   43.1509 H   0  0  0  0  0  0  0  0  0  0  0  0
   -0.6491   12.6569   42.2176 H   0  0  0  0  0  0  0  0  0  0  0  0
    0.5025   14.8635   42.3761 H   0  0  0  0  0  0  0  0  0  0  0  0
   -2.2536   18.5595   43.4522 H   0  0  0  0  0  0  0  0  0  0  0  0
    2.6060   16.3387   41.9915 H   0  0  0  0  0  0  0  0  0  0  0  0
    2.7531   19.9361   42.7515 H   0  0  0  0  0  0  0  0  0  0  0  0
  1  2  1  0
  1 19  1  0
  1 20  2  0
  2  3  1  0
  2 16  2  0
  3  4  2  0
  4  5  1  0
  5 15  2  0
  5 17  1  0
  6 17  1  0
  6 18  2  0
  6 22  1  0
  7  8  1  0
  7 14  2  0
  7 18  1  0
  8  9  1  0
  8 13  2  0
  9 10  2  0
 10 11  1  0
 11 12  2  0
 11 23  1  0
 12 13  1  0
 14 22  1  0
 15 16  1  0
 16 21  1  0
  3 24  1  0
  4 25  1  0
  9 26  1  0
 10 27  1  0
 12 28  1  0
 13 29  1  0
 14 30  1  0
 15 31  1  0
 17 32  1  0
M  CHG  2  19  -1  21  -1
M  END
>  <mol_id>  (75) 
2026-08-23-6tgu-s0-n100-r8-0075

>  <rmsd_to_ref>  (75) 
3.852040816329624

$$$$
6tgu.A
     RDKit          3D

 32 34  0  0  0  0  0  0  0  0999 V2000
    2.8394   21.3788   36.6627 C   0  0  0  0  0  0  0  0  0  0  0  0
    2.6749   20.6340   37.9063 C   0  0  0  0  0  0  0  0  0  0  0  0
    1.4276   20.2453   38.3436 C   0  0  0  0  0  0  0  0  0  0  0  0
    1.2840   19.5432   39.5171 C   0  0  0  0  0  0  0  0  0  0  0  0
    2.3662   19.1882   40.3201 C   0  0  0  0  0  0  0  0  0  0  0  0
    2.9808   17.5952   42.1806 C   0  0  0  0  0  0  0  0  0  0  0  0
    3.9393   16.1680   43.6140 C   0  0  0  0  0  0  0  0  0  0  0  0
    3.8764   15.4298   44.8861 C   0  0  0  0  0  0  0  0  0  0  0  0
    4.8938   14.5993   45.2834 C   0  0  0  0  0  0  0  0  0  0  0  0
    4.8908   13.8875   46.4512 C   0  0  0  0  0  0  0  0  0  0  0  0
    3.8070   13.9924   47.3048 C   0  0  0  0  0  0  0  0  0  0  0  0
    2.7699   14.8209   46.9299 C   0  0  0  0  0  0  0  0  0  0  0  0
    2.7912   15.5335   45.7432 C   0  0  0  0  0  0  0  0  0  0  0  0
    5.0515   16.0419   42.7646 C   0  0  0  0  0  0  0  0  0  0  0  0
    3.5990   19.5844   39.8685 C   0  0  0  0  0  0  0  0  0  0  0  0
    3.7657   20.2982   38.6788 C   0  0  0  0  0  0  0  0  0  0  0  0
    2.0920   18.4929   41.4962 N   0  0  0  0  0  0  0  0  0  0  0  0
    3.0307   16.9763   43.1498 N   0  0  0  0  0  0  0  0  0  0  0  0
    4.1236   21.7477   36.2643 O   0  0  0  0  0  0  0  0  0  0  0  0
    1.8527   21.7013   35.9324 O   0  0  0  0  0  0  0  0  0  0  0  0
    5.0356   20.6772   38.2626 O   0  0  0  0  0  0  0  0  0  0  0  0
    4.6263   17.1319   41.3783 S   0  0  0  0  0  0  0  0  0  0  0  0
    3.8090   13.0784   48.8005 Cl  0  0  0  0  0  0  0  0  0  0  0  0
    0.5889   20.5224   37.7170 H   0  0  0  0  0  0  0  0  0  0  0  0
    0.2554   19.2699   39.7964 H   0  0  0  0  0  0  0  0  0  0  0  0
    5.7660   14.4873   44.6430 H   0  0  0  0  0  0  0  0  0  0  0  0
    5.7446   13.2417   46.7010 H   0  0  0  0  0  0  0  0  0  0  0  0
    1.9200   14.9026   47.5996 H   0  0  0  0  0  0  0  0  0  0  0  0
    1.9685   16.1851   45.4558 H   0  0  0  0  0  0  0  0  0  0  0  0
    5.9323   15.4737   42.8613 H   0  0  0  0  0  0  0  0  0  0  0  0
    4.4926   19.3762   40.4136 H   0  0  0  0  0  0  0  0  0  0  0  0
    1.1592   18.6048   41.9627 H   0  0  0  0  0  0  0  0  0  0  0  0
  1  2  1  0
  1 19  1  0
  1 20  2  0
  2  3  1  0
  2 16  2  0
  3  4  2  0
  4  5  1  0
  5 15  2  0
  5 17  1  0
  6 17  1  0
  6 18  2  0
  6 22  1  0
  7  8  1  0
  7 14  2  0
  7 18  1  0
  8  9  1  0
  8 13  2  0
  9 10  2  0
 10 11  1  0
 11 12  2  0
 11 23  1  0
 12 13  1  0
 14 22  1  0
 15 16  1  0
 16 21  1  0
  3 24  1  0
  4 25  1  0
  9 26  1  0
 10 27  1  0
 12 28  1  0
 13 29  1  0
 14 30  1  0
 15 31  1  0
 17 32  1  0
M  CHG  2  19  -1  21  -1
M  END
>  <mol_id>  (76) 
2026-08-23-6tgu-s0-n100-r8-0076

>  <rmsd_to_ref>  (76) 
3.8979591836740672

$$$$
6tgu.A
     RDKit          3D

 32 34  0  0  0  0  0  0  0  0999 V2000
    0.6377   18.9909   36.1697 C   0  0  0  0  0  0  0  0  0  0  0  0
    0.2263   18.9308   37.6434 C   0  0  0  0  0  0  0  0  0  0  0  0
   -1.1155   18.8134   37.9989 C   0  0  0  0  0  0  0  0  0  0  0  0
   -1.5151   18.5657   39.3163 C   0  0  0  0  0  0  0  0  0  0  0  0
   -0.5747   18.6024   40.3560 C   0  0  0  0  0  0  0  0  0  0  0  0
   -0.2237   17.8125   42.7469 C   0  0  0  0  0  0  0  0  0  0  0  0
    1.6286   17.1878   43.9108 C   0  0  0  0  0  0  0  0  0  0  0  0
    3.0664   17.0344   44.1349 C   0  0  0  0  0  0  0  0  0  0  0  0
    3.5765   16.3552   45.2505 C   0  0  0  0  0  0  0  0  0  0  0  0
    4.9469   16.1917   45.4268 C   0  0  0  0  0  0  0  0  0  0  0  0
    5.8029   16.6749   44.4550 C   0  0  0  0  0  0  0  0  0  0  0  0
    5.3411   17.3475   43.3337 C   0  0  0  0  0  0  0  0  0  0  0  0
    3.9671   17.5109   43.1810 C   0  0  0  0  0  0  0  0  0  0  0  0
    0.6659   16.7092   44.7596 C   0  0  0  0  0  0  0  0  0  0  0  0
    0.7811   18.7087   40.0145 C   0  0  0  0  0  0  0  0  0  0  0  0
    1.1517   18.8757   38.6788 C   0  0  0  0  0  0  0  0  0  0  0  0
   -0.9549   18.2887   41.6970 N   0  0  0  0  0  0  0  0  0  0  0  0
    1.1526   17.7452   42.7004 N   0  0  0  0  0  0  0  0  0  0  0  0
   -0.2722   18.7621   35.3194 O   0  0  0  0  0  0  0  0  0  0  0  0
    1.8496   19.1801   35.9267 O   0  0  0  0  0  0  0  0  0  0  0  0
    2.4851   18.8737   38.3445 O   0  0  0  0  0  0  0  0  0  0  0  0
   -0.9059   16.9034   44.0816 S   0  0  0  0  0  0  0  0  0  0  0  0
    7.5097   16.4427   44.6407 Cl  0  0  0  0  0  0  0  0  0  0  0  0
   -1.8846   18.9188   37.2196 H   0  0  0  0  0  0  0  0  0  0  0  0
   -2.5691   18.3417   39.5372 H   0  0  0  0  0  0  0  0  0  0  0  0
    2.8819   15.9449   45.9984 H   0  0  0  0  0  0  0  0  0  0  0  0
    5.3413   15.6880   46.3216 H   0  0  0  0  0  0  0  0  0  0  0  0
    6.0428   17.7419   42.5839 H   0  0  0  0  0  0  0  0  0  0  0  0
    3.5827   18.0270   42.2889 H   0  0  0  0  0  0  0  0  0  0  0  0
    0.8693   16.2605   45.7431 H   0  0  0  0  0  0  0  0  0  0  0  0
    1.5518   18.6605   40.7979 H   0  0  0  0  0  0  0  0  0  0  0  0
   -1.9504   18.4491   41.9075 H   0  0  0  0  0  0  0  0  0  0  0  0
  1  2  1  0
  1 19  1  0
  1 20  2  0
  2  3  1  0
  2 16  2  0
  3  4  2  0
  4  5  1  0
  5 15  2  0
  5 17  1  0
  6 17  1  0
  6 18  2  0
  6 22  1  0
  7  8  1  0
  7 14  2  0
  7 18  1  0
  8  9  1  0
  8 13  2  0
  9 10  2  0
 10 11  1  0
 11 12  2  0
 11 23  1  0
 12 13  1  0
 14 22  1  0
 15 16  1  0
 16 21  1  0
  3 24  1  0
  4 25  1  0
  9 26  1  0
 10 27  1  0
 12 28  1  0
 13 29  1  0
 14 30  1  0
 15 31  1  0
 17 32  1  0
M  CHG  2  19  -1  21  -1
M  END
>  <mol_id>  (77) 
2026-08-23-6tgu-s0-n100-r8-0077

>  <rmsd_to_ref>  (77) 
3.943877551022199

$$$$
6tgu.A
     RDKit          3D

 32 34  0  0  0  0  0  0  0  0999 V2000
   -0.7512   22.5377   38.4110 C   0  0  0  0  0  0  0  0  0  0  0  0
   -0.6435   21.2319   39.0233 C   0  0  0  0  0  0  0  0  0  0  0  0
    0.3997   20.8154   39.8149 C   0  0  0  0  0  0  0  0  0  0  0  0
    0.4475   19.5289   40.3734 C   0  0  0  0  0  0  0  0  0  0  0  0
   -0.5684   18.6404   40.1381 C   0  0  0  0  0  0  0  0  0  0  0  0
    0.4562   16.6504   41.2736 C   0  0  0  0  0  0  0  0  0  0  0  0
    2.3121   15.5007   41.8377 C   0  0  0  0  0  0  0  0  0  0  0  0
    3.5230   14.8094   41.3611 C   0  0  0  0  0  0  0  0  0  0  0  0
    4.4009   14.2324   42.2534 C   0  0  0  0  0  0  0  0  0  0  0  0
    5.5504   13.5832   41.7919 C   0  0  0  0  0  0  0  0  0  0  0  0
    5.8246   13.5098   40.4282 C   0  0  0  0  0  0  0  0  0  0  0  0
    4.9616   14.0777   39.5424 C   0  0  0  0  0  0  0  0  0  0  0  0
    3.8385   14.7092   40.0275 C   0  0  0  0  0  0  0  0  0  0  0  0
    1.9763   15.6217   43.1444 C   0  0  0  0  0  0  0  0  0  0  0  0
   -1.6100   19.0788   39.3404 C   0  0  0  0  0  0  0  0  0  0  0  0
   -1.6610   20.3315   38.7924 C   0  0  0  0  0  0  0  0  0  0  0  0
   -0.6314   17.3245   40.6140 N   0  0  0  0  0  0  0  0  0  0  0  0
    1.4429   16.0719   41.0354 N   0  0  0  0  0  0  0  0  0  0  0  0
    0.2180   23.5375   38.5721 O   0  0  0  0  0  0  0  0  0  0  0  0
   -1.7510   22.8063   37.6998 O   0  0  0  0  0  0  0  0  0  0  0  0
   -2.7677   20.6786   37.9903 O   0  0  0  0  0  0  0  0  0  0  0  0
    0.4317   16.5502   43.1747 S   0  0  0  0  0  0  0  0  0  0  0  0
    7.2821   12.6780   39.9044 Cl  0  0  0  0  0  0  0  0  0  0  0  0
    1.2014   21.5244   40.0005 H   0  0  0  0  0  0  0  0  0  0  0  0
    1.2668   19.2083   40.9985 H   0  0  0  0  0  0  0  0  0  0  0  0
    4.2339   14.2560   43.3126 H   0  0  0  0  0  0  0  0  0  0  0  0
    6.2257   13.1410   42.5096 H   0  0  0  0  0  0  0  0  0  0  0  0
    5.1538   14.0368   38.4737 H   0  0  0  0  0  0  0  0  0  0  0  0
    3.1540   15.1615   39.2949 H   0  0  0  0  0  0  0  0  0  0  0  0
    2.4926   15.2458   44.1026 H   0  0  0  0  0  0  0  0  0  0  0  0
   -2.4422   18.4035   39.1254 H   0  0  0  0  0  0  0  0  0  0  0  0
   -1.5000   16.7406   40.5155 H   0  0  0  0  0  0  0  0  0  0  0  0
  1  2  1  0
  1 19  1  0
  1 20  2  0
  2  3  1  0
  2 16  2  0
  3  4  2  0
  4  5  1  0
  5 15  2  0
  5 17  1  0
  6 17  1  0
  6 18  2  0
  6 22  1  0
  7  8  1  0
  7 14  2  0
  7 18  1  0
  8  9  1  0
  8 13  2  0
  9 10  2  0
 10 11  1  0
 11 12  2  0
 11 23  1  0
 12 13  1  0
 14 22  1  0
 15 16  1  0
 16 21  1  0
  3 24  1  0
  4 25  1  0
  9 26  1  0
 10 27  1  0
 12 28  1  0
 13 29  1  0
 14 30  1  0
 15 31  1  0
 17 32  1  0
M  CHG  2  19  -1  21  -1
M  END
>  <mol_id>  (78) 
2026-08-23-6tgu-s0-n100-r8-0078

>  <rmsd_to_ref>  (78) 
3.989795918368561

$$$$
6tgu.A
     RDKit          3D

 32 34  0  0  0  0  0  0  0  0999 V2000
    2.7965   20.4517   35.2219 C   0  0  0  0  0  0  0  0  0  0  0  0
    1.7664   19.7725   36.1287 C   0  0  0  0  0  0  0  0  0  0  0  0
    0.6917   19.0761   35.5805 C   0  0  0  0  0  0  0  0  0  0  0  0
   -0.1583   18.2877   36.3630 C   0  0  0  0  0  0  0  0  0  0  0  0
   -0.0558   18.3159   37.7614 C   0  0  0  0  0  0  0  0  0  0  0  0
   -0.6765   16.9701   39.8271 C   0  0  0  0  0  0  0  0  0  0  0  0
    0.3218   16.7034   41.8539 C   0  0  0  0  0  0  0  0  0  0  0  0
    1.2918   17.0079   42.9062 C   0  0  0  0  0  0  0  0  0  0  0  0
    1.3956   16.2312   44.0689 C   0  0  0  0  0  0  0  0  0  0  0  0
    2.3480   16.5185   45.0417 C   0  0  0  0  0  0  0  0  0  0  0  0
    3.2261   17.5631   44.8220 C   0  0  0  0  0  0  0  0  0  0  0  0
    3.1626   18.3531   43.6841 C   0  0  0  0  0  0  0  0  0  0  0  0
    2.1953   18.0567   42.7277 C   0  0  0  0  0  0  0  0  0  0  0  0
   -0.5696   15.6648   41.9114 C   0  0  0  0  0  0  0  0  0  0  0  0
    1.0269   19.0030   38.3287 C   0  0  0  0  0  0  0  0  0  0  0  0
    1.9047   19.7163   37.5105 C   0  0  0  0  0  0  0  0  0  0  0  0
   -0.8728   17.4689   38.5715 N   0  0  0  0  0  0  0  0  0  0  0  0
    0.3500   17.4164   40.6320 N   0  0  0  0  0  0  0  0  0  0  0  0
    2.7090   20.2044   33.9833 O   0  0  0  0  0  0  0  0  0  0  0  0
    3.6865   21.1281   35.7824 O   0  0  0  0  0  0  0  0  0  0  0  0
    3.0198   20.2983   38.0650 O   0  0  0  0  0  0  0  0  0  0  0  0
   -1.4168   15.4962   40.4209 S   0  0  0  0  0  0  0  0  0  0  0  0
    4.4437   17.9070   46.0056 Cl  0  0  0  0  0  0  0  0  0  0  0  0
    0.5057   19.1485   34.4988 H   0  0  0  0  0  0  0  0  0  0  0  0
   -0.9088   17.6442   35.8806 H   0  0  0  0  0  0  0  0  0  0  0  0
    0.7130   15.3809   44.2144 H   0  0  0  0  0  0  0  0  0  0  0  0
    2.4011   15.9262   45.9671 H   0  0  0  0  0  0  0  0  0  0  0  0
    3.8588   19.1926   43.5408 H   0  0  0  0  0  0  0  0  0  0  0  0
    2.1420   18.6625   41.8111 H   0  0  0  0  0  0  0  0  0  0  0  0
   -0.7238   15.0239   42.7920 H   0  0  0  0  0  0  0  0  0  0  0  0
    1.1844   18.9800   39.4172 H   0  0  0  0  0  0  0  0  0  0  0  0
   -1.7613   17.1864   38.1336 H   0  0  0  0  0  0  0  0  0  0  0  0
  1  2  1  0
  1 19  1  0
  1 20  2  0
  2  3  1  0
  2 16  2  0
  3  4  2  0
  4  5  1  0
  5 15  2  0
  5 17  1  0
  6 17  1  0
  6 18  2  0
  6 22  1  0
  7  8  1  0
  7 14  2  0
  7 18  1  0
  8  9  1  0
  8 13  2  0
  9 10  2  0
 10 11  1  0
 11 12  2  0
 11 23  1  0
 12 13  1  0
 14 22  1  0
 15 16  1  0
 16 21  1  0
  3 24  1  0
  4 25  1  0
  9 26  1  0
 10 27  1  0
 12 28  1  0
 13 29  1  0
 14 30  1  0
 15 31  1  0
 17 32  1  0
M  CHG  2  19  -1  21  -1
M  END
>  <mol_id>  (79) 
2026-08-23-6tgu-s0-n100-r8-0079

>  <rmsd_to_ref>  (79) 
4.035714285717278

$$$$
6tgu.A
     RDKit          3D

 32 34  0  0  0  0  0  0  0  0999 V2000
    0.1480   15.8867   35.3162 C   0  0  0  0  0  0  0  0  0  0  0  0
    0.8213   16.5913   36.4036 C   0  0  0  0  0  0  0  0  0  0  0  0
    1.0815   15.9424   37.5911 C   0  0  0  0  0  0  0  0  0  0  0  0
    1.7227   16.6632   38.5851 C   0  0  0  0  0  0  0  0  0  0  0  0
    2.1032   17.9758   38.4378 C   0  0  0  0  0  0  0  0  0  0  0  0
    3.0705   18.1523   40.6970 C   0  0  0  0  0  0  0  0  0  0  0  0
    3.3942   16.9116   42.5374 C   0  0  0  0  0  0  0  0  0  0  0  0
    3.2310   15.6075   43.2194 C   0  0  0  0  0  0  0  0  0  0  0  0
    2.6249   14.5310   42.6096 C   0  0  0  0  0  0  0  0  0  0  0  0
    2.4600   13.3068   43.2207 C   0  0  0  0  0  0  0  0  0  0  0  0
    2.9328   13.1771   44.5053 C   0  0  0  0  0  0  0  0  0  0  0  0
    3.5488   14.2160   45.1710 C   0  0  0  0  0  0  0  0  0  0  0  0
    3.6853   15.4235   44.5031 C   0  0  0  0  0  0  0  0  0  0  0  0
    4.0050   17.9797   43.1657 C   0  0  0  0  0  0  0  0  0  0  0  0
    1.8088   18.5656   37.2144 C   0  0  0  0  0  0  0  0  0  0  0  0
    1.1745   17.8961   36.1947 C   0  0  0  0  0  0  0  0  0  0  0  0
    2.7509   18.7510   39.4026 N   0  0  0  0  0  0  0  0  0  0  0  0
    2.9879   17.1515   41.3267 N   0  0  0  0  0  0  0  0  0  0  0  0
   -0.2527   14.5609   35.4242 O   0  0  0  0  0  0  0  0  0  0  0  0
   -0.0782   16.5023   34.2408 O   0  0  0  0  0  0  0  0  0  0  0  0
    0.9160   18.5594   34.9993 O   0  0  0  0  0  0  0  0  0  0  0  0
    3.9478   19.2653   41.9507 S   0  0  0  0  0  0  0  0  0  0  0  0
    2.7583   11.6469   45.3480 Cl  0  0  0  0  0  0  0  0  0  0  0  0
    0.8014   14.9149   37.7507 H   0  0  0  0  0  0  0  0  0  0  0  0
    1.9195   16.1549   39.4980 H   0  0  0  0  0  0  0  0  0  0  0  0
    2.2680   14.6940   41.5857 H   0  0  0  0  0  0  0  0  0  0  0  0
    1.9773   12.4963   42.6963 H   0  0  0  0  0  0  0  0  0  0  0  0
    3.9235   14.1232   46.1808 H   0  0  0  0  0  0  0  0  0  0  0  0
    4.1683   16.2198   45.0404 H   0  0  0  0  0  0  0  0  0  0  0  0
    4.4287   18.0432   44.1666 H   0  0  0  0  0  0  0  0  0  0  0  0
    2.0845   19.5992   37.0390 H   0  0  0  0  0  0  0  0  0  0  0  0
    3.0013   19.7424   39.1986 H   0  0  0  0  0  0  0  0  0  0  0  0
  1  2  1  0
  1 19  1  0
  1 20  2  0
  2  3  1  0
  2 16  2  0
  3  4  2  0
  4  5  1  0
  5 15  2  0
  5 17  1  0
  6 17  1  0
  6 18  2  0
  6 22  1  0
  7  8  1  0
  7 14  2  0
  7 18  1  0
  8  9  1  0
  8 13  2  0
  9 10  2  0
 10 11  1  0
 11 12  2  0
 11 23  1  0
 12 13  1  0
 14 22  1  0
 15 16  1  0
 16 21  1  0
  3 24  1  0
  4 25  1  0
  9 26  1  0
 10 27  1  0
 12 28  1  0
 13 29  1  0
 14 30  1  0
 15 31  1  0
 17 32  1  0
M  CHG  2  19  -1  21  -1
M  END
>  <mol_id>  (80) 
2026-08-23-6tgu-s0-n100-r8-0080

>  <rmsd_to_ref>  (80) 
4.081632653068193

$$$$
6tgu.A
     RDKit          3D

 32 34  0  0  0  0  0  0  0  0999 V2000
    7.7399   17.5893   41.7786 C   0  0  0  0  0  0  0  0  0  0  0  0
    6.2667   17.8728   42.0854 C   0  0  0  0  0  0  0  0  0  0  0  0
    5.8410   19.1673   42.3747 C   0  0  0  0  0  0  0  0  0  0  0  0
    4.4855   19.4982   42.4724 C   0  0  0  0  0  0  0  0  0  0  0  0
    3.5114   18.4894   42.4540 C   0  0  0  0  0  0  0  0  0  0  0  0
    1.0294   18.1310   42.0362 C   0  0  0  0  0  0  0  0  0  0  0  0
   -0.1568   16.3884   41.1807 C   0  0  0  0  0  0  0  0  0  0  0  0
   -0.3478   15.0154   40.7120 C   0  0  0  0  0  0  0  0  0  0  0  0
   -1.5517   14.5879   40.1342 C   0  0  0  0  0  0  0  0  0  0  0  0
   -1.7003   13.2867   39.6644 C   0  0  0  0  0  0  0  0  0  0  0  0
   -0.6197   12.4280   39.7368 C   0  0  0  0  0  0  0  0  0  0  0  0
    0.5905   12.8109   40.2950 C   0  0  0  0  0  0  0  0  0  0  0  0
    0.7159   14.1135   40.7698 C   0  0  0  0  0  0  0  0  0  0  0  0
   -1.1204   17.3600   41.1178 C   0  0  0  0  0  0  0  0  0  0  0  0
    3.9218   17.1828   42.1530 C   0  0  0  0  0  0  0  0  0  0  0  0
    5.2785   16.9010   41.9827 C   0  0  0  0  0  0  0  0  0  0  0  0
    2.1208   18.8154   42.4882 N   0  0  0  0  0  0  0  0  0  0  0  0
    1.1179   16.8205   41.6172 N   0  0  0  0  0  0  0  0  0  0  0  0
    8.4924   18.5980   41.6400 O   0  0  0  0  0  0  0  0  0  0  0  0
    8.0638   16.3933   41.6103 O   0  0  0  0  0  0  0  0  0  0  0  0
    5.6601   15.6414   41.5857 O   0  0  0  0  0  0  0  0  0  0  0  0
   -0.4822   18.8922   41.5790 S   0  0  0  0  0  0  0  0  0  0  0  0
   -0.7771   10.8172   39.1185 Cl  0  0  0  0  0  0  0  0  0  0  0  0
    6.5941   19.9536   42.5311 H   0  0  0  0  0  0  0  0  0  0  0  0
    4.1828   20.5518   42.5639 H   0  0  0  0  0  0  0  0  0  0  0  0
   -2.3922   15.2926   40.0510 H   0  0  0  0  0  0  0  0  0  0  0  0
   -2.6587   12.9482   39.2438 H   0  0  0  0  0  0  0  0  0  0  0  0
    1.4302   12.1033   40.3610 H   0  0  0  0  0  0  0  0  0  0  0  0
    1.6744   14.4392   41.2002 H   0  0  0  0  0  0  0  0  0  0  0  0
   -2.1629   17.1851   40.8133 H   0  0  0  0  0  0  0  0  0  0  0  0
    3.1758   16.3809   42.0513 H   0  0  0  0  0  0  0  0  0  0  0  0
    1.9049   19.7210   42.9288 H   0  0  0  0  0  0  0  0  0  0  0  0
  1  2  1  0
  1 19  1  0
  1 20  2  0
  2  3  1  0
  2 16  2  0
  3  4  2  0
  4  5  1  0
  5 15  2  0
  5 17  1  0
  6 17  1  0
  6 18  2  0
  6 22  1  0
  7  8  1  0
  7 14  2  0
  7 18  1  0
  8  9  1  0
  8 13  2  0
  9 10  2  0
 10 11  1  0
 11 12  2  0
 11 23  1  0
 12 13  1  0
 14 22  1  0
 15 16  1  0
 16 21  1  0
  3 24  1  0
  4 25  1  0
  9 26  1  0
 10 27  1  0
 12 28  1  0
 13 29  1  0
 14 30  1  0
 15 31  1  0
 17 32  1  0
M  CHG  2  19  -1  21  -1
M  END
>  <mol_id>  (81) 
2026-08-23-6tgu-s0-n100-r8-0081

>  <rmsd_to_ref>  (81) 
4.12755102041575

$$$$
6tgu.A
     RDKit          3D

 32 34  0  0  0  0  0  0  0  0999 V2000
    8.0703   19.4164   40.8017 C   0  0  0  0  0  0  0  0  0  0  0  0
    6.8050   19.0717   40.1666 C   0  0  0  0  0  0  0  0  0  0  0  0
    6.5272   19.3807   38.8533 C   0  0  0  0  0  0  0  0  0  0  0  0
    5.3004   19.0390   38.2697 C   0  0  0  0  0  0  0  0  0  0  0  0
    4.3357   18.3864   38.9889 C   0  0  0  0  0  0  0  0  0  0  0  0
    2.0728   17.4658   39.3813 C   0  0  0  0  0  0  0  0  0  0  0  0
    0.5926   16.5125   40.7939 C   0  0  0  0  0  0  0  0  0  0  0  0
   -0.0733   15.2663   41.2076 C   0  0  0  0  0  0  0  0  0  0  0  0
   -0.9882   15.3250   42.2498 C   0  0  0  0  0  0  0  0  0  0  0  0
   -1.6608   14.1926   42.7028 C   0  0  0  0  0  0  0  0  0  0  0  0
   -1.4150   12.9784   42.1055 C   0  0  0  0  0  0  0  0  0  0  0  0
   -0.5080   12.9308   41.0734 C   0  0  0  0  0  0  0  0  0  0  0  0
    0.1623   14.0504   40.6198 C   0  0  0  0  0  0  0  0  0  0  0  0
    0.3722   17.6965   41.3508 C   0  0  0  0  0  0  0  0  0  0  0  0
    4.6339   18.0834   40.3086 C   0  0  0  0  0  0  0  0  0  0  0  0
    5.8491   18.4205   40.8868 C   0  0  0  0  0  0  0  0  0  0  0  0
    3.0574   18.0288   38.4490 N   0  0  0  0  0  0  0  0  0  0  0  0
    1.4910   16.6276   39.8182 N   0  0  0  0  0  0  0  0  0  0  0  0
    8.2972   19.0808   42.1474 O   0  0  0  0  0  0  0  0  0  0  0  0
    8.9999   20.0242   40.1688 O   0  0  0  0  0  0  0  0  0  0  0  0
    6.0662   18.0749   42.2234 O   0  0  0  0  0  0  0  0  0  0  0  0
    1.4371   18.9288   40.4756 S   0  0  0  0  0  0  0  0  0  0  0  0
   -2.2441   11.5644   42.6564 Cl  0  0  0  0  0  0  0  0  0  0  0  0
    7.2810   19.9050   38.2475 H   0  0  0  0  0  0  0  0  0  0  0  0
    5.0691   19.2739   37.2431 H   0  0  0  0  0  0  0  0  0  0  0  0
   -1.1968   16.2888   42.7441 H   0  0  0  0  0  0  0  0  0  0  0  0
   -2.3608   14.3252   43.5182 H   0  0  0  0  0  0  0  0  0  0  0  0
   -0.2659   11.9987   40.5587 H   0  0  0  0  0  0  0  0  0  0  0  0
    0.8729   13.9740   39.8061 H   0  0  0  0  0  0  0  0  0  0  0  0
   -0.3117   18.0596   42.2169 H   0  0  0  0  0  0  0  0  0  0  0  0
    3.9001   17.5725   40.9054 H   0  0  0  0  0  0  0  0  0  0  0  0
    2.8130   18.1462   37.4411 H   0  0  0  0  0  0  0  0  0  0  0  0
  1  2  1  0
  1 19  1  0
  1 20  2  0
  2  3  1  0
  2 16  2  0
  3  4  2  0
  4  5  1  0
  5 15  2  0
  5 17  1  0
  6 17  1  0
  6 18  2  0
  6 22  1  0
  7  8  1  0
  7 14  2  0
  7 18  1  0
  8  9  1  0
  8 13  2  0
  9 10  2  0
 10 11  1  0
 11 12  2  0
 11 23  1  0
 12 13  1  0
 14 22  1  0
 15 16  1  0
 16 21  1  0
  3 24  1  0
  4 25  1  0
  9 26  1  0
 10 27  1  0
 12 28  1  0
 13 29  1  0
 14 30  1  0
 15 31  1  0
 17 32  1  0
M  CHG  2  19  -1  21  -1
M  END
>  <mol_id>  (82) 
2026-08-23-6tgu-s0-n100-r8-0082

>  <rmsd_to_ref>  (82) 
4.173469387759011

$$$$
6tgu.A
     RDKit          3D

 32 34  0  0  0  0  0  0  0  0999 V2000
    1.2382   21.3663   42.0051 C   0  0  0  0  0  0  0  0  0  0  0  0
    0.8294   19.9310   42.3481 C   0  0  0  0  0  0  0  0  0  0  0  0
   -0.4896   19.6320   42.6821 C   0  0  0  0  0  0  0  0  0  0  0  0
   -0.9409   18.3147   42.8152 C   0  0  0  0  0  0  0  0  0  0  0  0
   -0.0272   17.2512   42.7868 C   0  0  0  0  0  0  0  0  0  0  0  0
    0.0883   14.7401   42.4069 C   0  0  0  0  0  0  0  0  0  0  0  0
    1.6876   13.3835   41.5252 C   0  0  0  0  0  0  0  0  0  0  0  0
    3.0225   13.0584   41.0215 C   0  0  0  0  0  0  0  0  0  0  0  0
    3.3197   11.8107   40.4550 C   0  0  0  0  0  0  0  0  0  0  0  0
    4.5869   11.5343   39.9515 C   0  0  0  0  0  0  0  0  0  0  0  0
    5.5434   12.5317   39.9787 C   0  0  0  0  0  0  0  0  0  0  0  0
    5.2906   13.7813   40.5242 C   0  0  0  0  0  0  0  0  0  0  0  0
    4.0199   14.0347   41.0333 C   0  0  0  0  0  0  0  0  0  0  0  0
    0.6299   12.5132   41.5084 C   0  0  0  0  0  0  0  0  0  0  0  0
    1.3020   17.5337   42.4411 C   0  0  0  0  0  0  0  0  0  0  0  0
    1.7024   18.8555   42.2368 C   0  0  0  0  0  0  0  0  0  0  0  0
   -0.4787   15.8975   42.8570 N   0  0  0  0  0  0  0  0  0  0  0  0
    1.3881   14.6998   41.9492 N   0  0  0  0  0  0  0  0  0  0  0  0
    0.2993   22.2067   41.8807 O   0  0  0  0  0  0  0  0  0  0  0  0
    2.4533   21.5752   41.7967 O   0  0  0  0  0  0  0  0  0  0  0  0
    2.9793   19.1120   41.7970 O   0  0  0  0  0  0  0  0  0  0  0  0
   -0.8224   13.2983   42.0005 S   0  0  0  0  0  0  0  0  0  0  0  0
    7.1135   12.2155   39.3182 Cl  0  0  0  0  0  0  0  0  0  0  0  0
   -1.1981   20.4572   42.8462 H   0  0  0  0  0  0  0  0  0  0  0  0
   -2.0146   18.1126   42.9423 H   0  0  0  0  0  0  0  0  0  0  0  0
    2.5383   11.0378   40.4080 H   0  0  0  0  0  0  0  0  0  0  0  0
    4.8229   10.5419   39.5399 H   0  0  0  0  0  0  0  0  0  0  0  0
    6.0742   14.5528   40.5539 H   0  0  0  0  0  0  0  0  0  0  0  0
    3.7970   15.0262   41.4542 H   0  0  0  0  0  0  0  0  0  0  0  0
    0.6988   11.4541   41.2192 H   0  0  0  0  0  0  0  0  0  0  0  0
    2.0284   16.7150   42.3311 H   0  0  0  0  0  0  0  0  0  0  0  0
   -1.3867   15.7738   43.3272 H   0  0  0  0  0  0  0  0  0  0  0  0
  1  2  1  0
  1 19  1  0
  1 20  2  0
  2  3  1  0
  2 16  2  0
  3  4  2  0
  4  5  1  0
  5 15  2  0
  5 17  1  0
  6 17  1  0
  6 18  2  0
  6 22  1  0
  7  8  1  0
  7 14  2  0
  7 18  1  0
  8  9  1  0
  8 13  2  0
  9 10  2  0
 10 11  1  0
 11 12  2  0
 11 23  1  0
 12 13  1  0
 14 22  1  0
 15 16  1  0
 16 21  1  0
  3 24  1  0
  4 25  1  0
  9 26  1  0
 10 27  1  0
 12 28  1  0
 13 29  1  0
 14 30  1  0
 15 31  1  0
 17 32  1  0
M  CHG  2  19  -1  21  -1
M  END
>  <mol_id>  (83) 
2026-08-23-6tgu-s0-n100-r8-0083

>  <rmsd_to_ref>  (83) 
4.219387755107904

$$$$
6tgu.A
     RDKit          3D

 32 34  0  0  0  0  0  0  0  0999 V2000
   -0.5005   20.1010   34.3128 C   0  0  0  0  0  0  0  0  0  0  0  0
   -0.1620   19.3367   35.5096 C   0  0  0  0  0  0  0  0  0  0  0  0
    0.3201   19.9945   36.6221 C   0  0  0  0  0  0  0  0  0  0  0  0
    0.6496   19.2835   37.7755 C   0  0  0  0  0  0  0  0  0  0  0  0
    0.5202   17.9248   37.8792 C   0  0  0  0  0  0  0  0  0  0  0  0
    0.8167   17.5356   40.3517 C   0  0  0  0  0  0  0  0  0  0  0  0
    1.0127   17.5861   42.5976 C   0  0  0  0  0  0  0  0  0  0  0  0
    1.3780   16.8748   43.8320 C   0  0  0  0  0  0  0  0  0  0  0  0
    1.8320   15.5717   43.8315 C   0  0  0  0  0  0  0  0  0  0  0  0
    2.1807   14.8792   44.9569 C   0  0  0  0  0  0  0  0  0  0  0  0
    2.0760   15.5117   46.1689 C   0  0  0  0  0  0  0  0  0  0  0  0
    1.6247   16.8186   46.2115 C   0  0  0  0  0  0  0  0  0  0  0  0
    1.2789   17.4951   45.0577 C   0  0  0  0  0  0  0  0  0  0  0  0
    0.5590   18.8937   42.6183 C   0  0  0  0  0  0  0  0  0  0  0  0
    0.0289   17.2713   36.7388 C   0  0  0  0  0  0  0  0  0  0  0  0
   -0.2997   17.9658   35.5928 C   0  0  0  0  0  0  0  0  0  0  0  0
    0.8043   17.1319   38.9926 N   0  0  0  0  0  0  0  0  0  0  0  0
    1.0807   17.0648   41.4018 N   0  0  0  0  0  0  0  0  0  0  0  0
   -0.9848   19.4774   33.1836 O   0  0  0  0  0  0  0  0  0  0  0  0
   -0.3547   21.3564   34.2907 O   0  0  0  0  0  0  0  0  0  0  0  0
   -0.7825   17.2786   34.4877 O   0  0  0  0  0  0  0  0  0  0  0  0
    0.2572   19.2732   40.8361 S   0  0  0  0  0  0  0  0  0  0  0  0
    2.4914   14.7342   47.6835 Cl  0  0  0  0  0  0  0  0  0  0  0  0
    0.4429   21.0845   36.5928 H   0  0  0  0  0  0  0  0  0  0  0  0
    1.0280   19.8653   38.5897 H   0  0  0  0  0  0  0  0  0  0  0  0
    1.9161   15.0685   42.8748 H   0  0  0  0  0  0  0  0  0  0  0  0
    2.5319   13.8621   44.9248 H   0  0  0  0  0  0  0  0  0  0  0  0
    1.5235   17.3649   47.1453 H   0  0  0  0  0  0  0  0  0  0  0  0
    0.9246   18.5316   45.1278 H   0  0  0  0  0  0  0  0  0  0  0  0
    0.3824   19.6191   43.4193 H   0  0  0  0  0  0  0  0  0  0  0  0
   -0.0971   16.1870   36.7570 H   0  0  0  0  0  0  0  0  0  0  0  0
    1.0436   16.1062   38.8402 H   0  0  0  0  0  0  0  0  0  0  0  0
  1  2  1  0
  1 19  1  0
  1 20  2  0
  2  3  1  0
  2 16  2  0
  3  4  2  0
  4  5  1  0
  5 15  2  0
  5 17  1  0
  6 17  1  0
  6 18  2  0
  6 22  1  0
  7  8  1  0
  7 14  2  0
  7 18  1  0
  8  9  1  0
  8 13  2  0
  9 10  2  0
 10 11  1  0
 11 12  2  0
 11 23  1  0
 12 13  1  0
 14 22  1  0
 15 16  1  0
 16 21  1  0
  3 24  1  0
  4 25  1  0
  9 26  1  0
 10 27  1  0
 12 28  1  0
 13 29  1  0
 14 30  1  0
 15 31  1  0
 17 32  1  0
M  CHG  2  19  -1  21  -1
M  END
>  <mol_id>  (84) 
2026-08-23-6tgu-s0-n100-r8-0084

>  <rmsd_to_ref>  (84) 
4.265306122450466

$$$$
6tgu.A
     RDKit          3D

 32 34  0  0  0  0  0  0  0  0999 V2000
    7.2011   18.1856   41.3433 C   0  0  0  0  0  0  0  0  0  0  0  0
    5.9210   18.1066   42.1798 C   0  0  0  0  0  0  0  0  0  0  0  0
    5.7274   18.9653   43.2595 C   0  0  0  0  0  0  0  0  0  0  0  0
    4.5012   19.0541   43.9265 C   0  0  0  0  0  0  0  0  0  0  0  0
    3.4737   18.1452   43.6349 C   0  0  0  0  0  0  0  0  0  0  0  0
    0.9577   17.8531   43.8532 C   0  0  0  0  0  0  0  0  0  0  0  0
   -0.5915   16.7944   42.5669 C   0  0  0  0  0  0  0  0  0  0  0  0
   -1.0447   15.9144   41.4892 C   0  0  0  0  0  0  0  0  0  0  0  0
   -2.4014   15.7762   41.1632 C   0  0  0  0  0  0  0  0  0  0  0  0
   -2.8078   14.9597   40.1125 C   0  0  0  0  0  0  0  0  0  0  0  0
   -1.8426   14.3161   39.3611 C   0  0  0  0  0  0  0  0  0  0  0  0
   -0.4900   14.4293   39.6450 C   0  0  0  0  0  0  0  0  0  0  0  0
   -0.1041   15.2420   40.7074 C   0  0  0  0  0  0  0  0  0  0  0  0
   -1.4319   17.5363   43.3542 C   0  0  0  0  0  0  0  0  0  0  0  0
    3.6481   17.2817   42.5440 C   0  0  0  0  0  0  0  0  0  0  0  0
    4.8585   17.2743   41.8484 C   0  0  0  0  0  0  0  0  0  0  0  0
    2.1947   18.2624   44.2607 N   0  0  0  0  0  0  0  0  0  0  0  0
    0.7907   17.0227   42.7655 N   0  0  0  0  0  0  0  0  0  0  0  0
    7.9713   19.1622   41.5802 O   0  0  0  0  0  0  0  0  0  0  0  0
    7.3435   17.3299   40.4427 O   0  0  0  0  0  0  0  0  0  0  0  0
    4.9813   16.5007   40.7187 O   0  0  0  0  0  0  0  0  0  0  0  0
   -0.5409   18.5933   44.3821 S   0  0  0  0  0  0  0  0  0  0  0  0
   -2.3314   13.3285   38.0242 Cl  0  0  0  0  0  0  0  0  0  0  0  0
    6.5649   19.5931   43.5980 H   0  0  0  0  0  0  0  0  0  0  0  0
    4.3424   19.8383   44.6813 H   0  0  0  0  0  0  0  0  0  0  0  0
   -3.1566   16.3222   41.7477 H   0  0  0  0  0  0  0  0  0  0  0  0
   -3.8759   14.8290   39.8844 H   0  0  0  0  0  0  0  0  0  0  0  0
    0.2590   13.8906   39.0459 H   0  0  0  0  0  0  0  0  0  0  0  0
    0.9658   15.3567   40.9358 H   0  0  0  0  0  0  0  0  0  0  0  0
   -2.5295   17.4664   43.3329 H   0  0  0  0  0  0  0  0  0  0  0  0
    2.8322   16.6109   42.2367 H   0  0  0  0  0  0  0  0  0  0  0  0
    2.2082   18.7365   45.1750 H   0  0  0  0  0  0  0  0  0  0  0  0
  1  2  1  0
  1 19  1  0
  1 20  2  0
  2  3  1  0
  2 16  2  0
  3  4  2  0
  4  5  1  0
  5 15  2  0
  5 17  1  0
  6 17  1  0
  6 18  2  0
  6 22  1  0
  7  8  1  0
  7 14  2  0
  7 18  1  0
  8  9  1  0
  8 13  2  0
  9 10  2  0
 10 11  1  0
 11 12  2  0
 11 23  1  0
 12 13  1  0
 14 22  1  0
 15 16  1  0
 16 21  1  0
  3 24  1  0
  4 25  1  0
  9 26  1  0
 10 27  1  0
 12 28  1  0
 13 29  1  0
 14 30  1  0
 15 31  1  0
 17 32  1  0
M  CHG  2  19  -1  21  -1
M  END
>  <mol_id>  (85) 
2026-08-23-6tgu-s0-n100-r8-0085

>  <rmsd_to_ref>  (85) 
4.311224489797604

$$$$
6tgu.A
     RDKit          3D

 32 34  0  0  0  0  0  0  0  0999 V2000
   -2.4455   22.1224   39.7502 C   0  0  0  0  0  0  0  0  0  0  0  0
   -1.5309   21.1813   40.3859 C   0  0  0  0  0  0  0  0  0  0  0  0
   -1.7248   20.8472   41.7023 C   0  0  0  0  0  0  0  0  0  0  0  0
   -0.8918   19.9610   42.3436 C   0  0  0  0  0  0  0  0  0  0  0  0
    0.1947   19.3536   41.6931 C   0  0  0  0  0  0  0  0  0  0  0  0
    1.7272   17.3581   41.9483 C   0  0  0  0  0  0  0  0  0  0  0  0
    3.0412   15.5520   41.7086 C   0  0  0  0  0  0  0  0  0  0  0  0
    3.9292   14.5727   42.3444 C   0  0  0  0  0  0  0  0  0  0  0  0
    4.2303   14.5893   43.6887 C   0  0  0  0  0  0  0  0  0  0  0  0
    5.0613   13.6736   44.2979 C   0  0  0  0  0  0  0  0  0  0  0  0
    5.6339   12.6725   43.5235 C   0  0  0  0  0  0  0  0  0  0  0  0
    5.3364   12.6538   42.1880 C   0  0  0  0  0  0  0  0  0  0  0  0
    4.5153   13.5625   41.5993 C   0  0  0  0  0  0  0  0  0  0  0  0
    2.7490   15.4922   40.3576 C   0  0  0  0  0  0  0  0  0  0  0  0
    0.3642   19.7061   40.3830 C   0  0  0  0  0  0  0  0  0  0  0  0
   -0.4702   20.5968   39.7306 C   0  0  0  0  0  0  0  0  0  0  0  0
    0.9703   18.4861   42.4516 N   0  0  0  0  0  0  0  0  0  0  0  0
    2.4271   16.5597   42.3174 N   0  0  0  0  0  0  0  0  0  0  0  0
   -2.3056   22.4956   38.4134 O   0  0  0  0  0  0  0  0  0  0  0  0
   -3.4168   22.6468   40.3907 O   0  0  0  0  0  0  0  0  0  0  0  0
   -0.2649   20.9321   38.3891 O   0  0  0  0  0  0  0  0  0  0  0  0
    1.5890   16.9347   40.1093 S   0  0  0  0  0  0  0  0  0  0  0  0
    6.6865   11.5120   44.3039 Cl  0  0  0  0  0  0  0  0  0  0  0  0
   -2.5516   21.2803   42.2777 H   0  0  0  0  0  0  0  0  0  0  0  0
   -1.0935   19.7331   43.3891 H   0  0  0  0  0  0  0  0  0  0  0  0
    3.7841   15.3714   44.2956 H   0  0  0  0  0  0  0  0  0  0  0  0
    5.2545   13.7492   45.3732 H   0  0  0  0  0  0  0  0  0  0  0  0
    5.7890   11.8667   41.5927 H   0  0  0  0  0  0  0  0  0  0  0  0
    4.3357   13.4719   40.5352 H   0  0  0  0  0  0  0  0  0  0  0  0
    3.0362   14.8510   39.5546 H   0  0  0  0  0  0  0  0  0  0  0  0
    1.1728   19.3048   39.8174 H   0  0  0  0  0  0  0  0  0  0  0  0
    1.0525   18.6142   43.4851 H   0  0  0  0  0  0  0  0  0  0  0  0
  1  2  1  0
  1 19  1  0
  1 20  2  0
  2  3  1  0
  2 16  2  0
  3  4  2  0
  4  5  1  0
  5 15  2  0
  5 17  1  0
  6 17  1  0
  6 18  2  0
  6 22  1  0
  7  8  1  0
  7 14  2  0
  7 18  1  0
  8  9  1  0
  8 13  2  0
  9 10  2  0
 10 11  1  0
 11 12  2  0
 11 23  1  0
 12 13  1  0
 14 22  1  0
 15 16  1  0
 16 21  1  0
  3 24  1  0
  4 25  1  0
  9 26  1  0
 10 27  1  0
 12 28  1  0
 13 29  1  0
 14 30  1  0
 15 31  1  0
 17 32  1  0
M  CHG  2  19  -1  21  -1
M  END
>  <mol_id>  (86) 
2026-08-23-6tgu-s0-n100-r8-0086

>  <rmsd_to_ref>  (86) 
4.357142857146639

$$$$
6tgu.A
     RDKit          3D

 32 34  0  0  0  0  0  0  0  0999 V2000
    1.8299   21.6396   40.9223 C   0  0  0  0  0  0  0  0  0  0  0  0
    1.1036   20.2992   40.7788 C   0  0  0  0  0  0  0  0  0  0  0  0
   -0.2818   20.2568   40.6394 C   0  0  0  0  0  0  0  0  0  0  0  0
   -0.9594   19.0763   40.3175 C   0  0  0  0  0  0  0  0  0  0  0  0
   -0.2729   17.8536   40.2972 C   0  0  0  0  0  0  0  0  0  0  0  0
   -0.4484   15.4910   39.3748 C   0  0  0  0  0  0  0  0  0  0  0  0
    1.1091   13.9813   38.6888 C   0  0  0  0  0  0  0  0  0  0  0  0
    2.4637   13.4527   38.5254 C   0  0  0  0  0  0  0  0  0  0  0  0
    2.7238   12.2905   37.7853 C   0  0  0  0  0  0  0  0  0  0  0  0
    4.0235   11.8240   37.6144 C   0  0  0  0  0  0  0  0  0  0  0  0
    5.0663   12.5541   38.1528 C   0  0  0  0  0  0  0  0  0  0  0  0
    4.8547   13.7116   38.8866 C   0  0  0  0  0  0  0  0  0  0  0  0
    3.5463   14.1559   39.0561 C   0  0  0  0  0  0  0  0  0  0  0  0
   -0.0107   13.3943   38.1616 C   0  0  0  0  0  0  0  0  0  0  0  0
    1.1232   17.8798   40.4247 C   0  0  0  0  0  0  0  0  0  0  0  0
    1.7776   19.0890   40.6671 C   0  0  0  0  0  0  0  0  0  0  0  0
   -0.9359   16.6494   39.9080 N   0  0  0  0  0  0  0  0  0  0  0  0
    0.9048   15.2349   39.3125 N   0  0  0  0  0  0  0  0  0  0  0  0
    1.1340   22.6816   40.7401 O   0  0  0  0  0  0  0  0  0  0  0  0
    3.0628   21.5973   41.1268 O   0  0  0  0  0  0  0  0  0  0  0  0
    3.1519   19.1191   40.6861 O   0  0  0  0  0  0  0  0  0  0  0  0
   -1.3962   14.3922   38.3910 S   0  0  0  0  0  0  0  0  0  0  0  0
    6.6929   12.0077   37.9134 Cl  0  0  0  0  0  0  0  0  0  0  0  0
   -0.8609   21.1804   40.7872 H   0  0  0  0  0  0  0  0  0  0  0  0
   -2.0330   19.1070   40.0797 H   0  0  0  0  0  0  0  0  0  0  0  0
    1.8869   11.7386   37.3326 H   0  0  0  0  0  0  0  0  0  0  0  0
    4.2172   10.8928   37.0619 H   0  0  0  0  0  0  0  0  0  0  0  0
    5.6992   14.2646   39.3236 H   0  0  0  0  0  0  0  0  0  0  0  0
    3.3615   15.0816   39.6209 H   0  0  0  0  0  0  0  0  0  0  0  0
   -0.0236   12.4161   37.6587 H   0  0  0  0  0  0  0  0  0  0  0  0
    1.7021   16.9489   40.3338 H   0  0  0  0  0  0  0  0  0  0  0  0
   -1.9554   16.6563   40.0547 H   0  0  0  0  0  0  0  0  0  0  0  0
  1  2  1  0
  1 19  1  0
  1 20  2  0
  2  3  1  0
  2 16  2  0
  3  4  2  0
  4  5  1  0
  5 15  2  0
  5 17  1  0
  6 17  1  0
  6 18  2  0
  6 22  1  0
  7  8  1  0
  7 14  2  0
  7 18  1  0
  8  9  1  0
  8 13  2  0
  9 10  2  0
 10 11  1  0
 11 12  2  0
 11 23  1  0
 12 13  1  0
 14 22  1  0
 15 16  1  0
 16 21  1  0
  3 24  1  0
  4 25  1  0
  9 26  1  0
 10 27  1  0
 12 28  1  0
 13 29  1  0
 14 30  1  0
 15 31  1  0
 17 32  1  0
M  CHG  2  19  -1  21  -1
M  END
>  <mol_id>  (87) 
2026-08-23-6tgu-s0-n100-r8-0087

>  <rmsd_to_ref>  (87) 
4.403061224495325

$$$$
6tgu.A
     RDKit          3D

 32 34  0  0  0  0  0  0  0  0999 V2000
    0.7130   23.6043   42.9269 C   0  0  0  0  0  0  0  0  0  0  0  0
    1.0880   22.3236   42.3384 C   0  0  0  0  0  0  0  0  0  0  0  0
    1.3412   22.2408   40.9877 C   0  0  0  0  0  0  0  0  0  0  0  0
    1.6974   21.0581   40.3837 C   0  0  0  0  0  0  0  0  0  0  0  0
    1.8211   19.8770   41.1118 C   0  0  0  0  0  0  0  0  0  0  0  0
    2.0576   17.3877   40.8140 C   0  0  0  0  0  0  0  0  0  0  0  0
    2.1884   15.1346   40.7650 C   0  0  0  0  0  0  0  0  0  0  0  0
    2.6201   13.8910   40.0757 C   0  0  0  0  0  0  0  0  0  0  0  0
    2.3713   12.6690   40.6354 C   0  0  0  0  0  0  0  0  0  0  0  0
    2.7752   11.5442   39.9862 C   0  0  0  0  0  0  0  0  0  0  0  0
    3.4357   11.5752   38.7684 C   0  0  0  0  0  0  0  0  0  0  0  0
    3.6950   12.8019   38.1890 C   0  0  0  0  0  0  0  0  0  0  0  0
    3.2764   13.9283   38.8649 C   0  0  0  0  0  0  0  0  0  0  0  0
    1.5204   15.0814   41.9904 C   0  0  0  0  0  0  0  0  0  0  0  0
    1.5667   19.9724   42.4562 C   0  0  0  0  0  0  0  0  0  0  0  0
    1.2075   21.1614   43.0688 C   0  0  0  0  0  0  0  0  0  0  0  0
    2.1995   18.7268   40.4131 N   0  0  0  0  0  0  0  0  0  0  0  0
    2.3898   16.3184   40.2970 N   0  0  0  0  0  0  0  0  0  0  0  0
    0.4374   23.7900   44.2567 O   0  0  0  0  0  0  0  0  0  0  0  0
    0.6268   24.6400   42.1803 O   0  0  0  0  0  0  0  0  0  0  0  0
    0.9509   21.2512   44.4330 O   0  0  0  0  0  0  0  0  0  0  0  0
    1.2380   16.8350   42.3583 S   0  0  0  0  0  0  0  0  0  0  0  0
    3.9429   10.0876   37.9583 Cl  0  0  0  0  0  0  0  0  0  0  0  0
    1.2586   23.1402   40.3693 H   0  0  0  0  0  0  0  0  0  0  0  0
    1.8794   21.0728   39.3205 H   0  0  0  0  0  0  0  0  0  0  0  0
    1.8564   12.5624   41.5924 H   0  0  0  0  0  0  0  0  0  0  0  0
    2.5890   10.5657   40.4107 H   0  0  0  0  0  0  0  0  0  0  0  0
    4.2037   12.8396   37.2499 H   0  0  0  0  0  0  0  0  0  0  0  0
    3.4573   14.9218   38.4488 H   0  0  0  0  0  0  0  0  0  0  0  0
    1.2291   14.2672   42.5925 H   0  0  0  0  0  0  0  0  0  0  0  0
    1.6482   19.1153   43.0975 H   0  0  0  0  0  0  0  0  0  0  0  0
    2.6546   18.8648   39.4598 H   0  0  0  0  0  0  0  0  0  0  0  0
  1  2  1  0
  1 19  1  0
  1 20  2  0
  2  3  1  0
  2 16  2  0
  3  4  2  0
  4  5  1  0
  5 15  2  0
  5 17  1  0
  6 17  1  0
  6 18  2  0
  6 22  1  0
  7  8  1  0
  7 14  2  0
  7 18  1  0
  8  9  1  0
  8 13  2  0
  9 10  2  0
 10 11  1  0
 11 12  2  0
 11 23  1  0
 12 13  1  0
 14 22  1  0
 15 16  1  0
 16 21  1  0
  3 24  1  0
  4 25  1  0
  9 26  1  0
 10 27  1  0
 12 28  1  0
 13 29  1  0
 14 30  1  0
 15 31  1  0
 17 32  1  0
M  CHG  2  19  -1  21  -1
M  END
>  <mol_id>  (88) 
2026-08-23-6tgu-s0-n100-r8-0088

>  <rmsd_to_ref>  (88) 
4.448979591839118

$$$$
6tgu.A
     RDKit          3D

 32 34  0  0  0  0  0  0  0  0999 V2000
    2.2390   14.2050   35.1059 C   0  0  0  0  0  0  0  0  0  0  0  0
    2.0790   15.4107   36.0362 C   0  0  0  0  0  0  0  0  0  0  0  0
    1.2615   16.4792   35.6749 C   0  0  0  0  0  0  0  0  0  0  0  0
    0.9406   17.5040   36.5711 C   0  0  0  0  0  0  0  0  0  0  0  0
    1.5804   17.5758   37.8170 C   0  0  0  0  0  0  0  0  0  0  0  0
    1.3180   18.5986   40.1297 C   0  0  0  0  0  0  0  0  0  0  0  0
    1.9312   17.8997   42.2061 C   0  0  0  0  0  0  0  0  0  0  0  0
    2.6258   17.0418   43.1666 C   0  0  0  0  0  0  0  0  0  0  0  0
    2.4403   17.1730   44.5502 C   0  0  0  0  0  0  0  0  0  0  0  0
    3.0850   16.3244   45.4448 C   0  0  0  0  0  0  0  0  0  0  0  0
    3.8832   15.3140   44.9425 C   0  0  0  0  0  0  0  0  0  0  0  0
    4.0897   15.1447   43.5817 C   0  0  0  0  0  0  0  0  0  0  0  0
    3.4448   16.0110   42.7032 C   0  0  0  0  0  0  0  0  0  0  0  0
    1.0671   18.9021   42.5597 C   0  0  0  0  0  0  0  0  0  0  0  0
    2.3976   16.5029   38.2006 C   0  0  0  0  0  0  0  0  0  0  0  0
    2.6342   15.4546   37.3095 C   0  0  0  0  0  0  0  0  0  0  0  0
    1.2176   18.5781   38.7684 N   0  0  0  0  0  0  0  0  0  0  0  0
    2.0274   17.6380   40.8188 N   0  0  0  0  0  0  0  0  0  0  0  0
    1.4730   14.1631   34.0986 O   0  0  0  0  0  0  0  0  0  0  0  0
    3.0524   13.3223   35.4566 O   0  0  0  0  0  0  0  0  0  0  0  0
    3.3503   14.3599   37.7323 O   0  0  0  0  0  0  0  0  0  0  0  0
    0.2947   19.5685   41.1715 S   0  0  0  0  0  0  0  0  0  0  0  0
    4.6599   14.2242   46.0428 Cl  0  0  0  0  0  0  0  0  0  0  0  0
    0.8558   16.5182   34.6532 H   0  0  0  0  0  0  0  0  0  0  0  0
    0.1848   18.2553   36.2981 H   0  0  0  0  0  0  0  0  0  0  0  0
    1.7743   17.9595   44.9347 H   0  0  0  0  0  0  0  0  0  0  0  0
    2.9619   16.4550   46.5300 H   0  0  0  0  0  0  0  0  0  0  0  0
    4.7464   14.3462   43.2059 H   0  0  0  0  0  0  0  0  0  0  0  0
    3.5839   15.8803   41.6199 H   0  0  0  0  0  0  0  0  0  0  0  0
    0.8900   19.2369   43.5924 H   0  0  0  0  0  0  0  0  0  0  0  0
    2.8517   16.4872   39.2024 H   0  0  0  0  0  0  0  0  0  0  0  0
    0.8111   19.4304   38.3570 H   0  0  0  0  0  0  0  0  0  0  0  0
  1  2  1  0
  1 19  1  0
  1 20  2  0
  2  3  1  0
  2 16  2  0
  3  4  2  0
  4  5  1  0
  5 15  2  0
  5 17  1  0
  6 17  1  0
  6 18  2  0
  6 22  1  0
  7  8  1  0
  7 14  2  0
  7 18  1  0
  8  9  1  0
  8 13  2  0
  9 10  2  0
 10 11  1  0
 11 12  2  0
 11 23  1  0
 12 13  1  0
 14 22  1  0
 15 16  1  0
 16 21  1  0
  3 24  1  0
  4 25  1  0
  9 26  1  0
 10 27  1  0
 12 28  1  0
 13 29  1  0
 14 30  1  0
 15 31  1  0
 17 32  1  0
M  CHG  2  19  -1  21  -1
M  END
>  <mol_id>  (89) 
2026-08-23-6tgu-s0-n100-r8-0089

>  <rmsd_to_ref>  (89) 
4.494897959186417

$$$$
6tgu.A
     RDKit          3D

 32 34  0  0  0  0  0  0  0  0999 V2000
    0.4106   23.0001   42.0109 C   0  0  0  0  0  0  0  0  0  0  0  0
    0.9391   21.6847   41.6672 C   0  0  0  0  0  0  0  0  0  0  0  0
    1.9999   21.1191   42.3550 C   0  0  0  0  0  0  0  0  0  0  0  0
    2.4729   19.8919   42.0139 C   0  0  0  0  0  0  0  0  0  0  0  0
    1.9365   19.1280   40.9684 C   0  0  0  0  0  0  0  0  0  0  0  0
    1.9206   16.7988   40.0304 C   0  0  0  0  0  0  0  0  0  0  0  0
    1.6524   14.7682   39.0827 C   0  0  0  0  0  0  0  0  0  0  0  0
    2.2501   13.4556   38.7230 C   0  0  0  0  0  0  0  0  0  0  0  0
    1.5148   12.5108   38.0823 C   0  0  0  0  0  0  0  0  0  0  0  0
    2.0531   11.2879   37.7401 C   0  0  0  0  0  0  0  0  0  0  0  0
    3.3719   10.9915   38.0458 C   0  0  0  0  0  0  0  0  0  0  0  0
    4.1439   11.9511   38.7048 C   0  0  0  0  0  0  0  0  0  0  0  0
    3.5649   13.1519   39.0243 C   0  0  0  0  0  0  0  0  0  0  0  0
    0.3633   15.0682   38.7860 C   0  0  0  0  0  0  0  0  0  0  0  0
    0.8861   19.7101   40.3013 C   0  0  0  0  0  0  0  0  0  0  0  0
    0.3990   20.9540   40.6397 C   0  0  0  0  0  0  0  0  0  0  0  0
    2.5167   17.8949   40.7105 N   0  0  0  0  0  0  0  0  0  0  0  0
    2.3192   15.7058   39.6986 N   0  0  0  0  0  0  0  0  0  0  0  0
    0.9688   23.7246   43.0544 O   0  0  0  0  0  0  0  0  0  0  0  0
   -0.5541   23.4325   41.3283 O   0  0  0  0  0  0  0  0  0  0  0  0
   -0.6650   21.5016   39.9365 O   0  0  0  0  0  0  0  0  0  0  0  0
    0.1913   16.7718   39.4506 S   0  0  0  0  0  0  0  0  0  0  0  0
    4.0773    9.4447   37.6218 Cl  0  0  0  0  0  0  0  0  0  0  0  0
    2.4390   21.6795   43.1677 H   0  0  0  0  0  0  0  0  0  0  0  0
    3.3125   19.4997   42.5950 H   0  0  0  0  0  0  0  0  0  0  0  0
    0.4855   12.7155   37.8327 H   0  0  0  0  0  0  0  0  0  0  0  0
    1.4490   10.5696   37.2381 H   0  0  0  0  0  0  0  0  0  0  0  0
    5.1773   11.7264   38.9476 H   0  0  0  0  0  0  0  0  0  0  0  0
    4.1889   13.8928   39.5424 H   0  0  0  0  0  0  0  0  0  0  0  0
   -0.4714   14.5326   38.2849 H   0  0  0  0  0  0  0  0  0  0  0  0
    0.4120   19.2111   39.4780 H   0  0  0  0  0  0  0  0  0  0  0  0
    3.5008   17.7272   41.0399 H   0  0  0  0  0  0  0  0  0  0  0  0
  1  2  1  0
  1 19  1  0
  1 20  2  0
  2  3  1  0
  2 16  2  0
  3  4  2  0
  4  5  1  0
  5 15  2  0
  5 17  1  0
  6 17  1  0
  6 18  2  0
  6 22  1  0
  7  8  1  0
  7 14  2  0
  7 18  1  0
  8  9  1  0
  8 13  2  0
  9 10  2  0
 10 11  1  0
 11 12  2  0
 11 23  1  0
 12 13  1  0
 14 22  1  0
 15 16  1  0
 16 21  1  0
  3 24  1  0
  4 25  1  0
  9 26  1  0
 10 27  1  0
 12 28  1  0
 13 29  1  0
 14 30  1  0
 15 31  1  0
 17 32  1  0
M  CHG  2  19  -1  21  -1
M  END
>  <mol_id>  (90) 
2026-08-23-6tgu-s0-n100-r8-0090

>  <rmsd_to_ref>  (90) 
4.540816326537518

$$$$
6tgu.A
     RDKit          3D

 32 34  0  0  0  0  0  0  0  0999 V2000
    5.0904   19.4967   42.8371 C   0  0  0  0  0  0  0  0  0  0  0  0
    3.8849   18.5540   42.8868 C   0  0  0  0  0  0  0  0  0  0  0  0
    2.7672   18.8749   43.6539 C   0  0  0  0  0  0  0  0  0  0  0  0
    1.5791   18.1408   43.5774 C   0  0  0  0  0  0  0  0  0  0  0  0
    1.5367   16.9438   42.8479 C   0  0  0  0  0  0  0  0  0  0  0  0
   -0.1040   15.3488   41.7399 C   0  0  0  0  0  0  0  0  0  0  0  0
    0.0391   14.0178   39.9005 C   0  0  0  0  0  0  0  0  0  0  0  0
    0.7288   13.3449   38.7993 C   0  0  0  0  0  0  0  0  0  0  0  0
    0.0354   12.6156   37.8230 C   0  0  0  0  0  0  0  0  0  0  0  0
    0.7080   12.0116   36.7652 C   0  0  0  0  0  0  0  0  0  0  0  0
    2.0764   12.1799   36.6669 C   0  0  0  0  0  0  0  0  0  0  0  0
    2.8006   12.8976   37.6068 C   0  0  0  0  0  0  0  0  0  0  0  0
    2.1110   13.4848   38.6640 C   0  0  0  0  0  0  0  0  0  0  0  0
   -1.3173   13.9849   40.0886 C   0  0  0  0  0  0  0  0  0  0  0  0
    2.6492   16.6120   42.0615 C   0  0  0  0  0  0  0  0  0  0  0  0
    3.7929   17.4117   42.1005 C   0  0  0  0  0  0  0  0  0  0  0  0
    0.3151   16.2164   42.7071 N   0  0  0  0  0  0  0  0  0  0  0  0
    0.7562   14.8668   40.7763 N   0  0  0  0  0  0  0  0  0  0  0  0
    4.9440   20.6302   43.3819 O   0  0  0  0  0  0  0  0  0  0  0  0
    6.0900   19.1054   42.1955 O   0  0  0  0  0  0  0  0  0  0  0  0
    4.8363   17.1367   41.2488 O   0  0  0  0  0  0  0  0  0  0  0  0
   -1.7887   15.0413   41.3651 S   0  0  0  0  0  0  0  0  0  0  0  0
    2.9220   11.4680   35.3329 Cl  0  0  0  0  0  0  0  0  0  0  0  0
    2.8207   19.7321   44.3412 H   0  0  0  0  0  0  0  0  0  0  0  0
    0.6760   18.5031   44.0905 H   0  0  0  0  0  0  0  0  0  0  0  0
   -1.0581   12.5193   37.8944 H   0  0  0  0  0  0  0  0  0  0  0  0
    0.1617   11.4122   36.0221 H   0  0  0  0  0  0  0  0  0  0  0  0
    3.8923   13.0004   37.5192 H   0  0  0  0  0  0  0  0  0  0  0  0
    2.6676   14.0721   39.4092 H   0  0  0  0  0  0  0  0  0  0  0  0
   -2.0129   13.3662   39.5026 H   0  0  0  0  0  0  0  0  0  0  0  0
    2.6208   15.7227   41.4147 H   0  0  0  0  0  0  0  0  0  0  0  0
   -0.3653   16.3733   43.4643 H   0  0  0  0  0  0  0  0  0  0  0  0
  1  2  1  0
  1 19  1  0
  1 20  2  0
  2  3  1  0
  2 16  2  0
  3  4  2  0
  4  5  1  0
  5 15  2  0
  5 17  1  0
  6 17  1  0
  6 18  2  0
  6 22  1  0
  7  8  1  0
  7 14  2  0
  7 18  1  0
  8  9  1  0
  8 13  2  0
  9 10  2  0
 10 11  1  0
 11 12  2  0
 11 23  1  0
 12 13  1  0
 14 22  1  0
 15 16  1  0
 16 21  1  0
  3 24  1  0
  4 25  1  0
  9 26  1  0
 10 27  1  0
 12 28  1  0
 13 29  1  0
 14 30  1  0
 15 31  1  0
 17 32  1  0
M  CHG  2  19  -1  21  -1
M  END
>  <mol_id>  (91) 
2026-08-23-6tgu-s0-n100-r8-0091

>  <rmsd_to_ref>  (91) 
4.5867346938798965

$$$$
6tgu.A
     RDKit          3D

 32 34  0  0  0  0  0  0  0  0999 V2000
   -1.1784   19.5379   34.7520 C   0  0  0  0  0  0  0  0  0  0  0  0
   -0.5054   18.9697   35.9122 C   0  0  0  0  0  0  0  0  0  0  0  0
   -0.1521   19.7796   36.9650 C   0  0  0  0  0  0  0  0  0  0  0  0
    0.4882   19.2454   38.0681 C   0  0  0  0  0  0  0  0  0  0  0  0
    0.7902   17.9103   38.1526 C   0  0  0  0  0  0  0  0  0  0  0  0
    1.4462   17.6740   40.5781 C   0  0  0  0  0  0  0  0  0  0  0  0
    1.8037   17.8826   42.7803 C   0  0  0  0  0  0  0  0  0  0  0  0
    2.5047   17.3768   43.9810 C   0  0  0  0  0  0  0  0  0  0  0  0
    2.3134   17.9748   45.2100 C   0  0  0  0  0  0  0  0  0  0  0  0
    2.9739   17.5003   46.3268 C   0  0  0  0  0  0  0  0  0  0  0  0
    3.8397   16.4257   46.2657 C   0  0  0  0  0  0  0  0  0  0  0  0
    4.0365   15.8196   45.0358 C   0  0  0  0  0  0  0  0  0  0  0  0
    3.3696   16.3087   43.9399 C   0  0  0  0  0  0  0  0  0  0  0  0
    0.9548   18.9498   42.8371 C   0  0  0  0  0  0  0  0  0  0  0  0
    0.4158   17.1257   37.0662 C   0  0  0  0  0  0  0  0  0  0  0  0
   -0.2204   17.6197   35.9551 C   0  0  0  0  0  0  0  0  0  0  0  0
    1.4180   17.2691   39.2253 N   0  0  0  0  0  0  0  0  0  0  0  0
    1.9310   17.3696   41.5798 N   0  0  0  0  0  0  0  0  0  0  0  0
   -1.4698   20.8940   34.7004 O   0  0  0  0  0  0  0  0  0  0  0  0
   -1.4892   18.7640   33.7951 O   0  0  0  0  0  0  0  0  0  0  0  0
   -0.5779   16.7911   34.8860 O   0  0  0  0  0  0  0  0  0  0  0  0
    0.3940   19.1442   41.1455 S   0  0  0  0  0  0  0  0  0  0  0  0
    4.6612   15.8565   47.7150 Cl  0  0  0  0  0  0  0  0  0  0  0  0
   -0.3930   20.8489   36.9032 H   0  0  0  0  0  0  0  0  0  0  0  0
    0.7494   19.9320   38.8524 H   0  0  0  0  0  0  0  0  0  0  0  0
    1.6408   18.8178   45.2902 H   0  0  0  0  0  0  0  0  0  0  0  0
    2.7799   18.0129   47.2613 H   0  0  0  0  0  0  0  0  0  0  0  0
    4.7156   14.9770   44.9912 H   0  0  0  0  0  0  0  0  0  0  0  0
    3.5298   15.8342   42.9924 H   0  0  0  0  0  0  0  0  0  0  0  0
    0.6447   19.5813   43.6767 H   0  0  0  0  0  0  0  0  0  0  0  0
    0.6300   16.0582   37.0797 H   0  0  0  0  0  0  0  0  0  0  0  0
    1.9459   16.3654   39.0257 H   0  0  0  0  0  0  0  0  0  0  0  0
  1  2  1  0
  1 19  1  0
  1 20  2  0
  2  3  1  0
  2 16  2  0
  3  4  2  0
  4  5  1  0
  5 15  2  0
  5 17  1  0
  6 17  1  0
  6 18  2  0
  6 22  1  0
  7  8  1  0
  7 14  2  0
  7 18  1  0
  8  9  1  0
  8 13  2  0
  9 10  2  0
 10 11  1  0
 11 12  2  0
 11 23  1  0
 12 13  1  0
 14 22  1  0
 15 16  1  0
 16 21  1  0
  3 24  1  0
  4 25  1  0
  9 26  1  0
 10 27  1  0
 12 28  1  0
 13 29  1  0
 14 30  1  0
 15 31  1  0
 17 32  1  0
M  CHG  2  19  -1  21  -1
M  END
>  <mol_id>  (92) 
2026-08-23-6tgu-s0-n100-r8-0092

>  <rmsd_to_ref>  (92) 
4.6326530612246755

$$$$
6tgu.A
     RDKit          3D

 32 34  0  0  0  0  0  0  0  0999 V2000
    0.4919   14.3609   35.7257 C   0  0  0  0  0  0  0  0  0  0  0  0
    0.8675   15.5298   36.6407 C   0  0  0  0  0  0  0  0  0  0  0  0
    0.1688   16.7332   36.5738 C   0  0  0  0  0  0  0  0  0  0  0  0
    0.3534   17.7516   37.5146 C   0  0  0  0  0  0  0  0  0  0  0  0
    1.3845   17.6579   38.4606 C   0  0  0  0  0  0  0  0  0  0  0  0
    2.1092   18.5959   40.7096 C   0  0  0  0  0  0  0  0  0  0  0  0
    3.2706   17.7066   42.4520 C   0  0  0  0  0  0  0  0  0  0  0  0
    4.0972   16.7016   43.1214 C   0  0  0  0  0  0  0  0  0  0  0  0
    4.4232   16.7936   44.4820 C   0  0  0  0  0  0  0  0  0  0  0  0
    5.1825   15.8092   45.1066 C   0  0  0  0  0  0  0  0  0  0  0  0
    5.5766   14.7083   44.3696 C   0  0  0  0  0  0  0  0  0  0  0  0
    5.2714   14.5742   43.0235 C   0  0  0  0  0  0  0  0  0  0  0  0
    4.5204   15.5754   42.4138 C   0  0  0  0  0  0  0  0  0  0  0  0
    2.7633   18.8174   43.0725 C   0  0  0  0  0  0  0  0  0  0  0  0
    2.0898   16.4492   38.5486 C   0  0  0  0  0  0  0  0  0  0  0  0
    1.8251   15.4211   37.6420 C   0  0  0  0  0  0  0  0  0  0  0  0
    1.5455   18.6583   39.4678 N   0  0  0  0  0  0  0  0  0  0  0  0
    2.8388   17.5006   41.1204 N   0  0  0  0  0  0  0  0  0  0  0  0
   -0.5687   14.4930   35.0469 O   0  0  0  0  0  0  0  0  0  0  0  0
    1.2146   13.3420   35.7822 O   0  0  0  0  0  0  0  0  0  0  0  0
    2.4467   14.2054   37.8021 O   0  0  0  0  0  0  0  0  0  0  0  0
    1.6856   19.6672   42.0311 S   0  0  0  0  0  0  0  0  0  0  0  0
    6.4878   13.4546   45.1440 Cl  0  0  0  0  0  0  0  0  0  0  0  0
   -0.5503   16.8872   35.7558 H   0  0  0  0  0  0  0  0  0  0  0  0
   -0.3115   18.6279   37.5125 H   0  0  0  0  0  0  0  0  0  0  0  0
    4.0729   17.6582   45.0650 H   0  0  0  0  0  0  0  0  0  0  0  0
    5.4636   15.9051   46.1657 H   0  0  0  0  0  0  0  0  0  0  0  0
    5.6140   13.6989   42.4520 H   0  0  0  0  0  0  0  0  0  0  0  0
    4.2547   15.4767   41.3510 H   0  0  0  0  0  0  0  0  0  0  0  0
    3.0110   19.1259   44.0989 H   0  0  0  0  0  0  0  0  0  0  0  0
    2.8507   16.3114   39.3309 H   0  0  0  0  0  0  0  0  0  0  0  0
    1.1728   19.5843   39.2138 H   0  0  0  0  0  0  0  0  0  0  0  0
  1  2  1  0
  1 19  1  0
  1 20  2  0
  2  3  1  0
  2 16  2  0
  3  4  2  0
  4  5  1  0
  5 15  2  0
  5 17  1  0
  6 17  1  0
  6 18  2  0
  6 22  1  0
  7  8  1  0
  7 14  2  0
  7 18  1  0
  8  9  1  0
  8 13  2  0
  9 10  2  0
 10 11  1  0
 11 12  2  0
 11 23  1  0
 12 13  1  0
 14 22  1  0
 15 16  1  0
 16 21  1  0
  3 24  1  0
  4 25  1  0
  9 26  1  0
 10 27  1  0
 12 28  1  0
 13 29  1  0
 14 30  1  0
 15 31  1  0
 17 32  1  0
M  CHG  2  19  -1  21  -1
M  END
>  <mol_id>  (93) 
2026-08-23-6tgu-s0-n100-r8-0093

>  <rmsd_to_ref>  (93) 
4.678571428573058

$$$$
6tgu.A
     RDKit          3D

 32 34  0  0  0  0  0  0  0  0999 V2000
    6.6672   21.0645   39.4161 C   0  0  0  0  0  0  0  0  0  0  0  0
    5.5247   20.1653   39.4927 C   0  0  0  0  0  0  0  0  0  0  0  0
    4.3252   20.4035   38.8570 C   0  0  0  0  0  0  0  0  0  0  0  0
    3.2674   19.5010   38.9689 C   0  0  0  0  0  0  0  0  0  0  0  0
    3.3442   18.3446   39.7005 C   0  0  0  0  0  0  0  0  0  0  0  0
    0.9327   17.5986   39.7668 C   0  0  0  0  0  0  0  0  0  0  0  0
   -1.2833   17.2267   39.7285 C   0  0  0  0  0  0  0  0  0  0  0  0
   -2.3855   16.2510   39.8678 C   0  0  0  0  0  0  0  0  0  0  0  0
   -2.1711   14.9197   40.1419 C   0  0  0  0  0  0  0  0  0  0  0  0
   -3.2053   14.0075   40.2765 C   0  0  0  0  0  0  0  0  0  0  0  0
   -4.5123   14.4535   40.1291 C   0  0  0  0  0  0  0  0  0  0  0  0
   -4.7536   15.7817   39.8540 C   0  0  0  0  0  0  0  0  0  0  0  0
   -3.6933   16.6583   39.7278 C   0  0  0  0  0  0  0  0  0  0  0  0
   -1.5061   18.5373   39.4619 C   0  0  0  0  0  0  0  0  0  0  0  0
    4.5789   18.1223   40.3409 C   0  0  0  0  0  0  0  0  0  0  0  0
    5.6247   19.0075   40.2338 C   0  0  0  0  0  0  0  0  0  0  0  0
    2.3618   17.3908   39.8990 N   0  0  0  0  0  0  0  0  0  0  0  0
   -0.0175   16.9076   39.8537 N   0  0  0  0  0  0  0  0  0  0  0  0
    6.5988   22.2470   38.6758 O   0  0  0  0  0  0  0  0  0  0  0  0
    7.7215   20.7602   40.0296 O   0  0  0  0  0  0  0  0  0  0  0  0
    6.8234   18.7350   40.8895 O   0  0  0  0  0  0  0  0  0  0  0  0
    0.2111   19.2470   39.4094 S   0  0  0  0  0  0  0  0  0  0  0  0
   -5.8061   13.2807   40.3072 Cl  0  0  0  0  0  0  0  0  0  0  0  0
    4.2332   21.3105   38.2705 H   0  0  0  0  0  0  0  0  0  0  0  0
    2.3784   19.7560   38.4351 H   0  0  0  0  0  0  0  0  0  0  0  0
   -1.1442   14.6021   40.2508 H   0  0  0  0  0  0  0  0  0  0  0  0
   -3.0055   12.9584   40.4943 H   0  0  0  0  0  0  0  0  0  0  0  0
   -5.7623   16.1405   39.7378 H   0  0  0  0  0  0  0  0  0  0  0  0
   -3.9019   17.7135   39.5087 H   0  0  0  0  0  0  0  0  0  0  0  0
   -2.3960   19.1688   39.2944 H   0  0  0  0  0  0  0  0  0  0  0  0
    4.7268   17.2186   40.9484 H   0  0  0  0  0  0  0  0  0  0  0  0
    2.6213   16.4180   40.1694 H   0  0  0  0  0  0  0  0  0  0  0  0
  1  2  1  0
  1 19  1  0
  1 20  2  0
  2  3  1  0
  2 16  2  0
  3  4  2  0
  4  5  1  0
  5 15  2  0
  5 17  1  0
  6 17  1  0
  6 18  2  0
  6 22  1  0
  7  8  1  0
  7 14  2  0
  7 18  1  0
  8  9  1  0
  8 13  2  0
  9 10  2  0
 10 11  1  0
 11 12  2  0
 11 23  1  0
 12 13  1  0
 14 22  1  0
 15 16  1  0
 16 21  1  0
  3 24  1  0
  4 25  1  0
  9 26  1  0
 10 27  1  0
 12 28  1  0
 13 29  1  0
 14 30  1  0
 15 31  1  0
 17 32  1  0
M  CHG  2  19  -1  21  -1
M  END
>  <mol_id>  (94) 
2026-08-23-6tgu-s0-n100-r8-0094

>  <rmsd_to_ref>  (94) 
4.724489795920267

$$$$
6tgu.A
     RDKit          3D

 32 34  0  0  0  0  0  0  0  0999 V2000
    6.4502   17.4677   43.5133 C   0  0  0  0  0  0  0  0  0  0  0  0
    5.0356   18.0462   43.4188 C   0  0  0  0  0  0  0  0  0  0  0  0
    4.8371   19.4239   43.3631 C   0  0  0  0  0  0  0  0  0  0  0  0
    3.5849   19.9826   43.0869 C   0  0  0  0  0  0  0  0  0  0  0  0
    2.4465   19.1656   43.0300 C   0  0  0  0  0  0  0  0  0  0  0  0
    0.0696   19.1293   42.1287 C   0  0  0  0  0  0  0  0  0  0  0  0
   -1.2637   17.4556   41.3560 C   0  0  0  0  0  0  0  0  0  0  0  0
   -1.6391   16.0623   41.1134 C   0  0  0  0  0  0  0  0  0  0  0  0
   -2.7727   15.7177   40.3635 C   0  0  0  0  0  0  0  0  0  0  0  0
   -3.0927   14.3863   40.1165 C   0  0  0  0  0  0  0  0  0  0  0  0
   -2.2450   13.4019   40.5885 C   0  0  0  0  0  0  0  0  0  0  0  0
   -1.1108   13.6983   41.3293 C   0  0  0  0  0  0  0  0  0  0  0  0
   -0.8138   15.0359   41.5755 C   0  0  0  0  0  0  0  0  0  0  0  0
   -1.9777   18.5317   40.8993 C   0  0  0  0  0  0  0  0  0  0  0  0
    2.6300   17.7762   43.0732 C   0  0  0  0  0  0  0  0  0  0  0  0
    3.9072   17.2484   43.2713 C   0  0  0  0  0  0  0  0  0  0  0  0
    1.1717   19.7112   42.6859 N   0  0  0  0  0  0  0  0  0  0  0  0
   -0.0343   17.7619   41.9861 N   0  0  0  0  0  0  0  0  0  0  0  0
    7.4058   18.2857   43.3694 O   0  0  0  0  0  0  0  0  0  0  0  0
    6.5481   16.2279   43.6435 O   0  0  0  0  0  0  0  0  0  0  0  0
    4.0909   15.8875   43.2076 O   0  0  0  0  0  0  0  0  0  0  0  0
   -1.1386   20.0043   41.2079 S   0  0  0  0  0  0  0  0  0  0  0  0
   -2.6086   11.7414   40.2538 Cl  0  0  0  0  0  0  0  0  0  0  0  0
    5.6916   20.0931   43.5419 H   0  0  0  0  0  0  0  0  0  0  0  0
    3.4929   21.0650   42.9140 H   0  0  0  0  0  0  0  0  0  0  0  0
   -3.4194   16.5128   39.9639 H   0  0  0  0  0  0  0  0  0  0  0  0
   -4.0022   14.1225   39.5568 H   0  0  0  0  0  0  0  0  0  0  0  0
   -0.4622   12.8968   41.7127 H   0  0  0  0  0  0  0  0  0  0  0  0
    0.0913   15.2896   42.1469 H   0  0  0  0  0  0  0  0  0  0  0  0
   -2.9564   18.4645   40.4018 H   0  0  0  0  0  0  0  0  0  0  0  0
    1.7687   17.1028   42.9512 H   0  0  0  0  0  0  0  0  0  0  0  0
    1.0661   20.7145   42.8936 H   0  0  0  0  0  0  0  0  0  0  0  0
  1  2  1  0
  1 19  1  0
  1 20  2  0
  2  3  1  0
  2 16  2  0
  3  4  2  0
  4  5  1  0
  5 15  2  0
  5 17  1  0
  6 17  1  0
  6 18  2  0
  6 22  1  0
  7  8  1  0
  7 14  2  0
  7 18  1  0
  8  9  1  0
  8 13  2  0
  9 10  2  0
 10 11  1  0
 11 12  2  0
 11 23  1  0
 12 13  1  0
 14 22  1  0
 15 16  1  0
 16 21  1  0
  3 24  1  0
  4 25  1  0
  9 26  1  0
 10 27  1  0
 12 28  1  0
 13 29  1  0
 14 30  1  0
 15 31  1  0
 17 32  1  0
M  CHG  2  19  -1  21  -1
M  END
>  <mol_id>  (95) 
2026-08-23-6tgu-s0-n100-r8-0095

>  <rmsd_to_ref>  (95) 
4.770408163272927

$$$$
6tgu.A
     RDKit          3D

 32 34  0  0  0  0  0  0  0  0999 V2000
    5.8986   19.8905   42.5129 C   0  0  0  0  0  0  0  0  0  0  0  0
    4.8436   19.1045   41.8940 C   0  0  0  0  0  0  0  0  0  0  0  0
    4.5034   19.2881   40.5750 C   0  0  0  0  0  0  0  0  0  0  0  0
    3.5070   18.5539   39.9763 C   0  0  0  0  0  0  0  0  0  0  0  0
    2.7827   17.5778   40.6778 C   0  0  0  0  0  0  0  0  0  0  0  0
    0.6505   16.2689   40.5077 C   0  0  0  0  0  0  0  0  0  0  0  0
   -1.3038   15.1171   40.7829 C   0  0  0  0  0  0  0  0  0  0  0  0
   -2.4099   14.2903   40.2473 C   0  0  0  0  0  0  0  0  0  0  0  0
   -3.4172   13.8719   41.0766 C   0  0  0  0  0  0  0  0  0  0  0  0
   -4.4246   13.1037   40.5306 C   0  0  0  0  0  0  0  0  0  0  0  0
   -4.4668   12.7396   39.2016 C   0  0  0  0  0  0  0  0  0  0  0  0
   -3.4365   13.1779   38.3924 C   0  0  0  0  0  0  0  0  0  0  0  0
   -2.4198   13.9460   38.9171 C   0  0  0  0  0  0  0  0  0  0  0  0
   -1.3153   15.4775   42.2212 C   0  0  0  0  0  0  0  0  0  0  0  0
    3.1401   17.4121   41.9918 C   0  0  0  0  0  0  0  0  0  0  0  0
    4.1471   18.1530   42.5999 C   0  0  0  0  0  0  0  0  0  0  0  0
    1.8094   16.8857   39.9737 N   0  0  0  0  0  0  0  0  0  0  0  0
   -0.3255   15.5642   40.1386 N   0  0  0  0  0  0  0  0  0  0  0  0
    6.5805   20.8446   41.7667 O   0  0  0  0  0  0  0  0  0  0  0  0
    6.2087   19.7227   43.7188 O   0  0  0  0  0  0  0  0  0  0  0  0
    4.4548   17.9319   43.9321 O   0  0  0  0  0  0  0  0  0  0  0  0
    0.2175   16.4659   42.3378 S   0  0  0  0  0  0  0  0  0  0  0  0
   -5.7613   11.7651   38.5477 Cl  0  0  0  0  0  0  0  0  0  0  0  0
    5.0578   20.0464   40.0109 H   0  0  0  0  0  0  0  0  0  0  0  0
    3.3045   18.7634   38.9318 H   0  0  0  0  0  0  0  0  0  0  0  0
   -3.4707   14.1059   42.1302 H   0  0  0  0  0  0  0  0  0  0  0  0
   -5.2224   12.7715   41.1816 H   0  0  0  0  0  0  0  0  0  0  0  0
   -3.4204   12.9239   37.3539 H   0  0  0  0  0  0  0  0  0  0  0  0
   -1.6058   14.2983   38.3038 H   0  0  0  0  0  0  0  0  0  0  0  0
   -2.0061   15.2328   42.9517 H   0  0  0  0  0  0  0  0  0  0  0  0
    2.6503   16.6893   42.5888 H   0  0  0  0  0  0  0  0  0  0  0  0
    1.9102   16.7857   38.9203 H   0  0  0  0  0  0  0  0  0  0  0  0
  1  2  1  0
  1 19  1  0
  1 20  2  0
  2  3  1  0
  2 16  2  0
  3  4  2  0
  4  5  1  0
  5 15  2  0
  5 17  1  0
  6 17  1  0
  6 18  2  0
  6 22  1  0
  7  8  1  0
  7 14  2  0
  7 18  1  0
  8  9  1  0
  8 13  2  0
  9 10  2  0
 10 11  1  0
 11 12  2  0
 11 23  1  0
 12 13  1  0
 14 22  1  0
 15 16  1  0
 16 21  1  0
  3 24  1  0
  4 25  1  0
  9 26  1  0
 10 27  1  0
 12 28  1  0
 13 29  1  0
 14 30  1  0
 15 31  1  0
 17 32  1  0
M  CHG  2  19  -1  21  -1
M  END
>  <mol_id>  (96) 
2026-08-23-6tgu-s0-n100-r8-0096

>  <rmsd_to_ref>  (96) 
4.816326530618998

$$$$
6tgu.A
     RDKit          3D

 32 34  0  0  0  0  0  0  0  0999 V2000
    6.5815   14.8637   38.3763 C   0  0  0  0  0  0  0  0  0  0  0  0
    5.4369   15.8803   38.4104 C   0  0  0  0  0  0  0  0  0  0  0  0
    5.3886   16.9223   37.4871 C   0  0  0  0  0  0  0  0  0  0  0  0
    4.2704   17.7535   37.3641 C   0  0  0  0  0  0  0  0  0  0  0  0
    3.2252   17.6700   38.2954 C   0  0  0  0  0  0  0  0  0  0  0  0
    0.7717   18.2684   38.5880 C   0  0  0  0  0  0  0  0  0  0  0  0
   -0.9312   17.2873   39.7340 C   0  0  0  0  0  0  0  0  0  0  0  0
   -1.5222   16.3424   40.6821 C   0  0  0  0  0  0  0  0  0  0  0  0
   -2.9095   16.2257   40.8483 C   0  0  0  0  0  0  0  0  0  0  0  0
   -3.4513   15.2968   41.7312 C   0  0  0  0  0  0  0  0  0  0  0  0
   -2.5953   14.4539   42.4148 C   0  0  0  0  0  0  0  0  0  0  0  0
   -1.2177   14.5311   42.2762 C   0  0  0  0  0  0  0  0  0  0  0  0
   -0.6945   15.4748   41.3966 C   0  0  0  0  0  0  0  0  0  0  0  0
   -1.6600   18.1415   38.9494 C   0  0  0  0  0  0  0  0  0  0  0  0
    3.2529   16.6200   39.2243 C   0  0  0  0  0  0  0  0  0  0  0  0
    4.3502   15.7578   39.2680 C   0  0  0  0  0  0  0  0  0  0  0  0
    2.0484   18.4664   38.1468 N   0  0  0  0  0  0  0  0  0  0  0  0
    0.4617   17.2690   39.4856 N   0  0  0  0  0  0  0  0  0  0  0  0
    7.3633   14.9264   37.3823 O   0  0  0  0  0  0  0  0  0  0  0  0
    6.6050   14.0058   39.2857 O   0  0  0  0  0  0  0  0  0  0  0  0
    4.3200   14.6715   40.1099 O   0  0  0  0  0  0  0  0  0  0  0  0
   -0.6456   18.9630   37.8251 S   0  0  0  0  0  0  0  0  0  0  0  0
   -3.2573   13.2647   43.4868 Cl  0  0  0  0  0  0  0  0  0  0  0  0
    6.2568   17.0969   36.8346 H   0  0  0  0  0  0  0  0  0  0  0  0
    4.2107   18.4742   36.5352 H   0  0  0  0  0  0  0  0  0  0  0  0
   -3.5805   16.8792   40.2714 H   0  0  0  0  0  0  0  0  0  0  0  0
   -4.5391   15.2344   41.8822 H   0  0  0  0  0  0  0  0  0  0  0  0
   -0.5552   13.8637   42.8468 H   0  0  0  0  0  0  0  0  0  0  0  0
    0.3954   15.5381   41.2615 H   0  0  0  0  0  0  0  0  0  0  0  0
   -2.7480   18.2840   39.0269 H   0  0  0  0  0  0  0  0  0  0  0  0
    2.4113   16.4757   39.9177 H   0  0  0  0  0  0  0  0  0  0  0  0
    2.1868   19.3385   37.6165 H   0  0  0  0  0  0  0  0  0  0  0  0
  1  2  1  0
  1 19  1  0
  1 20  2  0
  2  3  1  0
  2 16  2  0
  3  4  2  0
  4  5  1  0
  5 15  2  0
  5 17  1  0
  6 17  1  0
  6 18  2  0
  6 22  1  0
  7  8  1  0
  7 14  2  0
  7 18  1  0
  8  9  1  0
  8 13  2  0
  9 10  2  0
 10 11  1  0
 11 12  2  0
 11 23  1  0
 12 13  1  0
 14 22  1  0
 15 16  1  0
 16 21  1  0
  3 24  1  0
  4 25  1  0
  9 26  1  0
 10 27  1  0
 12 28  1  0
 13 29  1  0
 14 30  1  0
 15 31  1  0
 17 32  1  0
M  CHG  2  19  -1  21  -1
M  END
>  <mol_id>  (97) 
2026-08-23-6tgu-s0-n100-r8-0097

>  <rmsd_to_ref>  (97) 
4.862244897962715

$$$$
6tgu.A
     RDKit          3D

 32 34  0  0  0  0  0  0  0  0999 V2000
    5.7939   15.5878   37.8776 C   0  0  0  0  0  0  0  0  0  0  0  0
    5.2750   16.5893   38.8043 C   0  0  0  0  0  0  0  0  0  0  0  0
    6.0450   17.6964   39.1119 C   0  0  0  0  0  0  0  0  0  0  0  0
    5.5771   18.6545   39.9930 C   0  0  0  0  0  0  0  0  0  0  0  0
    4.3104   18.4864   40.5685 C   0  0  0  0  0  0  0  0  0  0  0  0
    2.4108   19.3651   41.8704 C   0  0  0  0  0  0  0  0  0  0  0  0
    0.3755   18.9306   42.7605 C   0  0  0  0  0  0  0  0  0  0  0  0
   -0.5016   18.1528   43.6680 C   0  0  0  0  0  0  0  0  0  0  0  0
   -0.0140   17.1456   44.4616 C   0  0  0  0  0  0  0  0  0  0  0  0
   -0.8572   16.4085   45.3036 C   0  0  0  0  0  0  0  0  0  0  0  0
   -2.2237   16.6848   45.3533 C   0  0  0  0  0  0  0  0  0  0  0  0
   -2.6840   17.6842   44.5618 C   0  0  0  0  0  0  0  0  0  0  0  0
   -1.8534   18.4111   43.7315 C   0  0  0  0  0  0  0  0  0  0  0  0
   -0.1617   19.9506   41.9546 C   0  0  0  0  0  0  0  0  0  0  0  0
    3.5350   17.3668   40.2544 C   0  0  0  0  0  0  0  0  0  0  0  0
    4.0182   16.4199   39.3735 C   0  0  0  0  0  0  0  0  0  0  0  0
    3.7771   19.4249   41.4993 N   0  0  0  0  0  0  0  0  0  0  0  0
    1.6445   18.7350   42.6340 N   0  0  0  0  0  0  0  0  0  0  0  0
    5.0338   14.4724   37.5700 O   0  0  0  0  0  0  0  0  0  0  0  0
    6.9265   15.6927   37.3326 O   0  0  0  0  0  0  0  0  0  0  0  0
    3.2639   15.2988   39.0471 O   0  0  0  0  0  0  0  0  0  0  0  0
    1.2410   20.5510   41.0654 S   0  0  0  0  0  0  0  0  0  0  0  0
   -3.3119   15.7859   46.3933 Cl  0  0  0  0  0  0  0  0  0  0  0  0
    7.0295   17.8461   38.6758 H   0  0  0  0  0  0  0  0  0  0  0  0
    6.1559   19.5435   40.2594 H   0  0  0  0  0  0  0  0  0  0  0  0
    1.0180   16.9003   44.4569 H   0  0  0  0  0  0  0  0  0  0  0  0
   -0.4508   15.6142   45.9223 H   0  0  0  0  0  0  0  0  0  0  0  0
   -3.7395   17.9321   44.5715 H   0  0  0  0  0  0  0  0  0  0  0  0
   -2.2860   19.1807   43.1402 H   0  0  0  0  0  0  0  0  0  0  0  0
   -1.1673   20.2946   41.8798 H   0  0  0  0  0  0  0  0  0  0  0  0
    2.5473   17.2136   40.6872 H   0  0  0  0  0  0  0  0  0  0  0  0
    4.4005   20.1622   41.9107 H   0  0  0  0  0  0  0  0  0  0  0  0
  1  2  1  0
  1 19  1  0
  1 20  2  0
  2  3  1  0
  2 16  2  0
  3  4  2  0
  4  5  1  0
  5 15  2  0
  5 17  1  0
  6 17  1  0
  6 18  2  0
  6 22  1  0
  7  8  1  0
  7 14  2  0
  7 18  1  0
  8  9  1  0
  8 13  2  0
  9 10  2  0
 10 11  1  0
 11 12  2  0
 11 23  1  0
 12 13  1  0
 14 22  1  0
 15 16  1  0
 16 21  1  0
  3 24  1  0
  4 25  1  0
  9 26  1  0
 10 27  1  0
 12 28  1  0
 13 29  1  0
 14 30  1  0
 15 31  1  0
 17 32  1  0
M  CHG  2  19  -1  21  -1
M  END
>  <mol_id>  (98) 
2026-08-23-6tgu-s0-n100-r8-0098

>  <rmsd_to_ref>  (98) 
4.9081632653086

$$$$
6tgu.A
     RDKit          3D

 32 34  0  0  0  0  0  0  0  0999 V2000
    6.4070   14.3197   39.2410 C   0  0  0  0  0  0  0  0  0  0  0  0
    5.7971   15.4263   40.1059 C   0  0  0  0  0  0  0  0  0  0  0  0
    6.3418   16.7085   40.1018 C   0  0  0  0  0  0  0  0  0  0  0  0
    5.7057   17.7869   40.7253 C   0  0  0  0  0  0  0  0  0  0  0  0
    4.5772   17.5698   41.5292 C   0  0  0  0  0  0  0  0  0  0  0  0
    2.5796   18.7897   42.5214 C   0  0  0  0  0  0  0  0  0  0  0  0
    0.4555   18.1353   43.0065 C   0  0  0  0  0  0  0  0  0  0  0  0
   -0.6253   17.1665   43.1927 C   0  0  0  0  0  0  0  0  0  0  0  0
   -1.9429   17.5649   43.4592 C   0  0  0  0  0  0  0  0  0  0  0  0
   -2.9619   16.6279   43.5994 C   0  0  0  0  0  0  0  0  0  0  0  0
   -2.6609   15.2900   43.4271 C   0  0  0  0  0  0  0  0  0  0  0  0
   -1.3730   14.8526   43.1571 C   0  0  0  0  0  0  0  0  0  0  0  0
   -0.3650   15.8047   43.0317 C   0  0  0  0  0  0  0  0  0  0  0  0
    0.2902   19.4924   43.0910 C   0  0  0  0  0  0  0  0  0  0  0  0
    4.0099   16.2875   41.5355 C   0  0  0  0  0  0  0  0  0  0  0  0
    4.6280   15.2492   40.8362 C   0  0  0  0  0  0  0  0  0  0  0  0
    3.8788   18.6670   42.1203 N   0  0  0  0  0  0  0  0  0  0  0  0
    1.7363   17.7012   42.5904 N   0  0  0  0  0  0  0  0  0  0  0  0
    7.3019   14.6742   38.4184 O   0  0  0  0  0  0  0  0  0  0  0  0
    5.9185   13.1746   39.3581 O   0  0  0  0  0  0  0  0  0  0  0  0
    4.0086   14.0241   40.7632 O   0  0  0  0  0  0  0  0  0  0  0  0
    1.7288   20.3189   42.6269 S   0  0  0  0  0  0  0  0  0  0  0  0
   -3.9272   14.1149   43.5582 Cl  0  0  0  0  0  0  0  0  0  0  0  0
    7.3019   16.8780   39.5924 H   0  0  0  0  0  0  0  0  0  0  0  0
    6.0914   18.8075   40.5849 H   0  0  0  0  0  0  0  0  0  0  0  0
   -2.1748   18.6356   43.5590 H   0  0  0  0  0  0  0  0  0  0  0  0
   -3.9866   16.9456   43.8426 H   0  0  0  0  0  0  0  0  0  0  0  0
   -1.1533   13.7806   43.0448 H   0  0  0  0  0  0  0  0  0  0  0  0
    0.6591   15.4764   42.8007 H   0  0  0  0  0  0  0  0  0  0  0  0
   -0.6375   19.9885   43.4123 H   0  0  0  0  0  0  0  0  0  0  0  0
    3.0791   16.0999   42.0908 H   0  0  0  0  0  0  0  0  0  0  0  0
    4.4533   19.5088   42.2692 H   0  0  0  0  0  0  0  0  0  0  0  0
  1  2  1  0
  1 19  1  0
  1 20  2  0
  2  3  1  0
  2 16  2  0
  3  4  2  0
  4  5  1  0
  5 15  2  0
  5 17  1  0
  6 17  1  0
  6 18  2  0
  6 22  1  0
  7  8  1  0
  7 14  2  0
  7 18  1  0
  8  9  1  0
  8 13  2  0
  9 10  2  0
 10 11  1  0
 11 12  2  0
 11 23  1  0
 12 13  1  0
 14 22  1  0
 15 16  1  0
 16 21  1  0
  3 24  1  0
  4 25  1  0
  9 26  1  0
 10 27  1  0
 12 28  1  0
 13 29  1  0
 14 30  1  0
 15 31  1  0
 17 32  1  0
M  CHG  2  19  -1  21  -1
M  END
>  <mol_id>  (99) 
2026-08-23-6tgu-s0-n100-r8-0099

>  <rmsd_to_ref>  (99) 
4.954081632654658

$$$$
6tgu.A
     RDKit          3D

 32 34  0  0  0  0  0  0  0  0999 V2000
    3.3850   24.8378   43.0875 C   0  0  0  0  0  0  0  0  0  0  0  0
    2.9893   23.6861   42.2841 C   0  0  0  0  0  0  0  0  0  0  0  0
    3.0565   23.7209   40.9085 C   0  0  0  0  0  0  0  0  0  0  0  0
    2.6815   22.6296   40.1609 C   0  0  0  0  0  0  0  0  0  0  0  0
    2.2201   21.4461   40.7341 C   0  0  0  0  0  0  0  0  0  0  0  0
    1.8618   19.0108   40.1707 C   0  0  0  0  0  0  0  0  0  0  0  0
    1.6705   16.7812   40.1152 C   0  0  0  0  0  0  0  0  0  0  0  0
    1.2391   15.5728   39.3935 C   0  0  0  0  0  0  0  0  0  0  0  0
    1.4015   14.3210   39.9313 C   0  0  0  0  0  0  0  0  0  0  0  0
    1.0228   13.1639   39.3085 C   0  0  0  0  0  0  0  0  0  0  0  0
    0.4364   13.2296   38.0571 C   0  0  0  0  0  0  0  0  0  0  0  0
    0.2609   14.4760   37.4929 C   0  0  0  0  0  0  0  0  0  0  0  0
    0.6511   15.6364   38.1392 C   0  0  0  0  0  0  0  0  0  0  0  0
    2.2652   16.6858   41.3847 C   0  0  0  0  0  0  0  0  0  0  0  0
    2.1598   21.4311   42.1041 C   0  0  0  0  0  0  0  0  0  0  0  0
    2.5365   22.5296   42.8813 C   0  0  0  0  0  0  0  0  0  0  0  0
    1.8519   20.4158   39.8711 N   0  0  0  0  0  0  0  0  0  0  0  0
    1.5611   18.0077   39.6929 N   0  0  0  0  0  0  0  0  0  0  0  0
    3.2987   24.7508   44.4764 O   0  0  0  0  0  0  0  0  0  0  0  0
    3.8050   25.9150   42.5639 O   0  0  0  0  0  0  0  0  0  0  0  0
    2.4580   22.4660   44.2667 O   0  0  0  0  0  0  0  0  0  0  0  0
    2.5940   18.4189   41.8077 S   0  0  0  0  0  0  0  0  0  0  0  0
   -0.0478   11.7433   37.2639 Cl  0  0  0  0  0  0  0  0  0  0  0  0
    3.4159   24.6419   40.4664 H   0  0  0  0  0  0  0  0  0  0  0  0
    2.7648   22.7373   39.0690 H   0  0  0  0  0  0  0  0  0  0  0  0
    1.8578   14.2224   40.9139 H   0  0  0  0  0  0  0  0  0  0  0  0
    1.1861   12.1964   39.8043 H   0  0  0  0  0  0  0  0  0  0  0  0
   -0.1989   14.5270   36.5113 H   0  0  0  0  0  0  0  0  0  0  0  0
    0.5083   16.6156   37.6865 H   0  0  0  0  0  0  0  0  0  0  0  0
    2.4860   15.8474   41.9816 H   0  0  0  0  0  0  0  0  0  0  0  0
    1.8084   20.5798   42.6434 H   0  0  0  0  0  0  0  0  0  0  0  0
    1.5295   20.6404   38.8985 H   0  0  0  0  0  0  0  0  0  0  0  0
  1  2  1  0
  1 19  1  0
  1 20  2  0
  2  3  1  0
  2 16  2  0
  3  4  2  0
  4  5  1  0
  5 15  2  0
  5 17  1  0
  6 17  1  0
  6 18  2  0
  6 22  1  0
  7  8  1  0
  7 14  2  0
  7 18  1  0
  8  9  1  0
  8 13  2  0
  9 10  2  0
 10 11  1  0
 11 12  2  0
 11 23  1  0
 12 13  1  0
 14 22  1  0
 15 16  1  0
 16 21  1  0
  3 24  1  0
  4 25  1  0
  9 26  1  0
 10 27  1  0
 12 28  1  0
 13 29  1  0
 14 30  1  0
 15 31  1  0
 17 32  1  0
M  CHG  2  19  -1  21  -1
M  END
>  <mol_id>  (100) 
2026-08-23-6tgu-s0-n100-r8-0100

>  <rmsd_to_ref>  (100) 
5.000000000001001

$$$$
