
     RDKit          3D

 25 25  0  0  0  0  0  0  0  0999 V2000
    3.8360   23.5830   32.5260 F   0  0  0  0  0  0  0  0  0  0  0  0
    3.4650   18.5170   39.7080 F   0  0  0  0  0  0  0  0  0  0  0  0
    1.3230   24.7410   34.1790 C   0  0  0  0  0  0  0  0  0  0  0  0
    4.4870   17.9580   38.0310 F   0  0  0  0  0  0  0  0  0  0  0  0
    3.3500   18.4040   38.4190 C   0  0  0  0  0  0  0  0  0  0  0  0
    3.8900   21.7130   34.2820 C   0  0  0  0  0  0  0  0  0  0  0  0
    2.3220   23.5820   34.5790 C   0  0  0  0  0  0  0  0  0  0  0  0
    2.5570   17.4190   38.1780 F   0  0  0  0  0  0  0  0  0  0  0  0
    1.8420   20.8520   39.9540 N   0  0  0  0  0  4  0  0  0  0  0  0
    2.2730   20.9730   38.5420 C   0  0  0  0  0  0  0  0  0  0  0  0
    3.3430   21.3250   35.6120 C   0  0  0  0  0  0  0  0  0  0  0  0
    3.0340   19.8280   37.7610 C   0  0  0  0  0  0  0  0  0  0  0  0
    3.5230   20.1400   36.4700 C   0  0  0  0  0  0  0  0  0  0  0  0
    3.3570   22.9340   33.7150 C   0  0  0  0  0  0  0  0  0  0  0  0
    2.1470   22.6570   35.9460 S   0  0  0  0  0  0  0  0  0  0  0  0
    0.9201   25.2084   35.0896 H   0  0  0  0  0  0  0  0  0  0  0  0
    1.8573   25.4968   33.5846 H   0  0  0  0  0  0  0  0  0  0  0  0
    0.4967   24.3240   33.5846 H   0  0  0  0  0  0  0  0  0  0  0  0
    4.6504   21.1104   33.7636 H   0  0  0  0  0  0  0  0  0  0  0  0
    2.6333   21.0742   40.5748 H   0  0  0  0  0  0  0  0  0  0  0  0
    1.0692   21.5085   40.1345 H   0  0  0  0  0  0  0  0  0  0  0  0
    1.5238   19.8892   40.1345 H   0  0  0  0  0  0  0  0  0  0  0  0
    1.3585   21.1742   37.9647 H   0  0  0  0  0  0  0  0  0  0  0  0
    3.0598   21.7376   38.6224 H   0  0  0  0  0  0  0  0  0  0  0  0
    4.1523   19.3548   36.0258 H   0  0  0  0  0  0  0  0  0  0  0  0
  1 14  1  0
  3  7  1  0
  4  5  1  0
  5  2  1  0
  6 11  2  0
  7 15  1  0
  8  5  1  0
 10  9  1  0
 11 15  1  0
 11 13  1  0
 12  5  1  0
 12 10  1  0
 13 12  2  3
 14  6  1  0
 14  7  2  0
  3 16  1  0
  3 17  1  0
  3 18  1  0
  6 19  1  0
  9 20  1  0
  9 21  1  0
  9 22  1  0
 10 23  1  0
 10 24  1  0
 13 25  1  0
M  CHG  1   9   1
M  END
>  <mol_id>  (1) 
2026-09-16-6tgu-s0-n100-0001

>  <rmsd_to_ref>  (1) 


$$$$

     RDKit          3D

 49 49  0  0  0  0  0  0  0  0999 V2000
    5.0700   21.3810   33.5300 O   0  0  0  0  0  0  0  0  0  0  0  0
    2.9810   18.6930   38.3130 C   0  0  0  0  0  0  0  0  0  0  0  0
    0.2570   19.8530   42.1780 C   0  0  0  0  0  0  0  0  0  0  0  0
    3.5160   22.6380   31.3320 C   0  0  0  0  0  0  0  0  0  0  0  0
    2.6040   17.0110   39.6780 C   0  0  0  0  0  0  0  0  0  0  0  0
    3.8950   22.6200   34.8790 O   0  0  0  0  0  1  0  0  0  0  0  0
    1.2830   21.5500   40.8230 C   0  0  0  0  0  0  0  0  0  0  0  0
    2.3850   18.2930   39.6080 C   0  0  0  0  0  0  0  0  0  0  0  0
    0.4690   21.1960   41.8790 C   0  0  0  0  0  0  0  0  0  0  0  0
    2.4320   25.2760   29.2130 C   0  0  0  0  0  0  0  0  0  0  0  0
    2.7340   14.1350   38.9400 O   0  0  0  0  0  0  0  0  0  0  0  0
    3.8740   23.5650   28.8850 C   0  0  0  0  0  0  0  0  0  0  0  0
    3.1540   16.5170   38.5430 C   0  0  0  0  0  0  0  0  0  0  0  0
    3.3970   15.0650   38.1220 C   0  0  0  0  0  0  0  0  0  0  0  0
    2.9000   20.0890   37.7590 C   0  0  0  0  0  0  0  0  0  0  0  0
    3.7770   23.0280   32.5240 C   0  0  0  0  0  0  0  0  0  0  0  0
    3.4990   24.7010   30.0850 C   0  0  0  0  0  0  0  0  0  0  0  0
    3.4730   17.6110   37.8160 N   0  0  0  0  0  0  0  0  0  0  0  0
    1.9590   20.5540   40.1870 C   0  0  0  0  0  0  0  0  0  0  0  0
    0.9350   18.8880   41.5480 C   0  0  0  0  0  0  0  0  0  0  0  0
    4.6350   24.1510   31.3350 C   0  0  0  0  0  0  0  0  0  0  0  0
    4.3380   22.3410   33.5730 C   0  0  0  0  0  0  0  0  0  0  0  0
    1.7660   19.2290   40.4850 C   0  0  0  0  0  0  0  0  0  0  0  0
   -0.4816   19.5808   42.9464 H   0  0  0  0  0  0  0  0  0  0  0  0
    2.9046   21.7244   31.3707 H   0  0  0  0  0  0  0  0  0  0  0  0
    2.9632   23.4269   30.8009 H   0  0  0  0  0  0  0  0  0  0  0  0
    4.4561   22.4278   30.8009 H   0  0  0  0  0  0  0  0  0  0  0  0
    2.3686   16.3979   40.5604 H   0  0  0  0  0  0  0  0  0  0  0  0
    1.3823   22.5988   40.5064 H   0  0  0  0  0  0  0  0  0  0  0  0
    1.4247   18.1016   39.1069 H   0  0  0  0  0  0  0  0  0  0  0  0
   -0.0134   21.9763   42.4859 H   0  0  0  0  0  0  0  0  0  0  0  0
    1.6368   25.7045   29.8407 H   0  0  0  0  0  0  0  0  0  0  0  0
    2.8626   26.0642   28.5779 H   0  0  0  0  0  0  0  0  0  0  0  0
    2.0105   24.4829   28.5779 H   0  0  0  0  0  0  0  0  0  0  0  0
    2.8937   14.3591   39.8910 H   0  0  0  0  0  0  0  0  0  0  0  0
    4.1854   22.6217   29.3575 H   0  0  0  0  0  0  0  0  0  0  0  0
    2.9872   23.3864   28.2592 H   0  0  0  0  0  0  0  0  0  0  0  0
    4.6929   23.9494   28.2592 H   0  0  0  0  0  0  0  0  0  0  0  0
    3.0434   14.9365   37.0883 H   0  0  0  0  0  0  0  0  0  0  0  0
    4.4761   14.8729   38.2155 H   0  0  0  0  0  0  0  0  0  0  0  0
    2.8581   20.8107   38.5881 H   0  0  0  0  0  0  0  0  0  0  0  0
    3.7880   20.2907   37.1419 H   0  0  0  0  0  0  0  0  0  0  0  0
    1.9947   20.1866   37.1419 H   0  0  0  0  0  0  0  0  0  0  0  0
    3.0886   23.2301   33.3579 H   0  0  0  0  0  0  0  0  0  0  0  0
    2.7683   24.0021   30.5182 H   0  0  0  0  0  0  0  0  0  0  0  0
    2.6861   20.8214   39.4061 H   0  0  0  0  0  0  0  0  0  0  0  0
    0.8373   17.8393   41.8654 H   0  0  0  0  0  0  0  0  0  0  0  0
    5.4659   23.6099   30.8586 H   0  0  0  0  0  0  0  0  0  0  0  0
    5.0207   25.0251   31.8802 H   0  0  0  0  0  0  0  0  0  0  0  0
  1 22  2  0
  2  8  1  0
  7  9  1  0
  8  5  1  0
  8 23  1  0
  9  3  2  0
 10 17  1  0
 12 17  1  0
 13  5  2  0
 14 13  1  0
 14 11  1  0
 15  2  1  0
 16  4  1  0
 16 22  1  0
 17 21  1  0
 18  2  2  0
 18 13  1  0
 19 23  1  0
 19  7  2  0
 20  3  1  0
 21 16  1  0
 22  6  1  0
 23 20  2  0
  3 24  1  0
  4 25  1  0
  4 26  1  0
  4 27  1  0
  5 28  1  0
  7 29  1  0
  8 30  1  0
  9 31  1  0
 10 32  1  0
 10 33  1  0
 10 34  1  0
 11 35  1  0
 12 36  1  0
 12 37  1  0
 12 38  1  0
 14 39  1  0
 14 40  1  0
 15 41  1  0
 15 42  1  0
 15 43  1  0
 16 44  1  0
 17 45  1  0
 19 46  1  0
 20 47  1  0
 21 48  1  0
 21 49  1  0
M  CHG  1   6  -1
M  END
>  <mol_id>  (2) 
2026-09-16-6tgu-s0-n100-0002

>  <rmsd_to_ref>  (2) 


$$$$

     RDKit          3D

 63 65  0  0  0  0  0  0  0  0999 V2000
    1.8990   21.3690   36.2590 C   0  0  0  0  0  0  0  0  0  0  0  0
    3.5360   16.5800   37.3880 C   0  0  0  0  0  0  0  0  0  0  0  0
    1.7300   26.0450   32.4950 C   0  0  0  0  0  0  0  0  0  0  0  0
    1.9760   20.8940   39.1450 C   0  0  0  0  0  0  0  0  0  0  0  0
    1.4110   27.0290   33.4030 C   0  0  0  0  0  0  0  0  0  0  0  0
    2.7190   20.5600   36.6890 N   0  0  0  0  0  0  0  0  0  0  0  0
    2.9790   24.1360   31.8020 C   0  0  0  0  0  0  0  0  0  0  0  0
    2.5830   20.1900   38.0260 C   0  0  0  0  0  0  0  0  0  0  0  0
    2.9060   18.7350   40.0670 S   0  0  0  0  0  0  0  0  0  0  0  0
    3.6130   11.4080   38.0810 C   0  0  0  0  0  0  0  0  0  0  0  0
    0.7850   27.8870   31.4190 C   0  0  0  0  0  0  0  0  0  0  0  0
    2.3920   12.1490   36.0360 C   0  0  0  0  0  0  0  0  0  0  0  0
    5.0140   16.0250   37.2040 C   0  0  0  0  0  0  0  0  0  0  0  0
    3.1200   13.3130   36.0720 C   0  0  0  0  0  0  0  0  0  0  0  0
    3.7480   18.1740   37.4820 C   0  0  0  0  0  0  0  0  0  0  0  0
    1.7980   26.9220   34.7310 C   0  0  0  0  0  0  0  0  0  0  0  0
    2.1790   20.2710   40.3790 C   0  0  0  0  0  0  0  0  0  0  0  0
   -0.5050   29.1220   34.4860 C   0  0  0  0  0  0  0  0  0  0  0  0
    0.8930   28.0010   32.8840 N   0  0  0  0  0  0  0  0  0  0  0  0
    3.0580   19.0490   38.3770 C   0  0  0  0  0  0  0  0  0  0  0  0
    2.2260   24.8250   32.8710 C   0  0  0  0  0  0  0  0  0  0  0  0
    1.4800   11.9370   35.0510 O   0  0  0  0  0  0  0  0  0  0  0  0
    3.8560   13.7190   37.2580 C   0  0  0  0  0  0  0  0  0  0  0  0
    4.1440   12.6740   38.1640 C   0  0  0  0  0  0  0  0  0  0  0  0
    2.4520   22.6810   35.9540 C   0  0  0  0  0  0  0  0  0  0  0  0
    1.3950   26.6210   31.1340 C   0  0  0  0  0  0  0  0  0  0  0  0
    0.3220   28.9320   33.6150 C   0  0  0  0  0  0  0  0  0  0  0  0
    2.7160   23.0330   34.6530 C   0  0  0  0  0  0  0  0  0  0  0  0
    2.0950   24.1240   34.0800 C   0  0  0  0  0  0  0  0  0  0  0  0
    2.6960   11.1600   36.8860 C   0  0  0  0  0  0  0  0  0  0  0  0
    4.9200   14.5920   37.0790 O   0  0  0  0  0  0  0  0  0  0  0  0
    1.4604   20.9578   35.3378 H   0  0  0  0  0  0  0  0  0  0  0  0
    1.1571   21.5187   37.0572 H   0  0  0  0  0  0  0  0  0  0  0  0
    3.0797   16.1881   38.3090 H   0  0  0  0  0  0  0  0  0  0  0  0
    2.8599   16.2829   36.5727 H   0  0  0  0  0  0  0  0  0  0  0  0
    1.4097   21.8300   39.0302 H   0  0  0  0  0  0  0  0  0  0  0  0
    3.4664   20.1762   36.0932 H   0  0  0  0  0  0  0  0  0  0  0  0
    3.7192   23.4587   32.2530 H   0  0  0  0  0  0  0  0  0  0  0  0
    2.2828   23.5556   31.1787 H   0  0  0  0  0  0  0  0  0  0  0  0
    3.4954   24.8809   31.1787 H   0  0  0  0  0  0  0  0  0  0  0  0
    3.8338   10.6279   38.8245 H   0  0  0  0  0  0  0  0  0  0  0  0
    0.3416   28.6032   30.7116 H   0  0  0  0  0  0  0  0  0  0  0  0
    5.4670   16.4532   36.2977 H   0  0  0  0  0  0  0  0  0  0  0  0
    5.6439   16.3011   38.0625 H   0  0  0  0  0  0  0  0  0  0  0  0
    3.1469   13.9553   35.1794 H   0  0  0  0  0  0  0  0  0  0  0  0
    4.8163   18.3133   37.7040 H   0  0  0  0  0  0  0  0  0  0  0  0
    3.3043   18.4857   36.5249 H   0  0  0  0  0  0  0  0  0  0  0  0
    0.9435   27.1583   35.3821 H   0  0  0  0  0  0  0  0  0  0  0  0
    2.1393   25.8958   34.9319 H   0  0  0  0  0  0  0  0  0  0  0  0
    2.6180   27.6271   34.9319 H   0  0  0  0  0  0  0  0  0  0  0  0
    1.9232   20.6824   41.3666 H   0  0  0  0  0  0  0  0  0  0  0  0
   -0.6982   30.1427   34.8477 H   0  0  0  0  0  0  0  0  0  0  0  0
   -1.0599   28.2732   34.9122 H   0  0  0  0  0  0  0  0  0  0  0  0
    1.2986   24.3425   32.5287 H   0  0  0  0  0  0  0  0  0  0  0  0
    0.9589   11.0954   35.0316 H   0  0  0  0  0  0  0  0  0  0  0  0
    4.8385   12.8868   38.9900 H   0  0  0  0  0  0  0  0  0  0  0  0
    1.7406   23.4233   36.3449 H   0  0  0  0  0  0  0  0  0  0  0  0
    3.4514   22.6450   36.4121 H   0  0  0  0  0  0  0  0  0  0  0  0
    1.5787   26.1691   30.1481 H   0  0  0  0  0  0  0  0  0  0  0  0
    0.7542   29.9036   33.3334 H   0  0  0  0  0  0  0  0  0  0  0  0
    3.4293   22.4396   34.0621 H   0  0  0  0  0  0  0  0  0  0  0  0
    1.3095   24.5450   34.7249 H   0  0  0  0  0  0  0  0  0  0  0  0
    2.2794   10.1554   36.7210 H   0  0  0  0  0  0  0  0  0  0  0  0
  1  6  1  0
  2 15  1  0
  3 21  1  0
  3  5  2  0
  4 17  2  0
  5 16  1  0
  6  8  1  0
  8 20  2  0
  8  4  1  0
  9 17  1  0
 10 24  2  0
 11 19  1  0
 12 14  1  0
 12 30  2  0
 13  2  1  0
 14 23  2  0
 15 20  1  0
 19  5  1  0
 19 27  1  0
 20  9  1  0
 21  7  1  0
 21 29  1  0
 22 12  1  0
 23 24  1  0
 25  1  1  0
 26 11  2  0
 26  3  1  0
 27 18  2  3
 28 25  1  0
 29 28  2  3
 30 10  1  0
 31 13  1  0
 31 23  1  0
  1 32  1  0
  1 33  1  0
  2 34  1  0
  2 35  1  0
  4 36  1  0
  6 37  1  0
  7 38  1  0
  7 39  1  0
  7 40  1  0
 10 41  1  0
 11 42  1  0
 13 43  1  0
 13 44  1  0
 14 45  1  0
 15 46  1  0
 15 47  1  0
 16 48  1  0
 16 49  1  0
 16 50  1  0
 17 51  1  0
 18 52  1  0
 18 53  1  0
 21 54  1  0
 22 55  1  0
 24 56  1  0
 25 57  1  0
 25 58  1  0
 26 59  1  0
 27 60  1  0
 28 61  1  0
 29 62  1  0
 30 63  1  0
M  END
>  <mol_id>  (3) 
2026-09-16-6tgu-s0-n100-0003

>  <rmsd_to_ref>  (3) 


$$$$

     RDKit          3D

 37 35  0  0  0  0  0  0  0  0999 V2000
    4.1400   21.1730   35.2980 O   0  0  0  0  0  0  0  0  0  0  0  0
    2.7190   15.9100   37.5070 C   0  0  0  0  0  0  0  0  0  0  0  0
    3.7900   24.9500   31.4800 O   0  0  0  0  0  0  0  0  0  0  0  0
    1.7860   20.8640   40.0510 C   0  0  0  0  0  0  0  0  0  0  0  0
    2.5190   16.6680   39.7780 O   0  0  0  0  0  0  0  0  0  0  0  0
    3.4620   18.0470   38.2300 N   0  0  0  0  0  0  0  0  0  0  0  0
    4.7680   23.6710   33.8490 O   0  0  0  0  0  0  0  0  0  0  0  0
    2.3200   20.1730   38.8090 C   0  0  0  0  0  0  0  0  0  0  0  0
    1.8000   25.6280   32.6250 C   0  0  0  0  0  0  0  0  0  0  0  0
    3.2140   21.7110   34.3950 C   0  0  0  0  0  0  0  0  0  0  0  0
    3.4520   19.2600   38.9110 C   0  0  0  0  0  0  0  0  0  0  0  0
    4.2440   19.4590   39.8660 O   0  0  0  0  0  0  0  0  0  0  0  0
    2.8760   16.8450   38.6300 C   0  0  0  0  0  0  0  0  0  0  0  0
    3.1370   24.9690   32.6460 C   0  0  0  0  0  0  0  0  0  0  0  0
    1.2160   25.8940   31.4260 O   0  0  0  0  0  0  0  0  0  0  0  0
    2.9670   23.3260   34.7760 C   0  0  0  0  0  0  0  0  0  0  0  0
    2.3690   14.6650   37.8030 O   0  0  0  0  0  0  0  0  0  0  0  0
    3.4040   24.0800   33.7070 C   0  0  0  0  0  0  0  0  0  0  0  0
    1.1380   25.8120   33.6310 O   0  0  0  0  0  1  0  0  0  0  0  0
    3.8379   21.3485   36.2243 H   0  0  0  0  0  0  0  0  0  0  0  0
    3.6807   15.8665   36.9748 H   0  0  0  0  0  0  0  0  0  0  0  0
    1.8802   16.3097   36.9183 H   0  0  0  0  0  0  0  0  0  0  0  0
    4.7652   24.9216   31.6483 H   0  0  0  0  0  0  0  0  0  0  0  0
    2.1758   20.3596   40.9475 H   0  0  0  0  0  0  0  0  0  0  0  0
    2.1083   21.9157   40.0527 H   0  0  0  0  0  0  0  0  0  0  0  0
    0.6870   20.8173   40.0527 H   0  0  0  0  0  0  0  0  0  0  0  0
    3.9585   18.0345   37.3276 H   0  0  0  0  0  0  0  0  0  0  0  0
    4.9938   23.6033   34.8105 H   0  0  0  0  0  0  0  0  0  0  0  0
    2.6146   20.9664   38.1064 H   0  0  0  0  0  0  0  0  0  0  0  0
    1.4910   19.5145   38.5106 H   0  0  0  0  0  0  0  0  0  0  0  0
    2.2629   21.1634   34.4698 H   0  0  0  0  0  0  0  0  0  0  0  0
    3.5975   21.6227   33.3678 H   0  0  0  0  0  0  0  0  0  0  0  0
    3.8733   25.6510   33.0963 H   0  0  0  0  0  0  0  0  0  0  0  0
    1.8969   23.5101   34.9519 H   0  0  0  0  0  0  0  0  0  0  0  0
    3.5184   23.5955   35.6889 H   0  0  0  0  0  0  0  0  0  0  0  0
    2.3383   14.5558   38.7865 H   0  0  0  0  0  0  0  0  0  0  0  0
    3.2176   23.2264   33.0387 H   0  0  0  0  0  0  0  0  0  0  0  0
  2 17  1  0
  2 13  1  0
  6 13  1  0
  6 11  1  0
  8 11  1  0
  8  4  1  0
  9 14  1  0
  9 19  1  0
 10 16  1  0
 10  1  1  0
 11 12  2  0
 13  5  2  0
 14  3  1  0
 14 18  1  0
 15  9  2  0
 18  7  1  0
 18 16  1  0
  1 20  1  0
  2 21  1  0
  2 22  1  0
  3 23  1  0
  4 24  1  0
  4 25  1  0
  4 26  1  0
  6 27  1  0
  7 28  1  0
  8 29  1  0
  8 30  1  0
 10 31  1  0
 10 32  1  0
 14 33  1  0
 16 34  1  0
 16 35  1  0
 17 36  1  0
 18 37  1  0
M  CHG  1  19  -1
M  END
>  <mol_id>  (4) 
2026-09-16-6tgu-s0-n100-0004

>  <rmsd_to_ref>  (4) 


$$$$

     RDKit          3D

 62 62  0  0  0  0  0  0  0  0999 V2000
    0.7180   20.1550   41.6470 C   0  0  0  0  0  0  0  0  0  0  0  0
    2.4140   22.2850   35.2320 C   0  0  0  0  0  0  0  0  0  0  0  0
    2.8100   17.1360   39.0860 N   0  0  0  0  0  0  0  0  0  0  0  0
    2.7530   18.3930   38.6930 C   0  0  0  0  0  0  0  0  0  0  0  0
    2.4070   20.9260   37.4760 C   0  0  0  0  0  0  0  0  0  0  0  0
    3.7830   15.1560   37.8180 C   0  0  0  0  0  0  0  0  0  0  0  0
    4.4600   14.3390   36.8030 C   0  0  0  0  0  0  0  0  0  0  0  0
    2.4830   29.2400   31.4580 C   0  0  0  0  0  0  0  0  0  0  0  0
    5.4030   15.1740   36.0100 O   0  0  0  0  0  0  0  0  0  0  0  0
    1.8820   19.4270   39.5520 C   0  0  0  0  0  0  0  0  0  0  0  0
    3.5760   16.7340   37.9170 N   0  0  0  0  0  0  0  0  0  0  0  0
    1.6110   26.2030   31.9200 C   0  0  0  0  0  0  0  0  0  0  0  0
    3.2390   18.8310   37.3890 C   0  0  0  0  0  0  0  0  0  0  0  0
    1.3290   18.9700   40.9100 C   0  0  0  0  0  0  0  0  0  0  0  0
    3.7160   28.3860   30.8470 C   0  0  0  0  0  0  0  0  0  0  0  0
    2.1050   22.2450   36.7570 C   0  0  0  0  0  0  0  0  0  0  0  0
    3.2370   19.9830   36.8600 N   0  0  0  0  0  0  0  0  0  0  0  0
    3.1130   25.8810   31.5600 C   0  0  0  0  0  0  0  0  0  0  0  0
    1.7950   20.7420   38.8950 C   0  0  0  0  0  0  0  0  0  0  0  0
    2.3660   15.0690   40.4730 C   0  0  0  0  0  0  0  0  0  0  0  0
    4.2280   24.8870   31.5340 C   0  0  0  0  0  0  0  0  0  0  0  0
    2.2990   16.2970   39.9670 C   0  0  0  0  0  0  0  0  0  0  0  0
    1.4200   28.6720   32.7510 C   0  0  0  0  0  0  0  0  0  0  0  0
    1.1440   27.1340   33.1590 C   0  0  0  0  0  0  0  0  0  0  0  0
    3.7480   26.8660   30.5350 C   0  0  0  0  0  0  0  0  0  0  0  0
    0.8009   19.9943   42.7320 H   0  0  0  0  0  0  0  0  0  0  0  0
    1.2542   21.0748   41.3706 H   0  0  0  0  0  0  0  0  0  0  0  0
   -0.3423   20.2516   41.3706 H   0  0  0  0  0  0  0  0  0  0  0  0
    3.4945   22.4249   35.0804 H   0  0  0  0  0  0  0  0  0  0  0  0
    2.0982   21.3385   34.7690 H   0  0  0  0  0  0  0  0  0  0  0  0
    1.8676   23.1199   34.7690 H   0  0  0  0  0  0  0  0  0  0  0  0
    4.3009   14.8981   38.7535 H   0  0  0  0  0  0  0  0  0  0  0  0
    2.7516   14.9005   37.5334 H   0  0  0  0  0  0  0  0  0  0  0  0
    5.0196   13.5332   37.3004 H   0  0  0  0  0  0  0  0  0  0  0  0
    3.7050   13.9125   36.1262 H   0  0  0  0  0  0  0  0  0  0  0  0
    1.8226   29.4584   30.6058 H   0  0  0  0  0  0  0  0  0  0  0  0
    3.0268   30.0429   31.9773 H   0  0  0  0  0  0  0  0  0  0  0  0
    5.9844   15.6888   36.6241 H   0  0  0  0  0  0  0  0  0  0  0  0
    4.5015   17.1840   37.9607 H   0  0  0  0  0  0  0  0  0  0  0  0
    1.1311   25.2272   32.0862 H   0  0  0  0  0  0  0  0  0  0  0  0
    1.3301   26.8409   31.0690 H   0  0  0  0  0  0  0  0  0  0  0  0
    3.6761   18.0362   36.7667 H   0  0  0  0  0  0  0  0  0  0  0  0
    0.5571   18.2028   40.7499 H   0  0  0  0  0  0  0  0  0  0  0  0
    2.1490   18.5527   41.5128 H   0  0  0  0  0  0  0  0  0  0  0  0
    3.9492   28.8746   29.8894 H   0  0  0  0  0  0  0  0  0  0  0  0
    4.3824   28.3960   31.7221 H   0  0  0  0  0  0  0  0  0  0  0  0
    2.6997   23.0341   37.2404 H   0  0  0  0  0  0  0  0  0  0  0  0
    1.0167   22.3819   36.8397 H   0  0  0  0  0  0  0  0  0  0  0  0
    2.6854   25.5186   32.5065 H   0  0  0  0  0  0  0  0  0  0  0  0
    1.3027   21.5852   39.4017 H   0  0  0  0  0  0  0  0  0  0  0  0
    1.6773   14.7665   41.2756 H   0  0  0  0  0  0  0  0  0  0  0  0
    3.1101   14.3557   40.0889 H   0  0  0  0  0  0  0  0  0  0  0  0
    4.5151   24.6310   32.5646 H   0  0  0  0  0  0  0  0  0  0  0  0
    3.8973   23.9786   31.0092 H   0  0  0  0  0  0  0  0  0  0  0  0
    5.0926   25.3195   31.0092 H   0  0  0  0  0  0  0  0  0  0  0  0
    1.4930   16.8267   40.4959 H   0  0  0  0  0  0  0  0  0  0  0  0
    1.8036   29.1465   33.6662 H   0  0  0  0  0  0  0  0  0  0  0  0
    0.4443   28.9219   32.3088 H   0  0  0  0  0  0  0  0  0  0  0  0
    0.0720   26.9855   33.3556 H   0  0  0  0  0  0  0  0  0  0  0  0
    1.7028   26.8714   34.0694 H   0  0  0  0  0  0  0  0  0  0  0  0
    3.2248   26.7203   29.5784 H   0  0  0  0  0  0  0  0  0  0  0  0
    4.8183   26.6123   30.5471 H   0  0  0  0  0  0  0  0  0  0  0  0
  2 16  1  0
  3 22  1  0
  4  3  1  0
  4 10  2  0
  5 19  2  0
  6 11  1  0
  7  6  1  0
  8 23  1  0
  9  7  1  0
 10 14  1  0
 11  3  1  0
 12 24  1  0
 13  4  1  0
 14  1  1  0
 15  8  1  0
 16  5  1  0
 17 13  2  0
 17  5  1  0
 18 12  1  0
 19 10  1  0
 21 18  1  0
 22 20  2  3
 23 24  1  0
 25 15  1  0
 25 18  1  0
  1 26  1  0
  1 27  1  0
  1 28  1  0
  2 29  1  0
  2 30  1  0
  2 31  1  0
  6 32  1  0
  6 33  1  0
  7 34  1  0
  7 35  1  0
  8 36  1  0
  8 37  1  0
  9 38  1  0
 11 39  1  0
 12 40  1  0
 12 41  1  0
 13 42  1  0
 14 43  1  0
 14 44  1  0
 15 45  1  0
 15 46  1  0
 16 47  1  0
 16 48  1  0
 18 49  1  0
 19 50  1  0
 20 51  1  0
 20 52  1  0
 21 53  1  0
 21 54  1  0
 21 55  1  0
 22 56  1  0
 23 57  1  0
 23 58  1  0
 24 59  1  0
 24 60  1  0
 25 61  1  0
 25 62  1  0
M  END
>  <mol_id>  (5) 
2026-09-16-6tgu-s0-n100-0005

>  <rmsd_to_ref>  (5) 


$$$$

     RDKit          3D

 39 39  0  0  0  0  0  0  0  0999 V2000
    2.4410   21.7160   36.6420 C   0  0  0  0  0  0  0  0  0  0  0  0
    1.3950   25.8820   31.5430 C   0  0  0  0  0  0  0  0  0  0  0  0
    3.5750   22.2190   34.1280 C   0  0  0  0  0  0  0  0  0  0  0  0
    2.4030   19.5460   39.1450 C   0  0  0  0  0  0  0  0  0  0  0  0
    1.8300   19.6850   40.3030 C   0  0  0  0  0  0  0  0  0  0  0  0
    2.6640   22.5220   35.3300 C   0  0  0  0  0  0  0  0  0  0  0  0
    1.6650   18.3790   41.0450 C   0  0  0  0  0  0  0  0  0  0  0  0
    2.5580   21.0020   38.8290 C   0  0  0  0  0  0  0  0  0  0  0  0
    2.3380   23.5960   32.1270 C   0  0  0  0  0  0  0  0  0  0  0  0
    1.7430   24.0600   33.2660 O   0  0  0  0  0  0  0  0  0  0  0  0
    3.7840   22.7770   32.6320 C   0  0  0  0  0  0  0  0  0  0  0  0
    2.8760   18.3380   38.5880 C   0  0  0  0  0  0  0  0  0  0  0  0
    3.0460   20.6470   37.3450 C   0  0  0  0  0  0  0  0  0  0  0  0
    4.0970   19.7260   37.0750 O   0  0  0  0  0  0  0  0  0  0  0  0
    2.4020   24.8410   31.3120 C   0  0  0  0  0  0  0  0  0  0  0  0
    2.6370   17.1820   39.3900 C   0  0  0  0  0  0  0  0  0  0  0  0
    2.0400   17.1650   40.6100 C   0  0  0  0  0  0  0  0  0  0  0  0
    3.6650   17.7150   37.2610 F   0  0  0  0  0  0  0  0  0  0  0  0
    1.5550   22.0843   37.1799 H   0  0  0  0  0  0  0  0  0  0  0  0
    1.2568   26.0248   32.6249 H   0  0  0  0  0  0  0  0  0  0  0  0
    1.7320   26.8254   31.0887 H   0  0  0  0  0  0  0  0  0  0  0  0
    0.4409   25.5765   31.0887 H   0  0  0  0  0  0  0  0  0  0  0  0
    4.5785   22.3393   34.5621 H   0  0  0  0  0  0  0  0  0  0  0  0
    2.9790   21.3543   33.8008 H   0  0  0  0  0  0  0  0  0  0  0  0
    1.4987   20.6549   40.7025 H   0  0  0  0  0  0  0  0  0  0  0  0
    2.0807   23.4511   35.2496 H   0  0  0  0  0  0  0  0  0  0  0  0
    1.1922   18.4273   42.0370 H   0  0  0  0  0  0  0  0  0  0  0  0
    1.6164   21.5695   38.8656 H   0  0  0  0  0  0  0  0  0  0  0  0
    3.1772   21.6428   39.4740 H   0  0  0  0  0  0  0  0  0  0  0  0
    1.8593   22.8301   31.4990 H   0  0  0  0  0  0  0  0  0  0  0  0
    2.2129   23.6936   34.0566 H   0  0  0  0  0  0  0  0  0  0  0  0
    3.9898   21.9381   31.9509 H   0  0  0  0  0  0  0  0  0  0  0  0
    4.6334   23.4756   32.6111 H   0  0  0  0  0  0  0  0  0  0  0  0
    3.0289   19.7575   36.6980 H   0  0  0  0  0  0  0  0  0  0  0  0
    4.4738   19.3958   37.9288 H   0  0  0  0  0  0  0  0  0  0  0  0
    2.3237   24.5422   30.2563 H   0  0  0  0  0  0  0  0  0  0  0  0
    3.3494   25.3116   31.6138 H   0  0  0  0  0  0  0  0  0  0  0  0
    2.9668   16.2150   38.9824 H   0  0  0  0  0  0  0  0  0  0  0  0
    1.8787   16.2429   41.1878 H   0  0  0  0  0  0  0  0  0  0  0  0
  1 13  1  0
  3  6  1  0
  4  5  2  0
  5  7  1  0
  6  1  2  3
  8  4  1  0
  9 11  1  0
  9 10  1  0
 11  3  1  0
 12  4  1  0
 12 16  2  0
 13 14  1  0
 13  8  1  0
 15  2  1  0
 15  9  1  0
 16 17  1  0
 17  7  2  0
 18 12  1  0
  1 19  1  0
  2 20  1  0
  2 21  1  0
  2 22  1  0
  3 23  1  0
  3 24  1  0
  5 25  1  0
  6 26  1  0
  7 27  1  0
  8 28  1  0
  8 29  1  0
  9 30  1  0
 10 31  1  0
 11 32  1  0
 11 33  1  0
 13 34  1  0
 14 35  1  0
 15 36  1  0
 15 37  1  0
 16 38  1  0
 17 39  1  0
M  END
>  <mol_id>  (6) 
2026-09-16-6tgu-s0-n100-0006

>  <rmsd_to_ref>  (6) 


$$$$

     RDKit          3D

 62 62  0  0  0  0  0  0  0  0999 V2000
    2.2260   26.6100   32.8790 C   0  0  0  0  0  0  0  0  0  0  0  0
   -0.7810   17.1110   43.9270 C   0  0  0  0  0  0  0  0  0  0  0  0
    1.2380   27.7440   32.3090 C   0  0  0  0  0  0  0  0  0  0  0  0
    0.6670   18.9180   41.9980 C   0  0  0  0  0  0  0  0  0  0  0  0
    3.0950   24.4860   32.6860 O   0  0  0  0  0  0  0  0  0  0  0  0
    3.4260   19.0970   37.9420 C   0  0  0  0  0  0  0  0  0  0  0  0
   -0.7780   20.6390   42.7670 O   0  0  0  0  0  0  0  0  0  0  0  0
   -0.9470   18.4250   43.7260 C   0  0  0  0  0  0  0  0  0  0  0  0
    1.1320   24.1400   33.9820 C   0  0  0  0  0  0  0  0  0  0  0  0
    3.4330   21.7560   34.6410 C   0  0  0  0  0  0  0  0  0  0  0  0
    1.3420   17.7640   41.7480 C   0  0  0  0  0  0  0  0  0  0  0  0
    1.0440   16.5410   42.3640 C   0  0  0  0  0  0  0  0  0  0  0  0
   -1.5170   20.8790   41.5800 C   0  0  0  0  0  0  0  0  0  0  0  0
    2.7810   19.1170   40.3610 C   0  0  0  0  0  0  0  0  0  0  0  0
    1.7870   15.4310   42.0070 F   0  0  0  0  0  0  0  0  0  0  0  0
    2.7110   20.4460   37.9450 C   0  0  0  0  0  0  0  0  0  0  0  0
    2.3200   17.8250   40.8330 O   0  0  0  0  0  0  0  0  0  0  0  0
   -0.3550   19.2870   42.8110 C   0  0  0  0  0  0  0  0  0  0  0  0
    3.0940   22.7200   34.1590 C   0  0  0  0  0  0  0  0  0  0  0  0
    2.6120   25.4020   30.5150 C   0  0  0  0  0  0  0  0  0  0  0  0
    2.1900   25.2710   31.9100 C   0  0  0  0  0  0  0  0  0  0  0  0
    2.6000   23.9120   33.7010 C   0  0  0  0  0  0  0  0  0  0  0  0
    1.9400   24.4660   29.6040 C   0  0  0  0  0  0  0  0  0  0  0  0
    3.8240   18.7540   39.2970 C   0  0  0  0  0  0  0  0  0  0  0  0
    2.6740   21.0900   36.6700 C   0  0  0  0  0  0  0  0  0  0  0  0
    0.0800   16.1950   43.2930 C   0  0  0  0  0  0  0  0  0  0  0  0
    3.5700   20.8190   35.6950 C   0  0  0  0  0  0  0  0  0  0  0  0
    3.2517   27.0062   32.9111 H   0  0  0  0  0  0  0  0  0  0  0  0
    1.8973   26.3268   33.8898 H   0  0  0  0  0  0  0  0  0  0  0  0
   -1.4188   16.6790   44.7122 H   0  0  0  0  0  0  0  0  0  0  0  0
    0.7713   28.2796   33.1488 H   0  0  0  0  0  0  0  0  0  0  0  0
    1.8107   28.4540   31.6942 H   0  0  0  0  0  0  0  0  0  0  0  0
    0.4563   27.2740   31.6942 H   0  0  0  0  0  0  0  0  0  0  0  0
    1.0409   19.7574   41.3934 H   0  0  0  0  0  0  0  0  0  0  0  0
    2.7474   18.3237   37.5528 H   0  0  0  0  0  0  0  0  0  0  0  0
    4.3192   19.1580   37.3029 H   0  0  0  0  0  0  0  0  0  0  0  0
   -2.0239   18.5276   43.5267 H   0  0  0  0  0  0  0  0  0  0  0  0
   -0.3950   18.7688   44.6132 H   0  0  0  0  0  0  0  0  0  0  0  0
    0.9665   24.1657   35.0692 H   0  0  0  0  0  0  0  0  0  0  0  0
    0.8186   25.0976   33.5406 H   0  0  0  0  0  0  0  0  0  0  0  0
    0.5429   23.3226   33.5406 H   0  0  0  0  0  0  0  0  0  0  0  0
   -2.5333   21.2091   41.8412 H   0  0  0  0  0  0  0  0  0  0  0  0
   -1.0179   21.6612   40.9892 H   0  0  0  0  0  0  0  0  0  0  0  0
   -1.5728   19.9528   40.9892 H   0  0  0  0  0  0  0  0  0  0  0  0
    1.9539   19.6936   39.9211 H   0  0  0  0  0  0  0  0  0  0  0  0
    3.1885   19.7479   41.1647 H   0  0  0  0  0  0  0  0  0  0  0  0
    1.6760   20.2875   38.2820 H   0  0  0  0  0  0  0  0  0  0  0  0
    3.2806   21.1051   38.6167 H   0  0  0  0  0  0  0  0  0  0  0  0
    2.3948   26.4275   30.1814 H   0  0  0  0  0  0  0  0  0  0  0  0
    3.6863   25.1680   30.4810 H   0  0  0  0  0  0  0  0  0  0  0  0
    1.1739   24.8949   31.7201 H   0  0  0  0  0  0  0  0  0  0  0  0
    3.1421   24.5710   34.3951 H   0  0  0  0  0  0  0  0  0  0  0  0
    1.3971   23.7099   30.1901 H   0  0  0  0  0  0  0  0  0  0  0  0
    1.2302   25.0174   28.9698 H   0  0  0  0  0  0  0  0  0  0  0  0
    2.6894   23.9698   28.9698 H   0  0  0  0  0  0  0  0  0  0  0  0
    4.0017   17.6694   39.3419 H   0  0  0  0  0  0  0  0  0  0  0  0
    4.7276   19.3393   39.5225 H   0  0  0  0  0  0  0  0  0  0  0  0
    1.6836   20.8701   36.2449 H   0  0  0  0  0  0  0  0  0  0  0  0
    2.9317   22.1267   36.9325 H   0  0  0  0  0  0  0  0  0  0  0  0
   -0.0211   15.1314   43.5546 H   0  0  0  0  0  0  0  0  0  0  0  0
    3.3919   19.8051   35.3073 H   0  0  0  0  0  0  0  0  0  0  0  0
    4.5870   20.8851   36.1088 H   0  0  0  0  0  0  0  0  0  0  0  0
  3  1  1  0
  4 18  2  0
  5 22  1  0
  6 16  1  0
  6 24  1  0
  7 18  1  0
  8  2  1  0
 10 27  1  0
 11  4  1  0
 11 12  2  0
 12 26  1  0
 13  7  1  0
 14 17  1  0
 15 12  1  0
 17 11  1  0
 18  8  1  0
 19 10  3  0
 20 21  1  0
 21  5  1  0
 21  1  1  0
 22  9  1  0
 22 19  1  0
 23 20  1  0
 24 14  1  0
 25 16  1  0
 26  2  2  0
 27 25  1  0
  1 28  1  0
  1 29  1  0
  2 30  1  0
  3 31  1  0
  3 32  1  0
  3 33  1  0
  4 34  1  0
  6 35  1  0
  6 36  1  0
  8 37  1  0
  8 38  1  0
  9 39  1  0
  9 40  1  0
  9 41  1  0
 13 42  1  0
 13 43  1  0
 13 44  1  0
 14 45  1  0
 14 46  1  0
 16 47  1  0
 16 48  1  0
 20 49  1  0
 20 50  1  0
 21 51  1  0
 22 52  1  0
 23 53  1  0
 23 54  1  0
 23 55  1  0
 24 56  1  0
 24 57  1  0
 25 58  1  0
 25 59  1  0
 26 60  1  0
 27 61  1  0
 27 62  1  0
M  END
>  <mol_id>  (7) 
2026-09-16-6tgu-s0-n100-0007

>  <rmsd_to_ref>  (7) 


$$$$

     RDKit          3D

 72 74  0  0  0  0  0  0  0  0999 V2000
    2.0490   19.7990   40.3630 C   0  0  0  0  0  0  0  0  0  0  0  0
    2.6990   18.9470   39.3990 C   0  0  0  0  0  0  0  0  0  0  0  0
    4.6560   24.2790   32.5570 O   0  0  0  0  0  0  0  0  0  0  0  0
    1.5630   25.6810   33.8200 C   0  0  0  0  0  0  0  0  0  0  0  0
    2.5430   17.4490   39.3630 S   0  0  0  0  0  0  0  0  0  0  0  0
    2.5190   20.7560   37.5220 C   0  0  0  0  0  0  0  0  0  0  0  0
    2.3880   13.4500   35.0460 O   0  0  0  0  0  0  0  0  0  0  0  0
   -0.8250   19.3950   44.5380 C   0  0  0  0  0  0  0  0  0  0  0  0
   -0.2020   18.3420   42.4670 C   0  0  0  0  0  0  0  0  0  0  0  0
   -0.3310   18.2330   43.8870 C   0  0  0  0  0  0  0  0  0  0  0  0
    2.0130   26.4290   31.5770 C   0  0  0  0  0  0  0  0  0  0  0  0
    3.1770   15.6050   37.7430 C   0  0  0  0  0  0  0  0  0  0  0  0
    4.2800   13.9550   36.5190 C   0  0  0  0  0  0  0  0  0  0  0  0
    5.2410   16.1610   36.6160 O   0  0  0  0  0  0  0  0  0  0  0  0
    2.6530   24.7650   33.7430 C   0  0  0  0  0  0  0  0  0  0  0  0
   -0.2810   20.8000   42.7450 C   0  0  0  0  0  0  0  0  0  0  0  0
    3.7640   18.6070   36.3380 O   0  0  0  0  0  0  0  0  0  0  0  0
   -0.7700   20.5850   43.9530 N   0  0  0  0  0  0  0  0  0  0  0  0
    3.1250   17.0770   38.0230 N   0  0  0  0  0  0  0  0  0  0  0  0
    4.5340   15.1680   37.3550 C   0  0  0  0  0  0  0  0  0  0  0  0
    3.4880   24.8920   32.6280 C   0  0  0  0  0  0  0  0  0  0  0  0
    0.7020   28.5680   33.7210 C   0  0  0  0  0  0  0  0  0  0  0  0
    3.9940   25.7440   30.2730 C   0  0  0  0  0  0  0  0  0  0  0  0
    0.7280   19.6030   40.6810 C   0  0  0  0  0  0  0  0  0  0  0  0
    2.8410   23.8090   34.8290 C   0  0  0  0  0  0  0  0  0  0  0  0
    0.2000   19.7140   41.9480 C   0  0  0  0  0  0  0  0  0  0  0  0
    1.2910   26.5270   32.7680 C   0  0  0  0  0  0  0  0  0  0  0  0
    3.1880   19.6170   38.2190 C   0  0  0  0  0  0  0  0  0  0  0  0
    2.8540   14.0600   36.0980 C   0  0  0  0  0  0  0  0  0  0  0  0
    0.2430   27.4920   32.8650 N   0  0  0  0  0  0  0  0  0  0  0  0
    3.5150   22.5030   34.7340 C   0  0  0  0  0  0  0  0  0  0  0  0
    3.1270   25.6760   31.4970 C   0  0  0  0  0  0  0  0  0  0  0  0
    2.2170   15.2540   36.6360 C   0  0  0  0  0  0  0  0  0  0  0  0
    4.5890   12.7400   37.0410 O   0  0  0  0  0  0  0  0  0  0  0  0
    3.3230   18.4650   37.3400 C   0  0  0  0  0  0  0  0  0  0  0  0
    2.1334   20.8279   39.9833 H   0  0  0  0  0  0  0  0  0  0  0  0
    2.5701   19.5574   41.3011 H   0  0  0  0  0  0  0  0  0  0  0  0
    3.5360   18.7090   40.0719 H   0  0  0  0  0  0  0  0  0  0  0  0
    5.2246   24.3887   31.7540 H   0  0  0  0  0  0  0  0  0  0  0  0
    0.9366   25.7120   34.7237 H   0  0  0  0  0  0  0  0  0  0  0  0
    2.1096   21.4529   38.2681 H   0  0  0  0  0  0  0  0  0  0  0  0
    3.2518   21.2818   36.8923 H   0  0  0  0  0  0  0  0  0  0  0  0
    1.7029   20.3721   36.8923 H   0  0  0  0  0  0  0  0  0  0  0  0
    1.8122   12.6963   35.3296 H   0  0  0  0  0  0  0  0  0  0  0  0
   -1.2606   19.3069   45.5442 H   0  0  0  0  0  0  0  0  0  0  0  0
   -0.3816   17.4901   41.7947 H   0  0  0  0  0  0  0  0  0  0  0  0
   -0.0670   17.3165   44.4351 H   0  0  0  0  0  0  0  0  0  0  0  0
    1.6660   26.9764   30.6882 H   0  0  0  0  0  0  0  0  0  0  0  0
    2.8946   15.0863   38.6710 H   0  0  0  0  0  0  0  0  0  0  0  0
    4.9903   13.9713   35.6792 H   0  0  0  0  0  0  0  0  0  0  0  0
    5.6853   16.7851   37.2431 H   0  0  0  0  0  0  0  0  0  0  0  0
   -0.2433   21.8250   42.3477 H   0  0  0  0  0  0  0  0  0  0  0  0
    5.1705   14.9736   38.2308 H   0  0  0  0  0  0  0  0  0  0  0  0
    0.5778   28.2769   34.7745 H   0  0  0  0  0  0  0  0  0  0  0  0
    1.7644   28.7694   33.5191 H   0  0  0  0  0  0  0  0  0  0  0  0
    0.1121   29.4742   33.5191 H   0  0  0  0  0  0  0  0  0  0  0  0
    5.0486   25.8267   30.5748 H   0  0  0  0  0  0  0  0  0  0  0  0
    3.8545   24.8322   29.6738 H   0  0  0  0  0  0  0  0  0  0  0  0
    3.7141   26.6229   29.6738 H   0  0  0  0  0  0  0  0  0  0  0  0
    0.1672   20.3210   40.0646 H   0  0  0  0  0  0  0  0  0  0  0  0
    0.6424   18.5179   40.5225 H   0  0  0  0  0  0  0  0  0  0  0  0
    3.3925   24.3607   35.6045 H   0  0  0  0  0  0  0  0  0  0  0  0
    1.8022   23.4712   34.9589 H   0  0  0  0  0  0  0  0  0  0  0  0
    4.0476   20.2280   38.5317 H   0  0  0  0  0  0  0  0  0  0  0  0
    2.3602   13.2005   36.5749 H   0  0  0  0  0  0  0  0  0  0  0  0
   -0.6777   27.4337   32.4070 H   0  0  0  0  0  0  0  0  0  0  0  0
    3.7135   22.1184   35.7453 H   0  0  0  0  0  0  0  0  0  0  0  0
    2.8693   21.7957   34.1929 H   0  0  0  0  0  0  0  0  0  0  0  0
    4.4656   22.6195   34.1929 H   0  0  0  0  0  0  0  0  0  0  0  0
    1.2111   15.0370   37.0248 H   0  0  0  0  0  0  0  0  0  0  0  0
    2.0532   16.0559   35.9010 H   0  0  0  0  0  0  0  0  0  0  0  0
    4.5757   12.7925   38.0295 H   0  0  0  0  0  0  0  0  0  0  0  0
  1 24  1  0
  2  1  1  0
  3 21  1  0
  5  2  1  0
  9 10  1  0
 10  8  2  0
 11 27  2  0
 12 33  1  0
 12 19  1  0
 13 34  1  0
 13 20  1  0
 15  4  2  0
 15 25  1  0
 16 18  2  0
 17 35  2  0
 18  8  1  0
 19  5  1  0
 20 14  1  0
 20 12  1  0
 21 15  1  0
 23 32  1  0
 24 26  1  0
 26  9  2  0
 26 16  1  0
 27 30  1  0
 27  4  1  0
 28  6  1  0
 28  2  1  0
 29  7  1  0
 29 13  1  0
 29 33  1  0
 30 22  1  0
 31 25  1  0
 32 11  1  0
 32 21  2  0
 35 19  1  0
 35 28  1  0
  1 36  1  0
  1 37  1  0
  2 38  1  0
  3 39  1  0
  4 40  1  0
  6 41  1  0
  6 42  1  0
  6 43  1  0
  7 44  1  0
  8 45  1  0
  9 46  1  0
 10 47  1  0
 11 48  1  0
 12 49  1  0
 13 50  1  0
 14 51  1  0
 16 52  1  0
 20 53  1  0
 22 54  1  0
 22 55  1  0
 22 56  1  0
 23 57  1  0
 23 58  1  0
 23 59  1  0
 24 60  1  0
 24 61  1  0
 25 62  1  0
 25 63  1  0
 28 64  1  0
 29 65  1  0
 30 66  1  0
 31 67  1  0
 31 68  1  0
 31 69  1  0
 33 70  1  0
 33 71  1  0
 34 72  1  0
M  END
>  <mol_id>  (8) 
2026-09-16-6tgu-s0-n100-0008

>  <rmsd_to_ref>  (8) 


$$$$

     RDKit          3D

 68 70  0  0  0  0  0  0  0  0999 V2000
    4.0750   15.6670   36.4930 N   0  0  0  0  0  0  0  0  0  0  0  0
    1.7160   20.2710   39.6930 C   0  0  0  0  0  0  0  0  0  0  0  0
    1.9720   14.2950   33.3530 N   0  0  0  0  0  0  0  0  0  0  0  0
    3.7730   25.7040   33.3680 C   0  0  0  0  0  0  0  0  0  0  0  0
    3.0160   27.9120   34.0650 C   0  0  0  0  0  0  0  0  0  0  0  0
    5.4970   16.1260   36.3290 C   0  0  0  0  0  0  0  0  0  0  0  0
    3.5870   20.1180   37.1020 C   0  0  0  0  0  0  0  0  0  0  0  0
    2.2180   23.0440   35.0170 O   0  0  0  0  0  0  0  0  0  0  0  0
    2.5750   19.2870   39.3090 C   0  0  0  0  0  0  0  0  0  0  0  0
    3.9740   25.0880   34.6430 C   0  0  0  0  0  0  0  0  0  0  0  0
    0.6000   20.8900   41.5600 C   0  0  0  0  0  0  0  0  0  0  0  0
    4.5470   23.6300   34.0890 C   0  0  0  0  0  0  0  0  0  0  0  0
    2.0170   26.7890   31.9760 C   0  0  0  0  0  0  0  0  0  0  0  0
    4.8530   25.9330   34.2890 O   0  0  0  0  0  0  0  0  0  0  0  0
    4.5610   13.7170   33.7840 C   0  0  0  0  0  0  0  0  0  0  0  0
    1.0680   27.8070   31.9670 C   0  0  0  0  0  0  0  0  0  0  0  0
    1.3100   20.2330   40.8220 C   0  0  0  0  0  0  0  0  0  0  0  0
    2.5830   15.8190   38.3230 O   0  0  0  0  0  0  0  0  0  0  0  0
    3.1920   16.4280   37.4920 C   0  0  0  0  0  0  0  0  0  0  0  0
    3.9940   21.2550   34.7130 S   0  0  0  0  0  0  0  0  0  0  0  0
    3.1360   13.4310   33.2830 C   0  0  0  0  0  0  0  0  0  0  0  0
    4.7690   13.4400   35.2930 C   0  0  0  0  0  0  0  0  0  0  0  0
    1.9920   28.8520   33.9600 C   0  0  0  0  0  0  0  0  0  0  0  0
    3.7560   14.2100   36.1380 C   0  0  0  0  0  0  0  0  0  0  0  0
   -1.7050   20.5490   42.0290 O   0  0  0  0  0  0  0  0  0  0  0  0
    2.9470   12.2250   33.2370 O   0  0  0  0  0  0  0  0  0  0  0  0
    1.0120   28.7710   32.9330 C   0  0  0  0  0  0  0  0  0  0  0  0
   -0.5150   20.1100   42.0810 C   0  0  0  0  0  0  0  0  0  0  0  0
    3.4690   17.7460   37.3730 N   0  0  0  0  0  0  0  0  0  0  0  0
    3.4380   22.8190   34.3700 C   0  0  0  0  0  0  0  0  0  0  0  0
    3.4140   20.3350   36.1540 C   0  0  0  0  0  0  0  0  0  0  0  0
   -0.3830   18.7620   42.6960 C   0  0  0  0  0  0  0  0  0  0  0  0
    1.9120   18.6880   40.6940 S   0  0  0  0  0  0  0  0  0  0  0  0
    2.9420   26.8130   33.1880 C   0  0  0  0  0  0  0  0  0  0  0  0
    2.9300   18.8100   38.0730 C   0  0  0  0  0  0  0  0  0  0  0  0
    0.8429   20.2277   39.0253 H   0  0  0  0  0  0  0  0  0  0  0  0
    2.3023   21.1998   39.6327 H   0  0  0  0  0  0  0  0  0  0  0  0
    1.0692   13.9744   32.9747 H   0  0  0  0  0  0  0  0  0  0  0  0
    2.0487   15.2287   33.7809 H   0  0  0  0  0  0  0  0  0  0  0  0
    3.5589   25.3277   32.3568 H   0  0  0  0  0  0  0  0  0  0  0  0
    3.8348   28.0225   34.7912 H   0  0  0  0  0  0  0  0  0  0  0  0
    5.9515   16.2727   37.3199 H   0  0  0  0  0  0  0  0  0  0  0  0
    6.0659   15.3659   35.7735 H   0  0  0  0  0  0  0  0  0  0  0  0
    5.5141   17.0753   35.7735 H   0  0  0  0  0  0  0  0  0  0  0  0
    4.2879   20.7880   37.6214 H   0  0  0  0  0  0  0  0  0  0  0  0
    3.6326   19.2712   39.0069 H   0  0  0  0  0  0  0  0  0  0  0  0
    3.4150   24.9516   35.5805 H   0  0  0  0  0  0  0  0  0  0  0  0
    0.2016   21.7480   40.9986 H   0  0  0  0  0  0  0  0  0  0  0  0
    1.2107   21.2216   42.4127 H   0  0  0  0  0  0  0  0  0  0  0  0
    4.7702   23.6600   33.0123 H   0  0  0  0  0  0  0  0  0  0  0  0
    5.4937   23.2987   34.5407 H   0  0  0  0  0  0  0  0  0  0  0  0
    2.0930   26.0341   31.1795 H   0  0  0  0  0  0  0  0  0  0  0  0
    4.7881   14.7762   33.5929 H   0  0  0  0  0  0  0  0  0  0  0  0
    5.2307   13.0337   33.2412 H   0  0  0  0  0  0  0  0  0  0  0  0
    0.3333   27.8364   31.1488 H   0  0  0  0  0  0  0  0  0  0  0  0
    1.0796   20.9388   41.6336 H   0  0  0  0  0  0  0  0  0  0  0  0
    4.6484   12.3628   35.4805 H   0  0  0  0  0  0  0  0  0  0  0  0
    5.7803   13.7702   35.5728 H   0  0  0  0  0  0  0  0  0  0  0  0
    1.9410   29.6750   34.6881 H   0  0  0  0  0  0  0  0  0  0  0  0
    2.8030   14.2082   35.5886 H   0  0  0  0  0  0  0  0  0  0  0  0
    3.7502   13.6863   37.1053 H   0  0  0  0  0  0  0  0  0  0  0  0
    0.1898   29.5015   32.9161 H   0  0  0  0  0  0  0  0  0  0  0  0
    4.1768   17.9906   36.6658 H   0  0  0  0  0  0  0  0  0  0  0  0
    2.4995   19.8009   35.8564 H   0  0  0  0  0  0  0  0  0  0  0  0
   -0.3922   18.8565   43.7919 H   0  0  0  0  0  0  0  0  0  0  0  0
   -1.2234   18.1288   42.3754 H   0  0  0  0  0  0  0  0  0  0  0  0
    0.5643   18.3039   42.3754 H   0  0  0  0  0  0  0  0  0  0  0  0
    2.0339   18.2367   38.3530 H   0  0  0  0  0  0  0  0  0  0  0  0
  1 19  1  0
  2 17  1  0
  4 34  1  0
  4 14  1  0
  4 10  1  0
  6  1  1  0
  9 35  1  0
  9  2  1  0
  9 33  1  0
 10 12  1  0
 11 28  1  0
 12 30  1  0
 13 34  2  0
 14 10  1  0
 15 22  1  0
 16 13  1  0
 16 27  2  0
 17 11  1  0
 19 18  2  0
 20 31  1  0
 21  3  1  0
 21 15  1  0
 22 24  1  0
 23  5  2  0
 24  1  1  0
 25 28  2  0
 26 21  2  0
 27 23  1  0
 28 32  1  0
 29 19  1  0
 29 35  1  0
 30 20  1  0
 30  8  2  0
 31  7  2  3
 33 17  1  0
 34  5  1  0
 35  7  1  0
  2 36  1  0
  2 37  1  0
  3 38  1  0
  3 39  1  0
  4 40  1  0
  5 41  1  0
  6 42  1  0
  6 43  1  0
  6 44  1  0
  7 45  1  0
  9 46  1  0
 10 47  1  0
 11 48  1  0
 11 49  1  0
 12 50  1  0
 12 51  1  0
 13 52  1  0
 15 53  1  0
 15 54  1  0
 16 55  1  0
 17 56  1  0
 22 57  1  0
 22 58  1  0
 23 59  1  0
 24 60  1  0
 24 61  1  0
 27 62  1  0
 29 63  1  0
 31 64  1  0
 32 65  1  0
 32 66  1  0
 32 67  1  0
 35 68  1  0
M  END
>  <mol_id>  (9) 
2026-09-16-6tgu-s0-n100-0009

>  <rmsd_to_ref>  (9) 


$$$$

     RDKit          3D

 49 50  0  0  0  0  0  0  0  0999 V2000
    3.1740   23.6120   31.4980 C   0  0  0  0  0  0  0  0  0  0  0  0
    3.6200   22.4060   34.1830 C   0  0  0  0  0  0  0  0  0  0  0  0
    4.2880   18.6080   38.8280 O   0  0  0  0  0  0  0  0  0  0  0  0
    2.2360   22.7940   33.7020 C   0  0  0  0  0  0  0  0  0  0  0  0
    2.9750   20.6240   38.1400 N   0  0  0  0  0  0  0  0  0  0  0  0
    2.2020   23.7080   32.5380 C   0  0  0  0  0  0  0  0  0  0  0  0
    1.3720   24.8770   32.5300 C   0  0  0  0  0  0  0  0  0  0  0  0
    3.0790   24.4640   30.3130 C   0  0  0  0  0  0  0  0  0  0  0  0
    2.1560   19.4480   40.3610 C   0  0  0  0  0  0  0  0  0  0  0  0
    0.2180   20.2790   41.3750 C   0  0  0  0  0  0  0  0  0  0  0  0
    2.3850   21.0560   35.7980 C   0  0  0  0  0  0  0  0  0  0  0  0
    4.3510   20.5030   40.3620 O   0  0  0  0  0  0  0  0  0  0  0  0
    2.6240   19.9760   36.8610 C   0  0  0  0  0  0  0  0  0  0  0  0
    0.8590   25.2510   31.1780 C   0  0  0  0  0  0  0  0  0  0  0  0
    1.9650   25.4630   30.2080 C   0  0  0  0  0  0  0  0  0  0  0  0
    3.6020   19.8350   39.3760 S   0  0  0  0  0  6  0  0  0  0  0  0
    2.0800   18.0670   40.6180 C   0  0  0  0  0  0  0  0  0  0  0  0
    0.0410   17.9000   41.8890 C   0  0  0  0  0  0  0  0  0  0  0  0
    3.5690   21.1150   34.9400 C   0  0  0  0  0  0  0  0  0  0  0  0
   -0.3810   19.1580   41.8310 C   0  0  0  0  0  0  0  0  0  0  0  0
    1.4350   20.4670   40.6480 C   0  0  0  0  0  0  0  0  0  0  0  0
    1.1130   17.3870   41.3080 C   0  0  0  0  0  0  0  0  0  0  0  0
    4.0008   22.8920   31.5881 H   0  0  0  0  0  0  0  0  0  0  0  0
    4.0093   23.1966   34.8413 H   0  0  0  0  0  0  0  0  0  0  0  0
    4.2780   22.2811   33.3104 H   0  0  0  0  0  0  0  0  0  0  0  0
    1.7019   21.8728   33.4260 H   0  0  0  0  0  0  0  0  0  0  0  0
    1.7691   23.3433   34.5328 H   0  0  0  0  0  0  0  0  0  0  0  0
    2.1049   21.0507   38.4889 H   0  0  0  0  0  0  0  0  0  0  0  0
    1.4699   22.9447   32.2355 H   0  0  0  0  0  0  0  0  0  0  0  0
    0.5099   24.6931   33.1880 H   0  0  0  0  0  0  0  0  0  0  0  0
    1.9983   25.7132   32.8743 H   0  0  0  0  0  0  0  0  0  0  0  0
    3.8193   24.3728   29.5045 H   0  0  0  0  0  0  0  0  0  0  0  0
   -0.3242   21.2088   41.6021 H   0  0  0  0  0  0  0  0  0  0  0  0
    1.5005   20.7988   35.1967 H   0  0  0  0  0  0  0  0  0  0  0  0
    2.2103   22.0311   36.2761 H   0  0  0  0  0  0  0  0  0  0  0  0
    1.7098   19.3780   36.9901 H   0  0  0  0  0  0  0  0  0  0  0  0
    3.4460   19.3184   36.5418 H   0  0  0  0  0  0  0  0  0  0  0  0
    0.2101   24.4438   30.8074 H   0  0  0  0  0  0  0  0  0  0  0  0
    0.3012   26.1943   31.2725 H   0  0  0  0  0  0  0  0  0  0  0  0
    2.3844   26.4656   30.3777 H   0  0  0  0  0  0  0  0  0  0  0  0
    1.5303   25.3453   29.2044 H   0  0  0  0  0  0  0  0  0  0  0  0
    2.9010   17.4568   40.2135 H   0  0  0  0  0  0  0  0  0  0  0  0
   -0.5692   17.2072   42.4871 H   0  0  0  0  0  0  0  0  0  0  0  0
    3.5369   20.2798   34.2249 H   0  0  0  0  0  0  0  0  0  0  0  0
    4.4650   21.0453   35.5743 H   0  0  0  0  0  0  0  0  0  0  0  0
   -1.3967   19.3141   42.2233 H   0  0  0  0  0  0  0  0  0  0  0  0
    2.0625   21.1473   41.2425 H   0  0  0  0  0  0  0  0  0  0  0  0
    1.0992   20.8341   39.6669 H   0  0  0  0  0  0  0  0  0  0  0  0
    1.2410   16.2974   41.3879 H   0  0  0  0  0  0  0  0  0  0  0  0
  1  6  1  0
  2 19  1  0
  3 16  2  0
  4  2  1  0
  5 16  1  0
  6  4  1  0
  7  6  1  0
  8  1  2  0
  9 17  2  0
  9 21  1  0
 10 20  2  0
 11 13  1  0
 13  5  1  0
 14  7  1  0
 15  8  1  0
 15 14  1  0
 16  9  1  0
 16 12  2  0
 17 22  1  0
 19 11  1  0
 20 18  1  0
 21 10  1  0
 22 18  2  0
  1 23  1  0
  2 24  1  0
  2 25  1  0
  4 26  1  0
  4 27  1  0
  5 28  1  0
  6 29  1  0
  7 30  1  0
  7 31  1  0
  8 32  1  0
 10 33  1  0
 11 34  1  0
 11 35  1  0
 13 36  1  0
 13 37  1  0
 14 38  1  0
 14 39  1  0
 15 40  1  0
 15 41  1  0
 17 42  1  0
 18 43  1  0
 19 44  1  0
 19 45  1  0
 20 46  1  0
 21 47  1  0
 21 48  1  0
 22 49  1  0
M  END
>  <mol_id>  (10) 
2026-09-16-6tgu-s0-n100-0010

>  <rmsd_to_ref>  (10) 


$$$$

     RDKit          3D

 63 64  0  0  0  0  0  0  0  0999 V2000
    2.1970   21.4290   38.1610 O   0  0  0  0  0  0  0  0  0  0  0  0
    1.3500   14.6350   42.6350 C   0  0  0  0  0  0  0  0  0  0  0  0
    2.4950   14.9600   40.5900 C   0  0  0  0  0  0  0  0  0  0  0  0
    3.7670   26.1900   30.4000 S   0  0  0  0  0  0  0  0  0  0  0  0
    3.3060   23.7030   32.2040 C   0  0  0  0  0  0  0  0  0  0  0  0
    1.1830   16.2710   42.3770 S   0  0  0  0  0  0  0  0  0  0  0  0
    2.3500   20.7690   39.6160 C   0  0  0  0  0  0  0  0  0  0  0  0
    3.7740   21.2910   34.6640 C   0  0  0  0  0  0  0  0  0  0  0  0
    2.9350   18.8920   38.1460 C   0  0  0  0  0  0  0  0  0  0  0  0
    3.7870   19.3250   37.3120 C   0  0  0  0  0  0  0  0  0  0  0  0
    2.7120   22.0960   35.4860 C   0  0  0  0  0  0  0  0  0  0  0  0
   -1.6850   24.9090   26.3140 C   0  0  0  0  0  0  0  0  0  0  0  0
    2.1880   13.9820   41.5710 C   0  0  0  0  0  0  0  0  0  0  0  0
    3.2600   22.6530   34.2990 C   0  0  0  0  0  0  0  0  0  0  0  0
    3.2240   14.7000   39.2000 C   0  0  0  0  0  0  0  0  0  0  0  0
    1.0760   25.1630   26.6030 C   0  0  0  0  0  0  0  0  0  0  0  0
    1.6680   21.3250   40.6510 N   0  0  0  0  0  0  0  0  0  0  0  0
    2.3970   19.5000   39.3460 C   0  0  0  0  0  0  0  0  0  0  0  0
    2.3000   14.8820   38.1170 O   0  0  0  0  0  0  0  0  0  0  0  0
    1.9180   18.6100   40.3040 C   0  0  0  0  0  0  0  0  0  0  0  0
    4.3010   23.9280   29.0190 O   0  0  0  0  0  0  0  0  0  0  0  0
    0.2310   25.9610   27.3290 C   0  0  0  0  0  0  0  0  0  0  0  0
    2.3070   17.2620   40.1140 N   0  0  0  0  0  0  0  0  0  0  0  0
    3.4700   25.0180   29.2330 C   0  0  0  0  0  0  0  0  0  0  0  0
    2.5660   25.1670   28.3540 N   0  0  0  0  0  0  0  0  0  0  0  0
    1.2670   25.3860   28.0650 C   0  0  0  0  0  0  0  0  0  0  0  0
    1.1920   20.4980   41.5730 C   0  0  0  0  0  0  0  0  0  0  0  0
    2.1080   16.1840   40.8720 C   0  0  0  0  0  0  0  0  0  0  0  0
    1.2850   19.1500   41.3820 N   0  0  0  0  0  0  0  0  0  0  0  0
    2.9930   23.2630   33.5980 C   0  0  0  0  0  0  0  0  0  0  0  0
   -1.2760   25.9930   27.0710 C   0  0  0  0  0  0  0  0  0  0  0  0
    0.9011   14.0962   43.4824 H   0  0  0  0  0  0  0  0  0  0  0  0
    3.6274   25.6390   31.6465 H   0  0  0  0  0  0  0  0  0  0  0  0
    3.9433   24.5989   32.2367 H   0  0  0  0  0  0  0  0  0  0  0  0
    3.8343   22.8963   31.6748 H   0  0  0  0  0  0  0  0  0  0  0  0
    2.3706   23.9375   31.6748 H   0  0  0  0  0  0  0  0  0  0  0  0
    4.7978   21.1589   35.0439 H   0  0  0  0  0  0  0  0  0  0  0  0
    3.8424   20.3020   34.1874 H   0  0  0  0  0  0  0  0  0  0  0  0
    2.5397   17.8904   37.9213 H   0  0  0  0  0  0  0  0  0  0  0  0
    4.0739   18.7075   36.4480 H   0  0  0  0  0  0  0  0  0  0  0  0
    4.2389   20.3180   37.4527 H   0  0  0  0  0  0  0  0  0  0  0  0
    1.6636   21.7636   35.5041 H   0  0  0  0  0  0  0  0  0  0  0  0
    2.6258   22.4262   36.5317 H   0  0  0  0  0  0  0  0  0  0  0  0
   -1.9936   24.0911   26.9816 H   0  0  0  0  0  0  0  0  0  0  0  0
   -2.5336   25.2042   25.6793 H   0  0  0  0  0  0  0  0  0  0  0  0
   -0.8529   24.5701   25.6793 H   0  0  0  0  0  0  0  0  0  0  0  0
    2.5074   12.9295   41.5558 H   0  0  0  0  0  0  0  0  0  0  0  0
    3.6879   23.5489   33.8254 H   0  0  0  0  0  0  0  0  0  0  0  0
    4.0587   15.4078   39.0889 H   0  0  0  0  0  0  0  0  0  0  0  0
    3.6035   13.6677   39.1800 H   0  0  0  0  0  0  0  0  0  0  0  0
    0.7337   24.1862   26.2306 H   0  0  0  0  0  0  0  0  0  0  0  0
    1.6924   25.2833   25.6999 H   0  0  0  0  0  0  0  0  0  0  0  0
    3.3864   19.4353   39.8224 H   0  0  0  0  0  0  0  0  0  0  0  0
    1.3965   15.0600   38.4805 H   0  0  0  0  0  0  0  0  0  0  0  0
   -0.1582   26.9744   27.5068 H   0  0  0  0  0  0  0  0  0  0  0  0
    2.8311   17.0849   39.2452 H   0  0  0  0  0  0  0  0  0  0  0  0
    3.0435   25.0814   27.4454 H   0  0  0  0  0  0  0  0  0  0  0  0
    1.1889   25.3012   29.1589 H   0  0  0  0  0  0  0  0  0  0  0  0
    0.7252   20.8966   42.4858 H   0  0  0  0  0  0  0  0  0  0  0  0
    3.0668   24.2226   34.1307 H   0  0  0  0  0  0  0  0  0  0  0  0
    2.2498   22.5425   33.2257 H   0  0  0  0  0  0  0  0  0  0  0  0
   -1.5268   26.9193   26.5333 H   0  0  0  0  0  0  0  0  0  0  0  0
   -1.7928   25.9506   28.0411 H   0  0  0  0  0  0  0  0  0  0  0  0
  1  7  2  0
  3 28  2  0
  3 13  1  0
  5 30  1  0
  6  2  1  0
  7 17  1  0
  8 11  1  0
 10  9  2  3
 12 31  1  0
 13  2  2  0
 14  8  1  0
 14 11  1  0
 15  3  1  0
 16 22  1  0
 16 26  1  0
 17 27  2  0
 18  9  1  0
 18  7  1  0
 18 20  1  0
 19 15  1  0
 20 29  2  0
 21 24  2  0
 22 31  1  0
 22 26  1  0
 23 20  1  0
 23 28  1  0
 24  4  1  0
 25 24  1  0
 26 25  1  0
 28  6  1  0
 29 27  1  0
 30 14  1  0
  2 32  1  0
  4 33  1  0
  5 34  1  0
  5 35  1  0
  5 36  1  0
  8 37  1  0
  8 38  1  0
  9 39  1  0
 10 40  1  0
 10 41  1  0
 11 42  1  0
 11 43  1  0
 12 44  1  0
 12 45  1  0
 12 46  1  0
 13 47  1  0
 14 48  1  0
 15 49  1  0
 15 50  1  0
 16 51  1  0
 16 52  1  0
 18 53  1  0
 19 54  1  0
 22 55  1  0
 23 56  1  0
 25 57  1  0
 26 58  1  0
 27 59  1  0
 30 60  1  0
 30 61  1  0
 31 62  1  0
 31 63  1  0
M  END
>  <mol_id>  (11) 
2026-09-16-6tgu-s0-n100-0011

>  <rmsd_to_ref>  (11) 


$$$$

     RDKit          3D

 39 40  0  0  0  0  0  0  0  0999 V2000
    2.8390   20.8260   36.9610 N   0  0  0  0  0  0  0  0  0  0  0  0
    3.6100   22.8990   33.8450 C   0  0  0  0  0  0  0  0  0  0  0  0
    3.8080   21.9600   34.7440 C   0  0  0  0  0  0  0  0  0  0  0  0
    2.7970   17.3440   40.3150 N   0  0  0  0  0  0  0  0  0  0  0  0
    3.0570   23.6680   31.7770 C   0  0  0  0  0  0  0  0  0  0  0  0
    1.8100   21.0510   39.1890 C   0  0  0  0  0  0  0  0  0  0  0  0
    3.8460   20.6230   34.4890 O   0  0  0  0  0  0  0  0  0  0  0  0
    1.4190   20.6740   40.4570 C   0  0  0  0  0  0  0  0  0  0  0  0
    2.5040   18.5440   39.9050 C   0  0  0  0  0  0  0  0  0  0  0  0
    2.8950   25.5920   30.0010 C   0  0  0  0  0  0  0  0  0  0  0  0
    2.8430   19.0310   38.7290 C   0  0  0  0  0  0  0  0  0  0  0  0
    3.7650   22.8610   32.5230 C   0  0  0  0  0  0  0  0  0  0  0  0
    2.4600   20.3010   38.3130 C   0  0  0  0  0  0  0  0  0  0  0  0
    3.7100   24.3360   30.5480 C   0  0  0  0  0  0  0  0  0  0  0  0
    1.7040   19.4010   40.8090 C   0  0  0  0  0  0  0  0  0  0  0  0
    2.0480   21.4090   36.5430 C   0  0  0  0  0  0  0  0  0  0  0  0
    3.3100   21.2240   35.3480 C   0  0  0  0  0  0  0  0  0  0  0  0
    2.5577   23.1875   33.9844 H   0  0  0  0  0  0  0  0  0  0  0  0
    4.4921   23.5134   34.0783 H   0  0  0  0  0  0  0  0  0  0  0  0
    4.3636   22.8631   35.0367 H   0  0  0  0  0  0  0  0  0  0  0  0
    3.3519   16.7162   39.7159 H   0  0  0  0  0  0  0  0  0  0  0  0
    2.4740   17.0221   41.2386 H   0  0  0  0  0  0  0  0  0  0  0  0
    2.1967   23.0904   31.4079 H   0  0  0  0  0  0  0  0  0  0  0  0
    2.8395   24.5139   32.4457 H   0  0  0  0  0  0  0  0  0  0  0  0
    1.5570   22.0745   38.8752 H   0  0  0  0  0  0  0  0  0  0  0  0
    0.9064   21.3675   41.1399 H   0  0  0  0  0  0  0  0  0  0  0  0
    2.5138   26.1794   30.8493 H   0  0  0  0  0  0  0  0  0  0  0  0
    3.5578   26.2205   29.3881 H   0  0  0  0  0  0  0  0  0  0  0  0
    2.0510   25.2428   29.3881 H   0  0  0  0  0  0  0  0  0  0  0  0
    3.4502   18.4114   38.0527 H   0  0  0  0  0  0  0  0  0  0  0  0
    3.5306   21.8357   32.2007 H   0  0  0  0  0  0  0  0  0  0  0  0
    4.7998   23.2010   32.3696 H   0  0  0  0  0  0  0  0  0  0  0  0
    3.7820   23.5898   29.7430 H   0  0  0  0  0  0  0  0  0  0  0  0
    4.6973   24.7032   30.8649 H   0  0  0  0  0  0  0  0  0  0  0  0
    1.3415   19.0013   41.7676 H   0  0  0  0  0  0  0  0  0  0  0  0
    1.4496   21.8500   37.3538 H   0  0  0  0  0  0  0  0  0  0  0  0
    2.4727   22.2117   35.9223 H   0  0  0  0  0  0  0  0  0  0  0  0
    1.4069   20.7658   35.9223 H   0  0  0  0  0  0  0  0  0  0  0  0
    2.3504   21.3071   35.8793 H   0  0  0  0  0  0  0  0  0  0  0  0
  1 13  1  0
  3  2  1  0
  3 17  1  0
  5 12  1  0
  6  8  2  0
  7  3  1  0
  7 17  1  0
  8 15  1  0
  9  4  1  0
  9 15  2  0
 10 14  1  0
 11  9  1  0
 12  2  1  0
 13 11  2  0
 13  6  1  0
 14  5  1  0
 16  1  1  0
 17  1  1  0
  2 18  1  0
  2 19  1  0
  3 20  1  0
  4 21  1  0
  4 22  1  0
  5 23  1  0
  5 24  1  0
  6 25  1  0
  8 26  1  0
 10 27  1  0
 10 28  1  0
 10 29  1  0
 11 30  1  0
 12 31  1  0
 12 32  1  0
 14 33  1  0
 14 34  1  0
 15 35  1  0
 16 36  1  0
 16 37  1  0
 16 38  1  0
 17 39  1  0
M  END
>  <mol_id>  (12) 
2026-09-16-6tgu-s0-n100-0012

>  <rmsd_to_ref>  (12) 


$$$$

     RDKit          3D

 56 58  0  0  0  0  0  0  0  0999 V2000
    2.5080   21.8260   36.2240 N   0  0  0  0  0  0  0  0  0  0  0  0
    3.3080   22.8080   33.8270 C   0  0  0  0  0  0  0  0  0  0  0  0
    0.0490   19.9040   41.3200 C   0  0  0  0  0  0  0  0  0  0  0  0
    1.2620   20.8070   39.1180 C   0  0  0  0  0  0  0  0  0  0  0  0
    1.5320   25.9080   33.0040 C   0  0  0  0  0  0  0  0  0  0  0  0
    2.9440   20.7090   36.9800 C   0  0  0  0  0  0  0  0  0  0  0  0
    3.4250   17.3490   37.3880 C   0  0  0  0  0  0  0  0  0  0  0  0
    2.8660   22.0970   35.0160 C   0  0  0  0  0  0  0  0  0  0  0  0
    0.3490   27.0010   29.7970 C   0  0  0  0  0  0  0  0  0  0  0  0
    3.6040   13.8390   37.1550 O   0  0  0  0  0  1  0  0  0  0  0  0
   -0.3410   27.7960   30.7200 C   0  0  0  0  0  0  0  0  0  0  0  0
    2.4280   23.7390   33.5150 N   0  0  0  0  0  0  0  0  0  0  0  0
    0.0830   27.6640   32.0310 N   0  0  0  0  0  0  0  0  0  0  0  0
    1.0200   26.6800   31.9970 C   0  0  0  0  0  0  0  0  0  0  0  0
    4.6540   22.6860   33.1390 C   0  0  0  0  0  0  0  0  0  0  0  0
    4.0030   20.0390   36.4040 O   0  0  0  0  0  0  0  0  0  0  0  0
    2.3280   25.4910   30.2600 C   0  0  0  0  0  0  0  0  0  0  0  0
    2.3260   24.7890   32.6290 C   0  0  0  0  0  0  0  0  0  0  0  0
    2.7830   24.6360   31.3400 C   0  0  0  0  0  0  0  0  0  0  0  0
    3.0080   15.9740   37.9190 C   0  0  0  0  0  0  0  0  0  0  0  0
    4.5660   17.8530   38.1000 O   0  0  0  0  0  0  0  0  0  0  0  0
    3.1320   19.3750   39.3100 C   0  0  0  0  0  0  0  0  0  0  0  0
   -0.2170   20.8450   42.3930 C   0  0  0  0  0  0  0  0  0  0  0  0
    2.2830   19.2320   40.4170 O   0  0  0  0  0  0  0  0  0  0  0  0
    2.7680   14.8050   37.0010 C   0  0  0  0  0  0  0  0  0  0  0  0
    2.4820   20.3990   38.4290 C   0  0  0  0  0  0  0  0  0  0  0  0
    0.2170   18.4900   41.7790 C   0  0  0  0  0  0  0  0  0  0  0  0
    4.4200   18.7970   39.2070 C   0  0  0  0  0  0  0  0  0  0  0  0
    1.3020   26.3650   30.6540 C   0  0  0  0  0  0  0  0  0  0  0  0
    3.0640   15.6750   39.1090 O   0  0  0  0  0  0  0  0  0  0  0  0
    1.8720   14.7740   36.1680 O   0  0  0  0  0  0  0  0  0  0  0  0
    1.1480   20.0680   40.2960 C   0  0  0  0  0  0  0  0  0  0  0  0
    1.8500   22.4754   36.6781 H   0  0  0  0  0  0  0  0  0  0  0  0
   -0.8816   20.1711   40.7979 H   0  0  0  0  0  0  0  0  0  0  0  0
    0.5511   21.5696   38.7673 H   0  0  0  0  0  0  0  0  0  0  0  0
    1.3375   26.1432   34.0608 H   0  0  0  0  0  0  0  0  0  0  0  0
    3.6774   17.2608   36.3210 H   0  0  0  0  0  0  0  0  0  0  0  0
    2.5873   18.0476   37.5303 H   0  0  0  0  0  0  0  0  0  0  0  0
    1.9565   21.6881   34.5516 H   0  0  0  0  0  0  0  0  0  0  0  0
    3.8890   22.2159   35.4025 H   0  0  0  0  0  0  0  0  0  0  0  0
    0.1997   26.8947   28.7124 H   0  0  0  0  0  0  0  0  0  0  0  0
   -1.1567   28.4729   30.4262 H   0  0  0  0  0  0  0  0  0  0  0  0
    5.4480   22.6140   33.8969 H   0  0  0  0  0  0  0  0  0  0  0  0
    4.6641   21.7833   32.5105 H   0  0  0  0  0  0  0  0  0  0  0  0
    4.8262   23.5722   32.5105 H   0  0  0  0  0  0  0  0  0  0  0  0
    2.7423   25.4582   29.2415 H   0  0  0  0  0  0  0  0  0  0  0  0
    3.2681   25.3258   32.8143 H   0  0  0  0  0  0  0  0  0  0  0  0
    3.5138   23.8431   31.1225 H   0  0  0  0  0  0  0  0  0  0  0  0
   -0.0757   20.3450   43.3626 H   0  0  0  0  0  0  0  0  0  0  0  0
    0.4758   21.6958   42.3147 H   0  0  0  0  0  0  0  0  0  0  0  0
   -1.2527   21.2072   42.3147 H   0  0  0  0  0  0  0  0  0  0  0  0
    0.2206   18.4594   42.8786 H   0  0  0  0  0  0  0  0  0  0  0  0
   -0.6149   17.8795   41.3980 H   0  0  0  0  0  0  0  0  0  0  0  0
    1.1688   18.0914   41.3980 H   0  0  0  0  0  0  0  0  0  0  0  0
    4.6353   18.2646   40.1452 H   0  0  0  0  0  0  0  0  0  0  0  0
    5.1222   19.6215   39.0143 H   0  0  0  0  0  0  0  0  0  0  0  0
  1  6  1  0
  2  8  1  0
  3 27  1  0
  3 23  1  0
  4 32  2  0
  6 26  1  0
  7 20  1  0
  7 21  1  0
  8  1  1  0
  9 29  2  0
  9 11  1  0
 11 13  2  0
 12  2  2  3
 14 13  1  0
 14  5  2  0
 15  2  1  0
 16  6  2  0
 17 29  1  0
 17 19  2  0
 18  5  1  0
 18 12  1  0
 19 18  1  0
 20 30  2  0
 21 28  1  0
 22 24  1  0
 25 10  1  0
 25 20  1  0
 26  4  1  0
 26 22  2  0
 28 22  1  0
 29 14  1  0
 31 25  2  0
 32 24  1  0
 32  3  1  0
  1 33  1  0
  3 34  1  0
  4 35  1  0
  5 36  1  0
  7 37  1  0
  7 38  1  0
  8 39  1  0
  8 40  1  0
  9 41  1  0
 11 42  1  0
 15 43  1  0
 15 44  1  0
 15 45  1  0
 17 46  1  0
 18 47  1  0
 19 48  1  0
 23 49  1  0
 23 50  1  0
 23 51  1  0
 27 52  1  0
 27 53  1  0
 27 54  1  0
 28 55  1  0
 28 56  1  0
M  CHG  1  10  -1
M  END
>  <mol_id>  (13) 
2026-09-16-6tgu-s0-n100-0013

>  <rmsd_to_ref>  (13) 


$$$$

     RDKit          3D

 39 38  0  0  0  0  0  0  0  0999 V2000
   -0.0550   19.1290   40.8190 C   0  0  0  0  0  0  0  0  0  0  0  0
    5.0080   24.1710   30.9340 C   0  0  0  0  0  0  0  0  0  0  0  0
    3.3360   17.8260   37.5450 C   0  0  0  0  0  0  0  0  0  0  0  0
    2.6340   19.2570   39.0630 N   0  0  0  0  0  0  0  0  0  0  0  0
    3.2800   22.0570   34.6340 N   0  0  0  0  0  0  0  0  0  0  0  0
    1.7610   21.2230   39.0980 O   0  0  0  0  0  0  0  0  0  0  0  0
    2.6370   24.8630   30.2650 C   0  0  0  0  0  0  0  0  0  0  0  0
    2.7420   19.1410   37.6560 C   0  0  0  0  0  0  0  0  0  0  0  0
    2.9450   16.9210   38.4350 O   0  0  0  0  0  1  0  0  0  0  0  0
    2.7360   24.7360   32.6900 N   0  0  0  0  0  0  0  0  0  0  0  0
    1.9530   19.2050   41.7860 O   0  0  0  0  0  0  0  0  0  0  0  0
    1.5950   26.3290   31.6990 F   0  0  0  0  0  0  0  0  0  0  0  0
    1.1110   19.8770   40.9970 C   0  0  0  0  0  0  0  0  0  0  0  0
    3.9590   24.2840   29.9010 C   0  0  0  0  0  0  0  0  0  0  0  0
    1.8910   25.5120   29.1830 C   0  0  0  0  0  0  0  0  0  0  0  0
    4.2210   17.6720   36.7520 O   0  0  0  0  0  0  0  0  0  0  0  0
    4.5830   23.8130   32.1620 C   0  0  0  0  0  0  0  0  0  0  0  0
    3.5510   23.7850   32.9170 C   0  0  0  0  0  0  0  0  0  0  0  0
    1.8600   20.1100   39.6550 C   0  0  0  0  0  0  0  0  0  0  0  0
    0.9450   21.2240   41.6680 C   0  0  0  0  0  0  0  0  0  0  0  0
    2.4520   25.2840   31.5240 C   0  0  0  0  0  0  0  0  0  0  0  0
    3.4370   22.8930   33.8060 C   0  0  0  0  0  0  0  0  0  0  0  0
   -0.4723   18.8613   41.8009 H   0  0  0  0  0  0  0  0  0  0  0  0
   -0.7904   19.7243   40.2580 H   0  0  0  0  0  0  0  0  0  0  0  0
    0.1795   18.2123   40.2580 H   0  0  0  0  0  0  0  0  0  0  0  0
    6.0682   24.3664   30.7154 H   0  0  0  0  0  0  0  0  0  0  0  0
    3.2025   18.6282   39.6481 H   0  0  0  0  0  0  0  0  0  0  0  0
    3.3951   19.9187   37.2333 H   0  0  0  0  0  0  0  0  0  0  0  0
    1.7940   19.2633   37.1117 H   0  0  0  0  0  0  0  0  0  0  0  0
    1.7300   19.3830   42.7340 H   0  0  0  0  0  0  0  0  0  0  0  0
    4.1525   23.9438   28.8730 H   0  0  0  0  0  0  0  0  0  0  0  0
    1.1268   26.1768   29.6120 H   0  0  0  0  0  0  0  0  0  0  0  0
    2.5827   26.1007   28.5625 H   0  0  0  0  0  0  0  0  0  0  0  0
    1.4037   24.7455   28.5625 H   0  0  0  0  0  0  0  0  0  0  0  0
    4.8703   22.7512   32.1734 H   0  0  0  0  0  0  0  0  0  0  0  0
    4.8926   24.7826   32.5791 H   0  0  0  0  0  0  0  0  0  0  0  0
    0.9610   21.0940   42.7602 H   0  0  0  0  0  0  0  0  0  0  0  0
    1.7681   21.8882   41.3657 H   0  0  0  0  0  0  0  0  0  0  0  0
   -0.0147   21.6685   41.3657 H   0  0  0  0  0  0  0  0  0  0  0  0
  1 13  1  0
  2 17  1  0
  3  8  1  0
  3  9  1  0
  4 19  1  0
  6 19  2  0
  7 21  2  0
  8  4  1  0
 10 18  2  0
 13 20  1  0
 13 11  1  0
 14  7  1  0
 14  2  2  0
 15  7  1  0
 16  3  2  0
 17 18  1  0
 18 22  1  0
 19 13  1  0
 21 12  1  0
 21 10  1  0
 22  5  3  0
  1 23  1  0
  1 24  1  0
  1 25  1  0
  2 26  1  0
  4 27  1  0
  8 28  1  0
  8 29  1  0
 11 30  1  0
 14 31  1  0
 15 32  1  0
 15 33  1  0
 15 34  1  0
 17 35  1  0
 17 36  1  0
 20 37  1  0
 20 38  1  0
 20 39  1  0
M  CHG  1   9  -1
M  END
>  <mol_id>  (14) 
2026-09-16-6tgu-s0-n100-0014

>  <rmsd_to_ref>  (14) 


$$$$

     RDKit          3D

 72 74  0  0  0  0  0  0  0  0999 V2000
    2.5780   22.5160   34.9620 C   0  0  0  0  0  0  0  0  0  0  0  0
    3.2360   23.7170   27.9190 C   0  0  0  0  0  0  0  0  0  0  0  0
    4.4610   23.4680   28.7770 C   0  0  0  0  0  0  0  0  0  0  0  0
    2.0530   18.9070   40.4280 N   0  0  0  0  0  0  0  0  0  0  0  0
    3.3020   17.2220   37.3730 C   0  0  0  0  0  0  0  0  0  0  0  0
    5.1690   19.9910   40.5130 C   0  0  0  0  0  0  0  0  0  0  0  0
    3.4490   19.5870   38.8540 C   0  0  0  0  0  0  0  0  0  0  0  0
    2.7100   20.9950   37.0520 C   0  0  0  0  0  0  0  0  0  0  0  0
    4.2630   19.7590   39.9430 C   0  0  0  0  0  0  0  0  0  0  0  0
    3.2010   20.7280   33.8760 C   0  0  0  0  0  0  0  0  0  0  0  0
    5.6160   22.7830   27.9920 C   0  0  0  0  0  0  0  0  0  0  0  0
   -1.1790   20.5150   41.4940 S   0  0  0  0  0  0  0  0  0  0  0  0
    2.2070   24.5120   28.4790 C   0  0  0  0  0  0  0  0  0  0  0  0
    4.8930   22.1430   34.1390 F   0  0  0  0  0  0  0  0  0  0  0  0
    3.3070   23.0360   26.5650 C   0  0  0  0  0  0  0  0  0  0  0  0
    3.4100   23.2620   33.0130 C   0  0  0  0  0  0  0  0  0  0  0  0
    2.7620   18.4330   39.4050 C   0  0  0  0  0  0  0  0  0  0  0  0
    1.2740   19.9560   40.9010 C   0  0  0  0  0  0  0  0  0  0  0  0
    0.1050   19.4170   41.7260 C   0  0  0  0  0  0  0  0  0  0  0  0
   -1.9970   19.6030   42.9010 C   0  0  0  0  0  0  0  0  0  0  0  0
    3.1930   23.6180   31.9720 C   0  0  0  0  0  0  0  0  0  0  0  0
    3.3070   24.1430   30.6460 C   0  0  0  0  0  0  0  0  0  0  0  0
    2.1770   21.3500   35.8190 C   0  0  0  0  0  0  0  0  0  0  0  0
    1.4840   21.2000   40.7630 O   0  0  0  0  0  0  0  0  0  0  0  0
    4.6590   24.1970   30.0770 C   0  0  0  0  0  0  0  0  0  0  0  0
    3.4890   22.1680   33.8630 C   0  0  0  0  0  0  0  0  0  0  0  0
    0.5680   18.1120   42.3440 C   0  0  0  0  0  0  0  0  0  0  0  0
    3.0650   19.7130   37.4810 C   0  0  0  0  0  0  0  0  0  0  0  0
    5.8690   21.2590   41.1410 C   0  0  0  0  0  0  0  0  0  0  0  0
   -0.1420   18.0410   43.6950 C   0  0  0  0  0  0  0  0  0  0  0  0
    3.1200   17.1790   38.7640 C   0  0  0  0  0  0  0  0  0  0  0  0
   -1.4390   18.4240   43.4850 C   0  0  0  0  0  0  0  0  0  0  0  0
    2.2810   24.7310   29.9290 C   0  0  0  0  0  0  0  0  0  0  0  0
    0.7120   24.9790   27.5580 Cl  0  0  0  0  0  0  0  0  0  0  0  0
    3.1140   18.5410   36.7090 C   0  0  0  0  0  0  0  0  0  0  0  0
    1.6673   22.9561   34.5295 H   0  0  0  0  0  0  0  0  0  0  0  0
    3.1205   23.2167   35.6137 H   0  0  0  0  0  0  0  0  0  0  0  0
    2.1027   18.2052   41.1803 H   0  0  0  0  0  0  0  0  0  0  0  0
    3.5712   16.3225   36.7999 H   0  0  0  0  0  0  0  0  0  0  0  0
    5.7590   19.0819   40.7015 H   0  0  0  0  0  0  0  0  0  0  0  0
    2.8703   21.8131   37.7697 H   0  0  0  0  0  0  0  0  0  0  0  0
    3.1309   20.3775   34.9163 H   0  0  0  0  0  0  0  0  0  0  0  0
    2.2475   20.5401   33.3607 H   0  0  0  0  0  0  0  0  0  0  0  0
    4.0089   20.1878   33.3607 H   0  0  0  0  0  0  0  0  0  0  0  0
    6.3384   22.3545   28.7023 H   0  0  0  0  0  0  0  0  0  0  0  0
    5.2050   21.9825   27.3593 H   0  0  0  0  0  0  0  0  0  0  0  0
    6.1213   23.5275   27.3593 H   0  0  0  0  0  0  0  0  0  0  0  0
    3.4201   21.9509   26.7058 H   0  0  0  0  0  0  0  0  0  0  0  0
    2.3829   23.2385   26.0038 H   0  0  0  0  0  0  0  0  0  0  0  0
    4.1695   23.4248   26.0038 H   0  0  0  0  0  0  0  0  0  0  0  0
    3.6676   24.1502   33.6086 H   0  0  0  0  0  0  0  0  0  0  0  0
    3.6116   18.2491   40.0791 H   0  0  0  0  0  0  0  0  0  0  0  0
   -0.2376   18.8331   40.8590 H   0  0  0  0  0  0  0  0  0  0  0  0
   -2.0952   20.3311   43.7196 H   0  0  0  0  0  0  0  0  0  0  0  0
   -2.8998   19.2053   42.4144 H   0  0  0  0  0  0  0  0  0  0  0  0
    1.1022   21.4920   36.0054 H   0  0  0  0  0  0  0  0  0  0  0  0
    2.5873   20.5327   35.2077 H   0  0  0  0  0  0  0  0  0  0  0  0
    5.3875   23.6821   30.7205 H   0  0  0  0  0  0  0  0  0  0  0  0
    5.0606   25.2150   29.9659 H   0  0  0  0  0  0  0  0  0  0  0  0
    0.2797   17.2603   41.7104 H   0  0  0  0  0  0  0  0  0  0  0  0
    1.6621   18.0697   42.4493 H   0  0  0  0  0  0  0  0  0  0  0  0
    5.8322   21.1923   42.2384 H   0  0  0  0  0  0  0  0  0  0  0  0
    6.9176   21.3000   40.8111 H   0  0  0  0  0  0  0  0  0  0  0  0
    5.3450   22.1682   40.8111 H   0  0  0  0  0  0  0  0  0  0  0  0
   -0.1099   17.0130   44.0852 H   0  0  0  0  0  0  0  0  0  0  0  0
    0.3470   18.6963   44.4308 H   0  0  0  0  0  0  0  0  0  0  0  0
    3.2416   16.2479   39.3370 H   0  0  0  0  0  0  0  0  0  0  0  0
   -1.8851   18.3950   44.4900 H   0  0  0  0  0  0  0  0  0  0  0  0
   -1.6349   17.7542   42.6347 H   0  0  0  0  0  0  0  0  0  0  0  0
    1.5308   25.3541   30.4379 H   0  0  0  0  0  0  0  0  0  0  0  0
    3.9465   18.6617   36.0002 H   0  0  0  0  0  0  0  0  0  0  0  0
    2.0998   18.4713   36.2888 H   0  0  0  0  0  0  0  0  0  0  0  0
  1 23  1  0
  2 13  1  0
  2  3  2  0
  3 25  1  0
  4 18  1  0
  5 31  2  0
  6 29  1  0
  7 17  1  0
  7  9  2  0
  8 28  2  3
  9  6  2  0
 11  3  1  0
 12 19  1  0
 12 20  1  0
 13 33  2  0
 15  2  1  0
 16 26  1  0
 17  4  1  0
 19 18  1  0
 19 27  1  0
 20 32  1  0
 21 16  2  0
 22 21  2  0
 23  8  1  0
 24 18  2  0
 25 22  1  0
 26 10  1  0
 26 14  1  0
 26  1  1  0
 27 30  1  0
 28  7  1  0
 31 17  1  0
 32 30  1  0
 33 22  1  0
 34 13  1  0
 35  5  1  0
 35 28  1  0
  1 36  1  0
  1 37  1  0
  4 38  1  0
  5 39  1  0
  6 40  1  0
  8 41  1  0
 10 42  1  0
 10 43  1  0
 10 44  1  0
 11 45  1  0
 11 46  1  0
 11 47  1  0
 15 48  1  0
 15 49  1  0
 15 50  1  0
 16 51  1  0
 17 52  1  0
 19 53  1  0
 20 54  1  0
 20 55  1  0
 23 56  1  0
 23 57  1  0
 25 58  1  0
 25 59  1  0
 27 60  1  0
 27 61  1  0
 29 62  1  0
 29 63  1  0
 29 64  1  0
 30 65  1  0
 30 66  1  0
 31 67  1  0
 32 68  1  0
 32 69  1  0
 33 70  1  0
 35 71  1  0
 35 72  1  0
M  END
>  <mol_id>  (15) 
2026-09-16-6tgu-s0-n100-0015

>  <rmsd_to_ref>  (15) 


$$$$

     RDKit          3D

 49 51  0  0  0  0  0  0  0  0999 V2000
    3.4590   19.8590   37.6980 C   0  0  0  0  0  0  0  0  0  0  0  0
    1.5970   25.7100   31.4850 C   0  0  0  0  0  0  0  0  0  0  0  0
    5.4490   13.9680   37.6960 N   0  0  0  0  0  0  0  0  0  0  0  0
    4.6910   23.0770   34.1010 C   0  0  0  0  0  0  0  0  0  0  0  0
    2.7300   24.7040   33.8720 C   0  0  0  0  0  0  0  0  0  0  0  0
    3.0370   17.7500   39.0180 C   0  0  0  0  0  0  0  0  0  0  0  0
    2.3860   23.6020   34.2840 C   0  0  0  0  0  0  0  0  0  0  0  0
    2.9450   21.4980   35.8270 C   0  0  0  0  0  0  0  0  0  0  0  0
    3.8790   17.1780   36.8540 C   0  0  0  0  0  0  0  0  0  0  0  0
    2.2830   20.6430   38.4430 C   0  0  0  0  0  0  0  0  0  0  0  0
    3.3020   22.2550   34.6510 N   0  0  0  0  0  0  0  0  0  0  0  0
    4.6080   24.7790   34.1790 S   0  0  0  0  0  0  0  0  0  0  0  0
    3.4810   18.2070   37.6100 C   0  0  0  0  0  0  0  0  0  0  0  0
    1.7240   25.3880   32.9250 C   0  0  0  0  0  0  0  0  0  0  0  0
    3.1910   16.2770   38.9460 N   0  0  0  0  0  0  0  0  0  0  0  0
    2.5730   20.2530   40.0530 S   0  0  0  0  0  0  0  0  0  0  0  0
    4.6290   14.7700   37.6020 C   0  0  0  0  0  0  0  0  0  0  0  0
    2.0050   26.9420   35.4770 O   0  0  0  0  0  0  0  0  0  0  0  0
    3.4970   20.1410   36.1850 C   0  0  0  0  0  0  0  0  0  0  0  0
    1.9010   28.0460   32.3750 C   0  0  0  0  0  0  0  0  0  0  0  0
    3.0410   26.0400   30.7250 C   0  0  0  0  0  0  0  0  0  0  0  0
    2.4870   18.4450   40.1520 C   0  0  0  0  0  0  0  0  0  0  0  0
    1.2500   27.2430   33.8040 S   0  0  0  0  0  4  0  0  0  0  0  0
    3.7560   15.9700   37.6750 C   0  0  0  0  0  0  0  0  0  0  0  0
    4.2608   20.2318   38.3523 H   0  0  0  0  0  0  0  0  0  0  0  0
    1.1307   24.8511   30.9801 H   0  0  0  0  0  0  0  0  0  0  0  0
    0.9912   26.6258   31.4200 H   0  0  0  0  0  0  0  0  0  0  0  0
    4.8615   22.7926   33.0522 H   0  0  0  0  0  0  0  0  0  0  0  0
    5.5076   22.7805   34.7757 H   0  0  0  0  0  0  0  0  0  0  0  0
    2.5962   25.7551   34.1675 H   0  0  0  0  0  0  0  0  0  0  0  0
    1.8473   23.8216   35.2176 H   0  0  0  0  0  0  0  0  0  0  0  0
    1.9510   23.2278   33.3455 H   0  0  0  0  0  0  0  0  0  0  0  0
    1.8546   21.3648   35.7696 H   0  0  0  0  0  0  0  0  0  0  0  0
    3.4140   22.1142   36.6082 H   0  0  0  0  0  0  0  0  0  0  0  0
    4.2318   17.2287   35.8133 H   0  0  0  0  0  0  0  0  0  0  0  0
    2.3556   21.7276   38.2746 H   0  0  0  0  0  0  0  0  0  0  0  0
    1.2760   20.3708   38.0938 H   0  0  0  0  0  0  0  0  0  0  0  0
    1.2163   24.4162   32.8371 H   0  0  0  0  0  0  0  0  0  0  0  0
    2.9364   15.6005   39.6798 H   0  0  0  0  0  0  0  0  0  0  0  0
    4.5413   20.0857   35.8438 H   0  0  0  0  0  0  0  0  0  0  0  0
    2.8650   19.3872   35.6927 H   0  0  0  0  0  0  0  0  0  0  0  0
    2.5655   28.8657   32.6858 H   0  0  0  0  0  0  0  0  0  0  0  0
    2.4694   27.3210   31.7740 H   0  0  0  0  0  0  0  0  0  0  0  0
    1.0741   28.4522   31.7740 H   0  0  0  0  0  0  0  0  0  0  0  0
    3.8206   26.2182   31.4803 H   0  0  0  0  0  0  0  0  0  0  0  0
    3.3284   25.1844   30.0963 H   0  0  0  0  0  0  0  0  0  0  0  0
    2.9282   26.9355   30.0963 H   0  0  0  0  0  0  0  0  0  0  0  0
    1.4296   18.1578   40.2490 H   0  0  0  0  0  0  0  0  0  0  0  0
    3.0981   18.1537   41.0190 H   0  0  0  0  0  0  0  0  0  0  0  0
  1 19  1  0
  1 10  1  0
  4 12  1  0
  4 11  1  0
  5 14  1  0
  5 12  1  0
  5  7  1  0
  6 22  1  0
  7 11  1  0
  8 19  1  0
  9 13  1  0
  9 24  2  0
 10 16  1  0
 11  8  1  0
 13  1  1  0
 13  6  2  0
 14  2  1  0
 14 23  1  0
 15  6  1  0
 16 22  1  0
 17 24  1  0
 17  3  3  0
 21  2  1  0
 23 20  1  0
 23 18  2  0
 24 15  1  0
  1 25  1  0
  2 26  1  0
  2 27  1  0
  4 28  1  0
  4 29  1  0
  5 30  1  0
  7 31  1  0
  7 32  1  0
  8 33  1  0
  8 34  1  0
  9 35  1  0
 10 36  1  0
 10 37  1  0
 14 38  1  0
 15 39  1  0
 19 40  1  0
 19 41  1  0
 20 42  1  0
 20 43  1  0
 20 44  1  0
 21 45  1  0
 21 46  1  0
 21 47  1  0
 22 48  1  0
 22 49  1  0
M  END
>  <mol_id>  (16) 
2026-09-16-6tgu-s0-n100-0016

>  <rmsd_to_ref>  (16) 


$$$$

     RDKit          3D

 64 64  0  0  0  0  0  0  0  0999 V2000
    1.1340   21.2750   41.6340 C   0  0  0  0  0  0  0  0  0  0  0  0
    2.2370   15.6050   40.0190 S   0  0  0  0  0  0  0  0  0  0  0  0
    4.0270   19.8820   40.0210 C   0  0  0  0  0  0  0  0  0  0  0  0
    1.8270   25.3500   34.7250 C   0  0  0  0  0  0  0  0  0  0  0  0
    3.3680   18.7360   37.2640 C   0  0  0  0  0  0  0  0  0  0  0  0
    2.5820   21.2240   36.7870 N   0  0  0  0  0  0  0  0  0  0  0  0
    2.4860   20.0840   39.8750 C   0  0  0  0  0  0  0  0  0  0  0  0
    1.0320   26.7090   32.5780 O   0  0  0  0  0  0  0  0  0  0  0  0
    5.4140   16.8030   37.5240 O   0  0  0  0  0  0  0  0  0  0  0  0
    2.6890   20.1080   37.5300 C   0  0  0  0  0  0  0  0  0  0  0  0
    2.3530   25.3240   29.1190 C   0  0  0  0  0  0  0  0  0  0  0  0
    2.0140   17.0200   38.8620 C   0  0  0  0  0  0  0  0  0  0  0  0
    3.0880   17.4680   37.8550 C   0  0  0  0  0  0  0  0  0  0  0  0
    2.0570   20.4010   38.6280 O   0  0  0  0  0  0  0  0  0  0  0  0
    2.0730   22.8290   34.8840 C   0  0  0  0  0  0  0  0  0  0  0  0
    1.0780   28.6310   34.0060 O   0  0  0  0  0  0  0  0  0  0  0  0
    1.1380   27.5590   33.6190 C   0  0  0  0  0  0  0  0  0  0  0  0
    3.5860   21.1520   35.1670 O   0  0  0  0  0  0  0  0  0  0  0  0
    3.8600   15.1860   37.6430 N   0  0  0  0  0  0  0  0  0  0  0  0
    1.4720   26.3830   33.7860 C   0  0  0  0  0  0  0  0  0  0  0  0
    2.5860   24.0960   34.2100 C   0  0  0  0  0  0  0  0  0  0  0  0
    3.3840   24.3220   28.4610 C   0  0  0  0  0  0  0  0  0  0  0  0
    4.5300   24.1780   29.3960 C   0  0  0  0  0  0  0  0  0  0  0  0
    4.7550   14.1900   37.0120 C   0  0  0  0  0  0  0  0  0  0  0  0
    4.2330   16.4330   37.6770 C   0  0  0  0  0  0  0  0  0  0  0  0
    2.8940   21.6440   35.5140 C   0  0  0  0  0  0  0  0  0  0  0  0
    2.8420   25.7100   30.5370 C   0  0  0  0  0  0  0  0  0  0  0  0
    2.6730   24.5440   31.4840 C   0  0  0  0  0  0  0  0  0  0  0  0
    2.2920   24.1800   32.7110 C   0  0  0  0  0  0  0  0  0  0  0  0
    1.6340   21.1170   40.5500 C   0  0  0  0  0  0  0  0  0  0  0  0
    0.5362   22.1756   41.8380 H   0  0  0  0  0  0  0  0  0  0  0  0
    1.2751   20.5188   42.4203 H   0  0  0  0  0  0  0  0  0  0  0  0
    2.1660   16.0558   41.3108 H   0  0  0  0  0  0  0  0  0  0  0  0
    4.2928   19.8472   41.0878 H   0  0  0  0  0  0  0  0  0  0  0  0
    4.3203   18.9377   39.5390 H   0  0  0  0  0  0  0  0  0  0  0  0
    4.5538   20.7188   39.5390 H   0  0  0  0  0  0  0  0  0  0  0  0
    2.4594   25.8167   35.4946 H   0  0  0  0  0  0  0  0  0  0  0  0
    0.8578   24.9534   35.0616 H   0  0  0  0  0  0  0  0  0  0  0  0
    4.1757   18.7433   36.5173 H   0  0  0  0  0  0  0  0  0  0  0  0
    2.3582   19.0966   40.3427 H   0  0  0  0  0  0  0  0  0  0  0  0
    1.3669   24.8416   29.1898 H   0  0  0  0  0  0  0  0  0  0  0  0
    2.2745   26.2292   28.4990 H   0  0  0  0  0  0  0  0  0  0  0  0
    1.1214   16.7827   38.2646 H   0  0  0  0  0  0  0  0  0  0  0  0
    2.0048   17.8701   39.5601 H   0  0  0  0  0  0  0  0  0  0  0  0
    1.4410   22.3498   34.1218 H   0  0  0  0  0  0  0  0  0  0  0  0
    1.7119   23.2837   35.8183 H   0  0  0  0  0  0  0  0  0  0  0  0
    2.9580   14.8976   38.0481 H   0  0  0  0  0  0  0  0  0  0  0  0
    2.0181   25.6440   34.3908 H   0  0  0  0  0  0  0  0  0  0  0  0
    3.6636   24.0635   34.4283 H   0  0  0  0  0  0  0  0  0  0  0  0
    2.9062   23.3444   28.2999 H   0  0  0  0  0  0  0  0  0  0  0  0
    3.7254   24.7032   27.4873 H   0  0  0  0  0  0  0  0  0  0  0  0
    4.1653   24.2238   30.4328 H   0  0  0  0  0  0  0  0  0  0  0  0
    5.0245   23.2107   29.2237 H   0  0  0  0  0  0  0  0  0  0  0  0
    5.2485   24.9929   29.2237 H   0  0  0  0  0  0  0  0  0  0  0  0
    5.2722   13.6145   37.7938 H   0  0  0  0  0  0  0  0  0  0  0  0
    4.1609   13.5074   36.3866 H   0  0  0  0  0  0  0  0  0  0  0  0
    5.4970   14.7080   36.3866 H   0  0  0  0  0  0  0  0  0  0  0  0
    3.9049   25.9894   30.4910 H   0  0  0  0  0  0  0  0  0  0  0  0
    2.2456   26.5586   30.9032 H   0  0  0  0  0  0  0  0  0  0  0  0
    2.0159   23.9006   30.8805 H   0  0  0  0  0  0  0  0  0  0  0  0
    3.7110   24.6600   31.8291 H   0  0  0  0  0  0  0  0  0  0  0  0
    2.0998   23.1143   32.5178 H   0  0  0  0  0  0  0  0  0  0  0  0
    1.8848   25.1901   32.8653 H   0  0  0  0  0  0  0  0  0  0  0  0
    1.4044   21.9541   39.8744 H   0  0  0  0  0  0  0  0  0  0  0  0
  5 10  1  0
  5 13  2  3
  6 10  2  3
  7  3  1  0
  7 30  1  0
  8 17  1  0
  8 20  1  0
  9 25  2  0
 10 14  1  0
 11 27  1  0
 12  2  1  0
 13 12  1  0
 14  7  1  0
 15 26  1  0
 17 20  1  0
 17 16  2  0
 18 26  2  0
 19 25  1  0
 20  4  1  0
 21 29  1  0
 21  4  1  0
 21 15  1  0
 22 11  1  0
 22 23  1  0
 24 19  1  0
 25 13  1  0
 26  6  1  0
 27 28  1  0
 28 29  1  0
 30  1  2  3
  1 31  1  0
  1 32  1  0
  2 33  1  0
  3 34  1  0
  3 35  1  0
  3 36  1  0
  4 37  1  0
  4 38  1  0
  5 39  1  0
  7 40  1  0
 11 41  1  0
 11 42  1  0
 12 43  1  0
 12 44  1  0
 15 45  1  0
 15 46  1  0
 19 47  1  0
 20 48  1  0
 21 49  1  0
 22 50  1  0
 22 51  1  0
 23 52  1  0
 23 53  1  0
 23 54  1  0
 24 55  1  0
 24 56  1  0
 24 57  1  0
 27 58  1  0
 27 59  1  0
 28 60  1  0
 28 61  1  0
 29 62  1  0
 29 63  1  0
 30 64  1  0
M  END
>  <mol_id>  (17) 
2026-09-16-6tgu-s0-n100-0017

>  <rmsd_to_ref>  (17) 


$$$$

     RDKit          3D

 61 61  0  0  0  0  0  0  0  0999 V2000
    1.6290   20.5990   41.0360 N   0  0  0  0  0  4  0  0  0  0  0  0
    1.7610   15.4470   41.0660 O   0  0  0  0  0  0  0  0  0  0  0  0
    3.3380   20.6400   36.4370 C   0  0  0  0  0  0  0  0  0  0  0  0
    3.3750   15.3230   37.9070 C   0  0  0  0  0  0  0  0  0  0  0  0
    2.8420   24.7180   33.8190 C   0  0  0  0  0  0  0  0  0  0  0  0
    4.0320   22.7070   32.4230 C   0  0  0  0  0  0  0  0  0  0  0  0
    2.4510   19.8710   38.8200 C   0  0  0  0  0  0  0  0  0  0  0  0
    1.0080   28.4700   32.7120 N   0  0  0  0  0  4  0  0  0  0  0  0
    4.2920   21.0440   36.0780 O   0  0  0  0  0  0  0  0  0  0  0  0
    2.7600   14.9750   39.0690 N   0  0  0  0  0  0  0  0  0  0  0  0
    4.3350   23.2350   30.7110 C   0  0  0  0  0  0  0  0  0  0  0  0
    3.5440   24.4910   31.0170 C   0  0  0  0  0  0  0  0  0  0  0  0
    2.0400   19.6150   40.1650 C   0  0  0  0  0  0  0  0  0  0  0  0
    2.3350   15.8440   39.9700 C   0  0  0  0  0  0  0  0  0  0  0  0
    2.8070   25.0810   32.2950 C   0  0  0  0  0  0  0  0  0  0  0  0
    3.1480   18.9500   38.0340 C   0  0  0  0  0  0  0  0  0  0  0  0
    3.4530   24.1060   28.6640 C   0  0  0  0  0  0  0  0  0  0  0  0
    1.2240   20.3200   42.2030 O   0  0  0  0  0  1  0  0  0  0  0  0
    1.1060   27.0750   32.4160 C   0  0  0  0  0  0  0  0  0  0  0  0
    3.1740   17.6580   38.4380 C   0  0  0  0  0  0  0  0  0  0  0  0
    0.9460   28.7680   34.2020 C   0  0  0  0  0  0  0  0  0  0  0  0
    2.5710   17.3640   39.6960 C   0  0  0  0  0  0  0  0  0  0  0  0
   -0.0660   25.9970   32.2700 C   0  0  0  0  0  0  0  0  0  0  0  0
    2.1190   18.3120   40.5880 C   0  0  0  0  0  0  0  0  0  0  0  0
    2.5950   26.6880   32.2390 C   0  0  0  0  0  0  0  0  0  0  0  0
    3.6990   16.5840   37.5890 C   0  0  0  0  0  0  0  0  0  0  0  0
    4.4810   23.3240   29.1950 C   0  0  0  0  0  0  0  0  0  0  0  0
    2.2220   20.8250   36.3090 O   0  0  0  0  0  1  0  0  0  0  0  0
    2.8580   25.1300   29.7660 S   0  0  0  0  0  0  0  0  0  0  0  0
    1.6520   21.7360   40.5770 O   0  0  0  0  0  0  0  0  0  0  0  0
    3.5116   19.8035   37.1299 H   0  0  0  0  0  0  0  0  0  0  0  0
    3.6198   14.5263   37.1892 H   0  0  0  0  0  0  0  0  0  0  0  0
    2.7534   25.6370   34.4170 H   0  0  0  0  0  0  0  0  0  0  0  0
    2.0046   24.0449   34.0549 H   0  0  0  0  0  0  0  0  0  0  0  0
    3.7926   24.2173   34.0549 H   0  0  0  0  0  0  0  0  0  0  0  0
    4.4572   23.4480   33.1159 H   0  0  0  0  0  0  0  0  0  0  0  0
    2.9487   22.6237   32.5947 H   0  0  0  0  0  0  0  0  0  0  0  0
    4.5067   21.7297   32.5947 H   0  0  0  0  0  0  0  0  0  0  0  0
    2.2046   20.8482   38.3791 H   0  0  0  0  0  0  0  0  0  0  0  0
    0.1540   28.8385   32.2695 H   0  0  0  0  0  0  0  0  0  0  0  0
    1.8602   28.9190   32.3472 H   0  0  0  0  0  0  0  0  0  0  0  0
    2.6166   13.9728   39.2587 H   0  0  0  0  0  0  0  0  0  0  0  0
    5.0984   22.4671   30.5174 H   0  0  0  0  0  0  0  0  0  0  0  0
    4.5139   24.6150   31.5209 H   0  0  0  0  0  0  0  0  0  0  0  0
    2.0866   24.2951   32.0241 H   0  0  0  0  0  0  0  0  0  0  0  0
    3.6609   19.2654   37.1134 H   0  0  0  0  0  0  0  0  0  0  0  0
    3.8457   24.6838   27.8143 H   0  0  0  0  0  0  0  0  0  0  0  0
    2.6419   23.4370   28.3408 H   0  0  0  0  0  0  0  0  0  0  0  0
    1.0347   27.2980   31.3412 H   0  0  0  0  0  0  0  0  0  0  0  0
    1.1380   27.8450   34.7688 H   0  0  0  0  0  0  0  0  0  0  0  0
    1.7069   29.5202   34.4575 H   0  0  0  0  0  0  0  0  0  0  0  0
   -0.0518   29.1543   34.4575 H   0  0  0  0  0  0  0  0  0  0  0  0
   -0.4044   25.6857   33.2693 H   0  0  0  0  0  0  0  0  0  0  0  0
   -0.9079   26.4429   31.7201 H   0  0  0  0  0  0  0  0  0  0  0  0
    0.3081   25.1208   31.7201 H   0  0  0  0  0  0  0  0  0  0  0  0
    1.8293   18.0318   41.6115 H   0  0  0  0  0  0  0  0  0  0  0  0
    3.1826   27.1535   33.0440 H   0  0  0  0  0  0  0  0  0  0  0  0
    2.9272   27.0439   31.2526 H   0  0  0  0  0  0  0  0  0  0  0  0
    4.3370   16.8057   36.7208 H   0  0  0  0  0  0  0  0  0  0  0  0
    4.4306   22.3133   28.7637 H   0  0  0  0  0  0  0  0  0  0  0  0
    5.4497   23.7844   28.9507 H   0  0  0  0  0  0  0  0  0  0  0  0
  1 18  1  0
  4 10  1  0
  7 13  2  0
  8 21  1  0
  9  3  2  0
 10 14  1  0
 11 12  1  0
 11  6  1  0
 12 15  1  0
 13 24  1  0
 13  1  1  0
 14  2  2  0
 15  5  1  0
 16 20  2  0
 16  7  1  0
 17 27  1  0
 17 29  1  0
 19 23  1  0
 19  8  1  0
 20 22  1  0
 22 14  1  0
 22 24  2  0
 25 15  1  0
 25 19  1  0
 26  4  2  0
 26 20  1  0
 27 11  1  0
 28  3  1  0
 29 12  1  0
 30  1  2  0
  3 31  1  0
  4 32  1  0
  5 33  1  0
  5 34  1  0
  5 35  1  0
  6 36  1  0
  6 37  1  0
  6 38  1  0
  7 39  1  0
  8 40  1  0
  8 41  1  0
 10 42  1  0
 11 43  1  0
 12 44  1  0
 15 45  1  0
 16 46  1  0
 17 47  1  0
 17 48  1  0
 19 49  1  0
 21 50  1  0
 21 51  1  0
 21 52  1  0
 23 53  1  0
 23 54  1  0
 23 55  1  0
 24 56  1  0
 25 57  1  0
 25 58  1  0
 26 59  1  0
 27 60  1  0
 27 61  1  0
M  CHG  4   1   1   8   1  18  -1  28  -1
M  END
>  <mol_id>  (18) 
2026-09-16-6tgu-s0-n100-0018

>  <rmsd_to_ref>  (18) 


$$$$

     RDKit          3D

 73 76  0  0  0  0  0  0  0  0999 V2000
    3.3790   22.8030   33.9450 C   0  0  0  0  0  0  0  0  0  0  0  0
    3.3770   18.9920   40.0530 C   0  0  0  0  0  0  0  0  0  0  0  0
    0.7640   26.8290   27.9520 C   0  0  0  0  0  0  0  0  0  0  0  0
    2.4600   23.7860   34.4210 C   0  0  0  0  0  0  0  0  0  0  0  0
    2.6810   27.4690   31.5790 C   0  0  0  0  0  0  0  0  0  0  0  0
    1.1980   21.8490   39.0230 C   0  0  0  0  0  0  0  0  0  0  0  0
    1.9980   24.8230   33.5980 C   0  0  0  0  0  0  0  0  0  0  0  0
    2.9300   15.3110   37.6450 C   0  0  0  0  0  0  0  0  0  0  0  0
    4.1610   12.1290   36.1010 C   0  0  0  0  0  0  0  0  0  0  0  0
    3.0320   14.2350   36.5740 C   0  0  0  0  0  0  0  0  0  0  0  0
    4.1920   23.2110   32.8150 C   0  0  0  0  0  0  0  0  0  0  0  0
    2.4010   24.9190   32.3780 C   0  0  0  0  0  0  0  0  0  0  0  0
    1.9170   20.7070   38.9230 C   0  0  0  0  0  0  0  0  0  0  0  0
    1.6340   26.7430   31.7310 C   0  0  0  0  0  0  0  0  0  0  0  0
    0.3200   26.8440   31.2110 C   0  0  0  0  0  0  0  0  0  0  0  0
    3.4010   20.5350   34.5240 C   0  0  0  0  0  0  0  0  0  0  0  0
    5.6260   13.7610   37.4990 S   0  0  0  0  0  0  0  0  0  0  0  0
    2.0000   15.3300   38.4050 O   0  0  0  0  0  0  0  0  0  0  0  0
    3.6560   18.4470   38.6640 C   0  0  0  0  0  0  0  0  0  0  0  0
    2.2970   19.9690   40.1460 C   0  0  0  0  0  0  0  0  0  0  0  0
    0.4880   22.1230   40.1920 C   0  0  0  0  0  0  0  0  0  0  0  0
    1.9660   28.0830   32.4700 C   0  0  0  0  0  0  0  0  0  0  0  0
    4.6690   19.6480   40.5990 C   0  0  0  0  0  0  0  0  0  0  0  0
    4.3790   17.2090   38.6100 N   0  0  0  0  0  0  0  0  0  0  0  0
    1.6350   26.7360   30.4880 C   0  0  0  0  0  0  0  0  0  0  0  0
    0.6720   21.2780   41.3200 C   0  0  0  0  0  0  0  0  0  0  0  0
    3.1610   19.0820   37.5000 C   0  0  0  0  0  0  0  0  0  0  0  0
    3.8840   13.1640   37.1860 C   0  0  0  0  0  0  0  0  0  0  0  0
    1.5470   20.2600   41.2780 C   0  0  0  0  0  0  0  0  0  0  0  0
    4.2050   16.2140   37.5470 C   0  0  0  0  0  0  0  0  0  0  0  0
    3.6500   24.1650   32.0390 C   0  0  0  0  0  0  0  0  0  0  0  0
    2.4510   20.2210   37.6480 C   0  0  0  0  0  0  0  0  0  0  0  0
    1.8410   25.4880   31.2620 C   0  0  0  0  0  0  0  0  0  0  0  0
    3.4160   21.6090   34.3690 C   0  0  0  0  0  0  0  0  0  0  0  0
    1.6000   26.1510   29.0970 C   0  0  0  0  0  0  0  0  0  0  0  0
    4.1500   12.7530   34.7970 O   0  0  0  0  0  0  0  0  0  0  0  0
   -0.0179   27.4632   28.3952 H   0  0  0  0  0  0  0  0  0  0  0  0
    1.4281   27.4468   27.3297 H   0  0  0  0  0  0  0  0  0  0  0  0
    0.2966   26.0516   27.3297 H   0  0  0  0  0  0  0  0  0  0  0  0
    2.1050   23.7285   35.4605 H   0  0  0  0  0  0  0  0  0  0  0  0
    2.8132   27.9670   30.6071 H   0  0  0  0  0  0  0  0  0  0  0  0
    3.7359   27.1642   31.6450 H   0  0  0  0  0  0  0  0  0  0  0  0
    1.1735   22.5599   38.1840 H   0  0  0  0  0  0  0  0  0  0  0  0
    1.2859   25.5603   33.9971 H   0  0  0  0  0  0  0  0  0  0  0  0
    5.1468   11.6738   36.2770 H   0  0  0  0  0  0  0  0  0  0  0  0
    3.3779   11.3573   36.1347 H   0  0  0  0  0  0  0  0  0  0  0  0
    3.5064   14.6359   35.6661 H   0  0  0  0  0  0  0  0  0  0  0  0
    2.0447   13.8569   36.2704 H   0  0  0  0  0  0  0  0  0  0  0  0
    5.1792   22.7719   32.6085 H   0  0  0  0  0  0  0  0  0  0  0  0
   -0.3826   25.9988   31.2558 H   0  0  0  0  0  0  0  0  0  0  0  0
   -0.5447   27.5218   31.2651 H   0  0  0  0  0  0  0  0  0  0  0  0
    3.3858   19.4464   34.6811 H   0  0  0  0  0  0  0  0  0  0  0  0
    5.8471   13.8368   38.8489 H   0  0  0  0  0  0  0  0  0  0  0  0
   -0.2023   22.9781   40.2401 H   0  0  0  0  0  0  0  0  0  0  0  0
    2.3044   27.7924   33.4755 H   0  0  0  0  0  0  0  0  0  0  0  0
    2.0787   29.1701   32.3451 H   0  0  0  0  0  0  0  0  0  0  0  0
    0.9085   27.8073   32.3451 H   0  0  0  0  0  0  0  0  0  0  0  0
    4.6489   19.6378   41.6988 H   0  0  0  0  0  0  0  0  0  0  0  0
    5.5446   19.0853   40.2431 H   0  0  0  0  0  0  0  0  0  0  0  0
    4.7314   20.6869   40.2431 H   0  0  0  0  0  0  0  0  0  0  0  0
    5.0572   17.0082   39.3587 H   0  0  0  0  0  0  0  0  0  0  0  0
    0.0918   21.4597   42.2367 H   0  0  0  0  0  0  0  0  0  0  0  0
    3.3495   18.6593   36.5021 H   0  0  0  0  0  0  0  0  0  0  0  0
    3.3634   12.8253   38.0939 H   0  0  0  0  0  0  0  0  0  0  0  0
    1.6743   19.6336   42.1732 H   0  0  0  0  0  0  0  0  0  0  0  0
    5.0849   15.5540   37.5583 H   0  0  0  0  0  0  0  0  0  0  0  0
    4.0840   16.7932   36.6197 H   0  0  0  0  0  0  0  0  0  0  0  0
    4.1566   24.4079   31.0933 H   0  0  0  0  0  0  0  0  0  0  0  0
    2.2603   20.8259   36.7492 H   0  0  0  0  0  0  0  0  0  0  0  0
    1.7556   24.4959   30.7946 H   0  0  0  0  0  0  0  0  0  0  0  0
    1.2154   25.1255   29.1991 H   0  0  0  0  0  0  0  0  0  0  0  0
    2.6356   26.2876   28.7522 H   0  0  0  0  0  0  0  0  0  0  0  0
    4.1326   13.7372   34.9023 H   0  0  0  0  0  0  0  0  0  0  0  0
  1 34  1  0
  1  4  2  0
  2 20  2  0
  2 23  1  0
  3 35  1  0
  5 22  1  0
  6 21  2  0
  7  4  1  0
  8 18  2  0
  9 28  1  0
 10 28  1  0
 10  8  1  0
 11  1  1  0
 12  7  2  0
 13  6  1  0
 13 20  1  0
 14  5  1  0
 15 14  1  0
 19  2  1  0
 20 29  1  0
 21 26  1  0
 24 19  1  0
 25 35  1  0
 25 15  1  0
 25 33  1  0
 25 14  1  0
 27 32  1  0
 27 19  2  0
 28 17  1  0
 29 26  2  0
 30  8  1  0
 30 24  1  0
 31 12  1  0
 31 11  2  0
 32 13  2  0
 33 14  1  0
 33 12  1  0
 34 16  3  0
 36  9  1  0
  3 37  1  0
  3 38  1  0
  3 39  1  0
  4 40  1  0
  5 41  1  0
  5 42  1  0
  6 43  1  0
  7 44  1  0
  9 45  1  0
  9 46  1  0
 10 47  1  0
 10 48  1  0
 11 49  1  0
 15 50  1  0
 15 51  1  0
 16 52  1  0
 17 53  1  0
 21 54  1  0
 22 55  1  0
 22 56  1  0
 22 57  1  0
 23 58  1  0
 23 59  1  0
 23 60  1  0
 24 61  1  0
 26 62  1  0
 27 63  1  0
 28 64  1  0
 29 65  1  0
 30 66  1  0
 30 67  1  0
 31 68  1  0
 32 69  1  0
 33 70  1  0
 35 71  1  0
 35 72  1  0
 36 73  1  0
M  END
>  <mol_id>  (19) 
2026-09-16-6tgu-s0-n100-0019

>  <rmsd_to_ref>  (19) 


$$$$

     RDKit          3D

 43 42  0  0  0  0  0  0  0  0999 V2000
    2.3550   23.3950   32.7630 O   0  0  0  0  0  0  0  0  0  0  0  0
    4.7720   21.3980   34.0270 C   0  0  0  0  0  0  0  0  0  0  0  0
    2.6710   18.7910   41.2370 C   0  0  0  0  0  0  0  0  0  0  0  0
    2.0000   21.5420   37.5300 C   0  0  0  0  0  0  0  0  0  0  0  0
    3.1650   19.8880   40.2720 C   0  0  0  0  0  0  0  0  0  0  0  0
    3.1910   16.7980   38.2200 C   0  0  0  0  0  0  0  0  0  0  0  0
    1.8440   20.7960   40.4690 C   0  0  0  0  0  0  0  0  0  0  0  0
    3.9790   18.4750   38.5140 C   0  0  0  0  0  0  0  0  0  0  0  0
    3.7040   23.1380   33.0250 C   0  0  0  0  0  0  0  0  0  0  0  0
    3.0030   20.5060   37.6160 C   0  0  0  0  0  0  0  0  0  0  0  0
    2.9050   19.5630   38.7220 C   0  0  0  0  0  0  0  0  0  0  0  0
    4.5500   22.8260   32.0340 O   0  0  0  0  0  0  0  0  0  0  0  0
    3.5880   22.1320   33.9780 C   0  0  0  0  0  0  0  0  0  0  0  0
    1.9290   21.3550   35.8240 C   0  0  0  0  0  0  0  0  0  0  0  0
    2.6730   22.3600   34.9400 C   0  0  0  0  0  0  0  0  0  0  0  0
    1.8647   23.4884   33.6180 H   0  0  0  0  0  0  0  0  0  0  0  0
    5.0525   21.2241   35.0763 H   0  0  0  0  0  0  0  0  0  0  0  0
    4.6257   20.4320   33.5217 H   0  0  0  0  0  0  0  0  0  0  0  0
    5.5722   21.9587   33.5217 H   0  0  0  0  0  0  0  0  0  0  0  0
    2.8200   19.1219   42.2754 H   0  0  0  0  0  0  0  0  0  0  0  0
    1.6014   18.6031   41.0619 H   0  0  0  0  0  0  0  0  0  0  0  0
    3.2393   17.8656   41.0619 H   0  0  0  0  0  0  0  0  0  0  0  0
    1.0597   21.2976   38.0459 H   0  0  0  0  0  0  0  0  0  0  0  0
    2.1907   22.5324   37.9690 H   0  0  0  0  0  0  0  0  0  0  0  0
    4.2132   20.1714   40.4478 H   0  0  0  0  0  0  0  0  0  0  0  0
    2.9679   16.3232   39.1868 H   0  0  0  0  0  0  0  0  0  0  0  0
    2.2587   16.9257   37.6504 H   0  0  0  0  0  0  0  0  0  0  0  0
    3.8844   16.1618   37.6504 H   0  0  0  0  0  0  0  0  0  0  0  0
    1.6483   20.9305   41.5431 H   0  0  0  0  0  0  0  0  0  0  0  0
    2.0007   21.7781   39.9991 H   0  0  0  0  0  0  0  0  0  0  0  0
    0.9832   20.2978   39.9991 H   0  0  0  0  0  0  0  0  0  0  0  0
    4.6147   18.4214   39.4101 H   0  0  0  0  0  0  0  0  0  0  0  0
    4.5787   18.7396   37.6306 H   0  0  0  0  0  0  0  0  0  0  0  0
    4.2077   24.0713   33.3170 H   0  0  0  0  0  0  0  0  0  0  0  0
    2.9570   19.9251   36.6831 H   0  0  0  0  0  0  0  0  0  0  0  0
    3.9464   21.0441   37.7903 H   0  0  0  0  0  0  0  0  0  0  0  0
    1.8214   19.3936   38.6380 H   0  0  0  0  0  0  0  0  0  0  0  0
    5.4061   22.5103   32.4181 H   0  0  0  0  0  0  0  0  0  0  0  0
    2.9680   21.2369   33.8216 H   0  0  0  0  0  0  0  0  0  0  0  0
    2.3326   20.3586   35.5909 H   0  0  0  0  0  0  0  0  0  0  0  0
    0.8690   21.5217   35.5821 H   0  0  0  0  0  0  0  0  0  0  0  0
    3.1858   23.0227   35.6526 H   0  0  0  0  0  0  0  0  0  0  0  0
    1.8329   22.6441   34.2892 H   0  0  0  0  0  0  0  0  0  0  0  0
  1  9  1  0
  4 10  1  0
  5  7  1  0
  5  3  1  0
  6  8  1  0
  8 11  1  0
  9 13  1  0
 11 10  1  0
 11  5  1  0
 12  9  1  0
 13  2  1  0
 13 15  1  0
 14  4  1  0
 15 14  1  0
  1 16  1  0
  2 17  1  0
  2 18  1  0
  2 19  1  0
  3 20  1  0
  3 21  1  0
  3 22  1  0
  4 23  1  0
  4 24  1  0
  5 25  1  0
  6 26  1  0
  6 27  1  0
  6 28  1  0
  7 29  1  0
  7 30  1  0
  7 31  1  0
  8 32  1  0
  8 33  1  0
  9 34  1  0
 10 35  1  0
 10 36  1  0
 11 37  1  0
 12 38  1  0
 13 39  1  0
 14 40  1  0
 14 41  1  0
 15 42  1  0
 15 43  1  0
M  END
>  <mol_id>  (20) 
2026-09-16-6tgu-s0-n100-0020

>  <rmsd_to_ref>  (20) 


$$$$

     RDKit          3D

 41 41  0  0  0  0  0  0  0  0999 V2000
    1.6920   20.6750   40.4620 C   0  0  0  0  0  0  0  0  0  0  0  0
    3.5590   22.2550   34.1650 C   0  0  0  0  0  0  0  0  0  0  0  0
    3.9640   23.9190   30.2270 C   0  0  0  0  0  0  0  0  0  0  0  0
    2.9700   24.7430   29.3450 C   0  0  0  0  0  0  0  0  0  0  0  0
    3.1710   21.7400   35.4960 C   0  0  0  0  0  0  0  0  0  0  0  0
    3.7920   20.6710   35.9650 C   0  0  0  0  0  0  0  0  0  0  0  0
    2.5970   18.5710   39.5900 C   0  0  0  0  0  0  0  0  0  0  0  0
    2.0780   25.5670   30.2490 C   0  0  0  0  0  0  0  0  0  0  0  0
    2.6500   20.6290   38.1920 C   0  0  0  0  0  0  0  0  0  0  0  0
    3.1980   23.4440   31.4060 C   0  0  0  0  0  0  0  0  0  0  0  0
    3.3340   19.8550   37.1090 C   0  0  0  0  0  0  0  0  0  0  0  0
    1.1790   21.2360   41.3950 N   0  0  0  0  0  0  0  0  0  0  0  0
    3.2670   16.4350   38.5410 C   0  0  0  0  0  0  0  0  0  0  0  0
    2.7460   23.9900   32.4370 C   0  0  0  0  0  0  0  0  0  0  0  0
    3.1510   17.7660   38.4640 C   0  0  0  0  0  0  0  0  0  0  0  0
    3.5780   18.4880   37.3010 C   0  0  0  0  0  0  0  0  0  0  0  0
    2.5110   23.3010   33.8200 C   0  0  0  0  0  0  0  0  0  0  0  0
    2.2740   19.9860   39.4090 C   0  0  0  0  0  0  0  0  0  0  0  0
    4.5596   22.7102   34.2044 H   0  0  0  0  0  0  0  0  0  0  0  0
    3.6036   21.4544   33.4119 H   0  0  0  0  0  0  0  0  0  0  0  0
    4.8007   24.5557   30.5504 H   0  0  0  0  0  0  0  0  0  0  0  0
    4.3849   23.0737   29.6629 H   0  0  0  0  0  0  0  0  0  0  0  0
    3.5349   25.4096   28.6768 H   0  0  0  0  0  0  0  0  0  0  0  0
    2.3566   24.0604   28.7386 H   0  0  0  0  0  0  0  0  0  0  0  0
    2.3833   22.2353   36.0827 H   0  0  0  0  0  0  0  0  0  0  0  0
    4.7225   20.3650   35.4645 H   0  0  0  0  0  0  0  0  0  0  0  0
    2.4293   18.0955   40.5677 H   0  0  0  0  0  0  0  0  0  0  0  0
    2.3169   25.3464   31.2998 H   0  0  0  0  0  0  0  0  0  0  0  0
    2.2439   26.6364   30.0520 H   0  0  0  0  0  0  0  0  0  0  0  0
    1.0251   25.3170   30.0520 H   0  0  0  0  0  0  0  0  0  0  0  0
    2.4361   21.6985   38.0491 H   0  0  0  0  0  0  0  0  0  0  0  0
    2.3014   22.9966   30.9521 H   0  0  0  0  0  0  0  0  0  0  0  0
    4.0630   22.9858   31.9079 H   0  0  0  0  0  0  0  0  0  0  0  0
    3.2936   16.1298   39.5975 H   0  0  0  0  0  0  0  0  0  0  0  0
    2.4066   15.9626   38.0444 H   0  0  0  0  0  0  0  0  0  0  0  0
    4.1961   16.1186   38.0444 H   0  0  0  0  0  0  0  0  0  0  0  0
    3.4324   24.8241   32.6447 H   0  0  0  0  0  0  0  0  0  0  0  0
    1.7018   24.1388   32.1248 H   0  0  0  0  0  0  0  0  0  0  0  0
    4.1253   17.9410   36.5192 H   0  0  0  0  0  0  0  0  0  0  0  0
    2.5227   24.0757   34.6009 H   0  0  0  0  0  0  0  0  0  0  0  0
    1.5435   22.7809   33.7609 H   0  0  0  0  0  0  0  0  0  0  0  0
  1 12  3  0
  2  5  1  0
  3 10  1  0
  4  3  1  0
  4  8  1  0
  5  6  2  3
  6 11  1  0
  9 18  2  0
 10 14  1  0
 11 16  2  0
 11  9  1  0
 14 17  1  0
 15 13  1  0
 15  7  2  0
 16 15  1  0
 17  2  1  0
 18  7  1  0
 18  1  1  0
  2 19  1  0
  2 20  1  0
  3 21  1  0
  3 22  1  0
  4 23  1  0
  4 24  1  0
  5 25  1  0
  6 26  1  0
  7 27  1  0
  8 28  1  0
  8 29  1  0
  8 30  1  0
  9 31  1  0
 10 32  1  0
 10 33  1  0
 13 34  1  0
 13 35  1  0
 13 36  1  0
 14 37  1  0
 14 38  1  0
 16 39  1  0
 17 40  1  0
 17 41  1  0
M  END
>  <mol_id>  (21) 
2026-09-16-6tgu-s0-n100-0021

>  <rmsd_to_ref>  (21) 


$$$$

     RDKit          3D

 52 51  0  0  0  0  0  0  0  0999 V2000
    2.2420   19.0720   40.5370 C   0  0  0  0  0  0  0  0  0  0  0  0
    1.9840   23.8820   29.2750 F   0  0  0  0  0  0  0  0  0  0  0  0
    2.6040   24.9580   29.0220 C   0  0  0  0  0  0  0  0  0  0  0  0
    0.0720   19.0170   42.3950 C   0  0  0  0  0  0  0  0  0  0  0  0
    1.5860   17.8340   40.9200 C   0  0  0  0  0  0  0  0  0  0  0  0
    0.5960   20.2640   41.9260 C   0  0  0  0  0  0  0  0  0  0  0  0
    3.1060   17.3780   39.3700 N   0  0  0  0  0  0  0  0  0  0  0  0
    3.1550   25.5260   30.1180 F   0  0  0  0  0  0  0  0  0  0  0  0
   -0.4650   26.7560   28.6300 C   0  0  0  0  0  0  0  0  0  0  0  0
    3.8070   20.4760   35.9170 N   0  0  0  0  0  0  0  0  0  0  0  0
   -0.1770   26.2700   29.9710 O   0  0  0  0  0  0  0  0  0  0  0  0
   -1.0320   18.9820   43.4220 C   0  0  0  0  0  0  0  0  0  0  0  0
    2.3220   23.0890   34.4860 O   0  0  0  0  0  1  0  0  0  0  0  0
   -0.8990   25.6700   27.7010 C   0  0  0  0  0  0  0  0  0  0  0  0
    0.4380   24.9910   27.5760 C   0  0  0  0  0  0  0  0  0  0  0  0
    3.3600   19.6350   36.9630 C   0  0  0  0  0  0  0  0  0  0  0  0
    0.9940   26.9460   30.5840 C   0  0  0  0  0  0  0  0  0  0  0  0
    4.3230   22.2300   33.8000 O   0  0  0  0  0  0  0  0  0  0  0  0
    3.0330   21.5450   35.7270 C   0  0  0  0  0  0  0  0  0  0  0  0
    2.1730   16.7660   40.0760 C   0  0  0  0  0  0  0  0  0  0  0  0
    1.8040   15.6240   40.1410 O   0  0  0  0  0  0  0  0  0  0  0  0
    1.6400   20.2590   40.9960 C   0  0  0  0  0  0  0  0  0  0  0  0
    1.6750   26.0060   27.9850 S   0  0  0  0  0  0  0  0  0  0  0  0
    3.2670   22.3810   34.5350 C   0  0  0  0  0  0  0  0  0  0  0  0
    2.5160   20.1590   37.7090 O   0  0  0  0  0  1  0  0  0  0  0  0
    4.5970   19.3650   39.5660 C   0  0  0  0  0  0  0  0  0  0  0  0
    0.5410   17.8220   41.8500 C   0  0  0  0  0  0  0  0  0  0  0  0
    3.8220   18.3660   36.9380 O   0  0  0  0  0  0  0  0  0  0  0  0
    3.2920   18.6520   39.7960 N   0  0  0  0  0  0  0  0  0  0  0  0
    3.4918   24.7088   28.4222 H   0  0  0  0  0  0  0  0  0  0  0  0
    0.1822   21.2148   42.2930 H   0  0  0  0  0  0  0  0  0  0  0  0
    3.6262   16.9432   38.5946 H   0  0  0  0  0  0  0  0  0  0  0  0
   -1.2672   27.5060   28.6929 H   0  0  0  0  0  0  0  0  0  0  0  0
    0.4643   27.1848   28.2267 H   0  0  0  0  0  0  0  0  0  0  0  0
    4.6489   20.2814   35.3564 H   0  0  0  0  0  0  0  0  0  0  0  0
   -0.5946   18.9959   44.4312 H   0  0  0  0  0  0  0  0  0  0  0  0
   -1.6818   19.8600   43.2919 H   0  0  0  0  0  0  0  0  0  0  0  0
   -1.6249   18.0646   43.2919 H   0  0  0  0  0  0  0  0  0  0  0  0
   -1.6633   25.0159   28.1460 H   0  0  0  0  0  0  0  0  0  0  0  0
   -1.3801   25.9866   26.7638 H   0  0  0  0  0  0  0  0  0  0  0  0
    0.4582   24.1165   28.2430 H   0  0  0  0  0  0  0  0  0  0  0  0
    0.5736   24.6879   26.5273 H   0  0  0  0  0  0  0  0  0  0  0  0
    0.9123   26.8989   31.6800 H   0  0  0  0  0  0  0  0  0  0  0  0
    1.9177   26.4422   30.2631 H   0  0  0  0  0  0  0  0  0  0  0  0
    1.0196   27.9978   30.2631 H   0  0  0  0  0  0  0  0  0  0  0  0
    1.9938   21.1881   35.6742 H   0  0  0  0  0  0  0  0  0  0  0  0
    3.2761   22.2066   36.5715 H   0  0  0  0  0  0  0  0  0  0  0  0
    2.0056   21.2209   40.6074 H   0  0  0  0  0  0  0  0  0  0  0  0
    5.0541   19.6147   40.5349 H   0  0  0  0  0  0  0  0  0  0  0  0
    5.2761   18.7126   38.9975 H   0  0  0  0  0  0  0  0  0  0  0  0
    4.4148   20.2889   38.9975 H   0  0  0  0  0  0  0  0  0  0  0  0
    0.0876   16.8665   42.1525 H   0  0  0  0  0  0  0  0  0  0  0  0
  1  5  1  0
  1 22  2  0
  3  2  1  0
  3  8  1  0
  4 12  1  0
  5 27  2  0
  6  4  2  0
  7 29  1  0
  7 20  1  0
  9 11  1  0
 10 16  1  0
 11 17  1  0
 13 24  1  0
 14  9  1  0
 15 14  1  0
 15 23  1  0
 16 25  1  0
 18 24  2  0
 19 10  1  0
 20 21  2  0
 20  5  1  0
 22  6  1  0
 23  3  1  0
 24 19  1  0
 26 29  1  0
 27  4  1  0
 28 16  2  0
 29  1  1  0
  3 30  1  0
  6 31  1  0
  7 32  1  0
  9 33  1  0
  9 34  1  0
 10 35  1  0
 12 36  1  0
 12 37  1  0
 12 38  1  0
 14 39  1  0
 14 40  1  0
 15 41  1  0
 15 42  1  0
 17 43  1  0
 17 44  1  0
 17 45  1  0
 19 46  1  0
 19 47  1  0
 22 48  1  0
 26 49  1  0
 26 50  1  0
 26 51  1  0
 27 52  1  0
M  CHG  2  13  -1  25  -1
M  END
>  <mol_id>  (22) 
2026-09-16-6tgu-s0-n100-0022

>  <rmsd_to_ref>  (22) 


$$$$

     RDKit          3D

 61 60  0  0  0  0  0  0  0  0999 V2000
    1.6640   25.6650   33.7740 C   0  0  0  0  0  0  0  0  0  0  0  0
    2.2210   24.4970   34.4790 C   0  0  0  0  0  0  0  0  0  0  0  0
    2.5020   20.6840   37.8570 C   0  0  0  0  0  0  0  0  0  0  0  0
    2.0600   25.9210   32.2770 C   0  0  0  0  0  0  0  0  0  0  0  0
    2.8410   15.6520   37.6250 C   0  0  0  0  0  0  0  0  0  0  0  0
    1.4690   19.5470   40.2730 C   0  0  0  0  0  0  0  0  0  0  0  0
    3.6540   20.8490   35.7050 C   0  0  0  0  0  0  0  0  0  0  0  0
    1.1910   26.9360   34.6250 C   0  0  0  0  0  0  0  0  0  0  0  0
    1.9940   28.2660   31.8790 O   0  0  0  0  0  0  0  0  0  0  0  0
    1.8990   22.4450   36.1320 C   0  0  0  0  0  0  0  0  0  0  0  0
    4.0030   21.2110   34.4670 O   0  0  0  0  0  0  0  0  0  0  0  0
    0.4250   18.7420   41.0880 C   0  0  0  0  0  0  0  0  0  0  0  0
    1.7180   23.1310   34.7590 C   0  0  0  0  0  0  0  0  0  0  0  0
    2.9380   19.4200   38.2350 C   0  0  0  0  0  0  0  0  0  0  0  0
    4.1250   15.6340   37.1580 C   0  0  0  0  0  0  0  0  0  0  0  0
    4.1570   17.2570   37.5840 C   0  0  0  0  0  0  0  0  0  0  0  0
    2.4690   14.4530   38.5710 O   0  0  0  0  0  0  0  0  0  0  0  0
    4.6340   14.2020   36.9450 C   0  0  0  0  0  0  0  0  0  0  0  0
    3.7850   18.6460   37.4180 C   0  0  0  0  0  0  0  0  0  0  0  0
    1.9110   20.8410   40.9210 C   0  0  0  0  0  0  0  0  0  0  0  0
    2.3660   18.5590   39.6090 C   0  0  0  0  0  0  0  0  0  0  0  0
    1.3130   27.1380   31.7460 C   0  0  0  0  0  0  0  0  0  0  0  0
    2.7090   21.3030   36.5870 C   0  0  0  0  0  0  0  0  0  0  0  0
    0.6875   25.1858   33.6103 H   0  0  0  0  0  0  0  0  0  0  0  0
    3.1644   24.3104   33.9450 H   0  0  0  0  0  0  0  0  0  0  0  0
    2.0377   24.8869   35.4911 H   0  0  0  0  0  0  0  0  0  0  0  0
    1.9442   21.2630   38.6077 H   0  0  0  0  0  0  0  0  0  0  0  0
    3.1433   26.1003   32.2114 H   0  0  0  0  0  0  0  0  0  0  0  0
    1.7928   25.0399   31.6751 H   0  0  0  0  0  0  0  0  0  0  0  0
    2.1616   15.6296   36.7602 H   0  0  0  0  0  0  0  0  0  0  0  0
    2.7430   16.5661   38.2290 H   0  0  0  0  0  0  0  0  0  0  0  0
    1.0924   20.1061   39.4037 H   0  0  0  0  0  0  0  0  0  0  0  0
    4.2497   20.0119   36.0980 H   0  0  0  0  0  0  0  0  0  0  0  0
    1.2749   26.7105   35.6984 H   0  0  0  0  0  0  0  0  0  0  0  0
    1.8283   27.7986   34.3807 H   0  0  0  0  0  0  0  0  0  0  0  0
    0.1448   27.1721   34.3807 H   0  0  0  0  0  0  0  0  0  0  0  0
    2.1152   28.4668   32.8408 H   0  0  0  0  0  0  0  0  0  0  0  0
    0.8744   22.1530   36.4057 H   0  0  0  0  0  0  0  0  0  0  0  0
    2.5476   23.2223   36.5622 H   0  0  0  0  0  0  0  0  0  0  0  0
    4.7343   20.7347   33.9996 H   0  0  0  0  0  0  0  0  0  0  0  0
    0.6099   18.8846   42.1629 H   0  0  0  0  0  0  0  0  0  0  0  0
   -0.5864   19.0963   40.8397 H   0  0  0  0  0  0  0  0  0  0  0  0
    0.5105   17.6738   40.8397 H   0  0  0  0  0  0  0  0  0  0  0  0
    0.6343   23.1603   34.5726 H   0  0  0  0  0  0  0  0  0  0  0  0
    2.3623   22.5165   34.1131 H   0  0  0  0  0  0  0  0  0  0  0  0
    4.9925   15.5646   36.4852 H   0  0  0  0  0  0  0  0  0  0  0  0
    3.8273   17.1410   38.6270 H   0  0  0  0  0  0  0  0  0  0  0  0
    4.9249   17.4077   36.8109 H   0  0  0  0  0  0  0  0  0  0  0  0
    2.5574   14.7378   39.5150 H   0  0  0  0  0  0  0  0  0  0  0  0
    4.8038   13.7242   37.9212 H   0  0  0  0  0  0  0  0  0  0  0  0
    3.8852   13.6269   36.3806 H   0  0  0  0  0  0  0  0  0  0  0  0
    5.5778   14.2285   36.3806 H   0  0  0  0  0  0  0  0  0  0  0  0
    4.7403   19.1913   37.4115 H   0  0  0  0  0  0  0  0  0  0  0  0
    3.1222   18.5376   36.5468 H   0  0  0  0  0  0  0  0  0  0  0  0
    1.8745   20.7343   42.0152 H   0  0  0  0  0  0  0  0  0  0  0  0
    2.9398   21.0744   40.6094 H   0  0  0  0  0  0  0  0  0  0  0  0
    1.2400   21.6550   40.6094 H   0  0  0  0  0  0  0  0  0  0  0  0
    1.8095   17.6591   39.3083 H   0  0  0  0  0  0  0  0  0  0  0  0
    3.1741   18.1988   40.2626 H   0  0  0  0  0  0  0  0  0  0  0  0
    0.3655   27.2345   32.2964 H   0  0  0  0  0  0  0  0  0  0  0  0
    1.1507   26.9786   30.6698 H   0  0  0  0  0  0  0  0  0  0  0  0
  1  2  1  0
  1  8  1  0
  2 13  1  0
  3 14  2  3
  4  1  1  0
  5 17  1  0
  6 20  1  0
  6 12  1  0
  7 23  2  3
 10 23  1  0
 11  7  1  0
 13 10  1  0
 14 21  1  0
 15 18  1  0
 15 16  1  0
 15  5  1  0
 19 16  1  0
 19 14  1  0
 21  6  1  0
 22  9  1  0
 22  4  1  0
 23  3  1  0
  1 24  1  0
  2 25  1  0
  2 26  1  0
  3 27  1  0
  4 28  1  0
  4 29  1  0
  5 30  1  0
  5 31  1  0
  6 32  1  0
  7 33  1  0
  8 34  1  0
  8 35  1  0
  8 36  1  0
  9 37  1  0
 10 38  1  0
 10 39  1  0
 11 40  1  0
 12 41  1  0
 12 42  1  0
 12 43  1  0
 13 44  1  0
 13 45  1  0
 15 46  1  0
 16 47  1  0
 16 48  1  0
 17 49  1  0
 18 50  1  0
 18 51  1  0
 18 52  1  0
 19 53  1  0
 19 54  1  0
 20 55  1  0
 20 56  1  0
 20 57  1  0
 21 58  1  0
 21 59  1  0
 22 60  1  0
 22 61  1  0
M  END
>  <mol_id>  (23) 
2026-09-16-6tgu-s0-n100-0023

>  <rmsd_to_ref>  (23) 


$$$$

     RDKit          3D

 65 68  0  0  0  0  0  0  0  0999 V2000
    2.2050   25.2380   33.1770 C   0  0  0  0  0  0  0  0  0  0  0  0
    2.8750   15.4740   39.4510 C   0  0  0  0  0  0  0  0  0  0  0  0
    2.7040   25.1220   31.8690 C   0  0  0  0  0  0  0  0  0  0  0  0
    4.4940   22.2350   34.5130 C   0  0  0  0  0  0  0  0  0  0  0  0
    4.0730   23.2520   32.3240 C   0  0  0  0  0  0  0  0  0  0  0  0
    3.5850   24.1150   31.4190 C   0  0  0  0  0  0  0  0  0  0  0  0
    2.8340   17.5070   38.7040 C   0  0  0  0  0  0  0  0  0  0  0  0
    0.7700   26.9570   32.3740 C   0  0  0  0  0  0  0  0  0  0  0  0
    3.8100   13.8190   37.4630 O   0  0  0  0  0  0  0  0  0  0  0  0
    1.3600   26.9870   31.1480 C   0  0  0  0  0  0  0  0  0  0  0  0
    1.2090   26.2140   33.3920 C   0  0  0  0  0  0  0  0  0  0  0  0
    2.7930   24.2760   34.0760 C   0  0  0  0  0  0  0  0  0  0  0  0
    3.1610   25.9390   30.0170 O   0  0  0  0  0  0  0  0  0  0  0  0
    1.5380   19.8240   40.1730 C   0  0  0  0  0  0  0  0  0  0  0  0
    3.6870   21.1500   35.0790 C   0  0  0  0  0  0  0  0  0  0  0  0
    1.8890   20.3220   39.1740 C   0  0  0  0  0  0  0  0  0  0  0  0
    1.6110   16.1230   41.3120 N   0  0  0  0  0  0  0  0  0  0  0  0
    1.8970   13.6400   35.4080 C   0  0  0  0  0  0  0  0  0  0  0  0
    2.3570   15.0640   40.3990 C   0  0  0  0  0  0  0  0  0  0  0  0
    0.6590   16.5790   42.4960 C   0  0  0  0  0  0  0  0  0  0  0  0
    2.4550   14.7810   36.0890 N   0  0  0  0  0  0  0  0  0  0  0  0
    1.6570   21.4400   38.2550 C   0  0  0  0  0  0  0  0  0  0  0  0
    2.1240   17.3950   40.8330 C   0  0  0  0  0  0  0  0  0  0  0  0
    3.0050   16.0720   38.2810 C   0  0  0  0  0  0  0  0  0  0  0  0
    1.4190   18.9480   42.1630 O   0  0  0  0  0  0  0  0  0  0  0  0
    2.2990   26.0240   30.9420 C   0  0  0  0  0  0  0  0  0  0  0  0
    2.6110   21.7590   35.9630 C   0  0  0  0  0  0  0  0  0  0  0  0
    2.6800   21.2410   37.2880 C   0  0  0  0  0  0  0  0  0  0  0  0
    2.7430   17.4010   39.6950 C   0  0  0  0  0  0  0  0  0  0  0  0
    1.7120   18.5900   40.9690 C   0  0  0  0  0  0  0  0  0  0  0  0
    3.0630   14.7840   37.1860 C   0  0  0  0  0  0  0  0  0  0  0  0
    3.6770   23.3110   33.6620 C   0  0  0  0  0  0  0  0  0  0  0  0
    3.6700   20.5200   37.6710 O   0  0  0  0  0  0  0  0  0  0  0  0
    3.2687   14.4484   39.3948 H   0  0  0  0  0  0  0  0  0  0  0  0
    4.9888   22.7608   35.3429 H   0  0  0  0  0  0  0  0  0  0  0  0
    5.1987   21.7612   33.8138 H   0  0  0  0  0  0  0  0  0  0  0  0
    4.7962   22.4863   32.0068 H   0  0  0  0  0  0  0  0  0  0  0  0
    3.8635   24.0397   30.3575 H   0  0  0  0  0  0  0  0  0  0  0  0
    3.7128   18.1140   38.4408 H   0  0  0  0  0  0  0  0  0  0  0  0
    1.9924   18.0264   38.2225 H   0  0  0  0  0  0  0  0  0  0  0  0
   -0.1209   27.5817   32.5353 H   0  0  0  0  0  0  0  0  0  0  0  0
    0.5745   26.8670   30.3874 H   0  0  0  0  0  0  0  0  0  0  0  0
    1.8858   27.9509   31.0813 H   0  0  0  0  0  0  0  0  0  0  0  0
    0.7939   26.3627   34.3998 H   0  0  0  0  0  0  0  0  0  0  0  0
    2.5210   24.3173   35.1410 H   0  0  0  0  0  0  0  0  0  0  0  0
    0.8463   20.5012   40.6954 H   0  0  0  0  0  0  0  0  0  0  0  0
    3.2183   20.5741   34.2674 H   0  0  0  0  0  0  0  0  0  0  0  0
    4.3239   20.4762   35.6709 H   0  0  0  0  0  0  0  0  0  0  0  0
    2.7120   19.7164   38.7667 H   0  0  0  0  0  0  0  0  0  0  0  0
    1.5397   12.9095   36.1487 H   0  0  0  0  0  0  0  0  0  0  0  0
    1.0558   13.9644   34.7777 H   0  0  0  0  0  0  0  0  0  0  0  0
    2.6695   13.1752   34.7777 H   0  0  0  0  0  0  0  0  0  0  0  0
    1.6150   14.3180   40.0781 H   0  0  0  0  0  0  0  0  0  0  0  0
    3.1687   14.6623   41.0233 H   0  0  0  0  0  0  0  0  0  0  0  0
    1.1371   16.3500   43.4598 H   0  0  0  0  0  0  0  0  0  0  0  0
    0.4779   17.6616   42.4246 H   0  0  0  0  0  0  0  0  0  0  0  0
   -0.2981   16.0416   42.4246 H   0  0  0  0  0  0  0  0  0  0  0  0
    2.3422   15.6932   35.6243 H   0  0  0  0  0  0  0  0  0  0  0  0
    0.6579   21.3820   37.7984 H   0  0  0  0  0  0  0  0  0  0  0  0
    1.6884   22.4273   38.7389 H   0  0  0  0  0  0  0  0  0  0  0  0
    2.5720   17.2399   41.8256 H   0  0  0  0  0  0  0  0  0  0  0  0
    3.3264   16.5446   37.3412 H   0  0  0  0  0  0  0  0  0  0  0  0
    2.7488   22.8498   35.9964 H   0  0  0  0  0  0  0  0  0  0  0  0
    1.6276   21.5055   35.5403 H   0  0  0  0  0  0  0  0  0  0  0  0
    3.1036   18.4051   39.9629 H   0  0  0  0  0  0  0  0  0  0  0  0
  1 11  1  0
  1 12  2  0
  2 29  1  0
  2 19  1  0
  3  1  1  0
  4 15  1  0
  5 32  2  0
  6  3  2  0
  6  5  1  0
  8 11  2  0
 10  8  1  0
 13 26  2  0
 14 30  1  0
 15 27  1  0
 16 14  2  3
 17 20  1  0
 18 21  1  0
 19 17  1  0
 21 31  1  0
 22 16  1  0
 23 30  1  0
 23 17  1  0
 24 31  1  0
 24  7  1  0
 24  2  1  0
 26 10  1  0
 26  3  1  0
 27 28  1  0
 28 33  2  0
 28 22  1  0
 29  7  1  0
 29 23  1  0
 30 25  2  0
 31  9  2  0
 32 12  1  0
 32  4  1  0
  2 34  1  0
  4 35  1  0
  4 36  1  0
  5 37  1  0
  6 38  1  0
  7 39  1  0
  7 40  1  0
  8 41  1  0
 10 42  1  0
 10 43  1  0
 11 44  1  0
 12 45  1  0
 14 46  1  0
 15 47  1  0
 15 48  1  0
 16 49  1  0
 18 50  1  0
 18 51  1  0
 18 52  1  0
 19 53  1  0
 19 54  1  0
 20 55  1  0
 20 56  1  0
 20 57  1  0
 21 58  1  0
 22 59  1  0
 22 60  1  0
 23 61  1  0
 24 62  1  0
 27 63  1  0
 27 64  1  0
 29 65  1  0
M  END
>  <mol_id>  (24) 
2026-09-16-6tgu-s0-n100-0024

>  <rmsd_to_ref>  (24) 


$$$$

     RDKit          3D

 45 47  0  0  0  0  0  0  0  0999 V2000
    2.5520   20.5780   37.9470 C   0  0  0  0  0  0  0  0  0  0  0  0
    5.0380   22.9090   31.0270 C   0  0  0  0  0  0  0  0  0  0  0  0
    3.3390   23.0730   33.1500 C   0  0  0  0  0  0  0  0  0  0  0  0
    2.7970   21.9470   35.3970 C   0  0  0  0  0  0  0  0  0  0  0  0
    1.4060   20.4730   40.1650 C   0  0  0  0  0  0  0  0  0  0  0  0
    3.8720   22.0660   34.2470 C   0  0  0  0  0  0  0  0  0  0  0  0
    2.5560   24.0170   28.6170 C   0  0  0  0  0  0  0  0  0  0  0  0
    4.3970   24.1320   30.7140 C   0  0  0  0  0  0  0  0  0  0  0  0
    4.1920   24.5080   29.1700 S   0  0  0  0  0  4  0  0  0  0  0  0
    2.6130   18.3740   39.3840 C   0  0  0  0  0  0  0  0  0  0  0  0
    1.2230   18.4870   41.4750 N   0  0  0  0  0  4  0  0  0  0  0  0
    1.8300   21.2750   39.0230 C   0  0  0  0  0  0  0  0  0  0  0  0
    5.1200   23.0750   28.7220 C   0  0  0  0  0  0  0  0  0  0  0  0
    3.8730   19.7060   36.2490 N   0  0  0  0  0  0  0  0  0  0  0  0
    3.0730   19.1580   38.1850 C   0  0  0  0  0  0  0  0  0  0  0  0
    4.8500   22.5390   27.3350 C   0  0  0  0  0  0  0  0  0  0  0  0
    1.7600   19.0500   40.3740 C   0  0  0  0  0  0  0  0  0  0  0  0
    1.7520   18.2120   42.5790 O   0  0  0  0  0  1  0  0  0  0  0  0
    3.8430   18.7930   37.1750 N   0  0  0  0  0  0  0  0  0  0  0  0
    3.8910   23.1120   31.6830 C   0  0  0  0  0  0  0  0  0  0  0  0
   -0.1750   18.2070   41.4250 O   0  0  0  0  0  0  0  0  0  0  0  0
    3.1130   20.7970   36.4590 C   0  0  0  0  0  0  0  0  0  0  0  0
    5.9842   22.9308   31.5875 H   0  0  0  0  0  0  0  0  0  0  0  0
    5.3992   22.0788   30.4023 H   0  0  0  0  0  0  0  0  0  0  0  0
    2.2595   22.8810   33.0620 H   0  0  0  0  0  0  0  0  0  0  0  0
    3.6968   24.0356   33.5442 H   0  0  0  0  0  0  0  0  0  0  0  0
    1.8200   21.7359   34.9378 H   0  0  0  0  0  0  0  0  0  0  0  0
    2.8077   22.9006   35.9451 H   0  0  0  0  0  0  0  0  0  0  0  0
    0.7782   20.9599   40.9258 H   0  0  0  0  0  0  0  0  0  0  0  0
    4.0373   21.0781   33.7923 H   0  0  0  0  0  0  0  0  0  0  0  0
    4.8219   22.4347   34.6614 H   0  0  0  0  0  0  0  0  0  0  0  0
    1.9159   23.8249   29.4907 H   0  0  0  0  0  0  0  0  0  0  0  0
    2.1167   24.8229   28.0107 H   0  0  0  0  0  0  0  0  0  0  0  0
    2.6330   23.1024   28.0107 H   0  0  0  0  0  0  0  0  0  0  0  0
    4.4084   25.2291   30.7930 H   0  0  0  0  0  0  0  0  0  0  0  0
    4.4433   25.7964   28.7778 H   0  0  0  0  0  0  0  0  0  0  0  0
    2.9069   17.3224   39.5170 H   0  0  0  0  0  0  0  0  0  0  0  0
    1.6193   22.3533   38.9685 H   0  0  0  0  0  0  0  0  0  0  0  0
    6.1885   23.3281   28.7866 H   0  0  0  0  0  0  0  0  0  0  0  0
    4.8121   22.2825   29.4199 H   0  0  0  0  0  0  0  0  0  0  0  0
    3.9105   19.5636   38.7715 H   0  0  0  0  0  0  0  0  0  0  0  0
    4.3563   21.5589   27.4103 H   0  0  0  0  0  0  0  0  0  0  0  0
    4.1965   23.2380   26.7926 H   0  0  0  0  0  0  0  0  0  0  0  0
    5.8007   22.4299   26.7926 H   0  0  0  0  0  0  0  0  0  0  0  0
    2.9667   22.5586   31.9054 H   0  0  0  0  0  0  0  0  0  0  0  0
  1 15  1  0
  1 12  1  0
  2 20  1  0
  3  6  1  0
  4 22  1  0
  5 17  1  0
  6  4  1  0
  8  9  1  0
  8  2  1  0
  8 20  1  0
  9  7  1  0
 10 17  2  0
 11 18  1  0
 12  5  2  0
 13  9  1  0
 14 22  1  0
 14 19  2  0
 15 10  1  0
 16 13  1  0
 17 11  1  0
 19 15  1  0
 20  3  1  0
 21 11  2  0
 22  1  2  0
  2 23  1  0
  2 24  1  0
  3 25  1  0
  3 26  1  0
  4 27  1  0
  4 28  1  0
  5 29  1  0
  6 30  1  0
  6 31  1  0
  7 32  1  0
  7 33  1  0
  7 34  1  0
  8 35  1  0
  9 36  1  0
 10 37  1  0
 12 38  1  0
 13 39  1  0
 13 40  1  0
 15 41  1  0
 16 42  1  0
 16 43  1  0
 16 44  1  0
 20 45  1  0
M  CHG  2  11   1  18  -1
M  END
>  <mol_id>  (25) 
2026-09-16-6tgu-s0-n100-0025

>  <rmsd_to_ref>  (25) 


$$$$

     RDKit          3D

 43 45  0  0  0  0  0  0  0  0999 V2000
    2.7860   18.7760   38.7860 C   0  0  0  0  0  0  0  0  0  0  0  0
    4.2300   23.8940   30.4020 O   0  0  0  0  0  0  0  0  0  0  0  0
    2.1870   22.4000   32.9760 C   0  0  0  0  0  0  0  0  0  0  0  0
    2.8130   24.5320   30.3140 C   0  0  0  0  0  0  0  0  0  0  0  0
    3.5120   22.7640   33.9450 C   0  0  0  0  0  0  0  0  0  0  0  0
    2.9630   16.4240   38.8610 C   0  0  0  0  0  0  0  0  0  0  0  0
    3.6670   20.1250   36.7000 N   0  0  0  0  0  0  0  0  0  0  0  0
    5.4660   21.8820   35.0710 C   0  0  0  0  0  0  0  0  0  0  0  0
    2.1390   18.7580   39.9720 C   0  0  0  0  0  0  0  0  0  0  0  0
    3.3090   17.5850   38.2950 N   0  0  0  0  0  0  0  0  0  0  0  0
    2.9190   20.0120   37.9580 C   0  0  0  0  0  0  0  0  0  0  0  0
    1.5640   20.0120   40.4530 C   0  0  0  0  0  0  0  0  0  0  0  0
    3.3620   15.2350   38.0790 C   0  0  0  0  0  0  0  0  0  0  0  0
    2.2760   24.4450   31.7570 C   0  0  0  0  0  0  0  0  0  0  0  0
    4.2110   21.4770   34.4850 C   0  0  0  0  0  0  0  0  0  0  0  0
    2.4890   16.3580   40.0510 O   0  0  0  0  0  0  0  0  0  0  0  0
    2.2850   21.0980   38.4850 C   0  0  0  0  0  0  0  0  0  0  0  0
    1.6600   21.1610   39.7230 C   0  0  0  0  0  0  0  0  0  0  0  0
    4.5440   23.4690   31.7880 C   0  0  0  0  0  0  0  0  0  0  0  0
    3.1950   23.4700   32.5570 C   0  0  0  0  0  0  0  0  0  0  0  0
    3.2870   21.0460   35.6750 C   0  0  0  0  0  0  0  0  0  0  0  0
    2.1429   21.4417   32.4378 H   0  0  0  0  0  0  0  0  0  0  0  0
    1.0971   22.3649   33.1209 H   0  0  0  0  0  0  0  0  0  0  0  0
    2.8752   25.5789   29.9822 H   0  0  0  0  0  0  0  0  0  0  0  0
    2.1627   24.0218   29.5882 H   0  0  0  0  0  0  0  0  0  0  0  0
    3.9466   23.2446   34.8339 H   0  0  0  0  0  0  0  0  0  0  0  0
    5.3841   21.8556   36.1676 H   0  0  0  0  0  0  0  0  0  0  0  0
    6.2611   21.1948   34.7460 H   0  0  0  0  0  0  0  0  0  0  0  0
    5.7094   22.9043   34.7460 H   0  0  0  0  0  0  0  0  0  0  0  0
    2.0482   17.8302   40.5559 H   0  0  0  0  0  0  0  0  0  0  0  0
    3.9610   17.5970   37.4977 H   0  0  0  0  0  0  0  0  0  0  0  0
    1.0438   20.0303   41.4220 H   0  0  0  0  0  0  0  0  0  0  0  0
    3.6356   14.4198   38.7650 H   0  0  0  0  0  0  0  0  0  0  0  0
    2.5222   14.9144   37.4450 H   0  0  0  0  0  0  0  0  0  0  0  0
    4.2252   15.4859   37.4450 H   0  0  0  0  0  0  0  0  0  0  0  0
    2.2944   25.4414   32.2226 H   0  0  0  0  0  0  0  0  0  0  0  0
    1.2390   24.0781   31.7568 H   0  0  0  0  0  0  0  0  0  0  0  0
    4.3676   20.7022   33.7201 H   0  0  0  0  0  0  0  0  0  0  0  0
    2.2670   22.0106   37.8711 H   0  0  0  0  0  0  0  0  0  0  0  0
    1.2540   22.1095   40.1044 H   0  0  0  0  0  0  0  0  0  0  0  0
    4.9820   22.4600   31.7875 H   0  0  0  0  0  0  0  0  0  0  0  0
    5.2744   24.1436   32.2586 H   0  0  0  0  0  0  0  0  0  0  0  0
    2.2781   21.4815   35.7249 H   0  0  0  0  0  0  0  0  0  0  0  0
  1  9  2  0
  2 19  1  0
  3  5  1  0
  4  2  1  0
  4 14  1  0
  5 15  1  0
  6 16  2  0
  7 11  1  0
  9 12  1  0
 10  1  1  0
 10  6  1  0
 11 17  2  0
 11  1  1  0
 13  6  1  0
 15  8  1  0
 15 21  1  0
 17 18  1  0
 18 12  2  0
 19 20  1  0
 20 14  1  0
 20  3  1  0
 20  5  1  0
 21  7  2  3
  3 22  1  0
  3 23  1  0
  4 24  1  0
  4 25  1  0
  5 26  1  0
  8 27  1  0
  8 28  1  0
  8 29  1  0
  9 30  1  0
 10 31  1  0
 12 32  1  0
 13 33  1  0
 13 34  1  0
 13 35  1  0
 14 36  1  0
 14 37  1  0
 15 38  1  0
 17 39  1  0
 18 40  1  0
 19 41  1  0
 19 42  1  0
 21 43  1  0
M  END
>  <mol_id>  (26) 
2026-09-16-6tgu-s0-n100-0026

>  <rmsd_to_ref>  (26) 


$$$$

     RDKit          3D

 29 29  0  0  0  0  0  0  0  0999 V2000
    1.2430   20.9770   41.2680 C   0  0  0  0  0  0  0  0  0  0  0  0
    2.2440   21.1200   37.6620 C   0  0  0  0  0  0  0  0  0  0  0  0
    2.9260   23.0830   33.6530 N   0  0  0  0  0  4  0  0  0  0  0  0
    3.3740   21.3170   35.3720 C   0  0  0  0  0  0  0  0  0  0  0  0
    3.2520   20.5410   36.7980 C   0  0  0  0  0  0  0  0  0  0  0  0
    2.0080   21.0840   39.0080 C   0  0  0  0  0  0  0  0  0  0  0  0
    4.0520   22.2350   33.2120 C   0  0  0  0  0  0  0  0  0  0  0  0
    2.2670   20.5050   40.2160 C   0  0  0  0  0  0  0  0  0  0  0  0
    4.0050   19.3530   37.4530 C   0  0  0  0  0  0  0  0  0  0  0  0
    4.0970   20.9460   34.0790 C   0  0  0  0  0  0  0  0  0  0  0  0
    2.5470   22.6170   35.0400 C   0  0  0  0  0  0  0  0  0  0  0  0
    1.6420   20.7931   42.2764 H   0  0  0  0  0  0  0  0  0  0  0  0
    1.0542   22.0530   41.1390 H   0  0  0  0  0  0  0  0  0  0  0  0
    0.3023   20.4216   41.1390 H   0  0  0  0  0  0  0  0  0  0  0  0
    1.5046   21.7221   37.1136 H   0  0  0  0  0  0  0  0  0  0  0  0
    2.1275   22.9742   33.0116 H   0  0  0  0  0  0  0  0  0  0  0  0
    3.1915   24.0782   33.6567 H   0  0  0  0  0  0  0  0  0  0  0  0
    1.2796   21.8838   39.2075 H   0  0  0  0  0  0  0  0  0  0  0  0
    3.9142   21.9621   32.1553 H   0  0  0  0  0  0  0  0  0  0  0  0
    4.9958   22.7883   33.3265 H   0  0  0  0  0  0  0  0  0  0  0  0
    2.2049   19.4114   40.1147 H   0  0  0  0  0  0  0  0  0  0  0  0
    3.2757   20.7972   40.5432 H   0  0  0  0  0  0  0  0  0  0  0  0
    3.9486   19.4420   38.5479 H   0  0  0  0  0  0  0  0  0  0  0  0
    3.5415   18.4065   37.1377 H   0  0  0  0  0  0  0  0  0  0  0  0
    5.0587   19.3682   37.1377 H   0  0  0  0  0  0  0  0  0  0  0  0
    3.5801   20.1190   33.5701 H   0  0  0  0  0  0  0  0  0  0  0  0
    5.1269   20.6064   34.2631 H   0  0  0  0  0  0  0  0  0  0  0  0
    2.7810   23.4033   35.7728 H   0  0  0  0  0  0  0  0  0  0  0  0
    1.4694   22.4008   35.0845 H   0  0  0  0  0  0  0  0  0  0  0  0
  2  6  2  3
  3 11  1  0
  4  5  2  3
  5  9  1  0
  5  2  1  0
  6  8  1  0
  7  3  1  0
  7 10  1  0
  8  1  1  0
 10  4  1  0
 11  4  1  0
  1 12  1  0
  1 13  1  0
  1 14  1  0
  2 15  1  0
  3 16  1  0
  3 17  1  0
  6 18  1  0
  7 19  1  0
  7 20  1  0
  8 21  1  0
  8 22  1  0
  9 23  1  0
  9 24  1  0
  9 25  1  0
 10 26  1  0
 10 27  1  0
 11 28  1  0
 11 29  1  0
M  CHG  1   3   1
M  END
>  <mol_id>  (27) 
2026-09-16-6tgu-s0-n100-0027

>  <rmsd_to_ref>  (27) 


$$$$

     RDKit          3D

 55 58  0  0  0  0  0  0  0  0999 V2000
    3.4170   24.6140   29.2110 C   0  0  0  0  0  0  0  0  0  0  0  0
    2.3270   17.4200   40.1400 C   0  0  0  0  0  0  0  0  0  0  0  0
    3.4780   25.7330   31.5600 S   0  0  0  0  0  4  0  0  0  0  0  0
    0.4280   19.0600   42.3330 C   0  0  0  0  0  0  0  0  0  0  0  0
    4.2050   23.0410   34.5710 C   0  0  0  0  0  0  0  0  0  0  0  0
    3.3260   24.7350   33.0600 C   0  0  0  0  0  0  0  0  0  0  0  0
    2.3040   21.6010   35.7370 C   0  0  0  0  0  0  0  0  0  0  0  0
    4.3160   23.9580   33.5410 C   0  0  0  0  0  0  0  0  0  0  0  0
    2.7580   16.0180   39.9760 C   0  0  0  0  0  0  0  0  0  0  0  0
    1.2380   19.1280   41.2300 N   0  0  0  0  0  0  0  0  0  0  0  0
    3.7250   18.1340   37.2610 C   0  0  0  0  0  0  0  0  0  0  0  0
    2.1180   24.6370   33.7110 C   0  0  0  0  0  0  0  0  0  0  0  0
    4.9350   25.1710   30.9850 C   0  0  0  0  0  0  0  0  0  0  0  0
    2.0370   25.0670   29.0760 O   0  0  0  0  0  0  0  0  0  0  0  0
    1.3820   17.7630   41.1180 N   0  0  0  0  0  0  0  0  0  0  0  0
    3.4190   20.9200   36.4780 C   0  0  0  0  0  0  0  0  0  0  0  0
    2.8440   22.7190   34.9520 C   0  0  0  0  0  0  0  0  0  0  0  0
    2.6690   18.7190   39.5410 C   0  0  0  0  0  0  0  0  0  0  0  0
    2.7820   20.5080   37.7340 C   0  0  0  0  0  0  0  0  0  0  0  0
    2.4090   25.1630   30.1870 C   0  0  0  0  0  0  0  0  0  0  0  0
    0.3240   17.6480   42.1140 C   0  0  0  0  0  0  0  0  0  0  0  0
    1.9800   19.7000   40.2590 N   0  0  0  0  0  0  0  0  0  0  0  0
    1.9580   23.6270   34.5160 C   0  0  0  0  0  0  0  0  0  0  0  0
    2.6360   18.9240   38.0010 C   0  0  0  0  0  0  0  0  0  0  0  0
    4.2656   25.2136   28.8499 H   0  0  0  0  0  0  0  0  0  0  0  0
    4.0354   23.7197   29.0446 H   0  0  0  0  0  0  0  0  0  0  0  0
    1.5166   17.2557   39.4146 H   0  0  0  0  0  0  0  0  0  0  0  0
    3.2499   27.0520   31.8519 H   0  0  0  0  0  0  0  0  0  0  0  0
    0.9184   19.3402   43.2769 H   0  0  0  0  0  0  0  0  0  0  0  0
   -0.4673   19.6924   42.4256 H   0  0  0  0  0  0  0  0  0  0  0  0
    5.0807   22.5916   35.0622 H   0  0  0  0  0  0  0  0  0  0  0  0
    1.8194   20.8802   35.0620 H   0  0  0  0  0  0  0  0  0  0  0  0
    1.5668   21.9837   36.4581 H   0  0  0  0  0  0  0  0  0  0  0  0
    5.3050   24.0625   33.0708 H   0  0  0  0  0  0  0  0  0  0  0  0
    2.8989   15.5595   40.9659 H   0  0  0  0  0  0  0  0  0  0  0  0
    1.9897   15.4608   39.4199 H   0  0  0  0  0  0  0  0  0  0  0  0
    3.7066   15.9887   39.4199 H   0  0  0  0  0  0  0  0  0  0  0  0
    4.3896   17.6519   37.9930 H   0  0  0  0  0  0  0  0  0  0  0  0
    3.2554   17.3651   36.6299 H   0  0  0  0  0  0  0  0  0  0  0  0
    4.3102   18.8191   36.6299 H   0  0  0  0  0  0  0  0  0  0  0  0
    1.3217   25.3803   33.5577 H   0  0  0  0  0  0  0  0  0  0  0  0
    5.5904   24.9182   31.8315 H   0  0  0  0  0  0  0  0  0  0  0  0
    4.7656   24.2737   30.3717 H   0  0  0  0  0  0  0  0  0  0  0  0
    5.4121   25.9496   30.3717 H   0  0  0  0  0  0  0  0  0  0  0  0
    3.7899   20.0482   35.9190 H   0  0  0  0  0  0  0  0  0  0  0  0
    4.2953   21.5672   36.6300 H   0  0  0  0  0  0  0  0  0  0  0  0
    3.7619   18.7911   39.6433 H   0  0  0  0  0  0  0  0  0  0  0  0
    3.3744   20.9296   38.5594 H   0  0  0  0  0  0  0  0  0  0  0  0
    1.7493   20.8803   37.6638 H   0  0  0  0  0  0  0  0  0  0  0  0
    1.5961   25.2800   30.9188 H   0  0  0  0  0  0  0  0  0  0  0  0
   -0.6459   17.3203   41.7116 H   0  0  0  0  0  0  0  0  0  0  0  0
    0.4015   16.9348   42.9479 H   0  0  0  0  0  0  0  0  0  0  0  0
    2.6569   20.3490   40.6851 H   0  0  0  0  0  0  0  0  0  0  0  0
    0.9351   23.4975   34.8993 H   0  0  0  0  0  0  0  0  0  0  0  0
    1.6865   18.5359   37.6037 H   0  0  0  0  0  0  0  0  0  0  0  0
  1 20  1  0
  2  9  1  0
  2 15  1  0
  3 13  1  0
  3  6  1  0
  5 17  2  0
  6  8  2  0
  6 12  1  0
  7 16  1  0
  8  5  1  0
 10  4  1  0
 12 23  2  0
 14  1  1  0
 14 20  1  0
 15 10  1  0
 15 21  1  0
 16 19  1  0
 17  7  1  0
 18 24  1  0
 18  2  1  0
 18 22  1  0
 19 24  1  0
 20  3  1  0
 21  4  1  0
 22 10  1  0
 23 17  1  0
 24 11  1  0
  1 25  1  0
  1 26  1  0
  2 27  1  0
  3 28  1  0
  4 29  1  0
  4 30  1  0
  5 31  1  0
  7 32  1  0
  7 33  1  0
  8 34  1  0
  9 35  1  0
  9 36  1  0
  9 37  1  0
 11 38  1  0
 11 39  1  0
 11 40  1  0
 12 41  1  0
 13 42  1  0
 13 43  1  0
 13 44  1  0
 16 45  1  0
 16 46  1  0
 18 47  1  0
 19 48  1  0
 19 49  1  0
 20 50  1  0
 21 51  1  0
 21 52  1  0
 22 53  1  0
 23 54  1  0
 24 55  1  0
M  END
>  <mol_id>  (28) 
2026-09-16-6tgu-s0-n100-0028

>  <rmsd_to_ref>  (28) 


$$$$

     RDKit          3D

 45 45  0  0  0  0  0  0  0  0999 V2000
    1.7780   20.8210   39.8340 C   0  0  0  0  0  0  0  0  0  0  0  0
    2.4110   19.7340   39.2540 C   0  0  0  0  0  0  0  0  0  0  0  0
    3.7370   19.4530   37.3610 O   0  0  0  0  0  0  0  0  0  0  0  0
    2.6090   18.4890   39.7040 C   0  0  0  0  0  0  0  0  0  0  0  0
    3.2580   23.8000   31.9320 C   0  0  0  0  0  0  0  0  0  0  0  0
    2.2170   22.3050   35.1770 C   0  0  0  0  0  0  0  0  0  0  0  0
    2.8990   22.5730   33.9180 C   0  0  0  0  0  0  0  0  0  0  0  0
    0.0460   20.9420   42.2900 C   0  0  0  0  0  0  0  0  0  0  0  0
    3.5160   23.2830   30.7730 C   0  0  0  0  0  0  0  0  0  0  0  0
    4.5670   24.0270   28.9090 O   0  0  0  0  0  0  0  0  0  0  0  0
    2.4310   21.2000   37.2410 N   0  0  0  0  0  0  0  0  0  0  0  0
    2.8700   20.2030   37.9160 C   0  0  0  0  0  0  0  0  0  0  0  0
    2.3640   23.5320   33.0090 C   0  0  0  0  0  0  0  0  0  0  0  0
    4.2450   21.9430   33.6160 C   0  0  0  0  0  0  0  0  0  0  0  0
    3.2000   21.5160   36.0700 C   0  0  0  0  0  0  0  0  0  0  0  0
    2.7070   25.3830   29.7010 C   0  0  0  0  0  0  0  0  0  0  0  0
    3.6240   24.3040   29.6890 C   0  0  0  0  0  0  0  0  0  0  0  0
    1.1840   20.5210   41.1140 C   0  0  0  0  0  0  0  0  0  0  0  0
    2.0870   18.1820   40.8040 C   0  0  0  0  0  0  0  0  0  0  0  0
    1.2380   19.1430   41.5420 C   0  0  0  0  0  0  0  0  0  0  0  0
    1.7327   21.8149   39.3649 H   0  0  0  0  0  0  0  0  0  0  0  0
    3.2058   17.7630   39.1324 H   0  0  0  0  0  0  0  0  0  0  0  0
    3.0114   24.8408   31.6754 H   0  0  0  0  0  0  0  0  0  0  0  0
    4.1199   23.3257   32.4242 H   0  0  0  0  0  0  0  0  0  0  0  0
    1.3109   21.7083   34.9952 H   0  0  0  0  0  0  0  0  0  0  0  0
    1.9138   23.2434   35.6643 H   0  0  0  0  0  0  0  0  0  0  0  0
    2.3926   21.7105   33.4601 H   0  0  0  0  0  0  0  0  0  0  0  0
    0.4760   20.7829   43.2899 H   0  0  0  0  0  0  0  0  0  0  0  0
   -0.2278   22.0009   42.1728 H   0  0  0  0  0  0  0  0  0  0  0  0
   -0.8510   20.3162   42.1728 H   0  0  0  0  0  0  0  0  0  0  0  0
    4.4692   22.7376   30.8369 H   0  0  0  0  0  0  0  0  0  0  0  0
    2.6784   22.6179   30.5159 H   0  0  0  0  0  0  0  0  0  0  0  0
    1.5933   21.7323   37.5164 H   0  0  0  0  0  0  0  0  0  0  0  0
    2.1714   24.4686   33.5528 H   0  0  0  0  0  0  0  0  0  0  0  0
    1.4354   23.1204   32.5868 H   0  0  0  0  0  0  0  0  0  0  0  0
    4.7575   21.7031   34.5593 H   0  0  0  0  0  0  0  0  0  0  0  0
    4.0962   21.0210   33.0348 H   0  0  0  0  0  0  0  0  0  0  0  0
    4.8577   22.6479   33.0348 H   0  0  0  0  0  0  0  0  0  0  0  0
    3.5370   20.5989   35.5646 H   0  0  0  0  0  0  0  0  0  0  0  0
    4.1105   22.0873   36.3037 H   0  0  0  0  0  0  0  0  0  0  0  0
    2.4753   25.6557   30.7412 H   0  0  0  0  0  0  0  0  0  0  0  0
    3.1511   26.2474   29.1856 H   0  0  0  0  0  0  0  0  0  0  0  0
    1.7823   25.0841   29.1856 H   0  0  0  0  0  0  0  0  0  0  0  0
    2.2639   17.1817   41.2260 H   0  0  0  0  0  0  0  0  0  0  0  0
    0.6517   18.8099   42.4111 H   0  0  0  0  0  0  0  0  0  0  0  0
  1 18  2  0
  2  4  2  0
  2  1  1  0
  3 12  2  0
  4 19  1  0
  5 13  1  0
  6 15  1  0
  7 14  1  0
  7  6  1  0
  9  5  1  0
 10 17  2  0
 11 12  1  0
 12  2  1  0
 13  7  1  0
 15 11  1  0
 17 16  1  0
 17  9  1  0
 18 20  1  0
 18  8  1  0
 19 20  2  0
  1 21  1  0
  4 22  1  0
  5 23  1  0
  5 24  1  0
  6 25  1  0
  6 26  1  0
  7 27  1  0
  8 28  1  0
  8 29  1  0
  8 30  1  0
  9 31  1  0
  9 32  1  0
 11 33  1  0
 13 34  1  0
 13 35  1  0
 14 36  1  0
 14 37  1  0
 14 38  1  0
 15 39  1  0
 15 40  1  0
 16 41  1  0
 16 42  1  0
 16 43  1  0
 19 44  1  0
 20 45  1  0
M  END
>  <mol_id>  (29) 
2026-09-16-6tgu-s0-n100-0029

>  <rmsd_to_ref>  (29) 


$$$$

     RDKit          3D

 56 59  0  0  0  0  0  0  0  0999 V2000
    3.9730   24.5570   30.2120 C   0  0  0  0  0  0  0  0  0  0  0  0
    1.7260   22.6710   34.7290 C   0  0  0  0  0  0  0  0  0  0  0  0
    2.9150   21.8240   35.0040 C   0  0  0  0  0  0  0  0  0  0  0  0
    0.1420   16.6990   43.1080 F   0  0  0  0  0  0  0  0  0  0  0  0
    2.8280   18.4130   39.4160 C   0  0  0  0  0  0  0  0  0  0  0  0
    4.0940   17.9980   36.9350 C   0  0  0  0  0  0  0  0  0  0  0  0
    0.4750   17.6840   42.3400 C   0  0  0  0  0  0  0  0  0  0  0  0
    4.2700   23.7050   31.5930 S   0  0  0  0  0  4  0  0  0  0  0  0
    4.2090   23.0350   33.3040 C   0  0  0  0  0  0  0  0  0  0  0  0
    1.5490   17.5850   41.4110 C   0  0  0  0  0  0  0  0  0  0  0  0
   -0.1870   19.0010   42.5400 C   0  0  0  0  0  0  0  0  0  0  0  0
    2.5710   20.9980   36.2580 C   0  0  0  0  0  0  0  0  0  0  0  0
    3.3410   17.0480   39.1270 C   0  0  0  0  0  0  0  0  0  0  0  0
    2.6870   25.6410   30.4430 C   0  0  0  0  0  0  0  0  0  0  0  0
    4.4650   14.3190   37.6230 C   0  0  0  0  0  0  0  0  0  0  0  0
    4.2060   22.0910   34.4930 C   0  0  0  0  0  0  0  0  0  0  0  0
    3.0860   26.4900   27.8820 O   0  0  0  0  0  0  0  0  0  0  0  0
    1.9370   21.3780   40.6610 C   0  0  0  0  0  0  0  0  0  0  0  0
    3.5720   19.2430   37.3070 C   0  0  0  0  0  0  0  0  0  0  0  0
    2.1890   25.9020   28.9260 C   0  0  0  0  0  0  0  0  0  0  0  0
    1.4310   20.0350   41.0560 C   0  0  0  0  0  0  0  0  0  0  0  0
    4.3890   15.6230   37.3820 O   0  0  0  0  0  0  0  0  0  0  0  0
    5.0310   23.6110   28.2100 C   0  0  0  0  0  0  0  0  0  0  0  0
    3.8430   20.3030   36.4220 O   0  0  0  0  0  0  0  0  0  0  0  0
    2.9290   24.9570   27.9080 C   0  0  0  0  0  0  0  0  0  0  0  0
    0.3370   20.0790   41.9690 C   0  0  0  0  0  0  0  0  0  0  0  0
   -1.3130   19.0460   43.2290 F   0  0  0  0  0  0  0  0  0  0  0  0
    2.9530   19.4580   38.4880 N   0  0  0  0  0  0  0  0  0  0  0  0
    4.0880   24.3300   28.8020 C   0  0  0  0  0  0  0  0  0  0  0  0
    3.9720   16.9050   37.8020 C   0  0  0  0  0  0  0  0  0  0  0  0
    1.9340   18.7290   40.6390 C   0  0  0  0  0  0  0  0  0  0  0  0
    5.0698   24.6373   30.2360 H   0  0  0  0  0  0  0  0  0  0  0  0
    1.2762   22.9915   35.6803 H   0  0  0  0  0  0  0  0  0  0  0  0
    2.0318   23.5559   34.1515 H   0  0  0  0  0  0  0  0  0  0  0  0
    0.9896   22.0929   34.1515 H   0  0  0  0  0  0  0  0  0  0  0  0
    3.2481   21.1530   34.1985 H   0  0  0  0  0  0  0  0  0  0  0  0
    4.5983   17.8789   35.9647 H   0  0  0  0  0  0  0  0  0  0  0  0
    2.0827   16.6313   41.2859 H   0  0  0  0  0  0  0  0  0  0  0  0
    2.3344   21.6367   37.1218 H   0  0  0  0  0  0  0  0  0  0  0  0
    1.6841   20.3528   36.1737 H   0  0  0  0  0  0  0  0  0  0  0  0
    3.2570   16.2154   39.8409 H   0  0  0  0  0  0  0  0  0  0  0  0
    1.8900   25.1911   31.0533 H   0  0  0  0  0  0  0  0  0  0  0  0
    2.9714   26.5579   30.9800 H   0  0  0  0  0  0  0  0  0  0  0  0
    4.4750   14.1469   38.7094 H   0  0  0  0  0  0  0  0  0  0  0  0
    3.5948   13.8128   37.1796 H   0  0  0  0  0  0  0  0  0  0  0  0
    5.3881   13.9174   37.1796 H   0  0  0  0  0  0  0  0  0  0  0  0
    4.6598   21.1387   34.1814 H   0  0  0  0  0  0  0  0  0  0  0  0
    4.7737   22.5839   35.2960 H   0  0  0  0  0  0  0  0  0  0  0  0
    2.1587   21.9663   41.5636 H   0  0  0  0  0  0  0  0  0  0  0  0
    2.8536   21.2634   40.0637 H   0  0  0  0  0  0  0  0  0  0  0  0
    1.1727   21.8967   40.0637 H   0  0  0  0  0  0  0  0  0  0  0  0
    1.1672   26.1757   29.2277 H   0  0  0  0  0  0  0  0  0  0  0  0
    5.8415   23.1682   28.8075 H   0  0  0  0  0  0  0  0  0  0  0  0
    5.0031   23.4571   27.1212 H   0  0  0  0  0  0  0  0  0  0  0  0
    2.7004   24.1930   27.1503 H   0  0  0  0  0  0  0  0  0  0  0  0
   -0.0967   21.0598   42.2138 H   0  0  0  0  0  0  0  0  0  0  0  0
  1 14  1  0
  1  8  1  0
  3  2  1  0
  3 12  1  0
  5 31  1  0
  6 19  2  0
  6 30  1  0
  7 11  2  0
  7  4  1  0
  8  9  3  0
  9 16  1  0
 10  7  1  0
 11 27  1  0
 12 24  1  0
 13  5  1  0
 16  3  1  0
 17 20  1  0
 18 21  1  0
 19 28  1  0
 20 14  1  0
 21 26  2  0
 22 15  1  0
 22 30  1  0
 23 29  2  3
 24 19  1  0
 25 17  1  0
 25 29  1  0
 25 20  1  0
 26 11  1  0
 28  5  2  0
 29  1  1  0
 30 13  2  0
 31 21  1  0
 31 10  2  0
  1 32  1  0
  2 33  1  0
  2 34  1  0
  2 35  1  0
  3 36  1  0
  6 37  1  0
 10 38  1  0
 12 39  1  0
 12 40  1  0
 13 41  1  0
 14 42  1  0
 14 43  1  0
 15 44  1  0
 15 45  1  0
 15 46  1  0
 16 47  1  0
 16 48  1  0
 18 49  1  0
 18 50  1  0
 18 51  1  0
 20 52  1  0
 23 53  1  0
 23 54  1  0
 25 55  1  0
 26 56  1  0
M  END
>  <mol_id>  (30) 
2026-09-16-6tgu-s0-n100-0030

>  <rmsd_to_ref>  (30) 


$$$$

     RDKit          3D

 56 57  0  0  0  0  0  0  0  0999 V2000
    2.8490   20.9980   36.7290 C   0  0  0  0  0  0  0  0  0  0  0  0
    2.3570   14.1550   36.1580 O   0  0  0  0  0  0  0  0  0  0  0  0
    0.0300   20.6060   42.3430 Cl  0  0  0  0  0  0  0  0  0  0  0  0
    2.1870   20.2820   39.0670 C   0  0  0  0  0  0  0  0  0  0  0  0
    2.5880   16.7600   40.1530 N   0  0  0  0  0  0  0  0  0  0  0  0
    2.8150   15.7140   39.2800 C   0  0  0  0  0  0  0  0  0  0  0  0
    0.1200   26.1420   29.1840 C   0  0  0  0  0  0  0  0  0  0  0  0
    1.3840   20.8140   40.0740 C   0  0  0  0  0  0  0  0  0  0  0  0
    1.3500   18.6410   41.1280 C   0  0  0  0  0  0  0  0  0  0  0  0
    2.2800   18.0760   40.1280 C   0  0  0  0  0  0  0  0  0  0  0  0
    2.3820   24.5910   32.8780 C   0  0  0  0  0  0  0  0  0  0  0  0
    2.2870   23.9190   34.2260 N   0  0  0  0  0  0  0  0  0  0  0  0
    1.0010   19.9530   41.1160 C   0  0  0  0  0  0  0  0  0  0  0  0
    2.8280   14.1770   37.3460 C   0  0  0  0  0  0  0  0  0  0  0  0
   -0.1210   26.8340   30.5170 C   0  0  0  0  0  0  0  0  0  0  0  0
    2.3750   21.0350   37.9560 N   0  0  0  0  0  0  0  0  0  0  0  0
    1.4140   28.8250   30.2080 O   0  0  0  0  0  0  0  0  0  0  0  0
    1.4390   28.3230   33.6370 C   0  0  0  0  0  0  0  0  0  0  0  0
    2.0880   26.1060   32.5920 C   0  0  0  0  0  0  0  0  0  0  0  0
    3.1900   15.5200   37.9610 C   0  0  0  0  0  0  0  0  0  0  0  0
    2.3740   22.2020   35.9550 C   0  0  0  0  0  0  0  0  0  0  0  0
    3.6550   21.9490   34.0380 O   0  0  0  0  0  0  0  0  0  0  0  0
    2.7750   22.6480   34.6250 C   0  0  0  0  0  0  0  0  0  0  0  0
    0.9780   27.7380   31.0960 C   0  0  0  0  0  0  0  0  0  0  0  0
    3.7810   20.2930   36.3570 O   0  0  0  0  0  0  0  0  0  0  0  0
    2.1350   26.8150   31.2850 C   0  0  0  0  0  0  0  0  0  0  0  0
    2.8030   19.0270   39.1390 C   0  0  0  0  0  0  0  0  0  0  0  0
    3.8020   16.4030   37.2170 C   0  0  0  0  0  0  0  0  0  0  0  0
    0.5720   28.5130   32.4030 C   0  0  0  0  0  0  0  0  0  0  0  0
    2.9670   13.1990   38.0180 O   0  0  0  0  0  1  0  0  0  0  0  0
    1.8350   26.8880   33.7960 C   0  0  0  0  0  0  0  0  0  0  0  0
    2.6830   16.4365   41.1263 H   0  0  0  0  0  0  0  0  0  0  0  0
    3.5818   15.1369   39.8175 H   0  0  0  0  0  0  0  0  0  0  0  0
    1.7451   15.5908   39.0560 H   0  0  0  0  0  0  0  0  0  0  0  0
    0.4770   25.1169   29.3623 H   0  0  0  0  0  0  0  0  0  0  0  0
   -0.8195   26.1089   28.6129 H   0  0  0  0  0  0  0  0  0  0  0  0
    0.8768   26.6997   28.6129 H   0  0  0  0  0  0  0  0  0  0  0  0
    1.0629   21.8659   40.0539 H   0  0  0  0  0  0  0  0  0  0  0  0
    0.9298   17.9817   41.9018 H   0  0  0  0  0  0  0  0  0  0  0  0
    2.6826   23.9664   32.0239 H   0  0  0  0  0  0  0  0  0  0  0  0
   -1.0210   27.4555   30.3996 H   0  0  0  0  0  0  0  0  0  0  0  0
   -0.1870   26.0048   31.2367 H   0  0  0  0  0  0  0  0  0  0  0  0
    2.0154   21.9827   38.1389 H   0  0  0  0  0  0  0  0  0  0  0  0
    1.7218   29.5925   30.7524 H   0  0  0  0  0  0  0  0  0  0  0  0
    0.8749   28.6415   34.5260 H   0  0  0  0  0  0  0  0  0  0  0  0
    2.3503   28.9284   33.5228 H   0  0  0  0  0  0  0  0  0  0  0  0
    1.2842   22.0706   35.8839 H   0  0  0  0  0  0  0  0  0  0  0  0
    2.8833   22.9796   36.5432 H   0  0  0  0  0  0  0  0  0  0  0  0
    2.1264   26.0680   30.4775 H   0  0  0  0  0  0  0  0  0  0  0  0
    3.0533   27.4202   31.2649 H   0  0  0  0  0  0  0  0  0  0  0  0
    3.6446   18.7640   38.4814 H   0  0  0  0  0  0  0  0  0  0  0  0
    4.0750   17.3821   37.6375 H   0  0  0  0  0  0  0  0  0  0  0  0
    4.0442   16.1672   36.1702 H   0  0  0  0  0  0  0  0  0  0  0  0
    0.5744   29.5863   32.1623 H   0  0  0  0  0  0  0  0  0  0  0  0
   -0.4049   28.0920   32.6829 H   0  0  0  0  0  0  0  0  0  0  0  0
    1.9324   26.4360   34.7941 H   0  0  0  0  0  0  0  0  0  0  0  0
  1 16  1  0
  2 14  2  0
  4 27  1  0
  4  8  2  0
  6  5  1  0
  7 15  1  0
  8 13  1  0
 10  5  1  0
 10  9  1  0
 11 12  2  3
 12 23  1  0
 13  9  2  0
 13  3  1  0
 14 20  1  0
 14 30  1  0
 15 24  1  0
 16  4  1  0
 18 31  1  0
 19 11  1  0
 19 31  2  0
 20  6  1  0
 21  1  1  0
 22 23  2  0
 23 21  1  0
 24 17  1  0
 24 26  1  0
 24 29  1  0
 25  1  2  0
 26 19  1  0
 27 10  2  0
 28 20  2  3
 29 18  1  0
  5 32  1  0
  6 33  1  0
  6 34  1  0
  7 35  1  0
  7 36  1  0
  7 37  1  0
  8 38  1  0
  9 39  1  0
 11 40  1  0
 15 41  1  0
 15 42  1  0
 16 43  1  0
 17 44  1  0
 18 45  1  0
 18 46  1  0
 21 47  1  0
 21 48  1  0
 26 49  1  0
 26 50  1  0
 27 51  1  0
 28 52  1  0
 28 53  1  0
 29 54  1  0
 29 55  1  0
 31 56  1  0
M  CHG  1  30  -1
M  END
>  <mol_id>  (31) 
2026-09-16-6tgu-s0-n100-0031

>  <rmsd_to_ref>  (31) 


$$$$

     RDKit          3D

 46 47  0  0  0  0  0  0  0  0999 V2000
    2.5940   21.3450   36.9000 C   0  0  0  0  0  0  0  0  0  0  0  0
    0.9890   24.2890   32.9210 C   0  0  0  0  0  0  0  0  0  0  0  0
    2.3760   20.4020   40.2530 C   0  0  0  0  0  0  0  0  0  0  0  0
    1.8160   24.0630   34.1120 C   0  0  0  0  0  0  0  0  0  0  0  0
    3.1650   16.2950   37.7210 C   0  0  0  0  0  0  0  0  0  0  0  0
    3.0340   17.8100   37.9990 C   0  0  0  0  0  0  0  0  0  0  0  0
    3.5970   22.9950   32.3250 C   0  0  0  0  0  0  0  0  0  0  0  0
    3.2510   24.4160   31.8910 C   0  0  0  0  0  0  0  0  0  0  0  0
    2.6540   19.7910   38.9970 C   0  0  0  0  0  0  0  0  0  0  0  0
    3.8880   24.7650   30.5500 C   0  0  0  0  0  0  0  0  0  0  0  0
    2.7570   20.0140   37.5690 C   0  0  0  0  0  0  0  0  0  0  0  0
    4.1710   22.8600   33.6730 C   0  0  0  0  0  0  0  0  0  0  0  0
    4.4940   15.7610   37.2990 C   0  0  0  0  0  0  0  0  0  0  0  0
    2.7310   22.8970   34.6780 C   0  0  0  0  0  0  0  0  0  0  0  0
    3.1150   21.4900   35.5510 C   0  0  0  0  0  0  0  0  0  0  0  0
    2.7370   18.3530   39.1840 C   0  0  0  0  0  0  0  0  0  0  0  0
    1.5310   21.3930   40.5470 C   0  0  0  0  0  0  0  0  0  0  0  0
    1.7510   24.4520   31.6430 C   0  0  0  0  0  0  0  0  0  0  0  0
    3.0550   18.7810   36.9910 N   0  0  0  0  0  0  0  0  0  0  0  0
    2.0976   22.1826   37.4118 H   0  0  0  0  0  0  0  0  0  0  0  0
    0.3122   23.4293   32.8074 H   0  0  0  0  0  0  0  0  0  0  0  0
    0.4627   25.2403   33.0884 H   0  0  0  0  0  0  0  0  0  0  0  0
    2.9404   19.9981   41.1064 H   0  0  0  0  0  0  0  0  0  0  0  0
    2.5138   24.9126   34.0774 H   0  0  0  0  0  0  0  0  0  0  0  0
    0.9600   23.8099   34.7548 H   0  0  0  0  0  0  0  0  0  0  0  0
    2.8823   15.7695   38.6451 H   0  0  0  0  0  0  0  0  0  0  0  0
    2.5165   16.1239   36.8491 H   0  0  0  0  0  0  0  0  0  0  0  0
    4.3245   22.5900   31.6061 H   0  0  0  0  0  0  0  0  0  0  0  0
    2.6424   22.4491   32.3503 H   0  0  0  0  0  0  0  0  0  0  0  0
    3.6013   25.1118   32.6677 H   0  0  0  0  0  0  0  0  0  0  0  0
    4.8409   25.2871   30.7215 H   0  0  0  0  0  0  0  0  0  0  0  0
    4.0728   23.8422   29.9806 H   0  0  0  0  0  0  0  0  0  0  0  0
    3.2097   25.4175   29.9806 H   0  0  0  0  0  0  0  0  0  0  0  0
    4.7136   21.9097   33.7845 H   0  0  0  0  0  0  0  0  0  0  0  0
    4.9104   23.6350   33.9233 H   0  0  0  0  0  0  0  0  0  0  0  0
    5.0923   15.5206   38.1902 H   0  0  0  0  0  0  0  0  0  0  0  0
    4.3495   14.8511   36.6980 H   0  0  0  0  0  0  0  0  0  0  0  0
    5.0192   16.5179   36.6980 H   0  0  0  0  0  0  0  0  0  0  0  0
    1.9207   23.0937   35.3955 H   0  0  0  0  0  0  0  0  0  0  0  0
    3.7443   20.7060   35.1045 H   0  0  0  0  0  0  0  0  0  0  0  0
    1.7727   17.9648   39.5439 H   0  0  0  0  0  0  0  0  0  0  0  0
    3.5071   18.1030   39.9286 H   0  0  0  0  0  0  0  0  0  0  0  0
    1.4391   21.7479   41.5841 H   0  0  0  0  0  0  0  0  0  0  0  0
    0.9268   21.8546   39.7521 H   0  0  0  0  0  0  0  0  0  0  0  0
    1.4854   25.4172   31.1871 H   0  0  0  0  0  0  0  0  0  0  0  0
    1.4881   23.6215   30.9713 H   0  0  0  0  0  0  0  0  0  0  0  0
  1 11  1  0
  2  4  1  0
  3 17  2  3
  4 14  1  0
  5  6  1  0
  6 16  1  0
  7 12  1  0
  8 10  1  0
  8  7  1  0
  9 16  1  0
  9  3  1  0
 11  9  2  0
 12 14  1  0
 13  5  1  0
 14 15  1  0
 15  1  2  3
 18  8  1  0
 18  2  1  0
 19 11  1  0
 19  6  2  0
  1 20  1  0
  2 21  1  0
  2 22  1  0
  3 23  1  0
  4 24  1  0
  4 25  1  0
  5 26  1  0
  5 27  1  0
  7 28  1  0
  7 29  1  0
  8 30  1  0
 10 31  1  0
 10 32  1  0
 10 33  1  0
 12 34  1  0
 12 35  1  0
 13 36  1  0
 13 37  1  0
 13 38  1  0
 14 39  1  0
 15 40  1  0
 16 41  1  0
 16 42  1  0
 17 43  1  0
 17 44  1  0
 18 45  1  0
 18 46  1  0
M  END
>  <mol_id>  (32) 
2026-09-16-6tgu-s0-n100-0032

>  <rmsd_to_ref>  (32) 


$$$$

     RDKit          3D

 78 81  0  0  0  0  0  0  0  0999 V2000
    1.5370   23.4120   31.4090 N   0  0  0  0  0  4  0  0  0  0  0  0
    1.6710   26.0240   32.7310 C   0  0  0  0  0  0  0  0  0  0  0  0
    3.2080   18.0190   37.2090 C   0  0  0  0  0  0  0  0  0  0  0  0
    2.5820   18.9170   39.0460 C   0  0  0  0  0  0  0  0  0  0  0  0
    0.3090   24.9420   27.6080 C   0  0  0  0  0  0  0  0  0  0  0  0
    0.5540   20.7220   42.4510 C   0  0  0  0  0  0  0  0  0  0  0  0
    1.4830   24.6000   30.6650 C   0  0  0  0  0  0  0  0  0  0  0  0
    2.8370   20.5420   36.9730 C   0  0  0  0  0  0  0  0  0  0  0  0
    2.2550   27.2680   32.0090 C   0  0  0  0  0  0  0  0  0  0  0  0
    3.8290   22.8000   33.2290 O   0  0  0  0  0  0  0  0  0  0  0  0
    0.2440   26.2750   28.0670 C   0  0  0  0  0  0  0  0  0  0  0  0
    0.5810   15.6270   40.1240 O   0  0  0  0  0  0  0  0  0  0  0  0
    1.9310   15.6180   40.6050 S   0  0  0  0  0  4  0  0  0  0  0  0
    2.7510   17.6480   39.1450 N   0  0  0  0  0  0  0  0  0  0  0  0
    1.4320   25.5280   28.4920 C   0  0  0  0  0  0  0  0  0  0  0  0
    2.7890   24.6520   34.1460 C   0  0  0  0  0  0  0  0  0  0  0  0
    0.8940   21.2690   41.2780 C   0  0  0  0  0  0  0  0  0  0  0  0
    3.8220   20.9640   36.2770 C   0  0  0  0  0  0  0  0  0  0  0  0
    0.9320   23.1670   29.2360 N   0  0  0  0  0  4  0  0  0  0  0  0
    1.9750   20.8320   40.6300 C   0  0  0  0  0  0  0  0  0  0  0  0
    2.5580   26.6490   28.8310 C   0  0  0  0  0  0  0  0  0  0  0  0
    2.8160   14.6750   39.8390 O   0  0  0  0  0  0  0  0  0  0  0  0
    1.9980   18.3520   41.1620 C   0  0  0  0  0  0  0  0  0  0  0  0
    1.9080   25.8360   31.1850 C   0  0  0  0  0  0  0  0  0  0  0  0
    2.1920   19.4410   40.2850 C   0  0  0  0  0  0  0  0  0  0  0  0
    1.8320   24.9600   33.4580 C   0  0  0  0  0  0  0  0  0  0  0  0
    2.9140   19.2270   37.6350 C   0  0  0  0  0  0  0  0  0  0  0  0
    1.3920   24.3780   29.3820 C   0  0  0  0  0  0  0  0  0  0  0  0
   -0.5170   21.4060   43.1810 O   0  0  0  0  0  0  0  0  0  0  0  0
    2.9570   17.0940   38.1060 N   0  0  0  0  0  0  0  0  0  0  0  0
    1.8040   15.0270   41.9630 O   0  0  0  0  0  0  0  0  0  0  0  0
    2.6060   17.1960   40.4400 C   0  0  0  0  0  0  0  0  0  0  0  0
    0.9510   22.7540   30.5490 C   0  0  0  0  0  0  0  0  0  0  0  0
    3.2520   23.3130   34.3880 C   0  0  0  0  0  0  0  0  0  0  0  0
    2.4979   23.0861   31.5860 H   0  0  0  0  0  0  0  0  0  0  0  0
    1.1578   23.4155   32.3667 H   0  0  0  0  0  0  0  0  0  0  0  0
    1.0253   26.1603   33.6110 H   0  0  0  0  0  0  0  0  0  0  0  0
    2.6124   17.8079   36.3086 H   0  0  0  0  0  0  0  0  0  0  0  0
    4.2869   17.9935   36.9959 H   0  0  0  0  0  0  0  0  0  0  0  0
   -0.3756   24.1837   28.0158 H   0  0  0  0  0  0  0  0  0  0  0  0
    0.2636   24.4502   26.6251 H   0  0  0  0  0  0  0  0  0  0  0  0
    1.0458   19.8188   42.8414 H   0  0  0  0  0  0  0  0  0  0  0  0
    0.5378   25.0825   30.9543 H   0  0  0  0  0  0  0  0  0  0  0  0
    1.9326   21.1592   37.0781 H   0  0  0  0  0  0  0  0  0  0  0  0
    1.6341   28.1626   31.8538 H   0  0  0  0  0  0  0  0  0  0  0  0
    3.1377   27.9121   32.1354 H   0  0  0  0  0  0  0  0  0  0  0  0
    4.5463   22.1623   33.4718 H   0  0  0  0  0  0  0  0  0  0  0  0
    0.3577   27.0967   27.3446 H   0  0  0  0  0  0  0  0  0  0  0  0
   -0.5218   26.8392   28.6194 H   0  0  0  0  0  0  0  0  0  0  0  0
   -0.0431   15.6312   40.8925 H   0  0  0  0  0  0  0  0  0  0  0  0
    2.5767   25.0695   35.1413 H   0  0  0  0  0  0  0  0  0  0  0  0
    3.6072   25.0249   33.5123 H   0  0  0  0  0  0  0  0  0  0  0  0
    0.2834   22.0772   40.8491 H   0  0  0  0  0  0  0  0  0  0  0  0
    3.7658   21.9450   35.7825 H   0  0  0  0  0  0  0  0  0  0  0  0
    4.7261   20.3463   36.1723 H   0  0  0  0  0  0  0  0  0  0  0  0
   -0.0214   23.1630   28.8462 H   0  0  0  0  0  0  0  0  0  0  0  0
    1.4630   22.5732   28.5830 H   0  0  0  0  0  0  0  0  0  0  0  0
    2.0000   21.3851   39.6795 H   0  0  0  0  0  0  0  0  0  0  0  0
    2.7578   20.9906   41.3863 H   0  0  0  0  0  0  0  0  0  0  0  0
    2.6588   26.7493   29.9218 H   0  0  0  0  0  0  0  0  0  0  0  0
    3.5225   26.3418   28.4004 H   0  0  0  0  0  0  0  0  0  0  0  0
    2.2551   27.6148   28.4004 H   0  0  0  0  0  0  0  0  0  0  0  0
    3.3358   14.1211   40.4739 H   0  0  0  0  0  0  0  0  0  0  0  0
    2.5079   18.5263   42.1210 H   0  0  0  0  0  0  0  0  0  0  0  0
    0.9382   18.1887   41.4072 H   0  0  0  0  0  0  0  0  0  0  0  0
    1.0915   26.3422   30.6492 H   0  0  0  0  0  0  0  0  0  0  0  0
    0.9817   24.9705   34.1558 H   0  0  0  0  0  0  0  0  0  0  0  0
    1.9732   24.2298   32.6476 H   0  0  0  0  0  0  0  0  0  0  0  0
    3.9751   19.4045   37.8641 H   0  0  0  0  0  0  0  0  0  0  0  0
    2.1616   24.2827   28.6018 H   0  0  0  0  0  0  0  0  0  0  0  0
   -0.8205   21.0571   44.0564 H   0  0  0  0  0  0  0  0  0  0  0  0
    2.1283   16.5495   37.8274 H   0  0  0  0  0  0  0  0  0  0  0  0
    1.9550   15.7295   42.6441 H   0  0  0  0  0  0  0  0  0  0  0  0
    3.5558   16.9398   40.9321 H   0  0  0  0  0  0  0  0  0  0  0  0
   -0.0986   22.6821   30.8703 H   0  0  0  0  0  0  0  0  0  0  0  0
    1.5433   21.8282   30.5048 H   0  0  0  0  0  0  0  0  0  0  0  0
    2.4025   22.6802   34.6847 H   0  0  0  0  0  0  0  0  0  0  0  0
    4.0012   23.3262   35.1933 H   0  0  0  0  0  0  0  0  0  0  0  0
  2 26  1  0
  3 27  1  0
  3 30  1  0
  4 14  1  0
  4 25  2  0
  5 11  1  0
  5 15  1  0
  6 29  1  0
  7 24  1  0
  7  1  1  0
  9  2  1  0
 10 34  1  0
 11 15  1  0
 12 13  1  0
 13 31  1  0
 14 32  1  0
 15 21  1  0
 16 34  1  0
 17  6  2  3
 18  8  2  3
 19 28  1  0
 19 33  1  0
 20 17  1  0
 22 13  1  0
 24  9  1  0
 24  2  1  0
 25 20  1  0
 25 23  1  0
 26 16  1  0
 27  8  1  0
 27  4  1  0
 28 15  1  0
 28  7  1  0
 30 14  1  0
 32 13  1  0
 32 23  1  0
 33  1  1  0
  1 35  1  0
  1 36  1  0
  2 37  1  0
  3 38  1  0
  3 39  1  0
  5 40  1  0
  5 41  1  0
  6 42  1  0
  7 43  1  0
  8 44  1  0
  9 45  1  0
  9 46  1  0
 10 47  1  0
 11 48  1  0
 11 49  1  0
 12 50  1  0
 16 51  1  0
 16 52  1  0
 17 53  1  0
 18 54  1  0
 18 55  1  0
 19 56  1  0
 19 57  1  0
 20 58  1  0
 20 59  1  0
 21 60  1  0
 21 61  1  0
 21 62  1  0
 22 63  1  0
 23 64  1  0
 23 65  1  0
 24 66  1  0
 26 67  1  0
 26 68  1  0
 27 69  1  0
 28 70  1  0
 29 71  1  0
 30 72  1  0
 31 73  1  0
 32 74  1  0
 33 75  1  0
 33 76  1  0
 34 77  1  0
 34 78  1  0
M  CHG  2   1   1  19   1
M  END
>  <mol_id>  (33) 
2026-09-16-6tgu-s0-n100-0033

>  <rmsd_to_ref>  (33) 


$$$$

     RDKit          3D

 52 56  0  0  0  0  0  0  0  0999 V2000
    3.1660   23.7090   32.5470 C   0  0  0  0  0  0  0  0  0  0  0  0
    1.0340   27.2310   32.7380 O   0  0  0  0  0  0  0  0  0  0  0  0
    3.8460   11.8010   36.1170 C   0  0  0  0  0  0  0  0  0  0  0  0
    2.5620   17.3180   39.4090 C   0  0  0  0  0  0  0  0  0  0  0  0
    1.6610   26.0070   32.7160 C   0  0  0  0  0  0  0  0  0  0  0  0
    3.7790   24.3450   30.3100 O   0  0  0  0  0  0  0  0  0  0  0  0
    2.8250   21.4400   36.2280 C   0  0  0  0  0  0  0  0  0  0  0  0
    3.0680   24.5890   31.4660 C   0  0  0  0  0  0  0  0  0  0  0  0
    1.5830   20.4410   40.8290 C   0  0  0  0  0  0  0  0  0  0  0  0
    1.9870   21.5090   37.5880 S   0  0  0  0  0  0  0  0  0  0  0  0
    2.5210   22.7350   35.0060 S   0  0  0  0  0  0  0  0  0  0  0  0
    3.2970   11.6730   34.8550 C   0  0  0  0  0  0  0  0  0  0  0  0
    3.6680   15.8130   37.7060 C   0  0  0  0  0  0  0  0  0  0  0  0
    3.5310   20.3750   36.3220 N   0  0  0  0  0  0  0  0  0  0  0  0
    1.4300   18.7670   41.5660 S   0  0  0  0  0  0  0  0  0  0  0  0
    2.0510   19.9350   39.6020 N   0  0  0  0  0  0  0  0  0  0  0  0
    2.6550   18.6530   40.1220 C   0  0  0  0  0  0  0  0  0  0  0  0
    3.3300   19.6270   37.4650 C   0  0  0  0  0  0  0  0  0  0  0  0
    2.4520   23.9930   33.7530 C   0  0  0  0  0  0  0  0  0  0  0  0
    3.8360   18.3350   37.5520 N   0  0  0  0  0  0  0  0  0  0  0  0
    2.3420   12.5500   34.3740 C   0  0  0  0  0  0  0  0  0  0  0  0
    2.3020   25.7220   31.5240 C   0  0  0  0  0  0  0  0  0  0  0  0
    2.6430   13.9180   36.3550 C   0  0  0  0  0  0  0  0  0  0  0  0
    1.7320   25.1900   33.8230 C   0  0  0  0  0  0  0  0  0  0  0  0
    1.0490   21.3220   41.5220 N   0  0  0  0  0  0  0  0  0  0  0  0
    3.4100   12.9440   36.8090 C   0  0  0  0  0  0  0  0  0  0  0  0
    2.4860   20.2920   38.3180 C   0  0  0  0  0  0  0  0  0  0  0  0
    2.0310   13.7180   35.0720 C   0  0  0  0  0  0  0  0  0  0  0  0
    3.2240   17.2290   37.9690 C   0  0  0  0  0  0  0  0  0  0  0  0
    2.3970   15.1450   37.1000 C   0  0  0  0  0  0  0  0  0  0  0  0
    3.7876   22.8047   32.4709 H   0  0  0  0  0  0  0  0  0  0  0  0
    1.0056   27.7874   31.9196 H   0  0  0  0  0  0  0  0  0  0  0  0
    4.5573   11.0764   36.5400 H   0  0  0  0  0  0  0  0  0  0  0  0
    3.0491   16.5654   40.0465 H   0  0  0  0  0  0  0  0  0  0  0  0
    1.4870   17.1544   39.2426 H   0  0  0  0  0  0  0  0  0  0  0  0
    4.3422   23.5341   30.2371 H   0  0  0  0  0  0  0  0  0  0  0  0
    1.9936   20.8521   35.8118 H   0  0  0  0  0  0  0  0  0  0  0  0
    3.6310   10.8457   34.2116 H   0  0  0  0  0  0  0  0  0  0  0  0
    4.5044   15.7885   36.9920 H   0  0  0  0  0  0  0  0  0  0  0  0
    4.0337   15.3020   38.6088 H   0  0  0  0  0  0  0  0  0  0  0  0
    3.7533   18.6243   40.1751 H   0  0  0  0  0  0  0  0  0  0  0  0
    4.8150   18.2181   37.2540 H   0  0  0  0  0  0  0  0  0  0  0  0
    1.8219   12.3247   33.4313 H   0  0  0  0  0  0  0  0  0  0  0  0
    2.1996   26.3839   30.6514 H   0  0  0  0  0  0  0  0  0  0  0  0
    1.2255   25.4773   34.7562 H   0  0  0  0  0  0  0  0  0  0  0  0
    1.0693   22.3040   41.2119 H   0  0  0  0  0  0  0  0  0  0  0  0
    3.7476   13.0381   37.8517 H   0  0  0  0  0  0  0  0  0  0  0  0
    1.6363   19.7110   37.9302 H   0  0  0  0  0  0  0  0  0  0  0  0
    1.3384   14.4622   34.6520 H   0  0  0  0  0  0  0  0  0  0  0  0
    2.5378   17.3359   37.1160 H   0  0  0  0  0  0  0  0  0  0  0  0
    1.9227   15.8679   36.4200 H   0  0  0  0  0  0  0  0  0  0  0  0
    1.7605   14.8650   37.9523 H   0  0  0  0  0  0  0  0  0  0  0  0
  1 19  2  0
  3 26  2  0
  5  2  1  0
  5 24  2  0
  6  8  1  0
  7 11  1  0
  7 14  1  0
  7 10  1  0
  8 22  2  0
  8  1  1  0
  9 25  2  3
  9 15  1  0
 10 27  1  0
 12  3  1  0
 14 18  2  0
 16 17  1  0
 16  9  1  0
 17  4  1  0
 17 15  1  0
 18 20  1  0
 19 24  1  0
 19 11  1  0
 20 29  1  0
 21 12  2  0
 21 28  1  0
 22  5  1  0
 23 26  1  0
 23 30  1  0
 27 18  1  0
 27 16  1  0
 28 23  2  0
 29 13  1  0
 29  4  1  0
 30 13  1  0
  1 31  1  0
  2 32  1  0
  3 33  1  0
  4 34  1  0
  4 35  1  0
  6 36  1  0
  7 37  1  0
 12 38  1  0
 13 39  1  0
 13 40  1  0
 17 41  1  0
 20 42  1  0
 21 43  1  0
 22 44  1  0
 24 45  1  0
 25 46  1  0
 26 47  1  0
 27 48  1  0
 28 49  1  0
 29 50  1  0
 30 51  1  0
 30 52  1  0
M  END
>  <mol_id>  (34) 
2026-09-16-6tgu-s0-n100-0034

>  <rmsd_to_ref>  (34) 


$$$$

     RDKit          3D

 40 39  0  0  0  0  0  0  0  0999 V2000
    1.5400   22.0510   34.4530 C   0  0  0  0  0  0  0  0  0  0  0  0
    3.1150   18.0290   39.4140 C   0  0  0  0  0  0  0  0  0  0  0  0
    1.7500   20.2970   39.5750 C   0  0  0  0  0  0  0  0  0  0  0  0
    2.5670   21.1810   36.7500 C   0  0  0  0  0  0  0  0  0  0  0  0
    3.9820   23.1080   32.2920 C   0  0  0  0  0  0  0  0  0  0  0  0
    1.3610   22.9910   33.8160 C   0  0  0  0  0  0  0  0  0  0  0  0
    1.1580   21.2020   41.6340 C   0  0  0  0  0  0  0  0  0  0  0  0
    2.5040   22.0480   35.5210 C   0  0  0  0  0  0  0  0  0  0  0  0
    0.8810   21.2350   40.3050 C   0  0  0  0  0  0  0  0  0  0  0  0
    3.0660   19.5940   39.0660 C   0  0  0  0  0  0  0  0  0  0  0  0
    3.8980   21.7820   34.7300 C   0  0  0  0  0  0  0  0  0  0  0  0
    3.1240   19.5120   37.1410 S   0  0  0  0  0  0  0  0  0  0  0  0
    3.6050   21.7400   33.1250 C   0  0  0  0  0  0  0  0  0  0  0  0
    2.4110   16.6820   39.7670 C   0  0  0  0  0  0  0  0  0  0  0  0
    0.9641   21.1378   34.2423 H   0  0  0  0  0  0  0  0  0  0  0  0
    3.7960   18.0810   40.2763 H   0  0  0  0  0  0  0  0  0  0  0  0
    2.9309   17.8149   38.3509 H   0  0  0  0  0  0  0  0  0  0  0  0
    1.2733   19.3818   39.9559 H   0  0  0  0  0  0  0  0  0  0  0  0
    1.9954   21.1302   38.9000 H   0  0  0  0  0  0  0  0  0  0  0  0
    1.5180   21.1635   37.0807 H   0  0  0  0  0  0  0  0  0  0  0  0
    3.4731   21.6641   37.1445 H   0  0  0  0  0  0  0  0  0  0  0  0
    4.2055   23.9190   33.0008 H   0  0  0  0  0  0  0  0  0  0  0  0
    4.8621   22.9211   31.6592 H   0  0  0  0  0  0  0  0  0  0  0  0
    3.1304   23.3984   31.6592 H   0  0  0  0  0  0  0  0  0  0  0  0
    0.6192   22.9721   33.0040 H   0  0  0  0  0  0  0  0  0  0  0  0
    1.9316   23.9094   34.0184 H   0  0  0  0  0  0  0  0  0  0  0  0
    0.2249   21.3132   42.2059 H   0  0  0  0  0  0  0  0  0  0  0  0
    1.6305   20.2412   41.8863 H   0  0  0  0  0  0  0  0  0  0  0  0
    1.8430   22.0249   41.8863 H   0  0  0  0  0  0  0  0  0  0  0  0
    2.2154   22.9743   36.0394 H   0  0  0  0  0  0  0  0  0  0  0  0
    1.0480   22.2538   39.9254 H   0  0  0  0  0  0  0  0  0  0  0  0
   -0.1680   20.9413   40.1523 H   0  0  0  0  0  0  0  0  0  0  0  0
    3.8645   20.1843   39.5392 H   0  0  0  0  0  0  0  0  0  0  0  0
    4.6080   22.5920   34.9533 H   0  0  0  0  0  0  0  0  0  0  0  0
    4.3283   20.8223   35.0522 H   0  0  0  0  0  0  0  0  0  0  0  0
    2.5321   21.5432   32.9829 H   0  0  0  0  0  0  0  0  0  0  0  0
    4.2613   20.9545   32.7221 H   0  0  0  0  0  0  0  0  0  0  0  0
    2.3542   16.5734   40.8602 H   0  0  0  0  0  0  0  0  0  0  0  0
    1.3952   16.6775   39.3449 H   0  0  0  0  0  0  0  0  0  0  0  0
    2.9872   15.8455   39.3449 H   0  0  0  0  0  0  0  0  0  0  0  0
  2 14  1  0
  3  9  1  0
  4 12  1  0
  5 13  1  0
  6  1  2  3
  8  1  1  0
  8  4  1  0
  9  7  1  0
 10  2  1  0
 10  3  1  0
 11  8  1  0
 12 10  1  0
 13 11  1  0
  1 15  1  0
  2 16  1  0
  2 17  1  0
  3 18  1  0
  3 19  1  0
  4 20  1  0
  4 21  1  0
  5 22  1  0
  5 23  1  0
  5 24  1  0
  6 25  1  0
  6 26  1  0
  7 27  1  0
  7 28  1  0
  7 29  1  0
  8 30  1  0
  9 31  1  0
  9 32  1  0
 10 33  1  0
 11 34  1  0
 11 35  1  0
 13 36  1  0
 13 37  1  0
 14 38  1  0
 14 39  1  0
 14 40  1  0
M  END
>  <mol_id>  (35) 
2026-09-16-6tgu-s0-n100-0035

>  <rmsd_to_ref>  (35) 


$$$$

     RDKit          3D

 69 68  0  0  0  0  0  0  0  0999 V2000
    1.9310   21.7000   36.3420 O   0  0  0  0  0  1  0  0  0  0  0  0
    2.6260   22.0530   35.3870 C   0  0  0  0  0  0  0  0  0  0  0  0
    3.9020   15.1160   37.9860 O   0  0  0  0  0  0  0  0  0  0  0  0
    3.4890   17.4580   37.3030 C   0  0  0  0  0  0  0  0  0  0  0  0
    0.3160   27.9610   30.5090 F   0  0  0  0  0  0  0  0  0  0  0  0
    3.2840   19.3360   38.6080 C   0  0  0  0  0  0  0  0  0  0  0  0
    1.3120   27.3610   31.1810 C   0  0  0  0  0  0  0  0  0  0  0  0
    4.5080   16.3010   37.4730 C   0  0  0  0  0  0  0  0  0  0  0  0
    3.4830   21.3500   34.9370 O   0  0  0  0  0  0  0  0  0  0  0  0
    2.8760   11.8410   36.7160 C   0  0  0  0  0  0  0  0  0  0  0  0
    4.7610   13.9220   36.2780 O   0  0  0  0  0  0  0  0  0  0  0  0
    1.3340   27.3090   32.6200 C   0  0  0  0  0  0  0  0  0  0  0  0
    2.9390   13.0700   37.4810 O   0  0  0  0  0  0  0  0  0  0  0  0
    2.1510   10.5560   37.1030 C   0  0  0  0  0  0  0  0  0  0  0  0
    2.5950   24.9910   32.7370 C   0  0  0  0  0  0  0  0  0  0  0  0
    1.9810   26.5570   30.3430 C   0  0  0  0  0  0  0  0  0  0  0  0
    0.9430   17.2330   42.1430 O   0  0  0  0  0  0  0  0  0  0  0  0
    3.2560   18.0650   38.6070 O   0  0  0  0  0  0  0  0  0  0  0  0
    1.6960   26.0500   33.2490 C   0  0  0  0  0  0  0  0  0  0  0  0
    0.5430   19.6120   42.3080 C   0  0  0  0  0  0  0  0  0  0  0  0
    3.7620   20.1770   38.0560 O   0  0  0  0  0  0  0  0  0  0  0  0
    2.1190   20.0730   40.0860 C   0  0  0  0  0  0  0  0  0  0  0  0
    2.5320   23.5220   34.9760 C   0  0  0  0  0  0  0  0  0  0  0  0
    1.7650   13.3450   34.9300 O   0  0  0  0  0  0  0  0  0  0  0  0
    2.8130   25.7440   30.4860 C   0  0  0  0  0  0  0  0  0  0  0  0
    2.6440   23.7040   33.4970 C   0  0  0  0  0  0  0  0  0  0  0  0
    3.9270   14.0320   37.1530 C   0  0  0  0  0  0  0  0  0  0  0  0
    3.8650   25.5880   29.0770 S   0  0  0  0  0  0  0  0  0  0  0  0
    3.5980   25.5480   31.7120 C   0  0  0  0  0  0  0  0  0  0  0  0
    1.1240   18.5740   41.6630 C   0  0  0  0  0  0  0  0  0  0  0  0
    2.4750   12.1530   35.2400 C   0  0  0  0  0  0  0  0  0  0  0  0
    0.7520   20.8530   41.7830 C   0  0  0  0  0  0  0  0  0  0  0  0
    1.9450   18.7760   40.5130 C   0  0  0  0  0  0  0  0  0  0  0  0
    1.5240   21.1670   40.6870 C   0  0  0  0  0  0  0  0  0  0  0  0
    4.8860   24.8010   31.7700 C   0  0  0  0  0  0  0  0  0  0  0  0
    3.8943   18.2105   36.6106 H   0  0  0  0  0  0  0  0  0  0  0  0
    2.5443   17.0708   36.8936 H   0  0  0  0  0  0  0  0  0  0  0  0
    2.6321   19.7277   39.4028 H   0  0  0  0  0  0  0  0  0  0  0  0
    4.9529   16.0748   36.4928 H   0  0  0  0  0  0  0  0  0  0  0  0
    5.2708   16.6281   38.1949 H   0  0  0  0  0  0  0  0  0  0  0  0
    3.9037   11.5342   36.9605 H   0  0  0  0  0  0  0  0  0  0  0  0
    2.0538   28.0662   32.9643 H   0  0  0  0  0  0  0  0  0  0  0  0
    0.2885   27.4760   32.9183 H   0  0  0  0  0  0  0  0  0  0  0  0
    2.1060   10.4763   38.1992 H   0  0  0  0  0  0  0  0  0  0  0  0
    1.1298   10.5739   36.6945 H   0  0  0  0  0  0  0  0  0  0  0  0
    2.6943    9.6912   36.6945 H   0  0  0  0  0  0  0  0  0  0  0  0
    2.3081   24.1884   32.0416 H   0  0  0  0  0  0  0  0  0  0  0  0
    1.6846   26.6889   29.2919 H   0  0  0  0  0  0  0  0  0  0  0  0
    1.3694   16.4757   41.6688 H   0  0  0  0  0  0  0  0  0  0  0  0
    2.1330   26.3398   34.2160 H   0  0  0  0  0  0  0  0  0  0  0  0
    0.7381   25.5244   33.1217 H   0  0  0  0  0  0  0  0  0  0  0  0
   -0.0674   19.4622   43.2107 H   0  0  0  0  0  0  0  0  0  0  0  0
    2.7690   20.2494   39.2163 H   0  0  0  0  0  0  0  0  0  0  0  0
    1.5629   23.9216   35.3095 H   0  0  0  0  0  0  0  0  0  0  0  0
    3.3698   24.0578   35.4460 H   0  0  0  0  0  0  0  0  0  0  0  0
    1.4960   13.7966   35.7690 H   0  0  0  0  0  0  0  0  0  0  0  0
    2.0878   24.9301   30.6335 H   0  0  0  0  0  0  0  0  0  0  0  0
    1.8297   23.0963   33.0755 H   0  0  0  0  0  0  0  0  0  0  0  0
    3.7115   23.4694   33.3732 H   0  0  0  0  0  0  0  0  0  0  0  0
    5.1569   25.3964   29.4907 H   0  0  0  0  0  0  0  0  0  0  0  0
    4.0362   26.5414   31.8882 H   0  0  0  0  0  0  0  0  0  0  0  0
    1.8513   11.3144   34.8970 H   0  0  0  0  0  0  0  0  0  0  0  0
    3.4446   12.3013   34.7421 H   0  0  0  0  0  0  0  0  0  0  0  0
    0.2510   21.6918   42.2884 H   0  0  0  0  0  0  0  0  0  0  0  0
    2.4183   17.9316   39.9905 H   0  0  0  0  0  0  0  0  0  0  0  0
    1.6557   22.1963   40.3221 H   0  0  0  0  0  0  0  0  0  0  0  0
    5.1680   24.6374   32.8206 H   0  0  0  0  0  0  0  0  0  0  0  0
    4.7698   23.8301   31.2661 H   0  0  0  0  0  0  0  0  0  0  0  0
    5.6710   25.3840   31.2661 H   0  0  0  0  0  0  0  0  0  0  0  0
  2  1  1  0
  4  8  1  0
  4 18  1  0
  5  7  1  0
  7 12  1  0
  8  3  1  0
  9  2  2  0
 10 14  1  0
 10 13  1  0
 11 27  2  0
 12 19  1  0
 15 19  1  0
 15 26  1  0
 16 25  1  0
 16  7  2  0
 18  6  1  0
 21  6  2  0
 22 33  2  0
 22 34  1  0
 23  2  1  0
 24 31  1  0
 25 28  1  0
 25 29  1  0
 26 23  1  0
 27 13  1  0
 27  3  1  0
 29 35  1  0
 29 15  1  0
 30 17  1  0
 30 20  2  0
 31 10  1  0
 32 20  1  0
 33 30  1  0
 34 32  2  0
  4 36  1  0
  4 37  1  0
  6 38  1  0
  8 39  1  0
  8 40  1  0
 10 41  1  0
 12 42  1  0
 12 43  1  0
 14 44  1  0
 14 45  1  0
 14 46  1  0
 15 47  1  0
 16 48  1  0
 17 49  1  0
 19 50  1  0
 19 51  1  0
 20 52  1  0
 22 53  1  0
 23 54  1  0
 23 55  1  0
 24 56  1  0
 25 57  1  0
 26 58  1  0
 26 59  1  0
 28 60  1  0
 29 61  1  0
 31 62  1  0
 31 63  1  0
 32 64  1  0
 33 65  1  0
 34 66  1  0
 35 67  1  0
 35 68  1  0
 35 69  1  0
M  CHG  1   1  -1
M  END
>  <mol_id>  (36) 
2026-09-16-6tgu-s0-n100-0036

>  <rmsd_to_ref>  (36) 


$$$$

     RDKit          3D

 44 45  0  0  0  0  0  0  0  0999 V2000
    3.3470   18.4490   38.3540 C   0  0  0  0  0  0  0  0  0  0  0  0
    2.2830   20.0820   39.8030 C   0  0  0  0  0  0  0  0  0  0  0  0
    2.7340   16.5740   39.1130 C   0  0  0  0  0  0  0  0  0  0  0  0
    1.8260   26.2630   32.0140 C   0  0  0  0  0  0  0  0  0  0  0  0
    3.7350   21.2580   34.7220 C   0  0  0  0  0  0  0  0  0  0  0  0
    1.9450   21.1530   38.9290 C   0  0  0  0  0  0  0  0  0  0  0  0
    4.0540   16.3880   37.0150 C   0  0  0  0  0  0  0  0  0  0  0  0
    3.6360   19.3200   37.2480 N   0  0  0  0  0  0  0  0  0  0  0  0
    1.6020   26.3040   33.3590 C   0  0  0  0  0  0  0  0  0  0  0  0
    3.2540   20.5260   36.9500 C   0  0  0  0  0  0  0  0  0  0  0  0
    3.9180   17.2220   38.2840 C   0  0  0  0  0  0  0  0  0  0  0  0
    3.0180   25.9590   29.7520 C   0  0  0  0  0  0  0  0  0  0  0  0
    1.1380   27.4400   34.0140 C   0  0  0  0  0  0  0  0  0  0  0  0
    2.3580   21.2220   37.7110 C   0  0  0  0  0  0  0  0  0  0  0  0
    1.8120   25.1500   34.3760 C   0  0  0  0  0  0  0  0  0  0  0  0
    1.7540   25.7410   30.6950 C   0  0  0  0  0  0  0  0  0  0  0  0
    2.9110   18.9730   39.4470 C   0  0  0  0  0  0  0  0  0  0  0  0
    4.1350   21.1450   36.0440 N   0  0  0  0  0  0  0  0  0  0  0  0
    2.5590   17.5530   40.2890 S   0  0  0  0  0  0  0  0  0  0  0  0
    2.5990   23.6330   34.7440 C   0  0  0  0  0  0  0  0  0  0  0  0
    2.1640   15.2090   38.4730 O   0  0  0  0  0  0  0  0  0  0  0  0
    3.7110   22.5930   33.7250 S   0  0  0  0  0  0  0  0  0  0  0  0
    2.3223   18.0614   38.2556 H   0  0  0  0  0  0  0  0  0  0  0  0
    2.9086   20.5323   40.5878 H   0  0  0  0  0  0  0  0  0  0  0  0
    1.2813   19.6794   40.0140 H   0  0  0  0  0  0  0  0  0  0  0  0
    4.3662   20.5334   34.1867 H   0  0  0  0  0  0  0  0  0  0  0  0
    2.6506   21.1802   34.8895 H   0  0  0  0  0  0  0  0  0  0  0  0
    1.3014   21.9590   39.3113 H   0  0  0  0  0  0  0  0  0  0  0  0
    4.2256   15.3355   37.2846 H   0  0  0  0  0  0  0  0  0  0  0  0
    3.1308   16.4689   36.4224 H   0  0  0  0  0  0  0  0  0  0  0  0
    4.9037   16.7580   36.4224 H   0  0  0  0  0  0  0  0  0  0  0  0
    4.9869   17.2722   38.5388 H   0  0  0  0  0  0  0  0  0  0  0  0
    3.9145   26.1136   30.3704 H   0  0  0  0  0  0  0  0  0  0  0  0
    3.1591   25.0719   29.1170 H   0  0  0  0  0  0  0  0  0  0  0  0
    2.8538   26.8421   29.1170 H   0  0  0  0  0  0  0  0  0  0  0  0
    1.2003   27.2874   35.1016 H   0  0  0  0  0  0  0  0  0  0  0  0
    1.7548   28.3051   33.7292 H   0  0  0  0  0  0  0  0  0  0  0  0
    0.0919   27.6259   33.7292 H   0  0  0  0  0  0  0  0  0  0  0  0
    1.8740   22.0349   37.1499 H   0  0  0  0  0  0  0  0  0  0  0  0
    1.1921   25.3949   35.2511 H   0  0  0  0  0  0  0  0  0  0  0  0
    0.8604   25.2073   30.3392 H   0  0  0  0  0  0  0  0  0  0  0  0
    3.6110   19.8056   39.6108 H   0  0  0  0  0  0  0  0  0  0  0  0
    5.0495   21.5033   36.3541 H   0  0  0  0  0  0  0  0  0  0  0  0
    2.3932   23.2391   35.7502 H   0  0  0  0  0  0  0  0  0  0  0  0
  1  8  1  0
  1 17  1  0
  3 19  1  0
  4  9  2  0
  5 18  1  0
  6  2  1  0
  9 13  1  0
  9 15  1  0
 10  8  2  0
 10 14  1  0
 11  7  1  0
 11  1  1  0
 11  3  1  0
 12 16  1  0
 14  6  2  0
 15 20  2  3
 16  4  2  0
 17  2  1  0
 17 19  1  0
 18 10  1  0
 21  3  2  0
 22  5  1  0
 22 20  1  0
  1 23  1  0
  2 24  1  0
  2 25  1  0
  5 26  1  0
  5 27  1  0
  6 28  1  0
  7 29  1  0
  7 30  1  0
  7 31  1  0
 11 32  1  0
 12 33  1  0
 12 34  1  0
 12 35  1  0
 13 36  1  0
 13 37  1  0
 13 38  1  0
 14 39  1  0
 15 40  1  0
 16 41  1  0
 17 42  1  0
 18 43  1  0
 20 44  1  0
M  END
>  <mol_id>  (37) 
2026-09-16-6tgu-s0-n100-0037

>  <rmsd_to_ref>  (37) 


$$$$

     RDKit          3D

 37 38  0  0  0  0  0  0  0  0999 V2000
    1.5700   24.8310   30.1230 C   0  0  0  0  0  0  0  0  0  0  0  0
    1.4750   18.6080   41.8610 Cl  0  0  0  0  0  0  0  0  0  0  0  0
    2.9310   22.4790   34.3790 C   0  0  0  0  0  0  0  0  0  0  0  0
    2.4160   19.9630   39.6970 C   0  0  0  0  0  0  0  0  0  0  0  0
    3.3600   20.3650   37.2300 C   0  0  0  0  0  0  0  0  0  0  0  0
    2.1890   18.6360   40.3030 C   0  0  0  0  0  0  0  0  0  0  0  0
    3.1750   19.8840   38.3690 C   0  0  0  0  0  0  0  0  0  0  0  0
    1.9270   24.4760   33.0270 C   0  0  0  0  0  0  0  0  0  0  0  0
    1.6360   22.6330   35.0610 O   0  0  0  0  0  1  0  0  0  0  0  0
    3.2430   16.5000   37.6440 O   0  0  0  0  0  0  0  0  0  0  0  0
    2.7890   24.0630   29.5340 C   0  0  0  0  0  0  0  0  0  0  0  0
    2.3000   25.4480   31.5300 S   0  0  0  0  0  4  0  0  0  0  0  0
    3.8680   21.9610   34.6840 O   0  0  0  0  0  0  0  0  0  0  0  0
    4.4080   23.5150   33.1560 O   0  0  0  0  0  0  0  0  0  0  0  0
    4.0480   24.6230   30.8630 S   0  0  0  0  0  0  0  0  0  0  0  0
    3.3390   18.7830   37.7350 C   0  0  0  0  0  0  0  0  0  0  0  0
    3.0200   17.5880   38.3150 C   0  0  0  0  0  0  0  0  0  0  0  0
    2.5420   16.3260   40.1550 O   0  0  0  0  0  0  0  0  0  0  0  0
    2.9380   15.2930   38.0320 N   0  0  0  0  0  0  0  0  0  0  0  0
    2.9680   23.5160   33.2440 C   0  0  0  0  0  0  0  0  0  0  0  0
    2.6500   17.4730   39.5920 C   0  0  0  0  0  0  0  0  0  0  0  0
    2.4750   21.2380   36.8640 O   0  0  0  0  0  0  0  0  0  0  0  0
    0.7311   24.1582   30.3545 H   0  0  0  0  0  0  0  0  0  0  0  0
    1.1161   25.5802   29.4577 H   0  0  0  0  0  0  0  0  0  0  0  0
    2.0768   20.9062   40.1501 H   0  0  0  0  0  0  0  0  0  0  0  0
    4.0126   20.8784   36.5085 H   0  0  0  0  0  0  0  0  0  0  0  0
    0.9679   23.9536   32.8956 H   0  0  0  0  0  0  0  0  0  0  0  0
    1.8618   25.1490   33.8947 H   0  0  0  0  0  0  0  0  0  0  0  0
    2.6392   22.9733   29.5241 H   0  0  0  0  0  0  0  0  0  0  0  0
    3.0473   24.2651   28.4840 H   0  0  0  0  0  0  0  0  0  0  0  0
    2.0771   26.7576   31.8650 H   0  0  0  0  0  0  0  0  0  0  0  0
    4.7943   23.5147   34.0675 H   0  0  0  0  0  0  0  0  0  0  0  0
    2.2659   16.2643   41.1037 H   0  0  0  0  0  0  0  0  0  0  0  0
    2.9285   15.2553   39.0613 H   0  0  0  0  0  0  0  0  0  0  0  0
    2.0069   15.0412   37.6706 H   0  0  0  0  0  0  0  0  0  0  0  0
    2.4995   23.5253   32.2488 H   0  0  0  0  0  0  0  0  0  0  0  0
    2.0620   21.6454   37.6662 H   0  0  0  0  0  0  0  0  0  0  0  0
  1 12  1  0
  3 13  2  0
  3  9  1  0
  4  6  2  0
  5 22  1  0
  5 16  1  0
  5  7  1  0
  6  2  1  0
  7  4  1  0
  8 20  1  0
 10 19  1  0
 10 17  1  0
 11  1  1  0
 11 15  1  0
 12  8  1  0
 15 12  1  0
 16 17  1  0
 16  7  2  0
 17 21  2  0
 20 14  1  0
 20  3  1  0
 21 18  1  0
 21  6  1  0
  1 23  1  0
  1 24  1  0
  4 25  1  0
  5 26  1  0
  8 27  1  0
  8 28  1  0
 11 29  1  0
 11 30  1  0
 12 31  1  0
 14 32  1  0
 18 33  1  0
 19 34  1  0
 19 35  1  0
 20 36  1  0
 22 37  1  0
M  CHG  1   9  -1
M  END
>  <mol_id>  (38) 
2026-09-16-6tgu-s0-n100-0038

>  <rmsd_to_ref>  (38) 


$$$$

     RDKit          3D

 54 57  0  0  0  0  0  0  0  0999 V2000
    2.9760   25.3900   29.7060 C   0  0  0  0  0  0  0  0  0  0  0  0
    4.7980   16.0340   37.1800 S   0  0  0  0  0  0  0  0  0  0  0  0
    2.4740   18.5420   39.4040 C   0  0  0  0  0  0  0  0  0  0  0  0
    3.1910   17.3690   38.9240 N   0  0  0  0  0  0  0  0  0  0  0  0
    1.3480   27.2640   29.5530 C   0  0  0  0  0  0  0  0  0  0  0  0
   -0.0090   18.3090   42.1710 C   0  0  0  0  0  0  0  0  0  0  0  0
    2.8980   21.6300   35.8250 C   0  0  0  0  0  0  0  0  0  0  0  0
   -0.4130   19.6370   42.1870 C   0  0  0  0  0  0  0  0  0  0  0  0
    1.9000   15.2330   39.1940 C   0  0  0  0  0  0  0  0  0  0  0  0
    0.0980   20.5140   41.3360 C   0  0  0  0  0  0  0  0  0  0  0  0
    4.0870   24.3220   29.1460 C   0  0  0  0  0  0  0  0  0  0  0  0
    1.5550   18.7740   40.4280 C   0  0  0  0  0  0  0  0  0  0  0  0
    0.5910   27.8780   30.1340 C   0  0  0  0  0  0  0  0  0  0  0  0
    3.9400   23.2890   32.3010 C   0  0  0  0  0  0  0  0  0  0  0  0
    4.0060   18.4260   36.8800 N   0  0  0  0  0  0  0  0  0  0  0  0
    2.7860   22.1270   34.3270 C   0  0  0  0  0  0  0  0  0  0  0  0
    1.8320   20.8910   39.1880 S   0  0  0  0  0  0  0  0  0  0  0  0
    3.9450   17.3580   37.7140 C   0  0  0  0  0  0  0  0  0  0  0  0
    3.9390   23.7000   31.2330 C   0  0  0  0  0  0  0  0  0  0  0  0
    3.1140   16.0060   39.5450 C   0  0  0  0  0  0  0  0  0  0  0  0
    3.4680   22.8860   33.5320 C   0  0  0  0  0  0  0  0  0  0  0  0
    3.8730   21.9480   34.5240 C   0  0  0  0  0  0  0  0  0  0  0  0
    2.4120   26.5710   28.8150 C   0  0  0  0  0  0  0  0  0  0  0  0
    1.0470   17.8360   41.3890 C   0  0  0  0  0  0  0  0  0  0  0  0
    3.9260   24.5350   30.2640 C   0  0  0  0  0  0  0  0  0  0  0  0
    3.7980   20.7930   36.5890 N   0  0  0  0  0  0  0  0  0  0  0  0
    1.0930   20.0790   40.4920 C   0  0  0  0  0  0  0  0  0  0  0  0
    2.7060   19.6360   38.6190 C   0  0  0  0  0  0  0  0  0  0  0  0
    3.5130   19.5870   37.3450 C   0  0  0  0  0  0  0  0  0  0  0  0
    2.3324   24.6022   29.2875 H   0  0  0  0  0  0  0  0  0  0  0  0
    3.3172   26.1554   30.4186 H   0  0  0  0  0  0  0  0  0  0  0  0
   -0.5486   17.5921   42.8073 H   0  0  0  0  0  0  0  0  0  0  0  0
    1.9274   21.1369   35.9825 H   0  0  0  0  0  0  0  0  0  0  0  0
    3.3355   22.5713   36.1891 H   0  0  0  0  0  0  0  0  0  0  0  0
   -1.1679   19.9655   42.9165 H   0  0  0  0  0  0  0  0  0  0  0  0
    1.3922   14.9097   40.1147 H   0  0  0  0  0  0  0  0  0  0  0  0
    1.2208   15.8653   38.6033 H   0  0  0  0  0  0  0  0  0  0  0  0
    2.1855   14.3501   38.6033 H   0  0  0  0  0  0  0  0  0  0  0  0
   -0.2607   21.5534   41.3054 H   0  0  0  0  0  0  0  0  0  0  0  0
    4.7466   23.4493   29.0303 H   0  0  0  0  0  0  0  0  0  0  0  0
    3.1177   24.1148   28.6689 H   0  0  0  0  0  0  0  0  0  0  0  0
    4.5507   25.1980   28.6689 H   0  0  0  0  0  0  0  0  0  0  0  0
   -0.1428   28.4732   30.6972 H   0  0  0  0  0  0  0  0  0  0  0  0
    1.7419   22.0520   33.9889 H   0  0  0  0  0  0  0  0  0  0  0  0
    3.9928   15.4306   39.2184 H   0  0  0  0  0  0  0  0  0  0  0  0
    3.0787   16.1622   40.6333 H   0  0  0  0  0  0  0  0  0  0  0  0
    3.3633   23.8887   33.0920 H   0  0  0  0  0  0  0  0  0  0  0  0
    4.3281   22.2999   35.4616 H   0  0  0  0  0  0  0  0  0  0  0  0
    4.5270   21.0637   34.5397 H   0  0  0  0  0  0  0  0  0  0  0  0
    2.0050   26.1634   27.8779 H   0  0  0  0  0  0  0  0  0  0  0  0
    3.2216   27.2779   28.5810 H   0  0  0  0  0  0  0  0  0  0  0  0
    1.4583   16.8219   41.5008 H   0  0  0  0  0  0  0  0  0  0  0  0
    4.6186   24.8285   31.0666 H   0  0  0  0  0  0  0  0  0  0  0  0
    4.7822   21.0966   36.5976 H   0  0  0  0  0  0  0  0  0  0  0  0
  1 25  1  0
  2 18  2  0
  3 12  1  0
  4  3  1  0
  4 20  1  0
  5 13  3  0
  6  8  1  0
  7 26  1  0
  9 20  1  0
 10  8  2  0
 12 27  2  0
 12 24  1  0
 15 29  2  0
 15 18  1  0
 16 22  1  0
 16  7  1  0
 17 27  1  0
 18  4  1  0
 19 14  3  0
 21 14  1  0
 21 16  1  0
 21 22  1  0
 23  5  1  0
 23  1  1  0
 24  6  2  0
 25 11  1  0
 25 19  1  0
 26 29  1  0
 27 10  1  0
 28 17  1  0
 28  3  2  0
 29 28  1  0
  1 30  1  0
  1 31  1  0
  6 32  1  0
  7 33  1  0
  7 34  1  0
  8 35  1  0
  9 36  1  0
  9 37  1  0
  9 38  1  0
 10 39  1  0
 11 40  1  0
 11 41  1  0
 11 42  1  0
 13 43  1  0
 16 44  1  0
 20 45  1  0
 20 46  1  0
 21 47  1  0
 22 48  1  0
 22 49  1  0
 23 50  1  0
 23 51  1  0
 24 52  1  0
 25 53  1  0
 26 54  1  0
M  END
>  <mol_id>  (39) 
2026-09-16-6tgu-s0-n100-0039

>  <rmsd_to_ref>  (39) 


$$$$

     RDKit          3D

 80 83  0  0  0  0  0  0  0  0999 V2000
    1.3050   27.9280   31.5010 C   0  0  0  0  0  0  0  0  0  0  0  0
    4.5330   23.0240   32.7440 C   0  0  0  0  0  0  0  0  0  0  0  0
    4.7440   15.2760   37.0480 C   0  0  0  0  0  0  0  0  0  0  0  0
    1.9000   18.1710   40.4140 C   0  0  0  0  0  0  0  0  0  0  0  0
    2.9500   19.7440   37.9320 C   0  0  0  0  0  0  0  0  0  0  0  0
    2.3530   15.7100   40.2720 C   0  0  0  0  0  0  0  0  0  0  0  0
    2.7520   16.4060   38.1710 C   0  0  0  0  0  0  0  0  0  0  0  0
    1.7970   16.1750   41.9590 S   0  0  0  0  0  0  0  0  0  0  0  0
    2.7110   14.1560   37.0920 C   0  0  0  0  0  0  0  0  0  0  0  0
    3.8420   22.0350   33.6800 C   0  0  0  0  0  0  0  0  0  0  0  0
    5.0520   24.1720   32.0440 C   0  0  0  0  0  0  0  0  0  0  0  0
    1.9080   23.0770   32.7780 C   0  0  0  0  0  0  0  0  0  0  0  0
    0.2550   19.9470   41.9870 C   0  0  0  0  0  0  0  0  0  0  0  0
    3.9300   24.4440   32.6430 C   0  0  0  0  0  0  0  0  0  0  0  0
    2.4680   20.0540   39.1200 N   0  0  0  0  0  0  0  0  0  0  0  0
    3.3460   25.2030   29.9960 C   0  0  0  0  0  0  0  0  0  0  0  0
    3.5230   15.1230   37.9580 C   0  0  0  0  0  0  0  0  0  0  0  0
    1.0060   20.4270   40.8850 C   0  0  0  0  0  0  0  0  0  0  0  0
    1.3220   26.7140   31.3390 C   0  0  0  0  0  0  0  0  0  0  0  0
    4.1390   26.2450   30.3370 O   0  0  0  0  0  0  0  0  0  0  0  0
    2.5750   16.8980   39.6600 C   0  0  0  0  0  0  0  0  0  0  0  0
   -0.2080   18.1430   43.3210 N   0  0  0  0  0  0  0  0  0  0  0  0
    0.4310   18.5960   42.3520 C   0  0  0  0  0  0  0  0  0  0  0  0
    0.8520   24.6650   29.9870 S   0  0  0  0  0  0  0  0  0  0  0  0
    3.6160   13.5390   36.2630 O   0  0  0  0  0  0  0  0  0  0  0  0
    2.5820   22.7260   34.0060 C   0  0  0  0  0  0  0  0  0  0  0  0
    1.2740   26.3140   29.9670 C   0  0  0  0  0  0  0  0  0  0  0  0
    2.6010   24.1880   32.1430 N   0  0  0  0  0  0  0  0  0  0  0  0
    1.7980   19.6310   40.0950 C   0  0  0  0  0  0  0  0  0  0  0  0
    2.4130   24.2830   30.6640 C   0  0  0  0  0  0  0  0  0  0  0  0
    2.0330   20.9460   38.2420 C   0  0  0  0  0  0  0  0  0  0  0  0
    1.3630   17.7840   41.5690 C   0  0  0  0  0  0  0  0  0  0  0  0
    1.3780   27.2830   28.9400 C   0  0  0  0  0  0  0  0  0  0  0  0
    4.3530   24.3380   29.0810 C   0  0  0  0  0  0  0  0  0  0  0  0
    5.5670   16.4870   37.2340 O   0  0  0  0  0  0  0  0  0  0  0  0
    1.3018   28.1543   32.5775 H   0  0  0  0  0  0  0  0  0  0  0  0
    2.1970   28.3726   31.0355 H   0  0  0  0  0  0  0  0  0  0  0  0
    0.4009   28.3474   31.0355 H   0  0  0  0  0  0  0  0  0  0  0  0
    5.4204   23.0192   33.3940 H   0  0  0  0  0  0  0  0  0  0  0  0
    4.3858   15.2740   36.0079 H   0  0  0  0  0  0  0  0  0  0  0  0
    5.4048   14.4367   37.3106 H   0  0  0  0  0  0  0  0  0  0  0  0
    2.5706   18.8723   37.3786 H   0  0  0  0  0  0  0  0  0  0  0  0
    3.9381   19.5763   37.4787 H   0  0  0  0  0  0  0  0  0  0  0  0
    3.2766   15.1141   40.3153 H   0  0  0  0  0  0  0  0  0  0  0  0
    1.6160   15.0910   39.7394 H   0  0  0  0  0  0  0  0  0  0  0  0
    3.2732   17.2017   37.6186 H   0  0  0  0  0  0  0  0  0  0  0  0
    1.7327   16.1878   37.8197 H   0  0  0  0  0  0  0  0  0  0  0  0
    2.2023   13.4126   37.7233 H   0  0  0  0  0  0  0  0  0  0  0  0
    1.9342   14.6835   36.5190 H   0  0  0  0  0  0  0  0  0  0  0  0
    3.6501   21.0774   33.1740 H   0  0  0  0  0  0  0  0  0  0  0  0
    4.4420   21.7792   34.5657 H   0  0  0  0  0  0  0  0  0  0  0  0
    5.9739   24.6420   32.4170 H   0  0  0  0  0  0  0  0  0  0  0  0
    5.3651   24.3023   30.9976 H   0  0  0  0  0  0  0  0  0  0  0  0
    1.9066   22.2106   32.1003 H   0  0  0  0  0  0  0  0  0  0  0  0
    0.8717   23.3711   33.0005 H   0  0  0  0  0  0  0  0  0  0  0  0
   -0.4376   20.6021   42.5358 H   0  0  0  0  0  0  0  0  0  0  0  0
    3.6927   25.3778   33.1738 H   0  0  0  0  0  0  0  0  0  0  0  0
    2.4539   25.8097   29.7813 H   0  0  0  0  0  0  0  0  0  0  0  0
    3.7667   14.8044   38.9823 H   0  0  0  0  0  0  0  0  0  0  0  0
    0.9511   21.5000   40.6489 H   0  0  0  0  0  0  0  0  0  0  0  0
    2.2468   26.3177   31.7836 H   0  0  0  0  0  0  0  0  0  0  0  0
    0.4179   26.3138   31.8211 H   0  0  0  0  0  0  0  0  0  0  0  0
    4.1899   26.3119   31.3234 H   0  0  0  0  0  0  0  0  0  0  0  0
    3.4042   17.6191   39.7099 H   0  0  0  0  0  0  0  0  0  0  0  0
   -0.0908   17.1586   43.6003 H   0  0  0  0  0  0  0  0  0  0  0  0
   -0.8535   18.7530   43.8427 H   0  0  0  0  0  0  0  0  0  0  0  0
    4.2988   13.0735   36.8081 H   0  0  0  0  0  0  0  0  0  0  0  0
    1.9400   22.0609   34.6022 H   0  0  0  0  0  0  0  0  0  0  0  0
    2.7959   23.6358   34.5861 H   0  0  0  0  0  0  0  0  0  0  0  0
    1.8208   26.3317   29.0127 H   0  0  0  0  0  0  0  0  0  0  0  0
    2.5971   23.2174   30.4626 H   0  0  0  0  0  0  0  0  0  0  0  0
    2.4262   21.9733   38.2373 H   0  0  0  0  0  0  0  0  0  0  0  0
    1.0651   21.3378   37.8960 H   0  0  0  0  0  0  0  0  0  0  0  0
    1.4852   28.2819   29.3879 H   0  0  0  0  0  0  0  0  0  0  0  0
    2.2578   27.0641   28.3171 H   0  0  0  0  0  0  0  0  0  0  0  0
    0.4718   27.2558   28.3171 H   0  0  0  0  0  0  0  0  0  0  0  0
    5.0285   23.7578   29.7268 H   0  0  0  0  0  0  0  0  0  0  0  0
    3.7736   23.6517   28.4460 H   0  0  0  0  0  0  0  0  0  0  0  0
    4.9440   25.0143   28.4460 H   0  0  0  0  0  0  0  0  0  0  0  0
    5.6849   16.6605   38.2015 H   0  0  0  0  0  0  0  0  0  0  0  0
  2 11  1  0
  2 10  1  0
  3 35  1  0
  3 17  1  0
  4 32  2  0
  5 31  1  0
  5 15  1  0
  6  8  1  0
  9 17  1  0
 10 26  1  0
 12 26  1  0
 13 23  2  0
 14 11  1  0
 14  2  1  0
 15 29  1  0
 16 34  1  0
 16 20  1  0
 16 30  1  0
 17  7  1  0
 18 13  1  0
 19  1  1  0
 21  7  1  0
 21  6  1  0
 21  4  1  0
 23 22  1  0
 25  9  1  0
 27 33  1  0
 27 24  1  0
 27 19  1  0
 28 14  1  0
 28 12  1  0
 29  4  1  0
 29 18  2  0
 30 24  1  0
 30 28  1  0
 31 15  1  0
 32  8  1  0
 32 23  1  0
  1 36  1  0
  1 37  1  0
  1 38  1  0
  2 39  1  0
  3 40  1  0
  3 41  1  0
  5 42  1  0
  5 43  1  0
  6 44  1  0
  6 45  1  0
  7 46  1  0
  7 47  1  0
  9 48  1  0
  9 49  1  0
 10 50  1  0
 10 51  1  0
 11 52  1  0
 11 53  1  0
 12 54  1  0
 12 55  1  0
 13 56  1  0
 14 57  1  0
 16 58  1  0
 17 59  1  0
 18 60  1  0
 19 61  1  0
 19 62  1  0
 20 63  1  0
 21 64  1  0
 22 65  1  0
 22 66  1  0
 25 67  1  0
 26 68  1  0
 26 69  1  0
 27 70  1  0
 30 71  1  0
 31 72  1  0
 31 73  1  0
 33 74  1  0
 33 75  1  0
 33 76  1  0
 34 77  1  0
 34 78  1  0
 34 79  1  0
 35 80  1  0
M  END
>  <mol_id>  (40) 
2026-09-16-6tgu-s0-n100-0040

>  <rmsd_to_ref>  (40) 


$$$$

     RDKit          3D

 80 84  0  0  0  0  0  0  0  0999 V2000
    2.4180   26.3930   30.7260 C   0  0  0  0  0  0  0  0  0  0  0  0
    2.1180   26.8630   32.0410 C   0  0  0  0  0  0  0  0  0  0  0  0
    1.8600   15.1790   42.3090 C   0  0  0  0  0  0  0  0  0  0  0  0
    3.3490   24.8140   28.4950 C   0  0  0  0  0  0  0  0  0  0  0  0
    4.0530   22.0230   34.0650 C   0  0  0  0  0  0  0  0  0  0  0  0
    1.6460   21.1650   41.0240 C   0  0  0  0  0  0  0  0  0  0  0  0
    1.7110   17.1240   40.5720 N   0  0  0  0  0  0  0  0  0  0  0  0
    2.8470   14.3270   41.4030 C   0  0  0  0  0  0  0  0  0  0  0  0
    2.6700   18.2760   37.6530 O   0  0  0  0  0  0  0  0  0  0  0  0
    1.9130   24.6150   28.7810 C   0  0  0  0  0  0  0  0  0  0  0  0
    4.2700   24.4590   33.2700 C   0  0  0  0  0  0  0  0  0  0  0  0
    1.3850   25.7730   29.5590 C   0  0  0  0  0  0  0  0  0  0  0  0
    0.5630   21.0100   41.9220 C   0  0  0  0  0  0  0  0  0  0  0  0
    2.2350   22.0370   35.5460 O   0  0  0  0  0  0  0  0  0  0  0  0
    2.8300   19.7210   39.3650 O   0  0  0  0  0  0  0  0  0  0  0  0
    2.3600   28.2440   31.5170 C   0  0  0  0  0  0  0  0  0  0  0  0
    2.7150   16.7320   39.6730 C   0  0  0  0  0  0  0  0  0  0  0  0
    3.4500   24.1780   34.6080 C   0  0  0  0  0  0  0  0  0  0  0  0
   -0.1710   19.8390   42.3240 C   0  0  0  0  0  0  0  0  0  0  0  0
    4.6030   25.2340   31.9950 C   0  0  0  0  0  0  0  0  0  0  0  0
    1.2880   18.5400   40.8750 C   0  0  0  0  0  0  0  0  0  0  0  0
    3.2650   19.4650   38.3230 C   0  0  0  0  0  0  0  0  0  0  0  0
    4.3240   23.4380   34.1470 N   0  0  0  0  0  0  0  0  0  0  0  0
    1.6460   19.8780   40.2930 C   0  0  0  0  0  0  0  0  0  0  0  0
    4.4090   16.1580   37.7260 C   0  0  0  0  0  0  0  0  0  0  0  0
    3.0740   16.9410   38.2290 C   0  0  0  0  0  0  0  0  0  0  0  0
    1.1350   16.1490   41.4950 O   0  0  0  0  0  0  0  0  0  0  0  0
    0.2500   18.5450   41.7730 C   0  0  0  0  0  0  0  0  0  0  0  0
    1.1440   28.5400   30.6490 C   0  0  0  0  0  0  0  0  0  0  0  0
    4.1750   24.7280   29.6960 C   0  0  0  0  0  0  0  0  0  0  0  0
    3.5760   21.7010   35.4410 C   0  0  0  0  0  0  0  0  0  0  0  0
    0.8290   14.1180   42.7990 C   0  0  0  0  0  0  0  0  0  0  0  0
    3.3230   24.4220   32.0020 C   0  0  0  0  0  0  0  0  0  0  0  0
    3.7070   25.4680   30.9260 C   0  0  0  0  0  0  0  0  0  0  0  0
    2.4487   27.3502   30.1848 H   0  0  0  0  0  0  0  0  0  0  0  0
    1.0877   26.6709   32.3751 H   0  0  0  0  0  0  0  0  0  0  0  0
    2.6377   26.4776   32.9306 H   0  0  0  0  0  0  0  0  0  0  0  0
    2.3868   15.7214   43.1079 H   0  0  0  0  0  0  0  0  0  0  0  0
    3.6777   24.0412   27.7846 H   0  0  0  0  0  0  0  0  0  0  0  0
    3.4700   25.8245   28.0775 H   0  0  0  0  0  0  0  0  0  0  0  0
    3.2760   21.8106   33.3159 H   0  0  0  0  0  0  0  0  0  0  0  0
    4.9250   21.4285   33.7547 H   0  0  0  0  0  0  0  0  0  0  0  0
    1.4771   22.0100   40.3403 H   0  0  0  0  0  0  0  0  0  0  0  0
    2.6010   21.3842   41.5240 H   0  0  0  0  0  0  0  0  0  0  0  0
    3.5229   13.7435   42.0454 H   0  0  0  0  0  0  0  0  0  0  0  0
    2.2641   13.6437   40.7679 H   0  0  0  0  0  0  0  0  0  0  0  0
    3.4378   15.0035   40.7679 H   0  0  0  0  0  0  0  0  0  0  0  0
    1.3608   24.5300   27.8335 H   0  0  0  0  0  0  0  0  0  0  0  0
    1.7852   23.6947   29.3698 H   0  0  0  0  0  0  0  0  0  0  0  0
    1.1531   26.5804   28.8488 H   0  0  0  0  0  0  0  0  0  0  0  0
    0.5076   25.3946   30.1040 H   0  0  0  0  0  0  0  0  0  0  0  0
    0.2243   21.9444   42.3933 H   0  0  0  0  0  0  0  0  0  0  0  0
    1.9844   22.0998   36.5017 H   0  0  0  0  0  0  0  0  0  0  0  0
    2.4331   28.9663   32.3434 H   0  0  0  0  0  0  0  0  0  0  0  0
    3.3032   28.3196   30.9561 H   0  0  0  0  0  0  0  0  0  0  0  0
    3.6244   17.0807   40.1843 H   0  0  0  0  0  0  0  0  0  0  0  0
    2.2492   15.7541   39.4811 H   0  0  0  0  0  0  0  0  0  0  0  0
    3.6351   24.7698   35.5166 H   0  0  0  0  0  0  0  0  0  0  0  0
    2.3936   24.0907   34.9018 H   0  0  0  0  0  0  0  0  0  0  0  0
   -1.0191   19.9112   43.0208 H   0  0  0  0  0  0  0  0  0  0  0  0
    5.5791   25.7389   31.9473 H   0  0  0  0  0  0  0  0  0  0  0  0
    4.3432   19.2825   38.4417 H   0  0  0  0  0  0  0  0  0  0  0  0
    3.0282   20.3242   37.6782 H   0  0  0  0  0  0  0  0  0  0  0  0
    0.6791   20.0997   39.8176 H   0  0  0  0  0  0  0  0  0  0  0  0
    4.9863   15.8194   38.5990 H   0  0  0  0  0  0  0  0  0  0  0  0
    4.1172   15.2879   37.1195 H   0  0  0  0  0  0  0  0  0  0  0  0
    5.0259   16.8374   37.1195 H   0  0  0  0  0  0  0  0  0  0  0  0
    2.3716   16.3489   37.6239 H   0  0  0  0  0  0  0  0  0  0  0  0
   -0.2496   17.6110   42.0698 H   0  0  0  0  0  0  0  0  0  0  0  0
    0.2770   28.7511   31.2922 H   0  0  0  0  0  0  0  0  0  0  0  0
    1.3508   29.4140   30.0139 H   0  0  0  0  0  0  0  0  0  0  0  0
    0.9260   27.6687   30.0139 H   0  0  0  0  0  0  0  0  0  0  0  0
    4.2552   23.6641   29.9637 H   0  0  0  0  0  0  0  0  0  0  0  0
    5.1191   25.2198   29.4190 H   0  0  0  0  0  0  0  0  0  0  0  0
    3.7024   20.6252   35.6324 H   0  0  0  0  0  0  0  0  0  0  0  0
    4.1599   22.2709   36.1787 H   0  0  0  0  0  0  0  0  0  0  0  0
    0.8137   14.1022   43.8988 H   0  0  0  0  0  0  0  0  0  0  0  0
   -0.1713   14.3774   42.4220 H   0  0  0  0  0  0  0  0  0  0  0  0
    1.1169   13.1255   42.4220 H   0  0  0  0  0  0  0  0  0  0  0  0
    2.4357   23.7741   31.9486 H   0  0  0  0  0  0  0  0  0  0  0  0
  1 34  1  0
  1  2  1  0
  3 32  1  0
  4 10  1  0
  4 30  1  0
  5 23  1  0
  5 31  1  0
  6 13  1  0
  7 21  1  0
  7 27  1  0
  8  3  1  0
  9 26  1  0
  9 22  1  0
 10 12  1  0
 11 23  1  0
 11 18  1  0
 12  1  1  0
 13 19  2  0
 15 24  1  0
 16  2  1  0
 17  7  1  0
 20 33  1  0
 20 11  1  0
 21 28  2  0
 22 15  1  0
 23 18  1  0
 24 21  1  0
 24  6  1  0
 25 26  1  0
 26 17  1  0
 27  3  1  0
 28 19  1  0
 29 16  1  0
 30 34  1  0
 31 14  1  0
 33 11  1  0
 34 20  1  0
 34 33  1  0
  1 35  1  0
  2 36  1  0
  2 37  1  0
  3 38  1  0
  4 39  1  0
  4 40  1  0
  5 41  1  0
  5 42  1  0
  6 43  1  0
  6 44  1  0
  8 45  1  0
  8 46  1  0
  8 47  1  0
 10 48  1  0
 10 49  1  0
 12 50  1  0
 12 51  1  0
 13 52  1  0
 14 53  1  0
 16 54  1  0
 16 55  1  0
 17 56  1  0
 17 57  1  0
 18 58  1  0
 18 59  1  0
 19 60  1  0
 20 61  1  0
 22 62  1  0
 22 63  1  0
 24 64  1  0
 25 65  1  0
 25 66  1  0
 25 67  1  0
 26 68  1  0
 28 69  1  0
 29 70  1  0
 29 71  1  0
 29 72  1  0
 30 73  1  0
 30 74  1  0
 31 75  1  0
 31 76  1  0
 32 77  1  0
 32 78  1  0
 32 79  1  0
 33 80  1  0
M  END
>  <mol_id>  (41) 
2026-09-16-6tgu-s0-n100-0041

>  <rmsd_to_ref>  (41) 


$$$$

     RDKit          3D

 32 33  0  0  0  0  0  0  0  0999 V2000
    4.1980   22.7790   33.6840 C   0  0  0  0  0  0  0  0  0  0  0  0
    2.7150   21.4080   36.6750 C   0  0  0  0  0  0  0  0  0  0  0  0
    1.5090   21.6620   38.9970 C   0  0  0  0  0  0  0  0  0  0  0  0
    2.3010   22.2330   35.5190 C   0  0  0  0  0  0  0  0  0  0  0  0
    1.8490   21.8510   37.8190 C   0  0  0  0  0  0  0  0  0  0  0  0
    3.5570   17.6010   38.1730 S   0  0  0  0  0  4  0  0  0  0  0  0
    3.9390   23.6850   32.5530 O   0  0  0  0  0  0  0  0  0  0  0  0
    2.3750   24.2870   34.0680 C   0  0  0  0  0  0  0  0  0  0  0  0
    2.8790   16.8350   39.1770 O   0  0  0  0  0  0  0  0  0  0  0  0
    4.4190   16.9170   37.2220 O   0  0  0  0  0  0  0  0  0  0  0  0
    2.8350   19.6840   39.6630 C   0  0  0  0  0  0  0  0  0  0  0  0
    2.1430   20.9240   40.0640 C   0  0  0  0  0  0  0  0  0  0  0  0
    3.2840   19.9100   37.0300 C   0  0  0  0  0  0  0  0  0  0  0  0
    3.2210   19.2120   38.2810 C   0  0  0  0  0  0  0  0  0  0  0  0
    4.6670   24.0940   35.0050 C   0  0  0  0  0  0  0  0  0  0  0  0
    3.2200   23.3680   34.6190 C   0  0  0  0  0  0  0  0  0  0  0  0
    4.5454   21.7865   33.3611 H   0  0  0  0  0  0  0  0  0  0  0  0
    0.5589   22.1400   39.2776 H   0  0  0  0  0  0  0  0  0  0  0  0
    1.9590   21.5031   34.7705 H   0  0  0  0  0  0  0  0  0  0  0  0
    1.6589   22.9451   36.0580 H   0  0  0  0  0  0  0  0  0  0  0  0
    2.1623   22.9032   37.8870 H   0  0  0  0  0  0  0  0  0  0  0  0
    1.0576   21.1650   37.4828 H   0  0  0  0  0  0  0  0  0  0  0  0
    3.6838   24.5776   32.8969 H   0  0  0  0  0  0  0  0  0  0  0  0
    1.8645   24.8422   34.8687 H   0  0  0  0  0  0  0  0  0  0  0  0
    2.9508   24.9877   33.4456 H   0  0  0  0  0  0  0  0  0  0  0  0
    1.6285   23.7719   33.4456 H   0  0  0  0  0  0  0  0  0  0  0  0
    5.0927   16.3824   37.7124 H   0  0  0  0  0  0  0  0  0  0  0  0
    3.1083   19.0080   40.4866 H   0  0  0  0  0  0  0  0  0  0  0  0
    2.1121   21.2646   41.1095 H   0  0  0  0  0  0  0  0  0  0  0  0
    3.7754   19.3742   36.2045 H   0  0  0  0  0  0  0  0  0  0  0  0
    5.2247   23.8289   35.9153 H   0  0  0  0  0  0  0  0  0  0  0  0
    5.1138   25.0969   35.0725 H   0  0  0  0  0  0  0  0  0  0  0  0
  1  7  1  0
  1 16  1  0
  1 15  1  0
  2 13  2  0
  2  5  1  0
  3 12  2  0
  4  2  1  0
  5  3  1  0
  6 10  1  0
  6 14  1  0
  6  9  2  0
 11 12  1  0
 13 14  1  0
 14 11  2  0
 16  8  1  0
 16 15  1  0
 16  4  1  0
  1 17  1  0
  3 18  1  0
  4 19  1  0
  4 20  1  0
  5 21  1  0
  5 22  1  0
  7 23  1  0
  8 24  1  0
  8 25  1  0
  8 26  1  0
 10 27  1  0
 11 28  1  0
 12 29  1  0
 13 30  1  0
 15 31  1  0
 15 32  1  0
M  END
>  <mol_id>  (42) 
2026-09-16-6tgu-s0-n100-0042

>  <rmsd_to_ref>  (42) 


$$$$

     RDKit          3D

 60 60  0  0  0  0  0  0  0  0999 V2000
    1.3380   17.2900   41.8230 N   0  0  0  0  0  4  0  0  0  0  0  0
    3.3710   15.2770   38.2520 C   0  0  0  0  0  0  0  0  0  0  0  0
   -0.2250   19.7640   41.4730 O   0  0  0  0  0  0  0  0  0  0  0  0
    1.1000   25.8240   33.5410 C   0  0  0  0  0  0  0  0  0  0  0  0
    3.6640   16.4860   37.7540 C   0  0  0  0  0  0  0  0  0  0  0  0
    2.5900   19.6790   39.3910 C   0  0  0  0  0  0  0  0  0  0  0  0
    3.2670   12.9690   37.9110 O   0  0  0  0  0  1  0  0  0  0  0  0
    0.9570   22.0680   42.2410 O   0  0  0  0  0  0  0  0  0  0  0  0
    0.9910   26.9520   32.5280 C   0  0  0  0  0  0  0  0  0  0  0  0
    1.8780   17.7440   40.6530 C   0  0  0  0  0  0  0  0  0  0  0  0
    4.4490   14.1930   36.5190 O   0  0  0  0  0  0  0  0  0  0  0  0
    3.7660   14.0600   37.5000 C   0  0  0  0  0  0  0  0  0  0  0  0
    1.8530   24.7740   33.2490 C   0  0  0  0  0  0  0  0  0  0  0  0
    2.6920   15.5040   39.4360 C   0  0  0  0  0  0  0  0  0  0  0  0
    1.5160   21.3230   41.3420 C   0  0  0  0  0  0  0  0  0  0  0  0
    1.0180   27.2440   28.6490 C   0  0  0  0  0  0  0  0  0  0  0  0
    2.4040   25.6100   30.6030 C   0  0  0  0  0  0  0  0  0  0  0  0
    3.1820   17.5180   38.6570 C   0  0  0  0  0  0  0  0  0  0  0  0
    2.4930   16.9150   39.6720 C   0  0  0  0  0  0  0  0  0  0  0  0
    1.7700   19.1390   40.4360 C   0  0  0  0  0  0  0  0  0  0  0  0
    2.2070   23.9170   34.1980 C   0  0  0  0  0  0  0  0  0  0  0  0
    0.9240   20.0160   41.1780 C   0  0  0  0  0  0  0  0  0  0  0  0
    0.6490   27.3830   30.1220 C   0  0  0  0  0  0  0  0  0  0  0  0
    3.2850   18.9120   38.5780 C   0  0  0  0  0  0  0  0  0  0  0  0
    1.2530   15.9340   42.2930 C   0  0  0  0  0  0  0  0  0  0  0  0
    3.3090   24.1290   34.7520 O   0  0  0  0  0  1  0  0  0  0  0  0
    1.9590   26.2720   28.2160 C   0  0  0  0  0  0  0  0  0  0  0  0
    4.1000   21.4440   33.9920 C   0  0  0  0  0  0  0  0  0  0  0  0
    1.5110   22.8890   34.2660 O   0  0  0  0  0  0  0  0  0  0  0  0
    3.8690   21.5760   35.4420 C   0  0  0  0  0  0  0  0  0  0  0  0
    2.6740   25.4610   29.2150 C   0  0  0  0  0  0  0  0  0  0  0  0
    1.4300   26.6450   31.1310 C   0  0  0  0  0  0  0  0  0  0  0  0
    0.3628   17.6210   41.8053 H   0  0  0  0  0  0  0  0  0  0  0  0
    2.0616   17.6331   42.4707 H   0  0  0  0  0  0  0  0  0  0  0  0
    0.5631   25.8786   34.4995 H   0  0  0  0  0  0  0  0  0  0  0  0
    4.1897   16.6697   36.8054 H   0  0  0  0  0  0  0  0  0  0  0  0
    2.6399   20.7706   39.2646 H   0  0  0  0  0  0  0  0  0  0  0  0
    1.2035   21.7394   43.1418 H   0  0  0  0  0  0  0  0  0  0  0  0
   -0.0638   27.2612   32.4856 H   0  0  0  0  0  0  0  0  0  0  0  0
    1.6834   27.7288   32.8846 H   0  0  0  0  0  0  0  0  0  0  0  0
    2.1868   24.6116   32.2135 H   0  0  0  0  0  0  0  0  0  0  0  0
    2.3467   14.7089   40.1132 H   0  0  0  0  0  0  0  0  0  0  0  0
    1.4554   21.8485   40.3775 H   0  0  0  0  0  0  0  0  0  0  0  0
    2.5480   21.1525   41.6824 H   0  0  0  0  0  0  0  0  0  0  0  0
    0.5474   27.9079   27.9089 H   0  0  0  0  0  0  0  0  0  0  0  0
    2.9193   24.9519   31.3181 H   0  0  0  0  0  0  0  0  0  0  0  0
    2.2533   17.5956   38.0726 H   0  0  0  0  0  0  0  0  0  0  0  0
   -0.1895   28.0260   30.4278 H   0  0  0  0  0  0  0  0  0  0  0  0
    3.9512   19.3692   37.8316 H   0  0  0  0  0  0  0  0  0  0  0  0
    1.2525   15.9265   43.3930 H   0  0  0  0  0  0  0  0  0  0  0  0
    0.3243   15.4752   41.9228 H   0  0  0  0  0  0  0  0  0  0  0  0
    2.1171   15.3628   41.9228 H   0  0  0  0  0  0  0  0  0  0  0  0
    2.1519   26.1265   27.1429 H   0  0  0  0  0  0  0  0  0  0  0  0
    5.0431   20.9051   33.8185 H   0  0  0  0  0  0  0  0  0  0  0  0
    3.2690   20.8844   33.5378 H   0  0  0  0  0  0  0  0  0  0  0  0
    4.1602   22.4440   33.5378 H   0  0  0  0  0  0  0  0  0  0  0  0
    4.6972   21.1027   35.9898 H   0  0  0  0  0  0  0  0  0  0  0  0
    3.8143   22.6417   35.7091 H   0  0  0  0  0  0  0  0  0  0  0  0
    2.9231   21.0821   35.7091 H   0  0  0  0  0  0  0  0  0  0  0  0
    3.4267   24.7305   28.8835 H   0  0  0  0  0  0  0  0  0  0  0  0
  1 25  1  0
  2 14  1  0
  5  2  2  0
  6 20  1  0
  9  4  1  0
 10  1  1  0
 11 12  2  0
 12  7  1  0
 12  2  1  0
 13  4  2  3
 13 21  1  0
 14 19  2  0
 15  8  1  0
 16 23  2  0
 17 32  2  0
 18  5  1  0
 18 19  1  0
 19 10  1  0
 20 10  2  0
 20 22  1  0
 21 29  2  0
 21 26  1  0
 22 15  1  0
 22  3  2  0
 23 32  1  0
 24 18  1  0
 24  6  2  0
 27 16  1  0
 27 31  2  0
 28 30  1  0
 31 17  1  0
 32  9  1  0
  1 33  1  0
  1 34  1  0
  4 35  1  0
  5 36  1  0
  6 37  1  0
  8 38  1  0
  9 39  1  0
  9 40  1  0
 13 41  1  0
 14 42  1  0
 15 43  1  0
 15 44  1  0
 16 45  1  0
 17 46  1  0
 18 47  1  0
 23 48  1  0
 24 49  1  0
 25 50  1  0
 25 51  1  0
 25 52  1  0
 27 53  1  0
 28 54  1  0
 28 55  1  0
 28 56  1  0
 30 57  1  0
 30 58  1  0
 30 59  1  0
 31 60  1  0
M  CHG  3   1   1   7  -1  26  -1
M  END
>  <mol_id>  (43) 
2026-09-16-6tgu-s0-n100-0043

>  <rmsd_to_ref>  (43) 


$$$$

     RDKit          3D

 52 53  0  0  0  0  0  0  0  0999 V2000
   -0.3720   19.2210   42.1870 O   0  0  0  0  0  1  0  0  0  0  0  0
    3.5560   25.8760   32.3700 C   0  0  0  0  0  0  0  0  0  0  0  0
    1.7400   25.2780   34.1640 C   0  0  0  0  0  0  0  0  0  0  0  0
    2.5910   21.1500   37.0400 C   0  0  0  0  0  0  0  0  0  0  0  0
    1.5790   20.6410   40.4940 C   0  0  0  0  0  0  0  0  0  0  0  0
    4.0860   17.8720   37.5960 C   0  0  0  0  0  0  0  0  0  0  0  0
    3.0640   17.8950   38.5690 C   0  0  0  0  0  0  0  0  0  0  0  0
    1.7330   21.3540   39.3420 O   0  0  0  0  0  0  0  0  0  0  0  0
    2.3380   20.6260   38.4200 C   0  0  0  0  0  0  0  0  0  0  0  0
    5.0590   12.7910   37.4060 C   0  0  0  0  0  0  0  0  0  0  0  0
    2.5720   19.3160   39.0040 N   0  0  0  0  0  0  0  0  0  0  0  0
    2.8860   15.4820   38.4510 C   0  0  0  0  0  0  0  0  0  0  0  0
    3.8620   23.8350   33.6480 C   0  0  0  0  0  0  0  0  0  0  0  0
    2.2360   19.4530   40.2790 O   0  0  0  0  0  0  0  0  0  0  0  0
   -0.5080   20.2370   41.8570 C   0  0  0  0  0  0  0  0  0  0  0  0
    4.2260   14.0240   36.6060 S   0  0  0  0  0  6  0  0  0  0  0  0
    3.1980   25.0890   33.5630 C   0  0  0  0  0  0  0  0  0  0  0  0
    2.9720   13.5840   36.0180 O   0  0  0  0  0  0  0  0  0  0  0  0
    4.5120   16.6880   37.0260 C   0  0  0  0  0  0  0  0  0  0  0  0
    1.7870   21.8860   36.3090 C   0  0  0  0  0  0  0  0  0  0  0  0
    0.7480   21.0970   41.6030 C   0  0  0  0  0  0  0  0  0  0  0  0
    2.2800   22.4810   35.0510 C   0  0  0  0  0  0  0  0  0  0  0  0
    5.3040   14.4070   35.4840 O   0  0  0  0  0  0  0  0  0  0  0  0
    3.3970   22.6500   34.4250 C   0  0  0  0  0  0  0  0  0  0  0  0
    2.5480   16.6620   39.0750 C   0  0  0  0  0  0  0  0  0  0  0  0
    3.9060   15.4460   37.4950 C   0  0  0  0  0  0  0  0  0  0  0  0
   -1.8200   20.5060   41.7540 O   0  0  0  0  0  0  0  0  0  0  0  0
    4.8530   23.6460   32.9650 O   0  0  0  0  0  0  0  0  0  0  0  0
    3.9928   26.8362   32.6817 H   0  0  0  0  0  0  0  0  0  0  0  0
    4.2888   25.3178   31.7688 H   0  0  0  0  0  0  0  0  0  0  0  0
    2.6537   26.0616   31.7688 H   0  0  0  0  0  0  0  0  0  0  0  0
    1.7926   25.2712   35.2627 H   0  0  0  0  0  0  0  0  0  0  0  0
    1.3243   26.2375   33.8228 H   0  0  0  0  0  0  0  0  0  0  0  0
    1.0934   24.4562   33.8228 H   0  0  0  0  0  0  0  0  0  0  0  0
    3.5135   21.7427   37.1282 H   0  0  0  0  0  0  0  0  0  0  0  0
    2.5191   20.2059   36.4800 H   0  0  0  0  0  0  0  0  0  0  0  0
    0.7123   20.1230   40.0575 H   0  0  0  0  0  0  0  0  0  0  0  0
    4.5536   18.8177   37.2847 H   0  0  0  0  0  0  0  0  0  0  0  0
    1.3295   20.3099   38.1151 H   0  0  0  0  0  0  0  0  0  0  0  0
    4.9649   12.9303   38.4931 H   0  0  0  0  0  0  0  0  0  0  0  0
    4.6330   11.8171   37.1229 H   0  0  0  0  0  0  0  0  0  0  0  0
    6.1215   12.8227   37.1229 H   0  0  0  0  0  0  0  0  0  0  0  0
    2.3478   14.5575   38.7073 H   0  0  0  0  0  0  0  0  0  0  0  0
    3.6710   25.6101   34.4084 H   0  0  0  0  0  0  0  0  0  0  0  0
    5.2843   16.6815   36.2427 H   0  0  0  0  0  0  0  0  0  0  0  0
    0.7499   22.0589   36.6323 H   0  0  0  0  0  0  0  0  0  0  0  0
    1.3602   21.0894   42.5169 H   0  0  0  0  0  0  0  0  0  0  0  0
    0.3901   22.1016   41.3335 H   0  0  0  0  0  0  0  0  0  0  0  0
    1.4465   22.9083   34.4742 H   0  0  0  0  0  0  0  0  0  0  0  0
    3.4381   21.8176   33.7071 H   0  0  0  0  0  0  0  0  0  0  0  0
    4.0523   22.7682   35.3005 H   0  0  0  0  0  0  0  0  0  0  0  0
    1.8872   16.6557   39.9544 H   0  0  0  0  0  0  0  0  0  0  0  0
  2 17  1  0
  5 21  1  0
  6  7  2  0
  7 11  1  0
  7 25  1  0
  8  5  1  0
  9  4  1  0
  9 11  1  0
  9  8  1  0
 11 14  1  0
 12 25  2  0
 13 24  1  0
 14  5  1  0
 15  1  1  0
 16 10  1  0
 16 26  1  0
 17 13  1  0
 17  3  1  0
 18 16  2  0
 19 26  2  0
 19  6  1  0
 20  4  1  0
 21 15  1  0
 22 20  2  3
 23 16  2  0
 24 22  1  0
 26 12  1  0
 27 15  2  0
 28 13  2  0
  2 29  1  0
  2 30  1  0
  2 31  1  0
  3 32  1  0
  3 33  1  0
  3 34  1  0
  4 35  1  0
  4 36  1  0
  5 37  1  0
  6 38  1  0
  9 39  1  0
 10 40  1  0
 10 41  1  0
 10 42  1  0
 12 43  1  0
 17 44  1  0
 19 45  1  0
 20 46  1  0
 21 47  1  0
 21 48  1  0
 22 49  1  0
 24 50  1  0
 24 51  1  0
 25 52  1  0
M  CHG  1   1  -1
M  END
>  <mol_id>  (44) 
2026-09-16-6tgu-s0-n100-0044

>  <rmsd_to_ref>  (44) 


$$$$

     RDKit          3D

 65 67  0  0  0  0  0  0  0  0999 V2000
    4.3420   13.2980   36.9990 C   0  0  0  0  0  0  0  0  0  0  0  0
    4.1160   23.2280   32.1080 C   0  0  0  0  0  0  0  0  0  0  0  0
    2.9510   20.4480   37.5960 C   0  0  0  0  0  0  0  0  0  0  0  0
    2.0060   24.4600   33.2720 C   0  0  0  0  0  0  0  0  0  0  0  0
    4.0410   16.9630   36.9690 C   0  0  0  0  0  0  0  0  0  0  0  0
    2.8590   13.3190   36.6350 C   0  0  0  0  0  0  0  0  0  0  0  0
    4.1650   15.7460   37.8380 C   0  0  0  0  0  0  0  0  0  0  0  0
    0.0100   19.6370   41.3350 C   0  0  0  0  0  0  0  0  0  0  0  0
    4.1310   22.3880   33.3500 C   0  0  0  0  0  0  0  0  0  0  0  0
    2.9720   24.1800   32.1160 C   0  0  0  0  0  0  0  0  0  0  0  0
    1.8800   20.5640   39.9570 C   0  0  0  0  0  0  0  0  0  0  0  0
    3.9760   18.3000   37.2300 N   0  0  0  0  0  0  0  0  0  0  0  0
    2.9030   24.8860   31.0350 F   0  0  0  0  0  0  0  0  0  0  0  0
    2.0400   23.5300   34.3500 C   0  0  0  0  0  0  0  0  0  0  0  0
    2.9770   19.7350   40.4460 C   0  0  0  0  0  0  0  0  0  0  0  0
    1.0870   25.6530   33.3490 C   0  0  0  0  0  0  0  0  0  0  0  0
    2.7790   13.0080   35.1920 N   0  0  0  0  0  4  0  0  0  0  0  0
    2.7710   15.3820   38.0390 C   0  0  0  0  0  0  0  0  0  0  0  0
    4.9320   14.7040   36.9870 C   0  0  0  0  0  0  0  0  0  0  0  0
    1.0570   21.7540   41.9100 N   0  0  0  0  0  4  0  0  0  0  0  0
    3.5570   19.2460   38.1320 C   0  0  0  0  0  0  0  0  0  0  0  0
    3.0190   22.4740   34.3590 C   0  0  0  0  0  0  0  0  0  0  0  0
    2.3320   14.6800   36.7650 N   0  0  0  0  0  4  0  0  0  0  0  0
    3.8020   19.1020   39.5310 N   0  0  0  0  0  0  0  0  0  0  0  0
    2.9060   21.5990   35.3820 C   0  0  0  0  0  0  0  0  0  0  0  0
    3.3960   20.9250   36.2140 C   0  0  0  0  0  0  0  0  0  0  0  0
    1.9020   21.0480   38.4610 C   0  0  0  0  0  0  0  0  0  0  0  0
    0.7330   20.9570   40.8340 C   0  0  0  0  0  0  0  0  0  0  0  0
    4.4586   12.8684   38.0049 H   0  0  0  0  0  0  0  0  0  0  0  0
    4.8753   12.6898   36.2536 H   0  0  0  0  0  0  0  0  0  0  0  0
    4.8545   23.1507   31.2965 H   0  0  0  0  0  0  0  0  0  0  0  0
    2.1592   19.8418   37.1318 H   0  0  0  0  0  0  0  0  0  0  0  0
    3.1179   16.7731   36.4018 H   0  0  0  0  0  0  0  0  0  0  0  0
    5.0896   16.9674   36.6367 H   0  0  0  0  0  0  0  0  0  0  0  0
    2.3059   12.6196   37.2791 H   0  0  0  0  0  0  0  0  0  0  0  0
    4.6932   15.8545   38.7968 H   0  0  0  0  0  0  0  0  0  0  0  0
    0.0002   19.6192   42.4348 H   0  0  0  0  0  0  0  0  0  0  0  0
   -1.0235   19.6197   40.9588 H   0  0  0  0  0  0  0  0  0  0  0  0
    0.5519   18.7568   40.9588 H   0  0  0  0  0  0  0  0  0  0  0  0
    4.9690   21.6976   33.5260 H   0  0  0  0  0  0  0  0  0  0  0  0
    4.4133   18.7943   36.4393 H   0  0  0  0  0  0  0  0  0  0  0  0
    1.3185   23.6183   35.1756 H   0  0  0  0  0  0  0  0  0  0  0  0
    3.6178   20.3808   41.0643 H   0  0  0  0  0  0  0  0  0  0  0  0
    2.4704   18.9055   40.9611 H   0  0  0  0  0  0  0  0  0  0  0  0
    0.8959   25.9011   34.4035 H   0  0  0  0  0  0  0  0  0  0  0  0
    1.5589   26.5122   32.8499 H   0  0  0  0  0  0  0  0  0  0  0  0
    0.1359   25.4160   32.8499 H   0  0  0  0  0  0  0  0  0  0  0  0
    2.5243   12.0178   35.0678 H   0  0  0  0  0  0  0  0  0  0  0  0
    2.0640   13.6043   34.7514 H   0  0  0  0  0  0  0  0  0  0  0  0
    3.6930   13.1853   34.7514 H   0  0  0  0  0  0  0  0  0  0  0  0
    2.6733   14.7056   38.9009 H   0  0  0  0  0  0  0  0  0  0  0  0
    2.1501   16.2662   38.2455 H   0  0  0  0  0  0  0  0  0  0  0  0
    5.9621   14.6445   37.3683 H   0  0  0  0  0  0  0  0  0  0  0  0
    4.8695   15.0533   35.9458 H   0  0  0  0  0  0  0  0  0  0  0  0
    0.8521   21.2500   42.7846 H   0  0  0  0  0  0  0  0  0  0  0  0
    2.0596   21.9872   41.8749 H   0  0  0  0  0  0  0  0  0  0  0  0
    0.5015   22.6206   41.8749 H   0  0  0  0  0  0  0  0  0  0  0  0
    2.6569   15.2335   35.9594 H   0  0  0  0  0  0  0  0  0  0  0  0
    1.3053   14.6048   36.7994 H   0  0  0  0  0  0  0  0  0  0  0  0
    2.2369   22.1889   36.0257 H   0  0  0  0  0  0  0  0  0  0  0  0
    3.0516   20.7780   34.6646 H   0  0  0  0  0  0  0  0  0  0  0  0
    4.3443   21.4413   36.4240 H   0  0  0  0  0  0  0  0  0  0  0  0
    3.1935   19.9707   35.7057 H   0  0  0  0  0  0  0  0  0  0  0  0
    1.1833   21.7871   38.0774 H   0  0  0  0  0  0  0  0  0  0  0  0
    0.0721   21.5821   40.2156 H   0  0  0  0  0  0  0  0  0  0  0  0
  2 10  2  0
  2  9  1  0
  3 26  1  0
  3 21  1  0
  3 27  1  0
  4 16  1  0
  4 14  2  0
  5 12  1  0
  6 17  1  0
  6 23  1  0
  6  1  1  0
  7  5  1  0
  7 18  1  0
  9 22  2  0
 10  4  1  0
 11 15  1  0
 11 28  1  0
 12 21  1  0
 13 10  1  0
 14 22  1  0
 19  1  1  0
 19  7  1  0
 21 24  2  0
 22 25  1  0
 23 18  1  0
 24 15  1  0
 25 26  1  0
 27 11  2  0
 28  8  1  0
 28 20  1  0
  1 29  1  0
  1 30  1  0
  2 31  1  0
  3 32  1  0
  5 33  1  0
  5 34  1  0
  6 35  1  0
  7 36  1  0
  8 37  1  0
  8 38  1  0
  8 39  1  0
  9 40  1  0
 12 41  1  0
 14 42  1  0
 15 43  1  0
 15 44  1  0
 16 45  1  0
 16 46  1  0
 16 47  1  0
 17 48  1  0
 17 49  1  0
 17 50  1  0
 18 51  1  0
 18 52  1  0
 19 53  1  0
 19 54  1  0
 20 55  1  0
 20 56  1  0
 20 57  1  0
 23 58  1  0
 23 59  1  0
 25 60  1  0
 25 61  1  0
 26 62  1  0
 26 63  1  0
 27 64  1  0
 28 65  1  0
M  CHG  3  17   1  20   1  23   1
M  END
>  <mol_id>  (45) 
2026-09-16-6tgu-s0-n100-0045

>  <rmsd_to_ref>  (45) 


$$$$

     RDKit          3D

 52 53  0  0  0  0  0  0  0  0999 V2000
    2.1300   24.1710   32.5020 C   0  0  0  0  0  0  0  0  0  0  0  0
    2.4630   24.6280   31.1880 C   0  0  0  0  0  0  0  0  0  0  0  0
    2.6700   20.2960   40.6160 C   0  0  0  0  0  0  0  0  0  0  0  0
    4.2110   23.4360   32.3590 C   0  0  0  0  0  0  0  0  0  0  0  0
    5.1950   20.1960   41.1680 C   0  0  0  0  0  0  0  0  0  0  0  0
    4.0870   20.3360   40.1680 C   0  0  0  0  0  0  0  0  0  0  0  0
    1.4760   23.4760   29.3620 C   0  0  0  0  0  0  0  0  0  0  0  0
    4.1290   19.1230   39.1640 C   0  0  0  0  0  0  0  0  0  0  0  0
    2.3090   24.7620   30.0370 C   0  0  0  0  0  0  0  0  0  0  0  0
    4.4120   23.2330   29.9350 C   0  0  0  0  0  0  0  0  0  0  0  0
    3.5540   21.7870   34.9480 C   0  0  0  0  0  0  0  0  0  0  0  0
    0.9590   23.5870   28.3820 O   0  0  0  0  0  0  0  0  0  0  0  0
    2.5220   20.7710   37.4270 S   0  0  0  0  0  0  0  0  0  0  0  0
    1.3970   22.0480   29.9170 C   0  0  0  0  0  0  0  0  0  0  0  0
    2.9550   23.0740   33.0430 N   0  0  0  0  0  0  0  0  0  0  0  0
    3.2030   20.5510   35.8380 C   0  0  0  0  0  0  0  0  0  0  0  0
    3.7810   23.7190   31.1000 C   0  0  0  0  0  0  0  0  0  0  0  0
    2.3550   18.8030   40.5280 C   0  0  0  0  0  0  0  0  0  0  0  0
    3.1940   19.2140   38.0060 C   0  0  0  0  0  0  0  0  0  0  0  0
    2.6270   22.5810   34.3910 C   0  0  0  0  0  0  0  0  0  0  0  0
    3.5090   18.0440   39.8980 O   0  0  0  0  0  0  0  0  0  0  0  0
    1.0857   23.8260   32.4818 H   0  0  0  0  0  0  0  0  0  0  0  0
    2.3131   25.0292   33.1653 H   0  0  0  0  0  0  0  0  0  0  0  0
    1.9071   25.5658   31.3350 H   0  0  0  0  0  0  0  0  0  0  0  0
    2.5652   20.6672   41.6462 H   0  0  0  0  0  0  0  0  0  0  0  0
    1.9966   20.9288   40.0193 H   0  0  0  0  0  0  0  0  0  0  0  0
    4.6812   24.3136   32.8266 H   0  0  0  0  0  0  0  0  0  0  0  0
    4.9777   22.6481   32.3972 H   0  0  0  0  0  0  0  0  0  0  0  0
    4.7796   20.2485   42.1852 H   0  0  0  0  0  0  0  0  0  0  0  0
    5.6966   19.2273   41.0263 H   0  0  0  0  0  0  0  0  0  0  0  0
    5.9218   21.0095   41.0263 H   0  0  0  0  0  0  0  0  0  0  0  0
    4.2999   21.3476   39.7919 H   0  0  0  0  0  0  0  0  0  0  0  0
    5.1674   19.0422   38.8103 H   0  0  0  0  0  0  0  0  0  0  0  0
    1.7394   25.6862   29.8601 H   0  0  0  0  0  0  0  0  0  0  0  0
    3.3013   24.8097   29.5646 H   0  0  0  0  0  0  0  0  0  0  0  0
    5.2542   22.5843   30.2176 H   0  0  0  0  0  0  0  0  0  0  0  0
    3.6888   22.6564   29.3397 H   0  0  0  0  0  0  0  0  0  0  0  0
    4.7849   24.0795   29.3397 H   0  0  0  0  0  0  0  0  0  0  0  0
    4.1757   22.4431   35.5749 H   0  0  0  0  0  0  0  0  0  0  0  0
    3.9835   21.2997   34.0603 H   0  0  0  0  0  0  0  0  0  0  0  0
    1.3988   22.0813   31.0165 H   0  0  0  0  0  0  0  0  0  0  0  0
    0.4710   21.5690   29.5662 H   0  0  0  0  0  0  0  0  0  0  0  0
    2.2645   21.4698   29.5662 H   0  0  0  0  0  0  0  0  0  0  0  0
    2.4830   19.9459   35.2674 H   0  0  0  0  0  0  0  0  0  0  0  0
    4.1884   20.1104   36.0497 H   0  0  0  0  0  0  0  0  0  0  0  0
    4.4032   24.6252   31.0590 H   0  0  0  0  0  0  0  0  0  0  0  0
    2.1763   18.4120   41.5405 H   0  0  0  0  0  0  0  0  0  0  0  0
    1.4609   18.6680   39.9017 H   0  0  0  0  0  0  0  0  0  0  0  0
    3.7258   18.7741   37.1494 H   0  0  0  0  0  0  0  0  0  0  0  0
    2.2968   18.7163   38.4027 H   0  0  0  0  0  0  0  0  0  0  0  0
    2.4857   23.4523   35.0474 H   0  0  0  0  0  0  0  0  0  0  0  0
    1.7226   21.9647   34.2800 H   0  0  0  0  0  0  0  0  0  0  0  0
  1 15  1  0
  2  9  1  0
  2  1  1  0
  4 15  1  0
  6  3  1  0
  6  5  1  0
  7 14  1  0
  7  9  1  0
  8 19  1  0
  8 21  1  0
  8  6  1  0
 11 16  1  0
 12  7  2  0
 13 19  1  0
 15 20  1  0
 16 13  1  0
 17 10  1  0
 17  2  1  0
 17  4  1  0
 18  3  1  0
 20 11  1  0
 21 18  1  0
  1 22  1  0
  1 23  1  0
  2 24  1  0
  3 25  1  0
  3 26  1  0
  4 27  1  0
  4 28  1  0
  5 29  1  0
  5 30  1  0
  5 31  1  0
  6 32  1  0
  8 33  1  0
  9 34  1  0
  9 35  1  0
 10 36  1  0
 10 37  1  0
 10 38  1  0
 11 39  1  0
 11 40  1  0
 14 41  1  0
 14 42  1  0
 14 43  1  0
 16 44  1  0
 16 45  1  0
 17 46  1  0
 18 47  1  0
 18 48  1  0
 19 49  1  0
 19 50  1  0
 20 51  1  0
 20 52  1  0
M  END
>  <mol_id>  (46) 
2026-09-16-6tgu-s0-n100-0046

>  <rmsd_to_ref>  (46) 


$$$$

     RDKit          3D

 39 40  0  0  0  0  0  0  0  0999 V2000
    3.9780   17.3280   37.4760 C   0  0  0  0  0  0  0  0  0  0  0  0
    1.9700   20.5220   39.4050 S   0  0  0  0  0  0  0  0  0  0  0  0
    3.7680   25.3820   32.0810 C   0  0  0  0  0  0  0  0  0  0  0  0
    1.5680   25.9540   30.8290 C   0  0  0  0  0  0  0  0  0  0  0  0
    3.2460   18.3100   38.3370 C   0  0  0  0  0  0  0  0  0  0  0  0
    4.4560   24.4100   32.8180 C   0  0  0  0  0  0  0  0  0  0  0  0
    1.6700   26.3170   28.2890 C   0  0  0  0  0  0  0  0  0  0  0  0
    2.3150   23.5580   33.9330 C   0  0  0  0  0  0  0  0  0  0  0  0
    3.8060   23.4440   33.7250 C   0  0  0  0  0  0  0  0  0  0  0  0
    1.8800   22.6950   35.0790 C   0  0  0  0  0  0  0  0  0  0  0  0
    2.9550   21.4850   35.8090 C   0  0  0  0  0  0  0  0  0  0  0  0
    2.6270   16.4220   40.2690 O   0  0  0  0  0  0  0  0  0  0  0  0
    2.2660   25.2800   32.0090 C   0  0  0  0  0  0  0  0  0  0  0  0
    2.5100   25.9240   29.4910 C   0  0  0  0  0  0  0  0  0  0  0  0
    2.6540   17.8670   39.5600 C   0  0  0  0  0  0  0  0  0  0  0  0
    1.1490   18.8040   41.8830 Cl  0  0  0  0  0  0  0  0  0  0  0  0
    1.5610   24.3650   32.9790 C   0  0  0  0  0  0  0  0  0  0  0  0
    2.8160   19.8140   38.0830 C   0  0  0  0  0  0  0  0  0  0  0  0
    2.9570   20.6680   36.8800 C   0  0  0  0  0  0  0  0  0  0  0  0
    1.9170   18.9660   40.2600 C   0  0  0  0  0  0  0  0  0  0  0  0
    4.5137   16.6093   38.1136 H   0  0  0  0  0  0  0  0  0  0  0  0
    3.2590   16.7898   36.8409 H   0  0  0  0  0  0  0  0  0  0  0  0
    4.6991   17.8634   36.8409 H   0  0  0  0  0  0  0  0  0  0  0  0
    4.3067   26.1941   31.5709 H   0  0  0  0  0  0  0  0  0  0  0  0
    0.6273   25.4243   30.6179 H   0  0  0  0  0  0  0  0  0  0  0  0
    1.3703   27.0033   31.0933 H   0  0  0  0  0  0  0  0  0  0  0  0
    5.5501   24.3636   32.7143 H   0  0  0  0  0  0  0  0  0  0  0  0
    0.7234   26.7599   28.6322 H   0  0  0  0  0  0  0  0  0  0  0  0
    2.2196   27.0514   27.6819 H   0  0  0  0  0  0  0  0  0  0  0  0
    1.4584   25.4244   27.6819 H   0  0  0  0  0  0  0  0  0  0  0  0
    4.3907   22.6639   34.2345 H   0  0  0  0  0  0  0  0  0  0  0  0
    1.5940   23.3813   35.8897 H   0  0  0  0  0  0  0  0  0  0  0  0
    1.1077   22.0655   34.6129 H   0  0  0  0  0  0  0  0  0  0  0  0
    3.8783   21.3704   35.2221 H   0  0  0  0  0  0  0  0  0  0  0  0
    2.1575   16.3030   41.1324 H   0  0  0  0  0  0  0  0  0  0  0  0
    2.9119   24.9105   29.3451 H   0  0  0  0  0  0  0  0  0  0  0  0
    3.3460   26.6293   29.6080 H   0  0  0  0  0  0  0  0  0  0  0  0
    0.4627   24.3051   32.9672 H   0  0  0  0  0  0  0  0  0  0  0  0
    0.9998   18.6979   39.7152 H   0  0  0  0  0  0  0  0  0  0  0  0
  1  5  1  0
  2 20  1  0
  3  6  2  0
  4 13  1  0
  5 15  2  0
  6  9  1  0
  7 14  1  0
  8 10  1  0
  9  8  2  0
 10 11  1  0
 11 19  2  0
 13  3  1  0
 13 17  2  0
 14  4  1  0
 15 20  1  0
 15 12  1  0
 17  8  1  0
 18  5  1  0
 18  2  1  0
 19 18  2  0
 20 16  1  0
  1 21  1  0
  1 22  1  0
  1 23  1  0
  3 24  1  0
  4 25  1  0
  4 26  1  0
  6 27  1  0
  7 28  1  0
  7 29  1  0
  7 30  1  0
  9 31  1  0
 10 32  1  0
 10 33  1  0
 11 34  1  0
 12 35  1  0
 14 36  1  0
 14 37  1  0
 17 38  1  0
 20 39  1  0
M  END
>  <mol_id>  (47) 
2026-09-16-6tgu-s0-n100-0047

>  <rmsd_to_ref>  (47) 


$$$$

     RDKit          3D

 67 69  0  0  0  0  0  0  0  0999 V2000
    2.1430   25.7970   32.0510 C   0  0  0  0  0  0  0  0  0  0  0  0
    2.4270   22.5730   35.3360 N   0  0  0  0  0  0  0  0  0  0  0  0
    3.4860   23.1220   33.5130 O   0  0  0  0  0  0  0  0  0  0  0  0
    0.2930   18.0290   42.9460 C   0  0  0  0  0  0  0  0  0  0  0  0
    0.9850   21.3410   41.3320 C   0  0  0  0  0  0  0  0  0  0  0  0
    2.7180   19.3230   38.8670 C   0  0  0  0  0  0  0  0  0  0  0  0
    2.1540   24.6590   34.2840 C   0  0  0  0  0  0  0  0  0  0  0  0
    2.4430   20.8620   37.0720 C   0  0  0  0  0  0  0  0  0  0  0  0
    0.6830   16.7320   42.7130 C   0  0  0  0  0  0  0  0  0  0  0  0
    2.9590   25.1200   31.4500 C   0  0  0  0  0  0  0  0  0  0  0  0
    0.3820   20.3810   42.1760 C   0  0  0  0  0  0  0  0  0  0  0  0
    3.4650   14.1720   37.5480 C   0  0  0  0  0  0  0  0  0  0  0  0
    2.8270   14.8880   40.5090 N   0  0  0  0  0  0  0  0  0  0  0  0
    1.8130   20.9970   40.2890 C   0  0  0  0  0  0  0  0  0  0  0  0
    1.4690   14.0280   42.0230 O   0  0  0  0  0  0  0  0  0  0  0  0
    1.6190   25.8030   33.3890 C   0  0  0  0  0  0  0  0  0  0  0  0
    1.4900   18.6300   40.9080 C   0  0  0  0  0  0  0  0  0  0  0  0
    1.5260   16.3750   41.6420 C   0  0  0  0  0  0  0  0  0  0  0  0
    1.1230   26.6380   32.3030 C   0  0  0  0  0  0  0  0  0  0  0  0
    1.9190   17.3150   40.7360 C   0  0  0  0  0  0  0  0  0  0  0  0
    3.0160   21.4790   35.8480 C   0  0  0  0  0  0  0  0  0  0  0  0
    0.6520   18.9940   41.9940 C   0  0  0  0  0  0  0  0  0  0  0  0
    2.6480   25.7120   30.0590 C   0  0  0  0  0  0  0  0  0  0  0  0
    2.9710   13.6920   39.8760 O   0  0  0  0  0  0  0  0  0  0  0  0
    3.4080   20.0250   37.6930 C   0  0  0  0  0  0  0  0  0  0  0  0
    1.9720   15.0330   41.4060 C   0  0  0  0  0  0  0  0  0  0  0  0
   -0.4340   18.1190   44.3700 C   0  0  0  0  0  0  0  0  0  0  0  0
    4.1080   20.9980   35.4360 N   0  0  0  0  0  0  0  0  0  0  0  0
    2.0130   19.6490   39.9880 C   0  0  0  0  0  0  0  0  0  0  0  0
    3.9470   13.5620   38.8110 C   0  0  0  0  0  0  0  0  0  0  0  0
    2.7630   23.3960   34.3200 C   0  0  0  0  0  0  0  0  0  0  0  0
    3.7130   24.9210   29.2240 C   0  0  0  0  0  0  0  0  0  0  0  0
    2.8414   26.6468   32.0421 H   0  0  0  0  0  0  0  0  0  0  0  0
    1.5505   22.8338   35.8100 H   0  0  0  0  0  0  0  0  0  0  0  0
    0.7839   22.4066   41.5168 H   0  0  0  0  0  0  0  0  0  0  0  0
    3.5425   18.7282   39.2871 H   0  0  0  0  0  0  0  0  0  0  0  0
    1.8086   19.1146   38.2844 H   0  0  0  0  0  0  0  0  0  0  0  0
    1.2487   24.4446   34.8709 H   0  0  0  0  0  0  0  0  0  0  0  0
    3.1434   25.1390   34.3095 H   0  0  0  0  0  0  0  0  0  0  0  0
    1.5624   20.2620   36.7991 H   0  0  0  0  0  0  0  0  0  0  0  0
    2.1506   21.6572   37.7736 H   0  0  0  0  0  0  0  0  0  0  0  0
    0.3231   15.9421   43.3887 H   0  0  0  0  0  0  0  0  0  0  0  0
    3.9929   25.3105   31.7736 H   0  0  0  0  0  0  0  0  0  0  0  0
    2.8913   24.0278   31.5619 H   0  0  0  0  0  0  0  0  0  0  0  0
   -0.2986   20.7061   42.9767 H   0  0  0  0  0  0  0  0  0  0  0  0
    2.7983   15.0158   37.7794 H   0  0  0  0  0  0  0  0  0  0  0  0
    4.3243   14.5332   36.9639 H   0  0  0  0  0  0  0  0  0  0  0  0
    2.9149   13.4195   36.9639 H   0  0  0  0  0  0  0  0  0  0  0  0
    3.4293   15.6808   40.2452 H   0  0  0  0  0  0  0  0  0  0  0  0
    2.3133   21.7777   39.6972 H   0  0  0  0  0  0  0  0  0  0  0  0
    1.2717   25.9628   34.4204 H   0  0  0  0  0  0  0  0  0  0  0  0
    1.3026   27.7230   32.3232 H   0  0  0  0  0  0  0  0  0  0  0  0
    0.1339   26.8039   31.8511 H   0  0  0  0  0  0  0  0  0  0  0  0
    2.5617   17.0411   39.8864 H   0  0  0  0  0  0  0  0  0  0  0  0
    1.6203   25.4908   29.7352 H   0  0  0  0  0  0  0  0  0  0  0  0
    2.7017   26.8082   29.9844 H   0  0  0  0  0  0  0  0  0  0  0  0
    3.7775   19.2793   36.9737 H   0  0  0  0  0  0  0  0  0  0  0  0
    4.2665   20.6163   38.0443 H   0  0  0  0  0  0  0  0  0  0  0  0
    0.3148   18.0263   45.1705 H   0  0  0  0  0  0  0  0  0  0  0  0
   -0.9477   19.0876   44.4588 H   0  0  0  0  0  0  0  0  0  0  0  0
   -1.1684   17.3049   44.4588 H   0  0  0  0  0  0  0  0  0  0  0  0
    4.4990   20.1544   35.8792 H   0  0  0  0  0  0  0  0  0  0  0  0
    4.1458   12.4940   38.6380 H   0  0  0  0  0  0  0  0  0  0  0  0
    4.8625   14.0885   39.1186 H   0  0  0  0  0  0  0  0  0  0  0  0
    4.4056   24.4066   29.9064 H   0  0  0  0  0  0  0  0  0  0  0  0
    3.2048   24.1796   28.5898 H   0  0  0  0  0  0  0  0  0  0  0  0
    4.2759   25.6217   28.5898 H   0  0  0  0  0  0  0  0  0  0  0  0
  1 10  1  0
  1 19  1  0
  1 16  1  0
  2 21  1  0
  3 31  2  0
  4 27  1  0
  5 11  2  0
  6 29  1  0
  7 31  1  0
  8 25  1  0
  9  4  2  0
 12 30  1  0
 13 26  1  0
 14  5  1  0
 16  7  1  0
 17 22  2  0
 18  9  1  0
 19 16  1  0
 20 17  1  0
 20 18  2  0
 21  8  1  0
 22 11  1  0
 22  4  1  0
 23 10  1  0
 24 13  1  0
 25  6  1  0
 26 18  1  0
 26 15  2  0
 28 21  2  3
 29 14  2  0
 29 17  1  0
 30 24  1  0
 31  2  1  0
 32 23  1  0
  1 33  1  0
  2 34  1  0
  5 35  1  0
  6 36  1  0
  6 37  1  0
  7 38  1  0
  7 39  1  0
  8 40  1  0
  8 41  1  0
  9 42  1  0
 10 43  1  0
 10 44  1  0
 11 45  1  0
 12 46  1  0
 12 47  1  0
 12 48  1  0
 13 49  1  0
 14 50  1  0
 16 51  1  0
 19 52  1  0
 19 53  1  0
 20 54  1  0
 23 55  1  0
 23 56  1  0
 25 57  1  0
 25 58  1  0
 27 59  1  0
 27 60  1  0
 27 61  1  0
 28 62  1  0
 30 63  1  0
 30 64  1  0
 32 65  1  0
 32 66  1  0
 32 67  1  0
M  END
>  <mol_id>  (48) 
2026-09-16-6tgu-s0-n100-0048

>  <rmsd_to_ref>  (48) 


$$$$

     RDKit          3D

 69 70  0  0  0  0  0  0  0  0999 V2000
    2.9840   17.4140   37.7130 C   0  0  0  0  0  0  0  0  0  0  0  0
    1.1920   17.0120   42.0460 C   0  0  0  0  0  0  0  0  0  0  0  0
    3.5160   18.1930   36.7540 N   0  0  0  0  0  0  0  0  0  0  0  0
    4.0250   15.0440   37.4220 C   0  0  0  0  0  0  0  0  0  0  0  0
    1.0750   18.3590   42.0560 C   0  0  0  0  0  0  0  0  0  0  0  0
    1.2470   20.4970   40.8570 C   0  0  0  0  0  0  0  0  0  0  0  0
    4.3500   22.0200   34.6140 C   0  0  0  0  0  0  0  0  0  0  0  0
    2.6000   18.2720   38.8560 C   0  0  0  0  0  0  0  0  0  0  0  0
    3.7480   13.7820   37.5210 O   0  0  0  0  0  1  0  0  0  0  0  0
    4.6900   26.3950   31.3290 C   0  0  0  0  0  0  0  0  0  0  0  0
    2.1230   18.0460   40.0350 C   0  0  0  0  0  0  0  0  0  0  0  0
    1.2150   28.1710   31.7390 C   0  0  0  0  0  0  0  0  0  0  0  0
    4.5030   24.1830   32.6970 C   0  0  0  0  0  0  0  0  0  0  0  0
    1.7010   29.2420   32.6010 C   0  0  0  0  0  0  0  0  0  0  0  0
    1.6450   19.0360   40.9640 C   0  0  0  0  0  0  0  0  0  0  0  0
    5.1840   15.5140   37.1560 O   0  0  0  0  0  0  0  0  0  0  0  0
    2.8560   19.5240   38.5040 O   0  0  0  0  0  0  0  0  0  0  0  0
    3.3080   19.4890   37.2400 C   0  0  0  0  0  0  0  0  0  0  0  0
    2.0080   16.5100   40.6760 S   0  0  0  0  0  0  0  0  0  0  0  0
    2.1770   24.1680   34.1560 C   0  0  0  0  0  0  0  0  0  0  0  0
    3.4710   22.3330   33.6010 C   0  0  0  0  0  0  0  0  0  0  0  0
    2.7790   15.9550   37.5370 C   0  0  0  0  0  0  0  0  0  0  0  0
    2.4350   27.5160   31.6880 C   0  0  0  0  0  0  0  0  0  0  0  0
    3.3270   20.5790   36.6620 O   0  0  0  0  0  0  0  0  0  0  0  0
    3.0780   29.7260   32.1960 C   0  0  0  0  0  0  0  0  0  0  0  0
    3.3890   26.9050   30.7090 C   0  0  0  0  0  0  0  0  0  0  0  0
    0.7880   16.0190   43.0670 C   0  0  0  0  0  0  0  0  0  0  0  0
    3.4930   23.8470   33.6520 C   0  0  0  0  0  0  0  0  0  0  0  0
    2.7900   24.9090   34.4110 C   0  0  0  0  0  0  0  0  0  0  0  0
    3.1050   28.4610   32.6710 C   0  0  0  0  0  0  0  0  0  0  0  0
    4.8450   25.4000   32.1710 C   0  0  0  0  0  0  0  0  0  0  0  0
    3.9676   17.9051   35.8742 H   0  0  0  0  0  0  0  0  0  0  0  0
    0.5640   18.8934   42.8705 H   0  0  0  0  0  0  0  0  0  0  0  0
    1.1317   20.9204   41.8657 H   0  0  0  0  0  0  0  0  0  0  0  0
    2.0270   21.0507   40.3139 H   0  0  0  0  0  0  0  0  0  0  0  0
    0.2939   20.5786   40.3139 H   0  0  0  0  0  0  0  0  0  0  0  0
    3.8654   22.1926   35.5863 H   0  0  0  0  0  0  0  0  0  0  0  0
    4.6420   20.9626   34.5324 H   0  0  0  0  0  0  0  0  0  0  0  0
    5.2446   22.6548   34.5324 H   0  0  0  0  0  0  0  0  0  0  0  0
    5.1132   27.2680   31.8475 H   0  0  0  0  0  0  0  0  0  0  0  0
    5.1300   25.9285   30.4353 H   0  0  0  0  0  0  0  0  0  0  0  0
    0.4208   27.5689   32.2045 H   0  0  0  0  0  0  0  0  0  0  0  0
    0.7367   28.4488   30.7882 H   0  0  0  0  0  0  0  0  0  0  0  0
    5.4350   23.8148   33.1507 H   0  0  0  0  0  0  0  0  0  0  0  0
    4.0030   23.7747   31.8064 H   0  0  0  0  0  0  0  0  0  0  0  0
    0.8580   29.7660   33.0752 H   0  0  0  0  0  0  0  0  0  0  0  0
    1.7685   23.5397   34.9612 H   0  0  0  0  0  0  0  0  0  0  0  0
    1.2153   24.2083   33.6236 H   0  0  0  0  0  0  0  0  0  0  0  0
    2.5184   22.6722   34.0339 H   0  0  0  0  0  0  0  0  0  0  0  0
    3.8976   23.1345   32.9800 H   0  0  0  0  0  0  0  0  0  0  0  0
    3.2950   21.4423   32.9800 H   0  0  0  0  0  0  0  0  0  0  0  0
    2.1904   15.8181   36.6179 H   0  0  0  0  0  0  0  0  0  0  0  0
    2.2965   15.6355   38.4725 H   0  0  0  0  0  0  0  0  0  0  0  0
    2.1309   26.4599   31.6419 H   0  0  0  0  0  0  0  0  0  0  0  0
    3.2849   29.8921   31.1285 H   0  0  0  0  0  0  0  0  0  0  0  0
    3.6473   30.6229   32.4815 H   0  0  0  0  0  0  0  0  0  0  0  0
    2.8853   26.0577   30.2208 H   0  0  0  0  0  0  0  0  0  0  0  0
    3.6685   27.7018   30.0040 H   0  0  0  0  0  0  0  0  0  0  0  0
    0.9575   16.4356   44.0709 H   0  0  0  0  0  0  0  0  0  0  0  0
   -0.2788   15.7803   42.9444 H   0  0  0  0  0  0  0  0  0  0  0  0
    1.3851   15.1033   42.9444 H   0  0  0  0  0  0  0  0  0  0  0  0
    3.3467   22.7849   33.4059 H   0  0  0  0  0  0  0  0  0  0  0  0
    3.9472   24.5319   34.3831 H   0  0  0  0  0  0  0  0  0  0  0  0
    2.8465   24.9773   35.5074 H   0  0  0  0  0  0  0  0  0  0  0  0
    3.7927   24.7120   34.0038 H   0  0  0  0  0  0  0  0  0  0  0  0
    2.4086   25.8570   34.0038 H   0  0  0  0  0  0  0  0  0  0  0  0
    3.8888   27.9912   33.2832 H   0  0  0  0  0  0  0  0  0  0  0  0
    5.8957   25.1715   31.9391 H   0  0  0  0  0  0  0  0  0  0  0  0
    4.0608   25.8520   32.7961 H   0  0  0  0  0  0  0  0  0  0  0  0
  1  8  2  0
  2  5  2  0
  2 27  1  0
  3 18  1  0
  3  1  1  0
  4  9  1  0
  4 22  1  0
  6 15  1  0
  8 11  1  0
 10 31  1  0
 11 19  1  0
 11 15  2  0
 13 28  1  0
 14 12  1  0
 14 30  1  0
 15  5  1  0
 16  4  2  0
 17  8  1  0
 18 17  1  0
 19  2  1  0
 20 29  1  0
 21  7  1  0
 22  1  1  0
 23 26  1  0
 23 12  1  0
 23 30  1  0
 24 18  2  0
 25 14  1  0
 26 10  1  0
 28 20  1  0
 30 25  1  0
 31 13  1  0
  3 32  1  0
  5 33  1  0
  6 34  1  0
  6 35  1  0
  6 36  1  0
  7 37  1  0
  7 38  1  0
  7 39  1  0
 10 40  1  0
 10 41  1  0
 12 42  1  0
 12 43  1  0
 13 44  1  0
 13 45  1  0
 14 46  1  0
 20 47  1  0
 20 48  1  0
 21 49  1  0
 21 50  1  0
 21 51  1  0
 22 52  1  0
 22 53  1  0
 23 54  1  0
 25 55  1  0
 25 56  1  0
 26 57  1  0
 26 58  1  0
 27 59  1  0
 27 60  1  0
 27 61  1  0
 28 62  1  0
 28 63  1  0
 29 64  1  0
 29 65  1  0
 29 66  1  0
 30 67  1  0
 31 68  1  0
 31 69  1  0
M  CHG  1   9  -1
M  END
>  <mol_id>  (49) 
2026-09-16-6tgu-s0-n100-0049

>  <rmsd_to_ref>  (49) 


$$$$

     RDKit          3D

 26 26  0  0  0  0  0  0  0  0999 V2000
    3.7450   17.7080   39.1640 C   0  0  0  0  0  0  0  0  0  0  0  0
    1.9880   22.7290   34.3120 O   0  0  0  0  0  0  0  0  0  0  0  0
    3.4180   22.8590   34.5590 S   0  0  0  0  0  6  0  0  0  0  0  0
    3.6220   19.2080   39.1670 C   0  0  0  0  0  0  0  0  0  0  0  0
    2.4340   19.7450   39.9260 C   0  0  0  0  0  0  0  0  0  0  0  0
    3.5420   21.6120   35.7780 C   0  0  0  0  0  0  0  0  0  0  0  0
    2.9920   21.9610   37.0640 C   0  0  0  0  0  0  0  0  0  0  0  0
    2.6440   23.0570   37.4280 O   0  0  0  0  0  0  0  0  0  0  0  0
    3.5200   19.7590   37.7490 C   0  0  0  0  0  0  0  0  0  0  0  0
    4.0850   24.4820   35.2550 S   0  0  0  0  0  0  0  0  0  0  0  0
    2.1650   21.0390   39.2420 C   0  0  0  0  0  0  0  0  0  0  0  0
    4.1180   23.0310   33.2270 O   0  0  0  0  0  0  0  0  0  0  0  0
    2.8700   21.0270   37.9280 N   0  0  0  0  0  0  0  0  0  0  0  0
    3.7751   17.3405   40.2004 H   0  0  0  0  0  0  0  0  0  0  0  0
    2.8797   17.2702   38.6447 H   0  0  0  0  0  0  0  0  0  0  0  0
    4.6700   17.4170   38.6447 H   0  0  0  0  0  0  0  0  0  0  0  0
    4.5391   19.5395   39.6760 H   0  0  0  0  0  0  0  0  0  0  0  0
    1.5719   19.0667   39.8444 H   0  0  0  0  0  0  0  0  0  0  0  0
    2.6182   19.8523   41.0051 H   0  0  0  0  0  0  0  0  0  0  0  0
    3.0116   20.7212   35.4103 H   0  0  0  0  0  0  0  0  0  0  0  0
    4.6173   21.4445   35.9385 H   0  0  0  0  0  0  0  0  0  0  0  0
    2.9178   19.0950   37.1115 H   0  0  0  0  0  0  0  0  0  0  0  0
    4.4973   19.8450   37.2514 H   0  0  0  0  0  0  0  0  0  0  0  0
    4.0653   24.4341   36.6240 H   0  0  0  0  0  0  0  0  0  0  0  0
    1.0831   21.1583   39.0830 H   0  0  0  0  0  0  0  0  0  0  0  0
    2.5243   21.8763   39.8583 H   0  0  0  0  0  0  0  0  0  0  0  0
  2  3  2  0
  3 10  1  0
  3  6  1  0
  4  1  1  0
  4  5  1  0
  6  7  1  0
  7  8  2  0
  7 13  1  0
  9 13  1  0
  9  4  1  0
 11  5  1  0
 12  3  2  0
 13 11  1  0
  1 14  1  0
  1 15  1  0
  1 16  1  0
  4 17  1  0
  5 18  1  0
  5 19  1  0
  6 20  1  0
  6 21  1  0
  9 22  1  0
  9 23  1  0
 10 24  1  0
 11 25  1  0
 11 26  1  0
M  END
>  <mol_id>  (50) 
2026-09-16-6tgu-s0-n100-0050

>  <rmsd_to_ref>  (50) 


$$$$

     RDKit          3D

 44 46  0  0  0  0  0  0  0  0999 V2000
    2.3980   24.2740   30.4340 C   0  0  0  0  0  0  0  0  0  0  0  0
    2.2180   15.0390   40.3630 C   0  0  0  0  0  0  0  0  0  0  0  0
    1.0450   24.4210   31.6920 S   0  0  0  0  0  0  0  0  0  0  0  0
    1.8800   14.2180   41.2350 O   0  0  0  0  0  1  0  0  0  0  0  0
    3.5080   23.2800   31.3350 C   0  0  0  0  0  0  0  0  0  0  0  0
    3.0950   17.2060   39.3280 O   0  0  0  0  0  0  0  0  0  0  0  0
    3.0180   19.9090   39.1810 S   0  0  0  0  0  6  0  0  0  0  0  0
    1.9790   25.0050   29.1330 C   0  0  0  0  0  0  0  0  0  0  0  0
    2.6620   23.3680   32.3200 C   0  0  0  0  0  0  0  0  0  0  0  0
    2.9550   20.2460   37.7720 N   0  0  0  0  0  0  0  0  0  0  0  0
    1.5720   18.3470   40.6370 O   0  0  0  0  0  0  0  0  0  0  0  0
    4.2320   19.8090   39.7270 O   0  0  0  0  0  0  0  0  0  0  0  0
    1.4810   17.1410   41.0220 C   0  0  0  0  0  0  0  0  0  0  0  0
    2.5860   14.4570   39.0930 O   0  0  0  0  0  0  0  0  0  0  0  0
    2.2750   22.6720   35.1630 C   0  0  0  0  0  0  0  0  0  0  0  0
    2.2370   21.1980   37.2060 C   0  0  0  0  0  0  0  0  0  0  0  0
    3.7040   22.3540   33.5300 C   0  0  0  0  0  0  0  0  0  0  0  0
    4.9220   23.8000   31.3770 C   0  0  0  0  0  0  0  0  0  0  0  0
    3.9700   24.2900   30.3560 C   0  0  0  0  0  0  0  0  0  0  0  0
    2.2140   16.3150   40.3600 C   0  0  0  0  0  0  0  0  0  0  0  0
    2.9240   18.2340   39.6190 C   0  0  0  0  0  0  0  0  0  0  0  0
    2.1290   20.7210   39.8710 O   0  0  0  0  0  0  0  0  0  0  0  0
    2.5630   21.3680   36.0330 C   0  0  0  0  0  0  0  0  0  0  0  0
    2.5040   22.8080   33.6650 C   0  0  0  0  0  0  0  0  0  0  0  0
    1.5832   24.3625   32.9505 H   0  0  0  0  0  0  0  0  0  0  0  0
    1.4470   25.9331   29.3890 H   0  0  0  0  0  0  0  0  0  0  0  0
    2.8755   25.2470   28.5434 H   0  0  0  0  0  0  0  0  0  0  0  0
    1.3171   24.3537   28.5434 H   0  0  0  0  0  0  0  0  0  0  0  0
    2.6537   24.4497   32.5194 H   0  0  0  0  0  0  0  0  0  0  0  0
    1.9528   22.6602   31.8661 H   0  0  0  0  0  0  0  0  0  0  0  0
    3.9278   20.4578   37.5082 H   0  0  0  0  0  0  0  0  0  0  0  0
    1.7790   17.0940   42.0798 H   0  0  0  0  0  0  0  0  0  0  0  0
    0.4370   16.8365   40.8569 H   0  0  0  0  0  0  0  0  0  0  0  0
    1.8759   23.5502   35.6916 H   0  0  0  0  0  0  0  0  0  0  0  0
    1.1745   20.9161   37.2450 H   0  0  0  0  0  0  0  0  0  0  0  0
    2.4122   22.1358   37.7535 H   0  0  0  0  0  0  0  0  0  0  0  0
    4.1676   21.7749   34.3423 H   0  0  0  0  0  0  0  0  0  0  0  0
    4.2636   22.5460   32.6026 H   0  0  0  0  0  0  0  0  0  0  0  0
    5.2423   24.4618   32.1952 H   0  0  0  0  0  0  0  0  0  0  0  0
    5.9229   23.3441   31.3569 H   0  0  0  0  0  0  0  0  0  0  0  0
    4.3649   24.8957   29.5270 H   0  0  0  0  0  0  0  0  0  0  0  0
    1.3792   16.3107   39.6437 H   0  0  0  0  0  0  0  0  0  0  0  0
    4.0037   18.0816   39.4739 H   0  0  0  0  0  0  0  0  0  0  0  0
    3.1021   20.5460   35.5393 H   0  0  0  0  0  0  0  0  0  0  0  0
  1  8  1  0
  1  5  1  0
  1  3  1  0
  2  4  1  0
  5 18  1  0
  5  9  1  0
  6 21  1  0
  6 20  1  0
  7 12  2  0
  7 22  2  0
  9 24  1  0
 10  7  1  0
 11 13  1  0
 14  2  2  0
 15 23  2  3
 16 10  1  0
 17 24  2  3
 19  1  1  0
 19  5  1  0
 19 18  1  0
 20  2  1  0
 20 13  1  0
 21  7  1  0
 21 11  1  0
 23 16  1  0
 24 15  1  0
  3 25  1  0
  8 26  1  0
  8 27  1  0
  8 28  1  0
  9 29  1  0
  9 30  1  0
 10 31  1  0
 13 32  1  0
 13 33  1  0
 15 34  1  0
 16 35  1  0
 16 36  1  0
 17 37  1  0
 17 38  1  0
 18 39  1  0
 18 40  1  0
 19 41  1  0
 20 42  1  0
 21 43  1  0
 23 44  1  0
M  CHG  1   4  -1
M  END
>  <mol_id>  (51) 
2026-09-16-6tgu-s0-n100-0051

>  <rmsd_to_ref>  (51) 


$$$$

     RDKit          3D

 41 41  0  0  0  0  0  0  0  0999 V2000
    3.1870   18.3120   40.4230 C   0  0  0  0  0  0  0  0  0  0  0  0
    3.4840   20.5080   37.1040 C   0  0  0  0  0  0  0  0  0  0  0  0
    1.3030   19.8430   41.1090 C   0  0  0  0  0  0  0  0  0  0  0  0
    2.0280   22.5810   34.4310 C   0  0  0  0  0  0  0  0  0  0  0  0
    2.8990   23.5680   33.6790 C   0  0  0  0  0  0  0  0  0  0  0  0
    2.8590   19.7070   38.2820 C   0  0  0  0  0  0  0  0  0  0  0  0
    1.6450   18.4430   40.6790 C   0  0  0  0  0  0  0  0  0  0  0  0
    4.5810   23.7620   33.9740 S   0  0  0  0  0  0  0  0  0  0  0  0
    2.4900   23.5740   31.9570 S   0  0  0  0  0  0  0  0  0  0  0  0
    2.6470   21.1390   36.2650 N   0  0  0  0  0  0  0  0  0  0  0  0
    1.2730   17.4650   41.6300 O   0  0  0  0  0  0  0  0  0  0  0  0
    4.9550   24.1520   32.3600 C   0  0  0  0  0  0  0  0  0  0  0  0
    3.7290   25.0720   30.1080 C   0  0  0  0  0  0  0  0  0  0  0  0
    3.8650   19.2180   39.4340 C   0  0  0  0  0  0  0  0  0  0  0  0
    3.8980   24.3760   31.4310 C   0  0  0  0  0  0  0  0  0  0  0  0
    4.6560   20.4660   36.8330 O   0  0  0  0  0  0  0  0  0  0  0  0
    1.9610   20.6540   38.9770 O   0  0  0  0  0  0  0  0  0  0  0  0
    3.1540   21.8850   35.1850 C   0  0  0  0  0  0  0  0  0  0  0  0
    3.6841   18.4706   41.3914 H   0  0  0  0  0  0  0  0  0  0  0  0
    3.2828   17.3180   39.9617 H   0  0  0  0  0  0  0  0  0  0  0  0
    1.2900   19.8963   42.2076 H   0  0  0  0  0  0  0  0  0  0  0  0
    2.0569   20.5415   40.7169 H   0  0  0  0  0  0  0  0  0  0  0  0
    0.3119   20.1152   40.7169 H   0  0  0  0  0  0  0  0  0  0  0  0
    1.4862   21.8993   33.7589 H   0  0  0  0  0  0  0  0  0  0  0  0
    1.2136   23.0031   35.0381 H   0  0  0  0  0  0  0  0  0  0  0  0
    2.6014   24.4877   34.2040 H   0  0  0  0  0  0  0  0  0  0  0  0
    2.4147   18.8090   37.8279 H   0  0  0  0  0  0  0  0  0  0  0  0
    1.0737   18.2624   39.7565 H   0  0  0  0  0  0  0  0  0  0  0  0
    1.6295   21.0767   36.4125 H   0  0  0  0  0  0  0  0  0  0  0  0
    1.4094   17.8235   42.5427 H   0  0  0  0  0  0  0  0  0  0  0  0
    5.5600   25.0703   32.3843 H   0  0  0  0  0  0  0  0  0  0  0  0
    5.4452   23.2432   31.9807 H   0  0  0  0  0  0  0  0  0  0  0  0
    3.4726   26.1279   30.2793 H   0  0  0  0  0  0  0  0  0  0  0  0
    4.6682   25.0104   29.5387 H   0  0  0  0  0  0  0  0  0  0  0  0
    2.9226   24.5866   29.5387 H   0  0  0  0  0  0  0  0  0  0  0  0
    4.7009   18.6748   38.9691 H   0  0  0  0  0  0  0  0  0  0  0  0
    4.2216   20.1069   39.9749 H   0  0  0  0  0  0  0  0  0  0  0  0
    3.5731   25.2884   31.9525 H   0  0  0  0  0  0  0  0  0  0  0  0
    2.0625   20.5470   39.9560 H   0  0  0  0  0  0  0  0  0  0  0  0
    3.6843   21.2094   34.4977 H   0  0  0  0  0  0  0  0  0  0  0  0
    3.8408   22.6497   35.5768 H   0  0  0  0  0  0  0  0  0  0  0  0
  1  7  1  0
  2  6  1  0
  4 18  1  0
  5  8  1  0
  5  4  1  0
  6 17  1  0
  6 14  1  0
  7  3  1  0
  7 11  1  0
  9  5  1  0
 10  2  1  0
 12  8  1  0
 14  1  1  0
 15 13  1  0
 15  9  1  0
 15 12  1  0
 16  2  2  0
 18 10  1  0
  1 19  1  0
  1 20  1  0
  3 21  1  0
  3 22  1  0
  3 23  1  0
  4 24  1  0
  4 25  1  0
  5 26  1  0
  6 27  1  0
  7 28  1  0
 10 29  1  0
 11 30  1  0
 12 31  1  0
 12 32  1  0
 13 33  1  0
 13 34  1  0
 13 35  1  0
 14 36  1  0
 14 37  1  0
 15 38  1  0
 17 39  1  0
 18 40  1  0
 18 41  1  0
M  END
>  <mol_id>  (52) 
2026-09-16-6tgu-s0-n100-0052

>  <rmsd_to_ref>  (52) 


$$$$

     RDKit          3D

 39 40  0  0  0  0  0  0  0  0999 V2000
    4.6700   23.2120   31.3550 C   0  0  0  0  0  0  0  0  0  0  0  0
    4.3330   19.3700   39.7440 C   0  0  0  0  0  0  0  0  0  0  0  0
    4.0180   22.6090   32.2280 C   0  0  0  0  0  0  0  0  0  0  0  0
    1.2550   18.7020   41.4580 C   0  0  0  0  0  0  0  0  0  0  0  0
    4.3880   23.9500   30.6830 O   0  0  0  0  0  0  0  0  0  0  0  0
    3.6110   22.5400   33.5580 C   0  0  0  0  0  0  0  0  0  0  0  0
    1.9830   20.0330   39.6080 C   0  0  0  0  0  0  0  0  0  0  0  0
    2.1260   21.4060   36.0230 C   0  0  0  0  0  0  0  0  0  0  0  0
    4.4970   21.8810   34.5140 C   0  0  0  0  0  0  0  0  0  0  0  0
    1.2940   20.0020   40.7280 C   0  0  0  0  0  0  0  0  0  0  0  0
    2.6680   20.7260   37.3130 C   0  0  0  0  0  0  0  0  0  0  0  0
    2.9890   18.9770   39.3620 C   0  0  0  0  0  0  0  0  0  0  0  0
    5.2240   22.4160   31.8570 O   0  0  0  0  0  0  0  0  0  0  0  0
    2.9690   21.6190   34.7490 C   0  0  0  0  0  0  0  0  0  0  0  0
    0.0820   18.6490   42.2820 C   0  0  0  0  0  0  0  0  0  0  0  0
    1.9520   21.1080   38.5740 C   0  0  0  0  0  0  0  0  0  0  0  0
   -0.8050   18.4970   42.9710 C   0  0  0  0  0  0  0  0  0  0  0  0
    4.4105   19.3927   40.8410 H   0  0  0  0  0  0  0  0  0  0  0  0
    5.0556   18.6455   39.3402 H   0  0  0  0  0  0  0  0  0  0  0  0
    4.5514   20.3696   39.3402 H   0  0  0  0  0  0  0  0  0  0  0  0
    2.9491   22.3514   32.2613 H   0  0  0  0  0  0  0  0  0  0  0  0
    2.1508   18.6096   42.0896 H   0  0  0  0  0  0  0  0  0  0  0  0
    1.2299   17.8757   40.7324 H   0  0  0  0  0  0  0  0  0  0  0  0
    3.1347   23.4466   33.1564 H   0  0  0  0  0  0  0  0  0  0  0  0
    2.8013   20.5547   40.1259 H   0  0  0  0  0  0  0  0  0  0  0  0
    1.2575   20.8074   35.7110 H   0  0  0  0  0  0  0  0  0  0  0  0
    1.9964   22.4425   36.3677 H   0  0  0  0  0  0  0  0  0  0  0  0
    5.1346   21.0535   34.1695 H   0  0  0  0  0  0  0  0  0  0  0  0
    5.2981   22.2555   35.1682 H   0  0  0  0  0  0  0  0  0  0  0  0
    1.7276   20.7516   41.4063 H   0  0  0  0  0  0  0  0  0  0  0  0
    0.2529   20.1965   40.4308 H   0  0  0  0  0  0  0  0  0  0  0  0
    2.5821   19.6366   37.1874 H   0  0  0  0  0  0  0  0  0  0  0  0
    3.7065   21.0690   37.4307 H   0  0  0  0  0  0  0  0  0  0  0  0
    2.7078   18.0843   39.9400 H   0  0  0  0  0  0  0  0  0  0  0  0
    3.0001   18.7807   38.2797 H   0  0  0  0  0  0  0  0  0  0  0  0
    2.0781   20.9763   34.8050 H   0  0  0  0  0  0  0  0  0  0  0  0
    0.9027   21.3288   38.3286 H   0  0  0  0  0  0  0  0  0  0  0  0
    2.4676   21.9844   38.9936 H   0  0  0  0  0  0  0  0  0  0  0  0
   -1.6659   18.3495   43.6397 H   0  0  0  0  0  0  0  0  0  0  0  0
  1 13  1  0
  3  1  1  0
  3  6  1  0
  4 15  1  0
  5  1  2  0
  6  9  1  0
  6 14  1  0
  7 16  1  0
  7 10  1  0
  8 11  1  0
  9 14  1  0
 10  4  1  0
 11 16  1  0
 12  7  1  0
 12  2  1  0
 13  3  1  0
 14  8  1  0
 15 17  3  0
  2 18  1  0
  2 19  1  0
  2 20  1  0
  3 21  1  0
  4 22  1  0
  4 23  1  0
  6 24  1  0
  7 25  1  0
  8 26  1  0
  8 27  1  0
  9 28  1  0
  9 29  1  0
 10 30  1  0
 10 31  1  0
 11 32  1  0
 11 33  1  0
 12 34  1  0
 12 35  1  0
 14 36  1  0
 16 37  1  0
 16 38  1  0
 17 39  1  0
M  END
>  <mol_id>  (53) 
2026-09-16-6tgu-s0-n100-0053

>  <rmsd_to_ref>  (53) 


$$$$

     RDKit          3D

 45 45  0  0  0  0  0  0  0  0999 V2000
    5.2790   15.5660   36.7850 N   0  0  0  0  0  0  0  0  0  0  0  0
    1.3950   22.0610   36.8140 O   0  0  0  0  0  0  0  0  0  0  0  0
    1.8980   20.5220   40.6760 C   0  0  0  0  0  0  0  0  0  0  0  0
   -1.0770   20.4890   43.0250 C   0  0  0  0  0  0  0  0  0  0  0  0
    3.8750   22.5400   32.2490 C   0  0  0  0  0  0  0  0  0  0  0  0
    2.6560   15.6900   37.7480 C   0  0  0  0  0  0  0  0  0  0  0  0
    2.6250   24.7820   32.1850 C   0  0  0  0  0  0  0  0  0  0  0  0
    2.3310   21.2960   36.8700 C   0  0  0  0  0  0  0  0  0  0  0  0
    3.0770   18.1340   38.2990 C   0  0  0  0  0  0  0  0  0  0  0  0
    2.9460   19.2160   37.5700 N   0  0  0  0  0  0  0  0  0  0  0  0
    5.4260   13.5270   36.2280 N   0  0  0  0  0  0  0  0  0  0  0  0
    3.5310   22.2320   33.5660 C   0  0  0  0  0  0  0  0  0  0  0  0
    4.5660   14.3540   36.8820 C   0  0  0  0  0  0  0  0  0  0  0  0
    0.9680   21.0990   41.5620 C   0  0  0  0  0  0  0  0  0  0  0  0
    2.9270   22.2300   34.6820 C   0  0  0  0  0  0  0  0  0  0  0  0
    4.5990   16.7010   37.2960 C   0  0  0  0  0  0  0  0  0  0  0  0
    3.2310   14.3830   37.3770 C   0  0  0  0  0  0  0  0  0  0  0  0
    4.0430   23.9750   30.1830 C   0  0  0  0  0  0  0  0  0  0  0  0
    1.9380   20.7760   39.3220 C   0  0  0  0  0  0  0  0  0  0  0  0
    3.4360   16.8190   37.7500 C   0  0  0  0  0  0  0  0  0  0  0  0
    2.4290   20.3650   38.0380 C   0  0  0  0  0  0  0  0  0  0  0  0
    3.5380   23.7630   31.6000 C   0  0  0  0  0  0  0  0  0  0  0  0
    3.2110   21.3340   35.8140 N   0  0  0  0  0  0  0  0  0  0  0  0
    2.9300   18.1440   39.5810 O   0  0  0  0  0  0  0  0  0  0  0  0
   -0.0770   20.7280   42.2780 C   0  0  0  0  0  0  0  0  0  0  0  0
    2.6399   19.8240   41.0911 H   0  0  0  0  0  0  0  0  0  0  0  0
   -1.9425   20.2821   43.6716 H   0  0  0  0  0  0  0  0  0  0  0  0
    4.4419   21.7916   31.6759 H   0  0  0  0  0  0  0  0  0  0  0  0
    1.5938   15.7600   38.0252 H   0  0  0  0  0  0  0  0  0  0  0  0
    2.6721   24.7294   33.2827 H   0  0  0  0  0  0  0  0  0  0  0  0
    2.9329   25.7843   31.8524 H   0  0  0  0  0  0  0  0  0  0  0  0
    1.5951   24.5856   31.8524 H   0  0  0  0  0  0  0  0  0  0  0  0
    5.1965   12.5291   36.1166 H   0  0  0  0  0  0  0  0  0  0  0  0
    6.3066   13.8989   35.8443 H   0  0  0  0  0  0  0  0  0  0  0  0
    1.6267   21.5286   42.3312 H   0  0  0  0  0  0  0  0  0  0  0  0
    0.3461   21.4984   40.7473 H   0  0  0  0  0  0  0  0  0  0  0  0
    2.1186   22.9640   34.8150 H   0  0  0  0  0  0  0  0  0  0  0  0
    5.1883   17.6298   37.2937 H   0  0  0  0  0  0  0  0  0  0  0  0
    2.6454   13.4575   37.4798 H   0  0  0  0  0  0  0  0  0  0  0  0
    5.0568   24.4006   30.2149 H   0  0  0  0  0  0  0  0  0  0  0  0
    4.0666   23.0108   29.6540 H   0  0  0  0  0  0  0  0  0  0  0  0
    3.3713   24.6671   29.6540 H   0  0  0  0  0  0  0  0  0  0  0  0
    1.3359   21.6811   39.1537 H   0  0  0  0  0  0  0  0  0  0  0  0
    4.4051   24.3151   31.9916 H   0  0  0  0  0  0  0  0  0  0  0  0
    4.0556   20.7445   35.8154 H   0  0  0  0  0  0  0  0  0  0  0  0
  1 13  2  0
  1 16  1  0
  2  8  2  0
  3 14  1  0
  5 12  2  0
  6 20  1  0
  8 21  1  0
  9 24  2  0
 10 21  2  3
 10  9  1  0
 11 13  1  0
 12 15  2  0
 13 17  1  0
 14 25  1  0
 15 23  1  0
 16 20  2  0
 17  6  2  0
 18 22  1  0
 19  3  2  3
 20  9  1  0
 21 19  1  0
 22  7  1  0
 22  5  1  0
 23  8  1  0
 25  4  3  0
  3 26  1  0
  4 27  1  0
  5 28  1  0
  6 29  1  0
  7 30  1  0
  7 31  1  0
  7 32  1  0
 11 33  1  0
 11 34  1  0
 14 35  1  0
 14 36  1  0
 15 37  1  0
 16 38  1  0
 17 39  1  0
 18 40  1  0
 18 41  1  0
 18 42  1  0
 19 43  1  0
 22 44  1  0
 23 45  1  0
M  END
>  <mol_id>  (54) 
2026-09-16-6tgu-s0-n100-0054

>  <rmsd_to_ref>  (54) 


$$$$

     RDKit          3D

 63 66  0  0  0  0  0  0  0  0999 V2000
    1.6840   28.0940   33.8090 C   0  0  0  0  0  0  0  0  0  0  0  0
    1.2620   19.8320   41.3200 C   0  0  0  0  0  0  0  0  0  0  0  0
    3.1140   24.4160   34.2110 C   0  0  0  0  0  0  0  0  0  0  0  0
    3.5660   21.3390   35.9620 C   0  0  0  0  0  0  0  0  0  0  0  0
    0.6790   17.2060   42.7360 C   0  0  0  0  0  0  0  0  0  0  0  0
    0.1260   27.5000   29.1790 C   0  0  0  0  0  0  0  0  0  0  0  0
    1.3130   17.2510   41.4620 C   0  0  0  0  0  0  0  0  0  0  0  0
    3.3820   16.8320   37.9960 C   0  0  0  0  0  0  0  0  0  0  0  0
    4.0150   21.7370   34.5800 C   0  0  0  0  0  0  0  0  0  0  0  0
    2.9330   19.4430   38.5900 C   0  0  0  0  0  0  0  0  0  0  0  0
    3.4780   23.2180   34.3020 C   0  0  0  0  0  0  0  0  0  0  0  0
    2.5240   18.5040   39.5830 C   0  0  0  0  0  0  0  0  0  0  0  0
    1.7900   16.1000   40.8450 C   0  0  0  0  0  0  0  0  0  0  0  0
    3.7640   13.6650   38.6400 N   0  0  0  0  0  0  0  0  0  0  0  0
    2.1380   26.2210   32.4470 C   0  0  0  0  0  0  0  0  0  0  0  0
    1.5940   21.1350   40.5890 C   0  0  0  0  0  0  0  0  0  0  0  0
    0.8730   28.7100   29.5190 C   0  0  0  0  0  0  0  0  0  0  0  0
    2.8110   17.4660   39.2720 C   0  0  0  0  0  0  0  0  0  0  0  0
    1.1170   27.4270   30.0720 C   0  0  0  0  0  0  0  0  0  0  0  0
    2.2180   29.3410   29.5420 F   0  0  0  0  0  0  0  0  0  0  0  0
    2.4400   16.3120   39.8470 N   0  0  0  0  0  0  0  0  0  0  0  0
    0.7250   19.9690   42.4950 O   0  0  0  0  0  0  0  0  0  0  0  0
    3.8460   20.0130   36.2390 O   0  0  0  0  0  0  0  0  0  0  0  0
    1.6080   18.5010   40.8740 N   0  0  0  0  0  0  0  0  0  0  0  0
    3.4880   19.2100   37.3150 C   0  0  0  0  0  0  0  0  0  0  0  0
    3.9200   17.7810   37.1250 C   0  0  0  0  0  0  0  0  0  0  0  0
    1.5640   26.5890   30.9220 N   0  0  0  0  0  0  0  0  0  0  0  0
    2.0990   27.5360   32.0890 C   0  0  0  0  0  0  0  0  0  0  0  0
    1.7420   14.9570   41.3620 O   0  0  0  0  0  0  0  0  0  0  0  0
    1.5680   28.5550   32.6650 C   0  0  0  0  0  0  0  0  0  0  0  0
    1.9980   25.8630   33.7350 C   0  0  0  0  0  0  0  0  0  0  0  0
    3.3230   14.0980   38.7860 N   0  0  0  0  0  0  0  0  0  0  0  0
    1.7810   27.0200   34.5650 C   0  0  0  0  0  0  0  0  0  0  0  0
    0.8123   28.5689   34.2830 H   0  0  0  0  0  0  0  0  0  0  0  0
    2.7784   28.1097   33.6992 H   0  0  0  0  0  0  0  0  0  0  0  0
    2.4801   21.4961   36.0410 H   0  0  0  0  0  0  0  0  0  0  0  0
    4.1131   21.9591   36.6873 H   0  0  0  0  0  0  0  0  0  0  0  0
    1.4414   17.2601   43.5271 H   0  0  0  0  0  0  0  0  0  0  0  0
   -0.0107   18.0575   42.8326 H   0  0  0  0  0  0  0  0  0  0  0  0
    0.1165   16.2657   42.8326 H   0  0  0  0  0  0  0  0  0  0  0  0
   -0.9177   27.3896   29.5084 H   0  0  0  0  0  0  0  0  0  0  0  0
   -0.1112   26.9750   28.2419 H   0  0  0  0  0  0  0  0  0  0  0  0
    2.2876   17.3922   41.9520 H   0  0  0  0  0  0  0  0  0  0  0  0
    4.1737   16.1223   38.2780 H   0  0  0  0  0  0  0  0  0  0  0  0
    2.5558   16.3275   37.4735 H   0  0  0  0  0  0  0  0  0  0  0  0
    5.1134   21.7200   34.5235 H   0  0  0  0  0  0  0  0  0  0  0  0
    3.6195   21.0365   33.8297 H   0  0  0  0  0  0  0  0  0  0  0  0
    2.7956   20.5011   38.8575 H   0  0  0  0  0  0  0  0  0  0  0  0
    2.6337   25.2654   32.6730 H   0  0  0  0  0  0  0  0  0  0  0  0
    1.7958   21.9272   41.3250 H   0  0  0  0  0  0  0  0  0  0  0  0
    2.4827   20.9854   39.9583 H   0  0  0  0  0  0  0  0  0  0  0  0
    0.7420   21.4289   39.9583 H   0  0  0  0  0  0  0  0  0  0  0  0
    0.4390   29.7120   29.3865 H   0  0  0  0  0  0  0  0  0  0  0  0
    1.9437   26.9839   30.6467 H   0  0  0  0  0  0  0  0  0  0  0  0
    2.7624   15.4653   39.3570 H   0  0  0  0  0  0  0  0  0  0  0  0
    3.6449   17.4851   36.1019 H   0  0  0  0  0  0  0  0  0  0  0  0
    4.9997   17.7801   37.3355 H   0  0  0  0  0  0  0  0  0  0  0  0
    2.8525   28.3371   32.1108 H   0  0  0  0  0  0  0  0  0  0  0  0
    2.1406   29.4820   32.5141 H   0  0  0  0  0  0  0  0  0  0  0  0
    0.5666   28.8691   32.3354 H   0  0  0  0  0  0  0  0  0  0  0  0
    1.0573   25.3389   33.9595 H   0  0  0  0  0  0  0  0  0  0  0  0
    2.6262   27.1362   35.2594 H   0  0  0  0  0  0  0  0  0  0  0  0
    0.8501   26.8902   35.1365 H   0  0  0  0  0  0  0  0  0  0  0  0
  1 33  1  0
  2 22  2  0
  3 11  3  0
  4 23  1  0
  6 17  1  0
  6 19  1  0
  7  5  1  0
  8 18  1  0
  9  4  1  0
 10 12  1  0
 11  9  1  0
 12 24  1  0
 13 29  2  0
 13  7  1  0
 14 32  3  0
 15 31  1  0
 16  2  1  0
 17 20  1  0
 17 19  1  0
 18 12  2  0
 18 21  1  0
 19 27  1  0
 21 13  1  0
 23 25  1  0
 24  2  1  0
 24  7  1  0
 25 10  2  0
 26 25  1  0
 26  8  1  0
 27 28  1  0
 27 15  1  0
 28 15  1  0
 28 30  1  0
 30  1  1  0
 31  3  1  0
 31 33  1  0
  1 34  1  0
  1 35  1  0
  4 36  1  0
  4 37  1  0
  5 38  1  0
  5 39  1  0
  5 40  1  0
  6 41  1  0
  6 42  1  0
  7 43  1  0
  8 44  1  0
  8 45  1  0
  9 46  1  0
  9 47  1  0
 10 48  1  0
 15 49  1  0
 16 50  1  0
 16 51  1  0
 16 52  1  0
 17 53  1  0
 19 54  1  0
 21 55  1  0
 26 56  1  0
 26 57  1  0
 28 58  1  0
 30 59  1  0
 30 60  1  0
 31 61  1  0
 33 62  1  0
 33 63  1  0
M  END
>  <mol_id>  (55) 
2026-09-16-6tgu-s0-n100-0055

>  <rmsd_to_ref>  (55) 


$$$$

     RDKit          3D

 45 47  0  0  0  0  0  0  0  0999 V2000
    2.0940   16.9810   40.4640 C   0  0  0  0  0  0  0  0  0  0  0  0
    3.0540   20.1120   37.3660 C   0  0  0  0  0  0  0  0  0  0  0  0
    3.5680   17.8220   37.7850 C   0  0  0  0  0  0  0  0  0  0  0  0
    0.6820   17.7120   42.1870 C   0  0  0  0  0  0  0  0  0  0  0  0
    1.9070   25.6260   31.1720 C   0  0  0  0  0  0  0  0  0  0  0  0
    3.0410   20.8380   36.3900 C   0  0  0  0  0  0  0  0  0  0  0  0
    2.3440   24.7100   33.3660 C   0  0  0  0  0  0  0  0  0  0  0  0
    0.3250   27.2270   32.0420 O   0  0  0  0  0  0  0  0  0  0  0  0
    1.1230   25.5140   33.5120 C   0  0  0  0  0  0  0  0  0  0  0  0
    3.1970   22.4730   34.3870 C   0  0  0  0  0  0  0  0  0  0  0  0
    3.6050   16.5660   38.3950 C   0  0  0  0  0  0  0  0  0  0  0  0
    4.1190   22.5320   33.5890 O   0  0  0  0  0  0  0  0  0  0  0  0
    4.4270   15.5900   37.8230 C   0  0  0  0  0  0  0  0  0  0  0  0
    0.7410   25.8960   32.1020 C   0  0  0  0  0  0  0  0  0  0  0  0
    1.0070   22.5650   33.5640 O   0  0  0  0  0  0  0  0  0  0  0  0
    1.9790   18.3470   40.4190 C   0  0  0  0  0  0  0  0  0  0  0  0
    1.2750   16.5300   41.5370 C   0  0  0  0  0  0  0  0  0  0  0  0
    2.9930   19.0180   38.3410 C   0  0  0  0  0  0  0  0  0  0  0  0
    1.1750   18.6480   41.4510 C   0  0  0  0  0  0  0  0  0  0  0  0
    2.9510   21.5830   35.4470 N   0  0  0  0  0  0  0  0  0  0  0  0
    4.0950   17.9970   36.6270 O   0  0  0  0  0  0  0  0  0  0  0  0
    2.7930   16.2200   39.4980 C   0  0  0  0  0  0  0  0  0  0  0  0
    2.0060   23.4350   34.1730 C   0  0  0  0  0  0  0  0  0  0  0  0
    2.4060   19.2270   39.6090 N   0  0  0  0  0  0  0  0  0  0  0  0
    2.7130   24.5140   31.8690 C   0  0  0  0  0  0  0  0  0  0  0  0
    0.0091   17.7770   43.0547 H   0  0  0  0  0  0  0  0  0  0  0  0
    2.5210   26.5301   31.0470 H   0  0  0  0  0  0  0  0  0  0  0  0
    1.5768   25.3320   30.1648 H   0  0  0  0  0  0  0  0  0  0  0  0
    3.2658   25.1679   33.7541 H   0  0  0  0  0  0  0  0  0  0  0  0
    0.2147   27.5800   32.9603 H   0  0  0  0  0  0  0  0  0  0  0  0
    0.3239   24.9228   33.9832 H   0  0  0  0  0  0  0  0  0  0  0  0
    1.2801   26.3945   34.1524 H   0  0  0  0  0  0  0  0  0  0  0  0
    4.9158   15.0096   38.6194 H   0  0  0  0  0  0  0  0  0  0  0  0
    3.8189   14.9177   37.1998 H   0  0  0  0  0  0  0  0  0  0  0  0
    5.1929   16.0749   37.1998 H   0  0  0  0  0  0  0  0  0  0  0  0
   -0.1110   25.2814   31.7759 H   0  0  0  0  0  0  0  0  0  0  0  0
    0.4869   22.1120   34.2742 H   0  0  0  0  0  0  0  0  0  0  0  0
    1.1130   15.4822   41.8299 H   0  0  0  0  0  0  0  0  0  0  0  0
    0.9357   19.6992   41.6696 H   0  0  0  0  0  0  0  0  0  0  0  0
    1.9294   21.5220   35.3306 H   0  0  0  0  0  0  0  0  0  0  0  0
    4.5187   17.2363   36.1559 H   0  0  0  0  0  0  0  0  0  0  0  0
    2.6812   15.1342   39.6337 H   0  0  0  0  0  0  0  0  0  0  0  0
    1.6517   23.8950   35.1073 H   0  0  0  0  0  0  0  0  0  0  0  0
    2.4070   23.5195   31.5122 H   0  0  0  0  0  0  0  0  0  0  0  0
    3.7942   24.5723   31.6752 H   0  0  0  0  0  0  0  0  0  0  0  0
  1 17  2  0
  2 18  1  0
  3 18  2  0
  3 11  1  0
  5 25  1  0
  5 14  1  0
  6  2  3  0
  7  9  1  0
  7 23  1  0
 10 20  1  0
 11 22  2  0
 12 10  2  0
 13 11  1  0
 14  8  1  0
 14  9  1  0
 16  1  1  0
 16 19  1  0
 17  4  1  0
 18 24  1  0
 19  4  2  0
 20  6  1  0
 21  3  1  0
 22  1  1  0
 23 15  1  0
 23 10  1  0
 24 16  2  0
 25  7  1  0
  4 26  1  0
  5 27  1  0
  5 28  1  0
  7 29  1  0
  8 30  1  0
  9 31  1  0
  9 32  1  0
 13 33  1  0
 13 34  1  0
 13 35  1  0
 14 36  1  0
 15 37  1  0
 17 38  1  0
 19 39  1  0
 20 40  1  0
 21 41  1  0
 22 42  1  0
 23 43  1  0
 25 44  1  0
 25 45  1  0
M  END
>  <mol_id>  (56) 
2026-09-16-6tgu-s0-n100-0056

>  <rmsd_to_ref>  (56) 


$$$$

     RDKit          3D

 26 26  0  0  0  0  0  0  0  0999 V2000
    3.7660   22.4620   35.1930 C   0  0  0  0  0  0  0  0  0  0  0  0
    2.3010   22.1320   37.8090 S   0  0  0  0  0  0  0  0  0  0  0  0
    2.4830   21.8720   34.4620 C   0  0  0  0  0  0  0  0  0  0  0  0
    2.1240   24.1870   34.7780 O   0  0  0  0  0  0  0  0  0  0  0  0
    3.2810   19.2550   37.5370 C   0  0  0  0  0  0  0  0  0  0  0  0
    3.7070   24.0210   32.9080 C   0  0  0  0  0  0  0  0  0  0  0  0
    4.1960   19.2390   38.8180 C   0  0  0  0  0  0  0  0  0  0  0  0
    3.4760   21.6860   36.5680 C   0  0  0  0  0  0  0  0  0  0  0  0
    3.8420   20.3320   36.6890 C   0  0  0  0  0  0  0  0  0  0  0  0
    2.9650   23.2900   34.2140 C   0  0  0  0  0  0  0  0  0  0  0  0
    4.8303   22.6772   35.3689 H   0  0  0  0  0  0  0  0  0  0  0  0
    2.8457   21.9253   39.0490 H   0  0  0  0  0  0  0  0  0  0  0  0
    2.5926   21.1041   33.6820 H   0  0  0  0  0  0  0  0  0  0  0  0
    1.5396   21.4041   34.7801 H   0  0  0  0  0  0  0  0  0  0  0  0
    2.1850   24.1219   35.7640 H   0  0  0  0  0  0  0  0  0  0  0  0
    3.3261   18.2874   37.0158 H   0  0  0  0  0  0  0  0  0  0  0  0
    2.2227   19.4270   37.7830 H   0  0  0  0  0  0  0  0  0  0  0  0
    4.4475   24.7505   33.2680 H   0  0  0  0  0  0  0  0  0  0  0  0
    4.2114   23.2571   32.2980 H   0  0  0  0  0  0  0  0  0  0  0  0
    2.9507   24.5367   32.2980 H   0  0  0  0  0  0  0  0  0  0  0  0
    3.5654   19.2500   39.7192 H   0  0  0  0  0  0  0  0  0  0  0  0
    4.8153   18.3299   38.8149 H   0  0  0  0  0  0  0  0  0  0  0  0
    4.8467   20.1259   38.8149 H   0  0  0  0  0  0  0  0  0  0  0  0
    4.2346   22.4488   36.7976 H   0  0  0  0  0  0  0  0  0  0  0  0
    3.7499   19.9395   35.6656 H   0  0  0  0  0  0  0  0  0  0  0  0
    4.7697   20.4889   37.2589 H   0  0  0  0  0  0  0  0  0  0  0  0
  1  8  1  0
  3  1  1  0
  5  7  1  0
  8  9  1  0
  8  2  1  0
  9  5  1  0
 10  6  1  0
 10  3  1  0
 10  4  1  0
 10  1  1  0
  1 11  1  0
  2 12  1  0
  3 13  1  0
  3 14  1  0
  4 15  1  0
  5 16  1  0
  5 17  1  0
  6 18  1  0
  6 19  1  0
  6 20  1  0
  7 21  1  0
  7 22  1  0
  7 23  1  0
  8 24  1  0
  9 25  1  0
  9 26  1  0
M  END
>  <mol_id>  (57) 
2026-09-16-6tgu-s0-n100-0057

>  <rmsd_to_ref>  (57) 


$$$$

     RDKit          3D

 89 93  0  0  0  0  0  0  0  0999 V2000
   -1.0960   19.2470   43.2110 C   0  0  0  0  0  0  0  0  0  0  0  0
    2.6260   24.6220   26.0310 C   0  0  0  0  0  0  0  0  0  0  0  0
    2.7950   23.5780   27.0950 C   0  0  0  0  0  0  0  0  0  0  0  0
    2.6310   23.7340   28.6270 C   0  0  0  0  0  0  0  0  0  0  0  0
    4.8140   24.3950   27.8230 C   0  0  0  0  0  0  0  0  0  0  0  0
    3.7710   19.2490   37.4140 C   0  0  0  0  0  0  0  0  0  0  0  0
    3.7510   16.5400   37.5760 C   0  0  0  0  0  0  0  0  0  0  0  0
    2.7220   19.9980   38.0960 O   0  0  0  0  0  0  0  0  0  0  0  0
    1.1500   18.2120   42.6010 C   0  0  0  0  0  0  0  0  0  0  0  0
    1.8780   24.8030   33.0210 C   0  0  0  0  0  0  0  0  0  0  0  0
    0.6530   20.8600   41.6430 S   0  0  0  0  0  0  0  0  0  0  0  0
    2.7000   19.8160   39.3990 C   0  0  0  0  0  0  0  0  0  0  0  0
    3.6740   17.9810   37.6940 N   0  0  0  0  0  4  0  0  0  0  0  0
    3.9730   20.0860   36.1120 C   0  0  0  0  0  0  0  0  0  0  0  0
    4.1710   23.2640   27.2220 N   0  0  0  0  0  0  0  0  0  0  0  0
    4.8870   15.9580   36.9380 C   0  0  0  0  0  0  0  0  0  0  0  0
    1.5610   20.4900   40.2110 C   0  0  0  0  0  0  0  0  0  0  0  0
    2.4020   26.0510   30.7500 S   0  0  0  0  0  4  0  0  0  0  0  0
    6.1720   21.8060   27.5410 C   0  0  0  0  0  0  0  0  0  0  0  0
    2.7560   24.5690   31.8820 C   0  0  0  0  0  0  0  0  0  0  0  0
    1.2030   23.8720   28.9990 C   0  0  0  0  0  0  0  0  0  0  0  0
    0.2830   17.0040   42.6140 C   0  0  0  0  0  0  0  0  0  0  0  0
    2.2930   25.0730   29.2210 C   0  0  0  0  0  0  0  0  0  0  0  0
    0.1870   19.3200   42.3740 C   0  0  0  0  0  0  0  0  0  0  0  0
    1.6480   23.5550   33.8100 C   0  0  0  0  0  0  0  0  0  0  0  0
   -0.5740   16.8400   43.7970 C   0  0  0  0  0  0  0  0  0  0  0  0
   -0.7870   18.3200   44.3510 C   0  0  0  0  0  0  0  0  0  0  0  0
    5.1570   22.9670   28.0520 C   0  0  0  0  0  0  0  0  0  0  0  0
    2.9750   22.7980   34.1360 C   0  0  0  0  0  0  0  0  0  0  0  0
    0.6940   25.6700   32.6540 C   0  0  0  0  0  0  0  0  0  0  0  0
    0.6680   25.7240   31.1050 C   0  0  0  0  0  0  0  0  0  0  0  0
    1.9410   19.0290   40.3020 N   0  0  0  0  0  4  0  0  0  0  0  0
    2.8110   22.0160   35.3650 C   0  0  0  0  0  0  0  0  0  0  0  0
    3.8560   21.5210   36.2560 C   0  0  0  0  0  0  0  0  0  0  0  0
   -1.9252   18.8492   42.6075 H   0  0  0  0  0  0  0  0  0  0  0  0
   -1.4039   20.2407   43.5685 H   0  0  0  0  0  0  0  0  0  0  0  0
    2.4672   25.6033   26.5021 H   0  0  0  0  0  0  0  0  0  0  0  0
    3.5301   24.6576   25.4054 H   0  0  0  0  0  0  0  0  0  0  0  0
    1.7569   24.3706   25.4054 H   0  0  0  0  0  0  0  0  0  0  0  0
    1.9808   22.9558   26.6950 H   0  0  0  0  0  0  0  0  0  0  0  0
    3.4587   23.0587   28.8894 H   0  0  0  0  0  0  0  0  0  0  0  0
    4.3081   24.9874   28.5996 H   0  0  0  0  0  0  0  0  0  0  0  0
    5.3259   25.3099   27.4901 H   0  0  0  0  0  0  0  0  0  0  0  0
    4.8369   19.1270   37.6569 H   0  0  0  0  0  0  0  0  0  0  0  0
    3.7090   16.1303   38.5960 H   0  0  0  0  0  0  0  0  0  0  0  0
    2.9143   16.2848   36.9091 H   0  0  0  0  0  0  0  0  0  0  0  0
    1.6713   18.3335   43.5620 H   0  0  0  0  0  0  0  0  0  0  0  0
    1.9416   18.1661   41.8386 H   0  0  0  0  0  0  0  0  0  0  0  0
    2.3796   25.4377   33.7664 H   0  0  0  0  0  0  0  0  0  0  0  0
    3.7900   19.8008   39.2514 H   0  0  0  0  0  0  0  0  0  0  0  0
    4.2120   18.0346   38.5707 H   0  0  0  0  0  0  0  0  0  0  0  0
    2.8909   17.9442   37.0259 H   0  0  0  0  0  0  0  0  0  0  0  0
    4.9789   19.8676   35.7241 H   0  0  0  0  0  0  0  0  0  0  0  0
    3.1563   19.7880   35.4381 H   0  0  0  0  0  0  0  0  0  0  0  0
    5.5916   15.5970   37.7017 H   0  0  0  0  0  0  0  0  0  0  0  0
    4.5630   15.1148   36.3102 H   0  0  0  0  0  0  0  0  0  0  0  0
    5.3821   16.7135   36.3102 H   0  0  0  0  0  0  0  0  0  0  0  0
    1.1775   21.4761   39.9100 H   0  0  0  0  0  0  0  0  0  0  0  0
    3.0691   27.2470   30.7877 H   0  0  0  0  0  0  0  0  0  0  0  0
    6.6158   21.2984   28.4101 H   0  0  0  0  0  0  0  0  0  0  0  0
    5.6176   21.0756   26.9334 H   0  0  0  0  0  0  0  0  0  0  0  0
    6.9699   22.2579   26.9334 H   0  0  0  0  0  0  0  0  0  0  0  0
    2.5080   23.6217   31.3808 H   0  0  0  0  0  0  0  0  0  0  0  0
    3.8159   24.4852   32.1643 H   0  0  0  0  0  0  0  0  0  0  0  0
    0.4303   23.9577   28.2208 H   0  0  0  0  0  0  0  0  0  0  0  0
    0.4913   23.3203   29.6308 H   0  0  0  0  0  0  0  0  0  0  0  0
   -0.3691   17.0479   41.7292 H   0  0  0  0  0  0  0  0  0  0  0  0
    0.9702   16.1452   42.6236 H   0  0  0  0  0  0  0  0  0  0  0  0
    2.6445   26.0753   28.9349 H   0  0  0  0  0  0  0  0  0  0  0  0
   -0.0850   19.0389   41.3459 H   0  0  0  0  0  0  0  0  0  0  0  0
    1.1532   23.8220   34.7554 H   0  0  0  0  0  0  0  0  0  0  0  0
    1.0233   22.8855   33.2004 H   0  0  0  0  0  0  0  0  0  0  0  0
   -1.5373   16.3877   43.5185 H   0  0  0  0  0  0  0  0  0  0  0  0
   -0.1232   16.1752   44.5485 H   0  0  0  0  0  0  0  0  0  0  0  0
    0.1296   18.6563   44.8577 H   0  0  0  0  0  0  0  0  0  0  0  0
   -1.6256   18.3255   45.0629 H   0  0  0  0  0  0  0  0  0  0  0  0
    5.4679   22.5507   29.0216 H   0  0  0  0  0  0  0  0  0  0  0  0
    3.2243   22.1229   33.3040 H   0  0  0  0  0  0  0  0  0  0  0  0
    3.7853   23.5287   34.2756 H   0  0  0  0  0  0  0  0  0  0  0  0
   -0.2373   25.2271   33.0367 H   0  0  0  0  0  0  0  0  0  0  0  0
    0.7803   26.6758   33.0909 H   0  0  0  0  0  0  0  0  0  0  0  0
    0.0201   26.5341   30.7390 H   0  0  0  0  0  0  0  0  0  0  0  0
    0.2674   24.8193   30.6243 H   0  0  0  0  0  0  0  0  0  0  0  0
    1.2967   18.3160   39.9314 H   0  0  0  0  0  0  0  0  0  0  0  0
    2.1949   18.4130   41.0875 H   0  0  0  0  0  0  0  0  0  0  0  0
    2.1669   22.6353   36.0065 H   0  0  0  0  0  0  0  0  0  0  0  0
    2.5051   21.0594   34.9164 H   0  0  0  0  0  0  0  0  0  0  0  0
    3.5965   21.7651   37.2967 H   0  0  0  0  0  0  0  0  0  0  0  0
    4.8141   21.9948   35.9962 H   0  0  0  0  0  0  0  0  0  0  0  0
  1 27  1  0
  3  2  1  0
  3 15  1  0
  4  3  1  0
  4 21  1  0
  4 23  1  0
  5 28  1  0
  6 14  1  0
  6 13  1  0
  6  8  1  0
  7 13  1  0
  9 22  1  0
 10 25  1  0
 11 24  1  0
 12  8  1  0
 12 17  1  0
 12 32  1  0
 14 34  1  0
 15  5  1  0
 15 28  1  0
 16  7  1  0
 17 32  1  0
 17 11  1  0
 18 31  1  0
 18 20  1  0
 20 10  1  0
 22 26  1  0
 23 21  1  0
 23 18  1  0
 24  9  1  0
 24  1  1  0
 25 29  1  0
 26 27  1  0
 28 19  1  0
 29 33  1  0
 30 10  1  0
 31 30  1  0
 33 34  1  0
  1 35  1  0
  1 36  1  0
  2 37  1  0
  2 38  1  0
  2 39  1  0
  3 40  1  0
  4 41  1  0
  5 42  1  0
  5 43  1  0
  6 44  1  0
  7 45  1  0
  7 46  1  0
  9 47  1  0
  9 48  1  0
 10 49  1  0
 12 50  1  0
 13 51  1  0
 13 52  1  0
 14 53  1  0
 14 54  1  0
 16 55  1  0
 16 56  1  0
 16 57  1  0
 17 58  1  0
 18 59  1  0
 19 60  1  0
 19 61  1  0
 19 62  1  0
 20 63  1  0
 20 64  1  0
 21 65  1  0
 21 66  1  0
 22 67  1  0
 22 68  1  0
 23 69  1  0
 24 70  1  0
 25 71  1  0
 25 72  1  0
 26 73  1  0
 26 74  1  0
 27 75  1  0
 27 76  1  0
 28 77  1  0
 29 78  1  0
 29 79  1  0
 30 80  1  0
 30 81  1  0
 31 82  1  0
 31 83  1  0
 32 84  1  0
 32 85  1  0
 33 86  1  0
 33 87  1  0
 34 88  1  0
 34 89  1  0
M  CHG  2  13   1  32   1
M  END
>  <mol_id>  (58) 
2026-09-16-6tgu-s0-n100-0058

>  <rmsd_to_ref>  (58) 


$$$$

     RDKit          3D

 44 44  0  0  0  0  0  0  0  0999 V2000
    1.4770   17.0260   42.4290 O   0  0  0  0  0  0  0  0  0  0  0  0
    0.8420   18.0160   41.8920 C   0  0  0  0  0  0  0  0  0  0  0  0
    1.6730   18.9990   40.8960 C   0  0  0  0  0  0  0  0  0  0  0  0
    3.4840   25.5850   30.8480 C   0  0  0  0  0  0  0  0  0  0  0  0
    1.5440   26.1940   32.4230 C   0  0  0  0  0  0  0  0  0  0  0  0
    3.9800   20.3730   36.0790 O   0  0  0  0  0  0  0  0  0  0  0  0
    3.1040   20.9200   36.7830 C   0  0  0  0  0  0  0  0  0  0  0  0
    2.9310   18.9250   38.4260 C   0  0  0  0  0  0  0  0  0  0  0  0
    3.3610   23.2060   34.2760 C   0  0  0  0  0  0  0  0  0  0  0  0
    3.9340   24.4620   31.8770 C   0  0  0  0  0  0  0  0  0  0  0  0
    3.1740   24.3490   33.2620 C   0  0  0  0  0  0  0  0  0  0  0  0
    0.3890   18.8750   42.9280 O   0  0  0  0  0  0  0  0  0  0  0  0
    2.5630   17.0970   39.8130 O   0  0  0  0  0  0  0  0  0  0  0  0
    3.8990   18.1970   37.7050 O   0  0  0  0  0  0  0  0  0  0  0  0
    2.4790   18.2410   39.6640 C   0  0  0  0  0  0  0  0  0  0  0  0
    2.1210   25.4240   33.6130 C   0  0  0  0  0  0  0  0  0  0  0  0
    2.9480   23.2250   35.5600 C   0  0  0  0  0  0  0  0  0  0  0  0
    2.7460   20.3450   38.1270 C   0  0  0  0  0  0  0  0  0  0  0  0
    2.2900   22.1000   36.2360 N   0  0  0  0  0  0  0  0  0  0  0  0
    4.8520   17.1720   38.1110 C   0  0  0  0  0  0  0  0  0  0  0  0
    1.9800   26.0380   30.9750 C   0  0  0  0  0  0  0  0  0  0  0  0
    4.2210   25.5600   29.3820 Cl  0  0  0  0  0  0  0  0  0  0  0  0
    1.4298   17.0996   43.4151 H   0  0  0  0  0  0  0  0  0  0  0  0
    0.0701   17.5149   41.2894 H   0  0  0  0  0  0  0  0  0  0  0  0
    0.9624   19.7105   40.4501 H   0  0  0  0  0  0  0  0  0  0  0  0
    2.4456   19.4775   41.5158 H   0  0  0  0  0  0  0  0  0  0  0  0
    3.9578   26.5133   31.1999 H   0  0  0  0  0  0  0  0  0  0  0  0
    0.7464   26.9218   32.6331 H   0  0  0  0  0  0  0  0  0  0  0  0
    1.9321   18.9501   37.9659 H   0  0  0  0  0  0  0  0  0  0  0  0
    4.4462   23.0318   34.3216 H   0  0  0  0  0  0  0  0  0  0  0  0
    2.6659   22.4620   33.8598 H   0  0  0  0  0  0  0  0  0  0  0  0
    4.7580   23.7756   31.6324 H   0  0  0  0  0  0  0  0  0  0  0  0
    0.6014   18.4723   43.8071 H   0  0  0  0  0  0  0  0  0  0  0  0
    1.8073   25.6224   34.6485 H   0  0  0  0  0  0  0  0  0  0  0  0
    3.8455   23.4453   36.1567 H   0  0  0  0  0  0  0  0  0  0  0  0
    2.1157   23.9414   35.4970 H   0  0  0  0  0  0  0  0  0  0  0  0
    3.3403   20.8981   38.8692 H   0  0  0  0  0  0  0  0  0  0  0  0
    1.6510   20.4488   38.1438 H   0  0  0  0  0  0  0  0  0  0  0  0
    1.2658   22.1029   36.3448 H   0  0  0  0  0  0  0  0  0  0  0  0
    4.8950   17.1257   39.2092 H   0  0  0  0  0  0  0  0  0  0  0  0
    4.5324   16.1967   37.7151 H   0  0  0  0  0  0  0  0  0  0  0  0
    5.8479   17.4199   37.7151 H   0  0  0  0  0  0  0  0  0  0  0  0
    1.8571   27.0036   30.4627 H   0  0  0  0  0  0  0  0  0  0  0  0
    1.3541   25.2576   30.5176 H   0  0  0  0  0  0  0  0  0  0  0  0
  2  1  1  0
  2 12  1  0
  3  2  1  0
  4 22  1  0
  4 21  1  0
  4 10  1  0
  5 16  2  0
  6  7  2  0
  7 18  1  0
  8 18  1  0
  8 15  1  0
  9 17  1  0
 10 11  2  0
 11 16  1  0
 11  9  1  0
 14 20  1  0
 14  8  1  0
 15 13  2  0
 15  3  1  0
 17 19  1  0
 19  7  1  0
 21  5  1  0
  1 23  1  0
  2 24  1  0
  3 25  1  0
  3 26  1  0
  4 27  1  0
  5 28  1  0
  8 29  1  0
  9 30  1  0
  9 31  1  0
 10 32  1  0
 12 33  1  0
 16 34  1  0
 17 35  1  0
 17 36  1  0
 18 37  1  0
 18 38  1  0
 19 39  1  0
 20 40  1  0
 20 41  1  0
 20 42  1  0
 21 43  1  0
 21 44  1  0
M  END
>  <mol_id>  (59) 
2026-09-16-6tgu-s0-n100-0059

>  <rmsd_to_ref>  (59) 


$$$$

     RDKit          3D

 47 48  0  0  0  0  0  0  0  0999 V2000
    2.2030   19.0240   39.8990 C   0  0  0  0  0  0  0  0  0  0  0  0
    2.6100   19.9640   37.8910 C   0  0  0  0  0  0  0  0  0  0  0  0
    2.7770   18.0300   39.0580 N   0  0  0  0  0  0  0  0  0  0  0  0
    1.5710   17.4830   42.1420 C   0  0  0  0  0  0  0  0  0  0  0  0
    2.6950   21.4390   35.9890 N   0  0  0  0  0  0  0  0  0  0  0  0
    4.6350   20.4830   35.0950 O   0  0  0  0  0  0  0  0  0  0  0  0
    3.7430   21.3920   35.0810 C   0  0  0  0  0  0  0  0  0  0  0  0
    3.6330   22.3190   34.1780 N   0  0  0  0  0  0  0  0  0  0  0  0
    2.9970   16.4840   38.0380 C   0  0  0  0  0  0  0  0  0  0  0  0
   -0.7430   18.9110   41.7660 C   0  0  0  0  0  0  0  0  0  0  0  0
    4.1180   18.1090   37.1330 N   0  0  0  0  0  0  0  0  0  0  0  0
    0.6650   19.5700   41.7350 C   0  0  0  0  0  0  0  0  0  0  0  0
    2.5530   20.6740   36.8530 N   0  0  0  0  0  0  0  0  0  0  0  0
    4.3420   22.4180   32.9480 C   0  0  0  0  0  0  0  0  0  0  0  0
    3.3480   23.1180   31.9560 C   0  0  0  0  0  0  0  0  0  0  0  0
    3.5980   22.9490   30.6690 C   0  0  0  0  0  0  0  0  0  0  0  0
    2.1180   20.1460   39.1590 C   0  0  0  0  0  0  0  0  0  0  0  0
    3.1250   18.6210   37.9070 N   0  0  0  0  0  0  0  0  0  0  0  0
    3.9610   24.2500   30.0270 C   0  0  0  0  0  0  0  0  0  0  0  0
    1.7870   18.7330   41.2870 N   0  0  0  0  0  0  0  0  0  0  0  0
    3.9640   16.7520   37.0830 C   0  0  0  0  0  0  0  0  0  0  0  0
    0.8370   20.7710   41.9500 O   0  0  0  0  0  0  0  0  0  0  0  0
    3.2057   19.2998   40.2574 H   0  0  0  0  0  0  0  0  0  0  0  0
    1.6179   17.7546   43.2069 H   0  0  0  0  0  0  0  0  0  0  0  0
    0.5848   17.0507   41.9169 H   0  0  0  0  0  0  0  0  0  0  0  0
    2.3549   16.7449   41.9169 H   0  0  0  0  0  0  0  0  0  0  0  0
    2.0027   22.1954   35.8921 H   0  0  0  0  0  0  0  0  0  0  0  0
    2.9546   23.0687   34.3747 H   0  0  0  0  0  0  0  0  0  0  0  0
    3.3233   15.6529   38.6805 H   0  0  0  0  0  0  0  0  0  0  0  0
    2.0490   16.1955   37.5605 H   0  0  0  0  0  0  0  0  0  0  0  0
   -1.0563   18.7644   42.8102 H   0  0  0  0  0  0  0  0  0  0  0  0
   -1.4651   19.5647   41.2549 H   0  0  0  0  0  0  0  0  0  0  0  0
   -0.7037   17.9378   41.2549 H   0  0  0  0  0  0  0  0  0  0  0  0
    4.0573   18.5020   36.1829 H   0  0  0  0  0  0  0  0  0  0  0  0
    1.7261   20.2099   36.4507 H   0  0  0  0  0  0  0  0  0  0  0  0
    5.2514   23.0238   33.0745 H   0  0  0  0  0  0  0  0  0  0  0  0
    4.6658   21.4334   32.5795 H   0  0  0  0  0  0  0  0  0  0  0  0
    2.3401   22.7261   32.1572 H   0  0  0  0  0  0  0  0  0  0  0  0
    3.4567   24.1971   32.1398 H   0  0  0  0  0  0  0  0  0  0  0  0
    4.4337   22.2432   30.5529 H   0  0  0  0  0  0  0  0  0  0  0  0
    2.6947   22.5534   30.1817 H   0  0  0  0  0  0  0  0  0  0  0  0
    1.7033   21.0959   39.5274 H   0  0  0  0  0  0  0  0  0  0  0  0
    4.1696   24.9978   30.8063 H   0  0  0  0  0  0  0  0  0  0  0  0
    4.8553   24.1132   29.4013 H   0  0  0  0  0  0  0  0  0  0  0  0
    3.1251   24.5959   29.4013 H   0  0  0  0  0  0  0  0  0  0  0  0
    3.6259   16.4343   36.0856 H   0  0  0  0  0  0  0  0  0  0  0  0
    4.9044   16.2141   37.2733 H   0  0  0  0  0  0  0  0  0  0  0  0
  1 20  1  0
  2 18  1  0
  2 17  2  0
  3  9  1  0
  3  1  1  0
  5 13  1  0
  7  6  2  0
  7  5  1  0
  8  7  1  0
 11 18  1  0
 12 10  1  0
 12 22  2  0
 13  2  1  0
 14  8  1  0
 15 14  1  0
 16 15  1  0
 17  1  1  0
 18  3  1  0
 19 16  1  0
 20 12  1  0
 20  4  1  0
 21 11  1  0
 21  9  1  0
  1 23  1  0
  4 24  1  0
  4 25  1  0
  4 26  1  0
  5 27  1  0
  8 28  1  0
  9 29  1  0
  9 30  1  0
 10 31  1  0
 10 32  1  0
 10 33  1  0
 11 34  1  0
 13 35  1  0
 14 36  1  0
 14 37  1  0
 15 38  1  0
 15 39  1  0
 16 40  1  0
 16 41  1  0
 17 42  1  0
 19 43  1  0
 19 44  1  0
 19 45  1  0
 21 46  1  0
 21 47  1  0
M  END
>  <mol_id>  (60) 
2026-09-16-6tgu-s0-n100-0060

>  <rmsd_to_ref>  (60) 


$$$$

     RDKit          3D

 64 67  0  0  0  0  0  0  0  0999 V2000
    3.4430   17.6790   36.2740 C   0  0  0  0  0  0  0  0  0  0  0  0
    1.9810   22.2030   34.8970 C   0  0  0  0  0  0  0  0  0  0  0  0
    2.1200   25.6770   33.8530 C   0  0  0  0  0  0  0  0  0  0  0  0
    3.0750   20.5710   35.6000 N   0  0  0  0  0  0  0  0  0  0  0  0
    1.6660   26.7260   32.0090 C   0  0  0  0  0  0  0  0  0  0  0  0
    3.0770   18.6700   37.2240 C   0  0  0  0  0  0  0  0  0  0  0  0
    3.7590   15.3160   36.0160 O   0  0  0  0  0  0  0  0  0  0  0  0
    0.8390   28.7390   32.5610 N   0  0  0  0  0  0  0  0  0  0  0  0
    3.3830   16.3210   36.7860 C   0  0  0  0  0  0  0  0  0  0  0  0
    1.1240   28.9690   33.6230 C   0  0  0  0  0  0  0  0  0  0  0  0
    2.3860   17.0770   38.8770 C   0  0  0  0  0  0  0  0  0  0  0  0
    2.7140   14.7350   38.3870 O   0  0  0  0  0  0  0  0  0  0  0  0
    2.9950   23.5810   33.3480 C   0  0  0  0  0  0  0  0  0  0  0  0
    2.9140   21.5150   35.0390 C   0  0  0  0  0  0  0  0  0  0  0  0
    1.9330   26.0150   30.6860 C   0  0  0  0  0  0  0  0  0  0  0  0
    1.0020   20.9910   41.8320 N   0  0  0  0  0  0  0  0  0  0  0  0
    1.7880   26.8170   33.3640 C   0  0  0  0  0  0  0  0  0  0  0  0
    1.8900   20.8240   39.5300 C   0  0  0  0  0  0  0  0  0  0  0  0
    0.7260   27.8240   30.6510 C   0  0  0  0  0  0  0  0  0  0  0  0
    1.8680   19.3060   39.6100 C   0  0  0  0  0  0  0  0  0  0  0  0
    0.9290   26.7190   29.7840 C   0  0  0  0  0  0  0  0  0  0  0  0
    2.9690   25.1600   33.1070 N   0  0  0  0  0  4  0  0  0  0  0  0
    2.7910   16.1100   37.9500 C   0  0  0  0  0  0  0  0  0  0  0  0
    1.2690   18.9150   40.8340 C   0  0  0  0  0  0  0  0  0  0  0  0
    0.9000   19.6560   41.9310 C   0  0  0  0  0  0  0  0  0  0  0  0
    3.2030   19.9970   36.8520 C   0  0  0  0  0  0  0  0  0  0  0  0
    1.9800   23.1990   34.0320 C   0  0  0  0  0  0  0  0  0  0  0  0
    3.0050   14.3730   39.6660 C   0  0  0  0  0  0  0  0  0  0  0  0
    0.9820   27.8490   31.8470 C   0  0  0  0  0  0  0  0  0  0  0  0
    2.2370   15.0980   34.8040 O   0  0  0  0  0  0  0  0  0  0  0  0
    2.4390   18.3820   38.6000 C   0  0  0  0  0  0  0  0  0  0  0  0
    1.5830   27.8590   34.1240 N   0  0  0  0  0  0  0  0  0  0  0  0
    1.4840   21.5170   40.8370 C   0  0  0  0  0  0  0  0  0  0  0  0
    3.6890   21.0930   34.5840 O   0  0  0  0  0  0  0  0  0  0  0  0
    3.7446   17.9185   35.2436 H   0  0  0  0  0  0  0  0  0  0  0  0
    1.0802   22.0157   35.4999 H   0  0  0  0  0  0  0  0  0  0  0  0
    2.5440   25.8139   34.8587 H   0  0  0  0  0  0  0  0  0  0  0  0
    1.2361   25.0263   33.9258 H   0  0  0  0  0  0  0  0  0  0  0  0
    3.7204   14.3882   36.3591 H   0  0  0  0  0  0  0  0  0  0  0  0
    1.0333   29.9377   34.1363 H   0  0  0  0  0  0  0  0  0  0  0  0
    2.0140   16.7532   39.8603 H   0  0  0  0  0  0  0  0  0  0  0  0
    3.9140   23.3162   33.8915 H   0  0  0  0  0  0  0  0  0  0  0  0
    2.9643   23.0791   32.3697 H   0  0  0  0  0  0  0  0  0  0  0  0
    2.7154   22.5906   35.1556 H   0  0  0  0  0  0  0  0  0  0  0  0
    2.9663   26.1710   30.3426 H   0  0  0  0  0  0  0  0  0  0  0  0
    1.8259   24.9209   30.7243 H   0  0  0  0  0  0  0  0  0  0  0  0
    2.1709   21.3741   38.6198 H   0  0  0  0  0  0  0  0  0  0  0  0
   -0.3470   28.0555   30.5793 H   0  0  0  0  0  0  0  0  0  0  0  0
    1.5025   28.5066   30.2753 H   0  0  0  0  0  0  0  0  0  0  0  0
    0.0145   26.1300   29.6202 H   0  0  0  0  0  0  0  0  0  0  0  0
    1.2376   26.9339   28.7503 H   0  0  0  0  0  0  0  0  0  0  0  0
    3.8969   25.5550   33.3165 H   0  0  0  0  0  0  0  0  0  0  0  0
    2.7282   25.3544   32.1246 H   0  0  0  0  0  0  0  0  0  0  0  0
    1.0654   17.8374   40.9201 H   0  0  0  0  0  0  0  0  0  0  0  0
    0.5364   19.1756   42.8513 H   0  0  0  0  0  0  0  0  0  0  0  0
    4.2163   20.2756   37.1768 H   0  0  0  0  0  0  0  0  0  0  0  0
    2.2629   20.3674   37.2867 H   0  0  0  0  0  0  0  0  0  0  0  0
    1.0356   23.7438   33.8863 H   0  0  0  0  0  0  0  0  0  0  0  0
    2.4727   15.0352   40.3646 H   0  0  0  0  0  0  0  0  0  0  0  0
    2.6888   13.3329   39.8336 H   0  0  0  0  0  0  0  0  0  0  0  0
    4.0888   14.4583   39.8336 H   0  0  0  0  0  0  0  0  0  0  0  0
    2.2370   15.0980   35.7940 H   0  0  0  0  0  0  0  0  0  0  0  0
    2.2370   16.0314   34.4740 H   0  0  0  0  0  0  0  0  0  0  0  0
    1.6432   22.6043   40.8855 H   0  0  0  0  0  0  0  0  0  0  0  0
  1  9  2  0
  1  6  1  0
  4 26  1  0
  5 17  1  0
  6 31  2  0
  7  9  1  0
  8 10  2  0
  9 23  1  0
 10 32  1  0
 12 28  1  0
 13 27  1  0
 14  2  1  0
 14  4  1  0
 15  5  1  0
 16 25  2  0
 17  3  1  0
 17 32  2  0
 18 20  1  0
 18 33  2  0
 19 29  1  0
 20 24  2  0
 21 19  1  0
 21 15  1  0
 22 13  1  0
 22  3  1  0
 23 12  1  0
 23 11  2  0
 24 25  1  0
 26  6  1  0
 27  2  2  3
 29  5  2  0
 29  8  1  0
 31 11  1  0
 31 20  1  0
 33 16  1  0
 34 14  1  0
 34  4  1  0
  1 35  1  0
  2 36  1  0
  3 37  1  0
  3 38  1  0
  7 39  1  0
 10 40  1  0
 11 41  1  0
 13 42  1  0
 13 43  1  0
 14 44  1  0
 15 45  1  0
 15 46  1  0
 18 47  1  0
 19 48  1  0
 19 49  1  0
 21 50  1  0
 21 51  1  0
 22 52  1  0
 22 53  1  0
 24 54  1  0
 25 55  1  0
 26 56  1  0
 26 57  1  0
 27 58  1  0
 28 59  1  0
 28 60  1  0
 28 61  1  0
 30 62  1  0
 30 63  1  0
 33 64  1  0
M  CHG  1  22   1
M  END
>  <mol_id>  (61) 
2026-09-16-6tgu-s0-n100-0061

>  <rmsd_to_ref>  (61) 


$$$$

     RDKit          3D

 28 28  0  0  0  0  0  0  0  0999 V2000
    1.4130   20.1830   40.2620 C   0  0  0  0  0  0  0  0  0  0  0  0
    2.9690   18.1770   38.9220 C   0  0  0  0  0  0  0  0  0  0  0  0
    3.2070   22.7540   34.2170 O   0  0  0  0  0  0  0  0  0  0  0  0
    2.7280   19.3920   38.3050 C   0  0  0  0  0  0  0  0  0  0  0  0
    4.2410   20.6020   34.7010 C   0  0  0  0  0  0  0  0  0  0  0  0
    3.9350   21.8440   33.8390 C   0  0  0  0  0  0  0  0  0  0  0  0
    3.3000   19.4960   36.8810 C   0  0  0  0  0  0  0  0  0  0  0  0
    1.9900   20.4630   38.9600 C   0  0  0  0  0  0  0  0  0  0  0  0
    5.1040   23.3890   32.2420 C   0  0  0  0  0  0  0  0  0  0  0  0
    3.5940   20.8280   36.0720 C   0  0  0  0  0  0  0  0  0  0  0  0
    2.4170   17.9170   40.1690 C   0  0  0  0  0  0  0  0  0  0  0  0
    4.7240   21.9000   32.6580 N   0  0  0  0  0  0  0  0  0  0  0  0
    1.6450   18.9520   40.8520 C   0  0  0  0  0  0  0  0  0  0  0  0
    0.7992   20.9391   40.7735 H   0  0  0  0  0  0  0  0  0  0  0  0
    3.5952   17.4205   38.4265 H   0  0  0  0  0  0  0  0  0  0  0  0
    5.3285   20.4805   34.8134 H   0  0  0  0  0  0  0  0  0  0  0  0
    3.8433   19.6921   34.2279 H   0  0  0  0  0  0  0  0  0  0  0  0
    4.2648   18.9693   36.9225 H   0  0  0  0  0  0  0  0  0  0  0  0
    2.4335   19.1278   36.3121 H   0  0  0  0  0  0  0  0  0  0  0  0
    1.8741   21.4485   38.4852 H   0  0  0  0  0  0  0  0  0  0  0  0
    5.2585   23.9945   33.1473 H   0  0  0  0  0  0  0  0  0  0  0  0
    6.0283   23.3786   31.6457 H   0  0  0  0  0  0  0  0  0  0  0  0
    4.2878   23.8227   31.6457 H   0  0  0  0  0  0  0  0  0  0  0  0
    4.2696   21.4544   36.6730 H   0  0  0  0  0  0  0  0  0  0  0  0
    2.6208   21.3060   35.8867 H   0  0  0  0  0  0  0  0  0  0  0  0
    2.5606   16.9341   40.6415 H   0  0  0  0  0  0  0  0  0  0  0  0
    5.0182   21.0670   32.1284 H   0  0  0  0  0  0  0  0  0  0  0  0
    1.2401   18.7495   41.8545 H   0  0  0  0  0  0  0  0  0  0  0  0
  1 13  2  0
  2 11  2  0
  4  2  1  0
  4  8  2  0
  5 10  1  0
  6  3  2  0
  6  5  1  0
  7  4  1  0
  8  1  1  0
  9 12  1  0
 10  7  1  0
 11 13  1  0
 12  6  1  0
  1 14  1  0
  2 15  1  0
  5 16  1  0
  5 17  1  0
  7 18  1  0
  7 19  1  0
  8 20  1  0
  9 21  1  0
  9 22  1  0
  9 23  1  0
 10 24  1  0
 10 25  1  0
 11 26  1  0
 12 27  1  0
 13 28  1  0
M  END
>  <mol_id>  (62) 
2026-09-16-6tgu-s0-n100-0062

>  <rmsd_to_ref>  (62) 


$$$$

     RDKit          3D

 51 51  0  0  0  0  0  0  0  0999 V2000
    1.3770   20.6920   40.5430 C   0  0  0  0  0  0  0  0  0  0  0  0
    2.9300   22.4600   34.9190 C   0  0  0  0  0  0  0  0  0  0  0  0
    2.6580   14.6790   36.8740 C   0  0  0  0  0  0  0  0  0  0  0  0
    1.3220   21.6110   39.7360 O   0  0  0  0  0  0  0  0  0  0  0  0
    2.0350   24.5410   33.2170 O   0  0  0  0  0  0  0  0  0  0  0  0
    3.3560   21.2910   35.6610 C   0  0  0  0  0  0  0  0  0  0  0  0
    0.9110   20.9910   41.7790 N   0  0  0  0  0  0  0  0  0  0  0  0
    2.5820   18.5120   39.4180 C   0  0  0  0  0  0  0  0  0  0  0  0
    3.6280   16.4860   38.9180 O   0  0  0  0  0  0  0  0  0  0  0  0
    3.3220   18.7900   38.2120 C   0  0  0  0  0  0  0  0  0  0  0  0
    2.9250   21.0210   36.9650 C   0  0  0  0  0  0  0  0  0  0  0  0
    2.0500   16.4140   40.6360 O   0  0  0  0  0  0  0  0  0  0  0  0
    2.7350   13.6190   36.3380 O   0  0  0  0  0  0  0  0  0  0  0  0
    2.6490   17.0260   39.8250 C   0  0  0  0  0  0  0  0  0  0  0  0
    2.9900   19.5900   37.4200 C   0  0  0  0  0  0  0  0  0  0  0  0
    1.7320   23.1850   35.2340 C   0  0  0  0  0  0  0  0  0  0  0  0
    2.7080   23.4980   32.5670 C   0  0  0  0  0  0  0  0  0  0  0  0
    4.2850   13.3220   37.7120 O   0  0  0  0  0  0  0  0  0  0  0  0
    2.0600   24.5820   34.6360 C   0  0  0  0  0  0  0  0  0  0  0  0
    3.6970   14.5040   37.4420 C   0  0  0  0  0  0  0  0  0  0  0  0
    3.5490   22.6970   33.5390 C   0  0  0  0  0  0  0  0  0  0  0  0
    1.8550   15.6540   36.7300 F   0  0  0  0  0  0  0  0  0  0  0  0
    3.4470   23.9320   31.3540 C   0  0  0  0  0  0  0  0  0  0  0  0
    3.9670   15.1600   38.7920 C   0  0  0  0  0  0  0  0  0  0  0  0
    1.7860   19.3220   40.2750 C   0  0  0  0  0  0  0  0  0  0  0  0
    3.5007   23.0757   35.6298 H   0  0  0  0  0  0  0  0  0  0  0  0
    3.0576   20.4219   35.0563 H   0  0  0  0  0  0  0  0  0  0  0  0
    4.4230   21.5060   35.8202 H   0  0  0  0  0  0  0  0  0  0  0  0
    0.9202   20.2755   42.5199 H   0  0  0  0  0  0  0  0  0  0  0  0
    0.5474   21.9339   41.9781 H   0  0  0  0  0  0  0  0  0  0  0  0
    4.3287   19.0897   38.5388 H   0  0  0  0  0  0  0  0  0  0  0  0
    3.1759   17.8561   37.6494 H   0  0  0  0  0  0  0  0  0  0  0  0
    3.5464   21.6162   37.6503 H   0  0  0  0  0  0  0  0  0  0  0  0
    1.8549   21.2758   36.9719 H   0  0  0  0  0  0  0  0  0  0  0  0
    1.9146   19.3600   37.3944 H   0  0  0  0  0  0  0  0  0  0  0  0
    3.9817   19.5075   36.9512 H   0  0  0  0  0  0  0  0  0  0  0  0
    0.8507   22.7367   34.7519 H   0  0  0  0  0  0  0  0  0  0  0  0
    1.4808   23.1994   36.3048 H   0  0  0  0  0  0  0  0  0  0  0  0
    1.9380   22.8153   32.1784 H   0  0  0  0  0  0  0  0  0  0  0  0
    4.3457   13.2000   38.6926 H   0  0  0  0  0  0  0  0  0  0  0  0
    3.0612   24.8915   34.9703 H   0  0  0  0  0  0  0  0  0  0  0  0
    1.3021   25.3005   34.9816 H   0  0  0  0  0  0  0  0  0  0  0  0
    4.0822   14.9591   36.5176 H   0  0  0  0  0  0  0  0  0  0  0  0
    3.7462   21.7148   33.0846 H   0  0  0  0  0  0  0  0  0  0  0  0
    4.4530   23.2980   33.7168 H   0  0  0  0  0  0  0  0  0  0  0  0
    4.3598   24.4681   31.6530 H   0  0  0  0  0  0  0  0  0  0  0  0
    3.7191   23.0502   30.7553 H   0  0  0  0  0  0  0  0  0  0  0  0
    2.8094   24.5991   30.7553 H   0  0  0  0  0  0  0  0  0  0  0  0
    3.4037   14.5993   39.5525 H   0  0  0  0  0  0  0  0  0  0  0  0
    5.0601   15.1309   38.9114 H   0  0  0  0  0  0  0  0  0  0  0  0
    1.2964   18.6668   41.0105 H   0  0  0  0  0  0  0  0  0  0  0  0
  1  7  1  0
  2 16  1  0
  2  6  1  0
  3 20  1  0
  4  1  2  0
  5 19  1  0
  6 11  1  0
  8 14  1  0
  8 25  2  3
  9 14  1  0
 10  8  1  0
 11 15  1  0
 13  3  2  0
 14 12  2  0
 15 10  1  0
 17 23  1  0
 17  5  1  0
 17 21  1  0
 19 16  1  0
 20 18  1  0
 20 24  1  0
 21  2  1  0
 22  3  1  0
 24  9  1  0
 25  1  1  0
  2 26  1  0
  6 27  1  0
  6 28  1  0
  7 29  1  0
  7 30  1  0
 10 31  1  0
 10 32  1  0
 11 33  1  0
 11 34  1  0
 15 35  1  0
 15 36  1  0
 16 37  1  0
 16 38  1  0
 17 39  1  0
 18 40  1  0
 19 41  1  0
 19 42  1  0
 20 43  1  0
 21 44  1  0
 21 45  1  0
 23 46  1  0
 23 47  1  0
 23 48  1  0
 24 49  1  0
 24 50  1  0
 25 51  1  0
M  END
>  <mol_id>  (63) 
2026-09-16-6tgu-s0-n100-0063

>  <rmsd_to_ref>  (63) 


$$$$

     RDKit          3D

 50 51  0  0  0  0  0  0  0  0999 V2000
    2.6770   15.8110   38.8690 C   0  0  0  0  0  0  0  0  0  0  0  0
    2.3680   14.6570   38.3790 N   0  0  0  0  0  0  0  0  0  0  0  0
    2.7720   14.1660   37.0940 C   0  0  0  0  0  0  0  0  0  0  0  0
    2.5980   23.6640   34.2570 C   0  0  0  0  0  0  0  0  0  0  0  0
    3.3130   20.9640   36.5190 C   0  0  0  0  0  0  0  0  0  0  0  0
    2.1990   22.3440   34.6550 C   0  0  0  0  0  0  0  0  0  0  0  0
    3.3940   28.1720   31.6600 C   0  0  0  0  0  0  0  0  0  0  0  0
    1.7870   26.6690   32.4090 C   0  0  0  0  0  0  0  0  0  0  0  0
    2.6910   25.5340   32.8280 C   0  0  0  0  0  0  0  0  0  0  0  0
    4.3830   26.1220   30.9950 C   0  0  0  0  0  0  0  0  0  0  0  0
    2.5800   19.7080   36.9010 O   0  0  0  0  0  0  0  0  0  0  0  0
    2.4480   24.7750   34.0200 C   0  0  0  0  0  0  0  0  0  0  0  0
    2.7620   17.0690   39.9300 C   0  0  0  0  0  0  0  0  0  0  0  0
    3.1820   18.7180   37.5500 C   0  0  0  0  0  0  0  0  0  0  0  0
    3.6710   25.2400   31.7810 C   0  0  0  0  0  0  0  0  0  0  0  0
    2.1200   27.9250   31.8240 C   0  0  0  0  0  0  0  0  0  0  0  0
    1.4360   20.5730   40.5660 C   0  0  0  0  0  0  0  0  0  0  0  0
    2.6370   18.6130   39.9840 C   0  0  0  0  0  0  0  0  0  0  0  0
    4.1760   13.8370   36.6290 O   0  0  0  0  0  1  0  0  0  0  0  0
    2.3510   22.1080   36.1600 C   0  0  0  0  0  0  0  0  0  0  0  0
    3.4470   19.0110   38.9430 O   0  0  0  0  0  0  0  0  0  0  0  0
    3.9290   17.7140   37.1100 C   0  0  0  0  0  0  0  0  0  0  0  0
    3.8050   16.3710   37.7270 C   0  0  0  0  0  0  0  0  0  0  0  0
    4.3500   27.4410   31.1010 C   0  0  0  0  0  0  0  0  0  0  0  0
    1.8970   19.1750   40.8080 O   0  0  0  0  0  0  0  0  0  0  0  0
    1.9770   13.7640   36.4010 O   0  0  0  0  0  0  0  0  0  0  0  0
    1.7833   14.0384   38.9589 H   0  0  0  0  0  0  0  0  0  0  0  0
    3.3922   23.7943   35.0068 H   0  0  0  0  0  0  0  0  0  0  0  0
    2.1840   23.4414   33.2625 H   0  0  0  0  0  0  0  0  0  0  0  0
    3.9400   21.2803   37.3656 H   0  0  0  0  0  0  0  0  0  0  0  0
    3.9235   20.7433   35.6310 H   0  0  0  0  0  0  0  0  0  0  0  0
    1.1437   22.1980   34.3809 H   0  0  0  0  0  0  0  0  0  0  0  0
    2.8567   21.6290   34.1391 H   0  0  0  0  0  0  0  0  0  0  0  0
    3.7276   29.1452   32.0493 H   0  0  0  0  0  0  0  0  0  0  0  0
    0.7135   26.5015   32.5807 H   0  0  0  0  0  0  0  0  0  0  0  0
    5.0314   25.6941   30.2162 H   0  0  0  0  0  0  0  0  0  0  0  0
    3.0513   25.2882   34.7833 H   0  0  0  0  0  0  0  0  0  0  0  0
    1.3522   24.7411   33.9303 H   0  0  0  0  0  0  0  0  0  0  0  0
    2.9806   16.6842   40.9370 H   0  0  0  0  0  0  0  0  0  0  0  0
    3.8656   24.1732   31.5964 H   0  0  0  0  0  0  0  0  0  0  0  0
    1.7066   28.7144   32.4690 H   0  0  0  0  0  0  0  0  0  0  0  0
    1.6957   27.8958   30.8095 H   0  0  0  0  0  0  0  0  0  0  0  0
    1.2700   21.0764   41.5299 H   0  0  0  0  0  0  0  0  0  0  0  0
    2.2020   21.1180   39.9948 H   0  0  0  0  0  0  0  0  0  0  0  0
    0.4961   20.5555   39.9948 H   0  0  0  0  0  0  0  0  0  0  0  0
    2.7279   23.0339   36.6191 H   0  0  0  0  0  0  0  0  0  0  0  0
    1.3591   21.8208   36.5391 H   0  0  0  0  0  0  0  0  0  0  0  0
    4.6406   17.8775   36.2873 H   0  0  0  0  0  0  0  0  0  0  0  0
    4.5498   15.6311   37.3986 H   0  0  0  0  0  0  0  0  0  0  0  0
    5.2061   27.9894   30.6811 H   0  0  0  0  0  0  0  0  0  0  0  0
  1 13  1  0
  2  1  1  0
  3  2  1  0
  4  6  1  0
  5 11  1  0
  6 20  1  0
  7 16  1  0
  8  9  2  0
  9 12  1  0
 10 24  1  0
 10 15  2  0
 11 14  1  0
 12  4  1  0
 13 18  2  0
 14 21  1  0
 15  9  1  0
 16  8  1  0
 17 25  1  0
 18 25  1  0
 19  3  1  0
 20  5  1  0
 21 18  1  0
 22 14  2  0
 22 23  1  0
 23  1  2  0
 24  7  2  0
 26  3  2  0
  2 27  1  0
  4 28  1  0
  4 29  1  0
  5 30  1  0
  5 31  1  0
  6 32  1  0
  6 33  1  0
  7 34  1  0
  8 35  1  0
 10 36  1  0
 12 37  1  0
 12 38  1  0
 13 39  1  0
 15 40  1  0
 16 41  1  0
 16 42  1  0
 17 43  1  0
 17 44  1  0
 17 45  1  0
 20 46  1  0
 20 47  1  0
 22 48  1  0
 23 49  1  0
 24 50  1  0
M  CHG  1  19  -1
M  END
>  <mol_id>  (64) 
2026-09-16-6tgu-s0-n100-0064

>  <rmsd_to_ref>  (64) 


$$$$

     RDKit          3D

 74 77  0  0  0  0  0  0  0  0999 V2000
    3.7080   24.5510   32.5580 C   0  0  0  0  0  0  0  0  0  0  0  0
    2.3570   14.7620   40.4320 C   0  0  0  0  0  0  0  0  0  0  0  0
    1.8170   13.6230   42.4650 O   0  0  0  0  0  1  0  0  0  0  0  0
    2.1950   19.3500   40.1400 C   0  0  0  0  0  0  0  0  0  0  0  0
    2.9460   18.4580   39.5980 N   0  0  0  0  0  0  0  0  0  0  0  0
    3.2040   23.4380   33.4820 C   0  0  0  0  0  0  0  0  0  0  0  0
    1.1500   21.1430   41.2320 C   0  0  0  0  0  0  0  0  0  0  0  0
    2.5450   12.5160   40.7390 O   0  0  0  0  0  0  0  0  0  0  0  0
    4.9860   22.9180   31.3090 O   0  0  0  0  0  0  0  0  0  0  0  0
    3.0070   15.9250   38.6260 C   0  0  0  0  0  0  0  0  0  0  0  0
    3.6320   19.6270   36.7410 N   0  0  0  0  0  4  0  0  0  0  0  0
    3.1040   24.5830   29.7970 S   0  0  0  0  0  4  0  0  0  0  0  0
    2.1160   14.9490   36.5910 N   0  0  0  0  0  4  0  0  0  0  0  0
    2.6340   16.1760   37.1720 C   0  0  0  0  0  0  0  0  0  0  0  0
    2.1710   25.7290   30.4520 C   0  0  0  0  0  0  0  0  0  0  0  0
    5.4950   24.0080   28.6550 C   0  0  0  0  0  0  0  0  0  0  0  0
    3.9440   22.2280   33.1340 O   0  0  0  0  0  0  0  0  0  0  0  0
    5.2340   22.6610   32.6320 C   0  0  0  0  0  0  0  0  0  0  0  0
    2.0130   23.3950   29.4940 C   0  0  0  0  0  0  0  0  0  0  0  0
    2.8690   20.7490   37.1180 C   0  0  0  0  0  0  0  0  0  0  0  0
    1.6270   16.0800   40.9750 C   0  0  0  0  0  0  0  0  0  0  0  0
    1.4530   19.7210   41.2990 C   0  0  0  0  0  0  0  0  0  0  0  0
    4.1860   23.3710   28.8570 C   0  0  0  0  0  0  0  0  0  0  0  0
    2.2200   20.4110   39.2460 C   0  0  0  0  0  0  0  0  0  0  0  0
    0.5660   21.7020   42.2430 N   0  0  0  0  0  0  0  0  0  0  0  0
    2.7820   22.8160   28.2770 C   0  0  0  0  0  0  0  0  0  0  0  0
    3.9810   16.5180   37.6440 N   0  0  0  0  0  4  0  0  0  0  0  0
    3.4030   19.0000   38.0970 C   0  0  0  0  0  0  0  0  0  0  0  0
    1.5610   21.6670   39.9260 S   0  0  0  0  0  0  0  0  0  0  0  0
    2.9250   20.2590   38.1580 C   0  0  0  0  0  0  0  0  0  0  0  0
    2.2810   13.5520   41.1960 C   0  0  0  0  0  0  0  0  0  0  0  0
    4.0530   23.9810   31.2020 C   0  0  0  0  0  0  0  0  0  0  0  0
    3.3940   14.6010   39.2820 C   0  0  0  0  0  0  0  0  0  0  0  0
    2.9228   25.3129   32.4437 H   0  0  0  0  0  0  0  0  0  0  0  0
    4.6080   25.0054   32.9980 H   0  0  0  0  0  0  0  0  0  0  0  0
    1.6396   15.3314   39.8228 H   0  0  0  0  0  0  0  0  0  0  0  0
    3.2178   17.5600   40.0229 H   0  0  0  0  0  0  0  0  0  0  0  0
    3.3899   23.7058   34.5326 H   0  0  0  0  0  0  0  0  0  0  0  0
    2.1215   23.2856   33.3596 H   0  0  0  0  0  0  0  0  0  0  0  0
    2.4857   16.1698   39.5632 H   0  0  0  0  0  0  0  0  0  0  0  0
    3.2302   19.0910   35.9586 H   0  0  0  0  0  0  0  0  0  0  0  0
    4.5899   19.7494   36.3827 H   0  0  0  0  0  0  0  0  0  0  0  0
    1.8426   14.3014   37.3438 H   0  0  0  0  0  0  0  0  0  0  0  0
    1.2943   15.1650   36.0087 H   0  0  0  0  0  0  0  0  0  0  0  0
    2.8439   14.5109   36.0087 H   0  0  0  0  0  0  0  0  0  0  0  0
    2.0103   16.7765   36.4935 H   0  0  0  0  0  0  0  0  0  0  0  0
    2.2247   25.6631   31.5487 H   0  0  0  0  0  0  0  0  0  0  0  0
    2.5232   26.7190   30.1265 H   0  0  0  0  0  0  0  0  0  0  0  0
    1.1302   25.5849   30.1265 H   0  0  0  0  0  0  0  0  0  0  0  0
    5.9497   24.2293   29.6319 H   0  0  0  0  0  0  0  0  0  0  0  0
    6.1505   23.3281   28.0910 H   0  0  0  0  0  0  0  0  0  0  0  0
    5.3645   24.9433   28.0910 H   0  0  0  0  0  0  0  0  0  0  0  0
    5.9876   21.8677   32.7450 H   0  0  0  0  0  0  0  0  0  0  0  0
    5.6367   23.5307   33.1719 H   0  0  0  0  0  0  0  0  0  0  0  0
    1.9178   22.6778   30.3226 H   0  0  0  0  0  0  0  0  0  0  0  0
    0.9638   23.6894   29.3439 H   0  0  0  0  0  0  0  0  0  0  0  0
    3.3736   21.7218   37.0223 H   0  0  0  0  0  0  0  0  0  0  0  0
    1.9318   21.0510   36.6277 H   0  0  0  0  0  0  0  0  0  0  0  0
    1.6302   16.0742   42.0750 H   0  0  0  0  0  0  0  0  0  0  0  0
    2.1604   16.9707   40.6115 H   0  0  0  0  0  0  0  0  0  0  0  0
    0.5890   16.1004   40.6115 H   0  0  0  0  0  0  0  0  0  0  0  0
    1.1572   19.0423   42.1126 H   0  0  0  0  0  0  0  0  0  0  0  0
    4.8475   22.4921   28.8514 H   0  0  0  0  0  0  0  0  0  0  0  0
    0.3421   22.7070   42.2174 H   0  0  0  0  0  0  0  0  0  0  0  0
    0.3252   21.1417   43.0731 H   0  0  0  0  0  0  0  0  0  0  0  0
    2.4914   23.2622   27.3145 H   0  0  0  0  0  0  0  0  0  0  0  0
    2.6792   21.7508   28.0226 H   0  0  0  0  0  0  0  0  0  0  0  0
    4.7893   15.9633   37.3278 H   0  0  0  0  0  0  0  0  0  0  0  0
    4.5539   17.3738   37.6264 H   0  0  0  0  0  0  0  0  0  0  0  0
    4.3886   19.3581   38.4290 H   0  0  0  0  0  0  0  0  0  0  0  0
    3.4722   21.1744   38.4274 H   0  0  0  0  0  0  0  0  0  0  0  0
    4.5457   24.1698   30.2368 H   0  0  0  0  0  0  0  0  0  0  0  0
    3.2036   13.7261   38.6430 H   0  0  0  0  0  0  0  0  0  0  0  0
    4.4488   14.4322   39.5443 H   0  0  0  0  0  0  0  0  0  0  0  0
  1  6  1  0
  2 21  1  0
  2 31  1  0
  4 22  1  0
  5  4  1  0
  7 22  2  0
  7 25  1  0
  8 31  2  0
  9 18  1  0
 10 33  1  0
 11 20  1  0
 12 15  1  0
 12 32  1  0
 14 13  1  0
 14 27  1  0
 14 10  1  0
 17  6  1  0
 18 17  1  0
 19 12  1  0
 23 16  1  0
 23 12  1  0
 24 29  1  0
 24  4  2  0
 26 23  1  0
 26 19  1  0
 27 10  1  0
 28 11  1  0
 28 30  1  0
 28  5  1  0
 29  7  1  0
 30 20  1  0
 30 24  1  0
 31  3  1  0
 32  9  1  0
 32  1  1  0
 33  2  1  0
  1 34  1  0
  1 35  1  0
  2 36  1  0
  5 37  1  0
  6 38  1  0
  6 39  1  0
 10 40  1  0
 11 41  1  0
 11 42  1  0
 13 43  1  0
 13 44  1  0
 13 45  1  0
 14 46  1  0
 15 47  1  0
 15 48  1  0
 15 49  1  0
 16 50  1  0
 16 51  1  0
 16 52  1  0
 18 53  1  0
 18 54  1  0
 19 55  1  0
 19 56  1  0
 20 57  1  0
 20 58  1  0
 21 59  1  0
 21 60  1  0
 21 61  1  0
 22 62  1  0
 23 63  1  0
 25 64  1  0
 25 65  1  0
 26 66  1  0
 26 67  1  0
 27 68  1  0
 27 69  1  0
 28 70  1  0
 30 71  1  0
 32 72  1  0
 33 73  1  0
 33 74  1  0
M  CHG  4   3  -1  11   1  13   1  27   1
M  END
>  <mol_id>  (65) 
2026-09-16-6tgu-s0-n100-0065

>  <rmsd_to_ref>  (65) 


$$$$

     RDKit          3D

 60 61  0  0  0  0  0  0  0  0999 V2000
    0.3450   20.4830   42.5360 C   0  0  0  0  0  0  0  0  0  0  0  0
    2.0640   24.7570   30.4990 C   0  0  0  0  0  0  0  0  0  0  0  0
    3.2080   22.5250   33.4790 C   0  0  0  0  0  0  0  0  0  0  0  0
    3.8390   24.5960   28.7840 C   0  0  0  0  0  0  0  0  0  0  0  0
    2.2770   20.9550   38.6000 C   0  0  0  0  0  0  0  0  0  0  0  0
    4.0600   23.1680   31.3500 C   0  0  0  0  0  0  0  0  0  0  0  0
    3.4880   19.1340   37.1930 C   0  0  0  0  0  0  0  0  0  0  0  0
    1.7940   23.9330   28.3540 F   0  0  0  0  0  0  0  0  0  0  0  0
    3.6950   21.9770   32.3600 N   0  0  0  0  0  4  0  0  0  0  0  0
    2.9920   19.7190   38.5840 N   0  0  0  0  0  0  0  0  0  0  0  0
    2.1240   20.0790   40.7380 C   0  0  0  0  0  0  0  0  0  0  0  0
    3.6780   21.9430   34.6820 C   0  0  0  0  0  0  0  0  0  0  0  0
    3.5060   20.1940   36.3990 C   0  0  0  0  0  0  0  0  0  0  0  0
    3.6340   20.9180   35.4580 C   0  0  0  0  0  0  0  0  0  0  0  0
    0.9530   18.1870   42.0970 C   0  0  0  0  0  0  0  0  0  0  0  0
    3.1280   19.2230   39.8940 C   0  0  0  0  0  0  0  0  0  0  0  0
   -0.2610   18.7820   44.1320 C   0  0  0  0  0  0  0  0  0  0  0  0
    0.5350   21.8530   42.3380 O   0  0  0  0  0  0  0  0  0  0  0  0
    4.1830   24.7290   27.3280 C   0  0  0  0  0  0  0  0  0  0  0  0
    0.1950   17.7490   43.3240 C   0  0  0  0  0  0  0  0  0  0  0  0
    2.5100   24.4710   29.1790 C   0  0  0  0  0  0  0  0  0  0  0  0
    3.9970   18.3480   40.3230 O   0  0  0  0  0  0  0  0  0  0  0  0
    3.0850   24.2150   31.6650 C   0  0  0  0  0  0  0  0  0  0  0  0
   -0.5010   20.1410   43.5760 C   0  0  0  0  0  0  0  0  0  0  0  0
    1.6490   21.0400   39.7710 C   0  0  0  0  0  0  0  0  0  0  0  0
    1.1000   19.4820   41.8310 C   0  0  0  0  0  0  0  0  0  0  0  0
   -0.0578   20.1778   41.5590 H   0  0  0  0  0  0  0  0  0  0  0  0
    1.0831   24.2815   30.6461 H   0  0  0  0  0  0  0  0  0  0  0  0
    2.0144   25.8517   30.5946 H   0  0  0  0  0  0  0  0  0  0  0  0
    2.1125   22.4284   33.4580 H   0  0  0  0  0  0  0  0  0  0  0  0
    3.5531   23.5694   33.4863 H   0  0  0  0  0  0  0  0  0  0  0  0
    4.2363   25.4902   29.2866 H   0  0  0  0  0  0  0  0  0  0  0  0
    4.2754   23.6241   29.0579 H   0  0  0  0  0  0  0  0  0  0  0  0
    1.5451   20.9759   37.7791 H   0  0  0  0  0  0  0  0  0  0  0  0
    2.9659   21.8023   38.4679 H   0  0  0  0  0  0  0  0  0  0  0  0
    3.9565   22.8396   30.3053 H   0  0  0  0  0  0  0  0  0  0  0  0
    5.0991   23.5117   31.4604 H   0  0  0  0  0  0  0  0  0  0  0  0
    4.4927   18.6962   37.2867 H   0  0  0  0  0  0  0  0  0  0  0  0
    2.8439   18.3267   36.8143 H   0  0  0  0  0  0  0  0  0  0  0  0
    2.9873   21.3613   31.9346 H   0  0  0  0  0  0  0  0  0  0  0  0
    4.5315   21.4138   32.5696 H   0  0  0  0  0  0  0  0  0  0  0  0
    2.6543   20.4912   41.6092 H   0  0  0  0  0  0  0  0  0  0  0  0
    4.7620   21.9939   34.5022 H   0  0  0  0  0  0  0  0  0  0  0  0
    2.8435   22.4006   35.2335 H   0  0  0  0  0  0  0  0  0  0  0  0
    1.3852   17.4348   41.4207 H   0  0  0  0  0  0  0  0  0  0  0  0
   -1.2171   18.4458   44.5597 H   0  0  0  0  0  0  0  0  0  0  0  0
    0.5853   18.9462   44.8153 H   0  0  0  0  0  0  0  0  0  0  0  0
    0.5980   22.3076   43.2152 H   0  0  0  0  0  0  0  0  0  0  0  0
    5.2047   25.1240   27.2272 H   0  0  0  0  0  0  0  0  0  0  0  0
    4.1220   23.7425   26.8452 H   0  0  0  0  0  0  0  0  0  0  0  0
    3.4742   25.4179   26.8452 H   0  0  0  0  0  0  0  0  0  0  0  0
   -0.6759   17.1626   42.9958 H   0  0  0  0  0  0  0  0  0  0  0  0
    0.9053   17.1720   43.9344 H   0  0  0  0  0  0  0  0  0  0  0  0
    2.1525   25.4870   29.4027 H   0  0  0  0  0  0  0  0  0  0  0  0
    3.6562   25.0862   32.0183 H   0  0  0  0  0  0  0  0  0  0  0  0
    2.4124   23.7283   32.3866 H   0  0  0  0  0  0  0  0  0  0  0  0
   -0.3675   20.8739   44.3853 H   0  0  0  0  0  0  0  0  0  0  0  0
   -1.5223   20.1409   43.1674 H   0  0  0  0  0  0  0  0  0  0  0  0
    1.8012   22.0507   40.1776 H   0  0  0  0  0  0  0  0  0  0  0  0
    0.5854   20.8256   39.5898 H   0  0  0  0  0  0  0  0  0  0  0  0
  1 18  1  0
  1 24  1  0
  2 23  1  0
  3 12  1  0
  4 21  1  0
  5 25  1  0
  6 23  1  0
  6  9  1  0
  7 10  1  0
  9  3  1  0
 10  5  1  0
 10 16  1  0
 11 26  1  0
 12 14  1  0
 13  7  1  0
 14 13  3  0
 15 20  1  0
 16 22  2  0
 16 11  1  0
 19  4  1  0
 20 17  1  0
 21  8  1  0
 21  2  1  0
 24 17  1  0
 25 11  1  0
 26 15  2  0
 26  1  1  0
  1 27  1  0
  2 28  1  0
  2 29  1  0
  3 30  1  0
  3 31  1  0
  4 32  1  0
  4 33  1  0
  5 34  1  0
  5 35  1  0
  6 36  1  0
  6 37  1  0
  7 38  1  0
  7 39  1  0
  9 40  1  0
  9 41  1  0
 11 42  1  0
 12 43  1  0
 12 44  1  0
 15 45  1  0
 17 46  1  0
 17 47  1  0
 18 48  1  0
 19 49  1  0
 19 50  1  0
 19 51  1  0
 20 52  1  0
 20 53  1  0
 21 54  1  0
 23 55  1  0
 23 56  1  0
 24 57  1  0
 24 58  1  0
 25 59  1  0
 25 60  1  0
M  CHG  1   9   1
M  END
>  <mol_id>  (66) 
2026-09-16-6tgu-s0-n100-0066

>  <rmsd_to_ref>  (66) 


$$$$

     RDKit          3D

 58 60  0  0  0  0  0  0  0  0999 V2000
    4.8210   25.0380   29.1060 N   0  0  0  0  0  0  0  0  0  0  0  0
    2.8480   15.3850   38.9520 O   0  0  0  0  0  0  0  0  0  0  0  0
    3.9900   23.2140   28.1500 C   0  0  0  0  0  0  0  0  0  0  0  0
   -0.8180   19.3820   42.6710 C   0  0  0  0  0  0  0  0  0  0  0  0
    2.4570   16.0280   40.0590 C   0  0  0  0  0  0  0  0  0  0  0  0
    3.3180   19.6010   39.4130 C   0  0  0  0  0  0  0  0  0  0  0  0
    1.0210   18.3000   41.8850 C   0  0  0  0  0  0  0  0  0  0  0  0
    1.7700   21.3900   39.7490 O   0  0  0  0  0  0  0  0  0  0  0  0
   -0.0710   18.3310   42.8680 C   0  0  0  0  0  0  0  0  0  0  0  0
    3.5500   23.8590   30.9400 C   0  0  0  0  0  0  0  0  0  0  0  0
    1.8140   17.1290   41.7740 N   0  0  0  0  0  0  0  0  0  0  0  0
    2.0870   20.2740   40.0230 C   0  0  0  0  0  0  0  0  0  0  0  0
    3.3630   20.4780   37.1090 C   0  0  0  0  0  0  0  0  0  0  0  0
    3.1760   19.4320   37.8140 C   0  0  0  0  0  0  0  0  0  0  0  0
    1.8670   16.1730   41.3450 O   0  0  0  0  0  0  0  0  0  0  0  0
    2.5610   21.3530   36.3850 C   0  0  0  0  0  0  0  0  0  0  0  0
    2.2570   24.9580   28.8110 C   0  0  0  0  0  0  0  0  0  0  0  0
    5.6470   24.9240   29.5710 F   0  0  0  0  0  0  0  0  0  0  0  0
    3.0410   16.7930   39.4180 O   0  0  0  0  0  0  0  0  0  0  0  0
    2.7650   23.9950   31.8360 C   0  0  0  0  0  0  0  0  0  0  0  0
    3.7340   24.0340   29.3050 C   0  0  0  0  0  0  0  0  0  0  0  0
    1.0990   19.5580   41.0740 C   0  0  0  0  0  0  0  0  0  0  0  0
   -2.0340   19.5220   43.1670 O   0  0  0  0  0  0  0  0  0  0  0  0
    2.3390   23.1320   31.1480 C   0  0  0  0  0  0  0  0  0  0  0  0
    3.1820   21.8130   35.1250 C   0  0  0  0  0  0  0  0  0  0  0  0
    2.8750   22.4590   33.7810 C   0  0  0  0  0  0  0  0  0  0  0  0
   -0.1930   20.5790   41.5240 S   0  0  0  0  0  0  0  0  0  0  0  0
    2.8120   23.7220   33.3610 C   0  0  0  0  0  0  0  0  0  0  0  0
    4.0220   20.7090   34.7360 C   0  0  0  0  0  0  0  0  0  0  0  0
    5.0403   25.0500   28.0997 H   0  0  0  0  0  0  0  0  0  0  0  0
    4.3032   22.2108   28.4747 H   0  0  0  0  0  0  0  0  0  0  0  0
    3.0739   23.1346   27.5463 H   0  0  0  0  0  0  0  0  0  0  0  0
    4.7886   23.6700   27.5463 H   0  0  0  0  0  0  0  0  0  0  0  0
    1.4868   16.2468   39.5892 H   0  0  0  0  0  0  0  0  0  0  0  0
    4.2041   20.2159   39.6291 H   0  0  0  0  0  0  0  0  0  0  0  0
    3.4156   18.5989   39.8561 H   0  0  0  0  0  0  0  0  0  0  0  0
   -0.2343   17.5789   43.6539 H   0  0  0  0  0  0  0  0  0  0  0  0
    4.6245   24.0829   31.0135 H   0  0  0  0  0  0  0  0  0  0  0  0
    2.6690   17.2731   42.3300 H   0  0  0  0  0  0  0  0  0  0  0  0
    3.8741   21.1511   37.8131 H   0  0  0  0  0  0  0  0  0  0  0  0
    3.7043   19.9229   36.2228 H   0  0  0  0  0  0  0  0  0  0  0  0
    2.1592   19.0674   37.6063 H   0  0  0  0  0  0  0  0  0  0  0  0
    3.9803   18.7400   37.5237 H   0  0  0  0  0  0  0  0  0  0  0  0
    1.6178   20.8416   36.1424 H   0  0  0  0  0  0  0  0  0  0  0  0
    2.4025   22.2425   37.0124 H   0  0  0  0  0  0  0  0  0  0  0  0
    1.7181   25.2951   29.7087 H   0  0  0  0  0  0  0  0  0  0  0  0
    2.5542   25.8315   28.2121 H   0  0  0  0  0  0  0  0  0  0  0  0
    1.6015   24.3086   28.2121 H   0  0  0  0  0  0  0  0  0  0  0  0
    2.4469   24.9924   32.1736 H   0  0  0  0  0  0  0  0  0  0  0  0
    1.7000   19.9514   41.9070 H   0  0  0  0  0  0  0  0  0  0  0  0
    1.4604   23.2994   30.5076 H   0  0  0  0  0  0  0  0  0  0  0  0
    2.0298   22.0821   31.2584 H   0  0  0  0  0  0  0  0  0  0  0  0
    3.2412   22.8110   35.5839 H   0  0  0  0  0  0  0  0  0  0  0  0
    2.6594   21.7277   32.9881 H   0  0  0  0  0  0  0  0  0  0  0  0
    2.7937   24.5532   34.0813 H   0  0  0  0  0  0  0  0  0  0  0  0
    4.4053   20.2052   35.6356 H   0  0  0  0  0  0  0  0  0  0  0  0
    3.4362   19.9956   34.1377 H   0  0  0  0  0  0  0  0  0  0  0  0
    4.8658   21.0833   34.1377 H   0  0  0  0  0  0  0  0  0  0  0  0
  1 21  1  0
  1 18  1  0
  2 19  1  0
  2  5  1  0
  3 21  1  0
  4  9  1  0
  4 23  2  0
  5 15  1  0
  6 12  1  0
  7  9  2  0
  8 12  2  0
 10 21  1  0
 10 24  1  0
 10 20  1  0
 11  7  1  0
 13 14  1  0
 14  6  1  0
 15 11  1  0
 16 13  1  0
 17 21  1  0
 19  5  1  0
 20 28  1  0
 22 12  1  0
 22 27  1  0
 22  7  1  0
 24 20  1  0
 25 29  1  0
 25 16  1  0
 26 25  1  0
 27  4  1  0
 28 26  2  3
  1 30  1  0
  3 31  1  0
  3 32  1  0
  3 33  1  0
  5 34  1  0
  6 35  1  0
  6 36  1  0
  9 37  1  0
 10 38  1  0
 11 39  1  0
 13 40  1  0
 13 41  1  0
 14 42  1  0
 14 43  1  0
 16 44  1  0
 16 45  1  0
 17 46  1  0
 17 47  1  0
 17 48  1  0
 20 49  1  0
 22 50  1  0
 24 51  1  0
 24 52  1  0
 25 53  1  0
 26 54  1  0
 28 55  1  0
 29 56  1  0
 29 57  1  0
 29 58  1  0
M  END
>  <mol_id>  (67) 
2026-09-16-6tgu-s0-n100-0067

>  <rmsd_to_ref>  (67) 


$$$$

     RDKit          3D

 70 71  0  0  0  0  0  0  0  0999 V2000
    4.0910   25.6300   30.7540 C   0  0  0  0  0  0  0  0  0  0  0  0
    5.3110   15.9700   36.8080 O   0  0  0  0  0  1  0  0  0  0  0  0
    3.7050   17.9900   37.6000 C   0  0  0  0  0  0  0  0  0  0  0  0
    1.6680   27.5620   30.9260 C   0  0  0  0  0  0  0  0  0  0  0  0
    3.2990   16.7230   37.8390 C   0  0  0  0  0  0  0  0  0  0  0  0
    2.4820   24.5720   28.0870 O   0  0  0  0  0  0  0  0  0  0  0  0
    2.6800   20.6210   38.7460 N   0  0  0  0  0  0  0  0  0  0  0  0
    1.9370   18.8110   40.2930 C   0  0  0  0  0  0  0  0  0  0  0  0
    1.4410   17.2340   42.0530 C   0  0  0  0  0  0  0  0  0  0  0  0
    3.9230   23.1830   34.3130 C   0  0  0  0  0  0  0  0  0  0  0  0
    1.9580   22.1790   35.5440 N   0  0  0  0  0  4  0  0  0  0  0  0
    2.4600   25.6580   29.2360 C   0  0  0  0  0  0  0  0  0  0  0  0
    2.7480   19.4060   39.2650 C   0  0  0  0  0  0  0  0  0  0  0  0
    0.4980   26.9230   30.0010 C   0  0  0  0  0  0  0  0  0  0  0  0
    1.7910   21.0400   38.0060 N   0  0  0  0  0  0  0  0  0  0  0  0
    0.2470   20.5830   42.6110 N   0  0  0  0  0  0  0  0  0  0  0  0
    2.0210   17.5240   40.7500 C   0  0  0  0  0  0  0  0  0  0  0  0
    2.9680   23.9430   33.5690 O   0  0  0  0  0  0  0  0  0  0  0  0
    0.8940   25.7270   29.0830 C   0  0  0  0  0  0  0  0  0  0  0  0
    2.0270   26.1440   31.3500 O   0  0  0  0  0  0  0  0  0  0  0  0
    4.1080   20.9930   35.7610 C   0  0  0  0  0  0  0  0  0  0  0  0
    3.2150   21.8190   34.8140 C   0  0  0  0  0  0  0  0  0  0  0  0
    0.8690   18.2970   42.8170 C   0  0  0  0  0  0  0  0  0  0  0  0
    3.7320   18.7690   38.7370 O   0  0  0  0  0  0  0  0  0  0  0  0
    4.0660   15.7870   37.1250 C   0  0  0  0  0  0  0  0  0  0  0  0
    0.8070   27.3280   27.0250 C   0  0  0  0  0  0  0  0  0  0  0  0
    1.6290   28.0230   29.5440 C   0  0  0  0  0  0  0  0  0  0  0  0
    0.7640   19.5410   42.2200 C   0  0  0  0  0  0  0  0  0  0  0  0
    0.5810   25.8900   27.5110 C   0  0  0  0  0  0  0  0  0  0  0  0
    1.2840   19.8340   40.9700 N   0  0  0  0  0  0  0  0  0  0  0  0
    2.8820   25.7680   30.5830 C   0  0  0  0  0  0  0  0  0  0  0  0
    3.4200   14.7590   36.7300 O   0  0  0  0  0  0  0  0  0  0  0  0
    1.7880   22.0220   36.9230 C   0  0  0  0  0  0  0  0  0  0  0  0
    4.5146   25.6987   31.7668 H   0  0  0  0  0  0  0  0  0  0  0  0
    4.7497   25.4377   29.8942 H   0  0  0  0  0  0  0  0  0  0  0  0
    4.7178   17.9590   37.1719 H   0  0  0  0  0  0  0  0  0  0  0  0
    2.9808   18.4431   36.9070 H   0  0  0  0  0  0  0  0  0  0  0  0
    2.0036   28.2230   31.7387 H   0  0  0  0  0  0  0  0  0  0  0  0
    3.3945   16.5153   38.9150 H   0  0  0  0  0  0  0  0  0  0  0  0
    2.2533   16.6308   37.5104 H   0  0  0  0  0  0  0  0  0  0  0  0
    2.5003   23.6672   28.4884 H   0  0  0  0  0  0  0  0  0  0  0  0
    2.6840   21.2607   39.5533 H   0  0  0  0  0  0  0  0  0  0  0  0
    1.4431   16.2065   42.4456 H   0  0  0  0  0  0  0  0  0  0  0  0
    4.2643   23.7647   35.1820 H   0  0  0  0  0  0  0  0  0  0  0  0
    4.7915   22.9465   33.6807 H   0  0  0  0  0  0  0  0  0  0  0  0
    1.2099   21.6240   35.1044 H   0  0  0  0  0  0  0  0  0  0  0  0
    1.9678   23.2056   35.4611 H   0  0  0  0  0  0  0  0  0  0  0  0
    3.2984   26.3526   29.0793 H   0  0  0  0  0  0  0  0  0  0  0  0
    2.0812   19.0311   38.4746 H   0  0  0  0  0  0  0  0  0  0  0  0
   -0.5686   26.7331   30.1914 H   0  0  0  0  0  0  0  0  0  0  0  0
    1.4319   20.1860   37.5558 H   0  0  0  0  0  0  0  0  0  0  0  0
    0.2684   21.4234   42.0159 H   0  0  0  0  0  0  0  0  0  0  0  0
   -0.2083   20.6172   43.5343 H   0  0  0  0  0  0  0  0  0  0  0  0
    2.5087   16.7379   40.1548 H   0  0  0  0  0  0  0  0  0  0  0  0
    2.3674   24.4210   34.1942 H   0  0  0  0  0  0  0  0  0  0  0  0
    0.3112   24.8468   29.3922 H   0  0  0  0  0  0  0  0  0  0  0  0
    3.8527   21.2291   36.8046 H   0  0  0  0  0  0  0  0  0  0  0  0
    3.9444   19.9209   35.5771 H   0  0  0  0  0  0  0  0  0  0  0  0
    5.1641   21.2396   35.5771 H   0  0  0  0  0  0  0  0  0  0  0  0
    3.0152   21.2031   33.9248 H   0  0  0  0  0  0  0  0  0  0  0  0
    0.5227   18.1318   43.8479 H   0  0  0  0  0  0  0  0  0  0  0  0
    0.9120   27.9960   27.8926 H   0  0  0  0  0  0  0  0  0  0  0  0
    1.7228   27.3699   26.4170 H   0  0  0  0  0  0  0  0  0  0  0  0
   -0.0518   27.6488   26.4170 H   0  0  0  0  0  0  0  0  0  0  0  0
    1.3227   29.0567   29.3258 H   0  0  0  0  0  0  0  0  0  0  0  0
    2.3709   28.0595   28.7327 H   0  0  0  0  0  0  0  0  0  0  0  0
    1.2418   25.2163   26.9458 H   0  0  0  0  0  0  0  0  0  0  0  0
   -0.4775   25.6390   27.3479 H   0  0  0  0  0  0  0  0  0  0  0  0
    2.5405   22.7317   37.2973 H   0  0  0  0  0  0  0  0  0  0  0  0
    0.7015   21.9067   36.7955 H   0  0  0  0  0  0  0  0  0  0  0  0
  2 25  1  0
  3  5  1  0
  3 24  1  0
  4 27  1  0
  4 20  1  0
  7 13  1  0
  8 17  2  0
  8 30  1  0
  9 23  2  0
 10 22  1  0
 11 33  1  0
 12  6  1  0
 12 31  1  0
 13 24  1  0
 13  8  1  0
 14 27  1  0
 14  4  1  0
 15  7  1  0
 17  9  1  0
 18 10  1  0
 19 29  1  0
 19 12  1  0
 19 14  1  0
 22 11  1  0
 22 21  1  0
 25  5  1  0
 26 29  1  0
 28 16  1  0
 28 23  1  0
 30 28  2  0
 31  1  2  3
 31 20  1  0
 32 25  2  0
 33 15  1  0
  1 34  1  0
  1 35  1  0
  3 36  1  0
  3 37  1  0
  4 38  1  0
  5 39  1  0
  5 40  1  0
  6 41  1  0
  7 42  1  0
  9 43  1  0
 10 44  1  0
 10 45  1  0
 11 46  1  0
 11 47  1  0
 12 48  1  0
 13 49  1  0
 14 50  1  0
 15 51  1  0
 16 52  1  0
 16 53  1  0
 17 54  1  0
 18 55  1  0
 19 56  1  0
 21 57  1  0
 21 58  1  0
 21 59  1  0
 22 60  1  0
 23 61  1  0
 26 62  1  0
 26 63  1  0
 26 64  1  0
 27 65  1  0
 27 66  1  0
 29 67  1  0
 29 68  1  0
 33 69  1  0
 33 70  1  0
M  CHG  2   2  -1  11   1
M  END
>  <mol_id>  (68) 
2026-09-16-6tgu-s0-n100-0068

>  <rmsd_to_ref>  (68) 


$$$$

     RDKit          3D

 31 32  0  0  0  0  0  0  0  0999 V2000
    3.4420   22.3810   33.7110 C   0  0  0  0  0  0  0  0  0  0  0  0
    4.5850   23.0410   33.2220 C   0  0  0  0  0  0  0  0  0  0  0  0
    2.4190   19.6880   38.0280 C   0  0  0  0  0  0  0  0  0  0  0  0
    2.9260   21.8360   35.1210 C   0  0  0  0  0  0  0  0  0  0  0  0
    4.3480   18.7490   39.1180 C   0  0  0  0  0  0  0  0  0  0  0  0
    1.3420   20.8070   40.0270 N   0  0  0  0  0  4  0  0  0  0  0  0
    3.7550   19.8910   37.8680 C   0  0  0  0  0  0  0  0  0  0  0  0
    2.9450   21.1340   38.0410 C   0  0  0  0  0  0  0  0  0  0  0  0
    1.9690   22.8510   34.0790 C   0  0  0  0  0  0  0  0  0  0  0  0
    2.4330   21.9000   36.5320 C   0  0  0  0  0  0  0  0  0  0  0  0
    4.0710   21.5690   32.6970 C   0  0  0  0  0  0  0  0  0  0  0  0
    4.4888   23.9303   32.5818 H   0  0  0  0  0  0  0  0  0  0  0  0
    5.5085   23.4641   33.6440 H   0  0  0  0  0  0  0  0  0  0  0  0
    2.0436   19.2359   38.9579 H   0  0  0  0  0  0  0  0  0  0  0  0
    1.6484   19.1563   37.4505 H   0  0  0  0  0  0  0  0  0  0  0  0
    3.4200   20.9771   35.5989 H   0  0  0  0  0  0  0  0  0  0  0  0
    4.1362   19.1569   40.1174 H   0  0  0  0  0  0  0  0  0  0  0  0
    3.8386   17.7810   39.0015 H   0  0  0  0  0  0  0  0  0  0  0  0
    5.4328   18.6088   39.0015 H   0  0  0  0  0  0  0  0  0  0  0  0
    1.3420   20.8070   41.0570 H   0  0  0  0  0  0  0  0  0  0  0  0
    1.3420   21.7781   39.6837 H   0  0  0  0  0  0  0  0  0  0  0  0
    2.1830   20.3215   39.6837 H   0  0  0  0  0  0  0  0  0  0  0  0
    0.5010   20.3215   39.6837 H   0  0  0  0  0  0  0  0  0  0  0  0
    4.6222   19.8573   37.1921 H   0  0  0  0  0  0  0  0  0  0  0  0
    3.0041   22.0210   38.6889 H   0  0  0  0  0  0  0  0  0  0  0  0
    1.7690   23.8981   34.3504 H   0  0  0  0  0  0  0  0  0  0  0  0
    0.9763   22.7949   33.6085 H   0  0  0  0  0  0  0  0  0  0  0  0
    2.4859   22.9734   36.7665 H   0  0  0  0  0  0  0  0  0  0  0  0
    1.5621   21.2476   36.3709 H   0  0  0  0  0  0  0  0  0  0  0  0
    3.6147   21.4496   31.7032 H   0  0  0  0  0  0  0  0  0  0  0  0
    4.4773   20.5507   32.6077 H   0  0  0  0  0  0  0  0  0  0  0  0
  1  9  1  0
  1  4  1  0
  2  1  1  0
  3  8  1  0
  4 10  1  0
  7  3  1  0
  7  8  1  0
  7  5  1  0
  8 10  1  0
  9  4  1  0
 11  2  1  0
 11  1  1  0
  2 12  1  0
  2 13  1  0
  3 14  1  0
  3 15  1  0
  4 16  1  0
  5 17  1  0
  5 18  1  0
  5 19  1  0
  6 20  1  0
  6 21  1  0
  6 22  1  0
  6 23  1  0
  7 24  1  0
  8 25  1  0
  9 26  1  0
  9 27  1  0
 10 28  1  0
 10 29  1  0
 11 30  1  0
 11 31  1  0
M  CHG  1   6   1
M  END
>  <mol_id>  (69) 
2026-09-16-6tgu-s0-n100-0069

>  <rmsd_to_ref>  (69) 


$$$$

     RDKit          3D

 34 36  0  0  0  0  0  0  0  0999 V2000
    3.8640   22.9860   33.2060 C   0  0  0  0  0  0  0  0  0  0  0  0
    3.8820   22.4840   30.7930 C   0  0  0  0  0  0  0  0  0  0  0  0
    4.4080   22.6810   32.1320 C   0  0  0  0  0  0  0  0  0  0  0  0
    2.0000   20.0230   40.3860 C   0  0  0  0  0  0  0  0  0  0  0  0
    3.0280   21.3540   35.0370 C   0  0  0  0  0  0  0  0  0  0  0  0
    2.8320   19.9730   38.0070 C   0  0  0  0  0  0  0  0  0  0  0  0
    2.6050   22.0940   30.5570 O   0  0  0  0  0  0  0  0  0  0  0  0
    3.2570   18.6380   38.1980 C   0  0  0  0  0  0  0  0  0  0  0  0
    2.3780   22.6430   34.7820 C   0  0  0  0  0  0  0  0  0  0  0  0
    2.2300   20.7640   39.1500 C   0  0  0  0  0  0  0  0  0  0  0  0
    1.2010   20.8590   41.4350 C   0  0  0  0  0  0  0  0  0  0  0  0
    2.5580   22.9360   33.3760 C   0  0  0  0  0  0  0  0  0  0  0  0
    2.2910   18.6700   40.5330 C   0  0  0  0  0  0  0  0  0  0  0  0
    2.9510   17.9930   39.3900 C   0  0  0  0  0  0  0  0  0  0  0  0
    2.7640   20.5400   36.5960 C   0  0  0  0  0  0  0  0  0  0  0  0
    2.1640   21.7950   36.1730 C   0  0  0  0  0  0  0  0  0  0  0  0
    4.4955   23.3098   34.0464 H   0  0  0  0  0  0  0  0  0  0  0  0
    4.0080   23.4446   30.2721 H   0  0  0  0  0  0  0  0  0  0  0  0
    4.4496   21.6034   30.4578 H   0  0  0  0  0  0  0  0  0  0  0  0
    5.4950   22.5317   32.2099 H   0  0  0  0  0  0  0  0  0  0  0  0
    3.8766   21.9051   35.4685 H   0  0  0  0  0  0  0  0  0  0  0  0
    2.1388   21.9516   31.4187 H   0  0  0  0  0  0  0  0  0  0  0  0
    3.8231   18.1163   37.4123 H   0  0  0  0  0  0  0  0  0  0  0  0
    1.9995   23.6750   34.7395 H   0  0  0  0  0  0  0  0  0  0  0  0
    1.9815   21.8313   39.0543 H   0  0  0  0  0  0  0  0  0  0  0  0
    1.4948   20.5516   42.4495 H   0  0  0  0  0  0  0  0  0  0  0  0
    1.4219   21.9277   41.2973 H   0  0  0  0  0  0  0  0  0  0  0  0
    0.1234   20.6866   41.2973 H   0  0  0  0  0  0  0  0  0  0  0  0
    2.0968   23.9011   33.1194 H   0  0  0  0  0  0  0  0  0  0  0  0
    2.0844   22.1812   32.7311 H   0  0  0  0  0  0  0  0  0  0  0  0
    2.0424   18.1264   41.4564 H   0  0  0  0  0  0  0  0  0  0  0  0
    3.2107   16.9289   39.4910 H   0  0  0  0  0  0  0  0  0  0  0  0
    3.0048   19.4996   36.8599 H   0  0  0  0  0  0  0  0  0  0  0  0
    3.0217   22.3165   36.6229 H   0  0  0  0  0  0  0  0  0  0  0  0
  1 12  1  0
  2  3  1  0
  3  1  2  3
  4 13  2  0
  4 11  1  0
  5 16  1  0
  5 15  1  0
  6  8  1  0
  6 10  2  0
  7  2  1  0
  8 14  2  0
  9  5  1  0
  9 16  1  0
 10  4  1  0
 12  9  1  0
 14 13  1  0
 15  6  1  0
 16 15  1  0
  1 17  1  0
  2 18  1  0
  2 19  1  0
  3 20  1  0
  5 21  1  0
  7 22  1  0
  8 23  1  0
  9 24  1  0
 10 25  1  0
 11 26  1  0
 11 27  1  0
 11 28  1  0
 12 29  1  0
 12 30  1  0
 13 31  1  0
 14 32  1  0
 15 33  1  0
 16 34  1  0
M  END
>  <mol_id>  (70) 
2026-09-16-6tgu-s0-n100-0070

>  <rmsd_to_ref>  (70) 


$$$$

     RDKit          3D

 60 61  0  0  0  0  0  0  0  0999 V2000
    4.3490   19.5010   39.5200 O   0  0  0  0  0  0  0  0  0  0  0  0
    2.5080   14.5480   37.6600 O   0  0  0  0  0  0  0  0  0  0  0  0
    3.1840   19.1870   39.1600 C   0  0  0  0  0  0  0  0  0  0  0  0
   -0.6070   20.3060   42.6520 C   0  0  0  0  0  0  0  0  0  0  0  0
    3.8510   26.2110   28.5980 C   0  0  0  0  0  0  0  0  0  0  0  0
    3.4360   20.7260   35.9210 C   0  0  0  0  0  0  0  0  0  0  0  0
    3.4210   21.9060   35.0120 C   0  0  0  0  0  0  0  0  0  0  0  0
    1.2540   19.1200   40.9560 C   0  0  0  0  0  0  0  0  0  0  0  0
    2.9600   16.3610   39.0840 C   0  0  0  0  0  0  0  0  0  0  0  0
    5.1230   25.1460   28.4320 S   0  0  0  0  0  0  0  0  0  0  0  0
   -0.6800   18.8930   42.4810 C   0  0  0  0  0  0  0  0  0  0  0  0
    4.3570   21.7530   33.7910 C   0  0  0  0  0  0  0  0  0  0  0  0
    2.9830   20.7110   37.3400 C   0  0  0  0  0  0  0  0  0  0  0  0
    3.8600   23.2560   30.0840 C   0  0  0  0  0  0  0  0  0  0  0  0
    2.8450   14.9930   38.8730 C   0  0  0  0  0  0  0  0  0  0  0  0
    3.9320   24.3840   31.0670 C   0  0  0  0  0  0  0  0  0  0  0  0
    1.2810   20.5170   41.0910 C   0  0  0  0  0  0  0  0  0  0  0  0
    2.3410   17.0520   40.0400 N   0  0  0  0  0  0  0  0  0  0  0  0
    2.7660   14.2640   39.9420 O   0  0  0  0  0  1  0  0  0  0  0  0
    0.3350   18.2470   41.5620 C   0  0  0  0  0  0  0  0  0  0  0  0
    3.4380   26.7350   30.0000 C   0  0  0  0  0  0  0  0  0  0  0  0
    5.1260   23.0380   33.1030 C   0  0  0  0  0  0  0  0  0  0  0  0
    3.2440   25.7000   31.0200 C   0  0  0  0  0  0  0  0  0  0  0  0
    4.5000   23.3780   28.6670 C   0  0  0  0  0  0  0  0  0  0  0  0
    2.6200   19.5880   37.9410 N   0  0  0  0  0  0  0  0  0  0  0  0
    2.2340   22.8830   34.9610 C   0  0  0  0  0  0  0  0  0  0  0  0
    4.6150   24.2970   32.4460 C   0  0  0  0  0  0  0  0  0  0  0  0
    0.3390   21.1220   41.9890 C   0  0  0  0  0  0  0  0  0  0  0  0
    2.3480   18.3990   40.0680 C   0  0  0  0  0  0  0  0  0  0  0  0
   -1.3232   20.7866   43.3347 H   0  0  0  0  0  0  0  0  0  0  0  0
    2.9662   25.7131   28.1748 H   0  0  0  0  0  0  0  0  0  0  0  0
    4.2204   27.1168   28.0950 H   0  0  0  0  0  0  0  0  0  0  0  0
    4.4851   20.3964   35.9492 H   0  0  0  0  0  0  0  0  0  0  0  0
    2.6380   20.1240   35.4619 H   0  0  0  0  0  0  0  0  0  0  0  0
    3.8884   22.6719   35.6483 H   0  0  0  0  0  0  0  0  0  0  0  0
    3.6182   16.9215   38.4038 H   0  0  0  0  0  0  0  0  0  0  0  0
   -1.4449   18.2944   42.9972 H   0  0  0  0  0  0  0  0  0  0  0  0
    5.1470   21.0512   34.0968 H   0  0  0  0  0  0  0  0  0  0  0  0
    3.6517   21.4599   32.9994 H   0  0  0  0  0  0  0  0  0  0  0  0
    3.8105   21.1266   37.9338 H   0  0  0  0  0  0  0  0  0  0  0  0
    2.0358   21.2680   37.2904 H   0  0  0  0  0  0  0  0  0  0  0  0
    4.3357   22.3900   30.5676 H   0  0  0  0  0  0  0  0  0  0  0  0
    2.7848   23.2029   29.8580 H   0  0  0  0  0  0  0  0  0  0  0  0
    2.0008   21.1282   40.5268 H   0  0  0  0  0  0  0  0  0  0  0  0
    0.3519   17.1623   41.3802 H   0  0  0  0  0  0  0  0  0  0  0  0
    4.2244   27.4181   30.3534 H   0  0  0  0  0  0  0  0  0  0  0  0
    2.4603   27.2217   29.8686 H   0  0  0  0  0  0  0  0  0  0  0  0
    5.7702   23.4141   33.9114 H   0  0  0  0  0  0  0  0  0  0  0  0
    5.4107   22.5240   32.1731 H   0  0  0  0  0  0  0  0  0  0  0  0
    3.4868   26.1872   31.9759 H   0  0  0  0  0  0  0  0  0  0  0  0
    2.2257   25.3716   30.7644 H   0  0  0  0  0  0  0  0  0  0  0  0
    3.7467   23.1462   27.8997 H   0  0  0  0  0  0  0  0  0  0  0  0
    5.3370   22.6706   28.5723 H   0  0  0  0  0  0  0  0  0  0  0  0
    1.9037   18.9931   37.5007 H   0  0  0  0  0  0  0  0  0  0  0  0
    1.9245   23.1377   35.9854 H   0  0  0  0  0  0  0  0  0  0  0  0
    2.5351   23.7984   34.4306 H   0  0  0  0  0  0  0  0  0  0  0  0
    1.3936   22.4115   34.4306 H   0  0  0  0  0  0  0  0  0  0  0  0
    4.7415   25.2378   33.0017 H   0  0  0  0  0  0  0  0  0  0  0  0
    0.3526   22.2086   42.1598 H   0  0  0  0  0  0  0  0  0  0  0  0
    3.2753   18.4442   40.6579 H   0  0  0  0  0  0  0  0  0  0  0  0
  2 15  2  0
  3  1  2  0
  5 21  1  0
  6 13  1  0
  7 26  1  0
  7  6  1  0
  8 17  1  0
  8 20  2  0
  9 18  2  3
 10  5  1  0
 10 24  1  0
 11  4  2  0
 12  7  1  0
 13 25  1  0
 14 16  1  0
 15  9  1  0
 15 19  1  0
 16 27  2  3
 17 28  2  0
 18 29  1  0
 20 11  1  0
 21 23  1  0
 22 12  1  0
 23 16  1  0
 24 14  1  0
 25  3  1  0
 27 22  1  0
 28  4  1  0
 29  3  1  0
 29  8  1  0
  4 30  1  0
  5 31  1  0
  5 32  1  0
  6 33  1  0
  6 34  1  0
  7 35  1  0
  9 36  1  0
 11 37  1  0
 12 38  1  0
 12 39  1  0
 13 40  1  0
 13 41  1  0
 14 42  1  0
 14 43  1  0
 17 44  1  0
 20 45  1  0
 21 46  1  0
 21 47  1  0
 22 48  1  0
 22 49  1  0
 23 50  1  0
 23 51  1  0
 24 52  1  0
 24 53  1  0
 25 54  1  0
 26 55  1  0
 26 56  1  0
 26 57  1  0
 27 58  1  0
 28 59  1  0
 29 60  1  0
M  CHG  1  19  -1
M  END
>  <mol_id>  (71) 
2026-09-16-6tgu-s0-n100-0071

>  <rmsd_to_ref>  (71) 


$$$$

     RDKit          3D

 49 50  0  0  0  0  0  0  0  0999 V2000
    2.6460   25.1810   30.6000 C   0  0  0  0  0  0  0  0  0  0  0  0
    2.7590   22.0170   34.9110 C   0  0  0  0  0  0  0  0  0  0  0  0
    1.2700   16.9150   41.8680 C   0  0  0  0  0  0  0  0  0  0  0  0
    1.9660   23.0850   34.9180 C   0  0  0  0  0  0  0  0  0  0  0  0
    2.2570   24.1150   33.8970 C   0  0  0  0  0  0  0  0  0  0  0  0
    3.4580   17.3610   37.2660 O   0  0  0  0  0  0  0  0  0  0  0  0
    2.7010   23.3580   32.4060 C   0  0  0  0  0  0  0  0  0  0  0  0
    3.0050   18.1940   38.2160 C   0  0  0  0  0  0  0  0  0  0  0  0
    0.6480   19.3250   42.3090 C   0  0  0  0  0  0  0  0  0  0  0  0
    1.2600   21.0860   40.8070 C   0  0  0  0  0  0  0  0  0  0  0  0
    2.1810   25.2520   29.1330 C   0  0  0  0  0  0  0  0  0  0  0  0
    2.5340   23.9590   31.1870 O   0  0  0  0  0  0  0  0  0  0  0  0
    0.7400   20.7800   41.9420 C   0  0  0  0  0  0  0  0  0  0  0  0
    1.8110   26.0890   31.4090 C   0  0  0  0  0  0  0  0  0  0  0  0
    1.8940   20.1800   39.8550 C   0  0  0  0  0  0  0  0  0  0  0  0
    2.5400   17.8230   39.4500 N   0  0  0  0  0  0  0  0  0  0  0  0
    4.5420   16.4950   37.4510 C   0  0  0  0  0  0  0  0  0  0  0  0
    1.2420   18.3800   41.4760 C   0  0  0  0  0  0  0  0  0  0  0  0
    3.2240   20.7800   35.5870 C   0  0  0  0  0  0  0  0  0  0  0  0
    2.9510   20.8930   36.4970 C   0  0  0  0  0  0  0  0  0  0  0  0
    1.9210   18.7390   40.2700 C   0  0  0  0  0  0  0  0  0  0  0  0
    2.2100   20.5240   38.4850 N   0  0  0  0  0  0  0  0  0  0  0  0
    2.7910   19.7700   37.6940 C   0  0  0  0  0  0  0  0  0  0  0  0
    3.7129   25.4468   30.5689 H   0  0  0  0  0  0  0  0  0  0  0  0
    3.3337   22.0789   33.9751 H   0  0  0  0  0  0  0  0  0  0  0  0
    1.2716   16.8288   42.9646 H   0  0  0  0  0  0  0  0  0  0  0  0
    0.3813   16.4097   41.4618 H   0  0  0  0  0  0  0  0  0  0  0  0
    2.1773   16.4440   41.4618 H   0  0  0  0  0  0  0  0  0  0  0  0
    1.1433   23.1956   35.6397 H   0  0  0  0  0  0  0  0  0  0  0  0
    1.3621   24.7348   33.7389 H   0  0  0  0  0  0  0  0  0  0  0  0
    3.0890   24.7447   34.2450 H   0  0  0  0  0  0  0  0  0  0  0  0
    3.7744   23.1322   32.4883 H   0  0  0  0  0  0  0  0  0  0  0  0
    1.9707   22.5373   32.3492 H   0  0  0  0  0  0  0  0  0  0  0  0
    0.1196   19.0116   43.2215 H   0  0  0  0  0  0  0  0  0  0  0  0
    1.2230   22.1478   40.5220 H   0  0  0  0  0  0  0  0  0  0  0  0
    1.0941   25.4180   29.1005 H   0  0  0  0  0  0  0  0  0  0  0  0
    2.6940   26.0822   28.6255 H   0  0  0  0  0  0  0  0  0  0  0  0
    2.4229   24.3065   28.6255 H   0  0  0  0  0  0  0  0  0  0  0  0
    0.3729   21.5602   42.6250 H   0  0  0  0  0  0  0  0  0  0  0  0
    1.9884   25.8960   32.4773 H   0  0  0  0  0  0  0  0  0  0  0  0
    2.0721   27.1320   31.1765 H   0  0  0  0  0  0  0  0  0  0  0  0
    0.7499   25.9161   31.1765 H   0  0  0  0  0  0  0  0  0  0  0  0
    4.7189   16.3537   38.5275 H   0  0  0  0  0  0  0  0  0  0  0  0
    4.3189   15.5237   36.9855 H   0  0  0  0  0  0  0  0  0  0  0  0
    5.4401   16.9271   36.9855 H   0  0  0  0  0  0  0  0  0  0  0  0
    2.7493   19.8917   35.1447 H   0  0  0  0  0  0  0  0  0  0  0  0
    4.3090   20.6284   35.4884 H   0  0  0  0  0  0  0  0  0  0  0  0
    2.7077   21.9255   36.7881 H   0  0  0  0  0  0  0  0  0  0  0  0
    1.9334   21.4566   38.1465 H   0  0  0  0  0  0  0  0  0  0  0  0
  1 12  1  0
  1 14  1  0
  2  4  2  3
  2 19  1  0
  5  4  1  0
  6 17  1  0
  6  8  1  0
  7  5  1  0
  8 16  2  0
 10 13  2  0
 11  1  1  0
 12  7  1  0
 13  9  1  0
 15 21  2  0
 15 10  1  0
 16 21  1  0
 18  3  1  0
 18  9  2  0
 19 20  1  0
 20 23  2  3
 21 18  1  0
 22 15  1  0
 23  8  1  0
 23 22  1  0
  1 24  1  0
  2 25  1  0
  3 26  1  0
  3 27  1  0
  3 28  1  0
  4 29  1  0
  5 30  1  0
  5 31  1  0
  7 32  1  0
  7 33  1  0
  9 34  1  0
 10 35  1  0
 11 36  1  0
 11 37  1  0
 11 38  1  0
 13 39  1  0
 14 40  1  0
 14 41  1  0
 14 42  1  0
 17 43  1  0
 17 44  1  0
 17 45  1  0
 19 46  1  0
 19 47  1  0
 20 48  1  0
 22 49  1  0
M  END
>  <mol_id>  (72) 
2026-09-16-6tgu-s0-n100-0072

>  <rmsd_to_ref>  (72) 


$$$$

     RDKit          3D

 28 30  0  0  0  0  0  0  0  0999 V2000
    2.1710   21.0260   37.9170 C   0  0  0  0  0  0  0  0  0  0  0  0
    3.0270   20.0160   37.4130 C   0  0  0  0  0  0  0  0  0  0  0  0
    4.3310   23.3870   32.1860 C   0  0  0  0  0  0  0  0  0  0  0  0
    4.2090   23.0670   33.6690 C   0  0  0  0  0  0  0  0  0  0  0  0
    2.0910   18.7460   40.9750 C   0  0  0  0  0  0  0  0  0  0  0  0
    1.8190   20.7230   39.3310 C   0  0  0  0  0  0  0  0  0  0  0  0
    4.0160   21.7800   34.1630 N   0  0  0  0  0  0  0  0  0  0  0  0
    2.2420   22.2450   35.8390 C   0  0  0  0  0  0  0  0  0  0  0  0
    3.6000   20.3430   36.1420 C   0  0  0  0  0  0  0  0  0  0  0  0
    3.1370   18.7360   38.5080 S   0  0  0  0  0  0  0  0  0  0  0  0
    1.7060   22.0600   37.1150 C   0  0  0  0  0  0  0  0  0  0  0  0
    2.2120   19.5400   39.7540 C   0  0  0  0  0  0  0  0  0  0  0  0
    4.7630   23.9160   33.1800 C   0  0  0  0  0  0  0  0  0  0  0  0
    3.2780   21.4400   35.3860 C   0  0  0  0  0  0  0  0  0  0  0  0
    2.0280   17.4390   40.5950 O   0  0  0  0  0  0  0  0  0  0  0  0
    3.4970   23.8177   31.6126 H   0  0  0  0  0  0  0  0  0  0  0  0
    4.6834   22.9320   31.2486 H   0  0  0  0  0  0  0  0  0  0  0  0
    3.7906   23.0284   34.6856 H   0  0  0  0  0  0  0  0  0  0  0  0
    2.9663   18.9100   41.6207 H   0  0  0  0  0  0  0  0  0  0  0  0
    1.1941   19.0335   41.5433 H   0  0  0  0  0  0  0  0  0  0  0  0
    1.2736   21.4315   39.9718 H   0  0  0  0  0  0  0  0  0  0  0  0
    4.4247   21.0018   33.6262 H   0  0  0  0  0  0  0  0  0  0  0  0
    1.8400   23.0350   35.1876 H   0  0  0  0  0  0  0  0  0  0  0  0
    4.3607   19.6578   35.7396 H   0  0  0  0  0  0  0  0  0  0  0  0
    0.9171   22.7318   37.4842 H   0  0  0  0  0  0  0  0  0  0  0  0
    5.8570   23.9059   33.2940 H   0  0  0  0  0  0  0  0  0  0  0  0
    4.6355   24.9789   33.4330 H   0  0  0  0  0  0  0  0  0  0  0  0
    2.0002   16.8625   41.3993 H   0  0  0  0  0  0  0  0  0  0  0  0
  1  6  1  0
  2  1  2  0
  2 10  1  0
  3 13  1  0
  3  4  1  0
  4  7  1  0
  6 12  2  0
  7 14  1  0
  8 11  2  0
  9  2  1  0
 10 12  1  0
 11  1  1  0
 12  5  1  0
 13  4  1  0
 14  8  1  0
 14  9  2  0
 15  5  1  0
  3 16  1  0
  3 17  1  0
  4 18  1  0
  5 19  1  0
  5 20  1  0
  6 21  1  0
  7 22  1  0
  8 23  1  0
  9 24  1  0
 11 25  1  0
 13 26  1  0
 13 27  1  0
 15 28  1  0
M  END
>  <mol_id>  (73) 
2026-09-16-6tgu-s0-n100-0073

>  <rmsd_to_ref>  (73) 


$$$$

     RDKit          3D

 66 68  0  0  0  0  0  0  0  0999 V2000
    3.8870   19.1790   36.2960 C   0  0  0  0  0  0  0  0  0  0  0  0
    2.2080   25.4150   29.0100 C   0  0  0  0  0  0  0  0  0  0  0  0
    2.6110   17.2060   38.7480 O   0  0  0  0  0  0  0  0  0  0  0  0
    2.7140   13.4190   37.5090 O   0  0  0  0  0  0  0  0  0  0  0  0
    1.2620   27.5250   31.0570 C   0  0  0  0  0  0  0  0  0  0  0  0
    3.7480   15.0580   39.2000 O   0  0  0  0  0  0  0  0  0  0  0  0
    3.0520   25.3000   30.0970 C   0  0  0  0  0  0  0  0  0  0  0  0
    2.7300   14.8350   37.0010 C   0  0  0  0  0  0  0  0  0  0  0  0
    1.1780   19.4330   40.2340 N   0  0  0  0  0  4  0  0  0  0  0  0
    3.2830   18.1660   38.9750 C   0  0  0  0  0  0  0  0  0  0  0  0
    3.0910   25.7790   31.5130 C   0  0  0  0  0  0  0  0  0  0  0  0
    1.7990   26.7480   33.6010 S   0  0  0  0  0  0  0  0  0  0  0  0
    2.9740   20.2070   38.6400 C   0  0  0  0  0  0  0  0  0  0  0  0
    2.2590   22.5160   35.6730 C   0  0  0  0  0  0  0  0  0  0  0  0
    1.9490   21.1350   41.3700 O   0  0  0  0  0  0  0  0  0  0  0  0
    1.3060   27.5470   29.6880 C   0  0  0  0  0  0  0  0  0  0  0  0
    1.0530   26.3160   28.6130 S   0  0  0  0  0  0  0  0  0  0  0  0
    1.5610   26.1780   31.8590 C   0  0  0  0  0  0  0  0  0  0  0  0
    0.3890   19.3680   42.5660 C   0  0  0  0  0  0  0  0  0  0  0  0
    3.6790   19.0470   38.0730 C   0  0  0  0  0  0  0  0  0  0  0  0
    0.9770   20.0800   41.5890 C   0  0  0  0  0  0  0  0  0  0  0  0
    2.5640   19.3430   39.7170 C   0  0  0  0  0  0  0  0  0  0  0  0
    3.8680   20.9330   34.6150 O   0  0  0  0  0  0  0  0  0  0  0  0
    3.1230   15.8260   38.1940 C   0  0  0  0  0  0  0  0  0  0  0  0
   -0.1320   20.6300   42.0840 C   0  0  0  0  0  0  0  0  0  0  0  0
    3.5920   25.0160   32.7670 C   0  0  0  0  0  0  0  0  0  0  0  0
    1.3940   28.4190   31.8490 O   0  0  0  0  0  0  0  0  0  0  0  0
    3.6950   20.6540   36.0070 C   0  0  0  0  0  0  0  0  0  0  0  0
    3.2450   25.7550   33.8720 C   0  0  0  0  0  0  0  0  0  0  0  0
    2.5820   21.2520   36.4430 N   0  0  0  0  0  4  0  0  0  0  0  0
    4.8929   18.8505   35.9956 H   0  0  0  0  0  0  0  0  0  0  0  0
    3.1792   18.5456   35.7411 H   0  0  0  0  0  0  0  0  0  0  0  0
    2.9122   25.5502   28.1759 H   0  0  0  0  0  0  0  0  0  0  0  0
    1.5613   24.5798   29.3170 H   0  0  0  0  0  0  0  0  0  0  0  0
    2.7141   13.4236   38.4990 H   0  0  0  0  0  0  0  0  0  0  0  0
    3.1239   24.2092   30.2197 H   0  0  0  0  0  0  0  0  0  0  0  0
    3.7405   26.0789   29.7375 H   0  0  0  0  0  0  0  0  0  0  0  0
    3.4687   14.9255   36.1910 H   0  0  0  0  0  0  0  0  0  0  0  0
    1.7326   15.0986   36.6193 H   0  0  0  0  0  0  0  0  0  0  0  0
    0.8077   18.4736   40.2923 H   0  0  0  0  0  0  0  0  0  0  0  0
    0.6911   20.0541   39.5721 H   0  0  0  0  0  0  0  0  0  0  0  0
    4.0556   17.5095   39.4016 H   0  0  0  0  0  0  0  0  0  0  0  0
    3.9167   26.4995   31.4171 H   0  0  0  0  0  0  0  0  0  0  0  0
    2.1506   20.5924   38.0208 H   0  0  0  0  0  0  0  0  0  0  0  0
    3.4845   21.1636   38.8249 H   0  0  0  0  0  0  0  0  0  0  0  0
    2.0503   23.3327   36.3798 H   0  0  0  0  0  0  0  0  0  0  0  0
    3.1163   22.7889   35.0401 H   0  0  0  0  0  0  0  0  0  0  0  0
    1.3759   22.3442   35.0401 H   0  0  0  0  0  0  0  0  0  0  0  0
    2.2655   21.4785   42.2429 H   0  0  0  0  0  0  0  0  0  0  0  0
    0.5683   28.3120   29.4043 H   0  0  0  0  0  0  0  0  0  0  0  0
    2.3967   27.6298   29.5715 H   0  0  0  0  0  0  0  0  0  0  0  0
    0.8035   25.4041   31.6658 H   0  0  0  0  0  0  0  0  0  0  0  0
   -0.1291   18.4254   42.3356 H   0  0  0  0  0  0  0  0  0  0  0  0
    0.6904   18.9510   43.5382 H   0  0  0  0  0  0  0  0  0  0  0  0
    4.7275   18.7378   37.9506 H   0  0  0  0  0  0  0  0  0  0  0  0
    2.7985   19.4544   40.7859 H   0  0  0  0  0  0  0  0  0  0  0  0
    4.3867   21.7695   34.5081 H   0  0  0  0  0  0  0  0  0  0  0  0
   -0.0738   21.5319   42.7110 H   0  0  0  0  0  0  0  0  0  0  0  0
   -1.0889   20.9869   41.6753 H   0  0  0  0  0  0  0  0  0  0  0  0
    3.1188   24.0242   32.8159 H   0  0  0  0  0  0  0  0  0  0  0  0
    4.6823   24.8771   32.7233 H   0  0  0  0  0  0  0  0  0  0  0  0
    4.4871   21.1021   36.6249 H   0  0  0  0  0  0  0  0  0  0  0  0
    4.0841   26.4175   34.1307 H   0  0  0  0  0  0  0  0  0  0  0  0
    3.0185   25.0511   34.6864 H   0  0  0  0  0  0  0  0  0  0  0  0
    2.7051   21.4936   37.4367 H   0  0  0  0  0  0  0  0  0  0  0  0
    1.8008   20.5950   36.3053 H   0  0  0  0  0  0  0  0  0  0  0  0
  2  7  1  0
  5 27  2  0
  8  4  1  0
  8 24  1  0
  9 21  1  0
 10  3  1  0
 10 22  1  0
 11  7  1  0
 11 18  1  0
 11 26  1  0
 12 29  1  0
 13 22  1  0
 14 30  1  0
 15 21  1  0
 16  5  1  0
 17  2  1  0
 17 16  1  0
 18  5  1  0
 18 12  1  0
 20  1  1  0
 20 13  1  0
 20 10  1  0
 21 25  1  0
 21 19  1  0
 22  9  1  0
 24  3  1  0
 24  6  2  0
 25 19  1  0
 26 29  1  0
 28 23  1  0
 28  1  1  0
 28 30  1  0
  1 31  1  0
  1 32  1  0
  2 33  1  0
  2 34  1  0
  4 35  1  0
  7 36  1  0
  7 37  1  0
  8 38  1  0
  8 39  1  0
  9 40  1  0
  9 41  1  0
 10 42  1  0
 11 43  1  0
 13 44  1  0
 13 45  1  0
 14 46  1  0
 14 47  1  0
 14 48  1  0
 15 49  1  0
 16 50  1  0
 16 51  1  0
 18 52  1  0
 19 53  1  0
 19 54  1  0
 20 55  1  0
 22 56  1  0
 23 57  1  0
 25 58  1  0
 25 59  1  0
 26 60  1  0
 26 61  1  0
 28 62  1  0
 29 63  1  0
 29 64  1  0
 30 65  1  0
 30 66  1  0
M  CHG  2   9   1  30   1
M  END
>  <mol_id>  (74) 
2026-09-16-6tgu-s0-n100-0074

>  <rmsd_to_ref>  (74) 


$$$$

     RDKit          3D

 42 41  0  0  0  0  0  0  0  0999 V2000
    3.4810   24.2300   32.4270 C   0  0  0  0  0  0  0  0  0  0  0  0
    3.8630   23.1440   33.6350 S   0  0  0  0  0  0  0  0  0  0  0  0
    2.8820   18.5440   39.9770 C   0  0  0  0  0  0  0  0  0  0  0  0
    4.2180   24.2990   30.9620 S   0  0  0  0  0  0  0  0  0  0  0  0
    3.4180   21.4820   35.3570 N   0  0  0  0  0  0  0  0  0  0  0  0
    2.6810   17.2750   39.5090 C   0  0  0  0  0  0  0  0  0  0  0  0
    3.9280   19.4790   37.9440 C   0  0  0  0  0  0  0  0  0  0  0  0
    2.5130   25.2950   32.4290 C   0  0  0  0  0  0  0  0  0  0  0  0
    1.8890   21.4570   36.9080 O   0  0  0  0  0  0  0  0  0  0  0  0
    3.0410   21.0480   36.3090 C   0  0  0  0  0  0  0  0  0  0  0  0
    3.7910   19.9910   36.8340 O   0  0  0  0  0  0  0  0  0  0  0  0
    3.1360   16.8550   38.3520 O   0  0  0  0  0  0  0  0  0  0  0  0
    1.2730   16.6310   41.3330 C   0  0  0  0  0  0  0  0  0  0  0  0
    2.1860   25.8900   31.3390 C   0  0  0  0  0  0  0  0  0  0  0  0
    3.3450   25.6050   30.2890 C   0  0  0  0  0  0  0  0  0  0  0  0
    3.0180   19.7280   39.1090 C   0  0  0  0  0  0  0  0  0  0  0  0
    2.2040   16.2750   40.4110 C   0  0  0  0  0  0  0  0  0  0  0  0
    2.3230   23.3450   34.5920 S   0  0  0  0  0  0  0  0  0  0  0  0
    1.4780   17.4910   42.4680 C   0  0  0  0  0  0  0  0  0  0  0  0
    2.0306   18.7561   40.6405 H   0  0  0  0  0  0  0  0  0  0  0  0
    3.9019   18.4605   40.3805 H   0  0  0  0  0  0  0  0  0  0  0  0
    2.9155   22.2637   34.9127 H   0  0  0  0  0  0  0  0  0  0  0  0
    4.2697   21.1023   34.9196 H   0  0  0  0  0  0  0  0  0  0  0  0
    1.8277   17.7659   39.0182 H   0  0  0  0  0  0  0  0  0  0  0  0
    4.9320   19.7729   38.2841 H   0  0  0  0  0  0  0  0  0  0  0  0
    3.6880   18.4298   37.7169 H   0  0  0  0  0  0  0  0  0  0  0  0
    2.0472   25.6034   33.3766 H   0  0  0  0  0  0  0  0  0  0  0  0
    3.8551   16.1912   38.5015 H   0  0  0  0  0  0  0  0  0  0  0  0
    0.9112   15.6819   41.7551 H   0  0  0  0  0  0  0  0  0  0  0  0
    0.6475   17.2916   40.7146 H   0  0  0  0  0  0  0  0  0  0  0  0
    1.2307   25.4939   30.9642 H   0  0  0  0  0  0  0  0  0  0  0  0
    2.0618   26.9705   31.5033 H   0  0  0  0  0  0  0  0  0  0  0  0
    3.9917   26.4874   30.1743 H   0  0  0  0  0  0  0  0  0  0  0  0
    2.9549   25.3757   29.2864 H   0  0  0  0  0  0  0  0  0  0  0  0
    3.4253   20.5582   39.7047 H   0  0  0  0  0  0  0  0  0  0  0  0
    2.0212   19.9695   38.7113 H   0  0  0  0  0  0  0  0  0  0  0  0
    1.7682   15.4689   39.8026 H   0  0  0  0  0  0  0  0  0  0  0  0
    3.0874   16.0042   41.0079 H   0  0  0  0  0  0  0  0  0  0  0  0
    2.6094   23.3076   35.9312 H   0  0  0  0  0  0  0  0  0  0  0  0
    1.3405   16.9143   43.3946 H   0  0  0  0  0  0  0  0  0  0  0  0
    2.4988   17.8999   42.4386 H   0  0  0  0  0  0  0  0  0  0  0  0
    0.7514   18.3164   42.4386 H   0  0  0  0  0  0  0  0  0  0  0  0
  1  8  2  0
  1  2  1  0
  2 18  1  0
  4  1  1  0
  5 10  1  0
  6 12  1  0
  6  3  1  0
  6 17  1  0
  7 16  1  0
 10 11  1  0
 10  9  2  0
 11  7  1  0
 13 19  1  0
 14  8  1  0
 15  4  1  0
 15 14  1  0
 16  3  1  0
 17 13  1  0
  3 20  1  0
  3 21  1  0
  5 22  1  0
  5 23  1  0
  6 24  1  0
  7 25  1  0
  7 26  1  0
  8 27  1  0
 12 28  1  0
 13 29  1  0
 13 30  1  0
 14 31  1  0
 14 32  1  0
 15 33  1  0
 15 34  1  0
 16 35  1  0
 16 36  1  0
 17 37  1  0
 17 38  1  0
 18 39  1  0
 19 40  1  0
 19 41  1  0
 19 42  1  0
M  END
>  <mol_id>  (75) 
2026-09-16-6tgu-s0-n100-0075

>  <rmsd_to_ref>  (75) 


$$$$

     RDKit          3D

 54 56  0  0  0  0  0  0  0  0999 V2000
    4.2190   17.0590   36.6550 N   0  0  0  0  0  0  0  0  0  0  0  0
    5.9460   27.4270   30.6430 C   0  0  0  0  0  0  0  0  0  0  0  0
    2.3040   19.1850   40.4160 C   0  0  0  0  0  0  0  0  0  0  0  0
    4.0190   24.6530   33.0140 C   0  0  0  0  0  0  0  0  0  0  0  0
    3.3280   14.9410   37.5880 C   0  0  0  0  0  0  0  0  0  0  0  0
    4.4280   15.8970   37.2450 C   0  0  0  0  0  0  0  0  0  0  0  0
    4.3380   13.1770   36.3810 O   0  0  0  0  0  1  0  0  0  0  0  0
    0.0480   19.2460   42.1370 C   0  0  0  0  0  0  0  0  0  0  0  0
    2.4570   27.3380   31.1450 C   0  0  0  0  0  0  0  0  0  0  0  0
    5.0850   26.1330   31.1490 S   0  0  0  0  0  4  0  0  0  0  0  0
    1.6810   20.3740   40.8220 C   0  0  0  0  0  0  0  0  0  0  0  0
    2.9250   24.9870   31.9820 C   0  0  0  0  0  0  0  0  0  0  0  0
    1.7850   17.9980   40.8980 C   0  0  0  0  0  0  0  0  0  0  0  0
    5.3220   25.0450   32.1450 C   0  0  0  0  0  0  0  0  0  0  0  0
    5.2950   24.9500   30.5490 O   0  0  0  0  0  0  0  0  0  0  0  0
    2.2370   13.7470   35.8520 O   0  0  0  0  0  0  0  0  0  0  0  0
    0.6740   18.0320   41.8320 C   0  0  0  0  0  0  0  0  0  0  0  0
    3.7650   18.2770   37.1900 C   0  0  0  0  0  0  0  0  0  0  0  0
    0.6290   20.4640   41.6530 C   0  0  0  0  0  0  0  0  0  0  0  0
    3.2840   13.8310   36.5350 C   0  0  0  0  0  0  0  0  0  0  0  0
    3.4480   18.1520   38.5430 N   0  0  0  0  0  0  0  0  0  0  0  0
    3.6570   19.3250   36.5710 O   0  0  0  0  0  0  0  0  0  0  0  0
    4.2960   20.0210   39.5050 O   0  0  0  0  0  0  0  0  0  0  0  0
    1.6050   25.4890   32.4270 C   0  0  0  0  0  0  0  0  0  0  0  0
    0.8460   26.6760   31.3630 S   0  0  0  0  0  0  0  0  0  0  0  0
    3.3820   26.1900   31.0650 C   0  0  0  0  0  0  0  0  0  0  0  0
   -1.0940   19.2300   42.8960 O   0  0  0  0  0  0  0  0  0  0  0  0
    3.4410   19.2070   39.4790 C   0  0  0  0  0  0  0  0  0  0  0  0
   -1.3450   18.0800   43.6630 C   0  0  0  0  0  0  0  0  0  0  0  0
    4.4199   17.0760   35.6449 H   0  0  0  0  0  0  0  0  0  0  0  0
    6.3170   27.9846   31.5156 H   0  0  0  0  0  0  0  0  0  0  0  0
    6.7980   27.0861   30.0364 H   0  0  0  0  0  0  0  0  0  0  0  0
    5.3025   28.0812   30.0364 H   0  0  0  0  0  0  0  0  0  0  0  0
    3.9297   25.2675   33.9220 H   0  0  0  0  0  0  0  0  0  0  0  0
    4.0031   23.6234   33.4009 H   0  0  0  0  0  0  0  0  0  0  0  0
    3.5170   14.5019   38.5787 H   0  0  0  0  0  0  0  0  0  0  0  0
    2.3657   15.4737   37.6060 H   0  0  0  0  0  0  0  0  0  0  0  0
    5.1146   15.3437   36.5874 H   0  0  0  0  0  0  0  0  0  0  0  0
    4.7574   16.2169   38.2446 H   0  0  0  0  0  0  0  0  0  0  0  0
    2.5023   27.9264   30.2167 H   0  0  0  0  0  0  0  0  0  0  0  0
    2.7260   28.0047   31.9775 H   0  0  0  0  0  0  0  0  0  0  0  0
    2.0893   21.3153   40.4254 H   0  0  0  0  0  0  0  0  0  0  0  0
    2.8029   23.9869   31.5405 H   0  0  0  0  0  0  0  0  0  0  0  0
    2.2102   17.0357   40.5766 H   0  0  0  0  0  0  0  0  0  0  0  0
    6.0174   24.7435   32.9422 H   0  0  0  0  0  0  0  0  0  0  0  0
    0.3233   17.1010   42.3012 H   0  0  0  0  0  0  0  0  0  0  0  0
    0.2258   21.4425   41.9529 H   0  0  0  0  0  0  0  0  0  0  0  0
    3.1989   17.2133   38.8860 H   0  0  0  0  0  0  0  0  0  0  0  0
    0.9262   24.6277   32.5130 H   0  0  0  0  0  0  0  0  0  0  0  0
    1.7847   26.0084   33.3799 H   0  0  0  0  0  0  0  0  0  0  0  0
    3.2502   26.2174   29.9733 H   0  0  0  0  0  0  0  0  0  0  0  0
   -1.2898   18.3330   44.7321 H   0  0  0  0  0  0  0  0  0  0  0  0
   -2.3484   17.6948   43.4287 H   0  0  0  0  0  0  0  0  0  0  0  0
   -0.5934   17.3118   43.4287 H   0  0  0  0  0  0  0  0  0  0  0  0
  1 18  1  0
  1  6  1  0
  3 11  2  0
  3 13  1  0
  6  5  1  0
  7 20  1  0
  8 27  1  0
  9 25  1  0
 10  2  1  0
 10 14  1  0
 11 19  1  0
 12 24  1  0
 12  4  1  0
 13 17  2  0
 14  4  1  0
 15 10  1  0
 15 14  1  0
 16 20  2  0
 17  8  1  0
 18 21  1  0
 19  8  2  0
 20  5  1  0
 21 28  1  0
 22 18  2  0
 25 24  1  0
 26  9  1  0
 26 10  1  0
 26 12  1  0
 27 29  1  0
 28 23  2  0
 28  3  1  0
  1 30  1  0
  2 31  1  0
  2 32  1  0
  2 33  1  0
  4 34  1  0
  4 35  1  0
  5 36  1  0
  5 37  1  0
  6 38  1  0
  6 39  1  0
  9 40  1  0
  9 41  1  0
 11 42  1  0
 12 43  1  0
 13 44  1  0
 14 45  1  0
 17 46  1  0
 19 47  1  0
 21 48  1  0
 24 49  1  0
 24 50  1  0
 26 51  1  0
 29 52  1  0
 29 53  1  0
 29 54  1  0
M  CHG  1   7  -1
M  END
>  <mol_id>  (76) 
2026-09-16-6tgu-s0-n100-0076

>  <rmsd_to_ref>  (76) 


$$$$

     RDKit          3D

 80 84  0  0  0  0  0  0  0  0999 V2000
    1.7730   18.4030   40.7150 C   0  0  0  0  0  0  0  0  0  0  0  0
    1.0680   19.0910   41.7670 C   0  0  0  0  0  0  0  0  0  0  0  0
    2.7540   20.3350   37.3790 C   0  0  0  0  0  0  0  0  0  0  0  0
    3.6490   17.7600   36.7140 C   0  0  0  0  0  0  0  0  0  0  0  0
    3.9200   20.5320   35.3280 O   0  0  0  0  0  0  0  0  0  0  0  0
    0.6610   20.5050   41.6670 C   0  0  0  0  0  0  0  0  0  0  0  0
    3.4650   17.7050   39.2370 C   0  0  0  0  0  0  0  0  0  0  0  0
    2.2740   24.6620   33.3160 N   0  0  0  0  0  0  0  0  0  0  0  0
    3.6450   23.0100   34.0920 C   0  0  0  0  0  0  0  0  0  0  0  0
    0.5330   27.6850   30.5240 C   0  0  0  0  0  0  0  0  0  0  0  0
    1.4900   21.3390   40.8190 C   0  0  0  0  0  0  0  0  0  0  0  0
    2.6920   12.9390   36.2510 C   0  0  0  0  0  0  0  0  0  0  0  0
    2.2110   22.2420   35.7900 C   0  0  0  0  0  0  0  0  0  0  0  0
    4.1060   24.5830   31.9170 C   0  0  0  0  0  0  0  0  0  0  0  0
    1.8870   20.6170   39.6010 C   0  0  0  0  0  0  0  0  0  0  0  0
    3.0130   18.6560   38.9290 C   0  0  0  0  0  0  0  0  0  0  0  0
    1.1070   26.4220   30.4030 C   0  0  0  0  0  0  0  0  0  0  0  0
    3.1920   16.4220   38.8160 C   0  0  0  0  0  0  0  0  0  0  0  0
    1.5310   25.6740   31.3780 C   0  0  0  0  0  0  0  0  0  0  0  0
    2.4140   19.5550   39.6030 C   0  0  0  0  0  0  0  0  0  0  0  0
    3.3040   15.1750   36.7830 N   0  0  0  0  0  4  0  0  0  0  0  0
    3.8450   13.8600   36.7680 C   0  0  0  0  0  0  0  0  0  0  0  0
    2.0320   21.2280   38.2670 C   0  0  0  0  0  0  0  0  0  0  0  0
    3.0080   18.9500   37.6330 C   0  0  0  0  0  0  0  0  0  0  0  0
    1.3930   28.1350   33.0100 C   0  0  0  0  0  0  0  0  0  0  0  0
    1.5550   24.0090   34.2660 C   0  0  0  0  0  0  0  0  0  0  0  0
    2.1090   13.6460   35.1010 N   0  0  0  0  0  4  0  0  0  0  0  0
    1.9450   25.7980   32.7200 C   0  0  0  0  0  0  0  0  0  0  0  0
    4.3440   13.5730   38.0390 C   0  0  0  0  0  0  0  0  0  0  0  0
    3.7730   16.4140   37.4920 C   0  0  0  0  0  0  0  0  0  0  0  0
    3.2710   23.8100   32.8430 C   0  0  0  0  0  0  0  0  0  0  0  0
    2.1930   22.5750   34.4820 C   0  0  0  0  0  0  0  0  0  0  0  0
    0.6990   28.3080   31.8090 C   0  0  0  0  0  0  0  0  0  0  0  0
    3.0220   20.9720   36.0360 C   0  0  0  0  0  0  0  0  0  0  0  0
    1.8640   26.9240   33.4150 C   0  0  0  0  0  0  0  0  0  0  0  0
    2.5954   17.8150   41.1485 H   0  0  0  0  0  0  0  0  0  0  0  0
    1.0798   17.7311   40.1878 H   0  0  0  0  0  0  0  0  0  0  0  0
    0.1431   18.5202   41.9363 H   0  0  0  0  0  0  0  0  0  0  0  0
    1.8352   19.1369   42.5540 H   0  0  0  0  0  0  0  0  0  0  0  0
    4.6506   18.0702   36.3816 H   0  0  0  0  0  0  0  0  0  0  0  0
    2.9760   17.5945   35.8598 H   0  0  0  0  0  0  0  0  0  0  0  0
   -0.3648   20.5343   41.2709 H   0  0  0  0  0  0  0  0  0  0  0  0
    0.7591   20.9179   42.6818 H   0  0  0  0  0  0  0  0  0  0  0  0
    4.5368   17.8354   39.0266 H   0  0  0  0  0  0  0  0  0  0  0  0
    2.9994   17.6359   40.2312 H   0  0  0  0  0  0  0  0  0  0  0  0
    4.1194   23.6331   34.8644 H   0  0  0  0  0  0  0  0  0  0  0  0
    4.3812   22.2037   33.9580 H   0  0  0  0  0  0  0  0  0  0  0  0
   -0.0073   28.1700   29.6977 H   0  0  0  0  0  0  0  0  0  0  0  0
    0.9249   22.2393   40.5361 H   0  0  0  0  0  0  0  0  0  0  0  0
    2.3976   21.6147   41.3760 H   0  0  0  0  0  0  0  0  0  0  0  0
    3.0907   11.9622   35.9397 H   0  0  0  0  0  0  0  0  0  0  0  0
    1.9430   12.7454   37.0330 H   0  0  0  0  0  0  0  0  0  0  0  0
    1.1781   22.0774   36.1306 H   0  0  0  0  0  0  0  0  0  0  0  0
    2.6825   23.0645   36.3478 H   0  0  0  0  0  0  0  0  0  0  0  0
    4.7951   25.2209   32.4900 H   0  0  0  0  0  0  0  0  0  0  0  0
    4.6847   23.8948   31.2834 H   0  0  0  0  0  0  0  0  0  0  0  0
    3.4644   25.2129   31.2834 H   0  0  0  0  0  0  0  0  0  0  0  0
    1.2116   26.0187   29.3850 H   0  0  0  0  0  0  0  0  0  0  0  0
    3.6708   15.6764   39.4678 H   0  0  0  0  0  0  0  0  0  0  0  0
    2.1224   16.1658   38.8341 H   0  0  0  0  0  0  0  0  0  0  0  0
    1.5825   24.6228   31.0581 H   0  0  0  0  0  0  0  0  0  0  0  0
    3.2852   15.4481   35.7900 H   0  0  0  0  0  0  0  0  0  0  0  0
    2.4937   14.9768   37.3871 H   0  0  0  0  0  0  0  0  0  0  0  0
    4.7057   13.7128   36.0990 H   0  0  0  0  0  0  0  0  0  0  0  0
    1.6478   22.2193   37.9848 H   0  0  0  0  0  0  0  0  0  0  0  0
    1.5651   29.0112   33.6524 H   0  0  0  0  0  0  0  0  0  0  0  0
    1.5859   24.5747   35.2089 H   0  0  0  0  0  0  0  0  0  0  0  0
    0.5075   23.9110   33.9449 H   0  0  0  0  0  0  0  0  0  0  0  0
    1.4897   14.3970   35.4377 H   0  0  0  0  0  0  0  0  0  0  0  0
    2.8633   14.0531   34.5299 H   0  0  0  0  0  0  0  0  0  0  0  0
    1.5656   12.9831   34.5299 H   0  0  0  0  0  0  0  0  0  0  0  0
    3.6562   13.9686   38.8009 H   0  0  0  0  0  0  0  0  0  0  0  0
    4.4368   12.4835   38.1591 H   0  0  0  0  0  0  0  0  0  0  0  0
    5.3324   14.0406   38.1591 H   0  0  0  0  0  0  0  0  0  0  0  0
    4.8687   16.3533   37.5679 H   0  0  0  0  0  0  0  0  0  0  0  0
    3.1379   22.9792   32.1344 H   0  0  0  0  0  0  0  0  0  0  0  0
    1.7106   21.7360   33.9592 H   0  0  0  0  0  0  0  0  0  0  0  0
    1.0229   29.3180   31.5176 H   0  0  0  0  0  0  0  0  0  0  0  0
   -0.2044   27.8250   32.2097 H   0  0  0  0  0  0  0  0  0  0  0  0
    2.2240   26.8730   34.4532 H   0  0  0  0  0  0  0  0  0  0  0  0
  1  2  1  0
  3 24  1  0
  3 23  2  0
  4 30  1  0
  4 24  1  0
  5 34  2  0
  6  2  1  0
  8 26  1  0
  9 32  1  0
 10 33  1  0
 11  6  1  0
 12 22  1  0
 13 34  1  0
 15 20  2  0
 15 11  1  0
 16  7  1  0
 16 20  1  0
 17 10  2  0
 17 19  1  0
 18  7  1  0
 19 28  2  0
 20  1  1  0
 22 21  1  0
 22 29  1  0
 23 15  1  0
 24 16  2  0
 25 35  2  0
 26 32  1  0
 27 12  1  0
 28  8  1  0
 28 35  1  0
 30 21  1  0
 30 18  1  0
 31 14  1  0
 31  8  1  0
 31  9  1  0
 32 13  1  0
 33 25  1  0
 34  3  1  0
  1 36  1  0
  1 37  1  0
  2 38  1  0
  2 39  1  0
  4 40  1  0
  4 41  1  0
  6 42  1  0
  6 43  1  0
  7 44  1  0
  7 45  1  0
  9 46  1  0
  9 47  1  0
 10 48  1  0
 11 49  1  0
 11 50  1  0
 12 51  1  0
 12 52  1  0
 13 53  1  0
 13 54  1  0
 14 55  1  0
 14 56  1  0
 14 57  1  0
 17 58  1  0
 18 59  1  0
 18 60  1  0
 19 61  1  0
 21 62  1  0
 21 63  1  0
 22 64  1  0
 23 65  1  0
 25 66  1  0
 26 67  1  0
 26 68  1  0
 27 69  1  0
 27 70  1  0
 27 71  1  0
 29 72  1  0
 29 73  1  0
 29 74  1  0
 30 75  1  0
 31 76  1  0
 32 77  1  0
 33 78  1  0
 33 79  1  0
 35 80  1  0
M  CHG  2  21   1  27   1
M  END
>  <mol_id>  (77) 
2026-09-16-6tgu-s0-n100-0077

>  <rmsd_to_ref>  (77) 


$$$$

     RDKit          3D

 44 45  0  0  0  0  0  0  0  0999 V2000
    4.9350   23.1610   32.9400 C   0  0  0  0  0  0  0  0  0  0  0  0
    2.5000   17.1160   40.1940 O   0  0  0  0  0  0  0  0  0  0  0  0
    2.5260   18.3630   39.5010 C   0  0  0  0  0  0  0  0  0  0  0  0
    1.1610   19.5660   41.1480 C   0  0  0  0  0  0  0  0  0  0  0  0
    3.4840   23.9930   33.0300 C   0  0  0  0  0  0  0  0  0  0  0  0
    2.6840   21.0490   36.8480 N   0  0  0  0  0  0  0  0  0  0  0  0
    4.1420   19.9650   35.7930 O   0  0  0  0  0  0  0  0  0  0  0  0
    2.2940   25.4260   29.3040 O   0  0  0  0  0  0  0  0  0  0  0  0
    2.8670   16.0510   39.4110 C   0  0  0  0  0  0  0  0  0  0  0  0
    3.5610   21.0350   35.7370 C   0  0  0  0  0  0  0  0  0  0  0  0
    2.3870   25.8560   31.3840 C   0  0  0  0  0  0  0  0  0  0  0  0
    1.9800   20.6060   39.0030 C   0  0  0  0  0  0  0  0  0  0  0  0
    4.3900   25.2990   30.4130 F   0  0  0  0  0  0  0  0  0  0  0  0
    2.7790   23.7480   34.7380 S   0  0  0  0  0  0  0  0  0  0  0  0
    4.3170   22.1080   33.8100 C   0  0  0  0  0  0  0  0  0  0  0  0
    3.0730   25.3780   30.2680 C   0  0  0  0  0  0  0  0  0  0  0  0
    2.5550   20.0800   37.9620 C   0  0  0  0  0  0  0  0  0  0  0  0
    2.3920   24.1400   31.9570 C   0  0  0  0  0  0  0  0  0  0  0  0
    0.8550   21.1310   41.5140 C   0  0  0  0  0  0  0  0  0  0  0  0
    1.9500   19.4620   39.9930 C   0  0  0  0  0  0  0  0  0  0  0  0
    2.9220   18.7790   38.1110 C   0  0  0  0  0  0  0  0  0  0  0  0
    3.8900   22.1750   35.2790 C   0  0  0  0  0  0  0  0  0  0  0  0
    5.2051   22.8197   31.9298 H   0  0  0  0  0  0  0  0  0  0  0  0
    5.8905   23.6383   33.2030 H   0  0  0  0  0  0  0  0  0  0  0  0
    1.6926   19.0977   41.9895 H   0  0  0  0  0  0  0  0  0  0  0  0
    0.2035   19.0568   40.9638 H   0  0  0  0  0  0  0  0  0  0  0  0
    3.8909   24.9692   32.7277 H   0  0  0  0  0  0  0  0  0  0  0  0
    2.0399   21.8518   36.8882 H   0  0  0  0  0  0  0  0  0  0  0  0
    3.1579   15.2067   40.0533 H   0  0  0  0  0  0  0  0  0  0  0  0
    2.0195   15.7535   38.7759 H   0  0  0  0  0  0  0  0  0  0  0  0
    3.7178   16.3388   38.7759 H   0  0  0  0  0  0  0  0  0  0  0  0
    1.3912   26.2735   31.1743 H   0  0  0  0  0  0  0  0  0  0  0  0
    2.7615   26.6876   31.9990 H   0  0  0  0  0  0  0  0  0  0  0  0
    1.6064   21.6325   39.1324 H   0  0  0  0  0  0  0  0  0  0  0  0
    3.3989   21.8222   33.2757 H   0  0  0  0  0  0  0  0  0  0  0  0
    5.2139   21.4860   33.9465 H   0  0  0  0  0  0  0  0  0  0  0  0
    2.6059   23.4668   31.1138 H   0  0  0  0  0  0  0  0  0  0  0  0
    1.4098   23.8776   32.3770 H   0  0  0  0  0  0  0  0  0  0  0  0
    0.8309   21.2540   42.6068 H   0  0  0  0  0  0  0  0  0  0  0  0
    1.6456   21.7679   41.0906 H   0  0  0  0  0  0  0  0  0  0  0  0
   -0.1173   21.4232   41.0906 H   0  0  0  0  0  0  0  0  0  0  0  0
    2.4854   19.4292   40.9534 H   0  0  0  0  0  0  0  0  0  0  0  0
    3.4158   18.1491   37.3564 H   0  0  0  0  0  0  0  0  0  0  0  0
    4.4601   22.3387   36.2054 H   0  0  0  0  0  0  0  0  0  0  0  0
  1  5  1  0
  1 15  1  0
  3 20  1  0
  3  2  1  0
  4 19  1  0
  5 18  1  0
  5 14  1  0
  6 17  1  0
  8 16  2  0
  9  2  1  0
 10  7  2  0
 10  6  1  0
 11 18  1  0
 12 20  1  0
 14 22  1  0
 15 22  1  0
 16 13  1  0
 16 11  1  0
 17 21  1  0
 17 12  2  0
 20  4  1  0
 21  3  2  0
 22 10  1  0
  1 23  1  0
  1 24  1  0
  4 25  1  0
  4 26  1  0
  5 27  1  0
  6 28  1  0
  9 29  1  0
  9 30  1  0
  9 31  1  0
 11 32  1  0
 11 33  1  0
 12 34  1  0
 15 35  1  0
 15 36  1  0
 18 37  1  0
 18 38  1  0
 19 39  1  0
 19 40  1  0
 19 41  1  0
 20 42  1  0
 21 43  1  0
 22 44  1  0
M  END
>  <mol_id>  (78) 
2026-09-16-6tgu-s0-n100-0078

>  <rmsd_to_ref>  (78) 


$$$$

     RDKit          3D

 50 55  0  0  0  0  0  0  0  0999 V2000
    2.5040   13.4790   36.5970 N   0  0  0  0  0  0  0  0  0  0  0  0
    3.0320   18.4320   38.5210 N   0  0  0  0  0  0  0  0  0  0  0  0
    1.5100   21.5870   40.6890 C   0  0  0  0  0  0  0  0  0  0  0  0
    4.0630   24.3440   30.0730 C   0  0  0  0  0  0  0  0  0  0  0  0
    3.3520   21.5900   35.9300 C   0  0  0  0  0  0  0  0  0  0  0  0
    1.6860   19.2360   40.3780 C   0  0  0  0  0  0  0  0  0  0  0  0
    3.3920   20.3640   36.6050 C   0  0  0  0  0  0  0  0  0  0  0  0
    3.7370   17.5460   37.6130 C   0  0  0  0  0  0  0  0  0  0  0  0
    3.2720   23.5950   32.3970 C   0  0  0  0  0  0  0  0  0  0  0  0
    0.8310   19.0070   41.4070 C   0  0  0  0  0  0  0  0  0  0  0  0
    4.4690   16.2920   37.8590 C   0  0  0  0  0  0  0  0  0  0  0  0
    0.3210   20.0460   42.2400 C   0  0  0  0  0  0  0  0  0  0  0  0
    3.6780   23.2980   31.0910 C   0  0  0  0  0  0  0  0  0  0  0  0
    2.4480   17.0490   40.1960 O   0  0  0  0  0  0  0  0  0  0  0  0
    3.0300   12.8390   37.8600 N   0  0  0  0  0  0  0  0  0  0  0  0
    0.7650   21.3210   41.8980 C   0  0  0  0  0  0  0  0  0  0  0  0
    3.1120   22.9330   33.5930 C   0  0  0  0  0  0  0  0  0  0  0  0
    2.3690   20.7030   38.6770 O   0  0  0  0  0  0  0  0  0  0  0  0
    2.1540   23.4050   31.0900 C   0  0  0  0  0  0  0  0  0  0  0  0
    3.3110   15.2020   38.0570 C   0  0  0  0  0  0  0  0  0  0  0  0
    3.7920   13.8310   38.6120 C   0  0  0  0  0  0  0  0  0  0  0  0
    2.6130   24.1450   29.7880 C   0  0  0  0  0  0  0  0  0  0  0  0
    2.6710   14.9690   36.6890 C   0  0  0  0  0  0  0  0  0  0  0  0
    1.8140   20.5040   39.9100 C   0  0  0  0  0  0  0  0  0  0  0  0
    2.4370   18.1430   39.6880 C   0  0  0  0  0  0  0  0  0  0  0  0
    3.1330   22.2910   34.9100 C   0  0  0  0  0  0  0  0  0  0  0  0
    3.0640   19.7440   37.9760 C   0  0  0  0  0  0  0  0  0  0  0  0
    1.5058   13.2509   36.4856 H   0  0  0  0  0  0  0  0  0  0  0  0
    1.8165   22.6059   40.4097 H   0  0  0  0  0  0  0  0  0  0  0  0
    4.3594   25.3286   30.4638 H   0  0  0  0  0  0  0  0  0  0  0  0
    4.8895   24.2847   29.3496 H   0  0  0  0  0  0  0  0  0  0  0  0
    2.6939   22.1274   36.6286 H   0  0  0  0  0  0  0  0  0  0  0  0
    4.3473   21.3617   35.5210 H   0  0  0  0  0  0  0  0  0  0  0  0
    3.7887   19.5872   35.9348 H   0  0  0  0  0  0  0  0  0  0  0  0
    4.4842   18.1977   37.1367 H   0  0  0  0  0  0  0  0  0  0  0  0
    2.8477   17.0935   37.1499 H   0  0  0  0  0  0  0  0  0  0  0  0
    3.6907   24.3069   33.1235 H   0  0  0  0  0  0  0  0  0  0  0  0
    0.5170   17.9721   41.6076 H   0  0  0  0  0  0  0  0  0  0  0  0
    5.1053   16.0352   36.9993 H   0  0  0  0  0  0  0  0  0  0  0  0
    5.1428   16.3573   38.7260 H   0  0  0  0  0  0  0  0  0  0  0  0
   -0.3637   19.8569   43.0799 H   0  0  0  0  0  0  0  0  0  0  0  0
    2.2416   12.5030   38.4314 H   0  0  0  0  0  0  0  0  0  0  0  0
    0.5396   22.1583   42.5749 H   0  0  0  0  0  0  0  0  0  0  0  0
    1.0913   23.1239   31.1313 H   0  0  0  0  0  0  0  0  0  0  0  0
    2.6151   15.6036   38.8083 H   0  0  0  0  0  0  0  0  0  0  0  0
    3.5773   13.7511   39.6879 H   0  0  0  0  0  0  0  0  0  0  0  0
    4.8777   13.6944   38.4999 H   0  0  0  0  0  0  0  0  0  0  0  0
    2.0072   24.5288   28.9539 H   0  0  0  0  0  0  0  0  0  0  0  0
    3.3268   15.3365   35.8859 H   0  0  0  0  0  0  0  0  0  0  0  0
    1.7157   15.5032   36.5792 H   0  0  0  0  0  0  0  0  0  0  0  0
  1 23  1  0
  1 15  1  0
  2 25  1  0
  3 16  2  0
  5  7  1  0
  6 10  1  0
  7 27  2  3
  8 11  1  0
  8  2  1  0
  9 17  1  0
 10 12  2  0
 11 20  1  0
 13  4  1  0
 13  9  1  0
 15 21  1  0
 16 12  1  0
 17 26  3  0
 18 24  1  0
 19 13  1  0
 19  9  1  0
 20 21  1  0
 22  4  1  0
 22 19  1  0
 22 13  1  0
 23 20  1  0
 24  6  2  0
 24  3  1  0
 25 14  2  0
 25  6  1  0
 26  5  1  0
 27  2  1  0
 27 18  1  0
  1 28  1  0
  3 29  1  0
  4 30  1  0
  4 31  1  0
  5 32  1  0
  5 33  1  0
  7 34  1  0
  8 35  1  0
  8 36  1  0
  9 37  1  0
 10 38  1  0
 11 39  1  0
 11 40  1  0
 12 41  1  0
 15 42  1  0
 16 43  1  0
 19 44  1  0
 20 45  1  0
 21 46  1  0
 21 47  1  0
 22 48  1  0
 23 49  1  0
 23 50  1  0
M  END
>  <mol_id>  (79) 
2026-09-16-6tgu-s0-n100-0079

>  <rmsd_to_ref>  (79) 


$$$$

     RDKit          3D

 45 47  0  0  0  0  0  0  0  0999 V2000
    3.4500   24.8450   29.6780 S   0  0  0  0  0  0  0  0  0  0  0  0
    4.2030   22.7800   34.0440 C   0  0  0  0  0  0  0  0  0  0  0  0
    3.3270   23.5630   33.2480 C   0  0  0  0  0  0  0  0  0  0  0  0
    2.3120   19.2210   39.4220 C   0  0  0  0  0  0  0  0  0  0  0  0
    3.1500   25.0170   31.3010 C   0  0  0  0  0  0  0  0  0  0  0  0
   -0.1580   18.8150   42.6640 C   0  0  0  0  0  0  0  0  0  0  0  0
    2.9010   18.2830   38.6330 C   0  0  0  0  0  0  0  0  0  0  0  0
    2.0830   25.5740   31.9370 O   0  0  0  0  0  0  0  0  0  0  0  0
    2.2000   20.4290   38.9480 C   0  0  0  0  0  0  0  0  0  0  0  0
    1.4060   17.7620   40.9860 C   0  0  0  0  0  0  0  0  0  0  0  0
    3.4050   18.7000   37.4000 C   0  0  0  0  0  0  0  0  0  0  0  0
    2.8020   17.0030   39.1710 C   0  0  0  0  0  0  0  0  0  0  0  0
    2.1620   16.6650   40.3300 C   0  0  0  0  0  0  0  0  0  0  0  0
    5.1900   23.4780   31.1620 C   0  0  0  0  0  0  0  0  0  0  0  0
    3.5880   20.5010   35.4460 C   0  0  0  0  0  0  0  0  0  0  0  0
    1.8800   23.8160   33.6200 C   0  0  0  0  0  0  0  0  0  0  0  0
    3.1670   20.0740   36.8630 C   0  0  0  0  0  0  0  0  0  0  0  0
    2.4330   20.9420   37.6630 C   0  0  0  0  0  0  0  0  0  0  0  0
    0.4780   17.7230   41.9680 O   0  0  0  0  0  0  0  0  0  0  0  0
    4.4280   24.3930   32.1610 C   0  0  0  0  0  0  0  0  0  0  0  0
    3.7980   21.9480   35.3630 C   0  0  0  0  0  0  0  0  0  0  0  0
    4.9560   23.8630   29.6770 C   0  0  0  0  0  0  0  0  0  0  0  0
    1.7050   19.0480   40.5340 C   0  0  0  0  0  0  0  0  0  0  0  0
    5.2567   22.7371   33.7313 H   0  0  0  0  0  0  0  0  0  0  0  0
   -0.0678   18.6602   43.7493 H   0  0  0  0  0  0  0  0  0  0  0  0
    0.3306   19.7607   42.3867 H   0  0  0  0  0  0  0  0  0  0  0  0
   -1.2217   18.8567   42.3867 H   0  0  0  0  0  0  0  0  0  0  0  0
    1.8647   21.1764   39.6822 H   0  0  0  0  0  0  0  0  0  0  0  0
    3.9983   17.9922   36.8025 H   0  0  0  0  0  0  0  0  0  0  0  0
    3.2837   16.1879   38.6111 H   0  0  0  0  0  0  0  0  0  0  0  0
    2.2040   15.6487   40.7489 H   0  0  0  0  0  0  0  0  0  0  0  0
    6.2668   23.5483   31.3755 H   0  0  0  0  0  0  0  0  0  0  0  0
    4.8066   22.4560   31.2982 H   0  0  0  0  0  0  0  0  0  0  0  0
    4.5243   19.9879   35.1812 H   0  0  0  0  0  0  0  0  0  0  0  0
    2.7820   20.2281   34.7489 H   0  0  0  0  0  0  0  0  0  0  0  0
    1.7807   23.8334   34.7154 H   0  0  0  0  0  0  0  0  0  0  0  0
    1.5592   24.7839   33.2073 H   0  0  0  0  0  0  0  0  0  0  0  0
    1.2498   23.0144   33.2073 H   0  0  0  0  0  0  0  0  0  0  0  0
    2.0735   21.9252   37.3251 H   0  0  0  0  0  0  0  0  0  0  0  0
    5.2197   24.9926   32.6339 H   0  0  0  0  0  0  0  0  0  0  0  0
    4.5913   22.1649   36.0935 H   0  0  0  0  0  0  0  0  0  0  0  0
    2.7602   22.2916   35.4855 H   0  0  0  0  0  0  0  0  0  0  0  0
    4.8284   22.9613   29.0600 H   0  0  0  0  0  0  0  0  0  0  0  0
    5.8082   24.4167   29.2561 H   0  0  0  0  0  0  0  0  0  0  0  0
    1.4161   19.9199   41.1393 H   0  0  0  0  0  0  0  0  0  0  0  0
  1  5  1  0
  2 21  1  0
  3 16  1  0
  3  2  2  3
  4 23  1  0
  5  8  2  0
  5 20  1  0
  7 12  1  0
  7  4  1  0
  9  4  2  0
 10 19  1  0
 11  7  2  0
 12 13  2  0
 13 10  1  0
 14 20  1  0
 15 17  1  0
 17 11  1  0
 17 18  2  0
 18  9  1  0
 19  6  1  0
 20  3  1  0
 21 15  1  0
 22  1  1  0
 22 14  1  0
 23 10  2  0
  2 24  1  0
  6 25  1  0
  6 26  1  0
  6 27  1  0
  9 28  1  0
 11 29  1  0
 12 30  1  0
 13 31  1  0
 14 32  1  0
 14 33  1  0
 15 34  1  0
 15 35  1  0
 16 36  1  0
 16 37  1  0
 16 38  1  0
 18 39  1  0
 20 40  1  0
 21 41  1  0
 21 42  1  0
 22 43  1  0
 22 44  1  0
 23 45  1  0
M  END
>  <mol_id>  (80) 
2026-09-16-6tgu-s0-n100-0080

>  <rmsd_to_ref>  (80) 


$$$$

     RDKit          3D

 75 79  0  0  0  0  0  0  0  0999 V2000
    0.9460   18.8160   41.7480 C   0  0  0  0  0  0  0  0  0  0  0  0
    0.2880   17.7200   42.5620 C   0  0  0  0  0  0  0  0  0  0  0  0
    1.9500   20.4900   40.6310 C   0  0  0  0  0  0  0  0  0  0  0  0
    1.4710   24.5250   31.2860 C   0  0  0  0  0  0  0  0  0  0  0  0
    1.8880   18.3430   40.8450 N   0  0  0  0  0  0  0  0  0  0  0  0
    1.8480   23.0580   33.6140 C   0  0  0  0  0  0  0  0  0  0  0  0
    1.6290   25.2330   27.4140 C   0  0  0  0  0  0  0  0  0  0  0  0
   -1.2990   19.7070   42.7900 C   0  0  0  0  0  0  0  0  0  0  0  0
    2.2060   21.3540   37.1920 C   0  0  0  0  0  0  0  0  0  0  0  0
    4.5410   19.6310   39.4680 O   0  0  0  0  0  0  0  0  0  0  0  0
    0.5790   25.3010   28.0540 F   0  0  0  0  0  0  0  0  0  0  0  0
    0.2640   21.2260   42.0070 C   0  0  0  0  0  0  0  0  0  0  0  0
   -1.1060   18.2450   42.9250 C   0  0  0  0  0  0  0  0  0  0  0  0
    3.6570   26.0120   27.9940 C   0  0  0  0  0  0  0  0  0  0  0  0
    2.9220   18.5430   38.0040 C   0  0  0  0  0  0  0  0  0  0  0  0
   -0.9510   20.0060   44.3280 O   0  0  0  0  0  0  0  0  0  0  0  0
    3.4630   22.9620   33.3150 C   0  0  0  0  0  0  0  0  0  0  0  0
    2.1620   25.0160   30.7240 C   0  0  0  0  0  0  0  0  0  0  0  0
    3.3630   17.1560   37.9930 C   0  0  0  0  0  0  0  0  0  0  0  0
    3.6430   21.3800   35.3510 C   0  0  0  0  0  0  0  0  0  0  0  0
    3.3210   19.3900   36.7840 C   0  0  0  0  0  0  0  0  0  0  0  0
    4.0440   25.0970   28.9310 N   0  0  0  0  0  4  0  0  0  0  0  0
    2.5450   24.0960   31.2940 C   0  0  0  0  0  0  0  0  0  0  0  0
   -1.0520   20.8570   42.3200 C   0  0  0  0  0  0  0  0  0  0  0  0
    3.6820   23.1700   31.7610 C   0  0  0  0  0  0  0  0  0  0  0  0
    4.4330   15.2230   37.3260 C   0  0  0  0  0  0  0  0  0  0  0  0
    1.1190   20.2410   41.4290 C   0  0  0  0  0  0  0  0  0  0  0  0
    2.9830   22.7730   34.8450 C   0  0  0  0  0  0  0  0  0  0  0  0
    2.4330   19.2650   40.2190 N   0  0  0  0  0  0  0  0  0  0  0  0
    4.2650   16.5750   37.1610 N   0  0  0  0  0  0  0  0  0  0  0  0
    2.9180   24.8570   27.9500 C   0  0  0  0  0  0  0  0  0  0  0  0
    1.6040   25.6100   26.2110 F   0  0  0  0  0  0  0  0  0  0  0  0
    3.4130   19.2640   39.1860 C   0  0  0  0  0  0  0  0  0  0  0  0
    3.3100   14.6550   38.1250 C   0  0  0  0  0  0  0  0  0  0  0  0
    2.7330   15.9470   39.1110 S   0  0  0  0  0  0  0  0  0  0  0  0
    3.0430   20.6640   36.3840 C   0  0  0  0  0  0  0  0  0  0  0  0
    0.2067   16.7982   41.9674 H   0  0  0  0  0  0  0  0  0  0  0  0
    0.8744   17.4769   43.4603 H   0  0  0  0  0  0  0  0  0  0  0  0
    2.2712   21.4847   40.2885 H   0  0  0  0  0  0  0  0  0  0  0  0
    0.6683   23.9630   30.7861 H   0  0  0  0  0  0  0  0  0  0  0  0
    0.7757   24.8409   32.0777 H   0  0  0  0  0  0  0  0  0  0  0  0
    1.1725   22.2552   33.2836 H   0  0  0  0  0  0  0  0  0  0  0  0
    1.0514   23.7932   33.4274 H   0  0  0  0  0  0  0  0  0  0  0  0
    1.8395   26.2872   27.6473 H   0  0  0  0  0  0  0  0  0  0  0  0
   -1.9806   19.5726   41.9371 H   0  0  0  0  0  0  0  0  0  0  0  0
    1.7017   20.8439   38.0259 H   0  0  0  0  0  0  0  0  0  0  0  0
    2.0296   22.4253   37.0152 H   0  0  0  0  0  0  0  0  0  0  0  0
    0.2080   22.0659   41.2989 H   0  0  0  0  0  0  0  0  0  0  0  0
    0.7241   21.4501   42.9807 H   0  0  0  0  0  0  0  0  0  0  0  0
   -1.8356   17.7463   42.2701 H   0  0  0  0  0  0  0  0  0  0  0  0
   -1.2398   18.0233   43.9941 H   0  0  0  0  0  0  0  0  0  0  0  0
    3.1700   26.9396   28.3294 H   0  0  0  0  0  0  0  0  0  0  0  0
    4.2209   26.5522   27.2193 H   0  0  0  0  0  0  0  0  0  0  0  0
    1.8273   18.4348   37.9994 H   0  0  0  0  0  0  0  0  0  0  0  0
   -1.5579   19.4846   44.9110 H   0  0  0  0  0  0  0  0  0  0  0  0
    3.5568   24.0465   33.4734 H   0  0  0  0  0  0  0  0  0  0  0  0
    2.0891   24.9772   29.6271 H   0  0  0  0  0  0  0  0  0  0  0  0
    2.4897   26.0652   30.6827 H   0  0  0  0  0  0  0  0  0  0  0  0
    4.6670   21.6133   35.6782 H   0  0  0  0  0  0  0  0  0  0  0  0
    3.5316   20.7149   34.4819 H   0  0  0  0  0  0  0  0  0  0  0  0
    4.4203   19.3754   36.8204 H   0  0  0  0  0  0  0  0  0  0  0  0
    2.6204   18.9064   36.0873 H   0  0  0  0  0  0  0  0  0  0  0  0
    4.9382   24.5951   28.8345 H   0  0  0  0  0  0  0  0  0  0  0  0
    4.1584   25.0798   29.9545 H   0  0  0  0  0  0  0  0  0  0  0  0
    2.2969   23.4589   30.4323 H   0  0  0  0  0  0  0  0  0  0  0  0
   -1.4172   21.5855   43.0589 H   0  0  0  0  0  0  0  0  0  0  0  0
   -1.5455   20.8360   41.3372 H   0  0  0  0  0  0  0  0  0  0  0  0
    4.6590   23.6387   31.5718 H   0  0  0  0  0  0  0  0  0  0  0  0
    3.6702   22.2122   31.2201 H   0  0  0  0  0  0  0  0  0  0  0  0
    5.3818   15.0367   37.8504 H   0  0  0  0  0  0  0  0  0  0  0  0
    4.4476   14.7413   36.3372 H   0  0  0  0  0  0  0  0  0  0  0  0
    2.9563   23.2003   35.8582 H   0  0  0  0  0  0  0  0  0  0  0  0
    2.6004   23.8343   27.6986 H   0  0  0  0  0  0  0  0  0  0  0  0
    2.5112   14.2944   37.4603 H   0  0  0  0  0  0  0  0  0  0  0  0
    3.6382   13.7984   38.7320 H   0  0  0  0  0  0  0  0  0  0  0  0
  1  2  1  0
  2 13  1  0
  3 27  2  0
  4 23  1  0
  5  1  2  0
  6 28  1  0
  7 11  1  0
  8 13  1  0
  8 16  1  0
 12 24  1  0
 14 22  1  0
 15 21  1  0
 15 33  1  0
 17 25  1  0
 17  6  1  0
 17 28  1  0
 18  4  1  0
 18 23  1  0
 19 15  1  0
 19 35  1  0
 20 36  1  0
 23 25  1  0
 24  8  1  0
 26 34  1  0
 27  1  1  0
 27 12  1  0
 28 20  1  0
 29  3  1  0
 29  5  1  0
 30 26  1  0
 30 19  2  0
 31  7  1  0
 31 14  1  0
 31 22  1  0
 32  7  1  0
 33 10  2  0
 33 29  1  0
 34 35  1  0
 36 21  1  0
 36  9  2  3
  2 37  1  0
  2 38  1  0
  3 39  1  0
  4 40  1  0
  4 41  1  0
  6 42  1  0
  6 43  1  0
  7 44  1  0
  8 45  1  0
  9 46  1  0
  9 47  1  0
 12 48  1  0
 12 49  1  0
 13 50  1  0
 13 51  1  0
 14 52  1  0
 14 53  1  0
 15 54  1  0
 16 55  1  0
 17 56  1  0
 18 57  1  0
 18 58  1  0
 20 59  1  0
 20 60  1  0
 21 61  1  0
 21 62  1  0
 22 63  1  0
 22 64  1  0
 23 65  1  0
 24 66  1  0
 24 67  1  0
 25 68  1  0
 25 69  1  0
 26 70  1  0
 26 71  1  0
 28 72  1  0
 31 73  1  0
 34 74  1  0
 34 75  1  0
M  CHG  1  22   1
M  END
>  <mol_id>  (81) 
2026-09-16-6tgu-s0-n100-0081

>  <rmsd_to_ref>  (81) 


$$$$

     RDKit          3D

105107  0  0  0  0  0  0  0  0999 V2000
    0.4620   26.7230   30.6590 C   0  0  0  0  0  0  0  0  0  0  0  0
    1.5960   23.0900   40.3410 Cl  0  0  0  0  0  0  0  0  0  0  0  0
    3.4230   12.9520   36.6120 C   0  0  0  0  0  0  0  0  0  0  0  0
    0.2580   10.0480   35.7120 O   0  0  0  0  0  0  0  0  0  0  0  0
    1.6750   12.0590   35.5620 N   0  0  0  0  0  0  0  0  0  0  0  0
    4.5470   25.4720   33.8420 C   0  0  0  0  0  0  0  0  0  0  0  0
    1.1950   27.0610   31.9320 C   0  0  0  0  0  0  0  0  0  0  0  0
    2.5840   27.0040   34.5100 C   0  0  0  0  0  0  0  0  0  0  0  0
    3.7610   15.2520   37.9370 C   0  0  0  0  0  0  0  0  0  0  0  0
   -0.3190   30.7360   34.9430 O   0  0  0  0  0  0  0  0  0  0  0  0
   -1.5210   20.6220   42.5990 C   0  0  0  0  0  0  0  0  0  0  0  0
    5.1700   14.8030   38.1180 N   0  0  0  0  0  0  0  0  0  0  0  0
    3.9180   21.0760   34.5960 N   0  0  0  0  0  0  0  0  0  0  0  0
    2.9620   14.4430   36.9980 C   0  0  0  0  0  0  0  0  0  0  0  0
   -0.3810   20.2740   41.9790 C   0  0  0  0  0  0  0  0  0  0  0  0
    1.7240   28.1670   34.0330 C   0  0  0  0  0  0  0  0  0  0  0  0
    1.3450   29.1200   35.0940 C   0  0  0  0  0  0  0  0  0  0  0  0
    2.3320   21.1770   38.3350 C   0  0  0  0  0  0  0  0  0  0  0  0
    1.4370   19.0210   39.7510 C   0  0  0  0  0  0  0  0  0  0  0  0
    1.1820   10.6480   36.0300 C   0  0  0  0  0  0  0  0  0  0  0  0
    1.6730   21.5420   39.4870 C   0  0  0  0  0  0  0  0  0  0  0  0
    3.5320   16.6030   37.6810 O   0  0  0  0  0  0  0  0  0  0  0  0
    2.7180   19.9380   37.9270 C   0  0  0  0  0  0  0  0  0  0  0  0
    5.7120   11.3590   32.9570 C   0  0  0  0  0  0  0  0  0  0  0  0
    2.4190   16.6620   39.5470 O   0  0  0  0  0  0  0  0  0  0  0  0
    5.1780   13.5080   31.6840 C   0  0  0  0  0  0  0  0  0  0  0  0
    5.7560   13.7660   37.6060 C   0  0  0  0  0  0  0  0  0  0  0  0
    0.0250   21.0110   40.9810 O   0  0  0  0  0  0  0  0  0  0  0  0
    5.0090   25.9870   32.9400 C   0  0  0  0  0  0  0  0  0  0  0  0
   -1.1010   29.3500   33.2930 O   0  0  0  0  0  0  0  0  0  0  0  0
    6.3940   25.6580   32.1430 F   0  0  0  0  0  0  0  0  0  0  0  0
    4.0720   26.0230   31.6060 O   0  0  0  0  0  0  0  0  0  0  0  0
    3.1960   21.0480   35.8090 C   0  0  0  0  0  0  0  0  0  0  0  0
    2.2250   21.8990   35.9890 O   0  0  0  0  0  0  0  0  0  0  0  0
    2.9830   12.3070   35.2070 C   0  0  0  0  0  0  0  0  0  0  0  0
    2.8210   17.3520   38.5760 C   0  0  0  0  0  0  0  0  0  0  0  0
    0.3590   29.8270   34.7300 N   0  0  0  0  0  0  0  0  0  0  0  0
    4.8930   12.8080   36.6190 C   0  0  0  0  0  0  0  0  0  0  0  0
    4.7410   12.5210   32.7160 C   0  0  0  0  0  0  0  0  0  0  0  0
    1.7740   13.6700   33.5170 N   0  0  0  0  0  4  0  0  0  0  0  0
   -0.1770   18.3890   43.4210 C   0  0  0  0  0  0  0  0  0  0  0  0
    1.9510   25.8400   32.4470 C   0  0  0  0  0  0  0  0  0  0  0  0
    2.3900   18.7830   38.7570 C   0  0  0  0  0  0  0  0  0  0  0  0
    0.2940   19.2000   42.3890 C   0  0  0  0  0  0  0  0  0  0  0  0
    1.8780   10.1850   37.1650 N   0  0  0  0  0  0  0  0  0  0  0  0
    3.3380   11.9980   32.4700 C   0  0  0  0  0  0  0  0  0  0  0  0
    0.8610   27.9780   32.9360 O   0  0  0  0  0  0  0  0  0  0  0  0
   -0.7230   28.1160   31.0030 S   0  0  0  0  0  0  0  0  0  0  0  0
   -2.0110   19.8760   43.6510 C   0  0  0  0  0  0  0  0  0  0  0  0
    1.0750   20.4140   40.0590 C   0  0  0  0  0  0  0  0  0  0  0  0
    5.5040   27.0160   33.9270 C   0  0  0  0  0  0  0  0  0  0  0  0
    2.4480   12.4420   33.6690 C   0  0  0  0  0  0  0  0  0  0  0  0
    3.4660   19.9280   36.6660 N   0  0  0  0  0  0  0  0  0  0  0  0
    0.4920   17.3150   43.7710 O   0  0  0  0  0  0  0  0  0  0  0  0
   -0.6070   29.8740   33.9280 C   0  0  0  0  0  0  0  0  0  0  0  0
    2.7160   25.8520   33.6230 O   0  0  0  0  0  0  0  0  0  0  0  0
   -1.3650   18.7640   44.1330 C   0  0  0  0  0  0  0  0  0  0  0  0
   -0.0015   25.7254   30.6552 H   0  0  0  0  0  0  0  0  0  0  0  0
    0.9967   26.6614   29.6997 H   0  0  0  0  0  0  0  0  0  0  0  0
    2.8776   12.4142   37.4015 H   0  0  0  0  0  0  0  0  0  0  0  0
    0.9951   12.8314   35.5179 H   0  0  0  0  0  0  0  0  0  0  0  0
    4.9475   25.9184   34.7641 H   0  0  0  0  0  0  0  0  0  0  0  0
    3.4547   25.5994   33.8173 H   0  0  0  0  0  0  0  0  0  0  0  0
    4.7918   24.3999   33.8173 H   0  0  0  0  0  0  0  0  0  0  0  0
    3.0875   27.0311   35.4876 H   0  0  0  0  0  0  0  0  0  0  0  0
    3.4088   15.0768   38.9643 H   0  0  0  0  0  0  0  0  0  0  0  0
   -2.0710   21.5136   42.2634 H   0  0  0  0  0  0  0  0  0  0  0  0
    4.6878   20.4098   34.4394 H   0  0  0  0  0  0  0  0  0  0  0  0
    3.6749   21.7626   33.8677 H   0  0  0  0  0  0  0  0  0  0  0  0
    2.9103   15.0108   36.0573 H   0  0  0  0  0  0  0  0  0  0  0  0
    2.0239   14.2782   37.5483 H   0  0  0  0  0  0  0  0  0  0  0  0
    1.0728   28.5607   36.0012 H   0  0  0  0  0  0  0  0  0  0  0  0
    2.1996   29.7825   35.2958 H   0  0  0  0  0  0  0  0  0  0  0  0
    2.5808   22.0008   37.6498 H   0  0  0  0  0  0  0  0  0  0  0  0
    0.9677   18.1857   40.2913 H   0  0  0  0  0  0  0  0  0  0  0  0
    5.8397   11.2062   34.0388 H   0  0  0  0  0  0  0  0  0  0  0  0
    5.3073   10.4427   32.5025 H   0  0  0  0  0  0  0  0  0  0  0  0
    6.6857   11.5945   32.5025 H   0  0  0  0  0  0  0  0  0  0  0  0
    5.5754   14.4057   32.1802 H   0  0  0  0  0  0  0  0  0  0  0  0
    5.9615   13.0591   31.0558 H   0  0  0  0  0  0  0  0  0  0  0  0
    4.3190   13.7863   31.0558 H   0  0  0  0  0  0  0  0  0  0  0  0
    6.8084   13.5414   37.8339 H   0  0  0  0  0  0  0  0  0  0  0  0
    3.1193   26.0596   31.8728 H   0  0  0  0  0  0  0  0  0  0  0  0
    4.0188   11.9932   35.0103 H   0  0  0  0  0  0  0  0  0  0  0  0
    5.1169   11.7676   36.8973 H   0  0  0  0  0  0  0  0  0  0  0  0
    5.2003   13.1131   35.6078 H   0  0  0  0  0  0  0  0  0  0  0  0
    4.7393   13.1103   33.6448 H   0  0  0  0  0  0  0  0  0  0  0  0
    1.5594   14.0611   34.4454 H   0  0  0  0  0  0  0  0  0  0  0  0
    2.3722   14.3280   32.9972 H   0  0  0  0  0  0  0  0  0  0  0  0
    0.8977   13.5187   32.9972 H   0  0  0  0  0  0  0  0  0  0  0  0
    1.8936   24.9059   31.8689 H   0  0  0  0  0  0  0  0  0  0  0  0
    1.2467   18.9471   41.9008 H   0  0  0  0  0  0  0  0  0  0  0  0
    2.7153   10.6856   37.4954 H   0  0  0  0  0  0  0  0  0  0  0  0
    1.5492    9.3461   37.6640 H   0  0  0  0  0  0  0  0  0  0  0  0
    2.9410   12.4173   31.5337 H   0  0  0  0  0  0  0  0  0  0  0  0
    3.3462   10.9015   32.3825 H   0  0  0  0  0  0  0  0  0  0  0  0
   -0.8591   28.2760   32.3568 H   0  0  0  0  0  0  0  0  0  0  0  0
   -2.9561   20.1839   44.1222 H   0  0  0  0  0  0  0  0  0  0  0  0
    5.3303   26.6548   34.9514 H   0  0  0  0  0  0  0  0  0  0  0  0
    6.5806   27.1822   33.7745 H   0  0  0  0  0  0  0  0  0  0  0  0
    4.9619   27.9609   33.7745 H   0  0  0  0  0  0  0  0  0  0  0  0
    1.7466   11.6013   33.5627 H   0  0  0  0  0  0  0  0  0  0  0  0
    4.1292   19.1806   36.4160 H   0  0  0  0  0  0  0  0  0  0  0  0
    1.3112   17.0594   43.2774 H   0  0  0  0  0  0  0  0  0  0  0  0
   -1.7324   18.2006   45.0034 H   0  0  0  0  0  0  0  0  0  0  0  0
  1 48  1  0
  1  7  1  0
  3 35  1  0
  3 38  1  0
  3 14  1  0
  4 20  2  0
  5 20  1  0
  7 42  2  0
  7 47  1  0
  9 22  1  0
  9 12  1  0
 11 49  2  0
 13 33  1  0
 14  9  1  0
 15 44  2  0
 15 11  1  0
 16  8  2  0
 16 17  1  0
 18 21  2  0
 19 50  2  0
 20 45  1  0
 21 50  1  0
 21  2  1  0
 22 36  1  0
 23 18  1  0
 23 43  2  0
 26 39  1  0
 27 12  2  0
 28 15  1  0
 29  6  1  0
 29 51  1  0
 30 55  2  0
 31 29  1  0
 32 29  1  0
 33 34  2  0
 33 53  1  0
 35  5  1  0
 36 43  1  0
 36 25  2  0
 37 10  1  0
 37 17  1  0
 38 27  1  0
 39 24  1  0
 41 54  1  0
 41 57  2  0
 42 56  1  0
 43 19  1  0
 44 41  1  0
 46 39  1  0
 46 52  1  0
 47 16  1  0
 49 57  1  0
 50 28  1  0
 52 40  1  0
 52 35  1  0
 53 23  1  0
 55 37  1  0
 55 10  1  0
 56  8  1  0
  1 58  1  0
  1 59  1  0
  3 60  1  0
  5 61  1  0
  6 62  1  0
  6 63  1  0
  6 64  1  0
  8 65  1  0
  9 66  1  0
 11 67  1  0
 13 68  1  0
 13 69  1  0
 14 70  1  0
 14 71  1  0
 17 72  1  0
 17 73  1  0
 18 74  1  0
 19 75  1  0
 24 76  1  0
 24 77  1  0
 24 78  1  0
 26 79  1  0
 26 80  1  0
 26 81  1  0
 27 82  1  0
 32 83  1  0
 35 84  1  0
 38 85  1  0
 38 86  1  0
 39 87  1  0
 40 88  1  0
 40 89  1  0
 40 90  1  0
 42 91  1  0
 44 92  1  0
 45 93  1  0
 45 94  1  0
 46 95  1  0
 46 96  1  0
 48 97  1  0
 49 98  1  0
 51 99  1  0
 51100  1  0
 51101  1  0
 52102  1  0
 53103  1  0
 54104  1  0
 57105  1  0
M  CHG  1  40   1
M  END
>  <mol_id>  (82) 
2026-09-16-6tgu-s0-n100-0082

>  <rmsd_to_ref>  (82) 


$$$$

     RDKit          3D

 37 37  0  0  0  0  0  0  0  0999 V2000
    4.2500   19.1950   39.4640 C   0  0  0  0  0  0  0  0  0  0  0  0
    1.2920   21.0110   41.0540 C   0  0  0  0  0  0  0  0  0  0  0  0
    5.1980   20.2840   34.4750 C   0  0  0  0  0  0  0  0  0  0  0  0
    2.6010   20.5840   40.8180 O   0  0  0  0  0  0  0  0  0  0  0  0
    3.0020   23.7570   31.9520 C   0  0  0  0  0  0  0  0  0  0  0  0
    4.0400   23.8740   30.9270 C   0  0  0  0  0  0  0  0  0  0  0  0
    3.3300   20.6090   36.7630 C   0  0  0  0  0  0  0  0  0  0  0  0
    2.8380   24.6700   30.6880 C   0  0  0  0  0  0  0  0  0  0  0  0
    2.6800   22.6090   34.5450 C   0  0  0  0  0  0  0  0  0  0  0  0
    4.5960   21.3960   35.1410 O   0  0  0  0  0  0  0  0  0  0  0  0
    2.2450   20.7450   38.2790 S   0  0  0  0  0  0  0  0  0  0  0  0
    3.1420   21.4410   35.3830 C   0  0  0  0  0  0  0  0  0  0  0  0
    2.8870   19.7430   39.6040 C   0  0  0  0  0  0  0  0  0  0  0  0
    0.6290   19.7310   41.5070 C   0  0  0  0  0  0  0  0  0  0  0  0
    3.2220   22.7080   33.1420 C   0  0  0  0  0  0  0  0  0  0  0  0
    4.6799   19.0221   40.4616 H   0  0  0  0  0  0  0  0  0  0  0  0
    4.2080   18.2439   38.9130 H   0  0  0  0  0  0  0  0  0  0  0  0
    4.8781   19.9105   38.9130 H   0  0  0  0  0  0  0  0  0  0  0  0
    0.8261   21.4011   40.1371 H   0  0  0  0  0  0  0  0  0  0  0  0
    1.2149   21.8346   41.7791 H   0  0  0  0  0  0  0  0  0  0  0  0
    5.5825   19.5737   35.2217 H   0  0  0  0  0  0  0  0  0  0  0  0
    4.4476   19.7836   33.8453 H   0  0  0  0  0  0  0  0  0  0  0  0
    6.0272   20.6388   33.8453 H   0  0  0  0  0  0  0  0  0  0  0  0
    3.5013   24.5362   32.5466 H   0  0  0  0  0  0  0  0  0  0  0  0
    4.9818   24.3860   31.1737 H   0  0  0  0  0  0  0  0  0  0  0  0
    4.5790   23.1319   30.3198 H   0  0  0  0  0  0  0  0  0  0  0  0
    4.3449   20.8517   37.1110 H   0  0  0  0  0  0  0  0  0  0  0  0
    3.0478   19.6034   36.4178 H   0  0  0  0  0  0  0  0  0  0  0  0
    2.8676   25.7653   30.7852 H   0  0  0  0  0  0  0  0  0  0  0  0
    2.1045   24.7709   29.8745 H   0  0  0  0  0  0  0  0  0  0  0  0
    1.9772   23.3564   34.9418 H   0  0  0  0  0  0  0  0  0  0  0  0
    2.0984   21.1392   35.2105 H   0  0  0  0  0  0  0  0  0  0  0  0
    2.3977   18.7587   39.6457 H   0  0  0  0  0  0  0  0  0  0  0  0
    0.6111   19.6965   42.6063 H   0  0  0  0  0  0  0  0  0  0  0  0
   -0.4009   19.6954   41.1222 H   0  0  0  0  0  0  0  0  0  0  0  0
    1.1941   18.8693   41.1222 H   0  0  0  0  0  0  0  0  0  0  0  0
    3.9110   21.8910   32.8817 H   0  0  0  0  0  0  0  0  0  0  0  0
  2 14  1  0
  3 10  1  0
  4  2  1  0
  5 15  1  0
  6  5  1  0
  7 11  1  0
  8  6  1  0
  8  5  1  0
 10 12  1  0
 11 13  1  0
 12  9  1  0
 12  7  1  0
 13  1  1  0
 13  4  1  0
 15  9  2  3
  1 16  1  0
  1 17  1  0
  1 18  1  0
  2 19  1  0
  2 20  1  0
  3 21  1  0
  3 22  1  0
  3 23  1  0
  5 24  1  0
  6 25  1  0
  6 26  1  0
  7 27  1  0
  7 28  1  0
  8 29  1  0
  8 30  1  0
  9 31  1  0
 12 32  1  0
 13 33  1  0
 14 34  1  0
 14 35  1  0
 14 36  1  0
 15 37  1  0
M  END
>  <mol_id>  (83) 
2026-09-16-6tgu-s0-n100-0083

>  <rmsd_to_ref>  (83) 


$$$$

     RDKit          3D

 58 59  0  0  0  0  0  0  0  0999 V2000
    2.7150   23.8230   30.9990 C   0  0  0  0  0  0  0  0  0  0  0  0
    1.2640   18.1050   41.4080 C   0  0  0  0  0  0  0  0  0  0  0  0
    3.2230   22.7910   32.2430 C   0  0  0  0  0  0  0  0  0  0  0  0
    2.6380   17.5280   39.6400 O   0  0  0  0  0  0  0  0  0  0  0  0
    1.6640   25.4720   29.9210 C   0  0  0  0  0  0  0  0  0  0  0  0
    3.8670   19.8620   37.0910 O   0  0  0  0  0  0  0  0  0  0  0  0
    1.7700   19.7560   39.5580 C   0  0  0  0  0  0  0  0  0  0  0  0
    0.4040   17.1110   43.0980 C   0  0  0  0  0  0  0  0  0  0  0  0
   -0.3690   20.3090   41.6390 C   0  0  0  0  0  0  0  0  0  0  0  0
    1.7210   24.9470   31.1340 O   0  0  0  0  0  0  0  0  0  0  0  0
   -0.1680   18.2640   43.0560 N   0  0  0  0  0  0  0  0  0  0  0  0
    5.4500   21.9310   35.6350 C   0  0  0  0  0  0  0  0  0  0  0  0
    1.8730   26.9730   30.4200 C   0  0  0  0  0  0  0  0  0  0  0  0
    2.4230   20.5630   38.8090 C   0  0  0  0  0  0  0  0  0  0  0  0
    2.0400   22.1550   34.4430 O   0  0  0  0  0  0  0  0  0  0  0  0
    3.5100   20.9120   36.5940 C   0  0  0  0  0  0  0  0  0  0  0  0
    3.8820   24.1350   30.1570 C   0  0  0  0  0  0  0  0  0  0  0  0
    0.2640   18.9050   41.9710 C   0  0  0  0  0  0  0  0  0  0  0  0
    2.6310   25.5170   29.0120 C   0  0  0  0  0  0  0  0  0  0  0  0
    3.3900   22.2060   34.4480 C   0  0  0  0  0  0  0  0  0  0  0  0
    2.3350   21.1320   37.4640 C   0  0  0  0  0  0  0  0  0  0  0  0
    1.3350   16.9610   42.0790 N   0  0  0  0  0  0  0  0  0  0  0  0
    4.0010   21.7170   35.4900 N   0  0  0  0  0  0  0  0  0  0  0  0
    4.5060   23.0450   33.1780 S   0  0  0  0  0  0  0  0  0  0  0  0
    2.1010   18.5800   40.2100 C   0  0  0  0  0  0  0  0  0  0  0  0
    2.4820   22.8470   32.2760 C   0  0  0  0  0  0  0  0  0  0  0  0
    3.9180   24.9300   28.9100 C   0  0  0  0  0  0  0  0  0  0  0  0
    2.7401   22.9858   30.2859 H   0  0  0  0  0  0  0  0  0  0  0  0
    3.3531   21.7330   31.9715 H   0  0  0  0  0  0  0  0  0  0  0  0
    3.3296   23.7622   31.7376 H   0  0  0  0  0  0  0  0  0  0  0  0
    2.9576   16.9020   40.3372 H   0  0  0  0  0  0  0  0  0  0  0  0
    0.8384   24.9433   29.4222 H   0  0  0  0  0  0  0  0  0  0  0  0
    0.9189   19.4613   38.9265 H   0  0  0  0  0  0  0  0  0  0  0  0
    1.8021   20.3908   40.4558 H   0  0  0  0  0  0  0  0  0  0  0  0
    0.1820   16.3391   43.8496 H   0  0  0  0  0  0  0  0  0  0  0  0
   -0.6061   20.8350   42.5755 H   0  0  0  0  0  0  0  0  0  0  0  0
    0.3474   20.9053   41.0548 H   0  0  0  0  0  0  0  0  0  0  0  0
   -1.2902   20.1670   41.0548 H   0  0  0  0  0  0  0  0  0  0  0  0
    5.7099   21.9694   36.7032 H   0  0  0  0  0  0  0  0  0  0  0  0
    5.9927   21.1033   35.1551 H   0  0  0  0  0  0  0  0  0  0  0  0
    5.7303   22.8803   35.1551 H   0  0  0  0  0  0  0  0  0  0  0  0
    1.8763   26.9967   31.5197 H   0  0  0  0  0  0  0  0  0  0  0  0
    2.8330   27.3547   30.0421 H   0  0  0  0  0  0  0  0  0  0  0  0
    1.0538   27.6024   30.0421 H   0  0  0  0  0  0  0  0  0  0  0  0
    2.4577   21.4683   39.4328 H   0  0  0  0  0  0  0  0  0  0  0  0
    3.1402   19.7888   38.4989 H   0  0  0  0  0  0  0  0  0  0  0  0
    4.5847   24.6446   30.8326 H   0  0  0  0  0  0  0  0  0  0  0  0
    4.0456   23.1375   29.7232 H   0  0  0  0  0  0  0  0  0  0  0  0
    2.1275   25.1702   28.0975 H   0  0  0  0  0  0  0  0  0  0  0  0
    2.9951   26.5148   29.2980 H   0  0  0  0  0  0  0  0  0  0  0  0
    2.1889   22.2175   37.5657 H   0  0  0  0  0  0  0  0  0  0  0  0
    1.4988   20.6119   36.9738 H   0  0  0  0  0  0  0  0  0  0  0  0
    1.9406   16.1501   41.8877 H   0  0  0  0  0  0  0  0  0  0  0  0
    2.9697   19.1882   40.5021 H   0  0  0  0  0  0  0  0  0  0  0  0
    2.0789   23.3292   33.1788 H   0  0  0  0  0  0  0  0  0  0  0  0
    1.7938   21.9889   32.2849 H   0  0  0  0  0  0  0  0  0  0  0  0
    4.0176   24.2975   28.0155 H   0  0  0  0  0  0  0  0  0  0  0  0
    4.7607   25.6297   28.8081 H   0  0  0  0  0  0  0  0  0  0  0  0
  1 10  1  0
  1 26  1  0
  2 18  2  0
  2 22  1  0
  3 26  1  0
  3 24  1  0
  5 13  1  0
  5 10  1  0
  7 25  1  0
  9 18  1  0
 11  8  2  0
 14  7  1  0
 15 20  2  0
 16  6  2  0
 16 21  1  0
 17  1  1  0
 18 11  1  0
 19  5  1  0
 20 23  1  0
 21 14  1  0
 22  8  1  0
 23 12  1  0
 23 16  1  0
 24 20  1  0
 25  4  1  0
 25  2  1  0
 27 19  1  0
 27 17  1  0
  1 28  1  0
  3 29  1  0
  3 30  1  0
  4 31  1  0
  5 32  1  0
  7 33  1  0
  7 34  1  0
  8 35  1  0
  9 36  1  0
  9 37  1  0
  9 38  1  0
 12 39  1  0
 12 40  1  0
 12 41  1  0
 13 42  1  0
 13 43  1  0
 13 44  1  0
 14 45  1  0
 14 46  1  0
 17 47  1  0
 17 48  1  0
 19 49  1  0
 19 50  1  0
 21 51  1  0
 21 52  1  0
 22 53  1  0
 25 54  1  0
 26 55  1  0
 26 56  1  0
 27 57  1  0
 27 58  1  0
M  END
>  <mol_id>  (84) 
2026-09-16-6tgu-s0-n100-0084

>  <rmsd_to_ref>  (84) 


$$$$

     RDKit          3D

 55 56  0  0  0  0  0  0  0  0999 V2000
    0.5730   21.2910   41.7040 O   0  0  0  0  0  0  0  0  0  0  0  0
    4.0700   25.2530   31.2230 O   0  0  0  0  0  0  0  0  0  0  0  0
   -0.7410   19.5870   42.4320 C   0  0  0  0  0  0  0  0  0  0  0  0
    2.0550   26.6430   34.0480 O   0  0  0  0  0  0  0  0  0  0  0  0
    2.7870   25.7040   31.3090 C   0  0  0  0  0  0  0  0  0  0  0  0
    3.5830   20.2090   36.4910 C   0  0  0  0  0  0  0  0  0  0  0  0
    3.4840   23.1820   34.3230 C   0  0  0  0  0  0  0  0  0  0  0  0
    1.2750   28.1680   32.5240 C   0  0  0  0  0  0  0  0  0  0  0  0
    3.4880   17.3240   37.9960 C   0  0  0  0  0  0  0  0  0  0  0  0
    3.5960   17.2330   39.1790 O   0  0  0  0  0  0  0  0  0  0  0  0
    3.2510   19.7020   37.7190 C   0  0  0  0  0  0  0  0  0  0  0  0
    2.2940   13.3990   35.6500 C   0  0  0  0  0  0  0  0  0  0  0  0
   -0.4160   20.9630   42.5610 C   0  0  0  0  0  0  0  0  0  0  0  0
    3.7050   16.3010   37.1220 N   0  0  0  0  0  0  0  0  0  0  0  0
    3.0970   13.7250   36.8260 C   0  0  0  0  0  0  0  0  0  0  0  0
    4.2100   24.1030   32.0300 C   0  0  0  0  0  0  0  0  0  0  0  0
    3.3610   18.4490   37.3800 N   0  0  0  0  0  0  0  0  0  0  0  0
    3.2790   22.3640   34.8670 C   0  0  0  0  0  0  0  0  0  0  0  0
    3.4720   24.7390   33.3540 N   0  0  0  0  0  0  0  0  0  0  0  0
    2.8320   12.8330   37.9290 O   0  0  0  0  0  0  0  0  0  0  0  0
    2.7770   15.1720   37.3640 C   0  0  0  0  0  0  0  0  0  0  0  0
    4.4890   13.6850   36.5700 O   0  0  0  0  0  0  0  0  0  0  0  0
    1.8640   28.3700   33.8730 C   0  0  0  0  0  0  0  0  0  0  0  0
    1.7030   27.2900   31.0030 S   0  0  0  0  0  0  0  0  0  0  0  0
    2.8150   25.9630   33.4230 C   0  0  0  0  0  0  0  0  0  0  0  0
    0.8640   20.2150   40.9510 C   0  0  0  0  0  0  0  0  0  0  0  0
    0.2090   19.0670   41.4380 C   0  0  0  0  0  0  0  0  0  0  0  0
    3.5110   21.2710   35.8340 C   0  0  0  0  0  0  0  0  0  0  0  0
    1.7720   20.2380   39.8680 C   0  0  0  0  0  0  0  0  0  0  0  0
    2.5230   19.9600   38.9170 C   0  0  0  0  0  0  0  0  0  0  0  0
   -1.5304   19.0319   42.9599 H   0  0  0  0  0  0  0  0  0  0  0  0
    2.2652   24.9699   30.6775 H   0  0  0  0  0  0  0  0  0  0  0  0
    2.9077   25.9494   32.3744 H   0  0  0  0  0  0  0  0  0  0  0  0
    4.0710   19.4302   35.8867 H   0  0  0  0  0  0  0  0  0  0  0  0
    0.2880   27.7459   32.7641 H   0  0  0  0  0  0  0  0  0  0  0  0
    1.6250   29.1402   32.1466 H   0  0  0  0  0  0  0  0  0  0  0  0
    1.3189   13.0031   35.9701 H   0  0  0  0  0  0  0  0  0  0  0  0
    2.1414   14.3064   35.0472 H   0  0  0  0  0  0  0  0  0  0  0  0
    2.8171   12.6420   35.0472 H   0  0  0  0  0  0  0  0  0  0  0  0
   -0.9008   21.6612   43.2592 H   0  0  0  0  0  0  0  0  0  0  0  0
    4.4245   16.3116   36.3851 H   0  0  0  0  0  0  0  0  0  0  0  0
    3.6777   23.2303   31.6238 H   0  0  0  0  0  0  0  0  0  0  0  0
    5.2254   23.7015   32.1633 H   0  0  0  0  0  0  0  0  0  0  0  0
    3.3415   18.3257   36.3576 H   0  0  0  0  0  0  0  0  0  0  0  0
    2.9746   13.3129   38.7831 H   0  0  0  0  0  0  0  0  0  0  0  0
    2.6714   15.0831   38.4553 H   0  0  0  0  0  0  0  0  0  0  0  0
    1.8923   15.4573   36.7759 H   0  0  0  0  0  0  0  0  0  0  0  0
    4.9821   13.6708   37.4283 H   0  0  0  0  0  0  0  0  0  0  0  0
    2.8116   28.9286   33.8702 H   0  0  0  0  0  0  0  0  0  0  0  0
    1.3236   28.9505   34.6353 H   0  0  0  0  0  0  0  0  0  0  0  0
    3.6791   26.6421   33.3768 H   0  0  0  0  0  0  0  0  0  0  0  0
    1.9764   25.5510   32.8425 H   0  0  0  0  0  0  0  0  0  0  0  0
    0.3714   18.0201   41.1420 H   0  0  0  0  0  0  0  0  0  0  0  0
    4.6010   21.4188   35.8348 H   0  0  0  0  0  0  0  0  0  0  0  0
    2.4227   21.2404   35.9908 H   0  0  0  0  0  0  0  0  0  0  0  0
  1 13  1  0
  2  5  1  0
  2 16  1  0
  3 13  2  0
  6 11  2  3
  7 18  3  0
  8 23  1  0
  9 10  2  0
 11 30  1  0
 12 15  1  0
 14 21  1  0
 14  9  1  0
 15 21  1  0
 15 20  1  0
 16 19  1  0
 17 11  1  0
 17  9  1  0
 18 28  1  0
 19 25  1  0
 19  7  1  0
 22 15  1  0
 23  4  1  0
 24  5  1  0
 24  8  1  0
 25  4  1  0
 26 27  2  0
 26  1  1  0
 27  3  1  0
 28  6  1  0
 29 26  1  0
 30 29  3  0
  3 31  1  0
  5 32  1  0
  5 33  1  0
  6 34  1  0
  8 35  1  0
  8 36  1  0
 12 37  1  0
 12 38  1  0
 12 39  1  0
 13 40  1  0
 14 41  1  0
 16 42  1  0
 16 43  1  0
 17 44  1  0
 20 45  1  0
 21 46  1  0
 21 47  1  0
 22 48  1  0
 23 49  1  0
 23 50  1  0
 25 51  1  0
 25 52  1  0
 27 53  1  0
 28 54  1  0
 28 55  1  0
M  END
>  <mol_id>  (85) 
2026-09-16-6tgu-s0-n100-0085

>  <rmsd_to_ref>  (85) 


$$$$

     RDKit          3D

 47 46  0  0  0  0  0  0  0  0999 V2000
    3.0100   19.5880   37.8980 C   0  0  0  0  0  0  0  0  0  0  0  0
    3.6370   22.5060   33.1090 C   0  0  0  0  0  0  0  0  0  0  0  0
    3.4170   23.8700   32.3710 C   0  0  0  0  0  0  0  0  0  0  0  0
    3.4210   18.9390   40.0900 O   0  0  0  0  0  0  0  0  0  0  0  0
    1.4440   21.5620   40.0790 O   0  0  0  0  0  0  0  0  0  0  0  0
    2.7530   22.0360   34.2060 C   0  0  0  0  0  0  0  0  0  0  0  0
    4.4500   19.2300   37.8850 C   0  0  0  0  0  0  0  0  0  0  0  0
    1.2930   20.1870   39.7550 C   0  0  0  0  0  0  0  0  0  0  0  0
    4.0860   23.9100   31.1260 C   0  0  0  0  0  0  0  0  0  0  0  0
    0.5710   19.4580   40.8860 C   0  0  0  0  0  0  0  0  0  0  0  0
    3.3140   21.0980   35.3170 C   0  0  0  0  0  0  0  0  0  0  0  0
    2.5740   19.5800   39.3550 C   0  0  0  0  0  0  0  0  0  0  0  0
    3.1700   24.7140   30.2100 C   0  0  0  0  0  0  0  0  0  0  0  0
    3.7910   25.9350   29.6660 C   0  0  0  0  0  0  0  0  0  0  0  0
    2.7280   21.2490   37.0270 S   0  0  0  0  0  0  0  0  0  0  0  0
    2.4270   23.7630   29.2170 C   0  0  0  0  0  0  0  0  0  0  0  0
    1.2700   22.5690   34.3150 C   0  0  0  0  0  0  0  0  0  0  0  0
    2.3972   18.8673   37.3368 H   0  0  0  0  0  0  0  0  0  0  0  0
    4.6513   22.5489   33.5324 H   0  0  0  0  0  0  0  0  0  0  0  0
    3.4095   21.7819   32.3128 H   0  0  0  0  0  0  0  0  0  0  0  0
    2.3397   24.0123   32.2005 H   0  0  0  0  0  0  0  0  0  0  0  0
    3.8275   24.6702   33.0043 H   0  0  0  0  0  0  0  0  0  0  0  0
    3.2139   19.0957   41.0453 H   0  0  0  0  0  0  0  0  0  0  0  0
    1.4558   21.6698   41.0630 H   0  0  0  0  0  0  0  0  0  0  0  0
    3.0980   22.8663   34.8397 H   0  0  0  0  0  0  0  0  0  0  0  0
    4.8146   19.1393   38.9188 H   0  0  0  0  0  0  0  0  0  0  0  0
    4.5847   18.2710   37.3633 H   0  0  0  0  0  0  0  0  0  0  0  0
    5.0181   20.0142   37.3633 H   0  0  0  0  0  0  0  0  0  0  0  0
    0.6519   20.0872   38.8668 H   0  0  0  0  0  0  0  0  0  0  0  0
    5.0626   24.4059   31.2279 H   0  0  0  0  0  0  0  0  0  0  0  0
    4.2835   22.9025   30.7311 H   0  0  0  0  0  0  0  0  0  0  0  0
    0.9382   19.8287   41.8544 H   0  0  0  0  0  0  0  0  0  0  0  0
   -0.5108   19.6421   40.8092 H   0  0  0  0  0  0  0  0  0  0  0  0
    0.7655   18.3781   40.8092 H   0  0  0  0  0  0  0  0  0  0  0  0
    3.0978   20.0674   34.9990 H   0  0  0  0  0  0  0  0  0  0  0  0
    4.3693   21.4001   35.3881 H   0  0  0  0  0  0  0  0  0  0  0  0
    3.0798   20.5442   39.5116 H   0  0  0  0  0  0  0  0  0  0  0  0
    2.3637   25.1674   30.8053 H   0  0  0  0  0  0  0  0  0  0  0  0
    4.1190   26.5799   30.4945 H   0  0  0  0  0  0  0  0  0  0  0  0
    4.6593   25.6610   29.0487 H   0  0  0  0  0  0  0  0  0  0  0  0
    3.0582   26.4753   29.0487 H   0  0  0  0  0  0  0  0  0  0  0  0
    1.8470   23.0206   29.7849 H   0  0  0  0  0  0  0  0  0  0  0  0
    1.7478   24.3525   28.5836 H   0  0  0  0  0  0  0  0  0  0  0  0
    3.1633   23.2466   28.5836 H   0  0  0  0  0  0  0  0  0  0  0  0
    0.9931   22.6685   35.3749 H   0  0  0  0  0  0  0  0  0  0  0  0
    1.1959   23.5500   33.8230 H   0  0  0  0  0  0  0  0  0  0  0  0
    0.5883   21.8596   33.8230 H   0  0  0  0  0  0  0  0  0  0  0  0
  1  7  1  0
  1 12  1  0
  2  6  1  0
  3  2  1  0
  6 17  1  0
  6 11  1  0
  8  5  1  0
  8 10  1  0
  9  3  1  0
 11 15  1  0
 12  8  1  0
 12  4  1  0
 13  9  1  0
 14 13  1  0
 15  1  1  0
 16 13  1  0
  1 18  1  0
  2 19  1  0
  2 20  1  0
  3 21  1  0
  3 22  1  0
  4 23  1  0
  5 24  1  0
  6 25  1  0
  7 26  1  0
  7 27  1  0
  7 28  1  0
  8 29  1  0
  9 30  1  0
  9 31  1  0
 10 32  1  0
 10 33  1  0
 10 34  1  0
 11 35  1  0
 11 36  1  0
 12 37  1  0
 13 38  1  0
 14 39  1  0
 14 40  1  0
 14 41  1  0
 16 42  1  0
 16 43  1  0
 16 44  1  0
 17 45  1  0
 17 46  1  0
 17 47  1  0
M  END
>  <mol_id>  (86) 
2026-09-16-6tgu-s0-n100-0086

>  <rmsd_to_ref>  (86) 


$$$$

     RDKit          3D

 25 25  0  0  0  0  0  0  0  0999 V2000
    3.4200   18.6840   39.4590 C   0  0  0  0  0  0  0  0  0  0  0  0
    4.1140   20.9180   34.1320 C   0  0  0  0  0  0  0  0  0  0  0  0
    3.1730   21.1070   35.0950 C   0  0  0  0  0  0  0  0  0  0  0  0
    3.6150   24.2870   31.8950 S   0  0  0  0  0  0  0  0  0  0  0  0
    2.8370   20.1760   37.6620 C   0  0  0  0  0  0  0  0  0  0  0  0
    3.3420   23.0700   33.1200 C   0  0  0  0  0  0  0  0  0  0  0  0
    1.9160   20.5530   39.8690 C   0  0  0  0  0  0  0  0  0  0  0  0
    2.1570   22.1250   35.0570 C   0  0  0  0  0  0  0  0  0  0  0  0
    2.2540   23.0870   34.0070 C   0  0  0  0  0  0  0  0  0  0  0  0
    4.2360   21.9240   33.2140 C   0  0  0  0  0  0  0  0  0  0  0  0
    2.0560   20.8780   38.5470 C   0  0  0  0  0  0  0  0  0  0  0  0
    2.6400   19.3950   40.3630 C   0  0  0  0  0  0  0  0  0  0  0  0
    3.5270   19.0360   38.0910 C   0  0  0  0  0  0  0  0  0  0  0  0
    3.9792   17.8090   39.8218 H   0  0  0  0  0  0  0  0  0  0  0  0
    4.7379   20.0128   34.0938 H   0  0  0  0  0  0  0  0  0  0  0  0
    3.1896   20.4339   35.9648 H   0  0  0  0  0  0  0  0  0  0  0  0
    3.8844   25.4880   32.4965 H   0  0  0  0  0  0  0  0  0  0  0  0
    2.9203   20.5092   36.6170 H   0  0  0  0  0  0  0  0  0  0  0  0
    1.2759   21.1495   40.5357 H   0  0  0  0  0  0  0  0  0  0  0  0
    1.3463   22.1602   35.7997 H   0  0  0  0  0  0  0  0  0  0  0  0
    1.4689   23.8488   33.8918 H   0  0  0  0  0  0  0  0  0  0  0  0
    5.0674   21.8636   32.4963 H   0  0  0  0  0  0  0  0  0  0  0  0
    1.5095   21.7552   38.1702 H   0  0  0  0  0  0  0  0  0  0  0  0
    2.5732   19.0907   41.4180 H   0  0  0  0  0  0  0  0  0  0  0  0
    4.1292   18.4365   37.3925 H   0  0  0  0  0  0  0  0  0  0  0  0
  1 12  2  0
  2  3  2  0
  4  6  1  0
  5 13  2  0
  5 11  1  0
  6 10  2  0
  6  9  1  0
  7 12  1  0
  8  3  1  0
  9  8  2  0
 10  2  1  0
 11  7  2  0
 13  1  1  0
  1 14  1  0
  2 15  1  0
  3 16  1  0
  4 17  1  0
  5 18  1  0
  7 19  1  0
  8 20  1  0
  9 21  1  0
 10 22  1  0
 11 23  1  0
 12 24  1  0
 13 25  1  0
M  END
>  <mol_id>  (87) 
2026-09-16-6tgu-s0-n100-0087

>  <rmsd_to_ref>  (87) 


$$$$

     RDKit          3D

 55 55  0  0  0  0  0  0  0  0999 V2000
    2.5620   17.5290   39.8360 C   0  0  0  0  0  0  0  0  0  0  0  0
    3.6460   22.7640   34.4230 C   0  0  0  0  0  0  0  0  0  0  0  0
    5.1170   14.7290   36.1580 N   0  0  0  0  0  4  0  0  0  0  0  0
    1.7240   22.0140   36.3720 O   0  0  0  0  0  0  0  0  0  0  0  0
    2.5730   21.4230   36.9500 C   0  0  0  0  0  0  0  0  0  0  0  0
    3.8880   24.0400   31.7620 C   0  0  0  0  0  0  0  0  0  0  0  0
    3.7050   21.2750   34.8690 C   0  0  0  0  0  0  0  0  0  0  0  0
    3.0570   17.2670   38.4650 C   0  0  0  0  0  0  0  0  0  0  0  0
    2.4300   21.0420   38.3610 C   0  0  0  0  0  0  0  0  0  0  0  0
    3.7190   21.0680   36.2870 O   0  0  0  0  0  0  0  0  0  0  0  0
    0.7670   17.9570   41.8520 C   0  0  0  0  0  0  0  0  0  0  0  0
    2.6180   18.5900   36.5160 O   0  0  0  0  0  0  0  0  0  0  0  0
    3.4480   16.0150   37.6790 C   0  0  0  0  0  0  0  0  0  0  0  0
    2.7100   14.9790   37.8740 O   0  0  0  0  0  0  0  0  0  0  0  0
    3.8300   24.9440   29.4780 N   0  0  0  0  0  0  0  0  0  0  0  0
    2.8400   25.6880   29.8500 C   0  0  0  0  0  0  0  0  0  0  0  0
    2.3000   25.8100   31.1500 C   0  0  0  0  0  0  0  0  0  0  0  0
    2.7890   24.8500   32.0850 C   0  0  0  0  0  0  0  0  0  0  0  0
    0.2880   20.1510   40.7770 O   0  0  0  0  0  0  0  0  0  0  0  0
    1.2730   19.2540   41.2180 C   0  0  0  0  0  0  0  0  0  0  0  0
    2.4900   19.5990   38.7460 C   0  0  0  0  0  0  0  0  0  0  0  0
    3.1550   18.5440   37.7810 C   0  0  0  0  0  0  0  0  0  0  0  0
    2.0160   18.7900   39.9520 C   0  0  0  0  0  0  0  0  0  0  0  0
    4.6500   15.7500   36.8560 C   0  0  0  0  0  0  0  0  0  0  0  0
    4.3580   24.1560   30.4410 C   0  0  0  0  0  0  0  0  0  0  0  0
    2.3100   23.5880   34.4070 C   0  0  0  0  0  0  0  0  0  0  0  0
    3.4016   17.4385   40.5409 H   0  0  0  0  0  0  0  0  0  0  0  0
    1.7751   16.7941   40.0612 H   0  0  0  0  0  0  0  0  0  0  0  0
    4.3330   23.3091   35.0870 H   0  0  0  0  0  0  0  0  0  0  0  0
    3.8759   22.6870   33.3501 H   0  0  0  0  0  0  0  0  0  0  0  0
    5.4515   13.9976   36.8014 H   0  0  0  0  0  0  0  0  0  0  0  0
    4.3669   14.3472   35.5644 H   0  0  0  0  0  0  0  0  0  0  0  0
    5.8964   15.0468   35.5644 H   0  0  0  0  0  0  0  0  0  0  0  0
    4.3510   23.3601   32.4923 H   0  0  0  0  0  0  0  0  0  0  0  0
    2.8242   20.7603   34.4576 H   0  0  0  0  0  0  0  0  0  0  0  0
    4.6587   20.8782   34.4908 H   0  0  0  0  0  0  0  0  0  0  0  0
    2.0207   17.1662   38.1101 H   0  0  0  0  0  0  0  0  0  0  0  0
    3.2324   21.5535   38.9129 H   0  0  0  0  0  0  0  0  0  0  0  0
    1.3958   21.3295   38.6014 H   0  0  0  0  0  0  0  0  0  0  0  0
    0.8019   18.0465   42.9478 H   0  0  0  0  0  0  0  0  0  0  0  0
   -0.2691   17.7723   41.5320 H   0  0  0  0  0  0  0  0  0  0  0  0
    1.4043   17.1195   41.5320 H   0  0  0  0  0  0  0  0  0  0  0  0
    1.6336   18.6743   36.5783 H   0  0  0  0  0  0  0  0  0  0  0  0
    2.9068   14.1341   37.3970 H   0  0  0  0  0  0  0  0  0  0  0  0
    2.3643   26.2947   29.0654 H   0  0  0  0  0  0  0  0  0  0  0  0
    1.5634   26.5815   31.4188 H   0  0  0  0  0  0  0  0  0  0  0  0
    2.3014   24.7442   33.0653 H   0  0  0  0  0  0  0  0  0  0  0  0
   -0.1605   20.5594   41.5594 H   0  0  0  0  0  0  0  0  0  0  0  0
    1.8541   19.7928   41.9809 H   0  0  0  0  0  0  0  0  0  0  0  0
    4.2160   18.7575   37.5843 H   0  0  0  0  0  0  0  0  0  0  0  0
    5.3222   16.6198   36.8152 H   0  0  0  0  0  0  0  0  0  0  0  0
    5.2346   23.5506   30.1670 H   0  0  0  0  0  0  0  0  0  0  0  0
    1.9889   23.7860   35.4403 H   0  0  0  0  0  0  0  0  0  0  0  0
    2.4739   24.5421   33.8847 H   0  0  0  0  0  0  0  0  0  0  0  0
    1.5309   23.0133   33.8847 H   0  0  0  0  0  0  0  0  0  0  0  0
  1 23  1  0
  2  7  1  0
  3 24  1  0
  4  5  2  0
  5  9  1  0
  6 18  2  0
  7 10  1  0
  8 13  1  0
  8  1  1  0
  9 21  1  0
 10  5  1  0
 13 14  1  0
 15 16  1  0
 15 25  2  0
 16 17  2  0
 17 18  1  0
 19 20  1  0
 20 11  1  0
 21 23  2  0
 22 12  1  0
 22  8  1  0
 22 21  1  0
 23 20  1  0
 24 13  2  3
 25  6  1  0
 26  2  1  0
  1 27  1  0
  1 28  1  0
  2 29  1  0
  2 30  1  0
  3 31  1  0
  3 32  1  0
  3 33  1  0
  6 34  1  0
  7 35  1  0
  7 36  1  0
  8 37  1  0
  9 38  1  0
  9 39  1  0
 11 40  1  0
 11 41  1  0
 11 42  1  0
 12 43  1  0
 14 44  1  0
 16 45  1  0
 17 46  1  0
 18 47  1  0
 19 48  1  0
 20 49  1  0
 22 50  1  0
 24 51  1  0
 25 52  1  0
 26 53  1  0
 26 54  1  0
 26 55  1  0
M  CHG  1   3   1
M  END
>  <mol_id>  (88) 
2026-09-16-6tgu-s0-n100-0088

>  <rmsd_to_ref>  (88) 


$$$$

     RDKit          3D

 65 65  0  0  0  0  0  0  0  0999 V2000
    1.5750   21.0880   40.5690 C   0  0  0  0  0  0  0  0  0  0  0  0
    4.4700   15.5740   36.8500 N   0  0  0  0  0  0  0  0  0  0  0  0
    2.6010   19.7950   38.4540 C   0  0  0  0  0  0  0  0  0  0  0  0
    2.6370   17.4960   39.5120 N   0  0  0  0  0  4  0  0  0  0  0  0
    1.9000   24.2190   29.3930 C   0  0  0  0  0  0  0  0  0  0  0  0
    3.4910   22.4570   28.1890 S   0  0  0  0  0  0  0  0  0  0  0  0
    3.1090   20.0980   37.1970 C   0  0  0  0  0  0  0  0  0  0  0  0
   -0.1850   26.5820   27.4850 C   0  0  0  0  0  0  0  0  0  0  0  0
    1.3070   23.0990   29.8670 O   0  0  0  0  0  0  0  0  0  0  0  0
    2.3350   21.3010   42.8770 O   0  0  0  0  0  0  0  0  0  0  0  0
    0.6960   25.5220   27.3250 C   0  0  0  0  0  0  0  0  0  0  0  0
    0.2040   19.1470   40.8870 O   0  0  0  0  0  0  0  0  0  0  0  0
    1.7700   20.1090   44.8040 O   0  0  0  0  0  1  0  0  0  0  0  0
    1.5570   19.3920   43.6100 C   0  0  0  0  0  0  0  0  0  0  0  0
    3.4280   23.9060   29.2930 C   0  0  0  0  0  0  0  0  0  0  0  0
    3.9280   24.6280   30.1090 O   0  0  0  0  0  0  0  0  0  0  0  0
    2.0580   20.5160   30.1330 S   0  0  0  0  0  0  0  0  0  0  0  0
    2.0500   22.0750   30.6030 C   0  0  0  0  0  0  0  0  0  0  0  0
    3.0020   18.4050   38.5190 C   0  0  0  0  0  0  0  0  0  0  0  0
    1.2110   20.4320   42.6570 C   0  0  0  0  0  0  0  0  0  0  0  0
    3.7530   19.0880   36.4820 N   0  0  0  0  0  0  0  0  0  0  0  0
    1.2010   20.0500   41.3750 C   0  0  0  0  0  0  0  0  0  0  0  0
    1.8700   20.8220   39.1740 C   0  0  0  0  0  0  0  0  0  0  0  0
    2.5740   22.9990   33.0250 C   0  0  0  0  0  0  0  0  0  0  0  0
    3.9040   22.8420   33.5690 C   0  0  0  0  0  0  0  0  0  0  0  0
    3.9520   21.5240   34.2280 N   0  0  0  0  0  4  0  0  0  0  0  0
    3.7080   18.0200   37.3960 C   0  0  0  0  0  0  0  0  0  0  0  0
    4.1620   16.6630   37.0830 C   0  0  0  0  0  0  0  0  0  0  0  0
    1.8270   24.7680   27.9700 C   0  0  0  0  0  0  0  0  0  0  0  0
    1.4740   18.0710   42.8980 O   0  0  0  0  0  0  0  0  0  0  0  0
    2.5770   22.4040   31.6640 N   0  0  0  0  0  0  0  0  0  0  0  0
    1.0570   26.9280   26.7630 C   0  0  0  0  0  0  0  0  0  0  0  0
    1.5900   22.2550   33.9210 C   0  0  0  0  0  0  0  0  0  0  0  0
    0.7582   21.8244   40.5914 H   0  0  0  0  0  0  0  0  0  0  0  0
    2.5396   21.4127   40.9862 H   0  0  0  0  0  0  0  0  0  0  0  0
    2.8048   17.9138   40.4384 H   0  0  0  0  0  0  0  0  0  0  0  0
    1.6379   17.2648   39.4154 H   0  0  0  0  0  0  0  0  0  0  0  0
    3.1988   16.6381   39.4154 H   0  0  0  0  0  0  0  0  0  0  0  0
    1.3857   24.9184   30.0685 H   0  0  0  0  0  0  0  0  0  0  0  0
    3.5408   21.3124   28.9402 H   0  0  0  0  0  0  0  0  0  0  0  0
    3.0060   21.1090   36.7760 H   0  0  0  0  0  0  0  0  0  0  0  0
   -1.1371   26.5721   26.9342 H   0  0  0  0  0  0  0  0  0  0  0  0
   -0.6740   27.0140   28.3706 H   0  0  0  0  0  0  0  0  0  0  0  0
    2.4800   21.4131   43.8499 H   0  0  0  0  0  0  0  0  0  0  0  0
    0.3843   24.4798   27.1615 H   0  0  0  0  0  0  0  0  0  0  0  0
   -0.2619   18.7251   41.6519 H   0  0  0  0  0  0  0  0  0  0  0  0
    3.8891   18.6883   39.1044 H   0  0  0  0  0  0  0  0  0  0  0  0
    0.1965   20.8299   42.8065 H   0  0  0  0  0  0  0  0  0  0  0  0
    1.9793   19.2743   41.3237 H   0  0  0  0  0  0  0  0  0  0  0  0
    2.3709   21.7468   38.8518 H   0  0  0  0  0  0  0  0  0  0  0  0
    0.8774   20.4059   38.9469 H   0  0  0  0  0  0  0  0  0  0  0  0
    2.2802   24.0578   32.9743 H   0  0  0  0  0  0  0  0  0  0  0  0
    4.6494   22.8870   32.7613 H   0  0  0  0  0  0  0  0  0  0  0  0
    4.1306   23.6455   34.2853 H   0  0  0  0  0  0  0  0  0  0  0  0
    3.9474   21.6508   35.2501 H   0  0  0  0  0  0  0  0  0  0  0  0
    3.1306   20.9696   33.9471 H   0  0  0  0  0  0  0  0  0  0  0  0
    4.8115   21.0308   33.9471 H   0  0  0  0  0  0  0  0  0  0  0  0
    2.6935   25.4405   27.8862 H   0  0  0  0  0  0  0  0  0  0  0  0
    1.7210   23.8156   27.4298 H   0  0  0  0  0  0  0  0  0  0  0  0
    3.5543   22.1022   31.5430 H   0  0  0  0  0  0  0  0  0  0  0  0
    1.8341   27.5442   27.2388 H   0  0  0  0  0  0  0  0  0  0  0  0
    1.3340   27.3650   25.7923 H   0  0  0  0  0  0  0  0  0  0  0  0
    1.8395   22.4437   34.9756 H   0  0  0  0  0  0  0  0  0  0  0  0
    0.5686   22.6087   33.7169 H   0  0  0  0  0  0  0  0  0  0  0  0
    1.6520   21.1759   33.7169 H   0  0  0  0  0  0  0  0  0  0  0  0
  1 22  1  0
  2 28  3  0
  3 19  1  0
  3 23  1  0
  5 29  1  0
  5  9  1  0
  6 15  1  0
  7  3  2  0
  9 18  1  0
 11  8  1  0
 11 29  1  0
 14 13  1  0
 15  5  1  0
 15 16  2  0
 17 18  2  0
 18 31  1  0
 19  4  1  0
 20 10  1  0
 20 14  1  0
 21  7  1  0
 21 27  2  0
 22 12  1  0
 22 20  1  0
 23  1  1  0
 24 25  1  0
 24 33  1  0
 25 26  1  0
 27 19  1  0
 28 27  1  0
 30 14  2  0
 31 24  1  0
 32 11  1  0
 32  8  1  0
  1 34  1  0
  1 35  1  0
  4 36  1  0
  4 37  1  0
  4 38  1  0
  5 39  1  0
  6 40  1  0
  7 41  1  0
  8 42  1  0
  8 43  1  0
 10 44  1  0
 11 45  1  0
 12 46  1  0
 19 47  1  0
 20 48  1  0
 22 49  1  0
 23 50  1  0
 23 51  1  0
 24 52  1  0
 25 53  1  0
 25 54  1  0
 26 55  1  0
 26 56  1  0
 26 57  1  0
 29 58  1  0
 29 59  1  0
 31 60  1  0
 32 61  1  0
 32 62  1  0
 33 63  1  0
 33 64  1  0
 33 65  1  0
M  CHG  3   4   1  13  -1  26   1
M  END
>  <mol_id>  (89) 
2026-09-16-6tgu-s0-n100-0089

>  <rmsd_to_ref>  (89) 


$$$$

     RDKit          3D

 41 45  0  0  0  0  0  0  0  0999 V2000
    3.2600   18.2180   37.9750 S   0  0  0  0  0  0  0  0  0  0  0  0
    4.6450   23.1280   33.5540 C   0  0  0  0  0  0  0  0  0  0  0  0
    1.3060   18.2210   41.4230 C   0  0  0  0  0  0  0  0  0  0  0  0
    2.3930   16.4100   40.3620 N   0  0  0  0  0  0  0  0  0  0  0  0
    0.9900   19.6160   41.4340 C   0  0  0  0  0  0  0  0  0  0  0  0
    3.3390   22.7440   33.7110 C   0  0  0  0  0  0  0  0  0  0  0  0
    5.5730   23.7190   33.9120 C   0  0  0  0  0  0  0  0  0  0  0  0
    1.4170   20.4310   40.4670 C   0  0  0  0  0  0  0  0  0  0  0  0
    2.0510   17.7470   40.3580 C   0  0  0  0  0  0  0  0  0  0  0  0
    4.0770   24.0720   30.1360 C   0  0  0  0  0  0  0  0  0  0  0  0
    2.4560   18.5240   39.3200 C   0  0  0  0  0  0  0  0  0  0  0  0
    4.0470   21.1090   35.5600 C   0  0  0  0  0  0  0  0  0  0  0  0
    3.2560   19.7140   37.4000 C   0  0  0  0  0  0  0  0  0  0  0  0
    3.4840   25.3940   29.7490 C   0  0  0  0  0  0  0  0  0  0  0  0
    2.1770   19.9050   39.4240 C   0  0  0  0  0  0  0  0  0  0  0  0
    4.7450   24.3080   32.8640 C   0  0  0  0  0  0  0  0  0  0  0  0
    4.7140   25.3370   30.5050 C   0  0  0  0  0  0  0  0  0  0  0  0
    2.6750   20.6490   38.4220 C   0  0  0  0  0  0  0  0  0  0  0  0
    3.9180   19.9690   36.2030 N   0  0  0  0  0  0  0  0  0  0  0  0
    3.1730   21.4380   34.4570 C   0  0  0  0  0  0  0  0  0  0  0  0
    4.8860   24.1690   31.3690 C   0  0  0  0  0  0  0  0  0  0  0  0
    4.7232   22.0337   33.6336 H   0  0  0  0  0  0  0  0  0  0  0  0
    0.9701   17.5520   42.2290 H   0  0  0  0  0  0  0  0  0  0  0  0
    2.9471   16.0178   39.5873 H   0  0  0  0  0  0  0  0  0  0  0  0
    2.0942   15.8043   41.1396 H   0  0  0  0  0  0  0  0  0  0  0  0
    0.3833   20.0251   42.2553 H   0  0  0  0  0  0  0  0  0  0  0  0
    2.8103   23.5315   34.2681 H   0  0  0  0  0  0  0  0  0  0  0  0
    2.9257   22.5924   32.7029 H   0  0  0  0  0  0  0  0  0  0  0  0
    5.5795   24.1663   34.9169 H   0  0  0  0  0  0  0  0  0  0  0  0
    6.6439   23.4839   34.0014 H   0  0  0  0  0  0  0  0  0  0  0  0
    1.1724   21.5031   40.4930 H   0  0  0  0  0  0  0  0  0  0  0  0
    3.7659   23.1125   29.6972 H   0  0  0  0  0  0  0  0  0  0  0  0
    4.8289   21.8200   35.8651 H   0  0  0  0  0  0  0  0  0  0  0  0
    3.4976   25.7177   28.6978 H   0  0  0  0  0  0  0  0  0  0  0  0
    2.5067   25.8804   29.8843 H   0  0  0  0  0  0  0  0  0  0  0  0
    4.3129   25.3053   32.6949 H   0  0  0  0  0  0  0  0  0  0  0  0
    5.3541   26.2258   30.6062 H   0  0  0  0  0  0  0  0  0  0  0  0
    2.6599   21.7472   38.3610 H   0  0  0  0  0  0  0  0  0  0  0  0
    4.3679   19.1548   35.7607 H   0  0  0  0  0  0  0  0  0  0  0  0
    2.3820   20.7345   34.1579 H   0  0  0  0  0  0  0  0  0  0  0  0
    5.5804   23.4138   31.7659 H   0  0  0  0  0  0  0  0  0  0  0  0
  1 11  1  0
  2  6  1  0
  2  7  1  0
  3  5  1  0
  6 20  1  0
  8  5  2  0
  9  4  1  0
  9  3  2  0
 10 14  1  0
 10 17  1  0
 10 21  1  0
 11 15  2  0
 11  9  1  0
 12 19  1  0
 13  1  1  0
 13 18  2  0
 15  8  1  0
 16  2  1  0
 16  7  1  0
 17 14  1  0
 17 21  1  0
 18 15  1  0
 19 13  1  0
 20 12  2  3
 21 16  1  0
  2 22  1  0
  3 23  1  0
  4 24  1  0
  4 25  1  0
  5 26  1  0
  6 27  1  0
  6 28  1  0
  7 29  1  0
  7 30  1  0
  8 31  1  0
 10 32  1  0
 12 33  1  0
 14 34  1  0
 14 35  1  0
 16 36  1  0
 17 37  1  0
 18 38  1  0
 19 39  1  0
 20 40  1  0
 21 41  1  0
M  END
>  <mol_id>  (90) 
2026-09-16-6tgu-s0-n100-0090

>  <rmsd_to_ref>  (90) 


$$$$

     RDKit          3D

 51 52  0  0  0  0  0  0  0  0999 V2000
    1.8380   18.7630   40.9160 C   0  0  0  0  0  0  0  0  0  0  0  0
    3.3520   22.6360   33.4800 C   0  0  0  0  0  0  0  0  0  0  0  0
    0.5400   20.2340   42.1740 C   0  0  0  0  0  0  0  0  0  0  0  0
    2.8610   20.2630   37.6780 N   0  0  0  0  0  0  0  0  0  0  0  0
    4.9120   16.2830   37.5810 C   0  0  0  0  0  0  0  0  0  0  0  0
    0.9460   21.2600   41.2630 C   0  0  0  0  0  0  0  0  0  0  0  0
    2.0540   19.6250   39.9090 C   0  0  0  0  0  0  0  0  0  0  0  0
    3.1500   24.6360   30.1810 C   0  0  0  0  0  0  0  0  0  0  0  0
    1.7270   20.9690   40.1730 C   0  0  0  0  0  0  0  0  0  0  0  0
    0.9870   19.0010   41.9650 C   0  0  0  0  0  0  0  0  0  0  0  0
    3.5360   15.7990   37.8790 C   0  0  0  0  0  0  0  0  0  0  0  0
    3.5550   19.7010   36.7580 N   0  0  0  0  0  0  0  0  0  0  0  0
    2.1990   24.4870   29.7110 C   0  0  0  0  0  0  0  0  0  0  0  0
    2.4590   17.6380   41.0050 O   0  0  0  0  0  0  0  0  0  0  0  0
    3.7160   18.4300   36.8610 N   0  0  0  0  0  0  0  0  0  0  0  0
    3.5700   23.4080   31.1720 C   0  0  0  0  0  0  0  0  0  0  0  0
    3.4030   22.9780   31.9490 C   0  0  0  0  0  0  0  0  0  0  0  0
    2.5910   19.2940   38.5880 C   0  0  0  0  0  0  0  0  0  0  0  0
    3.6500   23.7350   31.4150 C   0  0  0  0  0  0  0  0  0  0  0  0
    3.0220   18.0700   37.9280 C   0  0  0  0  0  0  0  0  0  0  0  0
    2.8330   16.9210   38.5310 N   0  0  0  0  0  0  0  0  0  0  0  0
    3.6950   23.8250   29.7010 C   0  0  0  0  0  0  0  0  0  0  0  0
    4.6570   15.4070   36.7960 C   0  0  0  0  0  0  0  0  0  0  0  0
    3.3520   22.6360   34.5800 H   0  0  0  0  0  0  0  0  0  0  0  0
    3.3520   23.6731   33.1133 H   0  0  0  0  0  0  0  0  0  0  0  0
    4.2501   22.1175   33.1133 H   0  0  0  0  0  0  0  0  0  0  0  0
    2.4539   22.1175   33.1133 H   0  0  0  0  0  0  0  0  0  0  0  0
   -0.1228   20.4598   43.0224 H   0  0  0  0  0  0  0  0  0  0  0  0
    1.9861   20.6399   37.2864 H   0  0  0  0  0  0  0  0  0  0  0  0
    5.0221   17.3053   37.1901 H   0  0  0  0  0  0  0  0  0  0  0  0
    5.7758   16.3860   38.2542 H   0  0  0  0  0  0  0  0  0  0  0  0
    0.6271   22.2979   41.4392 H   0  0  0  0  0  0  0  0  0  0  0  0
    3.2077   25.7312   30.2660 H   0  0  0  0  0  0  0  0  0  0  0  0
    2.0917   21.7724   39.5161 H   0  0  0  0  0  0  0  0  0  0  0  0
    0.6777   18.1786   42.6268 H   0  0  0  0  0  0  0  0  0  0  0  0
    2.6879   15.1759   38.1991 H   0  0  0  0  0  0  0  0  0  0  0  0
    3.9613   20.2386   35.9790 H   0  0  0  0  0  0  0  0  0  0  0  0
    1.4239   24.3656   30.4821 H   0  0  0  0  0  0  0  0  0  0  0  0
    1.9592   25.3585   29.0842 H   0  0  0  0  0  0  0  0  0  0  0  0
    2.2373   23.5839   29.0842 H   0  0  0  0  0  0  0  0  0  0  0  0
    3.0982   17.3682   40.2988 H   0  0  0  0  0  0  0  0  0  0  0  0
    3.1006   21.9204   31.9384 H   0  0  0  0  0  0  0  0  0  0  0  0
    3.5021   23.5121   32.9055 H   0  0  0  0  0  0  0  0  0  0  0  0
    3.6142   19.3794   38.9826 H   0  0  0  0  0  0  0  0  0  0  0  0
    4.7084   23.8644   31.6852 H   0  0  0  0  0  0  0  0  0  0  0  0
    3.2309   23.8351   32.4271 H   0  0  0  0  0  0  0  0  0  0  0  0
    2.2523   16.8124   39.3748 H   0  0  0  0  0  0  0  0  0  0  0  0
    3.1516   23.2226   28.9581 H   0  0  0  0  0  0  0  0  0  0  0  0
    4.6060   23.8881   29.0877 H   0  0  0  0  0  0  0  0  0  0  0  0
    4.4999   15.6549   35.7359 H   0  0  0  0  0  0  0  0  0  0  0  0
    5.1509   14.4662   36.5113 H   0  0  0  0  0  0  0  0  0  0  0  0
  1 14  1  0
  1 10  2  0
  4 18  1  0
  5 11  1  0
  6  3  2  0
  7  9  2  0
  7  1  1  0
  8 19  1  0
  9  6  1  0
 10  3  1  0
 11 21  1  0
 12 15  1  0
 12  4  1  0
 13  8  1  0
 15 20  2  0
 16 19  1  0
 16 17  2  3
 18  7  1  0
 20 21  1  0
 20 18  1  0
 22  8  1  0
 22 16  1  0
 23  5  1  0
 23 11  1  0
  2 24  1  0
  2 25  1  0
  2 26  1  0
  2 27  1  0
  3 28  1  0
  4 29  1  0
  5 30  1  0
  5 31  1  0
  6 32  1  0
  8 33  1  0
  9 34  1  0
 10 35  1  0
 11 36  1  0
 12 37  1  0
 13 38  1  0
 13 39  1  0
 13 40  1  0
 14 41  1  0
 17 42  1  0
 17 43  1  0
 18 44  1  0
 19 45  1  0
 19 46  1  0
 21 47  1  0
 22 48  1  0
 22 49  1  0
 23 50  1  0
 23 51  1  0
M  END
>  <mol_id>  (91) 
2026-09-16-6tgu-s0-n100-0091

>  <rmsd_to_ref>  (91) 


$$$$

     RDKit          3D

 65 67  0  0  0  0  0  0  0  0999 V2000
    4.2230   22.7640   30.9950 C   0  0  0  0  0  0  0  0  0  0  0  0
    1.9800   25.4300   29.7920 C   0  0  0  0  0  0  0  0  0  0  0  0
   -0.2100   19.1970   42.7780 C   0  0  0  0  0  0  0  0  0  0  0  0
    3.1800   23.2590   32.9440 C   0  0  0  0  0  0  0  0  0  0  0  0
    3.4220   21.4350   35.8260 C   0  0  0  0  0  0  0  0  0  0  0  0
    3.1730   20.5410   36.9220 C   0  0  0  0  0  0  0  0  0  0  0  0
    3.5210   19.0170   39.4430 C   0  0  0  0  0  0  0  0  0  0  0  0
    1.0260   15.9230   42.8870 C   0  0  0  0  0  0  0  0  0  0  0  0
    3.3210   23.5780   30.0390 C   0  0  0  0  0  0  0  0  0  0  0  0
    4.5480   23.1670   32.2760 C   0  0  0  0  0  0  0  0  0  0  0  0
    2.9080   21.8930   33.4440 C   0  0  0  0  0  0  0  0  0  0  0  0
    0.4000   17.9430   42.4470 C   0  0  0  0  0  0  0  0  0  0  0  0
    2.3820   21.7330   34.7770 C   0  0  0  0  0  0  0  0  0  0  0  0
    5.3410   21.8010   30.3930 C   0  0  0  0  0  0  0  0  0  0  0  0
    4.5490   22.1630   35.6400 O   0  0  0  0  0  0  0  0  0  0  0  0
    2.4530   19.6990   39.2970 C   0  0  0  0  0  0  0  0  0  0  0  0
    1.4180   18.0050   41.4430 C   0  0  0  0  0  0  0  0  0  0  0  0
    2.4310   20.7180   38.1070 C   0  0  0  0  0  0  0  0  0  0  0  0
    1.6050   19.2220   40.7130 C   0  0  0  0  0  0  0  0  0  0  0  0
    4.0030   21.1140   32.9790 C   0  0  0  0  0  0  0  0  0  0  0  0
    3.8790   19.2050   37.0720 C   0  0  0  0  0  0  0  0  0  0  0  0
    4.1230   18.6390   38.2760 C   0  0  0  0  0  0  0  0  0  0  0  0
    0.7360   20.4150   41.0530 C   0  0  0  0  0  0  0  0  0  0  0  0
    0.0090   20.3070   42.1090 C   0  0  0  0  0  0  0  0  0  0  0  0
    2.1190   24.0220   32.1480 C   0  0  0  0  0  0  0  0  0  0  0  0
    0.0020   16.8210   42.9900 O   0  0  0  0  0  0  0  0  0  0  0  0
    2.6660   24.6530   30.7450 C   0  0  0  0  0  0  0  0  0  0  0  0
    3.2949   22.2021   31.1762 H   0  0  0  0  0  0  0  0  0  0  0  0
    1.3368   26.1585   30.3073 H   0  0  0  0  0  0  0  0  0  0  0  0
    2.7069   25.9637   29.1621 H   0  0  0  0  0  0  0  0  0  0  0  0
    1.3604   24.7748   29.1621 H   0  0  0  0  0  0  0  0  0  0  0  0
   -0.8970   19.2323   43.6364 H   0  0  0  0  0  0  0  0  0  0  0  0
    3.1524   23.9361   33.8105 H   0  0  0  0  0  0  0  0  0  0  0  0
    3.8618   20.6071   35.2506 H   0  0  0  0  0  0  0  0  0  0  0  0
    4.2377   19.6222   40.0175 H   0  0  0  0  0  0  0  0  0  0  0  0
    3.2283   18.0887   39.9555 H   0  0  0  0  0  0  0  0  0  0  0  0
    1.3597   15.6304   43.8935 H   0  0  0  0  0  0  0  0  0  0  0  0
    0.6793   15.0324   42.3423 H   0  0  0  0  0  0  0  0  0  0  0  0
    1.8637   16.3830   42.3423 H   0  0  0  0  0  0  0  0  0  0  0  0
    2.5588   22.9123   29.6079 H   0  0  0  0  0  0  0  0  0  0  0  0
    3.9472   24.0081   29.2435 H   0  0  0  0  0  0  0  0  0  0  0  0
    5.1870   22.4250   32.7771 H   0  0  0  0  0  0  0  0  0  0  0  0
    5.1195   24.1062   32.3109 H   0  0  0  0  0  0  0  0  0  0  0  0
    1.9768   21.4752   33.0337 H   0  0  0  0  0  0  0  0  0  0  0  0
    1.8674   22.6638   35.0576 H   0  0  0  0  0  0  0  0  0  0  0  0
    1.7094   20.8631   34.7463 H   0  0  0  0  0  0  0  0  0  0  0  0
    5.8951   21.3238   31.2147 H   0  0  0  0  0  0  0  0  0  0  0  0
    4.8637   21.0268   29.7744 H   0  0  0  0  0  0  0  0  0  0  0  0
    6.0360   22.3878   29.7744 H   0  0  0  0  0  0  0  0  0  0  0  0
    4.9312   22.4099   36.5192 H   0  0  0  0  0  0  0  0  0  0  0  0
    1.5656   20.1349   38.8148 H   0  0  0  0  0  0  0  0  0  0  0  0
    2.0489   17.1283   41.2349 H   0  0  0  0  0  0  0  0  0  0  0  0
    1.8046   21.6173   38.2013 H   0  0  0  0  0  0  0  0  0  0  0  0
    4.5617   20.7165   33.8392 H   0  0  0  0  0  0  0  0  0  0  0  0
    3.6265   20.2796   32.3691 H   0  0  0  0  0  0  0  0  0  0  0  0
    4.6678   21.7433   32.3691 H   0  0  0  0  0  0  0  0  0  0  0  0
    3.2758   18.4769   36.5098 H   0  0  0  0  0  0  0  0  0  0  0  0
    4.8954   19.4497   36.7300 H   0  0  0  0  0  0  0  0  0  0  0  0
    3.8887   17.5712   38.1542 H   0  0  0  0  0  0  0  0  0  0  0  0
    5.1531   18.9795   38.4573 H   0  0  0  0  0  0  0  0  0  0  0  0
    0.7269   21.3228   40.4319 H   0  0  0  0  0  0  0  0  0  0  0  0
   -0.4708   21.2229   42.4845 H   0  0  0  0  0  0  0  0  0  0  0  0
    1.2954   23.3301   31.9180 H   0  0  0  0  0  0  0  0  0  0  0  0
    1.7997   24.8683   32.7739 H   0  0  0  0  0  0  0  0  0  0  0  0
    3.2049   25.5006   31.1936 H   0  0  0  0  0  0  0  0  0  0  0  0
  1 14  1  0
  1 10  1  0
  4 11  1  0
  5 15  1  0
  5  6  1  0
  6 21  1  0
  6 18  2  0
  8 26  1  0
  9 27  1  0
  9  1  1  0
 10  4  1  0
 11 20  1  0
 11 13  1  0
 12  3  2  0
 12 26  1  0
 13  5  1  0
 16  7  1  0
 16 19  1  0
 17 12  1  0
 18 16  1  0
 19 23  1  0
 19 17  2  0
 21 22  1  0
 22  7  1  0
 23 24  2  0
 24  3  1  0
 25  4  1  0
 27  2  1  0
 27 25  1  0
  1 28  1  0
  2 29  1  0
  2 30  1  0
  2 31  1  0
  3 32  1  0
  4 33  1  0
  5 34  1  0
  7 35  1  0
  7 36  1  0
  8 37  1  0
  8 38  1  0
  8 39  1  0
  9 40  1  0
  9 41  1  0
 10 42  1  0
 10 43  1  0
 11 44  1  0
 13 45  1  0
 13 46  1  0
 14 47  1  0
 14 48  1  0
 14 49  1  0
 15 50  1  0
 16 51  1  0
 17 52  1  0
 18 53  1  0
 20 54  1  0
 20 55  1  0
 20 56  1  0
 21 57  1  0
 21 58  1  0
 22 59  1  0
 22 60  1  0
 23 61  1  0
 24 62  1  0
 25 63  1  0
 25 64  1  0
 27 65  1  0
M  END
>  <mol_id>  (92) 
2026-09-16-6tgu-s0-n100-0092

>  <rmsd_to_ref>  (92) 


$$$$

     RDKit          3D

 68 72  0  0  0  0  0  0  0  0999 V2000
    1.8170   21.2840   39.6430 C   0  0  0  0  0  0  0  0  0  0  0  0
    3.0200   12.4860   36.8520 N   0  0  0  0  0  0  0  0  0  0  0  0
    3.2810   16.5450   39.4190 O   0  0  0  0  0  0  0  0  0  0  0  0
    2.6690   14.7860   37.0920 C   0  0  0  0  0  0  0  0  0  0  0  0
    2.2430   24.3330   32.4610 C   0  0  0  0  0  0  0  0  0  0  0  0
    1.1920   16.1230   41.8150 C   0  0  0  0  0  0  0  0  0  0  0  0
    2.9670   19.1700   38.0210 C   0  0  0  0  0  0  0  0  0  0  0  0
    2.0270   13.6950   34.9020 N   0  0  0  0  0  0  0  0  0  0  0  0
    2.5520   13.6390   36.2410 C   0  0  0  0  0  0  0  0  0  0  0  0
    1.8190   17.3770   41.3180 C   0  0  0  0  0  0  0  0  0  0  0  0
    3.0580   15.1530   39.6710 C   0  0  0  0  0  0  0  0  0  0  0  0
    3.3940   21.8240   35.2490 C   0  0  0  0  0  0  0  0  0  0  0  0
    1.6370   26.6130   32.2500 C   0  0  0  0  0  0  0  0  0  0  0  0
    0.8410   18.4620   41.6630 C   0  0  0  0  0  0  0  0  0  0  0  0
    1.8970   25.4580   34.7990 C   0  0  0  0  0  0  0  0  0  0  0  0
    0.2730   26.2750   32.7780 C   0  0  0  0  0  0  0  0  0  0  0  0
    2.5230   17.6630   39.8920 C   0  0  0  0  0  0  0  0  0  0  0  0
    3.4470   12.7750   38.3090 S   0  0  0  0  0  0  0  0  0  0  0  0
    2.9160   22.5640   33.9970 C   0  0  0  0  0  0  0  0  0  0  0  0
    2.2280   21.4960   38.2540 C   0  0  0  0  0  0  0  0  0  0  0  0
    1.9500   19.9680   40.1770 C   0  0  0  0  0  0  0  0  0  0  0  0
    2.9080   20.4700   37.5090 C   0  0  0  0  0  0  0  0  0  0  0  0
    3.0420   25.6780   29.0310 C   0  0  0  0  0  0  0  0  0  0  0  0
    3.4000   20.8810   36.1030 C   0  0  0  0  0  0  0  0  0  0  0  0
    2.5380   18.8670   39.3620 C   0  0  0  0  0  0  0  0  0  0  0  0
    1.6360   19.6950   41.4330 O   0  0  0  0  0  0  0  0  0  0  0  0
    0.8830   25.1050   32.3260 C   0  0  0  0  0  0  0  0  0  0  0  0
    4.6080   20.2670   36.2670 O   0  0  0  0  0  0  0  0  0  0  0  0
    1.8640   26.4570   29.6020 O   0  0  0  0  0  0  0  0  0  0  0  0
    3.5970   25.0570   30.3640 C   0  0  0  0  0  0  0  0  0  0  0  0
    2.1910   27.1380   31.1100 C   0  0  0  0  0  0  0  0  0  0  0  0
    2.1280   24.1510   33.9230 C   0  0  0  0  0  0  0  0  0  0  0  0
    3.0860   24.0000   31.3960 C   0  0  0  0  0  0  0  0  0  0  0  0
    3.0520   14.3510   38.4250 C   0  0  0  0  0  0  0  0  0  0  0  0
    1.4202   22.1093   40.2525 H   0  0  0  0  0  0  0  0  0  0  0  0
    2.4966   15.8283   36.7857 H   0  0  0  0  0  0  0  0  0  0  0  0
    1.7178   23.3798   32.3010 H   0  0  0  0  0  0  0  0  0  0  0  0
    1.1924   16.1238   42.9150 H   0  0  0  0  0  0  0  0  0  0  0  0
    0.1566   16.0606   41.4488 H   0  0  0  0  0  0  0  0  0  0  0  0
    1.7633   15.2573   41.4488 H   0  0  0  0  0  0  0  0  0  0  0  0
    3.3504   18.3592   37.3841 H   0  0  0  0  0  0  0  0  0  0  0  0
    1.6971   14.5908   34.5152 H   0  0  0  0  0  0  0  0  0  0  0  0
    1.9812   12.8393   34.3306 H   0  0  0  0  0  0  0  0  0  0  0  0
    2.7999   17.2895   41.8082 H   0  0  0  0  0  0  0  0  0  0  0  0
    3.8572   14.7798   40.3283 H   0  0  0  0  0  0  0  0  0  0  0  0
    2.0697   15.0500   40.1429 H   0  0  0  0  0  0  0  0  0  0  0  0
    2.4554   27.2460   32.6234 H   0  0  0  0  0  0  0  0  0  0  0  0
   -0.0395   18.4279   41.0045 H   0  0  0  0  0  0  0  0  0  0  0  0
    0.4396   18.3827   42.6841 H   0  0  0  0  0  0  0  0  0  0  0  0
    1.9432   25.1968   35.8665 H   0  0  0  0  0  0  0  0  0  0  0  0
    2.6785   26.1969   34.5682 H   0  0  0  0  0  0  0  0  0  0  0  0
    0.9096   25.8843   34.5682 H   0  0  0  0  0  0  0  0  0  0  0  0
    0.0966   26.3812   33.8586 H   0  0  0  0  0  0  0  0  0  0  0  0
   -0.7081   26.7029   32.5244 H   0  0  0  0  0  0  0  0  0  0  0  0
    1.9053   17.9151   39.0174 H   0  0  0  0  0  0  0  0  0  0  0  0
    3.0796   22.0544   33.0360 H   0  0  0  0  0  0  0  0  0  0  0  0
    2.0124   22.4599   37.7698 H   0  0  0  0  0  0  0  0  0  0  0  0
    2.7185   24.9043   28.3192 H   0  0  0  0  0  0  0  0  0  0  0  0
    3.7634   26.2709   28.4495 H   0  0  0  0  0  0  0  0  0  0  0  0
    0.2661   24.2313   32.0689 H   0  0  0  0  0  0  0  0  0  0  0  0
    4.7012   19.5223   36.9126 H   0  0  0  0  0  0  0  0  0  0  0  0
    4.5653   24.6396   30.0507 H   0  0  0  0  0  0  0  0  0  0  0  0
    3.3336   25.9256   30.9855 H   0  0  0  0  0  0  0  0  0  0  0  0
    1.8669   28.1879   31.0577 H   0  0  0  0  0  0  0  0  0  0  0  0
    3.2641   26.9360   31.2431 H   0  0  0  0  0  0  0  0  0  0  0  0
    1.3736   24.0506   34.7172 H   0  0  0  0  0  0  0  0  0  0  0  0
    2.5518   23.2365   30.8114 H   0  0  0  0  0  0  0  0  0  0  0  0
    4.0148   23.7314   31.9206 H   0  0  0  0  0  0  0  0  0  0  0  0
  1 21  2  0
  2 18  1  0
  3 11  1  0
  4 34  2  0
  5 32  1  0
  7 25  2  0
  8  9  1  0
  9  2  2  0
  9  4  1  0
 10 14  1  0
 10  6  1  0
 12 24  2  0
 13 31  1  0
 13 27  1  0
 13 16  1  0
 17  3  1  0
 17 10  1  0
 18 34  1  0
 19 12  2  0
 20  1  1  0
 21 26  1  0
 22  7  1  0
 22 20  2  0
 23 29  1  0
 23 30  1  0
 24 28  1  0
 24 22  1  0
 25 17  1  0
 25 21  1  0
 26 14  1  0
 27  5  1  0
 27 16  1  0
 29 31  1  0
 30 33  1  0
 32 19  1  0
 32 15  1  0
 33  5  1  0
 34 11  1  0
  1 35  1  0
  4 36  1  0
  5 37  1  0
  6 38  1  0
  6 39  1  0
  6 40  1  0
  7 41  1  0
  8 42  1  0
  8 43  1  0
 10 44  1  0
 11 45  1  0
 11 46  1  0
 13 47  1  0
 14 48  1  0
 14 49  1  0
 15 50  1  0
 15 51  1  0
 15 52  1  0
 16 53  1  0
 16 54  1  0
 17 55  1  0
 19 56  1  0
 20 57  1  0
 23 58  1  0
 23 59  1  0
 27 60  1  0
 28 61  1  0
 30 62  1  0
 30 63  1  0
 31 64  1  0
 31 65  1  0
 32 66  1  0
 33 67  1  0
 33 68  1  0
M  END
>  <mol_id>  (93) 
2026-09-16-6tgu-s0-n100-0093

>  <rmsd_to_ref>  (93) 


$$$$

     RDKit          3D

 59 59  0  0  0  0  0  0  0  0999 V2000
    3.4120   23.4520   32.7950 C   0  0  0  0  0  0  0  0  0  0  0  0
    3.3180   15.7800   38.9500 C   0  0  0  0  0  0  0  0  0  0  0  0
    2.3160   25.9630   30.4970 C   0  0  0  0  0  0  0  0  0  0  0  0
    1.2740   20.9170   40.7660 C   0  0  0  0  0  0  0  0  0  0  0  0
    2.7990   24.0180   31.6240 N   0  0  0  0  0  4  0  0  0  0  0  0
    2.2900   23.0360   33.7730 C   0  0  0  0  0  0  0  0  0  0  0  0
    2.4180   16.3230   39.9620 C   0  0  0  0  0  0  0  0  0  0  0  0
    2.4430   17.6610   39.3450 C   0  0  0  0  0  0  0  0  0  0  0  0
    1.7270   15.9640   41.1120 C   0  0  0  0  0  0  0  0  0  0  0  0
    2.2360   20.4400   38.7320 C   0  0  0  0  0  0  0  0  0  0  0  0
    1.7370   20.0160   39.9790 N   0  0  0  0  0  0  0  0  0  0  0  0
    3.0860   24.7520   30.6010 C   0  0  0  0  0  0  0  0  0  0  0  0
    3.7530   20.7690   36.8590 C   0  0  0  0  0  0  0  0  0  0  0  0
    4.4270   22.3350   32.7360 C   0  0  0  0  0  0  0  0  0  0  0  0
    0.9350   18.2100   41.3980 C   0  0  0  0  0  0  0  0  0  0  0  0
    0.9920   28.4550   33.3480 C   0  0  0  0  0  0  0  0  0  0  0  0
    1.5200   27.8360   32.2790 N   0  0  0  0  0  0  0  0  0  0  0  0
    3.1290   22.3840   34.8780 C   0  0  0  0  0  0  0  0  0  0  0  0
    2.7560   21.8970   35.8540 C   0  0  0  0  0  0  0  0  0  0  0  0
    3.1410   20.2890   37.9930 C   0  0  0  0  0  0  0  0  0  0  0  0
    1.6050   26.6340   31.6430 C   0  0  0  0  0  0  0  0  0  0  0  0
    4.2600   24.3230   29.7370 C   0  0  0  0  0  0  0  0  0  0  0  0
    0.8900   16.8240   41.8250 C   0  0  0  0  0  0  0  0  0  0  0  0
    1.7480   18.6020   40.3870 C   0  0  0  0  0  0  0  0  0  0  0  0
    0.7650   26.0310   32.2730 O   0  0  0  0  0  0  0  0  0  0  0  0
    4.0635   24.2862   33.0943 H   0  0  0  0  0  0  0  0  0  0  0  0
    4.1601   15.2720   39.4428 H   0  0  0  0  0  0  0  0  0  0  0  0
    2.7722   15.0603   38.3221 H   0  0  0  0  0  0  0  0  0  0  0  0
    3.7002   16.5984   38.3221 H   0  0  0  0  0  0  0  0  0  0  0  0
    3.0093   26.7185   30.0989 H   0  0  0  0  0  0  0  0  0  0  0  0
    1.4563   25.6027   29.9129 H   0  0  0  0  0  0  0  0  0  0  0  0
    1.4325   20.6086   41.8099 H   0  0  0  0  0  0  0  0  0  0  0  0
    1.7951   21.8680   40.5815 H   0  0  0  0  0  0  0  0  0  0  0  0
    0.1974   21.0470   40.5815 H   0  0  0  0  0  0  0  0  0  0  0  0
    2.4258   23.1742   31.1661 H   0  0  0  0  0  0  0  0  0  0  0  0
    2.4403   24.8256   32.1532 H   0  0  0  0  0  0  0  0  0  0  0  0
    1.7296   23.9062   34.1455 H   0  0  0  0  0  0  0  0  0  0  0  0
    1.5127   22.3899   33.3389 H   0  0  0  0  0  0  0  0  0  0  0  0
    2.8593   17.9387   38.3654 H   0  0  0  0  0  0  0  0  0  0  0  0
    1.8470   14.9361   41.4849 H   0  0  0  0  0  0  0  0  0  0  0  0
    1.5353   21.1667   38.2951 H   0  0  0  0  0  0  0  0  0  0  0  0
    2.3933   24.2520   29.9080 H   0  0  0  0  0  0  0  0  0  0  0  0
    4.6640   21.3037   37.1659 H   0  0  0  0  0  0  0  0  0  0  0  0
    3.9467   19.8909   36.2255 H   0  0  0  0  0  0  0  0  0  0  0  0
    4.7006   22.0339   33.7580 H   0  0  0  0  0  0  0  0  0  0  0  0
    3.9951   21.4748   32.2035 H   0  0  0  0  0  0  0  0  0  0  0  0
    5.3245   22.6828   32.2035 H   0  0  0  0  0  0  0  0  0  0  0  0
    0.3000   18.9534   41.9022 H   0  0  0  0  0  0  0  0  0  0  0  0
    1.3835   27.9961   34.2679 H   0  0  0  0  0  0  0  0  0  0  0  0
    1.2634   29.5208   33.3257 H   0  0  0  0  0  0  0  0  0  0  0  0
   -0.1032   28.3550   33.3257 H   0  0  0  0  0  0  0  0  0  0  0  0
    2.0618   28.5265   31.7400 H   0  0  0  0  0  0  0  0  0  0  0  0
    4.2177   22.3804   34.7207 H   0  0  0  0  0  0  0  0  0  0  0  0
    1.7363   22.1311   36.1939 H   0  0  0  0  0  0  0  0  0  0  0  0
    3.7244   19.4273   38.3494 H   0  0  0  0  0  0  0  0  0  0  0  0
    5.0972   24.0171   30.3816 H   0  0  0  0  0  0  0  0  0  0  0  0
    3.9581   23.4771   29.1019 H   0  0  0  0  0  0  0  0  0  0  0  0
    4.5746   25.1643   29.1019 H   0  0  0  0  0  0  0  0  0  0  0  0
    0.2462   16.4778   42.6469 H   0  0  0  0  0  0  0  0  0  0  0  0
  1 14  1  0
  1  6  1  0
  2  7  1  0
  3 12  1  0
  3 21  1  0
  5  1  1  0
  6 18  1  0
  7  9  2  0
  8  7  1  0
  8 24  2  0
  9 23  1  0
 10 11  1  0
 11 24  1  0
 11  4  1  0
 12 22  1  0
 12  5  1  0
 13 20  1  0
 15 23  2  0
 17 16  1  0
 18 19  2  3
 19 13  1  0
 20 10  2  3
 21 25  2  0
 21 17  1  0
 24 15  1  0
  1 26  1  0
  2 27  1  0
  2 28  1  0
  2 29  1  0
  3 30  1  0
  3 31  1  0
  4 32  1  0
  4 33  1  0
  4 34  1  0
  5 35  1  0
  5 36  1  0
  6 37  1  0
  6 38  1  0
  8 39  1  0
  9 40  1  0
 10 41  1  0
 12 42  1  0
 13 43  1  0
 13 44  1  0
 14 45  1  0
 14 46  1  0
 14 47  1  0
 15 48  1  0
 16 49  1  0
 16 50  1  0
 16 51  1  0
 17 52  1  0
 18 53  1  0
 19 54  1  0
 20 55  1  0
 22 56  1  0
 22 57  1  0
 22 58  1  0
 23 59  1  0
M  CHG  1   5   1
M  END
>  <mol_id>  (94) 
2026-09-16-6tgu-s0-n100-0094

>  <rmsd_to_ref>  (94) 


$$$$

     RDKit          3D

 56 56  0  0  0  0  0  0  0  0999 V2000
    3.8440   17.2040   37.1940 C   0  0  0  0  0  0  0  0  0  0  0  0
    3.3510   14.0510   39.8800 C   0  0  0  0  0  0  0  0  0  0  0  0
    2.6920   21.0430   36.8320 C   0  0  0  0  0  0  0  0  0  0  0  0
    2.4820   21.9530   35.6280 C   0  0  0  0  0  0  0  0  0  0  0  0
    3.0030   16.5740   38.2760 N   0  0  0  0  0  0  0  0  0  0  0  0
    3.8570   23.9480   30.8410 C   0  0  0  0  0  0  0  0  0  0  0  0
    4.0770   24.9150   29.5810 C   0  0  0  0  0  0  0  0  0  0  0  0
    3.1990   23.5160   33.4710 C   0  0  0  0  0  0  0  0  0  0  0  0
    2.4210   19.1670   39.1710 C   0  0  0  0  0  0  0  0  0  0  0  0
    2.0030   26.3910   31.0350 C   0  0  0  0  0  0  0  0  0  0  0  0
    2.3960   22.5020   34.3020 C   0  0  0  0  0  0  0  0  0  0  0  0
    4.1380   26.3520   30.2440 C   0  0  0  0  0  0  0  0  0  0  0  0
    2.5170   17.4290   39.4540 C   0  0  0  0  0  0  0  0  0  0  0  0
    3.2740   14.1110   38.2720 C   0  0  0  0  0  0  0  0  0  0  0  0
    1.9920   25.2170   31.9640 C   0  0  0  0  0  0  0  0  0  0  0  0
    2.7140   11.7710   40.1230 O   0  0  0  0  0  0  0  0  0  0  0  0
    2.7970   23.8340   31.9630 C   0  0  0  0  0  0  0  0  0  0  0  0
    2.5370   15.4680   38.1390 C   0  0  0  0  0  0  0  0  0  0  0  0
    2.7580   20.3080   37.9180 C   0  0  0  0  0  0  0  0  0  0  0  0
    2.1630   19.8960   40.4390 O   0  0  0  0  0  0  0  0  0  0  0  0
    3.7630   12.5730   39.5930 C   0  0  0  0  0  0  0  0  0  0  0  0
    2.7070   27.0790   30.2740 C   0  0  0  0  0  0  0  0  0  0  0  0
    3.5220   20.4400   40.9310 C   0  0  0  0  0  0  0  0  0  0  0  0
    4.6439   17.8032   37.6535 H   0  0  0  0  0  0  0  0  0  0  0  0
    4.2892   16.4153   36.5697 H   0  0  0  0  0  0  0  0  0  0  0  0
    3.2123   17.8530   36.5697 H   0  0  0  0  0  0  0  0  0  0  0  0
    4.1229   14.6811   40.3460 H   0  0  0  0  0  0  0  0  0  0  0  0
    2.5350   14.3504   40.5542 H   0  0  0  0  0  0  0  0  0  0  0  0
    1.4412   22.1966   35.8874 H   0  0  0  0  0  0  0  0  0  0  0  0
    3.5742   21.9453   35.4975 H   0  0  0  0  0  0  0  0  0  0  0  0
    4.7946   24.0660   31.4040 H   0  0  0  0  0  0  0  0  0  0  0  0
    3.4569   23.1119   30.2487 H   0  0  0  0  0  0  0  0  0  0  0  0
    3.2377   24.8407   28.8739 H   0  0  0  0  0  0  0  0  0  0  0  0
    4.9751   24.6682   28.9957 H   0  0  0  0  0  0  0  0  0  0  0  0
    4.0613   24.0279   33.9232 H   0  0  0  0  0  0  0  0  0  0  0  0
    1.2035   26.0937   30.3404 H   0  0  0  0  0  0  0  0  0  0  0  0
    2.2297   27.0663   31.8732 H   0  0  0  0  0  0  0  0  0  0  0  0
    1.5416   22.0944   33.7417 H   0  0  0  0  0  0  0  0  0  0  0  0
    4.5023   26.2484   31.2767 H   0  0  0  0  0  0  0  0  0  0  0  0
    4.8137   26.9712   29.6358 H   0  0  0  0  0  0  0  0  0  0  0  0
    2.2436   16.9825   40.4214 H   0  0  0  0  0  0  0  0  0  0  0  0
    4.2712   14.1317   37.8080 H   0  0  0  0  0  0  0  0  0  0  0  0
    2.7941   13.2520   37.7803 H   0  0  0  0  0  0  0  0  0  0  0  0
    2.2431   25.6593   32.9394 H   0  0  0  0  0  0  0  0  0  0  0  0
    1.0343   24.7995   31.6197 H   0  0  0  0  0  0  0  0  0  0  0  0
    2.7469   11.7962   41.1121 H   0  0  0  0  0  0  0  0  0  0  0  0
    2.2572   22.9163   31.6864 H   0  0  0  0  0  0  0  0  0  0  0  0
    2.1202   15.4628   37.1210 H   0  0  0  0  0  0  0  0  0  0  0  0
    1.9289   15.4234   39.0545 H   0  0  0  0  0  0  0  0  0  0  0  0
    3.8637   12.4062   38.5104 H   0  0  0  0  0  0  0  0  0  0  0  0
    4.7330   12.3260   40.0492 H   0  0  0  0  0  0  0  0  0  0  0  0
    2.8041   28.1040   30.6612 H   0  0  0  0  0  0  0  0  0  0  0  0
    2.2669   27.1577   29.2690 H   0  0  0  0  0  0  0  0  0  0  0  0
    3.5379   20.4464   42.0309 H   0  0  0  0  0  0  0  0  0  0  0  0
    4.3318   19.7967   40.5563 H   0  0  0  0  0  0  0  0  0  0  0  0
    3.6643   21.4644   40.5563 H   0  0  0  0  0  0  0  0  0  0  0  0
  1  5  1  0
  3 19  3  0
  4  3  1  0
  5 13  1  0
  6 17  1  0
  7 12  1  0
  7  6  1  0
  8 11  2  3
  9 13  2  3
  9 20  1  0
 10 15  1  0
 11  4  1  0
 12 22  1  0
 14  2  1  0
 17 15  1  0
 17  8  1  0
 18 14  1  0
 18  5  1  0
 19  9  1  0
 20 23  1  0
 21  2  1  0
 21 16  1  0
 22 10  1  0
  1 24  1  0
  1 25  1  0
  1 26  1  0
  2 27  1  0
  2 28  1  0
  4 29  1  0
  4 30  1  0
  6 31  1  0
  6 32  1  0
  7 33  1  0
  7 34  1  0
  8 35  1  0
 10 36  1  0
 10 37  1  0
 11 38  1  0
 12 39  1  0
 12 40  1  0
 13 41  1  0
 14 42  1  0
 14 43  1  0
 15 44  1  0
 15 45  1  0
 16 46  1  0
 17 47  1  0
 18 48  1  0
 18 49  1  0
 21 50  1  0
 21 51  1  0
 22 52  1  0
 22 53  1  0
 23 54  1  0
 23 55  1  0
 23 56  1  0
M  END
>  <mol_id>  (95) 
2026-09-16-6tgu-s0-n100-0095

>  <rmsd_to_ref>  (95) 


$$$$

     RDKit          3D

 46 48  0  0  0  0  0  0  0  0999 V2000
    3.1980   18.4660   38.2660 C   0  0  0  0  0  0  0  0  0  0  0  0
    3.1090   19.6340   37.3660 O   0  0  0  0  0  0  0  0  0  0  0  0
    4.3060   19.0200   39.0050 O   0  0  0  0  0  0  0  0  0  0  0  0
    2.9940   22.9310   34.1520 C   0  0  0  0  0  0  0  0  0  0  0  0
    2.5470   17.3490   39.5520 C   0  0  0  0  0  0  0  0  0  0  0  0
    3.1870   21.8670   35.2210 C   0  0  0  0  0  0  0  0  0  0  0  0
    1.9970   14.9670   39.6280 O   0  0  0  0  0  0  0  0  0  0  0  0
    2.1380   23.9850   34.4040 C   0  0  0  0  0  0  0  0  0  0  0  0
    2.0140   16.0040   40.6170 C   0  0  0  0  0  0  0  0  0  0  0  0
    2.4460   24.8590   32.1780 C   0  0  0  0  0  0  0  0  0  0  0  0
    3.6340   22.9480   33.0090 C   0  0  0  0  0  0  0  0  0  0  0  0
    0.9960   26.8570   31.3370 C   0  0  0  0  0  0  0  0  0  0  0  0
    3.3050   23.8280   31.9660 C   0  0  0  0  0  0  0  0  0  0  0  0
    3.1360   14.2320   36.9060 N   0  0  0  0  0  4  0  0  0  0  0  0
    3.6440   15.7740   38.5960 O   0  0  0  0  0  0  0  0  0  0  0  0
    1.8670   24.9760   33.4720 C   0  0  0  0  0  0  0  0  0  0  0  0
    3.9800   14.2990   37.9420 C   0  0  0  0  0  0  0  0  0  0  0  0
    2.4270   21.5800   36.0920 C   0  0  0  0  0  0  0  0  0  0  0  0
    1.6110   20.8950   39.8870 C   0  0  0  0  0  0  0  0  0  0  0  0
    1.8420   21.2520   38.5210 C   0  0  0  0  0  0  0  0  0  0  0  0
    2.4760   20.8160   37.3670 C   0  0  0  0  0  0  0  0  0  0  0  0
    2.1640   25.9350   31.1340 C   0  0  0  0  0  0  0  0  0  0  0  0
    2.7010   15.9540   38.8530 C   0  0  0  0  0  0  0  0  0  0  0  0
    2.9300   26.0730   30.1230 O   0  0  0  0  0  0  0  0  0  0  0  0
    2.7689   17.7785   37.5222 H   0  0  0  0  0  0  0  0  0  0  0  0
    4.1318   18.9329   39.9756 H   0  0  0  0  0  0  0  0  0  0  0  0
    1.5707   17.3348   39.0454 H   0  0  0  0  0  0  0  0  0  0  0  0
    4.1299   21.3015   35.1862 H   0  0  0  0  0  0  0  0  0  0  0  0
    1.6492   24.0412   35.3878 H   0  0  0  0  0  0  0  0  0  0  0  0
    1.7052   16.0046   41.6728 H   0  0  0  0  0  0  0  0  0  0  0  0
    4.4647   22.2425   32.8602 H   0  0  0  0  0  0  0  0  0  0  0  0
    0.8209   26.9952   32.4141 H   0  0  0  0  0  0  0  0  0  0  0  0
    1.2123   27.8305   30.8728 H   0  0  0  0  0  0  0  0  0  0  0  0
    0.0993   26.4206   30.8728 H   0  0  0  0  0  0  0  0  0  0  0  0
    3.7462   23.6817   30.9691 H   0  0  0  0  0  0  0  0  0  0  0  0
    2.1698   14.1553   37.2547 H   0  0  0  0  0  0  0  0  0  0  0  0
    3.2277   15.0829   36.3329 H   0  0  0  0  0  0  0  0  0  0  0  0
    3.3608   13.4062   36.3329 H   0  0  0  0  0  0  0  0  0  0  0  0
    1.2216   25.8295   33.7268 H   0  0  0  0  0  0  0  0  0  0  0  0
    3.7851   13.4923   38.6640 H   0  0  0  0  0  0  0  0  0  0  0  0
    5.0345   14.1828   37.6514 H   0  0  0  0  0  0  0  0  0  0  0  0
    1.4231   21.9881   35.9034 H   0  0  0  0  0  0  0  0  0  0  0  0
    2.0897   21.6349   40.5453 H   0  0  0  0  0  0  0  0  0  0  0  0
    0.5288   20.8757   40.0830 H   0  0  0  0  0  0  0  0  0  0  0  0
    2.0369   19.8999   40.0830 H   0  0  0  0  0  0  0  0  0  0  0  0
    1.3405   22.2086   38.3127 H   0  0  0  0  0  0  0  0  0  0  0  0
  1  3  1  0
  2 21  1  0
  2  1  1  0
  4  8  2  0
  4  6  1  0
  5  1  1  0
  5  9  1  0
  6 18  2  3
  9  7  1  0
 10 16  2  0
 11  4  1  0
 13 10  1  0
 13 11  2  0
 14 17  1  0
 16  8  1  0
 17 15  1  0
 18 21  1  0
 20 19  1  0
 21 20  2  3
 22 12  1  0
 22 10  1  0
 23 15  1  0
 23  5  1  0
 23  7  1  0
 23  9  1  0
 24 22  2  0
  1 25  1  0
  3 26  1  0
  5 27  1  0
  6 28  1  0
  8 29  1  0
  9 30  1  0
 11 31  1  0
 12 32  1  0
 12 33  1  0
 12 34  1  0
 13 35  1  0
 14 36  1  0
 14 37  1  0
 14 38  1  0
 16 39  1  0
 17 40  1  0
 17 41  1  0
 18 42  1  0
 19 43  1  0
 19 44  1  0
 19 45  1  0
 20 46  1  0
M  CHG  1  14   1
M  END
>  <mol_id>  (96) 
2026-09-16-6tgu-s0-n100-0096

>  <rmsd_to_ref>  (96) 


$$$$

     RDKit          3D

 47 50  0  0  0  0  0  0  0  0999 V2000
    1.6890   22.2530   32.9240 C   0  0  0  0  0  0  0  0  0  0  0  0
    2.3790   18.4280   39.7020 O   0  0  0  0  0  0  0  0  0  0  0  0
    0.8650   21.4670   41.9890 N   0  0  0  0  0  0  0  0  0  0  0  0
    2.2430   20.5960   40.2120 O   0  0  0  0  0  0  0  0  0  0  0  0
    2.8820   23.3670   34.7350 C   0  0  0  0  0  0  0  0  0  0  0  0
   -0.2020   20.9980   42.8070 N   0  0  0  0  0  0  0  0  0  0  0  0
    3.7760   21.2120   35.8330 C   0  0  0  0  0  0  0  0  0  0  0  0
    2.4810   19.7920   39.1690 C   0  0  0  0  0  0  0  0  0  0  0  0
    3.7160   16.3340   37.0920 C   0  0  0  0  0  0  0  0  0  0  0  0
    1.2590   20.3150   41.2260 C   0  0  0  0  0  0  0  0  0  0  0  0
    2.8100   17.3690   39.0480 C   0  0  0  0  0  0  0  0  0  0  0  0
    3.3600   17.4760   37.7640 C   0  0  0  0  0  0  0  0  0  0  0  0
    3.2810   21.2590   37.3420 C   0  0  0  0  0  0  0  0  0  0  0  0
    2.7900   16.0960   39.6700 C   0  0  0  0  0  0  0  0  0  0  0  0
    3.1020   19.8500   37.8830 C   0  0  0  0  0  0  0  0  0  0  0  0
    3.4490   18.7880   37.1850 N   0  0  0  0  0  0  0  0  0  0  0  0
    3.9940   23.4720   32.5930 C   0  0  0  0  0  0  0  0  0  0  0  0
    3.5070   15.0900   37.6040 C   0  0  0  0  0  0  0  0  0  0  0  0
    3.2470   22.1870   32.9560 C   0  0  0  0  0  0  0  0  0  0  0  0
    0.3250   19.2190   41.5680 C   0  0  0  0  0  0  0  0  0  0  0  0
    3.0850   14.9040   38.8970 C   0  0  0  0  0  0  0  0  0  0  0  0
    3.7250   22.2380   34.4690 C   0  0  0  0  0  0  0  0  0  0  0  0
    3.4210   24.2030   33.7080 C   0  0  0  0  0  0  0  0  0  0  0  0
   -0.4780   19.6070   42.6020 C   0  0  0  0  0  0  0  0  0  0  0  0
    1.3015   22.2694   33.9534 H   0  0  0  0  0  0  0  0  0  0  0  0
    1.3714   23.1654   32.3980 H   0  0  0  0  0  0  0  0  0  0  0  0
    1.2954   21.3707   32.3980 H   0  0  0  0  0  0  0  0  0  0  0  0
    1.8151   23.1450   34.5856 H   0  0  0  0  0  0  0  0  0  0  0  0
    2.8870   23.7658   35.7601 H   0  0  0  0  0  0  0  0  0  0  0  0
   -0.7177   21.5922   43.4717 H   0  0  0  0  0  0  0  0  0  0  0  0
    4.8549   21.0308   35.9476 H   0  0  0  0  0  0  0  0  0  0  0  0
    2.9298   20.5957   35.4953 H   0  0  0  0  0  0  0  0  0  0  0  0
    4.7979   16.4116   36.9092 H   0  0  0  0  0  0  0  0  0  0  0  0
    3.0209   16.3473   36.2396 H   0  0  0  0  0  0  0  0  0  0  0  0
    4.0267   21.7898   37.9521 H   0  0  0  0  0  0  0  0  0  0  0  0
    2.3154   21.7841   37.3854 H   0  0  0  0  0  0  0  0  0  0  0  0
    2.5505   16.0113   40.7403 H   0  0  0  0  0  0  0  0  0  0  0  0
    5.0881   23.3736   32.6495 H   0  0  0  0  0  0  0  0  0  0  0  0
    3.8868   23.8809   31.5775 H   0  0  0  0  0  0  0  0  0  0  0  0
    3.6807   14.2114   36.9653 H   0  0  0  0  0  0  0  0  0  0  0  0
    3.4444   21.3256   32.3010 H   0  0  0  0  0  0  0  0  0  0  0  0
    0.2840   18.2412   41.0659 H   0  0  0  0  0  0  0  0  0  0  0  0
    2.9755   13.8976   39.3273 H   0  0  0  0  0  0  0  0  0  0  0  0
    4.8070   22.0436   34.4296 H   0  0  0  0  0  0  0  0  0  0  0  0
    4.2078   24.8314   34.1507 H   0  0  0  0  0  0  0  0  0  0  0  0
    2.5844   24.7932   33.3058 H   0  0  0  0  0  0  0  0  0  0  0  0
   -1.1892   18.9815   43.1615 H   0  0  0  0  0  0  0  0  0  0  0  0
  3  6  1  0
  4 10  1  0
  7 13  1  0
  8  2  1  0
  8  4  1  0
  9 18  1  0
  9 12  1  0
 10 20  1  0
 10  3  2  0
 11 14  2  0
 11  2  1  0
 12 11  1  0
 13 15  1  0
 15  8  2  0
 16 12  2  0
 16 15  1  0
 17 19  1  0
 17 23  1  0
 18 21  2  0
 19  1  1  0
 19 22  1  0
 20 24  2  0
 21 14  1  0
 22  5  1  0
 22  7  1  0
 23  5  1  0
 24  6  1  0
  1 25  1  0
  1 26  1  0
  1 27  1  0
  5 28  1  0
  5 29  1  0
  6 30  1  0
  7 31  1  0
  7 32  1  0
  9 33  1  0
  9 34  1  0
 13 35  1  0
 13 36  1  0
 14 37  1  0
 17 38  1  0
 17 39  1  0
 18 40  1  0
 19 41  1  0
 20 42  1  0
 21 43  1  0
 22 44  1  0
 23 45  1  0
 23 46  1  0
 24 47  1  0
M  END
>  <mol_id>  (97) 
2026-09-16-6tgu-s0-n100-0097

>  <rmsd_to_ref>  (97) 


$$$$

     RDKit          3D

 56 59  0  0  0  0  0  0  0  0999 V2000
    3.0790   16.6960   39.0490 O   0  0  0  0  0  0  0  0  0  0  0  0
    4.9180   24.0730   28.6730 C   0  0  0  0  0  0  0  0  0  0  0  0
    3.0300   22.5290   34.8180 S   0  0  0  0  0  0  0  0  0  0  0  0
    3.7320   15.9940   38.0220 C   0  0  0  0  0  0  0  0  0  0  0  0
    4.8560   15.2790   37.3250 C   0  0  0  0  0  0  0  0  0  0  0  0
    3.0360   18.0080   38.9300 C   0  0  0  0  0  0  0  0  0  0  0  0
    2.3660   18.5140   39.8420 C   0  0  0  0  0  0  0  0  0  0  0  0
    0.7500   21.7070   42.2950 O   0  0  0  0  0  0  0  0  0  0  0  0
    3.7430   23.1470   32.4650 C   0  0  0  0  0  0  0  0  0  0  0  0
    2.4040   15.4220   37.2680 C   0  0  0  0  0  0  0  0  0  0  0  0
    0.2860   20.8240   41.6770 C   0  0  0  0  0  0  0  0  0  0  0  0
    4.9760   23.6030   29.4790 C   0  0  0  0  0  0  0  0  0  0  0  0
   -1.0590   20.3060   41.9390 C   0  0  0  0  0  0  0  0  0  0  0  0
    2.2830   20.4490   38.7090 C   0  0  0  0  0  0  0  0  0  0  0  0
    4.4300   22.3600   33.6440 C   0  0  0  0  0  0  0  0  0  0  0  0
    3.1370   19.9700   37.8320 C   0  0  0  0  0  0  0  0  0  0  0  0
    3.4310   18.6670   37.8250 C   0  0  0  0  0  0  0  0  0  0  0  0
    4.8890   23.3630   31.1160 C   0  0  0  0  0  0  0  0  0  0  0  0
    2.8070   14.0750   37.3790 N   0  0  0  0  0  4  0  0  0  0  0  0
    3.6540   21.4400   35.9120 C   0  0  0  0  0  0  0  0  0  0  0  0
    4.3230   25.0530   29.4010 C   0  0  0  0  0  0  0  0  0  0  0  0
    4.1130   22.9230   31.2600 C   0  0  0  0  0  0  0  0  0  0  0  0
    4.1070   23.9260   30.2190 C   0  0  0  0  0  0  0  0  0  0  0  0
    0.9650   20.1070   40.8330 N   0  0  0  0  0  0  0  0  0  0  0  0
    3.6250   20.7470   36.7950 C   0  0  0  0  0  0  0  0  0  0  0  0
    1.9740   19.8070   39.8360 C   0  0  0  0  0  0  0  0  0  0  0  0
    4.2110   14.0120   36.9130 C   0  0  0  0  0  0  0  0  0  0  0  0
    4.2782   23.6080   27.9086 H   0  0  0  0  0  0  0  0  0  0  0  0
    5.7919   24.2590   28.0313 H   0  0  0  0  0  0  0  0  0  0  0  0
    4.6265   16.5437   38.3501 H   0  0  0  0  0  0  0  0  0  0  0  0
    5.2111   15.8480   36.4531 H   0  0  0  0  0  0  0  0  0  0  0  0
    5.7472   15.1373   37.9540 H   0  0  0  0  0  0  0  0  0  0  0  0
    2.0776   17.8818   40.6947 H   0  0  0  0  0  0  0  0  0  0  0  0
    2.6668   22.9254   32.5161 H   0  0  0  0  0  0  0  0  0  0  0  0
    4.0447   24.1904   32.6392 H   0  0  0  0  0  0  0  0  0  0  0  0
    2.3152   15.7640   36.2263 H   0  0  0  0  0  0  0  0  0  0  0  0
    1.4167   15.7061   37.6612 H   0  0  0  0  0  0  0  0  0  0  0  0
    5.6956   23.0677   28.8422 H   0  0  0  0  0  0  0  0  0  0  0  0
   -1.2226   20.2430   43.0249 H   0  0  0  0  0  0  0  0  0  0  0  0
   -1.8050   20.9811   41.4944 H   0  0  0  0  0  0  0  0  0  0  0  0
   -1.1594   19.3049   41.4944 H   0  0  0  0  0  0  0  0  0  0  0  0
    1.8042   21.4181   38.5050 H   0  0  0  0  0  0  0  0  0  0  0  0
    4.6469   21.3125   33.3876 H   0  0  0  0  0  0  0  0  0  0  0  0
    5.4155   22.7146   33.9801 H   0  0  0  0  0  0  0  0  0  0  0  0
    3.9505   18.1756   36.9892 H   0  0  0  0  0  0  0  0  0  0  0  0
    5.6363   23.3173   31.9219 H   0  0  0  0  0  0  0  0  0  0  0  0
    2.7439   13.7651   38.3592 H   0  0  0  0  0  0  0  0  0  0  0  0
    2.2018   13.4594   36.8171 H   0  0  0  0  0  0  0  0  0  0  0  0
    4.9829   25.8347   29.8052 H   0  0  0  0  0  0  0  0  0  0  0  0
    3.5559   25.7559   29.0439 H   0  0  0  0  0  0  0  0  0  0  0  0
    3.3445   23.2852   30.5612 H   0  0  0  0  0  0  0  0  0  0  0  0
    4.2533   21.8437   31.1004 H   0  0  0  0  0  0  0  0  0  0  0  0
    3.0719   23.8562   30.5848 H   0  0  0  0  0  0  0  0  0  0  0  0
    0.5051   19.1909   40.9337 H   0  0  0  0  0  0  0  0  0  0  0  0
    4.2423   13.9097   35.8182 H   0  0  0  0  0  0  0  0  0  0  0  0
    4.7318   13.1452   37.3458 H   0  0  0  0  0  0  0  0  0  0  0  0
  2 21  1  0
  3 20  1  0
  4  1  1  0
  5  4  1  0
  6  1  1  0
  6  7  2  0
  9 15  1  0
 10 19  1  0
 10  4  1  0
 11 13  1  0
 11  8  2  0
 12  2  1  0
 12 23  1  0
 12 18  1  0
 14 26  2  0
 15  3  1  0
 16 14  1  0
 17 16  2  0
 17  6  1  0
 18 22  1  0
 20 25  3  0
 22  9  1  0
 23 21  1  0
 23 18  1  0
 24 11  1  0
 25 16  1  0
 26  7  1  0
 26 24  1  0
 27  5  1  0
 27 19  1  0
  2 28  1  0
  2 29  1  0
  4 30  1  0
  5 31  1  0
  5 32  1  0
  7 33  1  0
  9 34  1  0
  9 35  1  0
 10 36  1  0
 10 37  1  0
 12 38  1  0
 13 39  1  0
 13 40  1  0
 13 41  1  0
 14 42  1  0
 15 43  1  0
 15 44  1  0
 17 45  1  0
 18 46  1  0
 19 47  1  0
 19 48  1  0
 21 49  1  0
 21 50  1  0
 22 51  1  0
 22 52  1  0
 23 53  1  0
 24 54  1  0
 27 55  1  0
 27 56  1  0
M  CHG  1  19   1
M  END
>  <mol_id>  (98) 
2026-09-16-6tgu-s0-n100-0099

>  <rmsd_to_ref>  (98) 


$$$$

     RDKit          3D

 53 54  0  0  0  0  0  0  0  0999 V2000
    1.8090   15.0310   40.7000 O   0  0  0  0  0  1  0  0  0  0  0  0
    2.8440   24.7700   31.8970 C   0  0  0  0  0  0  0  0  0  0  0  0
    2.9350   21.9220   34.4770 C   0  0  0  0  0  0  0  0  0  0  0  0
    3.9870   19.4000   38.7200 C   0  0  0  0  0  0  0  0  0  0  0  0
    1.9020   24.7290   34.2500 C   0  0  0  0  0  0  0  0  0  0  0  0
    3.5660   23.0330   33.6410 C   0  0  0  0  0  0  0  0  0  0  0  0
    2.6010   16.7790   39.5910 N   0  0  0  0  0  0  0  0  0  0  0  0
    3.0910   21.0800   36.8940 C   0  0  0  0  0  0  0  0  0  0  0  0
    1.4960   26.1970   33.9650 C   0  0  0  0  0  0  0  0  0  0  0  0
    2.2910   20.2800   40.3780 N   0  0  0  0  0  0  0  0  0  0  0  0
    0.9920   26.4520   32.4570 C   0  0  0  0  0  0  0  0  0  0  0  0
    1.3430   19.8760   41.3220 C   0  0  0  0  0  0  0  0  0  0  0  0
    1.1560   18.5040   41.2850 C   0  0  0  0  0  0  0  0  0  0  0  0
    2.8780   19.1490   39.7360 C   0  0  0  0  0  0  0  0  0  0  0  0
    3.2200   14.6400   39.2550 O   0  0  0  0  0  0  0  0  0  0  0  0
    2.4910   15.4600   39.9750 C   0  0  0  0  0  0  0  0  0  0  0  0
    3.4350   18.7340   36.5140 O   0  0  0  0  0  0  0  0  0  0  0  0
    2.5150   23.9090   33.1110 C   0  0  0  0  0  0  0  0  0  0  0  0
    1.4890   25.6570   30.0540 C   0  0  0  0  0  0  0  0  0  0  0  0
    0.2330   17.7040   41.9940 C   0  0  0  0  0  0  0  0  0  0  0  0
    3.5250   19.7000   37.3240 C   0  0  0  0  0  0  0  0  0  0  0  0
    3.6070   21.5790   35.6530 C   0  0  0  0  0  0  0  0  0  0  0  0
    2.2370   18.0260   40.1560 C   0  0  0  0  0  0  0  0  0  0  0  0
    1.7620   25.7160   31.4480 C   0  0  0  0  0  0  0  0  0  0  0  0
    3.7349   25.3679   32.1395 H   0  0  0  0  0  0  0  0  0  0  0  0
    2.9883   24.0664   31.0638 H   0  0  0  0  0  0  0  0  0  0  0  0
    2.8763   21.0210   33.8487 H   0  0  0  0  0  0  0  0  0  0  0  0
    1.9586   22.3133   34.7987 H   0  0  0  0  0  0  0  0  0  0  0  0
    4.5823   20.2555   39.0717 H   0  0  0  0  0  0  0  0  0  0  0  0
    4.5572   18.4615   38.6555 H   0  0  0  0  0  0  0  0  0  0  0  0
    2.6361   24.7477   35.0690 H   0  0  0  0  0  0  0  0  0  0  0  0
    0.9500   24.2221   34.4664 H   0  0  0  0  0  0  0  0  0  0  0  0
    4.2497   23.6213   34.2706 H   0  0  0  0  0  0  0  0  0  0  0  0
    4.1256   22.5877   32.8052 H   0  0  0  0  0  0  0  0  0  0  0  0
    3.0571   16.8830   38.6734 H   0  0  0  0  0  0  0  0  0  0  0  0
    1.9939   21.0707   36.8148 H   0  0  0  0  0  0  0  0  0  0  0  0
    3.5016   21.7544   37.6599 H   0  0  0  0  0  0  0  0  0  0  0  0
    0.6831   26.4717   34.6533 H   0  0  0  0  0  0  0  0  0  0  0  0
    2.3966   26.8118   34.1096 H   0  0  0  0  0  0  0  0  0  0  0  0
   -0.0610   26.1421   32.3852 H   0  0  0  0  0  0  0  0  0  0  0  0
    1.1279   27.5234   32.2483 H   0  0  0  0  0  0  0  0  0  0  0  0
    1.6895   20.1645   42.3254 H   0  0  0  0  0  0  0  0  0  0  0  0
    0.3861   20.3656   41.0880 H   0  0  0  0  0  0  0  0  0  0  0  0
    1.7787   23.2123   32.6839 H   0  0  0  0  0  0  0  0  0  0  0  0
    0.4247   25.4270   29.8982 H   0  0  0  0  0  0  0  0  0  0  0  0
    1.7258   26.6271   29.5926 H   0  0  0  0  0  0  0  0  0  0  0  0
    2.1053   24.8713   29.5926 H   0  0  0  0  0  0  0  0  0  0  0  0
    0.3868   17.8373   43.0750 H   0  0  0  0  0  0  0  0  0  0  0  0
   -0.7916   18.0045   41.7296 H   0  0  0  0  0  0  0  0  0  0  0  0
    0.3849   16.6471   41.7296 H   0  0  0  0  0  0  0  0  0  0  0  0
    4.3313   20.8143   35.3358 H   0  0  0  0  0  0  0  0  0  0  0  0
    3.8403   22.5994   35.9912 H   0  0  0  0  0  0  0  0  0  0  0  0
    1.7505   26.8154   31.4128 H   0  0  0  0  0  0  0  0  0  0  0  0
  2 18  1  0
  3 22  1  0
  4 14  1  0
  6  3  1  0
  7 16  1  0
  7 23  1  0
  8 21  1  0
  9  5  1  0
 10 12  1  0
 11  9  1  0
 13 12  1  0
 13 20  1  0
 14 23  1  0
 14 10  2  0
 15 16  2  0
 16  1  1  0
 17 21  2  0
 18  6  1  0
 18  5  1  0
 21  4  1  0
 22  8  1  0
 23 13  2  0
 24 19  1  0
 24  2  1  0
 24 11  1  0
  2 25  1  0
  2 26  1  0
  3 27  1  0
  3 28  1  0
  4 29  1  0
  4 30  1  0
  5 31  1  0
  5 32  1  0
  6 33  1  0
  6 34  1  0
  7 35  1  0
  8 36  1  0
  8 37  1  0
  9 38  1  0
  9 39  1  0
 11 40  1  0
 11 41  1  0
 12 42  1  0
 12 43  1  0
 18 44  1  0
 19 45  1  0
 19 46  1  0
 19 47  1  0
 20 48  1  0
 20 49  1  0
 20 50  1  0
 22 51  1  0
 22 52  1  0
 24 53  1  0
M  CHG  1   1  -1
M  END
>  <mol_id>  (99) 
2026-09-16-6tgu-s0-n100-0100

>  <rmsd_to_ref>  (99) 


$$$$
