3war.A
     RDKit          3D

 13 13  0  0  0  0  0  0  0  0999 V2000
    2.0001   18.6245   40.6926 N   0  0  0  0  0  0  0  0  0  0  0  0
    2.5782   18.5757   39.4013 C   0  0  0  0  0  0  0  0  0  0  0  0
    2.4967   19.7718   38.6000 C   0  0  0  0  0  0  0  0  0  0  0  0
    1.8538   20.9004   39.0765 C   0  0  0  0  0  0  0  0  0  0  0  0
    1.3289   20.9112   40.3502 C   0  0  0  0  0  0  0  0  0  0  0  0
    1.3818   19.7712   41.1205 C   0  0  0  0  0  0  0  0  0  0  0  0
    3.0116   19.7599   37.1684 C   0  0  0  0  0  0  0  0  0  0  0  0
    3.7306   18.7870   36.7954 O   0  0  0  0  0  0  0  0  0  0  0  0
    2.6655   20.7081   36.4973 O   0  0  0  0  0  0  0  0  0  0  0  0
    3.0681   17.6653   39.0256 H   0  0  0  0  0  0  0  0  0  0  0  0
    1.7616   21.7908   38.4372 H   0  0  0  0  0  0  0  0  0  0  0  0
    0.8693   21.8270   40.7502 H   0  0  0  0  0  0  0  0  0  0  0  0
    0.9112   19.7806   42.1147 H   0  0  0  0  0  0  0  0  0  0  0  0
  1  2  1  0
  1  6  2  0
  2  3  2  0
  3  4  1  0
  3  7  1  0
  4  5  2  0
  5  6  1  0
  7  8  1  0
  7  9  2  0
  2 10  1  0
  4 11  1  0
  5 12  1  0
  6 13  1  0
M  CHG  1   8  -1
M  END
>  <mol_id>  (1) 
2026-09-18-3war-s0-n100-r9-0001

>  <rmsd_to_ref>  (1) 
0.0

>  <pose_kind>  (1) 
native

$$$$
3war.A
     RDKit          3D

 13 13  0  0  0  0  0  0  0  0999 V2000
    1.9017   18.4561   40.5446 N   0  0  0  0  0  0  0  0  0  0  0  0
    2.6749   18.5346   39.4508 C   0  0  0  0  0  0  0  0  0  0  0  0
    2.6879   19.6979   38.7105 C   0  0  0  0  0  0  0  0  0  0  0  0
    1.9152   20.7809   39.0821 C   0  0  0  0  0  0  0  0  0  0  0  0
    1.1164   20.6987   40.2127 C   0  0  0  0  0  0  0  0  0  0  0  0
    1.1414   19.5040   40.9211 C   0  0  0  0  0  0  0  0  0  0  0  0
    3.5441   19.7443   37.5246 C   0  0  0  0  0  0  0  0  0  0  0  0
    3.6181   20.8757   36.7216 O   0  0  0  0  0  0  0  0  0  0  0  0
    4.2605   18.7427   37.1786 O   0  0  0  0  0  0  0  0  0  0  0  0
    3.2720   17.6895   39.1690 H   0  0  0  0  0  0  0  0  0  0  0  0
    1.9543   21.6604   38.4828 H   0  0  0  0  0  0  0  0  0  0  0  0
    0.4970   21.5302   40.5332 H   0  0  0  0  0  0  0  0  0  0  0  0
    0.5020   19.4726   41.8047 H   0  0  0  0  0  0  0  0  0  0  0  0
  1  2  1  0
  1  6  2  0
  2  3  2  0
  3  4  1  0
  3  7  1  0
  4  5  2  0
  5  6  1  0
  7  8  1  0
  7  9  2  0
  2 10  1  0
  4 11  1  0
  5 12  1  0
  6 13  1  0
M  CHG  1   8  -1
M  END
>  <mol_id>  (2) 
2026-09-18-3war-s0-n100-r9-0002

>  <rmsd_to_ref>  (2) 
0.50000000000002

>  <pose_kind>  (2) 
conformer

$$$$
3war.A
     RDKit          3D

 13 13  0  0  0  0  0  0  0  0999 V2000
    1.0950   18.8697   40.4848 N   0  0  0  0  0  0  0  0  0  0  0  0
    1.8272   18.7260   39.2817 C   0  0  0  0  0  0  0  0  0  0  0  0
    2.2455   19.9366   38.6192 C   0  0  0  0  0  0  0  0  0  0  0  0
    1.9137   21.1766   39.1353 C   0  0  0  0  0  0  0  0  0  0  0  0
    1.2226   21.2686   40.3235 C   0  0  0  0  0  0  0  0  0  0  0  0
    0.7996   20.1223   40.9582 C   0  0  0  0  0  0  0  0  0  0  0  0
    2.9519   19.8575   37.2741 C   0  0  0  0  0  0  0  0  0  0  0  0
    3.3865   18.7331   36.8876 O   0  0  0  0  0  0  0  0  0  0  0  0
    3.0251   20.9100   36.6773 O   0  0  0  0  0  0  0  0  0  0  0  0
    2.0665   17.7343   38.8703 H   0  0  0  0  0  0  0  0  0  0  0  0
    2.2022   22.0908   38.5959 H   0  0  0  0  0  0  0  0  0  0  0  0
    1.0095   22.2540   40.7634 H   0  0  0  0  0  0  0  0  0  0  0  0
    0.2033   20.2146   41.8780 H   0  0  0  0  0  0  0  0  0  0  0  0
  1  2  1  0
  1  6  2  0
  2  3  2  0
  3  4  1  0
  3  7  1  0
  4  5  2  0
  5  6  1  0
  7  8  1  0
  7  9  2  0
  2 10  1  0
  4 11  1  0
  5 12  1  0
  6 13  1  0
M  CHG  1   8  -1
M  END
>  <mol_id>  (3) 
2026-09-18-3war-s0-n100-r9-0003

>  <rmsd_to_ref>  (3) 
0.5459183673478952

>  <pose_kind>  (3) 
rigid

$$$$
3war.A
     RDKit          3D

 13 13  0  0  0  0  0  0  0  0999 V2000
    2.1059   18.4833   40.2286 N   0  0  0  0  0  0  0  0  0  0  0  0
    2.5187   18.7755   38.9739 C   0  0  0  0  0  0  0  0  0  0  0  0
    2.3072   20.0574   38.5326 C   0  0  0  0  0  0  0  0  0  0  0  0
    1.7075   21.0170   39.3069 C   0  0  0  0  0  0  0  0  0  0  0  0
    1.2999   20.6809   40.5816 C   0  0  0  0  0  0  0  0  0  0  0  0
    1.5146   19.3740   41.0339 C   0  0  0  0  0  0  0  0  0  0  0  0
    2.7356   20.4214   37.1847 C   0  0  0  0  0  0  0  0  0  0  0  0
    3.3541   19.4788   36.3504 O   0  0  0  0  0  0  0  0  0  0  0  0
    2.5603   21.5901   36.7383 O   0  0  0  0  0  0  0  0  0  0  0  0
    2.9935   18.0273   38.3522 H   0  0  0  0  0  0  0  0  0  0  0  0
    1.5316   22.0412   38.9715 H   0  0  0  0  0  0  0  0  0  0  0  0
    0.8197   21.3858   41.2496 H   0  0  0  0  0  0  0  0  0  0  0  0
    1.2207   19.0544   42.0117 H   0  0  0  0  0  0  0  0  0  0  0  0
  1  2  1  0
  1  6  2  0
  2  3  2  0
  3  4  1  0
  3  7  1  0
  4  5  2  0
  5  6  1  0
  7  8  1  0
  7  9  2  0
  2 10  1  0
  4 11  1  0
  5 12  1  0
  6 13  1  0
M  CHG  1   8  -1
M  END
>  <mol_id>  (4) 
2026-09-18-3war-s0-n100-r9-0004

>  <rmsd_to_ref>  (4) 
0.5918367346994304

>  <pose_kind>  (4) 
conformer

$$$$
3war.A
     RDKit          3D

 13 13  0  0  0  0  0  0  0  0999 V2000
    1.7679   18.3760   40.2459 N   0  0  0  0  0  0  0  0  0  0  0  0
    2.4346   18.7185   39.0449 C   0  0  0  0  0  0  0  0  0  0  0  0
    2.3541   20.0937   38.6187 C   0  0  0  0  0  0  0  0  0  0  0  0
    1.6298   21.0195   39.3483 C   0  0  0  0  0  0  0  0  0  0  0  0
    1.0191   20.6471   40.5256 C   0  0  0  0  0  0  0  0  0  0  0  0
    1.0706   19.3339   40.9363 C   0  0  0  0  0  0  0  0  0  0  0  0
    2.9658   20.5108   37.2895 C   0  0  0  0  0  0  0  0  0  0  0  0
    3.7518   19.7056   36.7095 O   0  0  0  0  0  0  0  0  0  0  0  0
    2.6239   21.6048   36.8952 O   0  0  0  0  0  0  0  0  0  0  0  0
    2.9897   17.9684   38.4625 H   0  0  0  0  0  0  0  0  0  0  0  0
    1.5414   22.0549   38.9876 H   0  0  0  0  0  0  0  0  0  0  0  0
    0.4923   21.3959   41.1353 H   0  0  0  0  0  0  0  0  0  0  0  0
    0.5332   19.0427   41.8508 H   0  0  0  0  0  0  0  0  0  0  0  0
  1  2  1  0
  1  6  2  0
  2  3  2  0
  3  4  1  0
  3  7  1  0
  4  5  2  0
  5  6  1  0
  7  8  1  0
  7  9  2  0
  2 10  1  0
  4 11  1  0
  5 12  1  0
  6 13  1  0
M  CHG  1   8  -1
M  END
>  <mol_id>  (5) 
2026-09-18-3war-s0-n100-r9-0005

>  <rmsd_to_ref>  (5) 
0.6377551020459958

>  <pose_kind>  (5) 
rigid

$$$$
3war.A
     RDKit          3D

 13 13  0  0  0  0  0  0  0  0999 V2000
    1.6878   18.4107   40.0979 N   0  0  0  0  0  0  0  0  0  0  0  0
    2.4432   18.7079   39.0156 C   0  0  0  0  0  0  0  0  0  0  0  0
    2.2461   19.9371   38.4386 C   0  0  0  0  0  0  0  0  0  0  0  0
    1.3326   20.8410   38.9165 C   0  0  0  0  0  0  0  0  0  0  0  0
    0.5807   20.5017   40.0225 C   0  0  0  0  0  0  0  0  0  0  0  0
    0.7798   19.2485   40.6129 C   0  0  0  0  0  0  0  0  0  0  0  0
    3.0380   20.3040   37.2676 C   0  0  0  0  0  0  0  0  0  0  0  0
    3.9864   19.4172   36.7374 O   0  0  0  0  0  0  0  0  0  0  0  0
    2.8890   21.4253   36.7052 O   0  0  0  0  0  0  0  0  0  0  0  0
    3.1679   18.0033   38.6282 H   0  0  0  0  0  0  0  0  0  0  0  0
    1.1634   21.8228   38.4696 H   0  0  0  0  0  0  0  0  0  0  0  0
   -0.1592   21.1643   40.4554 H   0  0  0  0  0  0  0  0  0  0  0  0
    0.2272   18.9293   41.4715 H   0  0  0  0  0  0  0  0  0  0  0  0
  1  2  1  0
  1  6  2  0
  2  3  2  0
  3  4  1  0
  3  7  1  0
  4  5  2  0
  5  6  1  0
  7  8  1  0
  7  9  2  0
  2 10  1  0
  4 11  1  0
  5 12  1  0
  6 13  1  0
M  CHG  1   8  -1
M  END
>  <mol_id>  (6) 
2026-09-18-3war-s0-n100-r9-0006

>  <rmsd_to_ref>  (6) 
0.6836734693881227

>  <pose_kind>  (6) 
conformer

$$$$
3war.A
     RDKit          3D

 13 13  0  0  0  0  0  0  0  0999 V2000
    1.9050   19.2397   41.0859 N   0  0  0  0  0  0  0  0  0  0  0  0
    2.5303   18.7455   39.9160 C   0  0  0  0  0  0  0  0  0  0  0  0
    2.7491   19.6833   38.8426 C   0  0  0  0  0  0  0  0  0  0  0  0
    2.3349   20.9984   38.9564 C   0  0  0  0  0  0  0  0  0  0  0  0
    1.7544   21.4419   40.1244 C   0  0  0  0  0  0  0  0  0  0  0  0
    1.5213   20.5545   41.1511 C   0  0  0  0  0  0  0  0  0  0  0  0
    3.3284   19.1994   37.5216 C   0  0  0  0  0  0  0  0  0  0  0  0
    3.8441   18.0441   37.4777 O   0  0  0  0  0  0  0  0  0  0  0  0
    3.2292   19.9872   36.6057 O   0  0  0  0  0  0  0  0  0  0  0  0
    2.8359   17.6924   39.8295 H   0  0  0  0  0  0  0  0  0  0  0  0
    2.4694   21.6913   38.1127 H   0  0  0  0  0  0  0  0  0  0  0  0
    1.4782   22.5007   40.2364 H   0  0  0  0  0  0  0  0  0  0  0  0
    1.0090   20.9133   42.0561 H   0  0  0  0  0  0  0  0  0  0  0  0
  1  2  1  0
  1  6  2  0
  2  3  2  0
  3  4  1  0
  3  7  1  0
  4  5  2  0
  5  6  1  0
  7  8  1  0
  7  9  2  0
  2 10  1  0
  4 11  1  0
  5 12  1  0
  6 13  1  0
M  CHG  1   8  -1
M  END
>  <mol_id>  (7) 
2026-09-18-3war-s0-n100-r9-0007

>  <rmsd_to_ref>  (7) 
0.7295918367347531

>  <pose_kind>  (7) 
rigid

$$$$
3war.A
     RDKit          3D

 13 13  0  0  0  0  0  0  0  0999 V2000
    1.7622   18.4547   40.0940 N   0  0  0  0  0  0  0  0  0  0  0  0
    2.6949   18.5455   39.1214 C   0  0  0  0  0  0  0  0  0  0  0  0
    2.8183   19.7411   38.4429 C   0  0  0  0  0  0  0  0  0  0  0  0
    2.0084   20.8118   38.7536 C   0  0  0  0  0  0  0  0  0  0  0  0
    1.0639   20.7025   39.7466 C   0  0  0  0  0  0  0  0  0  0  0  0
    0.9580   19.4862   40.4172 C   0  0  0  0  0  0  0  0  0  0  0  0
    3.8072   19.8684   37.3973 C   0  0  0  0  0  0  0  0  0  0  0  0
    4.6386   18.7994   37.0644 O   0  0  0  0  0  0  0  0  0  0  0  0
    3.9562   20.9377   36.7521 O   0  0  0  0  0  0  0  0  0  0  0  0
    3.3483   17.7256   38.8504 H   0  0  0  0  0  0  0  0  0  0  0  0
    2.1049   21.7315   38.2302 H   0  0  0  0  0  0  0  0  0  0  0  0
    0.4171   21.5279   40.0085 H   0  0  0  0  0  0  0  0  0  0  0  0
    0.2163   19.3554   41.2179 H   0  0  0  0  0  0  0  0  0  0  0  0
  1  2  1  0
  1  6  2  0
  2  3  2  0
  3  4  1  0
  3  7  1  0
  4  5  2  0
  5  6  1  0
  7  8  1  0
  7  9  2  0
  2 10  1  0
  4 11  1  0
  5 12  1  0
  6 13  1  0
M  CHG  1   8  -1
M  END
>  <mol_id>  (8) 
2026-09-18-3war-s0-n100-r9-0008

>  <rmsd_to_ref>  (8) 
0.7755102040819888

>  <pose_kind>  (8) 
conformer

$$$$
3war.A
     RDKit          3D

 13 13  0  0  0  0  0  0  0  0999 V2000
    1.9626   19.1515   40.7340 N   0  0  0  0  0  0  0  0  0  0  0  0
    2.5547   18.5955   39.5745 C   0  0  0  0  0  0  0  0  0  0  0  0
    2.7830   19.4854   38.4630 C   0  0  0  0  0  0  0  0  0  0  0  0
    2.4085   20.8154   38.5328 C   0  0  0  0  0  0  0  0  0  0  0  0
    1.8596   21.3193   39.6916 C   0  0  0  0  0  0  0  0  0  0  0  0
    1.6178   20.4785   40.7548 C   0  0  0  0  0  0  0  0  0  0  0  0
    3.3270   18.9355   37.1529 C   0  0  0  0  0  0  0  0  0  0  0  0
    3.8087   17.7648   37.1454 O   0  0  0  0  0  0  0  0  0  0  0  0
    3.2357   19.6907   36.2093 O   0  0  0  0  0  0  0  0  0  0  0  0
    2.8287   17.5314   39.5237 H   0  0  0  0  0  0  0  0  0  0  0  0
    2.5491   21.4718   37.6614 H   0  0  0  0  0  0  0  0  0  0  0  0
    1.6156   22.3892   39.7672 H   0  0  0  0  0  0  0  0  0  0  0  0
    1.1305   20.8858   41.6529 H   0  0  0  0  0  0  0  0  0  0  0  0
  1  2  1  0
  1  6  2  0
  2  3  2  0
  3  4  1  0
  3  7  1  0
  4  5  2  0
  5  6  1  0
  7  8  1  0
  7  9  2  0
  2 10  1  0
  4 11  1  0
  5 12  1  0
  6 13  1  0
M  CHG  1   8  -1
M  END
>  <mol_id>  (9) 
2026-09-18-3war-s0-n100-r9-0009

>  <rmsd_to_ref>  (9) 
0.8214285714286983

>  <pose_kind>  (9) 
rigid

$$$$
3war.A
     RDKit          3D

 13 13  0  0  0  0  0  0  0  0999 V2000
    0.8947   18.3288   40.5688 N   0  0  0  0  0  0  0  0  0  0  0  0
    1.5936   18.4253   39.4153 C   0  0  0  0  0  0  0  0  0  0  0  0
    2.1358   19.6399   39.0494 C   0  0  0  0  0  0  0  0  0  0  0  0
    1.9869   20.7679   39.8281 C   0  0  0  0  0  0  0  0  0  0  0  0
    1.2614   20.6566   41.0204 C   0  0  0  0  0  0  0  0  0  0  0  0
    0.7217   19.4136   41.3688 C   0  0  0  0  0  0  0  0  0  0  0  0
    2.8874   19.7321   37.8035 C   0  0  0  0  0  0  0  0  0  0  0  0
    3.0613   18.6211   36.9898 O   0  0  0  0  0  0  0  0  0  0  0  0
    3.3980   20.8224   37.4340 O   0  0  0  0  0  0  0  0  0  0  0  0
    1.7214   17.5468   38.7886 H   0  0  0  0  0  0  0  0  0  0  0  0
    2.4046   21.7371   39.5618 H   0  0  0  0  0  0  0  0  0  0  0  0
    1.1208   21.5164   41.6603 H   0  0  0  0  0  0  0  0  0  0  0  0
    0.1526   19.3136   42.2980 H   0  0  0  0  0  0  0  0  0  0  0  0
  1  2  1  0
  1  6  2  0
  2  3  2  0
  3  4  1  0
  3  7  1  0
  4  5  2  0
  5  6  1  0
  7  8  1  0
  7  9  2  0
  2 10  1  0
  4 11  1  0
  5 12  1  0
  6 13  1  0
M  CHG  1   8  -1
M  END
>  <mol_id>  (10) 
2026-09-18-3war-s0-n100-r9-0010

>  <rmsd_to_ref>  (10) 
0.8673469387771663

>  <pose_kind>  (10) 
conformer

$$$$
3war.A
     RDKit          3D

 13 13  0  0  0  0  0  0  0  0999 V2000
    1.8533   19.5427   40.5588 N   0  0  0  0  0  0  0  0  0  0  0  0
    2.3968   18.9232   39.4077 C   0  0  0  0  0  0  0  0  0  0  0  0
    2.5788   19.7507   38.2410 C   0  0  0  0  0  0  0  0  0  0  0  0
    2.2076   21.0834   38.2536 C   0  0  0  0  0  0  0  0  0  0  0  0
    1.7073   21.6509   39.4051 C   0  0  0  0  0  0  0  0  0  0  0  0
    1.5097   20.8697   40.5215 C   0  0  0  0  0  0  0  0  0  0  0  0
    3.0679   19.1290   36.9413 C   0  0  0  0  0  0  0  0  0  0  0  0
    3.5488   17.9585   36.9776 O   0  0  0  0  0  0  0  0  0  0  0  0
    2.9376   19.8320   35.9625 O   0  0  0  0  0  0  0  0  0  0  0  0
    2.6683   17.8572   39.4036 H   0  0  0  0  0  0  0  0  0  0  0  0
    2.3120   21.6911   37.3427 H   0  0  0  0  0  0  0  0  0  0  0  0
    1.4667   22.7239   39.4323 H   0  0  0  0  0  0  0  0  0  0  0  0
    1.0602   21.3264   41.4155 H   0  0  0  0  0  0  0  0  0  0  0  0
  1  2  1  0
  1  6  2  0
  2  3  2  0
  3  4  1  0
  3  7  1  0
  4  5  2  0
  5  6  1  0
  7  8  1  0
  7  9  2  0
  2 10  1  0
  4 11  1  0
  5 12  1  0
  6 13  1  0
M  CHG  1   8  -1
M  END
>  <mol_id>  (11) 
2026-09-18-3war-s0-n100-r9-0011

>  <rmsd_to_ref>  (11) 
0.91326530612532

>  <pose_kind>  (11) 
rigid

$$$$
3war.A
     RDKit          3D

 13 13  0  0  0  0  0  0  0  0999 V2000
    1.5005   17.8742   39.9763 N   0  0  0  0  0  0  0  0  0  0  0  0
    2.0002   18.3560   38.8179 C   0  0  0  0  0  0  0  0  0  0  0  0
    1.9863   19.7274   38.6551 C   0  0  0  0  0  0  0  0  0  0  0  0
    1.4944   20.5951   39.6061 C   0  0  0  0  0  0  0  0  0  0  0  0
    0.9954   20.0375   40.7737 C   0  0  0  0  0  0  0  0  0  0  0  0
    1.0024   18.6632   40.9521 C   0  0  0  0  0  0  0  0  0  0  0  0
    2.5160   20.3021   37.4179 C   0  0  0  0  0  0  0  0  0  0  0  0
    3.0302   19.4712   36.4129 O   0  0  0  0  0  0  0  0  0  0  0  0
    2.5115   21.5508   37.2517 O   0  0  0  0  0  0  0  0  0  0  0  0
    2.3978   17.7426   38.0368 H   0  0  0  0  0  0  0  0  0  0  0  0
    1.4673   21.6543   39.5159 H   0  0  0  0  0  0  0  0  0  0  0  0
    0.6009   20.6983   41.5414 H   0  0  0  0  0  0  0  0  0  0  0  0
    0.6092   18.2513   41.8684 H   0  0  0  0  0  0  0  0  0  0  0  0
  1  2  1  0
  1  6  2  0
  2  3  2  0
  3  4  1  0
  3  7  1  0
  4  5  2  0
  5  6  1  0
  7  8  1  0
  7  9  2  0
  2 10  1  0
  4 11  1  0
  5 12  1  0
  6 13  1  0
M  CHG  1   8  -1
M  END
>  <mol_id>  (12) 
2026-09-18-3war-s0-n100-r9-0012

>  <rmsd_to_ref>  (12) 
0.9591836734712565

>  <pose_kind>  (12) 
conformer

$$$$
3war.A
     RDKit          3D

 13 13  0  0  0  0  0  0  0  0999 V2000
    2.0898   17.8315   39.9235 N   0  0  0  0  0  0  0  0  0  0  0  0
    2.5814   18.4152   38.7312 C   0  0  0  0  0  0  0  0  0  0  0  0
    2.1114   19.7392   38.4062 C   0  0  0  0  0  0  0  0  0  0  0  0
    1.1985   20.3857   39.2203 C   0  0  0  0  0  0  0  0  0  0  0  0
    0.7677   19.7899   40.3854 C   0  0  0  0  0  0  0  0  0  0  0  0
    1.1924   18.5186   40.7000 C   0  0  0  0  0  0  0  0  0  0  0  0
    2.5238   20.3873   37.0930 C   0  0  0  0  0  0  0  0  0  0  0  0
    3.4704   19.8643   36.4348 O   0  0  0  0  0  0  0  0  0  0  0  0
    1.8802   21.3679   36.7874 O   0  0  0  0  0  0  0  0  0  0  0  0
    3.2909   17.8822   38.0811 H   0  0  0  0  0  0  0  0  0  0  0  0
    0.8160   21.3774   38.9368 H   0  0  0  0  0  0  0  0  0  0  0  0
    0.0871   20.3279   41.0617 H   0  0  0  0  0  0  0  0  0  0  0  0
    0.7977   18.0367   41.6067 H   0  0  0  0  0  0  0  0  0  0  0  0
  1  2  1  0
  1  6  2  0
  2  3  2  0
  3  4  1  0
  3  7  1  0
  4  5  2  0
  5  6  1  0
  7  8  1  0
  7  9  2  0
  2 10  1  0
  4 11  1  0
  5 12  1  0
  6 13  1  0
M  CHG  1   8  -1
M  END
>  <mol_id>  (13) 
2026-09-18-3war-s0-n100-r9-0013

>  <rmsd_to_ref>  (13) 
1.0051020408215676

>  <pose_kind>  (13) 
rigid

$$$$
3war.A
     RDKit          3D

 13 13  0  0  0  0  0  0  0  0999 V2000
    1.4207   18.7772   39.7267 N   0  0  0  0  0  0  0  0  0  0  0  0
    2.4770   18.8566   38.8901 C   0  0  0  0  0  0  0  0  0  0  0  0
    2.7761   20.0837   38.3344 C   0  0  0  0  0  0  0  0  0  0  0  0
    2.0259   21.2065   38.6166 C   0  0  0  0  0  0  0  0  0  0  0  0
    0.9381   21.0877   39.4880 C   0  0  0  0  0  0  0  0  0  0  0  0
    0.6498   19.8384   40.0412 C   0  0  0  0  0  0  0  0  0  0  0  0
    3.9123   20.1976   37.4269 C   0  0  0  0  0  0  0  0  0  0  0  0
    4.6889   19.0873   37.1211 O   0  0  0  0  0  0  0  0  0  0  0  0
    4.2081   21.3042   36.9057 O   0  0  0  0  0  0  0  0  0  0  0  0
    3.0709   17.9913   38.6605 H   0  0  0  0  0  0  0  0  0  0  0  0
    2.2803   22.1401   38.1731 H   0  0  0  0  0  0  0  0  0  0  0  0
    0.3233   21.9191   39.7427 H   0  0  0  0  0  0  0  0  0  0  0  0
   -0.1656   19.6695   40.7154 H   0  0  0  0  0  0  0  0  0  0  0  0
  1  2  1  0
  1  6  2  0
  2  3  2  0
  3  4  1  0
  3  7  1  0
  4  5  2  0
  5  6  1  0
  7  8  1  0
  7  9  2  0
  2 10  1  0
  4 11  1  0
  5 12  1  0
  6 13  1  0
M  CHG  1   8  -1
M  END
>  <mol_id>  (14) 
2026-09-18-3war-s0-n100-r9-0014

>  <rmsd_to_ref>  (14) 
1.051020408168295

>  <pose_kind>  (14) 
conformer

$$$$
3war.A
     RDKit          3D

 13 13  0  0  0  0  0  0  0  0999 V2000
    2.4453   17.7269   40.0477 N   0  0  0  0  0  0  0  0  0  0  0  0
    2.7177   18.1427   38.7222 C   0  0  0  0  0  0  0  0  0  0  0  0
    2.9698   19.5470   38.5134 C   0  0  0  0  0  0  0  0  0  0  0  0
    2.9167   20.4401   39.5687 C   0  0  0  0  0  0  0  0  0  0  0  0
    2.6743   19.9865   40.8468 C   0  0  0  0  0  0  0  0  0  0  0  0
    2.4128   18.6516   41.0598 C   0  0  0  0  0  0  0  0  0  0  0  0
    3.1746   20.0773   37.1021 C   0  0  0  0  0  0  0  0  0  0  0  0
    3.3758   19.2450   36.1697 O   0  0  0  0  0  0  0  0  0  0  0  0
    3.1140   21.2836   37.0001 O   0  0  0  0  0  0  0  0  0  0  0  0
    2.7361   17.4258   37.8880 H   0  0  0  0  0  0  0  0  0  0  0  0
    3.0683   21.5143   39.3869 H   0  0  0  0  0  0  0  0  0  0  0  0
    2.6897   20.6881   41.6938 H   0  0  0  0  0  0  0  0  0  0  0  0
    2.1691   18.3148   42.0782 H   0  0  0  0  0  0  0  0  0  0  0  0
  1  2  1  0
  1  6  2  0
  2  3  2  0
  3  4  1  0
  3  7  1  0
  4  5  2  0
  5  6  1  0
  7  8  1  0
  7  9  2  0
  2 10  1  0
  4 11  1  0
  5 12  1  0
  6 13  1  0
M  CHG  1   8  -1
M  END
>  <mol_id>  (15) 
2026-09-18-3war-s0-n100-r9-0015

>  <rmsd_to_ref>  (15) 
1.0969387755104554

>  <pose_kind>  (15) 
rigid

$$$$
3war.A
     RDKit          3D

 13 13  0  0  0  0  0  0  0  0999 V2000
    2.5158   18.3268   40.2108 N   0  0  0  0  0  0  0  0  0  0  0  0
    2.7370   18.8917   39.0109 C   0  0  0  0  0  0  0  0  0  0  0  0
    2.7430   20.2562   38.8468 C   0  0  0  0  0  0  0  0  0  0  0  0
    2.5189   21.0830   39.9263 C   0  0  0  0  0  0  0  0  0  0  0  0
    2.2886   20.5112   41.1745 C   0  0  0  0  0  0  0  0  0  0  0  0
    2.2964   19.1398   41.2673 C   0  0  0  0  0  0  0  0  0  0  0  0
    2.9833   20.8610   37.5440 C   0  0  0  0  0  0  0  0  0  0  0  0
    3.2101   20.0552   36.4483 O   0  0  0  0  0  0  0  0  0  0  0  0
    2.9795   22.1135   37.4415 O   0  0  0  0  0  0  0  0  0  0  0  0
    2.9159   18.2568   38.1465 H   0  0  0  0  0  0  0  0  0  0  0  0
    2.5247   22.1706   39.7903 H   0  0  0  0  0  0  0  0  0  0  0  0
    2.1112   21.1069   42.0347 H   0  0  0  0  0  0  0  0  0  0  0  0
    2.1225   18.6146   42.2188 H   0  0  0  0  0  0  0  0  0  0  0  0
  1  2  1  0
  1  6  2  0
  2  3  2  0
  3  4  1  0
  3  7  1  0
  4  5  2  0
  5  6  1  0
  7  8  1  0
  7  9  2  0
  2 10  1  0
  4 11  1  0
  5 12  1  0
  6 13  1  0
M  CHG  1   8  -1
M  END
>  <mol_id>  (16) 
2026-09-18-3war-s0-n100-r9-0016

>  <rmsd_to_ref>  (16) 
1.1428571428600014

>  <pose_kind>  (16) 
conformer

$$$$
3war.A
     RDKit          3D

 13 13  0  0  0  0  0  0  0  0999 V2000
    1.6284   18.0848   40.4715 N   0  0  0  0  0  0  0  0  0  0  0  0
    2.3118   18.3327   39.2568 C   0  0  0  0  0  0  0  0  0  0  0  0
    3.0514   19.5667   39.1598 C   0  0  0  0  0  0  0  0  0  0  0  0
    3.0598   20.4710   40.2069 C   0  0  0  0  0  0  0  0  0  0  0  0
    2.4020   20.1756   41.3808 C   0  0  0  0  0  0  0  0  0  0  0  0
    1.6757   19.0103   41.4822 C   0  0  0  0  0  0  0  0  0  0  0  0
    3.7297   19.9413   37.8505 C   0  0  0  0  0  0  0  0  0  0  0  0
    3.8498   19.0510   36.9585 O   0  0  0  0  0  0  0  0  0  0  0  0
    4.0934   21.0955   37.7800 O   0  0  0  0  0  0  0  0  0  0  0  0
    2.2801   17.6153   38.4235 H   0  0  0  0  0  0  0  0  0  0  0  0
    3.5926   21.4276   40.1019 H   0  0  0  0  0  0  0  0  0  0  0  0
    2.4569   20.8680   42.2338 H   0  0  0  0  0  0  0  0  0  0  0  0
    1.1132   18.8147   42.4071 H   0  0  0  0  0  0  0  0  0  0  0  0
  1  2  1  0
  1  6  2  0
  2  3  2  0
  3  4  1  0
  3  7  1  0
  4  5  2  0
  5  6  1  0
  7  8  1  0
  7  9  2  0
  2 10  1  0
  4 11  1  0
  5 12  1  0
  6 13  1  0
M  CHG  1   8  -1
M  END
>  <mol_id>  (17) 
2026-09-18-3war-s0-n100-r9-0017

>  <rmsd_to_ref>  (17) 
1.188775510205055

>  <pose_kind>  (17) 
rigid

$$$$
3war.A
     RDKit          3D

 13 13  0  0  0  0  0  0  0  0999 V2000
    2.5234   19.0276   40.5952 N   0  0  0  0  0  0  0  0  0  0  0  0
    3.0008   19.6062   39.4679 C   0  0  0  0  0  0  0  0  0  0  0  0
    2.2530   20.5606   38.8117 C   0  0  0  0  0  0  0  0  0  0  0  0
    1.0095   20.9196   39.3192 C   0  0  0  0  0  0  0  0  0  0  0  0
    0.5357   20.3149   40.4777 C   0  0  0  0  0  0  0  0  0  0  0  0
    1.3231   19.3669   41.0944 C   0  0  0  0  0  0  0  0  0  0  0  0
    2.7676   21.1883   37.5913 C   0  0  0  0  0  0  0  0  0  0  0  0
    1.9969   22.1473   36.9471 O   0  0  0  0  0  0  0  0  0  0  0  0
    3.9135   20.8373   37.1500 O   0  0  0  0  0  0  0  0  0  0  0  0
    3.9904   19.2931   39.0998 H   0  0  0  0  0  0  0  0  0  0  0  0
    0.3860   21.6782   38.8204 H   0  0  0  0  0  0  0  0  0  0  0  0
   -0.4282   20.5929   40.8715 H   0  0  0  0  0  0  0  0  0  0  0  0
    0.9940   18.8698   41.9995 H   0  0  0  0  0  0  0  0  0  0  0  0
  1  2  1  0
  1  6  2  0
  2  3  2  0
  3  4  1  0
  3  7  1  0
  4  5  2  0
  5  6  1  0
  7  8  1  0
  7  9  2  0
  2 10  1  0
  4 11  1  0
  5 12  1  0
  6 13  1  0
M  CHG  1   8  -1
M  END
>  <mol_id>  (18) 
2026-09-18-3war-s0-n100-r9-0018

>  <rmsd_to_ref>  (18) 
1.2346938775528304

>  <pose_kind>  (18) 
conformer

$$$$
3war.A
     RDKit          3D

 13 13  0  0  0  0  0  0  0  0999 V2000
    1.4818   18.7382   40.3663 N   0  0  0  0  0  0  0  0  0  0  0  0
    2.6198   19.1295   39.6207 C   0  0  0  0  0  0  0  0  0  0  0  0
    2.5902   20.4382   39.0161 C   0  0  0  0  0  0  0  0  0  0  0  0
    1.4792   21.2526   39.1453 C   0  0  0  0  0  0  0  0  0  0  0  0
    0.4047   20.8410   39.9029 C   0  0  0  0  0  0  0  0  0  0  0  0
    0.4097   19.5867   40.4708 C   0  0  0  0  0  0  0  0  0  0  0  0
    3.7377   20.8850   38.1226 C   0  0  0  0  0  0  0  0  0  0  0  0
    4.8081   20.2091   38.1344 O   0  0  0  0  0  0  0  0  0  0  0  0
    3.5072   21.8709   37.4562 O   0  0  0  0  0  0  0  0  0  0  0  0
    3.4885   18.4643   39.5076 H   0  0  0  0  0  0  0  0  0  0  0  0
    1.4538   22.2305   38.6422 H   0  0  0  0  0  0  0  0  0  0  0  0
   -0.4539   21.5119   40.0536 H   0  0  0  0  0  0  0  0  0  0  0  0
   -0.4781   19.2534   41.0282 H   0  0  0  0  0  0  0  0  0  0  0  0
  1  2  1  0
  1  6  2  0
  2  3  2  0
  3  4  1  0
  3  7  1  0
  4  5  2  0
  5  6  1  0
  7  8  1  0
  7  9  2  0
  2 10  1  0
  4 11  1  0
  5 12  1  0
  6 13  1  0
M  CHG  1   8  -1
M  END
>  <mol_id>  (19) 
2026-09-18-3war-s0-n100-r9-0019

>  <rmsd_to_ref>  (19) 
1.2806122448997552

>  <pose_kind>  (19) 
rigid

$$$$
3war.A
     RDKit          3D

 13 13  0  0  0  0  0  0  0  0999 V2000
    2.7440   18.9241   40.9461 N   0  0  0  0  0  0  0  0  0  0  0  0
    2.6788   18.3392   39.7179 C   0  0  0  0  0  0  0  0  0  0  0  0
    2.7485   19.1542   38.6058 C   0  0  0  0  0  0  0  0  0  0  0  0
    2.8804   20.5258   38.6934 C   0  0  0  0  0  0  0  0  0  0  0  0
    2.9409   21.0592   39.9713 C   0  0  0  0  0  0  0  0  0  0  0  0
    2.8724   20.2549   41.0989 C   0  0  0  0  0  0  0  0  0  0  0  0
    2.6816   18.5573   37.2868 C   0  0  0  0  0  0  0  0  0  0  0  0
    2.5477   17.1701   37.1295 O   0  0  0  0  0  0  0  0  0  0  0  0
    2.7380   19.2287   36.2349 O   0  0  0  0  0  0  0  0  0  0  0  0
    2.5752   17.2631   39.6247 H   0  0  0  0  0  0  0  0  0  0  0  0
    2.9361   21.1761   37.8259 H   0  0  0  0  0  0  0  0  0  0  0  0
    3.0443   22.1299   40.0917 H   0  0  0  0  0  0  0  0  0  0  0  0
    2.9198   20.6718   42.1113 H   0  0  0  0  0  0  0  0  0  0  0  0
  1  2  1  0
  1  6  2  0
  2  3  2  0
  3  4  1  0
  3  7  1  0
  4  5  2  0
  5  6  1  0
  7  8  1  0
  7  9  2  0
  2 10  1  0
  4 11  1  0
  5 12  1  0
  6 13  1  0
M  CHG  1   8  -1
M  END
>  <mol_id>  (20) 
2026-09-18-3war-s0-n100-r9-0020

>  <rmsd_to_ref>  (20) 
1.326530612249082

>  <pose_kind>  (20) 
conformer

$$$$
3war.A
     RDKit          3D

 13 13  0  0  0  0  0  0  0  0999 V2000
    1.3837   17.8104   39.3826 N   0  0  0  0  0  0  0  0  0  0  0  0
    2.0444   18.0327   38.1505 C   0  0  0  0  0  0  0  0  0  0  0  0
    2.9616   19.1437   38.0887 C   0  0  0  0  0  0  0  0  0  0  0  0
    3.1551   19.9636   39.1861 C   0  0  0  0  0  0  0  0  0  0  0  0
    2.5107   19.6932   40.3734 C   0  0  0  0  0  0  0  0  0  0  0  0
    1.6174   18.6477   40.4431 C   0  0  0  0  0  0  0  0  0  0  0  0
    3.6327   19.4981   36.7701 C   0  0  0  0  0  0  0  0  0  0  0  0
    3.5747   18.6620   35.8213 O   0  0  0  0  0  0  0  0  0  0  0  0
    4.1676   20.5857   36.7498 O   0  0  0  0  0  0  0  0  0  0  0  0
    1.8659   17.3863   37.2785 H   0  0  0  0  0  0  0  0  0  0  0  0
    3.8248   20.8329   39.1106 H   0  0  0  0  0  0  0  0  0  0  0  0
    2.7089   20.3102   41.2622 H   0  0  0  0  0  0  0  0  0  0  0  0
    1.0718   18.4781   41.3830 H   0  0  0  0  0  0  0  0  0  0  0  0
  1  2  1  0
  1  6  2  0
  2  3  2  0
  3  4  1  0
  3  7  1  0
  4  5  2  0
  5  6  1  0
  7  8  1  0
  7  9  2  0
  2 10  1  0
  4 11  1  0
  5 12  1  0
  6 13  1  0
M  CHG  1   8  -1
M  END
>  <mol_id>  (21) 
2026-09-18-3war-s0-n100-r9-0021

>  <rmsd_to_ref>  (21) 
1.3724489795921058

>  <pose_kind>  (21) 
rigid

$$$$
3war.A
     RDKit          3D

 13 13  0  0  0  0  0  0  0  0999 V2000
    2.3892   20.8876   41.2458 N   0  0  0  0  0  0  0  0  0  0  0  0
    2.8784   20.3167   40.1279 C   0  0  0  0  0  0  0  0  0  0  0  0
    2.1243   20.4305   38.9761 C   0  0  0  0  0  0  0  0  0  0  0  0
    0.9170   21.0921   38.9314 C   0  0  0  0  0  0  0  0  0  0  0  0
    0.4496   21.6690   40.1176 C   0  0  0  0  0  0  0  0  0  0  0  0
    1.2207   21.5425   41.2570 C   0  0  0  0  0  0  0  0  0  0  0  0
    2.6262   19.8231   37.7478 C   0  0  0  0  0  0  0  0  0  0  0  0
    3.8315   19.1387   37.7032 O   0  0  0  0  0  0  0  0  0  0  0  0
    1.9085   19.9497   36.7207 O   0  0  0  0  0  0  0  0  0  0  0  0
    3.8154   19.7825   40.0849 H   0  0  0  0  0  0  0  0  0  0  0  0
    0.3208   21.1903   38.0518 H   0  0  0  0  0  0  0  0  0  0  0  0
   -0.4874   22.2038   40.1625 H   0  0  0  0  0  0  0  0  0  0  0  0
    0.8650   21.9816   42.1601 H   0  0  0  0  0  0  0  0  0  0  0  0
  1  2  1  0
  1  6  2  0
  2  3  2  0
  3  4  1  0
  3  7  1  0
  4  5  2  0
  5  6  1  0
  7  8  1  0
  7  9  2  0
  2 10  1  0
  4 11  1  0
  5 12  1  0
  6 13  1  0
M  CHG  1   8  -1
M  END
>  <mol_id>  (22) 
2026-09-18-3war-s0-n100-r9-0022

>  <rmsd_to_ref>  (22) 
1.4183673469420939

>  <pose_kind>  (22) 
conformer

$$$$
3war.A
     RDKit          3D

 13 13  0  0  0  0  0  0  0  0999 V2000
    3.7953   19.2696   39.9226 N   0  0  0  0  0  0  0  0  0  0  0  0
    3.5016   19.4431   38.5487 C   0  0  0  0  0  0  0  0  0  0  0  0
    2.5158   20.4392   38.2089 C   0  0  0  0  0  0  0  0  0  0  0  0
    1.8742   21.1656   39.1962 C   0  0  0  0  0  0  0  0  0  0  0  0
    2.2114   20.9820   40.5193 C   0  0  0  0  0  0  0  0  0  0  0  0
    3.1368   20.0215   40.8614 C   0  0  0  0  0  0  0  0  0  0  0  0
    2.0824   20.6114   36.7607 C   0  0  0  0  0  0  0  0  0  0  0  0
    2.7761   20.0620   35.8554 O   0  0  0  0  0  0  0  0  0  0  0  0
    1.0771   21.2710   36.6075 O   0  0  0  0  0  0  0  0  0  0  0  0
    4.0034   18.8444   37.7743 H   0  0  0  0  0  0  0  0  0  0  0  0
    1.0933   21.8910   38.9243 H   0  0  0  0  0  0  0  0  0  0  0  0
    1.7432   21.6003   41.2993 H   0  0  0  0  0  0  0  0  0  0  0  0
    3.3556   19.8513   41.9259 H   0  0  0  0  0  0  0  0  0  0  0  0
  1  2  1  0
  1  6  2  0
  2  3  2  0
  3  4  1  0
  3  7  1  0
  4  5  2  0
  5  6  1  0
  7  8  1  0
  7  9  2  0
  2 10  1  0
  4 11  1  0
  5 12  1  0
  6 13  1  0
M  CHG  1   8  -1
M  END
>  <mol_id>  (23) 
2026-09-18-3war-s0-n100-r9-0023

>  <rmsd_to_ref>  (23) 
1.464285714286708

>  <pose_kind>  (23) 
rigid

$$$$
3war.A
     RDKit          3D

 13 13  0  0  0  0  0  0  0  0999 V2000
    1.8038   19.1574   39.9875 N   0  0  0  0  0  0  0  0  0  0  0  0
    2.9450   19.0937   39.2644 C   0  0  0  0  0  0  0  0  0  0  0  0
    3.0939   19.7736   38.0615 C   0  0  0  0  0  0  0  0  0  0  0  0
    2.0392   20.5519   37.5710 C   0  0  0  0  0  0  0  0  0  0  0  0
    0.8861   20.6013   38.3259 C   0  0  0  0  0  0  0  0  0  0  0  0
    0.7800   19.9077   39.5197 C   0  0  0  0  0  0  0  0  0  0  0  0
    4.3453   19.6475   37.3592 C   0  0  0  0  0  0  0  0  0  0  0  0
    4.4899   20.3342   36.1483 O   0  0  0  0  0  0  0  0  0  0  0  0
    5.3262   18.9728   37.7361 O   0  0  0  0  0  0  0  0  0  0  0  0
    3.7641   18.4896   39.6448 H   0  0  0  0  0  0  0  0  0  0  0  0
    2.1536   21.0865   36.6272 H   0  0  0  0  0  0  0  0  0  0  0  0
    0.0506   21.1995   37.9669 H   0  0  0  0  0  0  0  0  0  0  0  0
   -0.1093   19.9249   40.1356 H   0  0  0  0  0  0  0  0  0  0  0  0
  1  2  1  0
  1  6  2  0
  2  3  2  0
  3  4  1  0
  3  7  1  0
  4  5  2  0
  5  6  1  0
  7  8  1  0
  7  9  2  0
  2 10  1  0
  4 11  1  0
  5 12  1  0
  6 13  1  0
M  CHG  1   8  -1
M  END
>  <mol_id>  (24) 
2026-09-18-3war-s0-n100-r9-0024

>  <rmsd_to_ref>  (24) 
1.5102040816365583

>  <pose_kind>  (24) 
conformer

$$$$
3war.A
     RDKit          3D

 13 13  0  0  0  0  0  0  0  0999 V2000
    3.3593   20.5865   41.3865 N   0  0  0  0  0  0  0  0  0  0  0  0
    3.3463   19.8383   40.1848 C   0  0  0  0  0  0  0  0  0  0  0  0
    2.4181   20.2543   39.1626 C   0  0  0  0  0  0  0  0  0  0  0  0
    1.5649   21.3228   39.3737 C   0  0  0  0  0  0  0  0  0  0  0  0
    1.6312   22.0388   40.5489 C   0  0  0  0  0  0  0  0  0  0  0  0
    2.4987   21.6427   41.5421 C   0  0  0  0  0  0  0  0  0  0  0  0
    2.2835   19.4384   37.8855 C   0  0  0  0  0  0  0  0  0  0  0  0
    3.1650   18.5655   37.6332 O   0  0  0  0  0  0  0  0  0  0  0  0
    1.3093   19.7035   37.2148 O   0  0  0  0  0  0  0  0  0  0  0  0
    4.0149   18.9775   40.0372 H   0  0  0  0  0  0  0  0  0  0  0  0
    0.8323   21.6012   38.6019 H   0  0  0  0  0  0  0  0  0  0  0  0
    0.9936   22.9234   40.6931 H   0  0  0  0  0  0  0  0  0  0  0  0
    2.5014   22.1931   42.4944 H   0  0  0  0  0  0  0  0  0  0  0  0
  1  2  1  0
  1  6  2  0
  2  3  2  0
  3  4  1  0
  3  7  1  0
  4  5  2  0
  5  6  1  0
  7  8  1  0
  7  9  2  0
  2 10  1  0
  4 11  1  0
  5 12  1  0
  6 13  1  0
M  CHG  1   8  -1
M  END
>  <mol_id>  (25) 
2026-09-18-3war-s0-n100-r9-0025

>  <rmsd_to_ref>  (25) 
1.5561224489799712

>  <pose_kind>  (25) 
rigid

$$$$
3war.A
     RDKit          3D

 13 13  0  0  0  0  0  0  0  0999 V2000
    1.7951   18.6091   39.7920 N   0  0  0  0  0  0  0  0  0  0  0  0
    2.9278   19.1225   39.2320 C   0  0  0  0  0  0  0  0  0  0  0  0
    3.0055   20.4725   38.9597 C   0  0  0  0  0  0  0  0  0  0  0  0
    1.9199   21.2667   39.2678 C   0  0  0  0  0  0  0  0  0  0  0  0
    0.7604   20.7325   39.8427 C   0  0  0  0  0  0  0  0  0  0  0  0
    0.7275   19.3721   40.0982 C   0  0  0  0  0  0  0  0  0  0  0  0
    4.2061   21.0447   38.3612 C   0  0  0  0  0  0  0  0  0  0  0  0
    4.2487   22.4059   38.1015 O   0  0  0  0  0  0  0  0  0  0  0  0
    5.1889   20.2802   38.0903 O   0  0  0  0  0  0  0  0  0  0  0  0
    3.7661   18.4981   38.9960 H   0  0  0  0  0  0  0  0  0  0  0  0
    1.9128   22.3342   39.0810 H   0  0  0  0  0  0  0  0  0  0  0  0
   -0.0838   21.3256   40.0866 H   0  0  0  0  0  0  0  0  0  0  0  0
   -0.1342   18.8851   40.5414 H   0  0  0  0  0  0  0  0  0  0  0  0
  1  2  1  0
  1  6  2  0
  2  3  2  0
  3  4  1  0
  3  7  1  0
  4  5  2  0
  5  6  1  0
  7  8  1  0
  7  9  2  0
  2 10  1  0
  4 11  1  0
  5 12  1  0
  6 13  1  0
M  CHG  1   8  -1
M  END
>  <mol_id>  (26) 
2026-09-18-3war-s0-n100-r9-0026

>  <rmsd_to_ref>  (26) 
1.6020408163285131

>  <pose_kind>  (26) 
conformer

$$$$
3war.A
     RDKit          3D

 13 13  0  0  0  0  0  0  0  0999 V2000
    0.7003   19.5108   41.3971 N   0  0  0  0  0  0  0  0  0  0  0  0
    1.8620   19.3721   40.6001 C   0  0  0  0  0  0  0  0  0  0  0  0
    1.7458   19.7167   39.2047 C   0  0  0  0  0  0  0  0  0  0  0  0
    0.5374   20.1363   38.6777 C   0  0  0  0  0  0  0  0  0  0  0  0
   -0.5608   20.2822   39.4967 C   0  0  0  0  0  0  0  0  0  0  0  0
   -0.4710   19.9392   40.8271 C   0  0  0  0  0  0  0  0  0  0  0  0
    2.9275   19.5007   38.2711 C   0  0  0  0  0  0  0  0  0  0  0  0
    4.0627   19.2683   38.7809 O   0  0  0  0  0  0  0  0  0  0  0  0
    2.6592   19.5640   37.0907 O   0  0  0  0  0  0  0  0  0  0  0  0
    2.8118   19.0171   41.0266 H   0  0  0  0  0  0  0  0  0  0  0  0
    0.4532   20.3539   37.6027 H   0  0  0  0  0  0  0  0  0  0  0  0
   -1.5056   20.6712   39.0893 H   0  0  0  0  0  0  0  0  0  0  0  0
   -1.3711   20.0115   41.4553 H   0  0  0  0  0  0  0  0  0  0  0  0
  1  2  1  0
  1  6  2  0
  2  3  2  0
  3  4  1  0
  3  7  1  0
  4  5  2  0
  5  6  1  0
  7  8  1  0
  7  9  2  0
  2 10  1  0
  4 11  1  0
  5 12  1  0
  6 13  1  0
M  CHG  1   8  -1
M  END
>  <mol_id>  (27) 
2026-09-18-3war-s0-n100-r9-0027

>  <rmsd_to_ref>  (27) 
1.6479591836748355

>  <pose_kind>  (27) 
rigid

$$$$
3war.A
     RDKit          3D

 13 13  0  0  0  0  0  0  0  0999 V2000
    2.6481   17.7835   38.7689 N   0  0  0  0  0  0  0  0  0  0  0  0
    3.2826   18.7120   37.9955 C   0  0  0  0  0  0  0  0  0  0  0  0
    2.9466   20.0474   38.0913 C   0  0  0  0  0  0  0  0  0  0  0  0
    1.9560   20.4460   38.9813 C   0  0  0  0  0  0  0  0  0  0  0  0
    1.3398   19.4835   39.7429 C   0  0  0  0  0  0  0  0  0  0  0  0
    1.6741   18.1655   39.6458 C   0  0  0  0  0  0  0  0  0  0  0  0
    3.6197   21.0203   37.2729 C   0  0  0  0  0  0  0  0  0  0  0  0
    3.2799   22.3760   37.3689 O   0  0  0  0  0  0  0  0  0  0  0  0
    4.5287   20.7476   36.4402 O   0  0  0  0  0  0  0  0  0  0  0  0
    4.0537   18.3583   37.3101 H   0  0  0  0  0  0  0  0  0  0  0  0
    1.7288   21.4939   39.0212 H   0  0  0  0  0  0  0  0  0  0  0  0
    0.5664   19.7940   40.4379 H   0  0  0  0  0  0  0  0  0  0  0  0
    1.1542   17.4570   40.2705 H   0  0  0  0  0  0  0  0  0  0  0  0
  1  2  1  0
  1  6  2  0
  2  3  2  0
  3  4  1  0
  3  7  1  0
  4  5  2  0
  5  6  1  0
  7  8  1  0
  7  9  2  0
  2 10  1  0
  4 11  1  0
  5 12  1  0
  6 13  1  0
M  CHG  1   8  -1
M  END
>  <mol_id>  (28) 
2026-09-18-3war-s0-n100-r9-0028

>  <rmsd_to_ref>  (28) 
1.6938775510216388

>  <pose_kind>  (28) 
conformer

$$$$
3war.A
     RDKit          3D

 13 13  0  0  0  0  0  0  0  0999 V2000
    1.6916   17.4285   41.0343 N   0  0  0  0  0  0  0  0  0  0  0  0
    1.6240   17.8143   39.6740 C   0  0  0  0  0  0  0  0  0  0  0  0
    2.3921   18.9694   39.2804 C   0  0  0  0  0  0  0  0  0  0  0  0
    3.1355   19.6752   40.2096 C   0  0  0  0  0  0  0  0  0  0  0  0
    3.1932   19.2473   41.5178 C   0  0  0  0  0  0  0  0  0  0  0  0
    2.4505   18.1575   41.9135 C   0  0  0  0  0  0  0  0  0  0  0  0
    2.2906   19.4962   37.8567 C   0  0  0  0  0  0  0  0  0  0  0  0
    1.7399   18.7651   36.9822 O   0  0  0  0  0  0  0  0  0  0  0  0
    2.7526   20.6047   37.6922 O   0  0  0  0  0  0  0  0  0  0  0  0
    1.0123   17.2573   38.9490 H   0  0  0  0  0  0  0  0  0  0  0  0
    3.6815   20.5796   39.9032 H   0  0  0  0  0  0  0  0  0  0  0  0
    3.8301   19.7742   42.2435 H   0  0  0  0  0  0  0  0  0  0  0  0
    2.4664   17.8611   42.9727 H   0  0  0  0  0  0  0  0  0  0  0  0
  1  2  1  0
  1  6  2  0
  2  3  2  0
  3  4  1  0
  3  7  1  0
  4  5  2  0
  5  6  1  0
  7  8  1  0
  7  9  2  0
  2 10  1  0
  4 11  1  0
  5 12  1  0
  6 13  1  0
M  CHG  1   8  -1
M  END
>  <mol_id>  (29) 
2026-09-18-3war-s0-n100-r9-0029

>  <rmsd_to_ref>  (29) 
1.7397959183710823

>  <pose_kind>  (29) 
rigid

$$$$
3war.A
     RDKit          3D

 13 13  0  0  0  0  0  0  0  0999 V2000
    2.5706   19.8102   40.1459 N   0  0  0  0  0  0  0  0  0  0  0  0
    2.7842   18.8288   39.2519 C   0  0  0  0  0  0  0  0  0  0  0  0
    2.1806   18.9224   37.9975 C   0  0  0  0  0  0  0  0  0  0  0  0
    1.3944   20.0237   37.7453 C   0  0  0  0  0  0  0  0  0  0  0  0
    1.1879   21.0222   38.6798 C   0  0  0  0  0  0  0  0  0  0  0  0
    1.8035   20.8911   39.9089 C   0  0  0  0  0  0  0  0  0  0  0  0
    2.4068   17.8700   37.0324 C   0  0  0  0  0  0  0  0  0  0  0  0
    1.7836   17.9971   35.7802 O   0  0  0  0  0  0  0  0  0  0  0  0
    3.1073   16.8584   37.2143 O   0  0  0  0  0  0  0  0  0  0  0  0
    3.4039   17.9643   39.4558 H   0  0  0  0  0  0  0  0  0  0  0  0
    0.9254   20.1017   36.7782 H   0  0  0  0  0  0  0  0  0  0  0  0
    0.5565   21.8605   38.4120 H   0  0  0  0  0  0  0  0  0  0  0  0
    1.6561   21.6638   40.6604 H   0  0  0  0  0  0  0  0  0  0  0  0
  1  2  1  0
  1  6  2  0
  2  3  2  0
  3  4  1  0
  3  7  1  0
  4  5  2  0
  5  6  1  0
  7  8  1  0
  7  9  2  0
  2 10  1  0
  4 11  1  0
  5 12  1  0
  6 13  1  0
M  CHG  1   8  -1
M  END
>  <mol_id>  (30) 
2026-09-18-3war-s0-n100-r9-0030

>  <rmsd_to_ref>  (30) 
1.785714285718791

>  <pose_kind>  (30) 
conformer

$$$$
3war.A
     RDKit          3D

 13 13  0  0  0  0  0  0  0  0999 V2000
    1.6941   17.5892   39.7577 N   0  0  0  0  0  0  0  0  0  0  0  0
    2.7863   18.2811   39.1810 C   0  0  0  0  0  0  0  0  0  0  0  0
    2.9772   19.6540   39.5784 C   0  0  0  0  0  0  0  0  0  0  0  0
    2.1058   20.2620   40.4644 C   0  0  0  0  0  0  0  0  0  0  0  0
    1.0719   19.5418   41.0214 C   0  0  0  0  0  0  0  0  0  0  0  0
    0.8648   18.2358   40.6378 C   0  0  0  0  0  0  0  0  0  0  0  0
    4.0723   20.4850   38.9265 C   0  0  0  0  0  0  0  0  0  0  0  0
    4.9540   19.8880   38.2418 O   0  0  0  0  0  0  0  0  0  0  0  0
    3.9881   21.6781   39.1229 O   0  0  0  0  0  0  0  0  0  0  0  0
    3.4598   17.7927   38.4613 H   0  0  0  0  0  0  0  0  0  0  0  0
    2.2387   21.3225   40.7247 H   0  0  0  0  0  0  0  0  0  0  0  0
    0.4143   20.0083   41.7697 H   0  0  0  0  0  0  0  0  0  0  0  0
    0.0033   17.6916   41.0521 H   0  0  0  0  0  0  0  0  0  0  0  0
  1  2  1  0
  1  6  2  0
  2  3  2  0
  3  4  1  0
  3  7  1  0
  4  5  2  0
  5  6  1  0
  7  8  1  0
  7  9  2  0
  2 10  1  0
  4 11  1  0
  5 12  1  0
  6 13  1  0
M  CHG  1   8  -1
M  END
>  <mol_id>  (31) 
2026-09-18-3war-s0-n100-r9-0031

>  <rmsd_to_ref>  (31) 
1.8316326530650038

>  <pose_kind>  (31) 
rigid

$$$$
3war.A
     RDKit          3D

 13 13  0  0  0  0  0  0  0  0999 V2000
    2.7562   20.5205   41.2880 N   0  0  0  0  0  0  0  0  0  0  0  0
    2.5495   19.7752   40.1808 C   0  0  0  0  0  0  0  0  0  0  0  0
    2.9854   20.2699   38.9683 C   0  0  0  0  0  0  0  0  0  0  0  0
    3.6148   21.4935   38.8944 C   0  0  0  0  0  0  0  0  0  0  0  0
    3.8174   22.2397   40.0312 C   0  0  0  0  0  0  0  0  0  0  0  0
    3.3688   21.7196   41.2431 C   0  0  0  0  0  0  0  0  0  0  0  0
    2.7783   19.4952   37.7665 C   0  0  0  0  0  0  0  0  0  0  0  0
    2.1440   18.2542   37.8153 O   0  0  0  0  0  0  0  0  0  0  0  0
    3.1582   19.9050   36.6396 O   0  0  0  0  0  0  0  0  0  0  0  0
    2.0588   18.8100   40.2009 H   0  0  0  0  0  0  0  0  0  0  0  0
    3.9497   21.8728   37.9600 H   0  0  0  0  0  0  0  0  0  0  0  0
    4.3084   23.2020   39.9990 H   0  0  0  0  0  0  0  0  0  0  0  0
    3.5103   22.2830   42.1764 H   0  0  0  0  0  0  0  0  0  0  0  0
  1  2  1  0
  1  6  2  0
  2  3  2  0
  3  4  1  0
  3  7  1  0
  4  5  2  0
  5  6  1  0
  7  8  1  0
  7  9  2  0
  2 10  1  0
  4 11  1  0
  5 12  1  0
  6 13  1  0
M  CHG  1   8  -1
M  END
>  <mol_id>  (32) 
2026-09-18-3war-s0-n100-r9-0032

>  <rmsd_to_ref>  (32) 
1.8775510204122696

>  <pose_kind>  (32) 
conformer

$$$$
3war.A
     RDKit          3D

 13 13  0  0  0  0  0  0  0  0999 V2000
    4.3629   18.0642   40.7169 N   0  0  0  0  0  0  0  0  0  0  0  0
    4.1683   18.7183   39.4767 C   0  0  0  0  0  0  0  0  0  0  0  0
    2.8931   19.3572   39.2644 C   0  0  0  0  0  0  0  0  0  0  0  0
    1.9037   19.3003   40.2298 C   0  0  0  0  0  0  0  0  0  0  0  0
    2.1469   18.6753   41.4332 C   0  0  0  0  0  0  0  0  0  0  0  0
    3.3524   18.0442   41.6437 C   0  0  0  0  0  0  0  0  0  0  0  0
    2.5814   19.9956   37.9190 C   0  0  0  0  0  0  0  0  0  0  0  0
    3.5334   20.1803   37.1054 O   0  0  0  0  0  0  0  0  0  0  0  0
    1.4127   20.2662   37.7450 O   0  0  0  0  0  0  0  0  0  0  0  0
    4.9554   18.7384   38.7085 H   0  0  0  0  0  0  0  0  0  0  0  0
    0.9210   19.7550   40.0361 H   0  0  0  0  0  0  0  0  0  0  0  0
    1.3811   18.6804   42.2227 H   0  0  0  0  0  0  0  0  0  0  0  0
    3.5106   17.5048   42.5892 H   0  0  0  0  0  0  0  0  0  0  0  0
  1  2  1  0
  1  6  2  0
  2  3  2  0
  3  4  1  0
  3  7  1  0
  4  5  2  0
  5  6  1  0
  7  8  1  0
  7  9  2  0
  2 10  1  0
  4 11  1  0
  5 12  1  0
  6 13  1  0
M  CHG  1   8  -1
M  END
>  <mol_id>  (33) 
2026-09-18-3war-s0-n100-r9-0033

>  <rmsd_to_ref>  (33) 
1.9234693877591478

>  <pose_kind>  (33) 
rigid

$$$$
3war.A
     RDKit          3D

 13 13  0  0  0  0  0  0  0  0999 V2000
    2.1650   18.6571   39.3390 N   0  0  0  0  0  0  0  0  0  0  0  0
    2.6984   19.6506   38.5861 C   0  0  0  0  0  0  0  0  0  0  0  0
    1.9133   20.5944   37.9467 C   0  0  0  0  0  0  0  0  0  0  0  0
    0.5178   20.5636   38.0509 C   0  0  0  0  0  0  0  0  0  0  0  0
    0.0045   19.5345   38.8285 C   0  0  0  0  0  0  0  0  0  0  0  0
    0.8299   18.6283   39.4383 C   0  0  0  0  0  0  0  0  0  0  0  0
    2.5688   21.6310   37.1554 C   0  0  0  0  0  0  0  0  0  0  0  0
    1.7753   22.5898   36.5056 O   0  0  0  0  0  0  0  0  0  0  0  0
    3.8385   21.6684   37.0537 O   0  0  0  0  0  0  0  0  0  0  0  0
    3.7826   19.6495   38.5233 H   0  0  0  0  0  0  0  0  0  0  0  0
   -0.0926   21.2846   37.5630 H   0  0  0  0  0  0  0  0  0  0  0  0
   -1.0837   19.5157   38.9060 H   0  0  0  0  0  0  0  0  0  0  0  0
    0.3808   17.8374   40.0390 H   0  0  0  0  0  0  0  0  0  0  0  0
  1  2  1  0
  1  6  2  0
  2  3  2  0
  3  4  1  0
  3  7  1  0
  4  5  2  0
  5  6  1  0
  7  8  1  0
  7  9  2  0
  2 10  1  0
  4 11  1  0
  5 12  1  0
  6 13  1  0
M  CHG  1   8  -1
M  END
>  <mol_id>  (34) 
2026-09-18-3war-s0-n100-r9-0034

>  <rmsd_to_ref>  (34) 
1.9693877551032097

>  <pose_kind>  (34) 
conformer

$$$$
3war.A
     RDKit          3D

 13 13  0  0  0  0  0  0  0  0999 V2000
    4.0852   20.9751   39.7007 N   0  0  0  0  0  0  0  0  0  0  0  0
    3.8395   20.0568   38.6517 C   0  0  0  0  0  0  0  0  0  0  0  0
    2.6775   20.2929   37.8312 C   0  0  0  0  0  0  0  0  0  0  0  0
    1.8342   21.3592   38.0886 C   0  0  0  0  0  0  0  0  0  0  0  0
    2.1274   22.2431   39.1038 C   0  0  0  0  0  0  0  0  0  0  0  0
    3.2226   22.0207   39.9081 C   0  0  0  0  0  0  0  0  0  0  0  0
    2.3004   19.2934   36.7479 C   0  0  0  0  0  0  0  0  0  0  0  0
    3.1500   18.4151   36.4172 O   0  0  0  0  0  0  0  0  0  0  0  0
    1.1837   19.4315   36.2972 O   0  0  0  0  0  0  0  0  0  0  0  0
    4.5059   19.2006   38.4704 H   0  0  0  0  0  0  0  0  0  0  0  0
    0.9281   21.5014   37.4815 H   0  0  0  0  0  0  0  0  0  0  0  0
    1.4890   23.1231   39.2713 H   0  0  0  0  0  0  0  0  0  0  0  0
    3.4124   22.7064   40.7471 H   0  0  0  0  0  0  0  0  0  0  0  0
  1  2  1  0
  1  6  2  0
  2  3  2  0
  3  4  1  0
  3  7  1  0
  4  5  2  0
  5  6  1  0
  7  8  1  0
  7  9  2  0
  2 10  1  0
  4 11  1  0
  5 12  1  0
  6 13  1  0
M  CHG  1   8  -1
M  END
>  <mol_id>  (35) 
2026-09-18-3war-s0-n100-r9-0035

>  <rmsd_to_ref>  (35) 
2.0153061224514413

>  <pose_kind>  (35) 
rigid

$$$$
3war.A
     RDKit          3D

 13 13  0  0  0  0  0  0  0  0999 V2000
    1.3593   18.1189   39.9523 N   0  0  0  0  0  0  0  0  0  0  0  0
    2.4161   18.9130   39.6511 C   0  0  0  0  0  0  0  0  0  0  0  0
    2.3207   20.2894   39.7026 C   0  0  0  0  0  0  0  0  0  0  0  0
    1.1116   20.8415   40.0718 C   0  0  0  0  0  0  0  0  0  0  0  0
    0.0515   20.0082   40.3734 C   0  0  0  0  0  0  0  0  0  0  0  0
    0.1723   18.6377   40.3144 C   0  0  0  0  0  0  0  0  0  0  0  0
    3.4706   21.0952   39.3738 C   0  0  0  0  0  0  0  0  0  0  0  0
    3.4496   22.4751   39.4032 O   0  0  0  0  0  0  0  0  0  0  0  0
    4.5767   20.5599   39.0356 O   0  0  0  0  0  0  0  0  0  0  0  0
    3.3821   18.4810   39.3562 H   0  0  0  0  0  0  0  0  0  0  0  0
    1.0285   21.9083   40.1144 H   0  0  0  0  0  0  0  0  0  0  0  0
   -0.8813   20.4814   40.6590 H   0  0  0  0  0  0  0  0  0  0  0  0
   -0.6656   18.0270   40.5536 H   0  0  0  0  0  0  0  0  0  0  0  0
  1  2  1  0
  1  6  2  0
  2  3  2  0
  3  4  1  0
  3  7  1  0
  4  5  2  0
  5  6  1  0
  7  8  1  0
  7  9  2  0
  2 10  1  0
  4 11  1  0
  5 12  1  0
  6 13  1  0
M  CHG  1   8  -1
M  END
>  <mol_id>  (36) 
2026-09-18-3war-s0-n100-r9-0036

>  <rmsd_to_ref>  (36) 
2.061224489799083

>  <pose_kind>  (36) 
conformer

$$$$
3war.A
     RDKit          3D

 13 13  0  0  0  0  0  0  0  0999 V2000
    2.6206   18.6110   40.9355 N   0  0  0  0  0  0  0  0  0  0  0  0
    3.6858   19.4328   40.4952 C   0  0  0  0  0  0  0  0  0  0  0  0
    3.3726   20.4459   39.5179 C   0  0  0  0  0  0  0  0  0  0  0  0
    2.0878   20.5775   39.0219 C   0  0  0  0  0  0  0  0  0  0  0  0
    1.0766   19.7728   39.4992 C   0  0  0  0  0  0  0  0  0  0  0  0
    1.3631   18.7883   40.4182 C   0  0  0  0  0  0  0  0  0  0  0  0
    4.4860   21.3003   38.9305 C   0  0  0  0  0  0  0  0  0  0  0  0
    5.6192   21.2833   39.4946 O   0  0  0  0  0  0  0  0  0  0  0  0
    4.1750   21.9283   37.9415 O   0  0  0  0  0  0  0  0  0  0  0  0
    4.7077   19.3043   40.8816 H   0  0  0  0  0  0  0  0  0  0  0  0
    1.8733   21.3260   38.2449 H   0  0  0  0  0  0  0  0  0  0  0  0
    0.0442   19.9162   39.1475 H   0  0  0  0  0  0  0  0  0  0  0  0
    0.5544   18.1202   40.7492 H   0  0  0  0  0  0  0  0  0  0  0  0
  1  2  1  0
  1  6  2  0
  2  3  2  0
  3  4  1  0
  3  7  1  0
  4  5  2  0
  5  6  1  0
  7  8  1  0
  7  9  2  0
  2 10  1  0
  4 11  1  0
  5 12  1  0
  6 13  1  0
M  CHG  1   8  -1
M  END
>  <mol_id>  (37) 
2026-09-18-3war-s0-n100-r9-0037

>  <rmsd_to_ref>  (37) 
2.1071428571468127

>  <pose_kind>  (37) 
rigid

$$$$
3war.A
     RDKit          3D

 13 13  0  0  0  0  0  0  0  0999 V2000
    1.1838   20.0731   39.0671 N   0  0  0  0  0  0  0  0  0  0  0  0
    1.2757   19.5266   37.8336 C   0  0  0  0  0  0  0  0  0  0  0  0
    2.4548   19.6387   37.1219 C   0  0  0  0  0  0  0  0  0  0  0  0
    3.5299   20.3051   37.6698 C   0  0  0  0  0  0  0  0  0  0  0  0
    3.4359   20.8700   38.9437 C   0  0  0  0  0  0  0  0  0  0  0  0
    2.2358   20.7297   39.6126 C   0  0  0  0  0  0  0  0  0  0  0  0
    2.6036   19.0721   35.8003 C   0  0  0  0  0  0  0  0  0  0  0  0
    1.5915   18.3804   35.1483 O   0  0  0  0  0  0  0  0  0  0  0  0
    3.7301   19.2278   35.2234 O   0  0  0  0  0  0  0  0  0  0  0  0
    0.4358   19.0011   37.3956 H   0  0  0  0  0  0  0  0  0  0  0  0
    4.4798   20.4339   37.1780 H   0  0  0  0  0  0  0  0  0  0  0  0
    4.2698   21.3881   39.3710 H   0  0  0  0  0  0  0  0  0  0  0  0
    2.1323   21.1544   40.5968 H   0  0  0  0  0  0  0  0  0  0  0  0
  1  2  1  0
  1  6  2  0
  2  3  2  0
  3  4  1  0
  3  7  1  0
  4  5  2  0
  5  6  1  0
  7  8  1  0
  7  9  2  0
  2 10  1  0
  4 11  1  0
  5 12  1  0
  6 13  1  0
M  CHG  1   8  -1
M  END
>  <mol_id>  (38) 
2026-09-18-3war-s0-n100-r9-0038

>  <rmsd_to_ref>  (38) 
2.1530612244910814

>  <pose_kind>  (38) 
conformer

$$$$
3war.A
     RDKit          3D

 13 13  0  0  0  0  0  0  0  0999 V2000
    2.7923   20.0703   39.8158 N   0  0  0  0  0  0  0  0  0  0  0  0
    3.6449   19.2748   39.0132 C   0  0  0  0  0  0  0  0  0  0  0  0
    3.0892   18.7404   37.7946 C   0  0  0  0  0  0  0  0  0  0  0  0
    1.7702   18.9811   37.4532 C   0  0  0  0  0  0  0  0  0  0  0  0
    0.9848   19.7836   38.2513 C   0  0  0  0  0  0  0  0  0  0  0  0
    1.4949   20.2856   39.4275 C   0  0  0  0  0  0  0  0  0  0  0  0
    3.9188   17.7996   36.9336 C   0  0  0  0  0  0  0  0  0  0  0  0
    5.1601   17.7092   37.1649 O   0  0  0  0  0  0  0  0  0  0  0  0
    3.2907   17.2001   36.0878 O   0  0  0  0  0  0  0  0  0  0  0  0
    4.6858   19.0731   39.3063 H   0  0  0  0  0  0  0  0  0  0  0  0
    1.3479   18.5309   36.5427 H   0  0  0  0  0  0  0  0  0  0  0  0
   -0.0459   20.0223   37.9501 H   0  0  0  0  0  0  0  0  0  0  0  0
    0.8381   20.8807   40.0791 H   0  0  0  0  0  0  0  0  0  0  0  0
  1  2  1  0
  1  6  2  0
  2  3  2  0
  3  4  1  0
  3  7  1  0
  4  5  2  0
  5  6  1  0
  7  8  1  0
  7  9  2  0
  2 10  1  0
  4 11  1  0
  5 12  1  0
  6 13  1  0
M  CHG  1   8  -1
M  END
>  <mol_id>  (39) 
2026-09-18-3war-s0-n100-r9-0039

>  <rmsd_to_ref>  (39) 
2.1989795918382575

>  <pose_kind>  (39) 
rigid

$$$$
3war.A
     RDKit          3D

 13 13  0  0  0  0  0  0  0  0999 V2000
    1.5679   21.3750   41.4488 N   0  0  0  0  0  0  0  0  0  0  0  0
    1.6188   20.2447   40.6985 C   0  0  0  0  0  0  0  0  0  0  0  0
    2.1564   20.3042   39.4172 C   0  0  0  0  0  0  0  0  0  0  0  0
    2.6412   21.4834   38.8851 C   0  0  0  0  0  0  0  0  0  0  0  0
    2.5602   22.6005   39.7018 C   0  0  0  0  0  0  0  0  0  0  0  0
    2.0277   22.5500   40.9755 C   0  0  0  0  0  0  0  0  0  0  0  0
    2.2051   19.0776   38.6191 C   0  0  0  0  0  0  0  0  0  0  0  0
    1.7317   17.8863   39.1166 O   0  0  0  0  0  0  0  0  0  0  0  0
    2.7086   19.1905   37.4509 O   0  0  0  0  0  0  0  0  0  0  0  0
    1.2352   19.3269   41.1281 H   0  0  0  0  0  0  0  0  0  0  0  0
    3.0527   21.5168   37.8974 H   0  0  0  0  0  0  0  0  0  0  0  0
    2.9205   23.5574   39.3511 H   0  0  0  0  0  0  0  0  0  0  0  0
    1.9912   23.4720   41.5754 H   0  0  0  0  0  0  0  0  0  0  0  0
  1  2  1  0
  1  6  2  0
  2  3  2  0
  3  4  1  0
  3  7  1  0
  4  5  2  0
  5  6  1  0
  7  8  1  0
  7  9  2  0
  2 10  1  0
  4 11  1  0
  5 12  1  0
  6 13  1  0
M  CHG  1   8  -1
M  END
>  <mol_id>  (40) 
2026-09-18-3war-s0-n100-r9-0040

>  <rmsd_to_ref>  (40) 
2.2448979591856624

>  <pose_kind>  (40) 
conformer

$$$$
3war.A
     RDKit          3D

 13 13  0  0  0  0  0  0  0  0999 V2000
    0.6923   19.8512   39.8129 N   0  0  0  0  0  0  0  0  0  0  0  0
    2.0226   19.3746   39.7273 C   0  0  0  0  0  0  0  0  0  0  0  0
    3.0747   20.3607   39.7331 C   0  0  0  0  0  0  0  0  0  0  0  0
    2.7789   21.7109   39.7921 C   0  0  0  0  0  0  0  0  0  0  0  0
    1.4704   22.1279   39.9013 C   0  0  0  0  0  0  0  0  0  0  0  0
    0.4535   21.1999   39.8780 C   0  0  0  0  0  0  0  0  0  0  0  0
    4.5207   19.9253   39.5477 C   0  0  0  0  0  0  0  0  0  0  0  0
    4.7965   18.6940   39.6505 O   0  0  0  0  0  0  0  0  0  0  0  0
    5.2938   20.8259   39.3019 O   0  0  0  0  0  0  0  0  0  0  0  0
    2.2440   18.2993   39.6595 H   0  0  0  0  0  0  0  0  0  0  0  0
    3.5900   22.4529   39.7517 H   0  0  0  0  0  0  0  0  0  0  0  0
    1.2389   23.1981   40.0067 H   0  0  0  0  0  0  0  0  0  0  0  0
   -0.5876   21.5531   39.9128 H   0  0  0  0  0  0  0  0  0  0  0  0
  1  2  1  0
  1  6  2  0
  2  3  2  0
  3  4  1  0
  3  7  1  0
  4  5  2  0
  5  6  1  0
  7  8  1  0
  7  9  2  0
  2 10  1  0
  4 11  1  0
  5 12  1  0
  6 13  1  0
M  CHG  1   8  -1
M  END
>  <mol_id>  (41) 
2026-09-18-3war-s0-n100-r9-0041

>  <rmsd_to_ref>  (41) 
2.2908163265311923

>  <pose_kind>  (41) 
rigid

$$$$
3war.A
     RDKit          3D

 13 13  0  0  0  0  0  0  0  0999 V2000
    0.1751   19.5607   40.8519 N   0  0  0  0  0  0  0  0  0  0  0  0
    0.5772   18.5781   40.0269 C   0  0  0  0  0  0  0  0  0  0  0  0
    1.8247   18.5863   39.4503 C   0  0  0  0  0  0  0  0  0  0  0  0
    2.6997   19.6185   39.7115 C   0  0  0  0  0  0  0  0  0  0  0  0
    2.2962   20.6425   40.5639 C   0  0  0  0  0  0  0  0  0  0  0  0
    1.0351   20.5713   41.1060 C   0  0  0  0  0  0  0  0  0  0  0  0
    2.2533   17.5185   38.5578 C   0  0  0  0  0  0  0  0  0  0  0  0
    1.3960   16.4746   38.2807 O   0  0  0  0  0  0  0  0  0  0  0  0
    3.4033   17.5680   38.0534 O   0  0  0  0  0  0  0  0  0  0  0  0
   -0.0984   17.7546   39.8081 H   0  0  0  0  0  0  0  0  0  0  0  0
    3.6936   19.6206   39.2492 H   0  0  0  0  0  0  0  0  0  0  0  0
    2.9350   21.4578   40.7947 H   0  0  0  0  0  0  0  0  0  0  0  0
    0.6448   21.3419   41.7880 H   0  0  0  0  0  0  0  0  0  0  0  0
  1  2  1  0
  1  6  2  0
  2  3  2  0
  3  4  1  0
  3  7  1  0
  4  5  2  0
  5  6  1  0
  7  8  1  0
  7  9  2  0
  2 10  1  0
  4 11  1  0
  5 12  1  0
  6 13  1  0
M  CHG  1   8  -1
M  END
>  <mol_id>  (42) 
2026-09-18-3war-s0-n100-r9-0042

>  <rmsd_to_ref>  (42) 
2.3367346938798623

>  <pose_kind>  (42) 
conformer

$$$$
3war.A
     RDKit          3D

 13 13  0  0  0  0  0  0  0  0999 V2000
    1.5321   18.9394   39.0543 N   0  0  0  0  0  0  0  0  0  0  0  0
    2.8102   19.5473   39.0840 C   0  0  0  0  0  0  0  0  0  0  0  0
    2.8600   20.9565   39.3854 C   0  0  0  0  0  0  0  0  0  0  0  0
    1.6981   21.6745   39.6062 C   0  0  0  0  0  0  0  0  0  0  0  0
    0.4776   21.0355   39.5937 C   0  0  0  0  0  0  0  0  0  0  0  0
    0.4117   19.6945   39.2887 C   0  0  0  0  0  0  0  0  0  0  0  0
    4.1902   21.6934   39.3398 C   0  0  0  0  0  0  0  0  0  0  0  0
    5.2553   21.0107   39.2926 O   0  0  0  0  0  0  0  0  0  0  0  0
    4.1005   22.9022   39.3433 O   0  0  0  0  0  0  0  0  0  0  0  0
    3.7253   18.9699   38.8858 H   0  0  0  0  0  0  0  0  0  0  0  0
    1.7489   22.7575   39.7920 H   0  0  0  0  0  0  0  0  0  0  0  0
   -0.4407   21.5946   39.8265 H   0  0  0  0  0  0  0  0  0  0  0  0
   -0.5749   19.2116   39.2310 H   0  0  0  0  0  0  0  0  0  0  0  0
  1  2  1  0
  1  6  2  0
  2  3  2  0
  3  4  1  0
  3  7  1  0
  4  5  2  0
  5  6  1  0
  7  8  1  0
  7  9  2  0
  2 10  1  0
  4 11  1  0
  5 12  1  0
  6 13  1  0
M  CHG  1   8  -1
M  END
>  <mol_id>  (43) 
2026-09-18-3war-s0-n100-r9-0043

>  <rmsd_to_ref>  (43) 
2.3826530612269226

>  <pose_kind>  (43) 
rigid

$$$$
3war.A
     RDKit          3D

 13 13  0  0  0  0  0  0  0  0999 V2000
    4.5341   18.6673   39.1072 N   0  0  0  0  0  0  0  0  0  0  0  0
    4.2624   19.7647   38.3556 C   0  0  0  0  0  0  0  0  0  0  0  0
    3.2267   20.6103   38.7384 C   0  0  0  0  0  0  0  0  0  0  0  0
    2.4648   20.3646   39.8644 C   0  0  0  0  0  0  0  0  0  0  0  0
    2.7930   19.2286   40.5877 C   0  0  0  0  0  0  0  0  0  0  0  0
    3.8201   18.3836   40.2143 C   0  0  0  0  0  0  0  0  0  0  0  0
    2.9447   21.7903   37.9186 C   0  0  0  0  0  0  0  0  0  0  0  0
    3.6826   22.0659   36.7916 O   0  0  0  0  0  0  0  0  0  0  0  0
    1.9836   22.5309   38.3170 O   0  0  0  0  0  0  0  0  0  0  0  0
    4.8677   19.9455   37.4752 H   0  0  0  0  0  0  0  0  0  0  0  0
    1.6699   21.0228   40.1492 H   0  0  0  0  0  0  0  0  0  0  0  0
    2.2391   18.9738   41.4804 H   0  0  0  0  0  0  0  0  0  0  0  0
    4.0320   17.4967   40.8306 H   0  0  0  0  0  0  0  0  0  0  0  0
  1  2  1  0
  1  6  2  0
  2  3  2  0
  3  4  1  0
  3  7  1  0
  4  5  2  0
  5  6  1  0
  7  8  1  0
  7  9  2  0
  2 10  1  0
  4 11  1  0
  5 12  1  0
  6 13  1  0
M  CHG  1   8  -1
M  END
>  <mol_id>  (44) 
2026-09-18-3war-s0-n100-r9-0044

>  <rmsd_to_ref>  (44) 
2.4285714285726607

>  <pose_kind>  (44) 
conformer

$$$$
3war.A
     RDKit          3D

 13 13  0  0  0  0  0  0  0  0999 V2000
    3.2259   17.5136   40.6192 N   0  0  0  0  0  0  0  0  0  0  0  0
    3.3739   18.7850   40.0145 C   0  0  0  0  0  0  0  0  0  0  0  0
    2.2021   19.6231   39.9531 C   0  0  0  0  0  0  0  0  0  0  0  0
    0.9873   19.1781   40.4434 C   0  0  0  0  0  0  0  0  0  0  0  0
    0.8961   17.9435   41.0480 C   0  0  0  0  0  0  0  0  0  0  0  0
    2.0013   17.1238   41.0974 C   0  0  0  0  0  0  0  0  0  0  0  0
    2.2660   20.9613   39.2322 C   0  0  0  0  0  0  0  0  0  0  0  0
    3.4030   21.4269   38.9270 O   0  0  0  0  0  0  0  0  0  0  0  0
    1.1879   21.4656   39.0028 O   0  0  0  0  0  0  0  0  0  0  0  0
    4.3405   19.1189   39.6092 H   0  0  0  0  0  0  0  0  0  0  0  0
    0.0926   19.8112   40.3503 H   0  0  0  0  0  0  0  0  0  0  0  0
   -0.0560   17.6139   41.4895 H   0  0  0  0  0  0  0  0  0  0  0  0
    1.8981   16.1204   41.5361 H   0  0  0  0  0  0  0  0  0  0  0  0
  1  2  1  0
  1  6  2  0
  2  3  2  0
  3  4  1  0
  3  7  1  0
  4  5  2  0
  5  6  1  0
  7  8  1  0
  7  9  2  0
  2 10  1  0
  4 11  1  0
  5 12  1  0
  6 13  1  0
M  CHG  1   8  -1
M  END
>  <mol_id>  (45) 
2026-09-18-3war-s0-n100-r9-0045

>  <rmsd_to_ref>  (45) 
2.4744897959209786

>  <pose_kind>  (45) 
rigid

$$$$
3war.A
     RDKit          3D

 13 13  0  0  0  0  0  0  0  0999 V2000
   -0.0502   18.7707   39.7936 N   0  0  0  0  0  0  0  0  0  0  0  0
    1.1217   18.1127   39.6960 C   0  0  0  0  0  0  0  0  0  0  0  0
    2.3002   18.8006   39.8963 C   0  0  0  0  0  0  0  0  0  0  0  0
    2.3166   20.1464   40.1946 C   0  0  0  0  0  0  0  0  0  0  0  0
    1.0785   20.7888   40.2860 C   0  0  0  0  0  0  0  0  0  0  0  0
   -0.0943   20.0874   40.0830 C   0  0  0  0  0  0  0  0  0  0  0  0
    3.5686   18.0874   39.7904 C   0  0  0  0  0  0  0  0  0  0  0  0
    3.6043   16.7308   39.4919 O   0  0  0  0  0  0  0  0  0  0  0  0
    4.6591   18.6936   39.9691 O   0  0  0  0  0  0  0  0  0  0  0  0
    1.1218   17.0523   39.4615 H   0  0  0  0  0  0  0  0  0  0  0  0
    3.2495   20.6545   40.3451 H   0  0  0  0  0  0  0  0  0  0  0  0
    1.0473   21.8279   40.5146 H   0  0  0  0  0  0  0  0  0  0  0  0
   -1.0193   20.6477   40.1691 H   0  0  0  0  0  0  0  0  0  0  0  0
  1  2  1  0
  1  6  2  0
  2  3  2  0
  3  4  1  0
  3  7  1  0
  4  5  2  0
  5  6  1  0
  7  8  1  0
  7  9  2  0
  2 10  1  0
  4 11  1  0
  5 12  1  0
  6 13  1  0
M  CHG  1   8  -1
M  END
>  <mol_id>  (46) 
2026-09-18-3war-s0-n100-r9-0046

>  <rmsd_to_ref>  (46) 
2.520408163267231

>  <pose_kind>  (46) 
conformer

$$$$
3war.A
     RDKit          3D

 13 13  0  0  0  0  0  0  0  0999 V2000
    1.4061   17.4609   39.9689 N   0  0  0  0  0  0  0  0  0  0  0  0
    2.7037   17.9970   39.7880 C   0  0  0  0  0  0  0  0  0  0  0  0
    3.0288   18.5012   38.4767 C   0  0  0  0  0  0  0  0  0  0  0  0
    2.1107   18.4313   37.4441 C   0  0  0  0  0  0  0  0  0  0  0  0
    0.8498   17.9257   37.6729 C   0  0  0  0  0  0  0  0  0  0  0  0
    0.5304   17.4229   38.9143 C   0  0  0  0  0  0  0  0  0  0  0  0
    4.4354   19.0030   38.1864 C   0  0  0  0  0  0  0  0  0  0  0  0
    5.2147   19.2083   39.1627 O   0  0  0  0  0  0  0  0  0  0  0  0
    4.6871   19.1540   37.0104 O   0  0  0  0  0  0  0  0  0  0  0  0
    3.4322   18.0276   40.6117 H   0  0  0  0  0  0  0  0  0  0  0  0
    2.3881   18.7801   36.4384 H   0  0  0  0  0  0  0  0  0  0  0  0
    0.1011   17.9236   36.8670 H   0  0  0  0  0  0  0  0  0  0  0  0
   -0.4626   16.9746   39.0654 H   0  0  0  0  0  0  0  0  0  0  0  0
  1  2  1  0
  1  6  2  0
  2  3  2  0
  3  4  1  0
  3  7  1  0
  4  5  2  0
  5  6  1  0
  7  8  1  0
  7  9  2  0
  2 10  1  0
  4 11  1  0
  5 12  1  0
  6 13  1  0
M  CHG  1   8  -1
M  END
>  <mol_id>  (47) 
2026-09-18-3war-s0-n100-r9-0047

>  <rmsd_to_ref>  (47) 
2.566326530615663

>  <pose_kind>  (47) 
rigid

$$$$
3war.A
     RDKit          3D

 13 13  0  0  0  0  0  0  0  0999 V2000
    0.8807   17.0438   37.4659 N   0  0  0  0  0  0  0  0  0  0  0  0
    2.1332   17.5337   37.4861 C   0  0  0  0  0  0  0  0  0  0  0  0
    2.4801   18.5660   38.3467 C   0  0  0  0  0  0  0  0  0  0  0  0
    1.5106   19.1002   39.2020 C   0  0  0  0  0  0  0  0  0  0  0  0
    0.2107   18.5819   39.1715 C   0  0  0  0  0  0  0  0  0  0  0  0
   -0.0880   17.5410   38.2855 C   0  0  0  0  0  0  0  0  0  0  0  0
    3.8394   19.0748   38.3468 C   0  0  0  0  0  0  0  0  0  0  0  0
    4.1642   20.1165   39.2243 O   0  0  0  0  0  0  0  0  0  0  0  0
    4.7047   18.5874   37.5733 O   0  0  0  0  0  0  0  0  0  0  0  0
    2.9009   17.1233   36.8208 H   0  0  0  0  0  0  0  0  0  0  0  0
    1.7306   19.8880   39.8747 H   0  0  0  0  0  0  0  0  0  0  0  0
   -0.5658   18.9541   39.8035 H   0  0  0  0  0  0  0  0  0  0  0  0
   -1.0874   17.1265   38.2469 H   0  0  0  0  0  0  0  0  0  0  0  0
  1  2  1  0
  1  6  2  0
  2  3  2  0
  3  4  1  0
  3  7  1  0
  4  5  2  0
  5  6  1  0
  7  8  1  0
  7  9  2  0
  2 10  1  0
  4 11  1  0
  5 12  1  0
  6 13  1  0
M  CHG  1   8  -1
M  END
>  <mol_id>  (48) 
2026-09-18-3war-s0-n100-r9-0048

>  <rmsd_to_ref>  (48) 
2.612244897962344

>  <pose_kind>  (48) 
conformer

$$$$
3war.A
     RDKit          3D

 13 13  0  0  0  0  0  0  0  0999 V2000
    3.1531   19.0475   39.4536 N   0  0  0  0  0  0  0  0  0  0  0  0
    2.2671   19.8008   38.6463 C   0  0  0  0  0  0  0  0  0  0  0  0
    1.9910   21.1540   39.0610 C   0  0  0  0  0  0  0  0  0  0  0  0
    2.5537   21.6693   40.2151 C   0  0  0  0  0  0  0  0  0  0  0  0
    3.4316   20.9085   40.9556 C   0  0  0  0  0  0  0  0  0  0  0  0
    3.6908   19.6085   40.5835 C   0  0  0  0  0  0  0  0  0  0  0  0
    0.9750   21.9877   38.2945 C   0  0  0  0  0  0  0  0  0  0  0  0
    0.5861   21.5725   37.1636 O   0  0  0  0  0  0  0  0  0  0  0  0
    0.6162   22.9970   38.8618 O   0  0  0  0  0  0  0  0  0  0  0  0
    1.8094   19.3726   37.7424 H   0  0  0  0  0  0  0  0  0  0  0  0
    2.2995   22.6884   40.5421 H   0  0  0  0  0  0  0  0  0  0  0  0
    3.9237   21.3381   41.8406 H   0  0  0  0  0  0  0  0  0  0  0  0
    4.3528   18.9980   41.2152 H   0  0  0  0  0  0  0  0  0  0  0  0
  1  2  1  0
  1  6  2  0
  2  3  2  0
  3  4  1  0
  3  7  1  0
  4  5  2  0
  5  6  1  0
  7  8  1  0
  7  9  2  0
  2 10  1  0
  4 11  1  0
  5 12  1  0
  6 13  1  0
M  CHG  1   8  -1
M  END
>  <mol_id>  (49) 
2026-09-18-3war-s0-n100-r9-0049

>  <rmsd_to_ref>  (49) 
2.658163265309008

>  <pose_kind>  (49) 
rigid

$$$$
3war.A
     RDKit          3D

 13 13  0  0  0  0  0  0  0  0999 V2000
    2.2623   19.9120   42.1132 N   0  0  0  0  0  0  0  0  0  0  0  0
    1.6224   20.3396   40.9935 C   0  0  0  0  0  0  0  0  0  0  0  0
    2.2848   20.9769   39.9633 C   0  0  0  0  0  0  0  0  0  0  0  0
    3.6589   21.1936   40.0665 C   0  0  0  0  0  0  0  0  0  0  0  0
    4.3195   20.7551   41.2165 C   0  0  0  0  0  0  0  0  0  0  0  0
    3.6057   20.1237   42.2146 C   0  0  0  0  0  0  0  0  0  0  0  0
    1.5390   21.4162   38.7780 C   0  0  0  0  0  0  0  0  0  0  0  0
    2.2471   22.0577   37.7570 O   0  0  0  0  0  0  0  0  0  0  0  0
    0.3006   21.2374   38.6514 O   0  0  0  0  0  0  0  0  0  0  0  0
    0.5585   20.1889   40.8789 H   0  0  0  0  0  0  0  0  0  0  0  0
    4.2092   21.6943   39.2687 H   0  0  0  0  0  0  0  0  0  0  0  0
    5.3688   20.9212   41.2940 H   0  0  0  0  0  0  0  0  0  0  0  0
    4.0988   19.7741   43.1181 H   0  0  0  0  0  0  0  0  0  0  0  0
  1  2  1  0
  1  6  2  0
  2  3  2  0
  3  4  1  0
  3  7  1  0
  4  5  2  0
  5  6  1  0
  7  8  1  0
  7  9  2  0
  2 10  1  0
  4 11  1  0
  5 12  1  0
  6 13  1  0
M  CHG  1   8  -1
M  END
>  <mol_id>  (50) 
2026-09-18-3war-s0-n100-r9-0050

>  <rmsd_to_ref>  (50) 
2.7040816326537414

>  <pose_kind>  (50) 
conformer

$$$$
3war.A
     RDKit          3D

 13 13  0  0  0  0  0  0  0  0999 V2000
    3.5031   19.7809   40.1863 N   0  0  0  0  0  0  0  0  0  0  0  0
    3.4427   18.4178   39.8092 C   0  0  0  0  0  0  0  0  0  0  0  0
    2.4920   18.0615   38.7851 C   0  0  0  0  0  0  0  0  0  0  0  0
    1.6631   19.0175   38.2255 C   0  0  0  0  0  0  0  0  0  0  0  0
    1.7755   20.3373   38.6043 C   0  0  0  0  0  0  0  0  0  0  0  0
    2.6649   20.6905   39.5943 C   0  0  0  0  0  0  0  0  0  0  0  0
    2.3069   16.6014   38.3996 C   0  0  0  0  0  0  0  0  0  0  0  0
    3.1661   15.7606   38.7961 O   0  0  0  0  0  0  0  0  0  0  0  0
    1.3180   16.3736   37.7367 O   0  0  0  0  0  0  0  0  0  0  0  0
    4.0925   17.6634   40.2768 H   0  0  0  0  0  0  0  0  0  0  0  0
    0.9130   18.7233   37.4767 H   0  0  0  0  0  0  0  0  0  0  0  0
    1.1570   21.1059   38.1178 H   0  0  0  0  0  0  0  0  0  0  0  0
    2.7045   21.7398   39.9220 H   0  0  0  0  0  0  0  0  0  0  0  0
  1  2  1  0
  1  6  2  0
  2  3  2  0
  3  4  1  0
  3  7  1  0
  4  5  2  0
  5  6  1  0
  7  8  1  0
  7  9  2  0
  2 10  1  0
  4 11  1  0
  5 12  1  0
  6 13  1  0
M  CHG  1   8  -1
M  END
>  <mol_id>  (51) 
2026-09-18-3war-s0-n100-r9-0051

>  <rmsd_to_ref>  (51) 
2.7500000000014926

>  <pose_kind>  (51) 
rigid

$$$$
3war.A
     RDKit          3D

 13 13  0  0  0  0  0  0  0  0999 V2000
    0.4452   20.2047   40.7098 N   0  0  0  0  0  0  0  0  0  0  0  0
    1.6961   19.7700   40.9863 C   0  0  0  0  0  0  0  0  0  0  0  0
    2.6993   20.1902   40.1498 C   0  0  0  0  0  0  0  0  0  0  0  0
    2.4720   21.0126   39.0765 C   0  0  0  0  0  0  0  0  0  0  0  0
    1.1825   21.4352   38.8267 C   0  0  0  0  0  0  0  0  0  0  0  0
    0.1575   21.0079   39.6784 C   0  0  0  0  0  0  0  0  0  0  0  0
    4.0671   19.7475   40.4073 C   0  0  0  0  0  0  0  0  0  0  0  0
    4.3557   18.9059   41.4914 O   0  0  0  0  0  0  0  0  0  0  0  0
    5.0208   20.1104   39.6625 O   0  0  0  0  0  0  0  0  0  0  0  0
    1.8893   19.1205   41.8305 H   0  0  0  0  0  0  0  0  0  0  0  0
    3.2583   21.3562   38.4013 H   0  0  0  0  0  0  0  0  0  0  0  0
    0.9276   22.0849   37.9980 H   0  0  0  0  0  0  0  0  0  0  0  0
   -0.8612   21.3020   39.5357 H   0  0  0  0  0  0  0  0  0  0  0  0
  1  2  1  0
  1  6  2  0
  2  3  2  0
  3  4  1  0
  3  7  1  0
  4  5  2  0
  5  6  1  0
  7  8  1  0
  7  9  2  0
  2 10  1  0
  4 11  1  0
  5 12  1  0
  6 13  1  0
M  CHG  1   8  -1
M  END
>  <mol_id>  (52) 
2026-09-18-3war-s0-n100-r9-0052

>  <rmsd_to_ref>  (52) 
2.795918367350131

>  <pose_kind>  (52) 
conformer

$$$$
3war.A
     RDKit          3D

 13 13  0  0  0  0  0  0  0  0999 V2000
    5.3265   21.0105   39.5087 N   0  0  0  0  0  0  0  0  0  0  0  0
    4.2708   20.7013   38.6176 C   0  0  0  0  0  0  0  0  0  0  0  0
    2.9310   21.0021   39.0577 C   0  0  0  0  0  0  0  0  0  0  0  0
    2.7023   21.5435   40.3102 C   0  0  0  0  0  0  0  0  0  0  0  0
    3.7625   21.8530   41.1338 C   0  0  0  0  0  0  0  0  0  0  0  0
    5.0463   21.5543   40.7359 C   0  0  0  0  0  0  0  0  0  0  0  0
    1.7438   20.6085   38.1915 C   0  0  0  0  0  0  0  0  0  0  0  0
    1.9615   20.2611   36.9938 O   0  0  0  0  0  0  0  0  0  0  0  0
    0.6696   20.6573   38.7510 O   0  0  0  0  0  0  0  0  0  0  0  0
    4.4641   20.2513   37.6327 H   0  0  0  0  0  0  0  0  0  0  0  0
    1.6720   21.7271   40.6492 H   0  0  0  0  0  0  0  0  0  0  0  0
    3.5840   22.3368   42.1054 H   0  0  0  0  0  0  0  0  0  0  0  0
    5.8770   21.7593   41.4273 H   0  0  0  0  0  0  0  0  0  0  0  0
  1  2  1  0
  1  6  2  0
  2  3  2  0
  3  4  1  0
  3  7  1  0
  4  5  2  0
  5  6  1  0
  7  8  1  0
  7  9  2  0
  2 10  1  0
  4 11  1  0
  5 12  1  0
  6 13  1  0
M  CHG  1   8  -1
M  END
>  <mol_id>  (53) 
2026-09-18-3war-s0-n100-r9-0053

>  <rmsd_to_ref>  (53) 
2.841836734696219

>  <pose_kind>  (53) 
rigid

$$$$
3war.A
     RDKit          3D

 13 13  0  0  0  0  0  0  0  0999 V2000
    1.6112   16.9993   38.5142 N   0  0  0  0  0  0  0  0  0  0  0  0
    2.6948   17.8220   38.6354 C   0  0  0  0  0  0  0  0  0  0  0  0
    2.8025   18.6904   39.7258 C   0  0  0  0  0  0  0  0  0  0  0  0
    1.8050   18.7187   40.6911 C   0  0  0  0  0  0  0  0  0  0  0  0
    0.7384   17.8675   40.5150 C   0  0  0  0  0  0  0  0  0  0  0  0
    0.6292   17.0096   39.4405 C   0  0  0  0  0  0  0  0  0  0  0  0
    3.9823   19.5420   39.7972 C   0  0  0  0  0  0  0  0  0  0  0  0
    4.0861   20.4026   40.8805 O   0  0  0  0  0  0  0  0  0  0  0  0
    4.8996   19.5433   38.9469 O   0  0  0  0  0  0  0  0  0  0  0  0
    3.4497   17.7781   37.8740 H   0  0  0  0  0  0  0  0  0  0  0  0
    1.8847   19.3883   41.5349 H   0  0  0  0  0  0  0  0  0  0  0  0
   -0.0393   17.9016   41.2841 H   0  0  0  0  0  0  0  0  0  0  0  0
   -0.2278   16.3563   39.3410 H   0  0  0  0  0  0  0  0  0  0  0  0
  1  2  1  0
  1  6  2  0
  2  3  2  0
  3  4  1  0
  3  7  1  0
  4  5  2  0
  5  6  1  0
  7  8  1  0
  7  9  2  0
  2 10  1  0
  4 11  1  0
  5 12  1  0
  6 13  1  0
M  CHG  1   8  -1
M  END
>  <mol_id>  (54) 
2026-09-18-3war-s0-n100-r9-0054

>  <rmsd_to_ref>  (54) 
2.887755102041811

>  <pose_kind>  (54) 
conformer

$$$$
3war.A
     RDKit          3D

 13 13  0  0  0  0  0  0  0  0999 V2000
    1.4543   19.9710   36.3881 N   0  0  0  0  0  0  0  0  0  0  0  0
    2.8549   20.1024   36.5470 C   0  0  0  0  0  0  0  0  0  0  0  0
    3.3209   20.7660   37.7394 C   0  0  0  0  0  0  0  0  0  0  0  0
    2.4245   21.2710   38.6644 C   0  0  0  0  0  0  0  0  0  0  0  0
    1.0703   21.0964   38.4816 C   0  0  0  0  0  0  0  0  0  0  0  0
    0.6088   20.4820   37.3391 C   0  0  0  0  0  0  0  0  0  0  0  0
    4.8079   21.0264   37.9283 C   0  0  0  0  0  0  0  0  0  0  0  0
    5.6248   20.4316   37.1657 O   0  0  0  0  0  0  0  0  0  0  0  0
    5.0769   21.8107   38.8125 O   0  0  0  0  0  0  0  0  0  0  0  0
    3.5569   19.7152   35.7938 H   0  0  0  0  0  0  0  0  0  0  0  0
    2.7939   21.8130   39.5475 H   0  0  0  0  0  0  0  0  0  0  0  0
    0.3603   21.4466   39.2454 H   0  0  0  0  0  0  0  0  0  0  0  0
   -0.4769   20.3979   37.1837 H   0  0  0  0  0  0  0  0  0  0  0  0
  1  2  1  0
  1  6  2  0
  2  3  2  0
  3  4  1  0
  3  7  1  0
  4  5  2  0
  5  6  1  0
  7  8  1  0
  7  9  2  0
  2 10  1  0
  4 11  1  0
  5 12  1  0
  6 13  1  0
M  CHG  1   8  -1
M  END
>  <mol_id>  (55) 
2026-09-18-3war-s0-n100-r9-0055

>  <rmsd_to_ref>  (55) 
2.9336734693888187

>  <pose_kind>  (55) 
rigid

$$$$
3war.A
     RDKit          3D

 13 13  0  0  0  0  0  0  0  0999 V2000
   -0.3244   18.9037   40.5682 N   0  0  0  0  0  0  0  0  0  0  0  0
   -0.0164   18.6702   39.2953 C   0  0  0  0  0  0  0  0  0  0  0  0
    0.9407   17.7196   39.0255 C   0  0  0  0  0  0  0  0  0  0  0  0
    1.5493   17.0417   40.0545 C   0  0  0  0  0  0  0  0  0  0  0  0
    1.2112   17.3023   41.3808 C   0  0  0  0  0  0  0  0  0  0  0  0
    0.2459   18.2636   41.6120 C   0  0  0  0  0  0  0  0  0  0  0  0
    1.3021   17.4377   37.6601 C   0  0  0  0  0  0  0  0  0  0  0  0
    2.2551   16.4959   37.3135 O   0  0  0  0  0  0  0  0  0  0  0  0
    0.7481   18.0567   36.6924 O   0  0  0  0  0  0  0  0  0  0  0  0
   -0.4750   19.1843   38.4648 H   0  0  0  0  0  0  0  0  0  0  0  0
    2.2860   16.3118   39.8160 H   0  0  0  0  0  0  0  0  0  0  0  0
    1.6693   16.7892   42.2038 H   0  0  0  0  0  0  0  0  0  0  0  0
   -0.0889   18.5413   42.6043 H   0  0  0  0  0  0  0  0  0  0  0  0
  1  2  1  0
  1  6  2  0
  2  3  2  0
  3  4  1  0
  3  7  1  0
  4  5  2  0
  5  6  1  0
  7  8  1  0
  7  9  2  0
  2 10  1  0
  4 11  1  0
  5 12  1  0
  6 13  1  0
M  CHG  1   8  -1
M  END
>  <mol_id>  (56) 
2026-09-18-3war-s0-n100-r9-0056

>  <rmsd_to_ref>  (56) 
2.979591836735544

>  <pose_kind>  (56) 
conformer

$$$$
3war.A
     RDKit          3D

 13 13  0  0  0  0  0  0  0  0999 V2000
    0.1235   20.3902   39.4247 N   0  0  0  0  0  0  0  0  0  0  0  0
    1.2682   19.6515   39.8092 C   0  0  0  0  0  0  0  0  0  0  0  0
    2.3405   20.3824   40.4380 C   0  0  0  0  0  0  0  0  0  0  0  0
    2.2502   21.7503   40.6248 C   0  0  0  0  0  0  0  0  0  0  0  0
    1.1055   22.4240   40.2590 C   0  0  0  0  0  0  0  0  0  0  0  0
    0.0808   21.7437   39.6402 C   0  0  0  0  0  0  0  0  0  0  0  0
    3.6378   19.6695   40.7895 C   0  0  0  0  0  0  0  0  0  0  0  0
    3.6559   18.4040   40.7611 O   0  0  0  0  0  0  0  0  0  0  0  0
    4.5622   20.4044   41.0626 O   0  0  0  0  0  0  0  0  0  0  0  0
    1.3368   18.5674   39.6360 H   0  0  0  0  0  0  0  0  0  0  0  0
    3.0940   22.3009   41.0662 H   0  0  0  0  0  0  0  0  0  0  0  0
    1.0107   23.5012   40.4606 H   0  0  0  0  0  0  0  0  0  0  0  0
   -0.8038   22.3062   39.3069 H   0  0  0  0  0  0  0  0  0  0  0  0
  1  2  1  0
  1  6  2  0
  2  3  2  0
  3  4  1  0
  3  7  1  0
  4  5  2  0
  5  6  1  0
  7  8  1  0
  7  9  2  0
  2 10  1  0
  4 11  1  0
  5 12  1  0
  6 13  1  0
M  CHG  1   8  -1
M  END
>  <mol_id>  (57) 
2026-09-18-3war-s0-n100-r9-0057

>  <rmsd_to_ref>  (57) 
3.025510204081812

>  <pose_kind>  (57) 
rigid

$$$$
3war.A
     RDKit          3D

 13 13  0  0  0  0  0  0  0  0999 V2000
    1.9630   21.4477   38.7751 N   0  0  0  0  0  0  0  0  0  0  0  0
    2.5324   20.2239   38.8929 C   0  0  0  0  0  0  0  0  0  0  0  0
    3.6916   19.9189   38.2078 C   0  0  0  0  0  0  0  0  0  0  0  0
    4.2985   20.8518   37.3869 C   0  0  0  0  0  0  0  0  0  0  0  0
    3.6999   22.1020   37.2784 C   0  0  0  0  0  0  0  0  0  0  0  0
    2.5319   22.3954   37.9746 C   0  0  0  0  0  0  0  0  0  0  0  0
    4.2560   18.5838   38.3763 C   0  0  0  0  0  0  0  0  0  0  0  0
    5.4333   18.2637   37.6848 O   0  0  0  0  0  0  0  0  0  0  0  0
    3.7176   17.7211   39.1193 O   0  0  0  0  0  0  0  0  0  0  0  0
    2.0409   19.5023   39.5434 H   0  0  0  0  0  0  0  0  0  0  0  0
    5.2078   20.5983   36.8555 H   0  0  0  0  0  0  0  0  0  0  0  0
    4.1431   22.8535   36.6492 H   0  0  0  0  0  0  0  0  0  0  0  0
    2.1018   23.3819   37.8593 H   0  0  0  0  0  0  0  0  0  0  0  0
  1  2  1  0
  1  6  2  0
  2  3  2  0
  3  4  1  0
  3  7  1  0
  4  5  2  0
  5  6  1  0
  7  8  1  0
  7  9  2  0
  2 10  1  0
  4 11  1  0
  5 12  1  0
  6 13  1  0
M  CHG  1   8  -1
M  END
>  <mol_id>  (58) 
2026-09-18-3war-s0-n100-r9-0058

>  <rmsd_to_ref>  (58) 
3.0714285714321763

>  <pose_kind>  (58) 
conformer

$$$$
3war.A
     RDKit          3D

 13 13  0  0  0  0  0  0  0  0999 V2000
   -0.6040   20.4640   40.6366 N   0  0  0  0  0  0  0  0  0  0  0  0
    0.5596   19.7910   41.0806 C   0  0  0  0  0  0  0  0  0  0  0  0
    1.6378   19.6496   40.1336 C   0  0  0  0  0  0  0  0  0  0  0  0
    1.5138   20.1319   38.8428 C   0  0  0  0  0  0  0  0  0  0  0  0
    0.3730   20.8041   38.4625 C   0  0  0  0  0  0  0  0  0  0  0  0
   -0.6729   20.9307   39.3490 C   0  0  0  0  0  0  0  0  0  0  0  0
    2.8783   18.8545   40.5127 C   0  0  0  0  0  0  0  0  0  0  0  0
    3.0518   18.5538   41.7301 O   0  0  0  0  0  0  0  0  0  0  0  0
    3.6003   18.5674   39.5824 O   0  0  0  0  0  0  0  0  0  0  0  0
    0.6378   19.3933   42.1032 H   0  0  0  0  0  0  0  0  0  0  0  0
    2.3275   19.9782   38.1188 H   0  0  0  0  0  0  0  0  0  0  0  0
    0.2980   21.2381   37.4545 H   0  0  0  0  0  0  0  0  0  0  0  0
   -1.5967   21.4238   39.0124 H   0  0  0  0  0  0  0  0  0  0  0  0
  1  2  1  0
  1  6  2  0
  2  3  2  0
  3  4  1  0
  3  7  1  0
  4  5  2  0
  5  6  1  0
  7  8  1  0
  7  9  2  0
  2 10  1  0
  4 11  1  0
  5 12  1  0
  6 13  1  0
M  CHG  1   8  -1
M  END
>  <mol_id>  (59) 
2026-09-18-3war-s0-n100-r9-0059

>  <rmsd_to_ref>  (59) 
3.1173469387785597

>  <pose_kind>  (59) 
rigid

$$$$
3war.A
     RDKit          3D

 13 13  0  0  0  0  0  0  0  0999 V2000
    3.5997   19.8988   39.0773 N   0  0  0  0  0  0  0  0  0  0  0  0
    2.5797   20.1033   38.1934 C   0  0  0  0  0  0  0  0  0  0  0  0
    2.8070   20.3624   36.8618 C   0  0  0  0  0  0  0  0  0  0  0  0
    4.1176   20.4104   36.4382 C   0  0  0  0  0  0  0  0  0  0  0  0
    5.1784   20.2051   37.3201 C   0  0  0  0  0  0  0  0  0  0  0  0
    4.8736   19.9500   38.6424 C   0  0  0  0  0  0  0  0  0  0  0  0
    1.6892   20.5787   35.9326 C   0  0  0  0  0  0  0  0  0  0  0  0
    1.9905   20.8366   34.5971 O   0  0  0  0  0  0  0  0  0  0  0  0
    0.4887   20.5401   36.2938 O   0  0  0  0  0  0  0  0  0  0  0  0
    1.5750   20.0525   38.5885 H   0  0  0  0  0  0  0  0  0  0  0  0
    4.3634   20.6120   35.3922 H   0  0  0  0  0  0  0  0  0  0  0  0
    6.1947   20.2522   36.9420 H   0  0  0  0  0  0  0  0  0  0  0  0
    5.7104   19.7933   39.3119 H   0  0  0  0  0  0  0  0  0  0  0  0
  1  2  1  0
  1  6  2  0
  2  3  2  0
  3  4  1  0
  3  7  1  0
  4  5  2  0
  5  6  1  0
  7  8  1  0
  7  9  2  0
  2 10  1  0
  4 11  1  0
  5 12  1  0
  6 13  1  0
M  CHG  1   8  -1
M  END
>  <mol_id>  (60) 
2026-09-18-3war-s0-n100-r9-0060

>  <rmsd_to_ref>  (60) 
3.1632653061234075

>  <pose_kind>  (60) 
conformer

$$$$
3war.A
     RDKit          3D

 13 13  0  0  0  0  0  0  0  0999 V2000
    0.2156   20.1555   36.1936 N   0  0  0  0  0  0  0  0  0  0  0  0
    1.3806   20.9499   36.0681 C   0  0  0  0  0  0  0  0  0  0  0  0
    2.2632   21.0053   37.2071 C   0  0  0  0  0  0  0  0  0  0  0  0
    1.9562   20.3282   38.3738 C   0  0  0  0  0  0  0  0  0  0  0  0
    0.8246   19.5454   38.4416 C   0  0  0  0  0  0  0  0  0  0  0  0
   -0.0380   19.4972   37.3695 C   0  0  0  0  0  0  0  0  0  0  0  0
    3.4826   21.9146   37.1757 C   0  0  0  0  0  0  0  0  0  0  0  0
    3.8399   22.4043   36.0644 O   0  0  0  0  0  0  0  0  0  0  0  0
    4.0067   22.0971   38.2534 O   0  0  0  0  0  0  0  0  0  0  0  0
    1.6028   21.5007   35.1422 H   0  0  0  0  0  0  0  0  0  0  0  0
    2.6169   20.4150   39.2490 H   0  0  0  0  0  0  0  0  0  0  0  0
    0.6109   18.9611   39.3488 H   0  0  0  0  0  0  0  0  0  0  0  0
   -0.9635   18.9096   37.4594 H   0  0  0  0  0  0  0  0  0  0  0  0
  1  2  1  0
  1  6  2  0
  2  3  2  0
  3  4  1  0
  3  7  1  0
  4  5  2  0
  5  6  1  0
  7  8  1  0
  7  9  2  0
  2 10  1  0
  4 11  1  0
  5 12  1  0
  6 13  1  0
M  CHG  1   8  -1
M  END
>  <mol_id>  (61) 
2026-09-18-3war-s0-n100-r9-0061

>  <rmsd_to_ref>  (61) 
3.209183673471459

>  <pose_kind>  (61) 
rigid

$$$$
3war.A
     RDKit          3D

 13 13  0  0  0  0  0  0  0  0999 V2000
    2.8211   22.9204   40.1684 N   0  0  0  0  0  0  0  0  0  0  0  0
    2.3766   21.6452   40.1613 C   0  0  0  0  0  0  0  0  0  0  0  0
    2.1024   21.0871   38.9281 C   0  0  0  0  0  0  0  0  0  0  0  0
    2.2621   21.7669   37.7400 C   0  0  0  0  0  0  0  0  0  0  0  0
    2.7219   23.0731   37.8152 C   0  0  0  0  0  0  0  0  0  0  0  0
    3.0015   23.6474   39.0451 C   0  0  0  0  0  0  0  0  0  0  0  0
    1.6178   19.7078   38.8637 C   0  0  0  0  0  0  0  0  0  0  0  0
    1.4351   18.9644   40.0379 O   0  0  0  0  0  0  0  0  0  0  0  0
    1.3625   19.1821   37.7478 O   0  0  0  0  0  0  0  0  0  0  0  0
    2.2293   21.0581   41.0433 H   0  0  0  0  0  0  0  0  0  0  0  0
    2.0616   21.3707   36.7738 H   0  0  0  0  0  0  0  0  0  0  0  0
    2.8573   23.6334   36.8935 H   0  0  0  0  0  0  0  0  0  0  0  0
    3.3581   24.6650   39.0798 H   0  0  0  0  0  0  0  0  0  0  0  0
  1  2  1  0
  1  6  2  0
  2  3  2  0
  3  4  1  0
  3  7  1  0
  4  5  2  0
  5  6  1  0
  7  8  1  0
  7  9  2  0
  2 10  1  0
  4 11  1  0
  5 12  1  0
  6 13  1  0
M  CHG  1   8  -1
M  END
>  <mol_id>  (62) 
2026-09-18-3war-s0-n100-r9-0062

>  <rmsd_to_ref>  (62) 
3.255102040817643

>  <pose_kind>  (62) 
conformer

$$$$
3war.A
     RDKit          3D

 13 13  0  0  0  0  0  0  0  0999 V2000
    4.5376   18.6355   39.6536 N   0  0  0  0  0  0  0  0  0  0  0  0
    3.4194   19.4063   39.2542 C   0  0  0  0  0  0  0  0  0  0  0  0
    2.6662   20.0592   40.2962 C   0  0  0  0  0  0  0  0  0  0  0  0
    3.0178   19.9062   41.6255 C   0  0  0  0  0  0  0  0  0  0  0  0
    4.1300   19.1680   41.9660 C   0  0  0  0  0  0  0  0  0  0  0  0
    4.8484   18.5229   40.9844 C   0  0  0  0  0  0  0  0  0  0  0  0
    1.3983   20.8242   39.9473 C   0  0  0  0  0  0  0  0  0  0  0  0
    1.1710   21.0897   38.7305 O   0  0  0  0  0  0  0  0  0  0  0  0
    0.6996   21.1072   40.8965 O   0  0  0  0  0  0  0  0  0  0  0  0
    3.1375   19.5030   38.1953 H   0  0  0  0  0  0  0  0  0  0  0  0
    2.4080   20.3748   42.4121 H   0  0  0  0  0  0  0  0  0  0  0  0
    4.4430   19.0944   43.0179 H   0  0  0  0  0  0  0  0  0  0  0  0
    5.7022   17.8947   41.2783 H   0  0  0  0  0  0  0  0  0  0  0  0
  1  2  1  0
  1  6  2  0
  2  3  2  0
  3  4  1  0
  3  7  1  0
  4  5  2  0
  5  6  1  0
  7  8  1  0
  7  9  2  0
  2 10  1  0
  4 11  1  0
  5 12  1  0
  6 13  1  0
M  CHG  1   8  -1
M  END
>  <mol_id>  (63) 
2026-09-18-3war-s0-n100-r9-0063

>  <rmsd_to_ref>  (63) 
3.301020408163785

>  <pose_kind>  (63) 
rigid

$$$$
3war.A
     RDKit          3D

 13 13  0  0  0  0  0  0  0  0999 V2000
    2.8520   19.7942   39.0811 N   0  0  0  0  0  0  0  0  0  0  0  0
    1.6165   20.1547   38.6321 C   0  0  0  0  0  0  0  0  0  0  0  0
    0.5804   20.2720   39.5366 C   0  0  0  0  0  0  0  0  0  0  0  0
    0.7300   20.0410   40.8888 C   0  0  0  0  0  0  0  0  0  0  0  0
    2.0088   19.6751   41.3036 C   0  0  0  0  0  0  0  0  0  0  0  0
    3.0508   19.5560   40.4020 C   0  0  0  0  0  0  0  0  0  0  0  0
   -0.7370   20.6588   39.0412 C   0  0  0  0  0  0  0  0  0  0  0  0
   -0.9588   20.9066   37.6923 O   0  0  0  0  0  0  0  0  0  0  0  0
   -1.7178   20.7809   39.8208 O   0  0  0  0  0  0  0  0  0  0  0  0
    1.4834   20.3395   37.5727 H   0  0  0  0  0  0  0  0  0  0  0  0
   -0.0840   20.1340   41.5938 H   0  0  0  0  0  0  0  0  0  0  0  0
    2.2294   19.4723   42.3427 H   0  0  0  0  0  0  0  0  0  0  0  0
    4.0319   19.2680   40.7702 H   0  0  0  0  0  0  0  0  0  0  0  0
  1  2  1  0
  1  6  2  0
  2  3  2  0
  3  4  1  0
  3  7  1  0
  4  5  2  0
  5  6  1  0
  7  8  1  0
  7  9  2  0
  2 10  1  0
  4 11  1  0
  5 12  1  0
  6 13  1  0
M  CHG  1   8  -1
M  END
>  <mol_id>  (64) 
2026-09-18-3war-s0-n100-r9-0064

>  <rmsd_to_ref>  (64) 
3.3469387755135607

>  <pose_kind>  (64) 
conformer

$$$$
3war.A
     RDKit          3D

 13 13  0  0  0  0  0  0  0  0999 V2000
    1.0650   16.1572   38.8183 N   0  0  0  0  0  0  0  0  0  0  0  0
    1.3872   17.4315   38.2925 C   0  0  0  0  0  0  0  0  0  0  0  0
    2.7831   17.7150   38.0677 C   0  0  0  0  0  0  0  0  0  0  0  0
    3.7545   16.7819   38.3834 C   0  0  0  0  0  0  0  0  0  0  0  0
    3.3928   15.5442   38.8681 C   0  0  0  0  0  0  0  0  0  0  0  0
    2.0657   15.2650   39.1062 C   0  0  0  0  0  0  0  0  0  0  0  0
    3.2077   19.0975   37.5952 C   0  0  0  0  0  0  0  0  0  0  0  0
    2.3164   19.8862   37.1635 O   0  0  0  0  0  0  0  0  0  0  0  0
    4.3950   19.3228   37.6890 O   0  0  0  0  0  0  0  0  0  0  0  0
    0.6069   18.1728   38.0654 H   0  0  0  0  0  0  0  0  0  0  0  0
    4.8178   17.0288   38.2471 H   0  0  0  0  0  0  0  0  0  0  0  0
    4.1612   14.7819   39.0642 H   0  0  0  0  0  0  0  0  0  0  0  0
    1.7987   14.2914   39.5430 H   0  0  0  0  0  0  0  0  0  0  0  0
  1  2  1  0
  1  6  2  0
  2  3  2  0
  3  4  1  0
  3  7  1  0
  4  5  2  0
  5  6  1  0
  7  8  1  0
  7  9  2  0
  2 10  1  0
  4 11  1  0
  5 12  1  0
  6 13  1  0
M  CHG  1   8  -1
M  END
>  <mol_id>  (65) 
2026-09-18-3war-s0-n100-r9-0065

>  <rmsd_to_ref>  (65) 
3.3928571428581007

>  <pose_kind>  (65) 
rigid

$$$$
3war.A
     RDKit          3D

 13 13  0  0  0  0  0  0  0  0999 V2000
    3.4972   19.3410   41.0957 N   0  0  0  0  0  0  0  0  0  0  0  0
    2.1924   19.0075   41.0915 C   0  0  0  0  0  0  0  0  0  0  0  0
    1.2596   19.8666   40.5461 C   0  0  0  0  0  0  0  0  0  0  0  0
    1.7101   21.0527   40.0183 C   0  0  0  0  0  0  0  0  0  0  0  0
    3.0502   21.3989   40.0208 C   0  0  0  0  0  0  0  0  0  0  0  0
    3.9360   20.4956   40.5819 C   0  0  0  0  0  0  0  0  0  0  0  0
   -0.1512   19.5439   40.5229 C   0  0  0  0  0  0  0  0  0  0  0  0
   -1.0596   20.4187   39.9729 O   0  0  0  0  0  0  0  0  0  0  0  0
   -0.5280   18.4462   41.0165 O   0  0  0  0  0  0  0  0  0  0  0  0
    1.9049   18.0759   41.5147 H   0  0  0  0  0  0  0  0  0  0  0  0
    0.9913   21.7396   39.5857 H   0  0  0  0  0  0  0  0  0  0  0  0
    3.4126   22.3365   39.6043 H   0  0  0  0  0  0  0  0  0  0  0  0
    4.9974   20.7006   40.6180 H   0  0  0  0  0  0  0  0  0  0  0  0
  1  2  1  0
  1  6  2  0
  2  3  2  0
  3  4  1  0
  3  7  1  0
  4  5  2  0
  5  6  1  0
  7  8  1  0
  7  9  2  0
  2 10  1  0
  4 11  1  0
  5 12  1  0
  6 13  1  0
M  CHG  1   8  -1
M  END
>  <mol_id>  (66) 
2026-09-18-3war-s0-n100-r9-0066

>  <rmsd_to_ref>  (66) 
3.438775510204871

>  <pose_kind>  (66) 
conformer

$$$$
3war.A
     RDKit          3D

 13 13  0  0  0  0  0  0  0  0999 V2000
    2.7422   20.6716   40.6268 N   0  0  0  0  0  0  0  0  0  0  0  0
    1.7603   19.6612   40.7651 C   0  0  0  0  0  0  0  0  0  0  0  0
    0.6317   19.7155   39.8691 C   0  0  0  0  0  0  0  0  0  0  0  0
    0.5149   20.7331   38.9390 C   0  0  0  0  0  0  0  0  0  0  0  0
    1.5085   21.6802   38.8220 C   0  0  0  0  0  0  0  0  0  0  0  0
    2.5828   21.6532   39.6827 C   0  0  0  0  0  0  0  0  0  0  0  0
   -0.5068   18.7185   40.0251 C   0  0  0  0  0  0  0  0  0  0  0  0
   -0.3243   17.7072   40.7644 O   0  0  0  0  0  0  0  0  0  0  0  0
   -1.5154   19.0013   39.4152 O   0  0  0  0  0  0  0  0  0  0  0  0
    1.8540   18.8694   41.5229 H   0  0  0  0  0  0  0  0  0  0  0  0
   -0.3729   20.7860   38.2918 H   0  0  0  0  0  0  0  0  0  0  0  0
    1.4438   22.4551   38.0439 H   0  0  0  0  0  0  0  0  0  0  0  0
    3.3404   22.4474   39.6104 H   0  0  0  0  0  0  0  0  0  0  0  0
  1  2  1  0
  1  6  2  0
  2  3  2  0
  3  4  1  0
  3  7  1  0
  4  5  2  0
  5  6  1  0
  7  8  1  0
  7  9  2  0
  2 10  1  0
  4 11  1  0
  5 12  1  0
  6 13  1  0
M  CHG  1   8  -1
M  END
>  <mol_id>  (67) 
2026-09-18-3war-s0-n100-r9-0067

>  <rmsd_to_ref>  (67) 
3.484693877553945

>  <pose_kind>  (67) 
rigid

$$$$
3war.A
     RDKit          3D

 13 13  0  0  0  0  0  0  0  0999 V2000
    1.0096   16.8306   38.6388 N   0  0  0  0  0  0  0  0  0  0  0  0
    1.4040   18.0886   38.8160 C   0  0  0  0  0  0  0  0  0  0  0  0
    2.0607   18.4022   39.9834 C   0  0  0  0  0  0  0  0  0  0  0  0
    2.2930   17.4303   40.9268 C   0  0  0  0  0  0  0  0  0  0  0  0
    1.8711   16.1185   40.7206 C   0  0  0  0  0  0  0  0  0  0  0  0
    1.2150   15.8422   39.5363 C   0  0  0  0  0  0  0  0  0  0  0  0
    2.5037   19.7533   40.2127 C   0  0  0  0  0  0  0  0  0  0  0  0
    3.1695   20.1416   41.3621 O   0  0  0  0  0  0  0  0  0  0  0  0
    2.2970   20.6684   39.3487 O   0  0  0  0  0  0  0  0  0  0  0  0
    1.2375   18.8748   38.0958 H   0  0  0  0  0  0  0  0  0  0  0  0
    2.8032   17.7017   41.8203 H   0  0  0  0  0  0  0  0  0  0  0  0
    2.0384   15.3397   41.4388 H   0  0  0  0  0  0  0  0  0  0  0  0
    0.8467   14.8565   39.2782 H   0  0  0  0  0  0  0  0  0  0  0  0
  1  2  1  0
  1  6  2  0
  2  3  2  0
  3  4  1  0
  3  7  1  0
  4  5  2  0
  5  6  1  0
  7  8  1  0
  7  9  2  0
  2 10  1  0
  4 11  1  0
  5 12  1  0
  6 13  1  0
M  CHG  1   8  -1
M  END
>  <mol_id>  (68) 
2026-09-18-3war-s0-n100-r9-0068

>  <rmsd_to_ref>  (68) 
3.530612244899101

>  <pose_kind>  (68) 
conformer

$$$$
3war.A
     RDKit          3D

 13 13  0  0  0  0  0  0  0  0999 V2000
    2.5033   18.1591   38.1516 N   0  0  0  0  0  0  0  0  0  0  0  0
    1.9323   19.4537   38.1054 C   0  0  0  0  0  0  0  0  0  0  0  0
    0.5006   19.5346   37.9535 C   0  0  0  0  0  0  0  0  0  0  0  0
   -0.2640   18.3881   37.8316 C   0  0  0  0  0  0  0  0  0  0  0  0
    0.3316   17.1483   37.9090 C   0  0  0  0  0  0  0  0  0  0  0  0
    1.6995   17.0543   38.0348 C   0  0  0  0  0  0  0  0  0  0  0  0
   -0.1683   20.8925   37.8004 C   0  0  0  0  0  0  0  0  0  0  0  0
    0.5070   21.9296   38.0665 O   0  0  0  0  0  0  0  0  0  0  0  0
   -1.3175   20.8511   37.4169 O   0  0  0  0  0  0  0  0  0  0  0  0
    2.5536   20.3582   38.1821 H   0  0  0  0  0  0  0  0  0  0  0  0
   -1.3497   18.4666   37.6727 H   0  0  0  0  0  0  0  0  0  0  0  0
   -0.2832   16.2369   37.8705 H   0  0  0  0  0  0  0  0  0  0  0  0
    2.1641   16.0573   38.0419 H   0  0  0  0  0  0  0  0  0  0  0  0
  1  2  1  0
  1  6  2  0
  2  3  2  0
  3  4  1  0
  3  7  1  0
  4  5  2  0
  5  6  1  0
  7  8  1  0
  7  9  2  0
  2 10  1  0
  4 11  1  0
  5 12  1  0
  6 13  1  0
M  CHG  1   8  -1
M  END
>  <mol_id>  (69) 
2026-09-18-3war-s0-n100-r9-0069

>  <rmsd_to_ref>  (69) 
3.576530612246374

>  <pose_kind>  (69) 
rigid

$$$$
3war.A
     RDKit          3D

 13 13  0  0  0  0  0  0  0  0999 V2000
    3.7337   22.0321   41.2267 N   0  0  0  0  0  0  0  0  0  0  0  0
    2.8542   21.0375   41.4548 C   0  0  0  0  0  0  0  0  0  0  0  0
    2.0262   20.6720   40.4113 C   0  0  0  0  0  0  0  0  0  0  0  0
    2.0671   21.2752   39.1736 C   0  0  0  0  0  0  0  0  0  0  0  0
    2.9972   22.3035   38.9841 C   0  0  0  0  0  0  0  0  0  0  0  0
    3.8148   22.6519   40.0419 C   0  0  0  0  0  0  0  0  0  0  0  0
    1.0620   19.5978   40.6258 C   0  0  0  0  0  0  0  0  0  0  0  0
    0.9533   18.9366   41.8400 O   0  0  0  0  0  0  0  0  0  0  0  0
    0.3264   19.2956   39.6493 O   0  0  0  0  0  0  0  0  0  0  0  0
    2.7634   20.5180   42.3967 H   0  0  0  0  0  0  0  0  0  0  0  0
    1.4361   21.0067   38.3561 H   0  0  0  0  0  0  0  0  0  0  0  0
    3.0894   22.8242   38.0427 H   0  0  0  0  0  0  0  0  0  0  0  0
    4.5228   23.4347   39.8978 H   0  0  0  0  0  0  0  0  0  0  0  0
  1  2  1  0
  1  6  2  0
  2  3  2  0
  3  4  1  0
  3  7  1  0
  4  5  2  0
  5  6  1  0
  7  8  1  0
  7  9  2  0
  2 10  1  0
  4 11  1  0
  5 12  1  0
  6 13  1  0
M  CHG  1   8  -1
M  END
>  <mol_id>  (70) 
2026-09-18-3war-s0-n100-r9-0070

>  <rmsd_to_ref>  (70) 
3.622448979593996

>  <pose_kind>  (70) 
conformer

$$$$
3war.A
     RDKit          3D

 13 13  0  0  0  0  0  0  0  0999 V2000
    0.8670   17.6070   35.5186 N   0  0  0  0  0  0  0  0  0  0  0  0
    1.7933   17.4094   36.5708 C   0  0  0  0  0  0  0  0  0  0  0  0
    1.8195   18.4013   37.6172 C   0  0  0  0  0  0  0  0  0  0  0  0
    0.9884   19.5062   37.5658 C   0  0  0  0  0  0  0  0  0  0  0  0
    0.0836   19.6435   36.5361 C   0  0  0  0  0  0  0  0  0  0  0  0
    0.0595   18.7152   35.5196 C   0  0  0  0  0  0  0  0  0  0  0  0
    2.8549   18.3025   38.7275 C   0  0  0  0  0  0  0  0  0  0  0  0
    3.5002   17.2208   38.8543 O   0  0  0  0  0  0  0  0  0  0  0  0
    2.9740   19.3038   39.4002 O   0  0  0  0  0  0  0  0  0  0  0  0
    2.4638   16.5376   36.5893 H   0  0  0  0  0  0  0  0  0  0  0  0
    1.0503   20.2765   38.3487 H   0  0  0  0  0  0  0  0  0  0  0  0
   -0.6169   20.4916   36.5260 H   0  0  0  0  0  0  0  0  0  0  0  0
   -0.6324   18.8679   34.6782 H   0  0  0  0  0  0  0  0  0  0  0  0
  1  2  1  0
  1  6  2  0
  2  3  2  0
  3  4  1  0
  3  7  1  0
  4  5  2  0
  5  6  1  0
  7  8  1  0
  7  9  2  0
  2 10  1  0
  4 11  1  0
  5 12  1  0
  6 13  1  0
M  CHG  1   8  -1
M  END
>  <mol_id>  (71) 
2026-09-18-3war-s0-n100-r9-0071

>  <rmsd_to_ref>  (71) 
3.668367346940413

>  <pose_kind>  (71) 
rigid

$$$$
3war.A
     RDKit          3D

 13 13  0  0  0  0  0  0  0  0999 V2000
    2.9329   18.5352   39.8270 N   0  0  0  0  0  0  0  0  0  0  0  0
    1.7167   17.9756   39.9812 C   0  0  0  0  0  0  0  0  0  0  0  0
    0.7637   18.1049   38.9898 C   0  0  0  0  0  0  0  0  0  0  0  0
    1.0612   18.8051   37.8484 C   0  0  0  0  0  0  0  0  0  0  0  0
    2.3280   19.3815   37.7005 C   0  0  0  0  0  0  0  0  0  0  0  0
    3.2636   19.2366   38.7092 C   0  0  0  0  0  0  0  0  0  0  0  0
   -0.5439   17.4974   39.1670 C   0  0  0  0  0  0  0  0  0  0  0  0
   -0.8423   16.7888   40.3241 O   0  0  0  0  0  0  0  0  0  0  0  0
   -1.4255   17.6046   38.2740 O   0  0  0  0  0  0  0  0  0  0  0  0
    1.4445   17.4114   40.8756 H   0  0  0  0  0  0  0  0  0  0  0  0
    0.3192   18.9203   37.0482 H   0  0  0  0  0  0  0  0  0  0  0  0
    2.6118   19.9371   36.8320 H   0  0  0  0  0  0  0  0  0  0  0  0
    4.2561   19.6774   38.6143 H   0  0  0  0  0  0  0  0  0  0  0  0
  1  2  1  0
  1  6  2  0
  2  3  2  0
  3  4  1  0
  3  7  1  0
  4  5  2  0
  5  6  1  0
  7  8  1  0
  7  9  2  0
  2 10  1  0
  4 11  1  0
  5 12  1  0
  6 13  1  0
M  CHG  1   8  -1
M  END
>  <mol_id>  (72) 
2026-09-18-3war-s0-n100-r9-0072

>  <rmsd_to_ref>  (72) 
3.7142857142874157

>  <pose_kind>  (72) 
conformer

$$$$
3war.A
     RDKit          3D

 13 13  0  0  0  0  0  0  0  0999 V2000
    2.0686   22.1532   38.1634 N   0  0  0  0  0  0  0  0  0  0  0  0
    1.6409   20.9106   38.6897 C   0  0  0  0  0  0  0  0  0  0  0  0
    0.7748   20.1097   37.8603 C   0  0  0  0  0  0  0  0  0  0  0  0
    0.3667   20.5628   36.6185 C   0  0  0  0  0  0  0  0  0  0  0  0
    0.8296   21.7670   36.1355 C   0  0  0  0  0  0  0  0  0  0  0  0
    1.6417   22.5521   36.9228 C   0  0  0  0  0  0  0  0  0  0  0  0
    0.2008   18.8085   38.4010 C   0  0  0  0  0  0  0  0  0  0  0  0
    0.6953   18.3276   39.4625 O   0  0  0  0  0  0  0  0  0  0  0  0
   -0.7105   18.3468   37.7486 O   0  0  0  0  0  0  0  0  0  0  0  0
    1.9554   20.5709   39.6875 H   0  0  0  0  0  0  0  0  0  0  0  0
   -0.3288   19.9604   36.0157 H   0  0  0  0  0  0  0  0  0  0  0  0
    0.5516   22.1001   35.1246 H   0  0  0  0  0  0  0  0  0  0  0  0
    1.9594   23.5344   36.5431 H   0  0  0  0  0  0  0  0  0  0  0  0
  1  2  1  0
  1  6  2  0
  2  3  2  0
  3  4  1  0
  3  7  1  0
  4  5  2  0
  5  6  1  0
  7  8  1  0
  7  9  2  0
  2 10  1  0
  4 11  1  0
  5 12  1  0
  6 13  1  0
M  CHG  1   8  -1
M  END
>  <mol_id>  (73) 
2026-09-18-3war-s0-n100-r9-0073

>  <rmsd_to_ref>  (73) 
3.7602040816336806

>  <pose_kind>  (73) 
rigid

$$$$
3war.A
     RDKit          3D

 13 13  0  0  0  0  0  0  0  0999 V2000
    0.9681   16.2558   41.2802 N   0  0  0  0  0  0  0  0  0  0  0  0
    1.5643   17.4724   41.2254 C   0  0  0  0  0  0  0  0  0  0  0  0
    2.6079   17.7231   40.3573 C   0  0  0  0  0  0  0  0  0  0  0  0
    3.0433   16.7100   39.5357 C   0  0  0  0  0  0  0  0  0  0  0  0
    2.4349   15.4568   39.5868 C   0  0  0  0  0  0  0  0  0  0  0  0
    1.3884   15.2395   40.4713 C   0  0  0  0  0  0  0  0  0  0  0  0
    3.2621   19.0249   40.2834 C   0  0  0  0  0  0  0  0  0  0  0  0
    2.9165   20.1037   41.0485 O   0  0  0  0  0  0  0  0  0  0  0  0
    4.2119   19.1236   39.4402 O   0  0  0  0  0  0  0  0  0  0  0  0
    1.2029   18.2533   41.8826 H   0  0  0  0  0  0  0  0  0  0  0  0
    3.8549   16.8426   38.8350 H   0  0  0  0  0  0  0  0  0  0  0  0
    2.8008   14.6867   38.9298 H   0  0  0  0  0  0  0  0  0  0  0  0
    0.9350   14.2658   40.4931 H   0  0  0  0  0  0  0  0  0  0  0  0
  1  2  1  0
  1  6  2  0
  2  3  2  0
  3  4  1  0
  3  7  1  0
  4  5  2  0
  5  6  1  0
  7  8  1  0
  7  9  2  0
  2 10  1  0
  4 11  1  0
  5 12  1  0
  6 13  1  0
M  CHG  1   8  -1
M  END
>  <mol_id>  (74) 
2026-09-18-3war-s0-n100-r9-0074

>  <rmsd_to_ref>  (74) 
3.806122448979907

>  <pose_kind>  (74) 
conformer

$$$$
3war.A
     RDKit          3D

 13 13  0  0  0  0  0  0  0  0999 V2000
    4.7382   21.6656   36.0143 N   0  0  0  0  0  0  0  0  0  0  0  0
    4.8722   20.2603   35.9094 C   0  0  0  0  0  0  0  0  0  0  0  0
    4.2277   19.4620   36.9227 C   0  0  0  0  0  0  0  0  0  0  0  0
    3.5358   20.0600   37.9608 C   0  0  0  0  0  0  0  0  0  0  0  0
    3.4087   21.4310   38.0078 C   0  0  0  0  0  0  0  0  0  0  0  0
    4.0341   22.2079   37.0586 C   0  0  0  0  0  0  0  0  0  0  0  0
    4.4105   17.9516   36.9257 C   0  0  0  0  0  0  0  0  0  0  0  0
    4.9071   17.4033   35.8984 O   0  0  0  0  0  0  0  0  0  0  0  0
    4.0611   17.4007   37.9474 O   0  0  0  0  0  0  0  0  0  0  0  0
    5.4430   19.7974   35.0909 H   0  0  0  0  0  0  0  0  0  0  0  0
    3.0863   19.4397   38.7502 H   0  0  0  0  0  0  0  0  0  0  0  0
    2.8098   21.9032   38.8005 H   0  0  0  0  0  0  0  0  0  0  0  0
    3.9666   23.3027   37.1409 H   0  0  0  0  0  0  0  0  0  0  0  0
  1  2  1  0
  1  6  2  0
  2  3  2  0
  3  4  1  0
  3  7  1  0
  4  5  2  0
  5  6  1  0
  7  8  1  0
  7  9  2  0
  2 10  1  0
  4 11  1  0
  5 12  1  0
  6 13  1  0
M  CHG  1   8  -1
M  END
>  <mol_id>  (75) 
2026-09-18-3war-s0-n100-r9-0075

>  <rmsd_to_ref>  (75) 
3.852040816328684

>  <pose_kind>  (75) 
rigid

$$$$
3war.A
     RDKit          3D

 13 13  0  0  0  0  0  0  0  0999 V2000
    3.9046   16.8654   37.8135 N   0  0  0  0  0  0  0  0  0  0  0  0
    3.2294   18.0041   38.0511 C   0  0  0  0  0  0  0  0  0  0  0  0
    1.8418   18.0282   38.0232 C   0  0  0  0  0  0  0  0  0  0  0  0
    1.1416   16.8498   37.7438 C   0  0  0  0  0  0  0  0  0  0  0  0
    1.8556   15.6712   37.4982 C   0  0  0  0  0  0  0  0  0  0  0  0
    3.2539   15.7000   37.5381 C   0  0  0  0  0  0  0  0  0  0  0  0
    1.1396   19.2714   38.2835 C   0  0  0  0  0  0  0  0  0  0  0  0
   -0.2602   19.2694   38.2495 O   0  0  0  0  0  0  0  0  0  0  0  0
    1.7789   20.3265   38.5340 O   0  0  0  0  0  0  0  0  0  0  0  0
    3.7670   18.9331   38.2711 H   0  0  0  0  0  0  0  0  0  0  0  0
    0.0833   16.8218   37.7122 H   0  0  0  0  0  0  0  0  0  0  0  0
    1.3692   14.7456   37.2802 H   0  0  0  0  0  0  0  0  0  0  0  0
    3.8242   14.7990   37.3510 H   0  0  0  0  0  0  0  0  0  0  0  0
  1  2  1  0
  1  6  2  0
  2  3  2  0
  3  4  1  0
  3  7  1  0
  4  5  2  0
  5  6  1  0
  7  8  1  0
  7  9  2  0
  2 10  1  0
  4 11  1  0
  5 12  1  0
  6 13  1  0
M  CHG  1   8  -1
M  END
>  <mol_id>  (76) 
2026-09-18-3war-s0-n100-r9-0076

>  <rmsd_to_ref>  (76) 
3.897959183676068

>  <pose_kind>  (76) 
conformer

$$$$
3war.A
     RDKit          3D

 13 13  0  0  0  0  0  0  0  0999 V2000
    0.8470   19.7255   37.3286 N   0  0  0  0  0  0  0  0  0  0  0  0
    1.2230   20.3763   38.5283 C   0  0  0  0  0  0  0  0  0  0  0  0
    1.2859   21.8167   38.5017 C   0  0  0  0  0  0  0  0  0  0  0  0
    1.0146   22.5156   37.3389 C   0  0  0  0  0  0  0  0  0  0  0  0
    0.6265   21.8417   36.2018 C   0  0  0  0  0  0  0  0  0  0  0  0
    0.5801   20.4656   36.2056 C   0  0  0  0  0  0  0  0  0  0  0  0
    1.7749   22.5753   39.7265 C   0  0  0  0  0  0  0  0  0  0  0  0
    1.8704   21.9503   40.8232 O   0  0  0  0  0  0  0  0  0  0  0  0
    2.0443   23.7402   39.5271 O   0  0  0  0  0  0  0  0  0  0  0  0
    1.4569   19.8081   39.4407 H   0  0  0  0  0  0  0  0  0  0  0  0
    1.1090   23.6114   37.3224 H   0  0  0  0  0  0  0  0  0  0  0  0
    0.3547   22.4008   35.2943 H   0  0  0  0  0  0  0  0  0  0  0  0
    0.3196   19.9412   35.2744 H   0  0  0  0  0  0  0  0  0  0  0  0
  1  2  1  0
  1  6  2  0
  2  3  2  0
  3  4  1  0
  3  7  1  0
  4  5  2  0
  5  6  1  0
  7  8  1  0
  7  9  2  0
  2 10  1  0
  4 11  1  0
  5 12  1  0
  6 13  1  0
M  CHG  1   8  -1
M  END
>  <mol_id>  (77) 
2026-09-18-3war-s0-n100-r9-0077

>  <rmsd_to_ref>  (77) 
3.9438775510215125

>  <pose_kind>  (77) 
rigid

$$$$
3war.A
     RDKit          3D

 13 13  0  0  0  0  0  0  0  0999 V2000
    1.6923   21.0883   40.2283 N   0  0  0  0  0  0  0  0  0  0  0  0
    0.5440   21.6430   39.7680 C   0  0  0  0  0  0  0  0  0  0  0  0
   -0.3766   20.9240   39.0253 C   0  0  0  0  0  0  0  0  0  0  0  0
   -0.1592   19.5769   38.7135 C   0  0  0  0  0  0  0  0  0  0  0  0
    1.0252   19.0402   39.1996 C   0  0  0  0  0  0  0  0  0  0  0  0
    1.8997   19.7995   39.9296 C   0  0  0  0  0  0  0  0  0  0  0  0
   -1.5879   21.5983   38.5685 C   0  0  0  0  0  0  0  0  0  0  0  0
   -2.5237   20.8718   37.8150 O   0  0  0  0  0  0  0  0  0  0  0  0
   -1.7960   22.8244   38.8466 O   0  0  0  0  0  0  0  0  0  0  0  0
    0.4022   22.6886   40.0250 H   0  0  0  0  0  0  0  0  0  0  0  0
   -0.8611   19.0174   38.1436 H   0  0  0  0  0  0  0  0  0  0  0  0
    1.1891   17.9899   38.9534 H   0  0  0  0  0  0  0  0  0  0  0  0
    2.8171   19.3344   40.2902 H   0  0  0  0  0  0  0  0  0  0  0  0
  1  2  1  0
  1  6  2  0
  2  3  2  0
  3  4  1  0
  3  7  1  0
  4  5  2  0
  5  6  1  0
  7  8  1  0
  7  9  2  0
  2 10  1  0
  4 11  1  0
  5 12  1  0
  6 13  1  0
M  CHG  1   8  -1
M  END
>  <mol_id>  (78) 
2026-09-18-3war-s0-n100-r9-0078

>  <rmsd_to_ref>  (78) 
3.9897959183689657

>  <pose_kind>  (78) 
conformer

$$$$
3war.A
     RDKit          3D

 13 13  0  0  0  0  0  0  0  0999 V2000
    3.4701   21.0125   38.4260 N   0  0  0  0  0  0  0  0  0  0  0  0
    3.5180   19.9731   39.3859 C   0  0  0  0  0  0  0  0  0  0  0  0
    4.3564   18.8392   39.0843 C   0  0  0  0  0  0  0  0  0  0  0  0
    5.0552   18.7730   37.8921 C   0  0  0  0  0  0  0  0  0  0  0  0
    4.9997   19.8205   36.9990 C   0  0  0  0  0  0  0  0  0  0  0  0
    4.1889   20.9014   37.2636 C   0  0  0  0  0  0  0  0  0  0  0  0
    4.3805   17.6445   40.0260 C   0  0  0  0  0  0  0  0  0  0  0  0
    3.8686   17.7744   41.1765 O   0  0  0  0  0  0  0  0  0  0  0  0
    4.8950   16.6476   39.5670 O   0  0  0  0  0  0  0  0  0  0  0  0
    2.9409   20.0279   40.3208 H   0  0  0  0  0  0  0  0  0  0  0  0
    5.6562   17.8822   37.6568 H   0  0  0  0  0  0  0  0  0  0  0  0
    5.6007   19.7933   36.0781 H   0  0  0  0  0  0  0  0  0  0  0  0
    4.1153   21.7047   36.5157 H   0  0  0  0  0  0  0  0  0  0  0  0
  1  2  1  0
  1  6  2  0
  2  3  2  0
  3  4  1  0
  3  7  1  0
  4  5  2  0
  5  6  1  0
  7  8  1  0
  7  9  2  0
  2 10  1  0
  4 11  1  0
  5 12  1  0
  6 13  1  0
M  CHG  1   8  -1
M  END
>  <mol_id>  (79) 
2026-09-18-3war-s0-n100-r9-0079

>  <rmsd_to_ref>  (79) 
4.03571428571693

>  <pose_kind>  (79) 
rigid

$$$$
3war.A
     RDKit          3D

 13 13  0  0  0  0  0  0  0  0999 V2000
    5.3313   18.1751   36.3361 N   0  0  0  0  0  0  0  0  0  0  0  0
    4.1413   18.3967   36.9679 C   0  0  0  0  0  0  0  0  0  0  0  0
    3.9270   19.6414   37.5203 C   0  0  0  0  0  0  0  0  0  0  0  0
    4.8864   20.6528   37.4442 C   0  0  0  0  0  0  0  0  0  0  0  0
    6.0733   20.3836   36.7965 C   0  0  0  0  0  0  0  0  0  0  0  0
    6.2676   19.1232   36.2476 C   0  0  0  0  0  0  0  0  0  0  0  0
    2.6760   19.9235   38.2024 C   0  0  0  0  0  0  0  0  0  0  0  0
    1.6949   18.9515   38.3028 O   0  0  0  0  0  0  0  0  0  0  0  0
    2.5196   21.0855   38.6979 O   0  0  0  0  0  0  0  0  0  0  0  0
    3.3775   17.6537   37.0511 H   0  0  0  0  0  0  0  0  0  0  0  0
    4.7146   21.6337   37.8809 H   0  0  0  0  0  0  0  0  0  0  0  0
    6.8407   21.1402   36.7165 H   0  0  0  0  0  0  0  0  0  0  0  0
    7.1939   18.8621   35.7236 H   0  0  0  0  0  0  0  0  0  0  0  0
  1  2  1  0
  1  6  2  0
  2  3  2  0
  3  4  1  0
  3  7  1  0
  4  5  2  0
  5  6  1  0
  7  8  1  0
  7  9  2  0
  2 10  1  0
  4 11  1  0
  5 12  1  0
  6 13  1  0
M  CHG  1   8  -1
M  END
>  <mol_id>  (80) 
2026-09-18-3war-s0-n100-r9-0080

>  <rmsd_to_ref>  (80) 
4.081632653061951

>  <pose_kind>  (80) 
conformer

$$$$
3war.A
     RDKit          3D

 13 13  0  0  0  0  0  0  0  0999 V2000
   -0.5588   19.6074   39.2217 N   0  0  0  0  0  0  0  0  0  0  0  0
   -0.2396   18.9894   40.4547 C   0  0  0  0  0  0  0  0  0  0  0  0
    1.1579   18.8862   40.7948 C   0  0  0  0  0  0  0  0  0  0  0  0
    2.1329   19.3509   39.9301 C   0  0  0  0  0  0  0  0  0  0  0  0
    1.7747   19.9697   38.7525 C   0  0  0  0  0  0  0  0  0  0  0  0
    0.4455   20.0590   38.4046 C   0  0  0  0  0  0  0  0  0  0  0  0
    1.5767   18.1490   42.0581 C   0  0  0  0  0  0  0  0  0  0  0  0
    0.6870   17.8671   42.9134 O   0  0  0  0  0  0  0  0  0  0  0  0
    2.7579   17.8849   42.1229 O   0  0  0  0  0  0  0  0  0  0  0  0
   -1.0232   18.6048   41.1240 H   0  0  0  0  0  0  0  0  0  0  0  0
    3.1960   19.2260   40.1834 H   0  0  0  0  0  0  0  0  0  0  0  0
    2.5476   20.3909   38.0928 H   0  0  0  0  0  0  0  0  0  0  0  0
    0.1798   20.5086   37.4365 H   0  0  0  0  0  0  0  0  0  0  0  0
  1  2  1  0
  1  6  2  0
  2  3  2  0
  3  4  1  0
  3  7  1  0
  4  5  2  0
  5  6  1  0
  7  8  1  0
  7  9  2  0
  2 10  1  0
  4 11  1  0
  5 12  1  0
  6 13  1  0
M  CHG  1   8  -1
M  END
>  <mol_id>  (81) 
2026-09-18-3war-s0-n100-r9-0081

>  <rmsd_to_ref>  (81) 
4.1275510204085215

>  <pose_kind>  (81) 
rigid

$$$$
3war.A
     RDKit          3D

 13 13  0  0  0  0  0  0  0  0999 V2000
    4.4677   15.9578   39.6956 N   0  0  0  0  0  0  0  0  0  0  0  0
    4.1681   17.2885   39.7489 C   0  0  0  0  0  0  0  0  0  0  0  0
    4.5774   18.1697   38.7753 C   0  0  0  0  0  0  0  0  0  0  0  0
    5.3118   17.6613   37.7258 C   0  0  0  0  0  0  0  0  0  0  0  0
    5.6318   16.3061   37.6469 C   0  0  0  0  0  0  0  0  0  0  0  0
    5.1868   15.4815   38.6609 C   0  0  0  0  0  0  0  0  0  0  0  0
    4.2401   19.5977   38.8585 C   0  0  0  0  0  0  0  0  0  0  0  0
    4.6864   20.4348   37.8382 O   0  0  0  0  0  0  0  0  0  0  0  0
    3.5733   20.0840   39.8030 O   0  0  0  0  0  0  0  0  0  0  0  0
    3.5892   17.6241   40.5977 H   0  0  0  0  0  0  0  0  0  0  0  0
    5.6661   18.3108   36.9208 H   0  0  0  0  0  0  0  0  0  0  0  0
    6.2125   15.9501   36.8018 H   0  0  0  0  0  0  0  0  0  0  0  0
    5.4451   14.4326   38.5823 H   0  0  0  0  0  0  0  0  0  0  0  0
  1  2  1  0
  1  6  2  0
  2  3  2  0
  3  4  1  0
  3  7  1  0
  4  5  2  0
  5  6  1  0
  7  8  1  0
  7  9  2  0
  2 10  1  0
  4 11  1  0
  5 12  1  0
  6 13  1  0
M  CHG  1   8  -1
M  END
>  <mol_id>  (82) 
2026-09-18-3war-s0-n100-r9-0082

>  <rmsd_to_ref>  (82) 
4.17346938775643

>  <pose_kind>  (82) 
conformer

$$$$
3war.A
     RDKit          3D

 13 13  0  0  0  0  0  0  0  0999 V2000
    3.4058   18.7279   37.5256 N   0  0  0  0  0  0  0  0  0  0  0  0
    3.7385   19.6206   38.5726 C   0  0  0  0  0  0  0  0  0  0  0  0
    4.8174   20.5457   38.3285 C   0  0  0  0  0  0  0  0  0  0  0  0
    5.5053   20.5298   37.1282 C   0  0  0  0  0  0  0  0  0  0  0  0
    5.1292   19.6612   36.1272 C   0  0  0  0  0  0  0  0  0  0  0  0
    4.1137   18.7589   36.3516 C   0  0  0  0  0  0  0  0  0  0  0  0
    5.2905   21.4673   39.4428 C   0  0  0  0  0  0  0  0  0  0  0  0
    4.5655   21.5867   40.4737 O   0  0  0  0  0  0  0  0  0  0  0  0
    6.3546   22.0092   39.2350 O   0  0  0  0  0  0  0  0  0  0  0  0
    3.1978   19.6091   39.5305 H   0  0  0  0  0  0  0  0  0  0  0  0
    6.3542   21.2120   36.9729 H   0  0  0  0  0  0  0  0  0  0  0  0
    5.6382   19.6885   35.1524 H   0  0  0  0  0  0  0  0  0  0  0  0
    3.8613   18.0371   35.5609 H   0  0  0  0  0  0  0  0  0  0  0  0
  1  2  1  0
  1  6  2  0
  2  3  2  0
  3  4  1  0
  3  7  1  0
  4  5  2  0
  5  6  1  0
  7  8  1  0
  7  9  2  0
  2 10  1  0
  4 11  1  0
  5 12  1  0
  6 13  1  0
M  CHG  1   8  -1
M  END
>  <mol_id>  (83) 
2026-09-18-3war-s0-n100-r9-0083

>  <rmsd_to_ref>  (83) 
4.219387755103799

>  <pose_kind>  (83) 
rigid

$$$$
3war.A
     RDKit          3D

 13 13  0  0  0  0  0  0  0  0999 V2000
    2.6202   20.2143   39.4136 N   0  0  0  0  0  0  0  0  0  0  0  0
    1.5066   20.7912   39.9262 C   0  0  0  0  0  0  0  0  0  0  0  0
    0.7627   20.1464   40.8942 C   0  0  0  0  0  0  0  0  0  0  0  0
    1.1344   18.8996   41.3632 C   0  0  0  0  0  0  0  0  0  0  0  0
    2.2798   18.3234   40.8256 C   0  0  0  0  0  0  0  0  0  0  0  0
    3.0196   18.9847   39.8507 C   0  0  0  0  0  0  0  0  0  0  0  0
   -0.4262   20.8199   41.4065 C   0  0  0  0  0  0  0  0  0  0  0  0
   -1.1889   20.1736   42.3900 O   0  0  0  0  0  0  0  0  0  0  0  0
   -0.7804   21.9550   40.9916 O   0  0  0  0  0  0  0  0  0  0  0  0
    1.2292   21.7727   39.5451 H   0  0  0  0  0  0  0  0  0  0  0  0
    0.5409   18.4057   42.1230 H   0  0  0  0  0  0  0  0  0  0  0  0
    2.6002   17.3545   41.1656 H   0  0  0  0  0  0  0  0  0  0  0  0
    3.9040   18.4972   39.4614 H   0  0  0  0  0  0  0  0  0  0  0  0
  1  2  1  0
  1  6  2  0
  2  3  2  0
  3  4  1  0
  3  7  1  0
  4  5  2  0
  5  6  1  0
  7  8  1  0
  7  9  2  0
  2 10  1  0
  4 11  1  0
  5 12  1  0
  6 13  1  0
M  CHG  1   8  -1
M  END
>  <mol_id>  (84) 
2026-09-18-3war-s0-n100-r9-0084

>  <rmsd_to_ref>  (84) 
4.265306122449091

>  <pose_kind>  (84) 
conformer

$$$$
3war.A
     RDKit          3D

 13 13  0  0  0  0  0  0  0  0999 V2000
    2.6640   22.4234   35.6381 N   0  0  0  0  0  0  0  0  0  0  0  0
    1.3160   22.0707   35.8884 C   0  0  0  0  0  0  0  0  0  0  0  0
    1.0549   21.2599   37.0519 C   0  0  0  0  0  0  0  0  0  0  0  0
    2.0907   20.8306   37.8624 C   0  0  0  0  0  0  0  0  0  0  0  0
    3.3848   21.2206   37.5953 C   0  0  0  0  0  0  0  0  0  0  0  0
    3.6528   21.9787   36.4776 C   0  0  0  0  0  0  0  0  0  0  0  0
   -0.3571   20.7647   37.3276 C   0  0  0  0  0  0  0  0  0  0  0  0
   -1.3137   21.2827   36.6802 O   0  0  0  0  0  0  0  0  0  0  0  0
   -0.4329   19.8869   38.1600 O   0  0  0  0  0  0  0  0  0  0  0  0
    0.5035   22.4007   35.2245 H   0  0  0  0  0  0  0  0  0  0  0  0
    1.8807   20.1766   38.7216 H   0  0  0  0  0  0  0  0  0  0  0  0
    4.2007   20.9275   38.2723 H   0  0  0  0  0  0  0  0  0  0  0  0
    4.6976   22.2370   36.2500 H   0  0  0  0  0  0  0  0  0  0  0  0
  1  2  1  0
  1  6  2  0
  2  3  2  0
  3  4  1  0
  3  7  1  0
  4  5  2  0
  5  6  1  0
  7  8  1  0
  7  9  2  0
  2 10  1  0
  4 11  1  0
  5 12  1  0
  6 13  1  0
M  CHG  1   8  -1
M  END
>  <mol_id>  (85) 
2026-09-18-3war-s0-n100-r9-0085

>  <rmsd_to_ref>  (85) 
4.311224489798255

>  <pose_kind>  (85) 
rigid

$$$$
3war.A
     RDKit          3D

 13 13  0  0  0  0  0  0  0  0999 V2000
    5.6272   21.6202   37.2603 N   0  0  0  0  0  0  0  0  0  0  0  0
    4.7157   22.3915   37.8968 C   0  0  0  0  0  0  0  0  0  0  0  0
    3.4415   21.8911   38.0734 C   0  0  0  0  0  0  0  0  0  0  0  0
    3.0760   20.6313   37.6198 C   0  0  0  0  0  0  0  0  0  0  0  0
    4.0363   19.8619   36.9687 C   0  0  0  0  0  0  0  0  0  0  0  0
    5.3006   20.3938   36.8094 C   0  0  0  0  0  0  0  0  0  0  0  0
    2.4500   22.7062   38.7551 C   0  0  0  0  0  0  0  0  0  0  0  0
    1.1556   22.2445   38.9556 O   0  0  0  0  0  0  0  0  0  0  0  0
    2.7395   23.8697   39.1893 O   0  0  0  0  0  0  0  0  0  0  0  0
    5.0310   23.3672   38.2380 H   0  0  0  0  0  0  0  0  0  0  0  0
    2.0640   20.2855   37.7834 H   0  0  0  0  0  0  0  0  0  0  0  0
    3.7412   18.8889   36.6223 H   0  0  0  0  0  0  0  0  0  0  0  0
    6.0519   19.7982   36.3028 H   0  0  0  0  0  0  0  0  0  0  0  0
  1  2  1  0
  1  6  2  0
  2  3  2  0
  3  4  1  0
  3  7  1  0
  4  5  2  0
  5  6  1  0
  7  8  1  0
  7  9  2  0
  2 10  1  0
  4 11  1  0
  5 12  1  0
  6 13  1  0
M  CHG  1   8  -1
M  END
>  <mol_id>  (86) 
2026-09-18-3war-s0-n100-r9-0086

>  <rmsd_to_ref>  (86) 
4.357142857144384

>  <pose_kind>  (86) 
conformer

$$$$
3war.A
     RDKit          3D

 13 13  0  0  0  0  0  0  0  0999 V2000
    5.8378   21.3625   37.6912 N   0  0  0  0  0  0  0  0  0  0  0  0
    5.1053   22.1764   38.5884 C   0  0  0  0  0  0  0  0  0  0  0  0
    4.0092   21.5569   39.2913 C   0  0  0  0  0  0  0  0  0  0  0  0
    3.6834   20.2312   39.0665 C   0  0  0  0  0  0  0  0  0  0  0  0
    4.4410   19.4697   38.2040 C   0  0  0  0  0  0  0  0  0  0  0  0
    5.4788   20.0514   37.5110 C   0  0  0  0  0  0  0  0  0  0  0  0
    3.1208   22.3960   40.1976 C   0  0  0  0  0  0  0  0  0  0  0  0
    3.5127   23.5564   40.5178 O   0  0  0  0  0  0  0  0  0  0  0  0
    2.0853   21.8604   40.5295 O   0  0  0  0  0  0  0  0  0  0  0  0
    5.3611   23.2351   38.7426 H   0  0  0  0  0  0  0  0  0  0  0  0
    2.8177   19.7844   39.5775 H   0  0  0  0  0  0  0  0  0  0  0  0
    4.2177   18.4010   38.0695 H   0  0  0  0  0  0  0  0  0  0  0  0
    6.0400   19.4426   36.7868 H   0  0  0  0  0  0  0  0  0  0  0  0
  1  2  1  0
  1  6  2  0
  2  3  2  0
  3  4  1  0
  3  7  1  0
  4  5  2  0
  5  6  1  0
  7  8  1  0
  7  9  2  0
  2 10  1  0
  4 11  1  0
  5 12  1  0
  6 13  1  0
M  CHG  1   8  -1
M  END
>  <mol_id>  (87) 
2026-09-18-3war-s0-n100-r9-0087

>  <rmsd_to_ref>  (87) 
4.403061224490442

>  <pose_kind>  (87) 
rigid

$$$$
3war.A
     RDKit          3D

 13 13  0  0  0  0  0  0  0  0999 V2000
    4.2290   16.4668   38.9264 N   0  0  0  0  0  0  0  0  0  0  0  0
    3.9809   16.8457   40.2120 C   0  0  0  0  0  0  0  0  0  0  0  0
    3.9978   18.1883   40.5325 C   0  0  0  0  0  0  0  0  0  0  0  0
    4.2559   19.1807   39.6090 C   0  0  0  0  0  0  0  0  0  0  0  0
    4.5039   18.7486   38.3078 C   0  0  0  0  0  0  0  0  0  0  0  0
    4.4883   17.4048   37.9809 C   0  0  0  0  0  0  0  0  0  0  0  0
    3.7304   18.5789   41.9132 C   0  0  0  0  0  0  0  0  0  0  0  0
    3.4631   17.6323   42.8942 O   0  0  0  0  0  0  0  0  0  0  0  0
    3.7329   19.7886   42.2617 O   0  0  0  0  0  0  0  0  0  0  0  0
    3.7766   16.0777   40.9487 H   0  0  0  0  0  0  0  0  0  0  0  0
    4.2682   20.2310   39.8640 H   0  0  0  0  0  0  0  0  0  0  0  0
    4.7167   19.4482   37.5110 H   0  0  0  0  0  0  0  0  0  0  0  0
    4.6873   17.1134   36.9531 H   0  0  0  0  0  0  0  0  0  0  0  0
  1  2  1  0
  1  6  2  0
  2  3  2  0
  3  4  1  0
  3  7  1  0
  4  5  2  0
  5  6  1  0
  7  8  1  0
  7  9  2  0
  2 10  1  0
  4 11  1  0
  5 12  1  0
  6 13  1  0
M  CHG  1   8  -1
M  END
>  <mol_id>  (88) 
2026-09-18-3war-s0-n100-r9-0088

>  <rmsd_to_ref>  (88) 
4.448979591837482

>  <pose_kind>  (88) 
conformer

$$$$
3war.A
     RDKit          3D

 13 13  0  0  0  0  0  0  0  0999 V2000
    3.4658   19.0840   38.8517 N   0  0  0  0  0  0  0  0  0  0  0  0
    3.6676   19.9785   39.9302 C   0  0  0  0  0  0  0  0  0  0  0  0
    5.0128   20.4492   40.1497 C   0  0  0  0  0  0  0  0  0  0  0  0
    6.0542   20.0143   39.3494 C   0  0  0  0  0  0  0  0  0  0  0  0
    5.8066   19.1639   38.2941 C   0  0  0  0  0  0  0  0  0  0  0  0
    4.5310   18.6906   38.0830 C   0  0  0  0  0  0  0  0  0  0  0  0
    5.3180   21.3360   41.3477 C   0  0  0  0  0  0  0  0  0  0  0  0
    4.3484   21.8516   41.9775 O   0  0  0  0  0  0  0  0  0  0  0  0
    6.4973   21.4604   41.5989 O   0  0  0  0  0  0  0  0  0  0  0  0
    2.8347   20.3004   40.5726 H   0  0  0  0  0  0  0  0  0  0  0  0
    7.0818   20.3481   39.5560 H   0  0  0  0  0  0  0  0  0  0  0  0
    6.6249   18.8642   37.6228 H   0  0  0  0  0  0  0  0  0  0  0  0
    4.3604   17.9711   37.2687 H   0  0  0  0  0  0  0  0  0  0  0  0
  1  2  1  0
  1  6  2  0
  2  3  2  0
  3  4  1  0
  3  7  1  0
  4  5  2  0
  5  6  1  0
  7  8  1  0
  7  9  2  0
  2 10  1  0
  4 11  1  0
  5 12  1  0
  6 13  1  0
M  CHG  1   8  -1
M  END
>  <mol_id>  (89) 
2026-09-18-3war-s0-n100-r9-0089

>  <rmsd_to_ref>  (89) 
4.494897959184919

>  <pose_kind>  (89) 
rigid

$$$$
3war.A
     RDKit          3D

 13 13  0  0  0  0  0  0  0  0999 V2000
    0.1976   20.5787   34.9781 N   0  0  0  0  0  0  0  0  0  0  0  0
   -0.0010   20.2950   36.2970 C   0  0  0  0  0  0  0  0  0  0  0  0
    0.7260   20.9318   37.2832 C   0  0  0  0  0  0  0  0  0  0  0  0
    1.6666   21.8694   36.9110 C   0  0  0  0  0  0  0  0  0  0  0  0
    1.8790   22.1684   35.5642 C   0  0  0  0  0  0  0  0  0  0  0  0
    1.1208   21.4982   34.6255 C   0  0  0  0  0  0  0  0  0  0  0  0
    0.4868   20.6050   38.6564 C   0  0  0  0  0  0  0  0  0  0  0  0
    1.1760   21.2008   39.7044 O   0  0  0  0  0  0  0  0  0  0  0  0
   -0.3825   19.7388   38.9925 O   0  0  0  0  0  0  0  0  0  0  0  0
   -0.7569   19.5432   36.5710 H   0  0  0  0  0  0  0  0  0  0  0  0
    2.2200   22.3529   37.6802 H   0  0  0  0  0  0  0  0  0  0  0  0
    2.6000   22.8893   35.2497 H   0  0  0  0  0  0  0  0  0  0  0  0
    1.2657   21.7124   33.5595 H   0  0  0  0  0  0  0  0  0  0  0  0
  1  2  1  0
  1  6  2  0
  2  3  2  0
  3  4  1  0
  3  7  1  0
  4  5  2  0
  5  6  1  0
  7  8  1  0
  7  9  2  0
  2 10  1  0
  4 11  1  0
  5 12  1  0
  6 13  1  0
M  CHG  1   8  -1
M  END
>  <mol_id>  (90) 
2026-09-18-3war-s0-n100-r9-0090

>  <rmsd_to_ref>  (90) 
4.540816326532775

>  <pose_kind>  (90) 
conformer

$$$$
3war.A
     RDKit          3D

 13 13  0  0  0  0  0  0  0  0999 V2000
    5.0343   15.8728   37.2005 N   0  0  0  0  0  0  0  0  0  0  0  0
    4.3578   16.0611   38.4297 C   0  0  0  0  0  0  0  0  0  0  0  0
    3.4068   17.1430   38.4965 C   0  0  0  0  0  0  0  0  0  0  0  0
    3.1968   17.9690   37.4066 C   0  0  0  0  0  0  0  0  0  0  0  0
    3.8583   17.7316   36.2216 C   0  0  0  0  0  0  0  0  0  0  0  0
    4.7833   16.7145   36.1475 C   0  0  0  0  0  0  0  0  0  0  0  0
    2.7152   17.4621   39.8135 C   0  0  0  0  0  0  0  0  0  0  0  0
    2.7913   16.6176   40.7534 O   0  0  0  0  0  0  0  0  0  0  0  0
    2.1473   18.5327   39.8415 O   0  0  0  0  0  0  0  0  0  0  0  0
    4.5491   15.4106   39.2958 H   0  0  0  0  0  0  0  0  0  0  0  0
    2.5005   18.8168   37.4863 H   0  0  0  0  0  0  0  0  0  0  0  0
    3.6481   18.3523   35.3381 H   0  0  0  0  0  0  0  0  0  0  0  0
    5.3410   16.5721   35.2101 H   0  0  0  0  0  0  0  0  0  0  0  0
  1  2  1  0
  1  6  2  0
  2  3  2  0
  3  4  1  0
  3  7  1  0
  4  5  2  0
  5  6  1  0
  7  8  1  0
  7  9  2  0
  2 10  1  0
  4 11  1  0
  5 12  1  0
  6 13  1  0
M  CHG  1   8  -1
M  END
>  <mol_id>  (91) 
2026-09-18-3war-s0-n100-r9-0091

>  <rmsd_to_ref>  (91) 
4.586734693877915

>  <pose_kind>  (91) 
rigid

$$$$
3war.A
     RDKit          3D

 13 13  0  0  0  0  0  0  0  0999 V2000
    0.8190   21.5566   36.3244 N   0  0  0  0  0  0  0  0  0  0  0  0
   -0.2589   21.5181   37.1460 C   0  0  0  0  0  0  0  0  0  0  0  0
   -0.3750   20.5916   38.1678 C   0  0  0  0  0  0  0  0  0  0  0  0
    0.6275   19.6427   38.3999 C   0  0  0  0  0  0  0  0  0  0  0  0
    1.7164   19.7095   37.5415 C   0  0  0  0  0  0  0  0  0  0  0  0
    1.7777   20.6485   36.5471 C   0  0  0  0  0  0  0  0  0  0  0  0
   -1.5693   20.6197   39.0065 C   0  0  0  0  0  0  0  0  0  0  0  0
   -1.6901   19.6812   40.0438 O   0  0  0  0  0  0  0  0  0  0  0  0
   -2.4881   21.4792   38.8040 O   0  0  0  0  0  0  0  0  0  0  0  0
   -1.0200   22.2656   36.9424 H   0  0  0  0  0  0  0  0  0  0  0  0
    0.5461   18.9275   39.1825 H   0  0  0  0  0  0  0  0  0  0  0  0
    2.4945   18.9675   37.7274 H   0  0  0  0  0  0  0  0  0  0  0  0
    2.6530   20.6622   35.8977 H   0  0  0  0  0  0  0  0  0  0  0  0
  1  2  1  0
  1  6  2  0
  2  3  2  0
  3  4  1  0
  3  7  1  0
  4  5  2  0
  5  6  1  0
  7  8  1  0
  7  9  2  0
  2 10  1  0
  4 11  1  0
  5 12  1  0
  6 13  1  0
M  CHG  1   8  -1
M  END
>  <mol_id>  (92) 
2026-09-18-3war-s0-n100-r9-0092

>  <rmsd_to_ref>  (92) 
4.632653061224878

>  <pose_kind>  (92) 
conformer

$$$$
3war.A
     RDKit          3D

 13 13  0  0  0  0  0  0  0  0999 V2000
    3.6492   21.9964   39.5797 N   0  0  0  0  0  0  0  0  0  0  0  0
    3.0232   21.9811   40.8494 C   0  0  0  0  0  0  0  0  0  0  0  0
    1.5813   21.9912   40.8705 C   0  0  0  0  0  0  0  0  0  0  0  0
    0.8567   22.0418   39.6930 C   0  0  0  0  0  0  0  0  0  0  0  0
    1.5081   22.0283   38.4791 C   0  0  0  0  0  0  0  0  0  0  0  0
    2.8844   22.0380   38.4423 C   0  0  0  0  0  0  0  0  0  0  0  0
    0.8447   22.0724   42.1992 C   0  0  0  0  0  0  0  0  0  0  0  0
    1.4993   21.8699   43.2637 O   0  0  0  0  0  0  0  0  0  0  0  0
   -0.3338   22.3412   42.1098 O   0  0  0  0  0  0  0  0  0  0  0  0
    3.6108   21.9623   41.7790 H   0  0  0  0  0  0  0  0  0  0  0  0
   -0.2416   22.0930   39.7261 H   0  0  0  0  0  0  0  0  0  0  0  0
    0.9308   22.0098   37.5429 H   0  0  0  0  0  0  0  0  0  0  0  0
    3.3885   22.0806   37.4656 H   0  0  0  0  0  0  0  0  0  0  0  0
  1  2  1  0
  1  6  2  0
  2  3  2  0
  3  4  1  0
  3  7  1  0
  4  5  2  0
  5  6  1  0
  7  8  1  0
  7  9  2  0
  2 10  1  0
  4 11  1  0
  5 12  1  0
  6 13  1  0
M  CHG  1   8  -1
M  END
>  <mol_id>  (93) 
2026-09-18-3war-s0-n100-r9-0093

>  <rmsd_to_ref>  (93) 
4.678571428573081

>  <pose_kind>  (93) 
rigid

$$$$
3war.A
     RDKit          3D

 13 13  0  0  0  0  0  0  0  0999 V2000
    3.1709   21.6996   34.4482 N   0  0  0  0  0  0  0  0  0  0  0  0
    2.4018   21.8028   35.5623 C   0  0  0  0  0  0  0  0  0  0  0  0
    2.8279   21.1972   36.7397 C   0  0  0  0  0  0  0  0  0  0  0  0
    4.0140   20.4922   36.8078 C   0  0  0  0  0  0  0  0  0  0  0  0
    4.7521   20.4243   35.6364 C   0  0  0  0  0  0  0  0  0  0  0  0
    4.3361   21.0229   34.4629 C   0  0  0  0  0  0  0  0  0  0  0  0
    1.9887   21.3165   37.9336 C   0  0  0  0  0  0  0  0  0  0  0  0
    0.8021   22.0106   37.9022 O   0  0  0  0  0  0  0  0  0  0  0  0
    2.4285   20.7414   38.9856 O   0  0  0  0  0  0  0  0  0  0  0  0
    1.4741   22.3586   35.4948 H   0  0  0  0  0  0  0  0  0  0  0  0
    4.3316   20.0303   37.7198 H   0  0  0  0  0  0  0  0  0  0  0  0
    5.6910   19.8890   35.6159 H   0  0  0  0  0  0  0  0  0  0  0  0
    4.9669   20.9332   33.5655 H   0  0  0  0  0  0  0  0  0  0  0  0
  1  2  1  0
  1  6  2  0
  2  3  2  0
  3  4  1  0
  3  7  1  0
  4  5  2  0
  5  6  1  0
  7  8  1  0
  7  9  2  0
  2 10  1  0
  4 11  1  0
  5 12  1  0
  6 13  1  0
M  CHG  1   8  -1
M  END
>  <mol_id>  (94) 
2026-09-18-3war-s0-n100-r9-0094

>  <rmsd_to_ref>  (94) 
4.724489795919482

>  <pose_kind>  (94) 
conformer

$$$$
3war.A
     RDKit          3D

 13 13  0  0  0  0  0  0  0  0999 V2000
    3.7826   18.3162   38.3775 N   0  0  0  0  0  0  0  0  0  0  0  0
    2.7390   18.2585   39.3322 C   0  0  0  0  0  0  0  0  0  0  0  0
    2.6380   17.0566   40.1226 C   0  0  0  0  0  0  0  0  0  0  0  0
    3.5137   16.0039   39.9248 C   0  0  0  0  0  0  0  0  0  0  0  0
    4.5312   16.1149   39.0026 C   0  0  0  0  0  0  0  0  0  0  0  0
    4.6294   17.2482   38.2268 C   0  0  0  0  0  0  0  0  0  0  0  0
    1.4836   16.8881   41.0991 C   0  0  0  0  0  0  0  0  0  0  0  0
    0.7851   17.9040   41.3865 O   0  0  0  0  0  0  0  0  0  0  0  0
    1.3319   15.7596   41.5147 O   0  0  0  0  0  0  0  0  0  0  0  0
    2.0359   19.0939   39.4654 H   0  0  0  0  0  0  0  0  0  0  0  0
    3.3973   15.0766   40.5049 H   0  0  0  0  0  0  0  0  0  0  0  0
    5.2622   15.3013   38.8864 H   0  0  0  0  0  0  0  0  0  0  0  0
    5.4152   17.2987   37.4588 H   0  0  0  0  0  0  0  0  0  0  0  0
  1  2  1  0
  1  6  2  0
  2  3  2  0
  3  4  1  0
  3  7  1  0
  4  5  2  0
  5  6  1  0
  7  8  1  0
  7  9  2  0
  2 10  1  0
  4 11  1  0
  5 12  1  0
  6 13  1  0
M  CHG  1   8  -1
M  END
>  <mol_id>  (95) 
2026-09-18-3war-s0-n100-r9-0095

>  <rmsd_to_ref>  (95) 
4.770408163266429

>  <pose_kind>  (95) 
rigid

$$$$
3war.A
     RDKit          3D

 13 13  0  0  0  0  0  0  0  0999 V2000
    3.5588   20.1841   34.4756 N   0  0  0  0  0  0  0  0  0  0  0  0
    3.1182   20.2612   35.7454 C   0  0  0  0  0  0  0  0  0  0  0  0
    2.1979   19.3105   36.1869 C   0  0  0  0  0  0  0  0  0  0  0  0
    1.7318   18.3033   35.3657 C   0  0  0  0  0  0  0  0  0  0  0  0
    2.2078   18.2530   34.0597 C   0  0  0  0  0  0  0  0  0  0  0  0
    3.1169   19.2090   33.6569 C   0  0  0  0  0  0  0  0  0  0  0  0
    1.7078   19.3766   37.5599 C   0  0  0  0  0  0  0  0  0  0  0  0
    2.1420   20.3676   38.4299 O   0  0  0  0  0  0  0  0  0  0  0  0
    0.8725   18.4989   37.9309 O   0  0  0  0  0  0  0  0  0  0  0  0
    3.4857   21.0477   36.3777 H   0  0  0  0  0  0  0  0  0  0  0  0
    1.0319   17.5936   35.7277 H   0  0  0  0  0  0  0  0  0  0  0  0
    1.8699   17.4818   33.3826 H   0  0  0  0  0  0  0  0  0  0  0  0
    3.4660   19.1408   32.6370 H   0  0  0  0  0  0  0  0  0  0  0  0
  1  2  1  0
  1  6  2  0
  2  3  2  0
  3  4  1  0
  3  7  1  0
  4  5  2  0
  5  6  1  0
  7  8  1  0
  7  9  2  0
  2 10  1  0
  4 11  1  0
  5 12  1  0
  6 13  1  0
M  CHG  1   8  -1
M  END
>  <mol_id>  (96) 
2026-09-18-3war-s0-n100-r9-0096

>  <rmsd_to_ref>  (96) 
4.816326530613481

>  <pose_kind>  (96) 
conformer

$$$$
