3war.A
     RDKit          3D

 13 13  0  0  0  0  0  0  0  0999 V2000
    2.0001   18.6245   40.6926 N   0  0  0  0  0  0  0  0  0  0  0  0
    2.5782   18.5757   39.4013 C   0  0  0  0  0  0  0  0  0  0  0  0
    2.4967   19.7718   38.6000 C   0  0  0  0  0  0  0  0  0  0  0  0
    1.8538   20.9004   39.0765 C   0  0  0  0  0  0  0  0  0  0  0  0
    1.3289   20.9112   40.3502 C   0  0  0  0  0  0  0  0  0  0  0  0
    1.3818   19.7712   41.1205 C   0  0  0  0  0  0  0  0  0  0  0  0
    3.0116   19.7599   37.1684 C   0  0  0  0  0  0  0  0  0  0  0  0
    3.7306   18.7870   36.7954 O   0  0  0  0  0  0  0  0  0  0  0  0
    2.6655   20.7081   36.4973 O   0  0  0  0  0  0  0  0  0  0  0  0
    3.0681   17.6653   39.0256 H   0  0  0  0  0  0  0  0  0  0  0  0
    1.7616   21.7908   38.4372 H   0  0  0  0  0  0  0  0  0  0  0  0
    0.8693   21.8270   40.7502 H   0  0  0  0  0  0  0  0  0  0  0  0
    0.9112   19.7806   42.1147 H   0  0  0  0  0  0  0  0  0  0  0  0
  1  2  1  0
  1  6  2  0
  2  3  2  0
  3  4  1  0
  3  7  1  0
  4  5  2  0
  5  6  1  0
  7  8  1  0
  7  9  2  0
  2 10  1  0
  4 11  1  0
  5 12  1  0
  6 13  1  0
M  CHG  1   8  -1
M  END
>  <mol_id>  (1) 
2026-09-18-3war-s0-n100-r4-0001

>  <rmsd_to_ref>  (1) 
0.0

>  <pose_kind>  (1) 
native

$$$$
3war.A
     RDKit          3D

 13 13  0  0  0  0  0  0  0  0999 V2000
    2.3467   18.7115   40.5944 N   0  0  0  0  0  0  0  0  0  0  0  0
    2.5563   18.6751   39.2639 C   0  0  0  0  0  0  0  0  0  0  0  0
    2.1438   19.7595   38.5037 C   0  0  0  0  0  0  0  0  0  0  0  0
    1.5314   20.8639   39.0613 C   0  0  0  0  0  0  0  0  0  0  0  0
    1.3439   20.8421   40.4327 C   0  0  0  0  0  0  0  0  0  0  0  0
    1.7575   19.7540   41.1978 C   0  0  0  0  0  0  0  0  0  0  0  0
    2.3612   19.7407   37.0606 C   0  0  0  0  0  0  0  0  0  0  0  0
    2.9607   18.6926   36.4042 O   0  0  0  0  0  0  0  0  0  0  0  0
    1.9701   20.7508   36.3993 O   0  0  0  0  0  0  0  0  0  0  0  0
    3.0382   17.8176   38.7862 H   0  0  0  0  0  0  0  0  0  0  0  0
    1.2039   21.7204   38.4725 H   0  0  0  0  0  0  0  0  0  0  0  0
    0.8672   21.6876   40.9137 H   0  0  0  0  0  0  0  0  0  0  0  0
    1.5968   19.7621   42.2837 H   0  0  0  0  0  0  0  0  0  0  0  0
  1  2  1  0
  1  6  2  0
  2  3  2  0
  3  4  1  0
  3  7  1  0
  4  5  2  0
  5  6  1  0
  7  8  1  0
  7  9  2  0
  2 10  1  0
  4 11  1  0
  5 12  1  0
  6 13  1  0
M  CHG  1   8  -1
M  END
>  <mol_id>  (2) 
2026-09-18-3war-s0-n100-r4-0002

>  <rmsd_to_ref>  (2) 
0.5000000000021728

>  <pose_kind>  (2) 
conformer

$$$$
3war.A
     RDKit          3D

 13 13  0  0  0  0  0  0  0  0999 V2000
    1.6117   18.8117   40.5648 N   0  0  0  0  0  0  0  0  0  0  0  0
    2.5135   18.8229   39.4736 C   0  0  0  0  0  0  0  0  0  0  0  0
    2.5960   20.0387   38.7027 C   0  0  0  0  0  0  0  0  0  0  0  0
    1.8014   21.1281   39.0121 C   0  0  0  0  0  0  0  0  0  0  0  0
    0.9571   21.0814   40.0998 C   0  0  0  0  0  0  0  0  0  0  0  0
    0.8529   19.9216   40.8343 C   0  0  0  0  0  0  0  0  0  0  0  0
    3.4726   20.0886   37.4602 C   0  0  0  0  0  0  0  0  0  0  0  0
    4.3063   19.1544   37.2737 O   0  0  0  0  0  0  0  0  0  0  0  0
    3.2764   21.0432   36.7394 O   0  0  0  0  0  0  0  0  0  0  0  0
    3.1246   17.9427   39.2248 H   0  0  0  0  0  0  0  0  0  0  0  0
    1.8437   22.0333   38.3885 H   0  0  0  0  0  0  0  0  0  0  0  0
    0.3686   21.9674   40.3803 H   0  0  0  0  0  0  0  0  0  0  0  0
    0.1353   19.8839   41.6671 H   0  0  0  0  0  0  0  0  0  0  0  0
  1  2  1  0
  1  6  2  0
  2  3  2  0
  3  4  1  0
  3  7  1  0
  4  5  2  0
  5  6  1  0
  7  8  1  0
  7  9  2  0
  2 10  1  0
  4 11  1  0
  5 12  1  0
  6 13  1  0
M  CHG  1   8  -1
M  END
>  <mol_id>  (3) 
2026-09-18-3war-s0-n100-r4-0003

>  <rmsd_to_ref>  (3) 
0.5459183673504056

>  <pose_kind>  (3) 
rigid

$$$$
3war.A
     RDKit          3D

 13 13  0  0  0  0  0  0  0  0999 V2000
    1.7708   18.6305   40.4683 N   0  0  0  0  0  0  0  0  0  0  0  0
    2.4828   18.8605   39.3363 C   0  0  0  0  0  0  0  0  0  0  0  0
    2.1845   19.9798   38.5881 C   0  0  0  0  0  0  0  0  0  0  0  0
    1.1974   20.8811   38.9303 C   0  0  0  0  0  0  0  0  0  0  0  0
    0.4881   20.6098   40.1003 C   0  0  0  0  0  0  0  0  0  0  0  0
    0.7945   19.4824   40.8464 C   0  0  0  0  0  0  0  0  0  0  0  0
    2.9410   20.2367   37.3728 C   0  0  0  0  0  0  0  0  0  0  0  0
    3.9609   19.3627   36.9617 O   0  0  0  0  0  0  0  0  0  0  0  0
    2.7108   21.2422   36.6528 O   0  0  0  0  0  0  0  0  0  0  0  0
    3.2596   18.1697   39.0485 H   0  0  0  0  0  0  0  0  0  0  0  0
    0.9672   21.7632   38.3344 H   0  0  0  0  0  0  0  0  0  0  0  0
   -0.3049   21.2677   40.4416 H   0  0  0  0  0  0  0  0  0  0  0  0
    0.2739   19.2249   41.7639 H   0  0  0  0  0  0  0  0  0  0  0  0
  1  2  1  0
  1  6  2  0
  2  3  2  0
  3  4  1  0
  3  7  1  0
  4  5  2  0
  5  6  1  0
  7  8  1  0
  7  9  2  0
  2 10  1  0
  4 11  1  0
  5 12  1  0
  6 13  1  0
M  CHG  1   8  -1
M  END
>  <mol_id>  (4) 
2026-09-18-3war-s0-n100-r4-0004

>  <rmsd_to_ref>  (4) 
0.5918367346938885

>  <pose_kind>  (4) 
conformer

$$$$
3war.A
     RDKit          3D

 13 13  0  0  0  0  0  0  0  0999 V2000
    1.6448   19.0733   41.0639 N   0  0  0  0  0  0  0  0  0  0  0  0
    2.3730   18.6753   39.9170 C   0  0  0  0  0  0  0  0  0  0  0  0
    2.5994   19.6757   38.9033 C   0  0  0  0  0  0  0  0  0  0  0  0
    2.0963   20.9563   39.0481 C   0  0  0  0  0  0  0  0  0  0  0  0
    1.4161   21.3065   40.1938 C   0  0  0  0  0  0  0  0  0  0  0  0
    1.1753   20.3579   41.1622 C   0  0  0  0  0  0  0  0  0  0  0  0
    3.2906   19.2925   37.6033 C   0  0  0  0  0  0  0  0  0  0  0  0
    3.8802   18.1739   37.5420 O   0  0  0  0  0  0  0  0  0  0  0  0
    3.1998   20.1165   36.7189 O   0  0  0  0  0  0  0  0  0  0  0  0
    2.7496   17.6480   39.8039 H   0  0  0  0  0  0  0  0  0  0  0  0
    2.2397   21.6963   38.2469 H   0  0  0  0  0  0  0  0  0  0  0  0
    1.0668   22.3401   40.3344 H   0  0  0  0  0  0  0  0  0  0  0  0
    0.5851   20.6406   42.0464 H   0  0  0  0  0  0  0  0  0  0  0  0
  1  2  1  0
  1  6  2  0
  2  3  2  0
  3  4  1  0
  3  7  1  0
  4  5  2  0
  5  6  1  0
  7  8  1  0
  7  9  2  0
  2 10  1  0
  4 11  1  0
  5 12  1  0
  6 13  1  0
M  CHG  1   8  -1
M  END
>  <mol_id>  (5) 
2026-09-18-3war-s0-n100-r4-0005

>  <rmsd_to_ref>  (5) 
0.6377551020423251

>  <pose_kind>  (5) 
rigid

$$$$
3war.A
     RDKit          3D

 13 13  0  0  0  0  0  0  0  0999 V2000
    1.4069   18.4586   40.5408 N   0  0  0  0  0  0  0  0  0  0  0  0
    2.2490   18.6167   39.4815 C   0  0  0  0  0  0  0  0  0  0  0  0
    2.1377   19.7345   38.6840 C   0  0  0  0  0  0  0  0  0  0  0  0
    1.1771   20.7052   38.9446 C   0  0  0  0  0  0  0  0  0  0  0  0
    0.3343   20.5312   40.0176 C   0  0  0  0  0  0  0  0  0  0  0  0
    0.4898   19.4027   40.7753 C   0  0  0  0  0  0  0  0  0  0  0  0
    3.0704   19.8473   37.5622 C   0  0  0  0  0  0  0  0  0  0  0  0
    2.9566   20.9894   36.7473 O   0  0  0  0  0  0  0  0  0  0  0  0
    3.9473   18.9762   37.3119 O   0  0  0  0  0  0  0  0  0  0  0  0
    3.0008   17.8644   39.2716 H   0  0  0  0  0  0  0  0  0  0  0  0
    1.1437   21.5581   38.2792 H   0  0  0  0  0  0  0  0  0  0  0  0
   -0.4095   21.2708   40.2292 H   0  0  0  0  0  0  0  0  0  0  0  0
   -0.1834   19.2765   41.6219 H   0  0  0  0  0  0  0  0  0  0  0  0
  1  2  1  0
  1  6  2  0
  2  3  2  0
  3  4  1  0
  3  7  1  0
  4  5  2  0
  5  6  1  0
  7  8  1  0
  7  9  2  0
  2 10  1  0
  4 11  1  0
  5 12  1  0
  6 13  1  0
M  CHG  1   8  -1
M  END
>  <mol_id>  (6) 
2026-09-18-3war-s0-n100-r4-0006

>  <rmsd_to_ref>  (6) 
0.6836734693918263

>  <pose_kind>  (6) 
conformer

$$$$
3war.A
     RDKit          3D

 13 13  0  0  0  0  0  0  0  0999 V2000
    2.6555   19.4433   40.7697 N   0  0  0  0  0  0  0  0  0  0  0  0
    2.9718   19.0031   39.4619 C   0  0  0  0  0  0  0  0  0  0  0  0
    2.6539   19.8950   38.3743 C   0  0  0  0  0  0  0  0  0  0  0  0
    2.0412   21.1122   38.6132 C   0  0  0  0  0  0  0  0  0  0  0  0
    1.7761   21.5110   39.9049 C   0  0  0  0  0  0  0  0  0  0  0  0
    2.0562   20.6630   40.9528 C   0  0  0  0  0  0  0  0  0  0  0  0
    2.8785   19.4465   36.9379 C   0  0  0  0  0  0  0  0  0  0  0  0
    3.5752   18.4096   36.7330 O   0  0  0  0  0  0  0  0  0  0  0  0
    2.3440   20.1411   36.1005 O   0  0  0  0  0  0  0  0  0  0  0  0
    3.4397   18.0237   39.2832 H   0  0  0  0  0  0  0  0  0  0  0  0
    1.7653   21.7627   37.7702 H   0  0  0  0  0  0  0  0  0  0  0  0
    1.3423   22.5032   40.0984 H   0  0  0  0  0  0  0  0  0  0  0  0
    1.7896   20.9750   41.9734 H   0  0  0  0  0  0  0  0  0  0  0  0
  1  2  1  0
  1  6  2  0
  2  3  2  0
  3  4  1  0
  3  7  1  0
  4  5  2  0
  5  6  1  0
  7  8  1  0
  7  9  2  0
  2 10  1  0
  4 11  1  0
  5 12  1  0
  6 13  1  0
M  CHG  1   8  -1
M  END
>  <mol_id>  (7) 
2026-09-18-3war-s0-n100-r4-0007

>  <rmsd_to_ref>  (7) 
0.7295918367352635

>  <pose_kind>  (7) 
rigid

$$$$
3war.A
     RDKit          3D

 13 13  0  0  0  0  0  0  0  0999 V2000
    2.3976   18.9668   40.6818 N   0  0  0  0  0  0  0  0  0  0  0  0
    3.0815   18.7138   39.5309 C   0  0  0  0  0  0  0  0  0  0  0  0
    2.7921   19.4361   38.3941 C   0  0  0  0  0  0  0  0  0  0  0  0
    1.8109   20.4210   38.4039 C   0  0  0  0  0  0  0  0  0  0  0  0
    1.1292   20.6646   39.5734 C   0  0  0  0  0  0  0  0  0  0  0  0
    1.4577   19.9176   40.6716 C   0  0  0  0  0  0  0  0  0  0  0  0
    3.5605   19.1182   37.1900 C   0  0  0  0  0  0  0  0  0  0  0  0
    3.2648   19.8562   36.0284 O   0  0  0  0  0  0  0  0  0  0  0  0
    4.4536   18.2283   37.1640 O   0  0  0  0  0  0  0  0  0  0  0  0
    3.8481   17.9475   39.5150 H   0  0  0  0  0  0  0  0  0  0  0  0
    1.6336   20.9508   37.4769 H   0  0  0  0  0  0  0  0  0  0  0  0
    0.3715   21.4199   39.5946 H   0  0  0  0  0  0  0  0  0  0  0  0
    0.9110   20.1199   41.5913 H   0  0  0  0  0  0  0  0  0  0  0  0
  1  2  1  0
  1  6  2  0
  2  3  2  0
  3  4  1  0
  3  7  1  0
  4  5  2  0
  5  6  1  0
  7  8  1  0
  7  9  2  0
  2 10  1  0
  4 11  1  0
  5 12  1  0
  6 13  1  0
M  CHG  1   8  -1
M  END
>  <mol_id>  (8) 
2026-09-18-3war-s0-n100-r4-0008

>  <rmsd_to_ref>  (8) 
0.7755102040817093

>  <pose_kind>  (8) 
conformer

$$$$
3war.A
     RDKit          3D

 13 13  0  0  0  0  0  0  0  0999 V2000
    1.4902   19.5901   40.7254 N   0  0  0  0  0  0  0  0  0  0  0  0
    2.3028   19.1281   39.6623 C   0  0  0  0  0  0  0  0  0  0  0  0
    2.5226   20.0343   38.5624 C   0  0  0  0  0  0  0  0  0  0  0  0
    1.9350   21.2868   38.5492 C   0  0  0  0  0  0  0  0  0  0  0  0
    1.1732   21.7045   39.6184 C   0  0  0  0  0  0  0  0  0  0  0  0
    0.9383   20.8440   40.6673 C   0  0  0  0  0  0  0  0  0  0  0  0
    3.3059   19.5692   37.3438 C   0  0  0  0  0  0  0  0  0  0  0  0
    3.9653   18.4918   37.4274 O   0  0  0  0  0  0  0  0  0  0  0  0
    3.2133   20.2923   36.3754 O   0  0  0  0  0  0  0  0  0  0  0  0
    2.7471   18.1219   39.6747 H   0  0  0  0  0  0  0  0  0  0  0  0
    2.0764   21.9504   37.6834 H   0  0  0  0  0  0  0  0  0  0  0  0
    0.7542   22.7214   39.6340 H   0  0  0  0  0  0  0  0  0  0  0  0
    0.2846   21.1743   41.4880 H   0  0  0  0  0  0  0  0  0  0  0  0
  1  2  1  0
  1  6  2  0
  2  3  2  0
  3  4  1  0
  3  7  1  0
  4  5  2  0
  5  6  1  0
  7  8  1  0
  7  9  2  0
  2 10  1  0
  4 11  1  0
  5 12  1  0
  6 13  1  0
M  CHG  1   8  -1
M  END
>  <mol_id>  (9) 
2026-09-18-3war-s0-n100-r4-0009

>  <rmsd_to_ref>  (9) 
0.8214285714316959

>  <pose_kind>  (9) 
rigid

$$$$
3war.A
     RDKit          3D

 13 13  0  0  0  0  0  0  0  0999 V2000
    1.2418   18.6874   39.7798 N   0  0  0  0  0  0  0  0  0  0  0  0
    2.2071   18.7633   38.8180 C   0  0  0  0  0  0  0  0  0  0  0  0
    2.5256   20.0027   38.2997 C   0  0  0  0  0  0  0  0  0  0  0  0
    1.9170   21.1723   38.7047 C   0  0  0  0  0  0  0  0  0  0  0  0
    0.9353   21.0630   39.6882 C   0  0  0  0  0  0  0  0  0  0  0  0
    0.6364   19.8168   40.1883 C   0  0  0  0  0  0  0  0  0  0  0  0
    3.5577   20.0788   37.2722 C   0  0  0  0  0  0  0  0  0  0  0  0
    4.2396   18.9992   36.7803 O   0  0  0  0  0  0  0  0  0  0  0  0
    3.8253   21.2366   36.8174 O   0  0  0  0  0  0  0  0  0  0  0  0
    2.7043   17.8617   38.4783 H   0  0  0  0  0  0  0  0  0  0  0  0
    2.1726   22.1189   38.2967 H   0  0  0  0  0  0  0  0  0  0  0  0
    0.4354   21.9593   40.0314 H   0  0  0  0  0  0  0  0  0  0  0  0
   -0.1259   19.6988   40.9575 H   0  0  0  0  0  0  0  0  0  0  0  0
  1  2  1  0
  1  6  2  0
  2  3  2  0
  3  4  1  0
  3  7  1  0
  4  5  2  0
  5  6  1  0
  7  8  1  0
  7  9  2  0
  2 10  1  0
  4 11  1  0
  5 12  1  0
  6 13  1  0
M  CHG  1   8  -1
M  END
>  <mol_id>  (10) 
2026-09-18-3war-s0-n100-r4-0010

>  <rmsd_to_ref>  (10) 
0.8673469387789321

>  <pose_kind>  (10) 
conformer

$$$$
3war.A
     RDKit          3D

 13 13  0  0  0  0  0  0  0  0999 V2000
    2.1473   18.1438   40.3168 N   0  0  0  0  0  0  0  0  0  0  0  0
    2.8465   18.6465   39.1932 C   0  0  0  0  0  0  0  0  0  0  0  0
    2.7537   20.0635   38.9424 C   0  0  0  0  0  0  0  0  0  0  0  0
    1.9882   20.8779   39.7578 C   0  0  0  0  0  0  0  0  0  0  0  0
    1.3463   20.3493   40.8562 C   0  0  0  0  0  0  0  0  0  0  0  0
    1.4095   18.9954   41.0984 C   0  0  0  0  0  0  0  0  0  0  0  0
    3.4006   20.6557   37.6992 C   0  0  0  0  0  0  0  0  0  0  0  0
    4.2206   19.9427   37.0496 O   0  0  0  0  0  0  0  0  0  0  0  0
    3.0510   21.7859   37.4353 O   0  0  0  0  0  0  0  0  0  0  0  0
    3.4346   17.9852   38.5400 H   0  0  0  0  0  0  0  0  0  0  0  0
    1.8919   21.9494   39.5286 H   0  0  0  0  0  0  0  0  0  0  0  0
    0.7856   21.0064   41.5372 H   0  0  0  0  0  0  0  0  0  0  0  0
    0.8480   18.5820   41.9491 H   0  0  0  0  0  0  0  0  0  0  0  0
  1  2  1  0
  1  6  2  0
  2  3  2  0
  3  4  1  0
  3  7  1  0
  4  5  2  0
  5  6  1  0
  7  8  1  0
  7  9  2  0
  2 10  1  0
  4 11  1  0
  5 12  1  0
  6 13  1  0
M  CHG  1   8  -1
M  END
>  <mol_id>  (11) 
2026-09-18-3war-s0-n100-r4-0011

>  <rmsd_to_ref>  (11) 
0.9132653061279817

>  <pose_kind>  (11) 
rigid

$$$$
3war.A
     RDKit          3D

 13 13  0  0  0  0  0  0  0  0999 V2000
    2.3212   18.5748   40.1069 N   0  0  0  0  0  0  0  0  0  0  0  0
    2.7433   19.1069   38.9231 C   0  0  0  0  0  0  0  0  0  0  0  0
    2.1406   20.2253   38.3856 C   0  0  0  0  0  0  0  0  0  0  0  0
    1.0927   20.8115   39.0625 C   0  0  0  0  0  0  0  0  0  0  0  0
    0.6535   20.2939   40.2515 C   0  0  0  0  0  0  0  0  0  0  0  0
    1.2966   19.1584   40.7564 C   0  0  0  0  0  0  0  0  0  0  0  0
    2.5944   20.7924   37.1187 C   0  0  0  0  0  0  0  0  0  0  0  0
    3.6618   20.1756   36.4526 O   0  0  0  0  0  0  0  0  0  0  0  0
    2.0138   21.8117   36.6697 O   0  0  0  0  0  0  0  0  0  0  0  0
    3.5703   18.6139   38.4248 H   0  0  0  0  0  0  0  0  0  0  0  0
    0.6344   21.6914   38.6190 H   0  0  0  0  0  0  0  0  0  0  0  0
   -0.1684   20.7416   40.7968 H   0  0  0  0  0  0  0  0  0  0  0  0
    0.9988   18.7006   41.6893 H   0  0  0  0  0  0  0  0  0  0  0  0
  1  2  1  0
  1  6  2  0
  2  3  2  0
  3  4  1  0
  3  7  1  0
  4  5  2  0
  5  6  1  0
  7  8  1  0
  7  9  2  0
  2 10  1  0
  4 11  1  0
  5 12  1  0
  6 13  1  0
M  CHG  1   8  -1
M  END
>  <mol_id>  (12) 
2026-09-18-3war-s0-n100-r4-0012

>  <rmsd_to_ref>  (12) 
0.9591836734725013

>  <pose_kind>  (12) 
conformer

$$$$
3war.A
     RDKit          3D

 13 13  0  0  0  0  0  0  0  0999 V2000
    2.5760   19.5558   40.8219 N   0  0  0  0  0  0  0  0  0  0  0  0
    2.5603   19.1390   39.4691 C   0  0  0  0  0  0  0  0  0  0  0  0
    2.1156   20.1008   38.4910 C   0  0  0  0  0  0  0  0  0  0  0  0
    1.6995   21.3624   38.8775 C   0  0  0  0  0  0  0  0  0  0  0  0
    1.7571   21.7336   40.2029 C   0  0  0  0  0  0  0  0  0  0  0  0
    2.1613   20.8207   41.1510 C   0  0  0  0  0  0  0  0  0  0  0  0
    1.9826   19.6900   37.0321 C   0  0  0  0  0  0  0  0  0  0  0  0
    2.5067   18.5980   36.6641 O   0  0  0  0  0  0  0  0  0  0  0  0
    1.3596   20.4673   36.3414 O   0  0  0  0  0  0  0  0  0  0  0  0
    2.8736   18.1259   39.1768 H   0  0  0  0  0  0  0  0  0  0  0  0
    1.3218   22.0703   38.1250 H   0  0  0  0  0  0  0  0  0  0  0  0
    1.4814   22.7555   40.5026 H   0  0  0  0  0  0  0  0  0  0  0  0
    2.1511   21.1166   42.2104 H   0  0  0  0  0  0  0  0  0  0  0  0
  1  2  1  0
  1  6  2  0
  2  3  2  0
  3  4  1  0
  3  7  1  0
  4  5  2  0
  5  6  1  0
  7  8  1  0
  7  9  2  0
  2 10  1  0
  4 11  1  0
  5 12  1  0
  6 13  1  0
M  CHG  1   8  -1
M  END
>  <mol_id>  (13) 
2026-09-18-3war-s0-n100-r4-0013

>  <rmsd_to_ref>  (13) 
1.0051020408213944

>  <pose_kind>  (13) 
rigid

$$$$
3war.A
     RDKit          3D

 13 13  0  0  0  0  0  0  0  0999 V2000
    1.0260   19.1560   40.7236 N   0  0  0  0  0  0  0  0  0  0  0  0
    1.4831   18.5756   39.5974 C   0  0  0  0  0  0  0  0  0  0  0  0
    1.9688   19.3997   38.6122 C   0  0  0  0  0  0  0  0  0  0  0  0
    1.9868   20.7754   38.7729 C   0  0  0  0  0  0  0  0  0  0  0  0
    1.5146   21.3357   39.9306 C   0  0  0  0  0  0  0  0  0  0  0  0
    1.0304   20.4922   40.9097 C   0  0  0  0  0  0  0  0  0  0  0  0
    2.4754   18.7917   37.3692 C   0  0  0  0  0  0  0  0  0  0  0  0
    2.9724   19.6398   36.3619 O   0  0  0  0  0  0  0  0  0  0  0  0
    2.4639   17.5406   37.2120 O   0  0  0  0  0  0  0  0  0  0  0  0
    1.4429   17.4987   39.5310 H   0  0  0  0  0  0  0  0  0  0  0  0
    2.3697   21.4217   37.9959 H   0  0  0  0  0  0  0  0  0  0  0  0
    1.5346   22.3916   40.0398 H   0  0  0  0  0  0  0  0  0  0  0  0
    0.6543   20.9448   41.8327 H   0  0  0  0  0  0  0  0  0  0  0  0
  1  2  1  0
  1  6  2  0
  2  3  2  0
  3  4  1  0
  3  7  1  0
  4  5  2  0
  5  6  1  0
  7  8  1  0
  7  9  2  0
  2 10  1  0
  4 11  1  0
  5 12  1  0
  6 13  1  0
M  CHG  1   8  -1
M  END
>  <mol_id>  (14) 
2026-09-18-3war-s0-n100-r4-0014

>  <rmsd_to_ref>  (14) 
1.051020408164935

>  <pose_kind>  (14) 
conformer

$$$$
3war.A
     RDKit          3D

 13 13  0  0  0  0  0  0  0  0999 V2000
    3.0872   18.0541   40.4181 N   0  0  0  0  0  0  0  0  0  0  0  0
    2.9726   18.1848   39.0131 C   0  0  0  0  0  0  0  0  0  0  0  0
    2.8260   19.5198   38.4879 C   0  0  0  0  0  0  0  0  0  0  0  0
    2.7736   20.6120   39.3355 C   0  0  0  0  0  0  0  0  0  0  0  0
    2.9161   20.4397   40.6949 C   0  0  0  0  0  0  0  0  0  0  0  0
    3.0377   19.1700   41.2135 C   0  0  0  0  0  0  0  0  0  0  0  0
    2.6018   19.7258   36.9972 C   0  0  0  0  0  0  0  0  0  0  0  0
    2.8050   18.7495   36.2174 O   0  0  0  0  0  0  0  0  0  0  0  0
    2.2290   20.8374   36.6896 O   0  0  0  0  0  0  0  0  0  0  0  0
    2.9944   17.3066   38.3512 H   0  0  0  0  0  0  0  0  0  0  0  0
    2.6177   21.6198   38.9232 H   0  0  0  0  0  0  0  0  0  0  0  0
    2.9327   21.3131   41.3634 H   0  0  0  0  0  0  0  0  0  0  0  0
    3.0974   19.0464   42.3049 H   0  0  0  0  0  0  0  0  0  0  0  0
  1  2  1  0
  1  6  2  0
  2  3  2  0
  3  4  1  0
  3  7  1  0
  4  5  2  0
  5  6  1  0
  7  8  1  0
  7  9  2  0
  2 10  1  0
  4 11  1  0
  5 12  1  0
  6 13  1  0
M  CHG  1   8  -1
M  END
>  <mol_id>  (15) 
2026-09-18-3war-s0-n100-r4-0015

>  <rmsd_to_ref>  (15) 
1.0969387755113496

>  <pose_kind>  (15) 
rigid

$$$$
3war.A
     RDKit          3D

 13 13  0  0  0  0  0  0  0  0999 V2000
    0.7972   19.4351   40.3640 N   0  0  0  0  0  0  0  0  0  0  0  0
    1.6380   18.8732   39.4732 C   0  0  0  0  0  0  0  0  0  0  0  0
    2.0986   19.6274   38.4152 C   0  0  0  0  0  0  0  0  0  0  0  0
    1.6663   20.9329   38.3275 C   0  0  0  0  0  0  0  0  0  0  0  0
    0.8051   21.4859   39.2520 C   0  0  0  0  0  0  0  0  0  0  0  0
    0.3640   20.7043   40.2971 C   0  0  0  0  0  0  0  0  0  0  0  0
    3.0086   19.0469   37.4363 C   0  0  0  0  0  0  0  0  0  0  0  0
    3.4424   19.8694   36.3795 O   0  0  0  0  0  0  0  0  0  0  0  0
    3.4175   17.8547   37.4963 O   0  0  0  0  0  0  0  0  0  0  0  0
    1.9741   17.8382   39.5521 H   0  0  0  0  0  0  0  0  0  0  0  0
    2.0106   21.5378   37.5145 H   0  0  0  0  0  0  0  0  0  0  0  0
    0.4822   22.4935   39.1691 H   0  0  0  0  0  0  0  0  0  0  0  0
   -0.3123   21.0738   41.0578 H   0  0  0  0  0  0  0  0  0  0  0  0
  1  2  1  0
  1  6  2  0
  2  3  2  0
  3  4  1  0
  3  7  1  0
  4  5  2  0
  5  6  1  0
  7  8  1  0
  7  9  2  0
  2 10  1  0
  4 11  1  0
  5 12  1  0
  6 13  1  0
M  CHG  1   8  -1
M  END
>  <mol_id>  (16) 
2026-09-18-3war-s0-n100-r4-0016

>  <rmsd_to_ref>  (16) 
1.1428571428581424

>  <pose_kind>  (16) 
conformer

$$$$
3war.A
     RDKit          3D

 13 13  0  0  0  0  0  0  0  0999 V2000
    2.6959   18.0327   39.8264 N   0  0  0  0  0  0  0  0  0  0  0  0
    3.1665   18.7104   38.6761 C   0  0  0  0  0  0  0  0  0  0  0  0
    2.9580   20.1363   38.6231 C   0  0  0  0  0  0  0  0  0  0  0  0
    2.3004   20.7940   39.6473 C   0  0  0  0  0  0  0  0  0  0  0  0
    1.8832   20.0976   40.7605 C   0  0  0  0  0  0  0  0  0  0  0  0
    2.0578   18.7331   40.8177 C   0  0  0  0  0  0  0  0  0  0  0  0
    3.3522   20.9127   37.3754 C   0  0  0  0  0  0  0  0  0  0  0  0
    4.0863   20.3405   36.5173 O   0  0  0  0  0  0  0  0  0  0  0  0
    2.9038   22.0372   37.3153 O   0  0  0  0  0  0  0  0  0  0  0  0
    3.6692   18.1729   37.8585 H   0  0  0  0  0  0  0  0  0  0  0  0
    2.1102   21.8748   39.5728 H   0  0  0  0  0  0  0  0  0  0  0  0
    1.4125   20.6297   41.6003 H   0  0  0  0  0  0  0  0  0  0  0  0
    1.6716   18.1851   41.6898 H   0  0  0  0  0  0  0  0  0  0  0  0
  1  2  1  0
  1  6  2  0
  2  3  2  0
  3  4  1  0
  3  7  1  0
  4  5  2  0
  5  6  1  0
  7  8  1  0
  7  9  2  0
  2 10  1  0
  4 11  1  0
  5 12  1  0
  6 13  1  0
M  CHG  1   8  -1
M  END
>  <mol_id>  (17) 
2026-09-18-3war-s0-n100-r4-0017

>  <rmsd_to_ref>  (17) 
1.188775510204487

>  <pose_kind>  (17) 
rigid

$$$$
3war.A
     RDKit          3D

 13 13  0  0  0  0  0  0  0  0999 V2000
    3.6593   19.4625   40.1284 N   0  0  0  0  0  0  0  0  0  0  0  0
    3.4482   19.4065   38.7845 C   0  0  0  0  0  0  0  0  0  0  0  0
    2.5192   20.2758   38.2497 C   0  0  0  0  0  0  0  0  0  0  0  0
    1.8073   21.1837   39.0053 C   0  0  0  0  0  0  0  0  0  0  0  0
    2.0684   21.1934   40.3803 C   0  0  0  0  0  0  0  0  0  0  0  0
    2.9943   20.3315   40.9350 C   0  0  0  0  0  0  0  0  0  0  0  0
    2.2786   20.2314   36.8116 C   0  0  0  0  0  0  0  0  0  0  0  0
    2.9570   19.3444   35.9863 O   0  0  0  0  0  0  0  0  0  0  0  0
    1.4460   20.9943   36.2551 O   0  0  0  0  0  0  0  0  0  0  0  0
    4.0002   18.6963   38.1684 H   0  0  0  0  0  0  0  0  0  0  0  0
    1.0912   21.8510   38.5801 H   0  0  0  0  0  0  0  0  0  0  0  0
    1.5483   21.8792   41.0408 H   0  0  0  0  0  0  0  0  0  0  0  0
    3.2143   20.3209   42.0031 H   0  0  0  0  0  0  0  0  0  0  0  0
  1  2  1  0
  1  6  2  0
  2  3  2  0
  3  4  1  0
  3  7  1  0
  4  5  2  0
  5  6  1  0
  7  8  1  0
  7  9  2  0
  2 10  1  0
  4 11  1  0
  5 12  1  0
  6 13  1  0
M  CHG  1   8  -1
M  END
>  <mol_id>  (18) 
2026-09-18-3war-s0-n100-r4-0018

>  <rmsd_to_ref>  (18) 
1.2346938775521397

>  <pose_kind>  (18) 
conformer

$$$$
3war.A
     RDKit          3D

 13 13  0  0  0  0  0  0  0  0999 V2000
    1.9493   18.3198   40.8599 N   0  0  0  0  0  0  0  0  0  0  0  0
    2.9547   18.8563   40.0201 C   0  0  0  0  0  0  0  0  0  0  0  0
    2.6553   20.0960   39.3471 C   0  0  0  0  0  0  0  0  0  0  0  0
    1.4242   20.7072   39.5044 C   0  0  0  0  0  0  0  0  0  0  0  0
    0.4854   20.1629   40.3532 C   0  0  0  0  0  0  0  0  0  0  0  0
    0.7487   18.9699   40.9881 C   0  0  0  0  0  0  0  0  0  0  0  0
    3.6519   20.6787   38.3562 C   0  0  0  0  0  0  0  0  0  0  0  0
    4.8259   20.2056   38.3346 O   0  0  0  0  0  0  0  0  0  0  0  0
    3.2103   21.5617   37.6530 O   0  0  0  0  0  0  0  0  0  0  0  0
    3.9219   18.3496   39.8866 H   0  0  0  0  0  0  0  0  0  0  0  0
    1.1944   21.6295   38.9507 H   0  0  0  0  0  0  0  0  0  0  0  0
   -0.4708   20.6795   40.5230 H   0  0  0  0  0  0  0  0  0  0  0  0
   -0.0319   18.5222   41.6207 H   0  0  0  0  0  0  0  0  0  0  0  0
  1  2  1  0
  1  6  2  0
  2  3  2  0
  3  4  1  0
  3  7  1  0
  4  5  2  0
  5  6  1  0
  7  8  1  0
  7  9  2  0
  2 10  1  0
  4 11  1  0
  5 12  1  0
  6 13  1  0
M  CHG  1   8  -1
M  END
>  <mol_id>  (19) 
2026-09-18-3war-s0-n100-r4-0019

>  <rmsd_to_ref>  (19) 
1.2806122449024961

>  <pose_kind>  (19) 
rigid

$$$$
3war.A
     RDKit          3D

 13 13  0  0  0  0  0  0  0  0999 V2000
    2.7853   17.8519   41.0203 N   0  0  0  0  0  0  0  0  0  0  0  0
    3.3489   18.3359   39.8800 C   0  0  0  0  0  0  0  0  0  0  0  0
    2.5417   19.0515   39.0209 C   0  0  0  0  0  0  0  0  0  0  0  0
    1.2107   19.2994   39.2536 C   0  0  0  0  0  0  0  0  0  0  0  0
    0.6642   18.7975   40.4170 C   0  0  0  0  0  0  0  0  0  0  0  0
    1.4648   18.0800   41.2827 C   0  0  0  0  0  0  0  0  0  0  0  0
    3.1460   19.5679   37.8027 C   0  0  0  0  0  0  0  0  0  0  0  0
    2.3958   20.3060   36.8752 O   0  0  0  0  0  0  0  0  0  0  0  0
    4.3762   19.3783   37.5177 O   0  0  0  0  0  0  0  0  0  0  0  0
    4.3957   18.1394   39.6996 H   0  0  0  0  0  0  0  0  0  0  0  0
    0.5670   19.8498   38.6044 H   0  0  0  0  0  0  0  0  0  0  0  0
   -0.3524   18.9388   40.6797 H   0  0  0  0  0  0  0  0  0  0  0  0
    1.0778   17.6589   42.2228 H   0  0  0  0  0  0  0  0  0  0  0  0
  1  2  1  0
  1  6  2  0
  2  3  2  0
  3  4  1  0
  3  7  1  0
  4  5  2  0
  5  6  1  0
  7  8  1  0
  7  9  2  0
  2 10  1  0
  4 11  1  0
  5 12  1  0
  6 13  1  0
M  CHG  1   8  -1
M  END
>  <mol_id>  (20) 
2026-09-18-3war-s0-n100-r4-0020

>  <rmsd_to_ref>  (20) 
1.326530612245438

>  <pose_kind>  (20) 
conformer

$$$$
3war.A
     RDKit          3D

 13 13  0  0  0  0  0  0  0  0999 V2000
    2.9666   20.1170   41.4052 N   0  0  0  0  0  0  0  0  0  0  0  0
    2.8922   19.4035   40.1848 C   0  0  0  0  0  0  0  0  0  0  0  0
    2.3706   20.1109   39.0417 C   0  0  0  0  0  0  0  0  0  0  0  0
    1.9399   21.4207   39.1560 C   0  0  0  0  0  0  0  0  0  0  0  0
    2.0561   22.0843   40.3577 C   0  0  0  0  0  0  0  0  0  0  0  0
    2.5344   21.4170   41.4630 C   0  0  0  0  0  0  0  0  0  0  0  0
    2.1734   19.3773   37.7234 C   0  0  0  0  0  0  0  0  0  0  0  0
    2.7080   18.2385   37.5825 O   0  0  0  0  0  0  0  0  0  0  0  0
    1.4939   19.9675   36.9115 O   0  0  0  0  0  0  0  0  0  0  0  0
    3.2181   18.3554   40.1117 H   0  0  0  0  0  0  0  0  0  0  0  0
    1.5040   21.9332   38.2857 H   0  0  0  0  0  0  0  0  0  0  0  0
    1.7678   23.1431   40.4338 H   0  0  0  0  0  0  0  0  0  0  0  0
    2.5710   21.9457   42.4269 H   0  0  0  0  0  0  0  0  0  0  0  0
  1  2  1  0
  1  6  2  0
  2  3  2  0
  3  4  1  0
  3  7  1  0
  4  5  2  0
  5  6  1  0
  7  8  1  0
  7  9  2  0
  2 10  1  0
  4 11  1  0
  5 12  1  0
  6 13  1  0
M  CHG  1   8  -1
M  END
>  <mol_id>  (21) 
2026-09-18-3war-s0-n100-r4-0021

>  <rmsd_to_ref>  (21) 
1.3724489795957426

>  <pose_kind>  (21) 
rigid

$$$$
3war.A
     RDKit          3D

 13 13  0  0  0  0  0  0  0  0999 V2000
    3.3746   18.6378   40.9213 N   0  0  0  0  0  0  0  0  0  0  0  0
    3.2412   19.0340   39.6337 C   0  0  0  0  0  0  0  0  0  0  0  0
    2.2309   19.9253   39.3230 C   0  0  0  0  0  0  0  0  0  0  0  0
    1.3761   20.4036   40.2945 C   0  0  0  0  0  0  0  0  0  0  0  0
    1.5313   19.9851   41.6023 C   0  0  0  0  0  0  0  0  0  0  0  0
    2.5482   19.0942   41.8876 C   0  0  0  0  0  0  0  0  0  0  0  0
    2.0520   20.3807   37.9366 C   0  0  0  0  0  0  0  0  0  0  0  0
    2.9009   19.9128   36.9400 O   0  0  0  0  0  0  0  0  0  0  0  0
    1.1141   21.1918   37.7212 O   0  0  0  0  0  0  0  0  0  0  0  0
    3.9257   18.6426   38.8936 H   0  0  0  0  0  0  0  0  0  0  0  0
    0.5851   21.0970   40.0710 H   0  0  0  0  0  0  0  0  0  0  0  0
    0.8717   20.3476   42.3812 H   0  0  0  0  0  0  0  0  0  0  0  0
    2.7173   18.7282   42.9096 H   0  0  0  0  0  0  0  0  0  0  0  0
  1  2  1  0
  1  6  2  0
  2  3  2  0
  3  4  1  0
  3  7  1  0
  4  5  2  0
  5  6  1  0
  7  8  1  0
  7  9  2  0
  2 10  1  0
  4 11  1  0
  5 12  1  0
  6 13  1  0
M  CHG  1   8  -1
M  END
>  <mol_id>  (22) 
2026-09-18-3war-s0-n100-r4-0022

>  <rmsd_to_ref>  (22) 
1.4183673469398885

>  <pose_kind>  (22) 
conformer

$$$$
3war.A
     RDKit          3D

 13 13  0  0  0  0  0  0  0  0999 V2000
    3.2340   18.2830   39.5697 N   0  0  0  0  0  0  0  0  0  0  0  0
    2.9734   18.5875   38.2120 C   0  0  0  0  0  0  0  0  0  0  0  0
    2.0410   19.6549   37.9460 C   0  0  0  0  0  0  0  0  0  0  0  0
    1.4161   20.3237   38.9834 C   0  0  0  0  0  0  0  0  0  0  0  0
    1.7207   20.0114   40.2902 C   0  0  0  0  0  0  0  0  0  0  0  0
    2.5943   18.9821   40.5608 C   0  0  0  0  0  0  0  0  0  0  0  0
    1.6421   19.9712   36.5123 C   0  0  0  0  0  0  0  0  0  0  0  0
    2.3257   19.4691   35.5725 O   0  0  0  0  0  0  0  0  0  0  0  0
    0.6712   20.6887   36.4027 O   0  0  0  0  0  0  0  0  0  0  0  0
    3.4607   18.0342   37.3957 H   0  0  0  0  0  0  0  0  0  0  0  0
    0.6746   21.1062   38.7645 H   0  0  0  0  0  0  0  0  0  0  0  0
    1.2677   20.5821   41.1143 H   0  0  0  0  0  0  0  0  0  0  0  0
    2.7859   18.7110   41.6095 H   0  0  0  0  0  0  0  0  0  0  0  0
  1  2  1  0
  1  6  2  0
  2  3  2  0
  3  4  1  0
  3  7  1  0
  4  5  2  0
  5  6  1  0
  7  8  1  0
  7  9  2  0
  2 10  1  0
  4 11  1  0
  5 12  1  0
  6 13  1  0
M  CHG  1   8  -1
M  END
>  <mol_id>  (23) 
2026-09-18-3war-s0-n100-r4-0023

>  <rmsd_to_ref>  (23) 
1.4642857142889159

>  <pose_kind>  (23) 
rigid

$$$$
3war.A
     RDKit          3D

 13 13  0  0  0  0  0  0  0  0999 V2000
    3.2847   19.4045   40.7686 N   0  0  0  0  0  0  0  0  0  0  0  0
    2.8914   19.1880   39.4829 C   0  0  0  0  0  0  0  0  0  0  0  0
    2.8676   20.2054   38.5468 C   0  0  0  0  0  0  0  0  0  0  0  0
    3.2516   21.4733   38.9221 C   0  0  0  0  0  0  0  0  0  0  0  0
    3.6465   21.6673   40.2320 C   0  0  0  0  0  0  0  0  0  0  0  0
    3.6659   20.6385   41.1614 C   0  0  0  0  0  0  0  0  0  0  0  0
    2.4417   19.9458   37.1759 C   0  0  0  0  0  0  0  0  0  0  0  0
    2.4218   20.9658   36.2522 O   0  0  0  0  0  0  0  0  0  0  0  0
    2.0959   18.7953   36.8456 O   0  0  0  0  0  0  0  0  0  0  0  0
    2.5931   18.1823   39.2091 H   0  0  0  0  0  0  0  0  0  0  0  0
    3.2536   22.3051   38.2366 H   0  0  0  0  0  0  0  0  0  0  0  0
    3.9611   22.6414   40.5932 H   0  0  0  0  0  0  0  0  0  0  0  0
    3.9728   20.7889   42.1797 H   0  0  0  0  0  0  0  0  0  0  0  0
  1  2  1  0
  1  6  2  0
  2  3  2  0
  3  4  1  0
  3  7  1  0
  4  5  2  0
  5  6  1  0
  7  8  1  0
  7  9  2  0
  2 10  1  0
  4 11  1  0
  5 12  1  0
  6 13  1  0
M  CHG  1   8  -1
M  END
>  <mol_id>  (24) 
2026-09-18-3war-s0-n100-r4-0024

>  <rmsd_to_ref>  (24) 
1.5102040816368696

>  <pose_kind>  (24) 
conformer

$$$$
3war.A
     RDKit          3D

 13 13  0  0  0  0  0  0  0  0999 V2000
    0.9270   19.3504   41.6952 N   0  0  0  0  0  0  0  0  0  0  0  0
    1.0513   18.8765   40.3670 C   0  0  0  0  0  0  0  0  0  0  0  0
    1.9814   19.5670   39.5081 C   0  0  0  0  0  0  0  0  0  0  0  0
    2.6929   20.6602   39.9692 C   0  0  0  0  0  0  0  0  0  0  0  0
    2.5598   21.0699   41.2778 C   0  0  0  0  0  0  0  0  0  0  0  0
    1.6619   20.4331   42.1050 C   0  0  0  0  0  0  0  0  0  0  0  0
    2.0947   19.1720   38.0432 C   0  0  0  0  0  0  0  0  0  0  0  0
    1.5647   18.0845   37.6702 O   0  0  0  0  0  0  0  0  0  0  0  0
    2.6922   19.9659   37.3489 O   0  0  0  0  0  0  0  0  0  0  0  0
    0.4642   18.0193   40.0060 H   0  0  0  0  0  0  0  0  0  0  0  0
    3.3661   21.2034   39.2897 H   0  0  0  0  0  0  0  0  0  0  0  0
    3.1685   21.9024   41.6604 H   0  0  0  0  0  0  0  0  0  0  0  0
    1.5293   20.8063   43.1312 H   0  0  0  0  0  0  0  0  0  0  0  0
  1  2  1  0
  1  6  2  0
  2  3  2  0
  3  4  1  0
  3  7  1  0
  4  5  2  0
  5  6  1  0
  7  8  1  0
  7  9  2  0
  2 10  1  0
  4 11  1  0
  5 12  1  0
  6 13  1  0
M  CHG  1   8  -1
M  END
>  <mol_id>  (25) 
2026-09-18-3war-s0-n100-r4-0025

>  <rmsd_to_ref>  (25) 
1.5561224489829046

>  <pose_kind>  (25) 
rigid

$$$$
3war.A
     RDKit          3D

 13 13  0  0  0  0  0  0  0  0999 V2000
    2.4145   20.3100   40.8635 N   0  0  0  0  0  0  0  0  0  0  0  0
    2.1338   19.6127   39.7514 C   0  0  0  0  0  0  0  0  0  0  0  0
    1.9584   20.3141   38.5761 C   0  0  0  0  0  0  0  0  0  0  0  0
    2.0720   21.6875   38.5654 C   0  0  0  0  0  0  0  0  0  0  0  0
    2.3663   22.3588   39.7565 C   0  0  0  0  0  0  0  0  0  0  0  0
    2.5401   21.6453   40.9288 C   0  0  0  0  0  0  0  0  0  0  0  0
    1.6511   19.6389   37.3211 C   0  0  0  0  0  0  0  0  0  0  0  0
    1.5156   18.2659   37.2220 O   0  0  0  0  0  0  0  0  0  0  0  0
    1.5090   20.3814   36.2958 O   0  0  0  0  0  0  0  0  0  0  0  0
    2.0387   18.5373   39.7290 H   0  0  0  0  0  0  0  0  0  0  0  0
    1.9472   22.2819   37.6887 H   0  0  0  0  0  0  0  0  0  0  0  0
    2.4621   23.4268   39.7856 H   0  0  0  0  0  0  0  0  0  0  0  0
    2.7686   22.1227   41.8726 H   0  0  0  0  0  0  0  0  0  0  0  0
  1  2  1  0
  1  6  2  0
  2  3  2  0
  3  4  1  0
  3  7  1  0
  4  5  2  0
  5  6  1  0
  7  8  1  0
  7  9  2  0
  2 10  1  0
  4 11  1  0
  5 12  1  0
  6 13  1  0
M  CHG  1   8  -1
M  END
>  <mol_id>  (26) 
2026-09-18-3war-s0-n100-r4-0026

>  <rmsd_to_ref>  (26) 
1.6020408163290685

>  <pose_kind>  (26) 
conformer

$$$$
3war.A
     RDKit          3D

 13 13  0  0  0  0  0  0  0  0999 V2000
    1.6411   19.1396   41.7598 N   0  0  0  0  0  0  0  0  0  0  0  0
    1.3630   18.6625   40.4564 C   0  0  0  0  0  0  0  0  0  0  0  0
    1.7997   19.4794   39.3512 C   0  0  0  0  0  0  0  0  0  0  0  0
    2.4366   20.6875   39.5725 C   0  0  0  0  0  0  0  0  0  0  0  0
    2.7103   21.0994   40.8584 C   0  0  0  0  0  0  0  0  0  0  0  0
    2.2831   20.3401   41.9245 C   0  0  0  0  0  0  0  0  0  0  0  0
    1.4499   19.0749   37.9269 C   0  0  0  0  0  0  0  0  0  0  0  0
    1.0103   17.9052   37.7241 O   0  0  0  0  0  0  0  0  0  0  0  0
    1.6218   19.9416   37.0971 O   0  0  0  0  0  0  0  0  0  0  0  0
    0.8368   17.7102   40.2937 H   0  0  0  0  0  0  0  0  0  0  0  0
    2.7250   21.3202   38.7202 H   0  0  0  0  0  0  0  0  0  0  0  0
    3.2681   22.0314   41.0326 H   0  0  0  0  0  0  0  0  0  0  0  0
    2.4632   20.7096   42.9448 H   0  0  0  0  0  0  0  0  0  0  0  0
  1  2  1  0
  1  6  2  0
  2  3  2  0
  3  4  1  0
  3  7  1  0
  4  5  2  0
  5  6  1  0
  7  8  1  0
  7  9  2  0
  2 10  1  0
  4 11  1  0
  5 12  1  0
  6 13  1  0
M  CHG  1   8  -1
M  END
>  <mol_id>  (27) 
2026-09-18-3war-s0-n100-r4-0027

>  <rmsd_to_ref>  (27) 
1.6479591836762535

>  <pose_kind>  (27) 
rigid

$$$$
3war.A
     RDKit          3D

 13 13  0  0  0  0  0  0  0  0999 V2000
    2.9085   18.6733   40.6772 N   0  0  0  0  0  0  0  0  0  0  0  0
    2.2986   18.6023   39.4784 C   0  0  0  0  0  0  0  0  0  0  0  0
    1.5011   19.6245   39.0077 C   0  0  0  0  0  0  0  0  0  0  0  0
    1.3099   20.7589   39.7698 C   0  0  0  0  0  0  0  0  0  0  0  0
    1.9543   20.8061   41.0092 C   0  0  0  0  0  0  0  0  0  0  0  0
    2.7491   19.7611   41.4524 C   0  0  0  0  0  0  0  0  0  0  0  0
    0.8348   19.5615   37.7123 C   0  0  0  0  0  0  0  0  0  0  0  0
    0.9545   18.4713   36.8613 O   0  0  0  0  0  0  0  0  0  0  0  0
    0.1276   20.5475   37.3733 O   0  0  0  0  0  0  0  0  0  0  0  0
    2.4162   17.7306   38.8385 H   0  0  0  0  0  0  0  0  0  0  0  0
    0.6996   21.5954   39.4631 H   0  0  0  0  0  0  0  0  0  0  0  0
    1.8015   21.6934   41.5992 H   0  0  0  0  0  0  0  0  0  0  0  0
    3.2200   19.8608   42.4223 H   0  0  0  0  0  0  0  0  0  0  0  0
  1  2  1  0
  1  6  2  0
  2  3  2  0
  3  4  1  0
  3  7  1  0
  4  5  2  0
  5  6  1  0
  7  8  1  0
  7  9  2  0
  2 10  1  0
  4 11  1  0
  5 12  1  0
  6 13  1  0
M  CHG  1   8  -1
M  END
>  <mol_id>  (28) 
2026-09-18-3war-s0-n100-r4-0028

>  <rmsd_to_ref>  (28) 
1.6938775510236046

>  <pose_kind>  (28) 
conformer

$$$$
3war.A
     RDKit          3D

 13 13  0  0  0  0  0  0  0  0999 V2000
    1.3210   20.3594   40.4986 N   0  0  0  0  0  0  0  0  0  0  0  0
    2.0653   19.5981   39.5656 C   0  0  0  0  0  0  0  0  0  0  0  0
    3.2988   20.1708   39.0862 C   0  0  0  0  0  0  0  0  0  0  0  0
    3.7088   21.4229   39.5085 C   0  0  0  0  0  0  0  0  0  0  0  0
    2.9658   22.1166   40.4384 C   0  0  0  0  0  0  0  0  0  0  0  0
    1.7762   21.5918   40.8914 C   0  0  0  0  0  0  0  0  0  0  0  0
    4.0998   19.4511   38.0115 C   0  0  0  0  0  0  0  0  0  0  0  0
    3.8065   18.2485   37.7462 O   0  0  0  0  0  0  0  0  0  0  0  0
    4.9632   20.1218   37.4882 O   0  0  0  0  0  0  0  0  0  0  0  0
    1.7179   18.6128   39.2214 H   0  0  0  0  0  0  0  0  0  0  0  0
    4.6298   21.8653   39.1010 H   0  0  0  0  0  0  0  0  0  0  0  0
    3.3216   23.0860   40.8175 H   0  0  0  0  0  0  0  0  0  0  0  0
    1.1692   22.1823   41.5934 H   0  0  0  0  0  0  0  0  0  0  0  0
  1  2  1  0
  1  6  2  0
  2  3  2  0
  3  4  1  0
  3  7  1  0
  4  5  2  0
  5  6  1  0
  7  8  1  0
  7  9  2  0
  2 10  1  0
  4 11  1  0
  5 12  1  0
  6 13  1  0
M  CHG  1   8  -1
M  END
>  <mol_id>  (29) 
2026-09-18-3war-s0-n100-r4-0029

>  <rmsd_to_ref>  (29) 
1.7397959183706422

>  <pose_kind>  (29) 
rigid

$$$$
3war.A
     RDKit          3D

 13 13  0  0  0  0  0  0  0  0999 V2000
    2.6263   18.1698   39.5197 N   0  0  0  0  0  0  0  0  0  0  0  0
    2.8179   18.8881   38.3883 C   0  0  0  0  0  0  0  0  0  0  0  0
    3.3924   20.1328   38.4917 C   0  0  0  0  0  0  0  0  0  0  0  0
    3.7779   20.6667   39.7190 C   0  0  0  0  0  0  0  0  0  0  0  0
    3.5480   19.8709   40.8230 C   0  0  0  0  0  0  0  0  0  0  0  0
    2.9735   18.6189   40.7482 C   0  0  0  0  0  0  0  0  0  0  0  0
    3.6166   20.9403   37.2943 C   0  0  0  0  0  0  0  0  0  0  0  0
    3.2466   20.4460   36.0465 O   0  0  0  0  0  0  0  0  0  0  0  0
    4.1434   22.0792   37.3984 O   0  0  0  0  0  0  0  0  0  0  0  0
    2.5268   18.4982   37.4100 H   0  0  0  0  0  0  0  0  0  0  0  0
    4.2271   21.6468   39.7736 H   0  0  0  0  0  0  0  0  0  0  0  0
    3.8419   20.2673   41.8000 H   0  0  0  0  0  0  0  0  0  0  0  0
    2.8127   18.0310   41.6402 H   0  0  0  0  0  0  0  0  0  0  0  0
  1  2  1  0
  1  6  2  0
  2  3  2  0
  3  4  1  0
  3  7  1  0
  4  5  2  0
  5  6  1  0
  7  8  1  0
  7  9  2  0
  2 10  1  0
  4 11  1  0
  5 12  1  0
  6 13  1  0
M  CHG  1   8  -1
M  END
>  <mol_id>  (30) 
2026-09-18-3war-s0-n100-r4-0030

>  <rmsd_to_ref>  (30) 
1.785714285715101

>  <pose_kind>  (30) 
conformer

$$$$
3war.A
     RDKit          3D

 13 13  0  0  0  0  0  0  0  0999 V2000
    1.9311   20.1367   40.3092 N   0  0  0  0  0  0  0  0  0  0  0  0
    2.2653   19.9082   38.9527 C   0  0  0  0  0  0  0  0  0  0  0  0
    3.5391   20.4077   38.4973 C   0  0  0  0  0  0  0  0  0  0  0  0
    4.3742   21.1023   39.3543 C   0  0  0  0  0  0  0  0  0  0  0  0
    4.0196   21.2778   40.6739 C   0  0  0  0  0  0  0  0  0  0  0  0
    2.7985   20.8236   41.1193 C   0  0  0  0  0  0  0  0  0  0  0  0
    3.9204   20.2817   37.0299 C   0  0  0  0  0  0  0  0  0  0  0  0
    3.2318   19.5169   36.2926 O   0  0  0  0  0  0  0  0  0  0  0  0
    4.8711   20.9542   36.6936 O   0  0  0  0  0  0  0  0  0  0  0  0
    1.5833   19.3729   38.2757 H   0  0  0  0  0  0  0  0  0  0  0  0
    5.3232   21.5150   38.9812 H   0  0  0  0  0  0  0  0  0  0  0  0
    4.7092   21.7790   41.3689 H   0  0  0  0  0  0  0  0  0  0  0  0
    2.5084   21.0186   42.1623 H   0  0  0  0  0  0  0  0  0  0  0  0
  1  2  1  0
  1  6  2  0
  2  3  2  0
  3  4  1  0
  3  7  1  0
  4  5  2  0
  5  6  1  0
  7  8  1  0
  7  9  2  0
  2 10  1  0
  4 11  1  0
  5 12  1  0
  6 13  1  0
M  CHG  1   8  -1
M  END
>  <mol_id>  (31) 
2026-09-18-3war-s0-n100-r4-0031

>  <rmsd_to_ref>  (31) 
1.8316326530629323

>  <pose_kind>  (31) 
rigid

$$$$
3war.A
     RDKit          3D

 13 13  0  0  0  0  0  0  0  0999 V2000
    2.4604   19.3462   40.1783 N   0  0  0  0  0  0  0  0  0  0  0  0
    2.3083   18.6720   39.0051 C   0  0  0  0  0  0  0  0  0  0  0  0
    2.9544   19.1749   37.8940 C   0  0  0  0  0  0  0  0  0  0  0  0
    3.7344   20.3119   37.9204 C   0  0  0  0  0  0  0  0  0  0  0  0
    3.8523   20.9605   39.1551 C   0  0  0  0  0  0  0  0  0  0  0  0
    3.2137   20.4733   40.2787 C   0  0  0  0  0  0  0  0  0  0  0  0
    2.8039   18.4669   36.6275 C   0  0  0  0  0  0  0  0  0  0  0  0
    2.0348   17.3155   36.5232 O   0  0  0  0  0  0  0  0  0  0  0  0
    3.3639   18.8677   35.5737 O   0  0  0  0  0  0  0  0  0  0  0  0
    1.6961   17.7710   38.9620 H   0  0  0  0  0  0  0  0  0  0  0  0
    4.2292   20.6911   37.0543 H   0  0  0  0  0  0  0  0  0  0  0  0
    4.4487   21.8611   39.2560 H   0  0  0  0  0  0  0  0  0  0  0  0
    3.2909   20.9615   41.2509 H   0  0  0  0  0  0  0  0  0  0  0  0
  1  2  1  0
  1  6  2  0
  2  3  2  0
  3  4  1  0
  3  7  1  0
  4  5  2  0
  5  6  1  0
  7  8  1  0
  7  9  2  0
  2 10  1  0
  4 11  1  0
  5 12  1  0
  6 13  1  0
M  CHG  1   8  -1
M  END
>  <mol_id>  (32) 
2026-09-18-3war-s0-n100-r4-0032

>  <rmsd_to_ref>  (32) 
1.8775510204088284

>  <pose_kind>  (32) 
conformer

$$$$
3war.A
     RDKit          3D

 13 13  0  0  0  0  0  0  0  0999 V2000
    2.5767   20.0400   40.8112 N   0  0  0  0  0  0  0  0  0  0  0  0
    3.7950   20.0502   40.0903 C   0  0  0  0  0  0  0  0  0  0  0  0
    3.7108   20.2273   38.6617 C   0  0  0  0  0  0  0  0  0  0  0  0
    2.4836   20.3526   38.0352 C   0  0  0  0  0  0  0  0  0  0  0  0
    1.3249   20.3638   38.7803 C   0  0  0  0  0  0  0  0  0  0  0  0
    1.3872   20.1768   40.1429 C   0  0  0  0  0  0  0  0  0  0  0  0
    4.9723   20.1525   37.8144 C   0  0  0  0  0  0  0  0  0  0  0  0
    6.0939   20.1943   38.3999 O   0  0  0  0  0  0  0  0  0  0  0  0
    4.7770   20.0469   36.6228 O   0  0  0  0  0  0  0  0  0  0  0  0
    4.7634   19.9283   40.5976 H   0  0  0  0  0  0  0  0  0  0  0  0
    2.4330   20.4434   36.9401 H   0  0  0  0  0  0  0  0  0  0  0  0
    0.3537   20.5217   38.2884 H   0  0  0  0  0  0  0  0  0  0  0  0
    0.4492   20.1355   40.7160 H   0  0  0  0  0  0  0  0  0  0  0  0
  1  2  1  0
  1  6  2  0
  2  3  2  0
  3  4  1  0
  3  7  1  0
  4  5  2  0
  5  6  1  0
  7  8  1  0
  7  9  2  0
  2 10  1  0
  4 11  1  0
  5 12  1  0
  6 13  1  0
M  CHG  1   8  -1
M  END
>  <mol_id>  (33) 
2026-09-18-3war-s0-n100-r4-0033

>  <rmsd_to_ref>  (33) 
1.9234693877582278

>  <pose_kind>  (33) 
rigid

$$$$
3war.A
     RDKit          3D

 13 13  0  0  0  0  0  0  0  0999 V2000
    2.8264   17.1809   40.1121 N   0  0  0  0  0  0  0  0  0  0  0  0
    2.4036   17.6199   38.9094 C   0  0  0  0  0  0  0  0  0  0  0  0
    2.7830   18.8384   38.4375 C   0  0  0  0  0  0  0  0  0  0  0  0
    3.6117   19.6165   39.2183 C   0  0  0  0  0  0  0  0  0  0  0  0
    4.0688   19.2015   40.4612 C   0  0  0  0  0  0  0  0  0  0  0  0
    3.6384   17.9380   40.8824 C   0  0  0  0  0  0  0  0  0  0  0  0
    2.3458   19.3622   37.1264 C   0  0  0  0  0  0  0  0  0  0  0  0
    1.5130   18.5990   36.3239 O   0  0  0  0  0  0  0  0  0  0  0  0
    2.7554   20.4882   36.7991 O   0  0  0  0  0  0  0  0  0  0  0  0
    1.7525   16.9920   38.3119 H   0  0  0  0  0  0  0  0  0  0  0  0
    3.9281   20.5796   38.8757 H   0  0  0  0  0  0  0  0  0  0  0  0
    4.7152   19.7961   41.0821 H   0  0  0  0  0  0  0  0  0  0  0  0
    3.9536   17.5618   41.8260 H   0  0  0  0  0  0  0  0  0  0  0  0
  1  2  1  0
  1  6  2  0
  2  3  2  0
  3  4  1  0
  3  7  1  0
  4  5  2  0
  5  6  1  0
  7  8  1  0
  7  9  2  0
  2 10  1  0
  4 11  1  0
  5 12  1  0
  6 13  1  0
M  CHG  1   8  -1
M  END
>  <mol_id>  (34) 
2026-09-18-3war-s0-n100-r4-0034

>  <rmsd_to_ref>  (34) 
1.9693877551055303

>  <pose_kind>  (34) 
conformer

$$$$
3war.A
     RDKit          3D

 13 13  0  0  0  0  0  0  0  0999 V2000
    0.4384   20.6195   38.8127 N   0  0  0  0  0  0  0  0  0  0  0  0
    1.5305   19.9494   38.2108 C   0  0  0  0  0  0  0  0  0  0  0  0
    2.8020   20.6295   38.2167 C   0  0  0  0  0  0  0  0  0  0  0  0
    2.9261   21.8932   38.7661 C   0  0  0  0  0  0  0  0  0  0  0  0
    1.8419   22.4961   39.3653 C   0  0  0  0  0  0  0  0  0  0  0  0
    0.6167   21.8680   39.3509 C   0  0  0  0  0  0  0  0  0  0  0  0
    3.9948   20.0101   37.5036 C   0  0  0  0  0  0  0  0  0  0  0  0
    3.9181   18.7989   37.1433 O   0  0  0  0  0  0  0  0  0  0  0  0
    4.9306   20.7616   37.3345 O   0  0  0  0  0  0  0  0  0  0  0  0
    1.4143   18.9535   37.7583 H   0  0  0  0  0  0  0  0  0  0  0  0
    3.8922   22.4175   38.7245 H   0  0  0  0  0  0  0  0  0  0  0  0
    1.9545   23.4755   39.8532 H   0  0  0  0  0  0  0  0  0  0  0  0
   -0.2501   22.3863   39.7868 H   0  0  0  0  0  0  0  0  0  0  0  0
  1  2  1  0
  1  6  2  0
  2  3  2  0
  3  4  1  0
  3  7  1  0
  4  5  2  0
  5  6  1  0
  7  8  1  0
  7  9  2  0
  2 10  1  0
  4 11  1  0
  5 12  1  0
  6 13  1  0
M  CHG  1   8  -1
M  END
>  <mol_id>  (35) 
2026-09-18-3war-s0-n100-r4-0035

>  <rmsd_to_ref>  (35) 
2.01530612245158

>  <pose_kind>  (35) 
rigid

$$$$
3war.A
     RDKit          3D

 13 13  0  0  0  0  0  0  0  0999 V2000
    3.0714   18.2230   40.6188 N   0  0  0  0  0  0  0  0  0  0  0  0
    3.4737   19.3284   39.9268 C   0  0  0  0  0  0  0  0  0  0  0  0
    2.6042   20.3683   39.6707 C   0  0  0  0  0  0  0  0  0  0  0  0
    1.3058   20.2826   40.1254 C   0  0  0  0  0  0  0  0  0  0  0  0
    0.8816   19.1826   40.8215 C   0  0  0  0  0  0  0  0  0  0  0  0
    1.8003   18.1537   41.0565 C   0  0  0  0  0  0  0  0  0  0  0  0
    3.0374   21.5500   38.9300 C   0  0  0  0  0  0  0  0  0  0  0  0
    4.3631   21.6098   38.4799 O   0  0  0  0  0  0  0  0  0  0  0  0
    2.2090   22.4707   38.7217 O   0  0  0  0  0  0  0  0  0  0  0  0
    4.5032   19.3538   39.5880 H   0  0  0  0  0  0  0  0  0  0  0  0
    0.6400   21.1143   39.9113 H   0  0  0  0  0  0  0  0  0  0  0  0
   -0.1349   19.0985   41.1862 H   0  0  0  0  0  0  0  0  0  0  0  0
    1.5294   17.2589   41.5993 H   0  0  0  0  0  0  0  0  0  0  0  0
  1  2  1  0
  1  6  2  0
  2  3  2  0
  3  4  1  0
  3  7  1  0
  4  5  2  0
  5  6  1  0
  7  8  1  0
  7  9  2  0
  2 10  1  0
  4 11  1  0
  5 12  1  0
  6 13  1  0
M  CHG  1   8  -1
M  END
>  <mol_id>  (36) 
2026-09-18-3war-s0-n100-r4-0036

>  <rmsd_to_ref>  (36) 
2.061224489797691

>  <pose_kind>  (36) 
conformer

$$$$
3war.A
     RDKit          3D

 13 13  0  0  0  0  0  0  0  0999 V2000
    4.6419   19.0358   38.8779 N   0  0  0  0  0  0  0  0  0  0  0  0
    4.0477   19.1743   37.6004 C   0  0  0  0  0  0  0  0  0  0  0  0
    2.7006   19.6867   37.5552 C   0  0  0  0  0  0  0  0  0  0  0  0
    2.0225   19.9985   38.7201 C   0  0  0  0  0  0  0  0  0  0  0  0
    2.6501   19.8730   39.9401 C   0  0  0  0  0  0  0  0  0  0  0  0
    3.9292   19.3672   40.0015 C   0  0  0  0  0  0  0  0  0  0  0  0
    1.9675   19.7710   36.2247 C   0  0  0  0  0  0  0  0  0  0  0  0
    2.6370   19.6349   35.1589 O   0  0  0  0  0  0  0  0  0  0  0  0
    0.7731   19.9568   36.3148 O   0  0  0  0  0  0  0  0  0  0  0  0
    4.5899   18.9029   36.6826 H   0  0  0  0  0  0  0  0  0  0  0  0
    0.9803   20.3471   38.6721 H   0  0  0  0  0  0  0  0  0  0  0  0
    2.1312   20.1758   40.8616 H   0  0  0  0  0  0  0  0  0  0  0  0
    4.3961   19.2239   40.9871 H   0  0  0  0  0  0  0  0  0  0  0  0
  1  2  1  0
  1  6  2  0
  2  3  2  0
  3  4  1  0
  3  7  1  0
  4  5  2  0
  5  6  1  0
  7  8  1  0
  7  9  2  0
  2 10  1  0
  4 11  1  0
  5 12  1  0
  6 13  1  0
M  CHG  1   8  -1
M  END
>  <mol_id>  (37) 
2026-09-18-3war-s0-n100-r4-0037

>  <rmsd_to_ref>  (37) 
2.1071428571437343

>  <pose_kind>  (37) 
rigid

$$$$
3war.A
     RDKit          3D

 13 13  0  0  0  0  0  0  0  0999 V2000
    0.3466   19.5257   38.1516 N   0  0  0  0  0  0  0  0  0  0  0  0
    1.6068   19.1026   37.9465 C   0  0  0  0  0  0  0  0  0  0  0  0
    2.5874   20.0606   37.7852 C   0  0  0  0  0  0  0  0  0  0  0  0
    2.3445   21.4127   37.8230 C   0  0  0  0  0  0  0  0  0  0  0  0
    1.0241   21.8052   38.0380 C   0  0  0  0  0  0  0  0  0  0  0  0
    0.0512   20.8376   38.1980 C   0  0  0  0  0  0  0  0  0  0  0  0
    3.9735   19.6435   37.5596 C   0  0  0  0  0  0  0  0  0  0  0  0
    4.3092   18.2787   37.5066 O   0  0  0  0  0  0  0  0  0  0  0  0
    4.8575   20.5433   37.4141 O   0  0  0  0  0  0  0  0  0  0  0  0
    1.8951   18.0628   37.9009 H   0  0  0  0  0  0  0  0  0  0  0  0
    3.0980   22.1738   37.6990 H   0  0  0  0  0  0  0  0  0  0  0  0
    0.7416   22.8586   38.0826 H   0  0  0  0  0  0  0  0  0  0  0  0
   -1.0042   21.1010   38.3699 H   0  0  0  0  0  0  0  0  0  0  0  0
  1  2  1  0
  1  6  2  0
  2  3  2  0
  3  4  1  0
  3  7  1  0
  4  5  2  0
  5  6  1  0
  7  8  1  0
  7  9  2  0
  2 10  1  0
  4 11  1  0
  5 12  1  0
  6 13  1  0
M  CHG  1   8  -1
M  END
>  <mol_id>  (38) 
2026-09-18-3war-s0-n100-r4-0038

>  <rmsd_to_ref>  (38) 
2.1530612244913367

>  <pose_kind>  (38) 
conformer

$$$$
3war.A
     RDKit          3D

 13 13  0  0  0  0  0  0  0  0999 V2000
    3.3451   21.6180   39.7311 N   0  0  0  0  0  0  0  0  0  0  0  0
    3.1434   20.6448   38.7231 C   0  0  0  0  0  0  0  0  0  0  0  0
    1.8638   20.6439   38.0582 C   0  0  0  0  0  0  0  0  0  0  0  0
    0.8773   21.5437   38.4206 C   0  0  0  0  0  0  0  0  0  0  0  0
    1.1275   22.4909   39.3891 C   0  0  0  0  0  0  0  0  0  0  0  0
    2.3373   22.4927   40.0465 C   0  0  0  0  0  0  0  0  0  0  0  0
    1.5447   19.5660   37.0330 C   0  0  0  0  0  0  0  0  0  0  0  0
    2.4935   18.8503   36.5969 O   0  0  0  0  0  0  0  0  0  0  0  0
    0.3740   19.4861   36.7291 O   0  0  0  0  0  0  0  0  0  0  0  0
    3.9283   19.9209   38.4586 H   0  0  0  0  0  0  0  0  0  0  0  0
   -0.1086   21.5026   37.9346 H   0  0  0  0  0  0  0  0  0  0  0  0
    0.3637   23.2430   39.6363 H   0  0  0  0  0  0  0  0  0  0  0  0
    2.5012   23.2219   40.8536 H   0  0  0  0  0  0  0  0  0  0  0  0
  1  2  1  0
  1  6  2  0
  2  3  2  0
  3  4  1  0
  3  7  1  0
  4  5  2  0
  5  6  1  0
  7  8  1  0
  7  9  2  0
  2 10  1  0
  4 11  1  0
  5 12  1  0
  6 13  1  0
M  CHG  1   8  -1
M  END
>  <mol_id>  (39) 
2026-09-18-3war-s0-n100-r4-0039

>  <rmsd_to_ref>  (39) 
2.198979591839478

>  <pose_kind>  (39) 
rigid

$$$$
3war.A
     RDKit          3D

 13 13  0  0  0  0  0  0  0  0999 V2000
    0.9733   19.3526   40.4096 N   0  0  0  0  0  0  0  0  0  0  0  0
    2.2624   19.7406   40.2852 C   0  0  0  0  0  0  0  0  0  0  0  0
    2.6032   20.8106   39.4829 C   0  0  0  0  0  0  0  0  0  0  0  0
    1.6118   21.4871   38.8032 C   0  0  0  0  0  0  0  0  0  0  0  0
    0.2965   21.0914   38.9300 C   0  0  0  0  0  0  0  0  0  0  0  0
   -0.0056   20.0032   39.7522 C   0  0  0  0  0  0  0  0  0  0  0  0
    3.9746   21.2144   39.3578 C   0  0  0  0  0  0  0  0  0  0  0  0
    4.3482   22.2863   38.5588 O   0  0  0  0  0  0  0  0  0  0  0  0
    4.8848   20.6044   39.9730 O   0  0  0  0  0  0  0  0  0  0  0  0
    3.0581   19.2193   40.8135 H   0  0  0  0  0  0  0  0  0  0  0  0
    1.8185   22.3306   38.1618 H   0  0  0  0  0  0  0  0  0  0  0  0
   -0.4736   21.6252   38.3953 H   0  0  0  0  0  0  0  0  0  0  0  0
   -1.0230   19.6625   39.8779 H   0  0  0  0  0  0  0  0  0  0  0  0
  1  2  1  0
  1  6  2  0
  2  3  2  0
  3  4  1  0
  3  7  1  0
  4  5  2  0
  5  6  1  0
  7  8  1  0
  7  9  2  0
  2 10  1  0
  4 11  1  0
  5 12  1  0
  6 13  1  0
M  CHG  1   8  -1
M  END
>  <mol_id>  (40) 
2026-09-18-3war-s0-n100-r4-0040

>  <rmsd_to_ref>  (40) 
2.2448979591879192

>  <pose_kind>  (40) 
conformer

$$$$
3war.A
     RDKit          3D

 13 13  0  0  0  0  0  0  0  0999 V2000
    2.8128   18.5255   40.9515 N   0  0  0  0  0  0  0  0  0  0  0  0
    2.6032   19.0366   39.6480 C   0  0  0  0  0  0  0  0  0  0  0  0
    1.2609   18.9711   39.1253 C   0  0  0  0  0  0  0  0  0  0  0  0
    0.2393   18.4052   39.8671 C   0  0  0  0  0  0  0  0  0  0  0  0
    0.4841   17.9446   41.1422 C   0  0  0  0  0  0  0  0  0  0  0  0
    1.7640   17.9826   41.6483 C   0  0  0  0  0  0  0  0  0  0  0  0
    0.9830   19.4139   37.6965 C   0  0  0  0  0  0  0  0  0  0  0  0
    1.8774   20.0680   37.0843 O   0  0  0  0  0  0  0  0  0  0  0  0
   -0.0986   19.0794   37.2634 O   0  0  0  0  0  0  0  0  0  0  0  0
    3.4281   19.4649   39.0598 H   0  0  0  0  0  0  0  0  0  0  0  0
   -0.7702   18.3229   39.4380 H   0  0  0  0  0  0  0  0  0  0  0  0
   -0.3399   17.5481   41.7537 H   0  0  0  0  0  0  0  0  0  0  0  0
    1.9519   17.5625   42.6474 H   0  0  0  0  0  0  0  0  0  0  0  0
  1  2  1  0
  1  6  2  0
  2  3  2  0
  3  4  1  0
  3  7  1  0
  4  5  2  0
  5  6  1  0
  7  8  1  0
  7  9  2  0
  2 10  1  0
  4 11  1  0
  5 12  1  0
  6 13  1  0
M  CHG  1   8  -1
M  END
>  <mol_id>  (41) 
2026-09-18-3war-s0-n100-r4-0041

>  <rmsd_to_ref>  (41) 
2.2908163265326444

>  <pose_kind>  (41) 
rigid

$$$$
3war.A
     RDKit          3D

 13 13  0  0  0  0  0  0  0  0999 V2000
    4.3061   17.5209   39.8377 N   0  0  0  0  0  0  0  0  0  0  0  0
    3.5305   18.1215   38.9070 C   0  0  0  0  0  0  0  0  0  0  0  0
    3.1039   19.4205   39.1069 C   0  0  0  0  0  0  0  0  0  0  0  0
    3.4691   20.0976   40.2506 C   0  0  0  0  0  0  0  0  0  0  0  0
    4.2702   19.4782   41.2126 C   0  0  0  0  0  0  0  0  0  0  0  0
    4.6695   18.1796   40.9645 C   0  0  0  0  0  0  0  0  0  0  0  0
    2.2737   20.1065   38.1425 C   0  0  0  0  0  0  0  0  0  0  0  0
    1.8440   19.5268   36.9563 O   0  0  0  0  0  0  0  0  0  0  0  0
    1.9311   21.3038   38.4163 O   0  0  0  0  0  0  0  0  0  0  0  0
    3.2388   17.5967   38.0053 H   0  0  0  0  0  0  0  0  0  0  0  0
    3.1768   21.1095   40.4772 H   0  0  0  0  0  0  0  0  0  0  0  0
    4.5550   20.0025   42.1016 H   0  0  0  0  0  0  0  0  0  0  0  0
    5.2879   17.6749   41.6875 H   0  0  0  0  0  0  0  0  0  0  0  0
  1  2  1  0
  1  6  2  0
  2  3  2  0
  3  4  1  0
  3  7  1  0
  4  5  2  0
  5  6  1  0
  7  8  1  0
  7  9  2  0
  2 10  1  0
  4 11  1  0
  5 12  1  0
  6 13  1  0
M  CHG  1   8  -1
M  END
>  <mol_id>  (42) 
2026-09-18-3war-s0-n100-r4-0042

>  <rmsd_to_ref>  (42) 
2.3367346938820366

>  <pose_kind>  (42) 
conformer

$$$$
3war.A
     RDKit          3D

 13 13  0  0  0  0  0  0  0  0999 V2000
    3.6211   19.7236   40.1013 N   0  0  0  0  0  0  0  0  0  0  0  0
    2.6534   19.7197   39.0680 C   0  0  0  0  0  0  0  0  0  0  0  0
    1.5774   20.6738   39.1728 C   0  0  0  0  0  0  0  0  0  0  0  0
    1.4936   21.5299   40.2565 C   0  0  0  0  0  0  0  0  0  0  0  0
    2.4730   21.5167   41.2253 C   0  0  0  0  0  0  0  0  0  0  0  0
    3.4965   20.5988   41.1495 C   0  0  0  0  0  0  0  0  0  0  0  0
    0.4520   20.6605   38.1490 C   0  0  0  0  0  0  0  0  0  0  0  0
    0.6122   19.9900   37.0872 O   0  0  0  0  0  0  0  0  0  0  0  0
   -0.5254   21.3057   38.4616 O   0  0  0  0  0  0  0  0  0  0  0  0
    2.7195   19.0194   38.2223 H   0  0  0  0  0  0  0  0  0  0  0  0
    0.6435   22.2224   40.3446 H   0  0  0  0  0  0  0  0  0  0  0  0
    2.4374   22.2367   42.0562 H   0  0  0  0  0  0  0  0  0  0  0  0
    4.2408   20.5665   41.9588 H   0  0  0  0  0  0  0  0  0  0  0  0
  1  2  1  0
  1  6  2  0
  2  3  2  0
  3  4  1  0
  3  7  1  0
  4  5  2  0
  5  6  1  0
  7  8  1  0
  7  9  2  0
  2 10  1  0
  4 11  1  0
  5 12  1  0
  6 13  1  0
M  CHG  1   8  -1
M  END
>  <mol_id>  (43) 
2026-09-18-3war-s0-n100-r4-0043

>  <rmsd_to_ref>  (43) 
2.3826530612264225

>  <pose_kind>  (43) 
rigid

$$$$
3war.A
     RDKit          3D

 13 13  0  0  0  0  0  0  0  0999 V2000
    2.4486   20.7589   40.8318 N   0  0  0  0  0  0  0  0  0  0  0  0
    2.5665   19.6998   39.9803 C   0  0  0  0  0  0  0  0  0  0  0  0
    3.6739   19.6335   39.1595 C   0  0  0  0  0  0  0  0  0  0  0  0
    4.6545   20.6038   39.1802 C   0  0  0  0  0  0  0  0  0  0  0  0
    4.5166   21.6673   40.0489 C   0  0  0  0  0  0  0  0  0  0  0  0
    3.3995   21.7196   40.8663 C   0  0  0  0  0  0  0  0  0  0  0  0
    3.8128   18.5062   38.2437 C   0  0  0  0  0  0  0  0  0  0  0  0
    2.8473   17.5086   38.1927 O   0  0  0  0  0  0  0  0  0  0  0  0
    4.8112   18.4165   37.4819 O   0  0  0  0  0  0  0  0  0  0  0  0
    1.8168   18.9217   39.9381 H   0  0  0  0  0  0  0  0  0  0  0  0
    5.5153   20.5555   38.5446 H   0  0  0  0  0  0  0  0  0  0  0  0
    5.2924   22.4246   40.0578 H   0  0  0  0  0  0  0  0  0  0  0  0
    3.3258   22.5686   41.5343 H   0  0  0  0  0  0  0  0  0  0  0  0
  1  2  1  0
  1  6  2  0
  2  3  2  0
  3  4  1  0
  3  7  1  0
  4  5  2  0
  5  6  1  0
  7  8  1  0
  7  9  2  0
  2 10  1  0
  4 11  1  0
  5 12  1  0
  6 13  1  0
M  CHG  1   8  -1
M  END
>  <mol_id>  (44) 
2026-09-18-3war-s0-n100-r4-0044

>  <rmsd_to_ref>  (44) 
2.4285714285715145

>  <pose_kind>  (44) 
conformer

$$$$
3war.A
     RDKit          3D

 13 13  0  0  0  0  0  0  0  0999 V2000
    0.4717   21.0074   39.1712 N   0  0  0  0  0  0  0  0  0  0  0  0
    1.6356   20.2028   39.1257 C   0  0  0  0  0  0  0  0  0  0  0  0
    2.5199   20.3906   38.0024 C   0  0  0  0  0  0  0  0  0  0  0  0
    2.2157   21.3019   37.0068 C   0  0  0  0  0  0  0  0  0  0  0  0
    1.0851   22.0828   37.1063 C   0  0  0  0  0  0  0  0  0  0  0  0
    0.2209   21.9021   38.1628 C   0  0  0  0  0  0  0  0  0  0  0  0
    3.7382   19.4938   37.8403 C   0  0  0  0  0  0  0  0  0  0  0  0
    4.0931   18.7774   38.8219 O   0  0  0  0  0  0  0  0  0  0  0  0
    4.2639   19.5450   36.7493 O   0  0  0  0  0  0  0  0  0  0  0  0
    1.8557   19.4665   39.9128 H   0  0  0  0  0  0  0  0  0  0  0  0
    2.8777   21.4031   36.1342 H   0  0  0  0  0  0  0  0  0  0  0  0
    0.8736   22.8477   36.3446 H   0  0  0  0  0  0  0  0  0  0  0  0
   -0.7038   22.4967   38.1993 H   0  0  0  0  0  0  0  0  0  0  0  0
  1  2  1  0
  1  6  2  0
  2  3  2  0
  3  4  1  0
  3  7  1  0
  4  5  2  0
  5  6  1  0
  7  8  1  0
  7  9  2  0
  2 10  1  0
  4 11  1  0
  5 12  1  0
  6 13  1  0
M  CHG  1   8  -1
M  END
>  <mol_id>  (45) 
2026-09-18-3war-s0-n100-r4-0045

>  <rmsd_to_ref>  (45) 
2.47448979592183

>  <pose_kind>  (45) 
rigid

$$$$
3war.A
     RDKit          3D

 13 13  0  0  0  0  0  0  0  0999 V2000
    1.5427   18.1142   39.2124 N   0  0  0  0  0  0  0  0  0  0  0  0
    2.1402   19.2975   38.9738 C   0  0  0  0  0  0  0  0  0  0  0  0
    1.4316   20.4360   39.2695 C   0  0  0  0  0  0  0  0  0  0  0  0
    0.1511   20.3675   39.7931 C   0  0  0  0  0  0  0  0  0  0  0  0
   -0.4295   19.1483   40.0246 C   0  0  0  0  0  0  0  0  0  0  0  0
    0.2973   18.0150   39.7215 C   0  0  0  0  0  0  0  0  0  0  0  0
    2.0610   21.7446   39.0185 C   0  0  0  0  0  0  0  0  0  0  0  0
    1.3315   22.9091   39.3229 O   0  0  0  0  0  0  0  0  0  0  0  0
    3.2262   21.8190   38.5421 O   0  0  0  0  0  0  0  0  0  0  0  0
    3.1395   19.2864   38.5649 H   0  0  0  0  0  0  0  0  0  0  0  0
   -0.4044   21.2651   40.0249 H   0  0  0  0  0  0  0  0  0  0  0  0
   -1.4117   19.1111   40.4262 H   0  0  0  0  0  0  0  0  0  0  0  0
   -0.1710   17.0434   39.9083 H   0  0  0  0  0  0  0  0  0  0  0  0
  1  2  1  0
  1  6  2  0
  2  3  2  0
  3  4  1  0
  3  7  1  0
  4  5  2  0
  5  6  1  0
  7  8  1  0
  7  9  2  0
  2 10  1  0
  4 11  1  0
  5 12  1  0
  6 13  1  0
M  CHG  1   8  -1
M  END
>  <mol_id>  (46) 
2026-09-18-3war-s0-n100-r4-0046

>  <rmsd_to_ref>  (46) 
2.520408163267464

>  <pose_kind>  (46) 
conformer

$$$$
3war.A
     RDKit          3D

 13 13  0  0  0  0  0  0  0  0999 V2000
    2.8413   16.8052   38.2615 N   0  0  0  0  0  0  0  0  0  0  0  0
    3.6975   17.9211   38.1008 C   0  0  0  0  0  0  0  0  0  0  0  0
    3.4101   19.0889   38.8964 C   0  0  0  0  0  0  0  0  0  0  0  0
    2.3247   19.1114   39.7540 C   0  0  0  0  0  0  0  0  0  0  0  0
    1.5341   17.9924   39.8981 C   0  0  0  0  0  0  0  0  0  0  0  0
    1.7839   16.8762   39.1317 C   0  0  0  0  0  0  0  0  0  0  0  0
    4.2305   20.3557   38.7044 C   0  0  0  0  0  0  0  0  0  0  0  0
    5.3066   20.2813   38.0416 O   0  0  0  0  0  0  0  0  0  0  0  0
    3.7560   21.3488   39.2122 O   0  0  0  0  0  0  0  0  0  0  0  0
    4.5449   17.8983   37.3998 H   0  0  0  0  0  0  0  0  0  0  0  0
    2.0926   20.0244   40.3219 H   0  0  0  0  0  0  0  0  0  0  0  0
    0.7065   17.9907   40.6227 H   0  0  0  0  0  0  0  0  0  0  0  0
    1.1112   16.0104   39.2206 H   0  0  0  0  0  0  0  0  0  0  0  0
  1  2  1  0
  1  6  2  0
  2  3  2  0
  3  4  1  0
  3  7  1  0
  4  5  2  0
  5  6  1  0
  7  8  1  0
  7  9  2  0
  2 10  1  0
  4 11  1  0
  5 12  1  0
  6 13  1  0
M  CHG  1   8  -1
M  END
>  <mol_id>  (47) 
2026-09-18-3war-s0-n100-r4-0047

>  <rmsd_to_ref>  (47) 
2.5663265306128733

>  <pose_kind>  (47) 
rigid

$$$$
3war.A
     RDKit          3D

 13 13  0  0  0  0  0  0  0  0999 V2000
    1.2424   21.1614   41.0899 N   0  0  0  0  0  0  0  0  0  0  0  0
    2.5621   21.2201   40.8372 C   0  0  0  0  0  0  0  0  0  0  0  0
    2.9706   21.0928   39.5248 C   0  0  0  0  0  0  0  0  0  0  0  0
    2.1059   20.9108   38.4723 C   0  0  0  0  0  0  0  0  0  0  0  0
    0.7475   20.8562   38.7813 C   0  0  0  0  0  0  0  0  0  0  0  0
    0.3504   20.9847   40.0982 C   0  0  0  0  0  0  0  0  0  0  0  0
    4.3992   21.1509   39.2050 C   0  0  0  0  0  0  0  0  0  0  0  0
    5.3522   21.3347   40.2227 O   0  0  0  0  0  0  0  0  0  0  0  0
    4.7500   21.0313   37.9905 O   0  0  0  0  0  0  0  0  0  0  0  0
    3.3171   21.3601   41.5966 H   0  0  0  0  0  0  0  0  0  0  0  0
    2.4079   20.8097   37.4424 H   0  0  0  0  0  0  0  0  0  0  0  0
   -0.0088   20.7142   38.0072 H   0  0  0  0  0  0  0  0  0  0  0  0
   -0.7113   20.9478   40.3888 H   0  0  0  0  0  0  0  0  0  0  0  0
  1  2  1  0
  1  6  2  0
  2  3  2  0
  3  4  1  0
  3  7  1  0
  4  5  2  0
  5  6  1  0
  7  8  1  0
  7  9  2  0
  2 10  1  0
  4 11  1  0
  5 12  1  0
  6 13  1  0
M  CHG  1   8  -1
M  END
>  <mol_id>  (48) 
2026-09-18-3war-s0-n100-r4-0048

>  <rmsd_to_ref>  (48) 
2.6122448979621797

>  <pose_kind>  (48) 
conformer

$$$$
3war.A
     RDKit          3D

 13 13  0  0  0  0  0  0  0  0999 V2000
    1.5364   16.8408   38.8884 N   0  0  0  0  0  0  0  0  0  0  0  0
    2.4004   17.9235   38.5966 C   0  0  0  0  0  0  0  0  0  0  0  0
    2.6457   18.8713   39.6554 C   0  0  0  0  0  0  0  0  0  0  0  0
    2.0337   18.7294   40.8880 C   0  0  0  0  0  0  0  0  0  0  0  0
    1.2211   17.6449   41.1358 C   0  0  0  0  0  0  0  0  0  0  0  0
    0.9618   16.7416   40.1295 C   0  0  0  0  0  0  0  0  0  0  0  0
    3.4867   20.1095   39.3825 C   0  0  0  0  0  0  0  0  0  0  0  0
    4.1640   20.1536   38.3139 O   0  0  0  0  0  0  0  0  0  0  0  0
    3.4184   20.9669   40.2365 O   0  0  0  0  0  0  0  0  0  0  0  0
    2.8643   18.0369   37.6057 H   0  0  0  0  0  0  0  0  0  0  0  0
    2.1962   19.4840   41.6717 H   0  0  0  0  0  0  0  0  0  0  0  0
    0.7812   17.5011   42.1336 H   0  0  0  0  0  0  0  0  0  0  0  0
    0.2690   15.9106   40.3283 H   0  0  0  0  0  0  0  0  0  0  0  0
  1  2  1  0
  1  6  2  0
  2  3  2  0
  3  4  1  0
  3  7  1  0
  4  5  2  0
  5  6  1  0
  7  8  1  0
  7  9  2  0
  2 10  1  0
  4 11  1  0
  5 12  1  0
  6 13  1  0
M  CHG  1   8  -1
M  END
>  <mol_id>  (49) 
2026-09-18-3war-s0-n100-r4-0049

>  <rmsd_to_ref>  (49) 
2.6581632653074476

>  <pose_kind>  (49) 
rigid

$$$$
3war.A
     RDKit          3D

 13 13  0  0  0  0  0  0  0  0999 V2000
    2.6594   19.9816   41.0092 N   0  0  0  0  0  0  0  0  0  0  0  0
    3.9490   19.9076   40.5903 C   0  0  0  0  0  0  0  0  0  0  0  0
    4.2159   19.3170   39.3704 C   0  0  0  0  0  0  0  0  0  0  0  0
    3.1890   18.8056   38.5803 C   0  0  0  0  0  0  0  0  0  0  0  0
    1.8937   18.9051   39.0504 C   0  0  0  0  0  0  0  0  0  0  0  0
    1.6518   19.4931   40.2602 C   0  0  0  0  0  0  0  0  0  0  0  0
    5.6011   19.2295   38.9047 C   0  0  0  0  0  0  0  0  0  0  0  0
    5.8783   18.6367   37.6781 O   0  0  0  0  0  0  0  0  0  0  0  0
    6.5455   19.6960   39.6237 O   0  0  0  0  0  0  0  0  0  0  0  0
    4.7625   20.3109   41.2128 H   0  0  0  0  0  0  0  0  0  0  0  0
    3.3935   18.3355   37.6108 H   0  0  0  0  0  0  0  0  0  0  0  0
    1.0803   18.5141   38.4525 H   0  0  0  0  0  0  0  0  0  0  0  0
    0.6495   19.6007   40.6845 H   0  0  0  0  0  0  0  0  0  0  0  0
  1  2  1  0
  1  6  2  0
  2  3  2  0
  3  4  1  0
  3  7  1  0
  4  5  2  0
  5  6  1  0
  7  8  1  0
  7  9  2  0
  2 10  1  0
  4 11  1  0
  5 12  1  0
  6 13  1  0
M  CHG  1   8  -1
M  END
>  <mol_id>  (50) 
2026-09-18-3war-s0-n100-r4-0050

>  <rmsd_to_ref>  (50) 
2.704081632654462

>  <pose_kind>  (50) 
conformer

$$$$
3war.A
     RDKit          3D

 13 13  0  0  0  0  0  0  0  0999 V2000
    0.7649   17.1674   39.8459 N   0  0  0  0  0  0  0  0  0  0  0  0
    2.0907   17.4585   40.2480 C   0  0  0  0  0  0  0  0  0  0  0  0
    2.6449   18.7188   39.8191 C   0  0  0  0  0  0  0  0  0  0  0  0
    1.9097   19.5821   39.0265 C   0  0  0  0  0  0  0  0  0  0  0  0
    0.6132   19.2693   38.6815 C   0  0  0  0  0  0  0  0  0  0  0  0
    0.0762   18.0615   39.0671 C   0  0  0  0  0  0  0  0  0  0  0  0
    4.0953   19.0537   40.1339 C   0  0  0  0  0  0  0  0  0  0  0  0
    4.7073   18.3405   40.9820 O   0  0  0  0  0  0  0  0  0  0  0  0
    4.5437   19.9953   39.5162 O   0  0  0  0  0  0  0  0  0  0  0  0
    2.6726   16.7542   40.8606 H   0  0  0  0  0  0  0  0  0  0  0  0
    2.3613   20.5201   38.6710 H   0  0  0  0  0  0  0  0  0  0  0  0
    0.0093   19.9817   38.1003 H   0  0  0  0  0  0  0  0  0  0  0  0
   -0.9417   17.8047   38.7387 H   0  0  0  0  0  0  0  0  0  0  0  0
  1  2  1  0
  1  6  2  0
  2  3  2  0
  3  4  1  0
  3  7  1  0
  4  5  2  0
  5  6  1  0
  7  8  1  0
  7  9  2  0
  2 10  1  0
  4 11  1  0
  5 12  1  0
  6 13  1  0
M  CHG  1   8  -1
M  END
>  <mol_id>  (51) 
2026-09-18-3war-s0-n100-r4-0051

>  <rmsd_to_ref>  (51) 
2.750000000001749

>  <pose_kind>  (51) 
rigid

$$$$
3war.A
     RDKit          3D

 13 13  0  0  0  0  0  0  0  0999 V2000
    1.6428   20.3886   41.2737 N   0  0  0  0  0  0  0  0  0  0  0  0
    1.4024   19.1353   40.8351 C   0  0  0  0  0  0  0  0  0  0  0  0
    1.4721   18.7904   39.5009 C   0  0  0  0  0  0  0  0  0  0  0  0
    1.7999   19.7621   38.5781 C   0  0  0  0  0  0  0  0  0  0  0  0
    2.0463   21.0493   39.0324 C   0  0  0  0  0  0  0  0  0  0  0  0
    1.9676   21.3654   40.3884 C   0  0  0  0  0  0  0  0  0  0  0  0
    1.1959   17.4102   39.1195 C   0  0  0  0  0  0  0  0  0  0  0  0
    1.2590   17.0313   37.7739 O   0  0  0  0  0  0  0  0  0  0  0  0
    0.8985   16.5397   39.9798 O   0  0  0  0  0  0  0  0  0  0  0  0
    1.1421   18.3551   41.5508 H   0  0  0  0  0  0  0  0  0  0  0  0
    1.8477   19.4721   37.5519 H   0  0  0  0  0  0  0  0  0  0  0  0
    2.3043   21.8210   38.3209 H   0  0  0  0  0  0  0  0  0  0  0  0
    2.1638   22.3776   40.7245 H   0  0  0  0  0  0  0  0  0  0  0  0
  1  2  1  0
  1  6  2  0
  2  3  2  0
  3  4  1  0
  3  7  1  0
  4  5  2  0
  5  6  1  0
  7  8  1  0
  7  9  2  0
  2 10  1  0
  4 11  1  0
  5 12  1  0
  6 13  1  0
M  CHG  1   8  -1
M  END
>  <mol_id>  (52) 
2026-09-18-3war-s0-n100-r4-0052

>  <rmsd_to_ref>  (52) 
2.795918367351467

>  <pose_kind>  (52) 
conformer

$$$$
3war.A
     RDKit          3D

 13 13  0  0  0  0  0  0  0  0999 V2000
   -0.2153   20.8849   41.9747 N   0  0  0  0  0  0  0  0  0  0  0  0
    0.9041   20.8554   41.1087 C   0  0  0  0  0  0  0  0  0  0  0  0
    1.0036   19.7382   40.2025 C   0  0  0  0  0  0  0  0  0  0  0  0
    0.0528   18.7332   40.2110 C   0  0  0  0  0  0  0  0  0  0  0  0
   -1.0345   18.8172   41.0528 C   0  0  0  0  0  0  0  0  0  0  0  0
   -1.1341   19.8677   41.9372 C   0  0  0  0  0  0  0  0  0  0  0  0
    2.2285   19.5933   39.3118 C   0  0  0  0  0  0  0  0  0  0  0  0
    3.0090   20.5833   39.1959 O   0  0  0  0  0  0  0  0  0  0  0  0
    2.3495   18.5064   38.7890 O   0  0  0  0  0  0  0  0  0  0  0  0
    1.6647   21.6499   41.1263 H   0  0  0  0  0  0  0  0  0  0  0  0
    0.1652   17.8655   39.5443 H   0  0  0  0  0  0  0  0  0  0  0  0
   -1.8201   18.0479   41.0185 H   0  0  0  0  0  0  0  0  0  0  0  0
   -1.9809   19.8918   42.6389 H   0  0  0  0  0  0  0  0  0  0  0  0
  1  2  1  0
  1  6  2  0
  2  3  2  0
  3  4  1  0
  3  7  1  0
  4  5  2  0
  5  6  1  0
  7  8  1  0
  7  9  2  0
  2 10  1  0
  4 11  1  0
  5 12  1  0
  6 13  1  0
M  CHG  1   8  -1
M  END
>  <mol_id>  (53) 
2026-09-18-3war-s0-n100-r4-0053

>  <rmsd_to_ref>  (53) 
2.8418367346961664

>  <pose_kind>  (53) 
rigid

$$$$
3war.A
     RDKit          3D

 13 13  0  0  0  0  0  0  0  0999 V2000
    2.8981   16.9344   40.5604 N   0  0  0  0  0  0  0  0  0  0  0  0
    3.3607   18.1845   40.5337 C   0  0  0  0  0  0  0  0  0  0  0  0
    2.4933   19.1868   40.1492 C   0  0  0  0  0  0  0  0  0  0  0  0
    1.1923   18.8891   39.8064 C   0  0  0  0  0  0  0  0  0  0  0  0
    0.7746   17.5707   39.8552 C   0  0  0  0  0  0  0  0  0  0  0  0
    1.6400   16.5650   40.2396 C   0  0  0  0  0  0  0  0  0  0  0  0
    2.9568   20.5770   40.1045 C   0  0  0  0  0  0  0  0  0  0  0  0
    4.2672   20.8764   40.4498 O   0  0  0  0  0  0  0  0  0  0  0  0
    2.1410   21.4736   39.7488 O   0  0  0  0  0  0  0  0  0  0  0  0
    4.3936   18.3677   40.8127 H   0  0  0  0  0  0  0  0  0  0  0  0
    0.5282   19.7039   39.5059 H   0  0  0  0  0  0  0  0  0  0  0  0
   -0.2497   17.3449   39.5842 H   0  0  0  0  0  0  0  0  0  0  0  0
    1.3199   15.5153   40.2821 H   0  0  0  0  0  0  0  0  0  0  0  0
  1  2  1  0
  1  6  2  0
  2  3  2  0
  3  4  1  0
  3  7  1  0
  4  5  2  0
  5  6  1  0
  7  8  1  0
  7  9  2  0
  2 10  1  0
  4 11  1  0
  5 12  1  0
  6 13  1  0
M  CHG  1   8  -1
M  END
>  <mol_id>  (54) 
2026-09-18-3war-s0-n100-r4-0054

>  <rmsd_to_ref>  (54) 
2.8877551020445242

>  <pose_kind>  (54) 
conformer

$$$$
3war.A
     RDKit          3D

 13 13  0  0  0  0  0  0  0  0999 V2000
   -0.5227   20.9956   40.7220 N   0  0  0  0  0  0  0  0  0  0  0  0
   -0.6871   19.9473   39.7849 C   0  0  0  0  0  0  0  0  0  0  0  0
    0.4861   19.1811   39.4445 C   0  0  0  0  0  0  0  0  0  0  0  0
    1.7167   19.4878   39.9975 C   0  0  0  0  0  0  0  0  0  0  0  0
    1.8245   20.4999   40.9260 C   0  0  0  0  0  0  0  0  0  0  0  0
    0.7176   21.2529   41.2473 C   0  0  0  0  0  0  0  0  0  0  0  0
    0.4016   18.1033   38.3741 C   0  0  0  0  0  0  0  0  0  0  0  0
   -0.7439   17.7253   37.9896 O   0  0  0  0  0  0  0  0  0  0  0  0
    1.4727   17.7034   37.9716 O   0  0  0  0  0  0  0  0  0  0  0  0
   -1.6669   19.7269   39.3361 H   0  0  0  0  0  0  0  0  0  0  0  0
    2.6106   18.9225   39.6953 H   0  0  0  0  0  0  0  0  0  0  0  0
    2.7913   20.7055   41.4088 H   0  0  0  0  0  0  0  0  0  0  0  0
    0.8322   22.0910   41.9504 H   0  0  0  0  0  0  0  0  0  0  0  0
  1  2  1  0
  1  6  2  0
  2  3  2  0
  3  4  1  0
  3  7  1  0
  4  5  2  0
  5  6  1  0
  7  8  1  0
  7  9  2  0
  2 10  1  0
  4 11  1  0
  5 12  1  0
  6 13  1  0
M  CHG  1   8  -1
M  END
>  <mol_id>  (55) 
2026-09-18-3war-s0-n100-r4-0055

>  <rmsd_to_ref>  (55) 
2.9336734693894564

>  <pose_kind>  (55) 
rigid

$$$$
3war.A
     RDKit          3D

 13 13  0  0  0  0  0  0  0  0999 V2000
    2.5914   18.8589   38.1614 N   0  0  0  0  0  0  0  0  0  0  0  0
    3.8618   19.0324   38.5675 C   0  0  0  0  0  0  0  0  0  0  0  0
    4.1135   20.0415   39.4752 C   0  0  0  0  0  0  0  0  0  0  0  0
    3.1413   20.8707   39.9809 C   0  0  0  0  0  0  0  0  0  0  0  0
    1.8392   20.6543   39.5321 C   0  0  0  0  0  0  0  0  0  0  0  0
    1.5993   19.6415   38.6237 C   0  0  0  0  0  0  0  0  0  0  0  0
    5.4834   20.2652   39.9440 C   0  0  0  0  0  0  0  0  0  0  0  0
    6.5386   19.4614   39.4767 O   0  0  0  0  0  0  0  0  0  0  0  0
    5.6894   21.1994   40.7789 O   0  0  0  0  0  0  0  0  0  0  0  0
    4.6924   18.4320   38.2270 H   0  0  0  0  0  0  0  0  0  0  0  0
    3.3204   21.6629   40.6898 H   0  0  0  0  0  0  0  0  0  0  0  0
    1.0056   21.2662   39.8817 H   0  0  0  0  0  0  0  0  0  0  0  0
    0.5873   19.4343   38.2417 H   0  0  0  0  0  0  0  0  0  0  0  0
  1  2  1  0
  1  6  2  0
  2  3  2  0
  3  4  1  0
  3  7  1  0
  4  5  2  0
  5  6  1  0
  7  8  1  0
  7  9  2  0
  2 10  1  0
  4 11  1  0
  5 12  1  0
  6 13  1  0
M  CHG  1   8  -1
M  END
>  <mol_id>  (56) 
2026-09-18-3war-s0-n100-r4-0056

>  <rmsd_to_ref>  (56) 
2.9795918367357643

>  <pose_kind>  (56) 
conformer

$$$$
3war.A
     RDKit          3D

 13 13  0  0  0  0  0  0  0  0999 V2000
    2.9503   19.0550   38.7460 N   0  0  0  0  0  0  0  0  0  0  0  0
    2.8974   20.4501   38.5118 C   0  0  0  0  0  0  0  0  0  0  0  0
    2.3454   21.2713   39.5608 C   0  0  0  0  0  0  0  0  0  0  0  0
    1.8673   20.7021   40.7277 C   0  0  0  0  0  0  0  0  0  0  0  0
    1.9637   19.3418   40.9234 C   0  0  0  0  0  0  0  0  0  0  0  0
    2.4707   18.5421   39.9238 C   0  0  0  0  0  0  0  0  0  0  0  0
    2.1702   22.7662   39.3384 C   0  0  0  0  0  0  0  0  0  0  0  0
    2.7458   23.2984   38.3444 O   0  0  0  0  0  0  0  0  0  0  0  0
    1.4661   23.3210   40.1543 O   0  0  0  0  0  0  0  0  0  0  0  0
    3.2614   20.8886   37.5709 H   0  0  0  0  0  0  0  0  0  0  0  0
    1.4094   21.3368   41.5006 H   0  0  0  0  0  0  0  0  0  0  0  0
    1.6370   18.8963   41.8746 H   0  0  0  0  0  0  0  0  0  0  0  0
    2.4917   17.4528   40.0754 H   0  0  0  0  0  0  0  0  0  0  0  0
  1  2  1  0
  1  6  2  0
  2  3  2  0
  3  4  1  0
  3  7  1  0
  4  5  2  0
  5  6  1  0
  7  8  1  0
  7  9  2  0
  2 10  1  0
  4 11  1  0
  5 12  1  0
  6 13  1  0
M  CHG  1   8  -1
M  END
>  <mol_id>  (57) 
2026-09-18-3war-s0-n100-r4-0057

>  <rmsd_to_ref>  (57) 
3.025510204084313

>  <pose_kind>  (57) 
rigid

$$$$
3war.A
     RDKit          3D

 13 13  0  0  0  0  0  0  0  0999 V2000
    4.1378   17.3884   38.4331 N   0  0  0  0  0  0  0  0  0  0  0  0
    4.6084   18.6432   38.5542 C   0  0  0  0  0  0  0  0  0  0  0  0
    3.8849   19.6947   38.0296 C   0  0  0  0  0  0  0  0  0  0  0  0
    2.6886   19.4393   37.3885 C   0  0  0  0  0  0  0  0  0  0  0  0
    2.2348   18.1386   37.2821 C   0  0  0  0  0  0  0  0  0  0  0  0
    2.9785   17.1048   37.8161 C   0  0  0  0  0  0  0  0  0  0  0  0
    4.4254   21.0499   38.1785 C   0  0  0  0  0  0  0  0  0  0  0  0
    3.7029   22.1335   37.6507 O   0  0  0  0  0  0  0  0  0  0  0  0
    5.5304   21.2661   38.7728 O   0  0  0  0  0  0  0  0  0  0  0  0
    5.5478   18.8641   39.0553 H   0  0  0  0  0  0  0  0  0  0  0  0
    2.1503   20.2846   36.9910 H   0  0  0  0  0  0  0  0  0  0  0  0
    1.2824   17.9339   36.7719 H   0  0  0  0  0  0  0  0  0  0  0  0
    2.5943   16.0813   37.7171 H   0  0  0  0  0  0  0  0  0  0  0  0
  1  2  1  0
  1  6  2  0
  2  3  2  0
  3  4  1  0
  3  7  1  0
  4  5  2  0
  5  6  1  0
  7  8  1  0
  7  9  2  0
  2 10  1  0
  4 11  1  0
  5 12  1  0
  6 13  1  0
M  CHG  1   8  -1
M  END
>  <mol_id>  (58) 
2026-09-18-3war-s0-n100-r4-0058

>  <rmsd_to_ref>  (58) 
3.0714285714286347

>  <pose_kind>  (58) 
conformer

$$$$
3war.A
     RDKit          3D

 13 13  0  0  0  0  0  0  0  0999 V2000
    2.8005   22.5814   38.8410 N   0  0  0  0  0  0  0  0  0  0  0  0
    2.7121   21.1688   38.8109 C   0  0  0  0  0  0  0  0  0  0  0  0
    1.8761   20.5849   37.7914 C   0  0  0  0  0  0  0  0  0  0  0  0
    1.1757   21.3853   36.9064 C   0  0  0  0  0  0  0  0  0  0  0  0
    1.3130   22.7552   36.9558 C   0  0  0  0  0  0  0  0  0  0  0  0
    2.0923   23.3287   37.9353 C   0  0  0  0  0  0  0  0  0  0  0  0
    1.6599   19.0793   37.7609 C   0  0  0  0  0  0  0  0  0  0  0  0
    2.4166   18.3481   38.4648 O   0  0  0  0  0  0  0  0  0  0  0  0
    0.7487   18.7123   37.0508 O   0  0  0  0  0  0  0  0  0  0  0  0
    3.2574   20.5440   39.5336 H   0  0  0  0  0  0  0  0  0  0  0  0
    0.5081   20.9269   36.1621 H   0  0  0  0  0  0  0  0  0  0  0  0
    0.8019   23.3883   36.2156 H   0  0  0  0  0  0  0  0  0  0  0  0
    2.1489   24.4258   37.9934 H   0  0  0  0  0  0  0  0  0  0  0  0
  1  2  1  0
  1  6  2  0
  2  3  2  0
  3  4  1  0
  3  7  1  0
  4  5  2  0
  5  6  1  0
  7  8  1  0
  7  9  2  0
  2 10  1  0
  4 11  1  0
  5 12  1  0
  6 13  1  0
M  CHG  1   8  -1
M  END
>  <mol_id>  (59) 
2026-09-18-3war-s0-n100-r4-0059

>  <rmsd_to_ref>  (59) 
3.1173469387775636

>  <pose_kind>  (59) 
rigid

$$$$
3war.A
     RDKit          3D

 13 13  0  0  0  0  0  0  0  0999 V2000
    3.0324   21.3374   39.2970 N   0  0  0  0  0  0  0  0  0  0  0  0
    2.9881   20.0257   38.9533 C   0  0  0  0  0  0  0  0  0  0  0  0
    4.1110   19.3462   38.5259 C   0  0  0  0  0  0  0  0  0  0  0  0
    5.3321   19.9819   38.4316 C   0  0  0  0  0  0  0  0  0  0  0  0
    5.3744   21.3281   38.7850 C   0  0  0  0  0  0  0  0  0  0  0  0
    4.2270   21.9708   39.2078 C   0  0  0  0  0  0  0  0  0  0  0  0
    4.0426   17.9366   38.1610 C   0  0  0  0  0  0  0  0  0  0  0  0
    2.8605   17.2131   38.2233 O   0  0  0  0  0  0  0  0  0  0  0  0
    5.1257   17.3853   37.7769 O   0  0  0  0  0  0  0  0  0  0  0  0
    2.0130   19.5299   39.0318 H   0  0  0  0  0  0  0  0  0  0  0  0
    6.2312   19.4837   38.1017 H   0  0  0  0  0  0  0  0  0  0  0  0
    6.3068   21.8689   38.7279 H   0  0  0  0  0  0  0  0  0  0  0  0
    4.2838   23.0204   39.4781 H   0  0  0  0  0  0  0  0  0  0  0  0
  1  2  1  0
  1  6  2  0
  2  3  2  0
  3  4  1  0
  3  7  1  0
  4  5  2  0
  5  6  1  0
  7  8  1  0
  7  9  2  0
  2 10  1  0
  4 11  1  0
  5 12  1  0
  6 13  1  0
M  CHG  1   8  -1
M  END
>  <mol_id>  (60) 
2026-09-18-3war-s0-n100-r4-0060

>  <rmsd_to_ref>  (60) 
3.163265306124253

>  <pose_kind>  (60) 
conformer

$$$$
3war.A
     RDKit          3D

 13 13  0  0  0  0  0  0  0  0999 V2000
    1.0145   16.8221   38.5477 N   0  0  0  0  0  0  0  0  0  0  0  0
    2.1763   16.9178   39.3509 C   0  0  0  0  0  0  0  0  0  0  0  0
    2.5703   18.2367   39.7807 C   0  0  0  0  0  0  0  0  0  0  0  0
    1.8493   19.3521   39.3933 C   0  0  0  0  0  0  0  0  0  0  0  0
    0.7094   19.2088   38.6330 C   0  0  0  0  0  0  0  0  0  0  0  0
    0.3307   17.9583   38.1988 C   0  0  0  0  0  0  0  0  0  0  0  0
    3.8606   18.4228   40.5650 C   0  0  0  0  0  0  0  0  0  0  0  0
    4.4264   17.3971   41.0452 O   0  0  0  0  0  0  0  0  0  0  0  0
    4.2412   19.5705   40.6500 O   0  0  0  0  0  0  0  0  0  0  0  0
    2.7532   16.0253   39.6347 H   0  0  0  0  0  0  0  0  0  0  0  0
    2.1868   20.3553   39.6929 H   0  0  0  0  0  0  0  0  0  0  0  0
    0.1041   20.0900   38.3739 H   0  0  0  0  0  0  0  0  0  0  0  0
   -0.5520   17.8674   37.5487 H   0  0  0  0  0  0  0  0  0  0  0  0
  1  2  1  0
  1  6  2  0
  2  3  2  0
  3  4  1  0
  3  7  1  0
  4  5  2  0
  5  6  1  0
  7  8  1  0
  7  9  2  0
  2 10  1  0
  4 11  1  0
  5 12  1  0
  6 13  1  0
M  CHG  1   8  -1
M  END
>  <mol_id>  (61) 
2026-09-18-3war-s0-n100-r4-0061

>  <rmsd_to_ref>  (61) 
3.209183673472561

>  <pose_kind>  (61) 
rigid

$$$$
3war.A
     RDKit          3D

 13 13  0  0  0  0  0  0  0  0999 V2000
    0.0205   19.1384   40.8020 N   0  0  0  0  0  0  0  0  0  0  0  0
   -0.6809   19.6118   39.7564 C   0  0  0  0  0  0  0  0  0  0  0  0
   -0.1624   19.5219   38.4613 C   0  0  0  0  0  0  0  0  0  0  0  0
    1.0793   18.9359   38.3078 C   0  0  0  0  0  0  0  0  0  0  0  0
    1.7699   18.4617   39.4017 C   0  0  0  0  0  0  0  0  0  0  0  0
    1.2283   18.5668   40.6654 C   0  0  0  0  0  0  0  0  0  0  0  0
   -0.9109   20.0299   37.3237 C   0  0  0  0  0  0  0  0  0  0  0  0
   -2.1504   20.6072   37.5372 O   0  0  0  0  0  0  0  0  0  0  0  0
   -0.3867   19.9173   36.1869 O   0  0  0  0  0  0  0  0  0  0  0  0
   -1.6578   20.0690   39.9074 H   0  0  0  0  0  0  0  0  0  0  0  0
    1.4905   18.8611   37.3090 H   0  0  0  0  0  0  0  0  0  0  0  0
    2.7495   17.9988   39.2858 H   0  0  0  0  0  0  0  0  0  0  0  0
    1.7710   18.1941   41.5255 H   0  0  0  0  0  0  0  0  0  0  0  0
  1  2  1  0
  1  6  2  0
  2  3  2  0
  3  4  1  0
  3  7  1  0
  4  5  2  0
  5  6  1  0
  7  8  1  0
  7  9  2  0
  2 10  1  0
  4 11  1  0
  5 12  1  0
  6 13  1  0
M  CHG  1   8  -1
M  END
>  <mol_id>  (62) 
2026-09-18-3war-s0-n100-r4-0062

>  <rmsd_to_ref>  (62) 
3.255102040816339

>  <pose_kind>  (62) 
conformer

$$$$
3war.A
     RDKit          3D

 13 13  0  0  0  0  0  0  0  0999 V2000
    1.6125   21.5905   38.1469 N   0  0  0  0  0  0  0  0  0  0  0  0
    1.9718   20.2251   38.2507 C   0  0  0  0  0  0  0  0  0  0  0  0
    1.1259   19.2708   37.5775 C   0  0  0  0  0  0  0  0  0  0  0  0
    0.0006   19.6855   36.8878 C   0  0  0  0  0  0  0  0  0  0  0  0
   -0.2955   21.0274   36.7907 C   0  0  0  0  0  0  0  0  0  0  0  0
    0.4914   21.9495   37.4437 C   0  0  0  0  0  0  0  0  0  0  0  0
    1.3980   17.7814   37.7265 C   0  0  0  0  0  0  0  0  0  0  0  0
    2.5049   17.4183   38.2220 O   0  0  0  0  0  0  0  0  0  0  0  0
    0.4967   17.0616   37.3539 O   0  0  0  0  0  0  0  0  0  0  0  0
    2.8573   19.9062   38.8200 H   0  0  0  0  0  0  0  0  0  0  0  0
   -0.6590   18.9423   36.4160 H   0  0  0  0  0  0  0  0  0  0  0  0
   -1.1572   21.3610   36.1939 H   0  0  0  0  0  0  0  0  0  0  0  0
    0.2106   23.0122   37.3997 H   0  0  0  0  0  0  0  0  0  0  0  0
  1  2  1  0
  1  6  2  0
  2  3  2  0
  3  4  1  0
  3  7  1  0
  4  5  2  0
  5  6  1  0
  7  8  1  0
  7  9  2  0
  2 10  1  0
  4 11  1  0
  5 12  1  0
  6 13  1  0
M  CHG  1   8  -1
M  END
>  <mol_id>  (63) 
2026-09-18-3war-s0-n100-r4-0063

>  <rmsd_to_ref>  (63) 
3.301020408163333

>  <pose_kind>  (63) 
rigid

$$$$
3war.A
     RDKit          3D

 13 13  0  0  0  0  0  0  0  0999 V2000
    0.0198   21.0427   38.0275 N   0  0  0  0  0  0  0  0  0  0  0  0
    1.2603   21.0117   38.5710 C   0  0  0  0  0  0  0  0  0  0  0  0
    2.3908   21.0667   37.7700 C   0  0  0  0  0  0  0  0  0  0  0  0
    2.2594   21.1543   36.3994 C   0  0  0  0  0  0  0  0  0  0  0  0
    0.9685   21.1826   35.8942 C   0  0  0  0  0  0  0  0  0  0  0  0
   -0.1474   21.1274   36.6989 C   0  0  0  0  0  0  0  0  0  0  0  0
    3.7323   21.0341   38.3455 C   0  0  0  0  0  0  0  0  0  0  0  0
    3.9770   20.9486   39.6897 O   0  0  0  0  0  0  0  0  0  0  0  0
    4.7036   21.0889   37.5397 O   0  0  0  0  0  0  0  0  0  0  0  0
    1.3857   20.9427   39.6530 H   0  0  0  0  0  0  0  0  0  0  0  0
    3.1222   21.1983   35.7556 H   0  0  0  0  0  0  0  0  0  0  0  0
    0.8963   21.2521   34.8071 H   0  0  0  0  0  0  0  0  0  0  0  0
   -1.1476   21.1536   36.2414 H   0  0  0  0  0  0  0  0  0  0  0  0
  1  2  1  0
  1  6  2  0
  2  3  2  0
  3  4  1  0
  3  7  1  0
  4  5  2  0
  5  6  1  0
  7  8  1  0
  7  9  2  0
  2 10  1  0
  4 11  1  0
  5 12  1  0
  6 13  1  0
M  CHG  1   8  -1
M  END
>  <mol_id>  (64) 
2026-09-18-3war-s0-n100-r4-0064

>  <rmsd_to_ref>  (64) 
3.3469387755112043

>  <pose_kind>  (64) 
conformer

$$$$
3war.A
     RDKit          3D

 13 13  0  0  0  0  0  0  0  0999 V2000
    3.9143   21.2969   38.4732 N   0  0  0  0  0  0  0  0  0  0  0  0
    3.2888   20.0287   38.5397 C   0  0  0  0  0  0  0  0  0  0  0  0
    2.9042   19.4202   37.2902 C   0  0  0  0  0  0  0  0  0  0  0  0
    3.1191   20.0730   36.0894 C   0  0  0  0  0  0  0  0  0  0  0  0
    3.7556   21.2946   36.0708 C   0  0  0  0  0  0  0  0  0  0  0  0
    4.1118   21.8974   37.2564 C   0  0  0  0  0  0  0  0  0  0  0  0
    2.1424   18.1033   37.2929 C   0  0  0  0  0  0  0  0  0  0  0  0
    2.0875   17.4418   38.3709 O   0  0  0  0  0  0  0  0  0  0  0  0
    1.6364   17.8082   36.2317 O   0  0  0  0  0  0  0  0  0  0  0  0
    3.1043   19.5292   39.5022 H   0  0  0  0  0  0  0  0  0  0  0  0
    2.7810   19.6157   35.1478 H   0  0  0  0  0  0  0  0  0  0  0  0
    3.9785   21.7866   35.1125 H   0  0  0  0  0  0  0  0  0  0  0  0
    4.5713   22.8964   37.2264 H   0  0  0  0  0  0  0  0  0  0  0  0
  1  2  1  0
  1  6  2  0
  2  3  2  0
  3  4  1  0
  3  7  1  0
  4  5  2  0
  5  6  1  0
  7  8  1  0
  7  9  2  0
  2 10  1  0
  4 11  1  0
  5 12  1  0
  6 13  1  0
M  CHG  1   8  -1
M  END
>  <mol_id>  (65) 
2026-09-18-3war-s0-n100-r4-0065

>  <rmsd_to_ref>  (65) 
3.392857142857426

>  <pose_kind>  (65) 
rigid

$$$$
3war.A
     RDKit          3D

 13 13  0  0  0  0  0  0  0  0999 V2000
    5.7429   19.9293   38.1557 N   0  0  0  0  0  0  0  0  0  0  0  0
    5.2862   18.6686   38.1613 C   0  0  0  0  0  0  0  0  0  0  0  0
    3.9388   18.4751   38.3869 C   0  0  0  0  0  0  0  0  0  0  0  0
    3.0931   19.5640   38.6003 C   0  0  0  0  0  0  0  0  0  0  0  0
    3.6167   20.8560   38.5848 C   0  0  0  0  0  0  0  0  0  0  0  0
    4.9718   21.0111   38.3556 C   0  0  0  0  0  0  0  0  0  0  0  0
    3.4233   17.1043   38.3962 C   0  0  0  0  0  0  0  0  0  0  0  0
    2.0623   16.8850   38.6227 O   0  0  0  0  0  0  0  0  0  0  0  0
    4.1557   16.1002   38.2078 O   0  0  0  0  0  0  0  0  0  0  0  0
    5.9076   17.8056   38.0008 H   0  0  0  0  0  0  0  0  0  0  0  0
    2.0198   19.3995   38.7793 H   0  0  0  0  0  0  0  0  0  0  0  0
    2.9901   21.7129   38.7459 H   0  0  0  0  0  0  0  0  0  0  0  0
    5.4512   21.9798   38.3287 H   0  0  0  0  0  0  0  0  0  0  0  0
  1  2  1  0
  1  6  2  0
  2  3  2  0
  3  4  1  0
  3  7  1  0
  4  5  2  0
  5  6  1  0
  7  8  1  0
  7  9  2  0
  2 10  1  0
  4 11  1  0
  5 12  1  0
  6 13  1  0
M  CHG  1   8  -1
M  END
>  <mol_id>  (66) 
2026-09-18-3war-s0-n100-r4-0066

>  <rmsd_to_ref>  (66) 
3.4387755102063813

>  <pose_kind>  (66) 
conformer

$$$$
3war.A
     RDKit          3D

 13 13  0  0  0  0  0  0  0  0999 V2000
    3.1764   23.3226   38.5190 N   0  0  0  0  0  0  0  0  0  0  0  0
    3.3104   21.9581   38.8716 C   0  0  0  0  0  0  0  0  0  0  0  0
    2.6988   20.9904   37.9948 C   0  0  0  0  0  0  0  0  0  0  0  0
    1.9918   21.3957   36.8767 C   0  0  0  0  0  0  0  0  0  0  0  0
    1.9102   22.7335   36.5578 C   0  0  0  0  0  0  0  0  0  0  0  0
    2.4724   23.6709   37.3950 C   0  0  0  0  0  0  0  0  0  0  0  0
    2.7216   19.5145   38.3635 C   0  0  0  0  0  0  0  0  0  0  0  0
    3.4943   19.1382   39.2930 O   0  0  0  0  0  0  0  0  0  0  0  0
    1.9668   18.8191   37.7185 O   0  0  0  0  0  0  0  0  0  0  0  0
    3.8571   21.6496   39.7749 H   0  0  0  0  0  0  0  0  0  0  0  0
    1.4940   20.6485   36.2413 H   0  0  0  0  0  0  0  0  0  0  0  0
    1.3978   23.0515   35.6378 H   0  0  0  0  0  0  0  0  0  0  0  0
    2.3525   24.7373   37.1536 H   0  0  0  0  0  0  0  0  0  0  0  0
  1  2  1  0
  1  6  2  0
  2  3  2  0
  3  4  1  0
  3  7  1  0
  4  5  2  0
  5  6  1  0
  7  8  1  0
  7  9  2  0
  2 10  1  0
  4 11  1  0
  5 12  1  0
  6 13  1  0
M  CHG  1   8  -1
M  END
>  <mol_id>  (67) 
2026-09-18-3war-s0-n100-r4-0067

>  <rmsd_to_ref>  (67) 
3.484693877552711

>  <pose_kind>  (67) 
rigid

$$$$
3war.A
     RDKit          3D

 13 13  0  0  0  0  0  0  0  0999 V2000
    0.6528   17.0109   38.7923 N   0  0  0  0  0  0  0  0  0  0  0  0
    1.0579   18.1223   39.4370 C   0  0  0  0  0  0  0  0  0  0  0  0
    0.5157   19.3252   39.0281 C   0  0  0  0  0  0  0  0  0  0  0  0
   -0.4038   19.4261   38.0075 C   0  0  0  0  0  0  0  0  0  0  0  0
   -0.7942   18.2444   37.3676 C   0  0  0  0  0  0  0  0  0  0  0  0
   -0.2388   17.0532   37.7934 C   0  0  0  0  0  0  0  0  0  0  0  0
    0.9337   20.5480   39.7061 C   0  0  0  0  0  0  0  0  0  0  0  0
    1.8543   20.5378   40.7432 O   0  0  0  0  0  0  0  0  0  0  0  0
    0.4157   21.6228   39.3030 O   0  0  0  0  0  0  0  0  0  0  0  0
    1.7738   18.1228   40.2449 H   0  0  0  0  0  0  0  0  0  0  0  0
   -0.8333   20.3457   37.6780 H   0  0  0  0  0  0  0  0  0  0  0  0
   -1.5102   18.2420   36.5592 H   0  0  0  0  0  0  0  0  0  0  0  0
   -0.5359   16.1536   37.3063 H   0  0  0  0  0  0  0  0  0  0  0  0
  1  2  1  0
  1  6  2  0
  2  3  2  0
  3  4  1  0
  3  7  1  0
  4  5  2  0
  5  6  1  0
  7  8  1  0
  7  9  2  0
  2 10  1  0
  4 11  1  0
  5 12  1  0
  6 13  1  0
M  CHG  1   8  -1
M  END
>  <mol_id>  (68) 
2026-09-18-3war-s0-n100-r4-0068

>  <rmsd_to_ref>  (68) 
3.530612244900125

>  <pose_kind>  (68) 
conformer

$$$$
3war.A
     RDKit          3D

 13 13  0  0  0  0  0  0  0  0999 V2000
   -1.0355   19.7689   36.0422 N   0  0  0  0  0  0  0  0  0  0  0  0
    0.2333   20.3426   36.2973 C   0  0  0  0  0  0  0  0  0  0  0  0
    0.8441   20.0459   37.5694 C   0  0  0  0  0  0  0  0  0  0  0  0
    0.1930   19.2559   38.5000 C   0  0  0  0  0  0  0  0  0  0  0  0
   -1.0292   18.6965   38.1979 C   0  0  0  0  0  0  0  0  0  0  0  0
   -1.6342   18.9856   36.9953 C   0  0  0  0  0  0  0  0  0  0  0  0
    2.1618   20.7055   37.9482 C   0  0  0  0  0  0  0  0  0  0  0  0
    2.8216   21.2955   37.0431 O   0  0  0  0  0  0  0  0  0  0  0  0
    2.4590   20.6085   39.1193 O   0  0  0  0  0  0  0  0  0  0  0  0
    0.7314   20.9866   35.5576 H   0  0  0  0  0  0  0  0  0  0  0  0
    0.6521   19.0739   39.4829 H   0  0  0  0  0  0  0  0  0  0  0  0
   -1.5199   18.0216   38.9146 H   0  0  0  0  0  0  0  0  0  0  0  0
   -2.6336   18.5735   36.7918 H   0  0  0  0  0  0  0  0  0  0  0  0
  1  2  1  0
  1  6  2  0
  2  3  2  0
  3  4  1  0
  3  7  1  0
  4  5  2  0
  5  6  1  0
  7  8  1  0
  7  9  2  0
  2 10  1  0
  4 11  1  0
  5 12  1  0
  6 13  1  0
M  CHG  1   8  -1
M  END
>  <mol_id>  (69) 
2026-09-18-3war-s0-n100-r4-0069

>  <rmsd_to_ref>  (69) 
3.5765306122476406

>  <pose_kind>  (69) 
rigid

$$$$
3war.A
     RDKit          3D

 13 13  0  0  0  0  0  0  0  0999 V2000
    3.7161   20.6151   38.9972 N   0  0  0  0  0  0  0  0  0  0  0  0
    2.6524   21.2224   38.4182 C   0  0  0  0  0  0  0  0  0  0  0  0
    2.6911   21.5595   37.0835 C   0  0  0  0  0  0  0  0  0  0  0  0
    3.8022   21.2941   36.2960 C   0  0  0  0  0  0  0  0  0  0  0  0
    4.8870   20.6679   36.9124 C   0  0  0  0  0  0  0  0  0  0  0  0
    4.8177   20.3375   38.2710 C   0  0  0  0  0  0  0  0  0  0  0  0
    1.5406   22.2165   36.4569 C   0  0  0  0  0  0  0  0  0  0  0  0
    0.4095   22.4954   37.2253 O   0  0  0  0  0  0  0  0  0  0  0  0
    1.6118   22.5119   35.2274 O   0  0  0  0  0  0  0  0  0  0  0  0
    1.7996   21.4196   39.0470 H   0  0  0  0  0  0  0  0  0  0  0  0
    3.8475   21.5532   35.2451 H   0  0  0  0  0  0  0  0  0  0  0  0
    5.7687   20.4483   36.3214 H   0  0  0  0  0  0  0  0  0  0  0  0
    5.6942   19.8457   38.7158 H   0  0  0  0  0  0  0  0  0  0  0  0
  1  2  1  0
  1  6  2  0
  2  3  2  0
  3  4  1  0
  3  7  1  0
  4  5  2  0
  5  6  1  0
  7  8  1  0
  7  9  2  0
  2 10  1  0
  4 11  1  0
  5 12  1  0
  6 13  1  0
M  CHG  1   8  -1
M  END
>  <mol_id>  (70) 
2026-09-18-3war-s0-n100-r4-0070

>  <rmsd_to_ref>  (70) 
3.6224489795939383

>  <pose_kind>  (70) 
conformer

$$$$
3war.A
     RDKit          3D

 13 13  0  0  0  0  0  0  0  0999 V2000
    2.8843   15.6996   38.5992 N   0  0  0  0  0  0  0  0  0  0  0  0
    2.1557   16.9129   38.6334 C   0  0  0  0  0  0  0  0  0  0  0  0
    2.8507   18.0827   39.1108 C   0  0  0  0  0  0  0  0  0  0  0  0
    4.1636   18.0002   39.5391 C   0  0  0  0  0  0  0  0  0  0  0  0
    4.8419   16.8035   39.4628 C   0  0  0  0  0  0  0  0  0  0  0  0
    4.1867   15.6735   39.0273 C   0  0  0  0  0  0  0  0  0  0  0  0
    2.1013   19.3978   39.2642 C   0  0  0  0  0  0  0  0  0  0  0  0
    0.9586   19.5053   38.7302 O   0  0  0  0  0  0  0  0  0  0  0  0
    2.6840   20.2407   39.9117 O   0  0  0  0  0  0  0  0  0  0  0  0
    1.1054   16.9611   38.3100 H   0  0  0  0  0  0  0  0  0  0  0  0
    4.6669   18.8918   39.9414 H   0  0  0  0  0  0  0  0  0  0  0  0
    5.9028   16.7510   39.7487 H   0  0  0  0  0  0  0  0  0  0  0  0
    4.7274   14.7156   39.0226 H   0  0  0  0  0  0  0  0  0  0  0  0
  1  2  1  0
  1  6  2  0
  2  3  2  0
  3  4  1  0
  3  7  1  0
  4  5  2  0
  5  6  1  0
  7  8  1  0
  7  9  2  0
  2 10  1  0
  4 11  1  0
  5 12  1  0
  6 13  1  0
M  CHG  1   8  -1
M  END
>  <mol_id>  (71) 
2026-09-18-3war-s0-n100-r4-0071

>  <rmsd_to_ref>  (71) 
3.6683673469391325

>  <pose_kind>  (71) 
rigid

$$$$
3war.A
     RDKit          3D

 13 13  0  0  0  0  0  0  0  0999 V2000
    1.7411   19.7688   38.9262 N   0  0  0  0  0  0  0  0  0  0  0  0
    0.5211   19.5251   38.4108 C   0  0  0  0  0  0  0  0  0  0  0  0
    0.4174   18.7214   37.2925 C   0  0  0  0  0  0  0  0  0  0  0  0
    1.5959   18.1992   36.7508 C   0  0  0  0  0  0  0  0  0  0  0  0
    2.8306   18.4699   37.3054 C   0  0  0  0  0  0  0  0  0  0  0  0
    2.8904   19.2783   38.4237 C   0  0  0  0  0  0  0  0  0  0  0  0
   -0.8806   18.4255   36.6938 C   0  0  0  0  0  0  0  0  0  0  0  0
   -0.9203   17.6102   35.5692 O   0  0  0  0  0  0  0  0  0  0  0  0
   -1.9141   18.9190   37.2176 O   0  0  0  0  0  0  0  0  0  0  0  0
   -0.3648   19.9583   38.8738 H   0  0  0  0  0  0  0  0  0  0  0  0
    1.5342   17.5695   35.8775 H   0  0  0  0  0  0  0  0  0  0  0  0
    3.7023   18.0505   36.8592 H   0  0  0  0  0  0  0  0  0  0  0  0
    3.8359   19.5188   38.8940 H   0  0  0  0  0  0  0  0  0  0  0  0
  1  2  1  0
  1  6  2  0
  2  3  2  0
  3  4  1  0
  3  7  1  0
  4  5  2  0
  5  6  1  0
  7  8  1  0
  7  9  2  0
  2 10  1  0
  4 11  1  0
  5 12  1  0
  6 13  1  0
M  CHG  1   8  -1
M  END
>  <mol_id>  (72) 
2026-09-18-3war-s0-n100-r4-0072

>  <rmsd_to_ref>  (72) 
3.71428571428788

>  <pose_kind>  (72) 
conformer

$$$$
3war.A
     RDKit          3D

 13 13  0  0  0  0  0  0  0  0999 V2000
    2.2851   22.1374   37.3108 N   0  0  0  0  0  0  0  0  0  0  0  0
    1.3840   21.0527   37.1865 C   0  0  0  0  0  0  0  0  0  0  0  0
    1.9143   19.8145   36.6717 C   0  0  0  0  0  0  0  0  0  0  0  0
    3.2417   19.7157   36.2944 C   0  0  0  0  0  0  0  0  0  0  0  0
    4.0889   20.7897   36.4582 C   0  0  0  0  0  0  0  0  0  0  0  0
    3.5937   21.9845   36.9305 C   0  0  0  0  0  0  0  0  0  0  0  0
    0.9824   18.6381   36.4222 C   0  0  0  0  0  0  0  0  0  0  0  0
   -0.1852   18.6812   36.9095 O   0  0  0  0  0  0  0  0  0  0  0  0
    1.4583   17.7478   35.7512 O   0  0  0  0  0  0  0  0  0  0  0  0
    0.3257   21.1501   37.4701 H   0  0  0  0  0  0  0  0  0  0  0  0
    3.6214   18.7778   35.8628 H   0  0  0  0  0  0  0  0  0  0  0  0
    5.1568   20.6930   36.2127 H   0  0  0  0  0  0  0  0  0  0  0  0
    4.2720   22.8472   37.0053 H   0  0  0  0  0  0  0  0  0  0  0  0
  1  2  1  0
  1  6  2  0
  2  3  2  0
  3  4  1  0
  3  7  1  0
  4  5  2  0
  5  6  1  0
  7  8  1  0
  7  9  2  0
  2 10  1  0
  4 11  1  0
  5 12  1  0
  6 13  1  0
M  CHG  1   8  -1
M  END
>  <mol_id>  (73) 
2026-09-18-3war-s0-n100-r4-0073

>  <rmsd_to_ref>  (73) 
3.7602040816338995

>  <pose_kind>  (73) 
rigid

$$$$
3war.A
     RDKit          3D

 13 13  0  0  0  0  0  0  0  0999 V2000
   -0.1121   20.2091   38.6684 N   0  0  0  0  0  0  0  0  0  0  0  0
   -0.3562   18.9155   38.9562 C   0  0  0  0  0  0  0  0  0  0  0  0
    0.6881   18.0578   39.2030 C   0  0  0  0  0  0  0  0  0  0  0  0
    2.0094   18.4830   39.1661 C   0  0  0  0  0  0  0  0  0  0  0  0
    2.2166   19.8246   38.8655 C   0  0  0  0  0  0  0  0  0  0  0  0
    1.1560   20.6727   38.6202 C   0  0  0  0  0  0  0  0  0  0  0  0
    0.4019   16.6647   39.5118 C   0  0  0  0  0  0  0  0  0  0  0  0
    1.4155   15.7518   39.7699 O   0  0  0  0  0  0  0  0  0  0  0  0
   -0.8030   16.2391   39.5542 O   0  0  0  0  0  0  0  0  0  0  0  0
   -1.3715   18.5305   38.9980 H   0  0  0  0  0  0  0  0  0  0  0  0
    2.8354   17.8064   39.3609 H   0  0  0  0  0  0  0  0  0  0  0  0
    3.2329   20.2355   38.8178 H   0  0  0  0  0  0  0  0  0  0  0  0
    1.3045   21.7333   38.3819 H   0  0  0  0  0  0  0  0  0  0  0  0
  1  2  1  0
  1  6  2  0
  2  3  2  0
  3  4  1  0
  3  7  1  0
  4  5  2  0
  5  6  1  0
  7  8  1  0
  7  9  2  0
  2 10  1  0
  4 11  1  0
  5 12  1  0
  6 13  1  0
M  CHG  1   8  -1
M  END
>  <mol_id>  (74) 
2026-09-18-3war-s0-n100-r4-0074

>  <rmsd_to_ref>  (74) 
3.806122448982105

>  <pose_kind>  (74) 
conformer

$$$$
3war.A
     RDKit          3D

 13 13  0  0  0  0  0  0  0  0999 V2000
    4.7381   21.9110   37.9229 N   0  0  0  0  0  0  0  0  0  0  0  0
    3.6706   21.0644   38.3073 C   0  0  0  0  0  0  0  0  0  0  0  0
    2.7577   20.6476   37.2718 C   0  0  0  0  0  0  0  0  0  0  0  0
    2.9162   21.0872   35.9696 C   0  0  0  0  0  0  0  0  0  0  0  0
    3.9857   21.8890   35.6359 C   0  0  0  0  0  0  0  0  0  0  0  0
    4.8551   22.3111   36.6165 C   0  0  0  0  0  0  0  0  0  0  0  0
    1.5348   19.8167   37.6308 C   0  0  0  0  0  0  0  0  0  0  0  0
    1.4799   19.2926   38.7818 O   0  0  0  0  0  0  0  0  0  0  0  0
    0.6987   19.7413   36.7564 O   0  0  0  0  0  0  0  0  0  0  0  0
    3.5430   20.7389   39.3503 H   0  0  0  0  0  0  0  0  0  0  0  0
    2.1870   20.7960   35.1992 H   0  0  0  0  0  0  0  0  0  0  0  0
    4.1444   22.1908   34.5901 H   0  0  0  0  0  0  0  0  0  0  0  0
    5.6729   22.9938   36.3422 H   0  0  0  0  0  0  0  0  0  0  0  0
  1  2  1  0
  1  6  2  0
  2  3  2  0
  3  4  1  0
  3  7  1  0
  4  5  2  0
  5  6  1  0
  7  8  1  0
  7  9  2  0
  2 10  1  0
  4 11  1  0
  5 12  1  0
  6 13  1  0
M  CHG  1   8  -1
M  END
>  <mol_id>  (75) 
2026-09-18-3war-s0-n100-r4-0075

>  <rmsd_to_ref>  (75) 
3.8520408163284845

>  <pose_kind>  (75) 
rigid

$$$$
3war.A
     RDKit          3D

 13 13  0  0  0  0  0  0  0  0999 V2000
    4.5042   16.7937   38.0983 N   0  0  0  0  0  0  0  0  0  0  0  0
    3.6293   17.7706   38.3849 C   0  0  0  0  0  0  0  0  0  0  0  0
    4.1291   18.9682   38.8541 C   0  0  0  0  0  0  0  0  0  0  0  0
    5.4873   19.1361   39.0164 C   0  0  0  0  0  0  0  0  0  0  0  0
    6.3494   18.0811   38.7006 C   0  0  0  0  0  0  0  0  0  0  0  0
    5.8372   16.8850   38.2310 C   0  0  0  0  0  0  0  0  0  0  0  0
    3.2525   20.0834   39.1905 C   0  0  0  0  0  0  0  0  0  0  0  0
    1.8764   20.0200   39.0646 O   0  0  0  0  0  0  0  0  0  0  0  0
    3.8178   21.1432   39.6149 O   0  0  0  0  0  0  0  0  0  0  0  0
    2.5607   17.6684   38.2681 H   0  0  0  0  0  0  0  0  0  0  0  0
    5.9306   20.0376   39.3745 H   0  0  0  0  0  0  0  0  0  0  0  0
    7.4119   18.1761   38.8144 H   0  0  0  0  0  0  0  0  0  0  0  0
    6.4664   16.0428   37.9745 H   0  0  0  0  0  0  0  0  0  0  0  0
  1  2  1  0
  1  6  2  0
  2  3  2  0
  3  4  1  0
  3  7  1  0
  4  5  2  0
  5  6  1  0
  7  8  1  0
  7  9  2  0
  2 10  1  0
  4 11  1  0
  5 12  1  0
  6 13  1  0
M  CHG  1   8  -1
M  END
>  <mol_id>  (76) 
2026-09-18-3war-s0-n100-r4-0076

>  <rmsd_to_ref>  (76) 
3.8979591836751784

>  <pose_kind>  (76) 
conformer

$$$$
3war.A
     RDKit          3D

 13 13  0  0  0  0  0  0  0  0999 V2000
    2.8246   18.1132   42.6412 N   0  0  0  0  0  0  0  0  0  0  0  0
    2.9282   19.5092   42.4304 C   0  0  0  0  0  0  0  0  0  0  0  0
    3.7733   19.9486   41.3478 C   0  0  0  0  0  0  0  0  0  0  0  0
    4.4675   19.0341   40.5759 C   0  0  0  0  0  0  0  0  0  0  0  0
    4.3155   17.6834   40.8002 C   0  0  0  0  0  0  0  0  0  0  0  0
    3.5272   17.2484   41.8420 C   0  0  0  0  0  0  0  0  0  0  0  0
    4.0058   21.4356   41.1251 C   0  0  0  0  0  0  0  0  0  0  0  0
    3.2550   22.2589   41.7261 O   0  0  0  0  0  0  0  0  0  0  0  0
    4.9228   21.6990   40.3775 O   0  0  0  0  0  0  0  0  0  0  0  0
    2.3877   20.2273   43.0646 H   0  0  0  0  0  0  0  0  0  0  0  0
    5.1422   19.3861   39.7816 H   0  0  0  0  0  0  0  0  0  0  0  0
    4.8218   16.9552   40.1496 H   0  0  0  0  0  0  0  0  0  0  0  0
    3.4587   16.1686   42.0403 H   0  0  0  0  0  0  0  0  0  0  0  0
  1  2  1  0
  1  6  2  0
  2  3  2  0
  3  4  1  0
  3  7  1  0
  4  5  2  0
  5  6  1  0
  7  8  1  0
  7  9  2  0
  2 10  1  0
  4 11  1  0
  5 12  1  0
  6 13  1  0
M  CHG  1   8  -1
M  END
>  <mol_id>  (77) 
2026-09-18-3war-s0-n100-r4-0077

>  <rmsd_to_ref>  (77) 
3.9438775510214836

>  <pose_kind>  (77) 
rigid

$$$$
3war.A
     RDKit          3D

 13 13  0  0  0  0  0  0  0  0999 V2000
    5.2082   17.1455   39.0837 N   0  0  0  0  0  0  0  0  0  0  0  0
    4.2574   18.0470   38.7204 C   0  0  0  0  0  0  0  0  0  0  0  0
    3.4142   17.8053   37.6577 C   0  0  0  0  0  0  0  0  0  0  0  0
    3.5476   16.6283   36.9615 C   0  0  0  0  0  0  0  0  0  0  0  0
    4.5113   15.6928   37.3141 C   0  0  0  0  0  0  0  0  0  0  0  0
    5.3416   15.9829   38.3977 C   0  0  0  0  0  0  0  0  0  0  0  0
    2.3988   18.7842   37.2811 C   0  0  0  0  0  0  0  0  0  0  0  0
    1.5613   18.5142   36.2043 O   0  0  0  0  0  0  0  0  0  0  0  0
    2.3043   19.8679   37.9521 O   0  0  0  0  0  0  0  0  0  0  0  0
    4.1976   18.9557   39.3035 H   0  0  0  0  0  0  0  0  0  0  0  0
    2.9099   16.3744   36.1072 H   0  0  0  0  0  0  0  0  0  0  0  0
    4.6269   14.7504   36.7660 H   0  0  0  0  0  0  0  0  0  0  0  0
    6.1155   15.2684   38.7071 H   0  0  0  0  0  0  0  0  0  0  0  0
  1  2  1  0
  1  6  2  0
  2  3  2  0
  3  4  1  0
  3  7  1  0
  4  5  2  0
  5  6  1  0
  7  8  1  0
  7  9  2  0
  2 10  1  0
  4 11  1  0
  5 12  1  0
  6 13  1  0
M  CHG  1   8  -1
M  END
>  <mol_id>  (78) 
2026-09-18-3war-s0-n100-r4-0078

>  <rmsd_to_ref>  (78) 
3.9897959183679745

>  <pose_kind>  (78) 
conformer

$$$$
3war.A
     RDKit          3D

 13 13  0  0  0  0  0  0  0  0999 V2000
    4.0836   21.3174   36.5326 N   0  0  0  0  0  0  0  0  0  0  0  0
    3.6774   20.2247   37.3358 C   0  0  0  0  0  0  0  0  0  0  0  0
    2.6053   19.4025   36.8319 C   0  0  0  0  0  0  0  0  0  0  0  0
    1.9924   19.6986   35.6274 C   0  0  0  0  0  0  0  0  0  0  0  0
    2.4388   20.7566   34.8662 C   0  0  0  0  0  0  0  0  0  0  0  0
    3.4486   21.5625   35.3422 C   0  0  0  0  0  0  0  0  0  0  0  0
    2.0546   18.2703   37.6861 C   0  0  0  0  0  0  0  0  0  0  0  0
    2.7136   17.9096   38.7050 O   0  0  0  0  0  0  0  0  0  0  0  0
    0.9992   17.8135   37.3031 O   0  0  0  0  0  0  0  0  0  0  0  0
    4.1585   20.0122   38.3019 H   0  0  0  0  0  0  0  0  0  0  0  0
    1.1472   19.0882   35.2769 H   0  0  0  0  0  0  0  0  0  0  0  0
    1.9902   20.9567   33.8820 H   0  0  0  0  0  0  0  0  0  0  0  0
    3.7571   22.4341   34.7463 H   0  0  0  0  0  0  0  0  0  0  0  0
  1  2  1  0
  1  6  2  0
  2  3  2  0
  3  4  1  0
  3  7  1  0
  4  5  2  0
  5  6  1  0
  7  8  1  0
  7  9  2  0
  2 10  1  0
  4 11  1  0
  5 12  1  0
  6 13  1  0
M  CHG  1   8  -1
M  END
>  <mol_id>  (79) 
2026-09-18-3war-s0-n100-r4-0079

>  <rmsd_to_ref>  (79) 
4.035714285715073

>  <pose_kind>  (79) 
rigid

$$$$
3war.A
     RDKit          3D

 13 13  0  0  0  0  0  0  0  0999 V2000
    1.2803   23.9040   37.3701 N   0  0  0  0  0  0  0  0  0  0  0  0
    2.0357   23.1933   38.2337 C   0  0  0  0  0  0  0  0  0  0  0  0
    1.9446   21.8208   38.2821 C   0  0  0  0  0  0  0  0  0  0  0  0
    1.0768   21.1589   37.4444 C   0  0  0  0  0  0  0  0  0  0  0  0
    0.3017   21.9032   36.5567 C   0  0  0  0  0  0  0  0  0  0  0  0
    0.4173   23.2961   36.5318 C   0  0  0  0  0  0  0  0  0  0  0  0
    2.7652   21.0515   39.2200 C   0  0  0  0  0  0  0  0  0  0  0  0
    3.6477   21.6984   40.0745 O   0  0  0  0  0  0  0  0  0  0  0  0
    2.6356   19.7906   39.2165 O   0  0  0  0  0  0  0  0  0  0  0  0
    2.7334   23.6733   38.9125 H   0  0  0  0  0  0  0  0  0  0  0  0
    0.9646   20.0780   37.4403 H   0  0  0  0  0  0  0  0  0  0  0  0
   -0.3908   21.4072   35.8849 H   0  0  0  0  0  0  0  0  0  0  0  0
   -0.1919   23.8617   35.8361 H   0  0  0  0  0  0  0  0  0  0  0  0
  1  2  1  0
  1  6  2  0
  2  3  2  0
  3  4  1  0
  3  7  1  0
  4  5  2  0
  5  6  1  0
  7  8  1  0
  7  9  2  0
  2 10  1  0
  4 11  1  0
  5 12  1  0
  6 13  1  0
M  CHG  1   8  -1
M  END
>  <mol_id>  (80) 
2026-09-18-3war-s0-n100-r4-0080

>  <rmsd_to_ref>  (80) 
4.081632653062441

>  <pose_kind>  (80) 
conformer

$$$$
3war.A
     RDKit          3D

 13 13  0  0  0  0  0  0  0  0999 V2000
    1.2592   23.6882   39.1333 N   0  0  0  0  0  0  0  0  0  0  0  0
    1.6954   22.9223   40.2411 C   0  0  0  0  0  0  0  0  0  0  0  0
    2.2480   21.6200   39.9620 C   0  0  0  0  0  0  0  0  0  0  0  0
    2.3164   21.1434   38.6650 C   0  0  0  0  0  0  0  0  0  0  0  0
    1.9045   21.9345   37.6150 C   0  0  0  0  0  0  0  0  0  0  0  0
    1.3570   23.1726   37.8664 C   0  0  0  0  0  0  0  0  0  0  0  0
    2.6476   20.7058   41.1106 C   0  0  0  0  0  0  0  0  0  0  0  0
    2.7288   21.2001   42.2732 O   0  0  0  0  0  0  0  0  0  0  0  0
    2.8470   19.5526   40.7948 O   0  0  0  0  0  0  0  0  0  0  0  0
    1.6161   23.3040   41.2697 H   0  0  0  0  0  0  0  0  0  0  0  0
    2.7002   20.1308   38.4718 H   0  0  0  0  0  0  0  0  0  0  0  0
    2.0128   21.5785   36.5799 H   0  0  0  0  0  0  0  0  0  0  0  0
    0.9846   23.7694   37.0207 H   0  0  0  0  0  0  0  0  0  0  0  0
  1  2  1  0
  1  6  2  0
  2  3  2  0
  3  4  1  0
  3  7  1  0
  4  5  2  0
  5  6  1  0
  7  8  1  0
  7  9  2  0
  2 10  1  0
  4 11  1  0
  5 12  1  0
  6 13  1  0
M  CHG  1   8  -1
M  END
>  <mol_id>  (81) 
2026-09-18-3war-s0-n100-r4-0081

>  <rmsd_to_ref>  (81) 
4.12755102041101

>  <pose_kind>  (81) 
rigid

$$$$
3war.A
     RDKit          3D

 13 13  0  0  0  0  0  0  0  0999 V2000
    3.7413   20.6632   36.8682 N   0  0  0  0  0  0  0  0  0  0  0  0
    2.5071   21.2281   36.7582 C   0  0  0  0  0  0  0  0  0  0  0  0
    1.4182   20.5152   36.2913 C   0  0  0  0  0  0  0  0  0  0  0  0
    1.5834   19.1977   35.9269 C   0  0  0  0  0  0  0  0  0  0  0  0
    2.8451   18.6476   36.0478 C   0  0  0  0  0  0  0  0  0  0  0  0
    3.9293   19.3732   36.5175 C   0  0  0  0  0  0  0  0  0  0  0  0
    0.1069   21.1452   36.1834 C   0  0  0  0  0  0  0  0  0  0  0  0
   -0.9703   20.4264   35.7174 O   0  0  0  0  0  0  0  0  0  0  0  0
   -0.0329   22.3379   36.5155 O   0  0  0  0  0  0  0  0  0  0  0  0
    2.3997   22.2665   37.0506 H   0  0  0  0  0  0  0  0  0  0  0  0
    0.7719   18.5927   35.5565 H   0  0  0  0  0  0  0  0  0  0  0  0
    3.0439   17.6150   35.7781 H   0  0  0  0  0  0  0  0  0  0  0  0
    4.9102   18.9459   36.6116 H   0  0  0  0  0  0  0  0  0  0  0  0
  1  2  1  0
  1  6  2  0
  2  3  2  0
  3  4  1  0
  3  7  1  0
  4  5  2  0
  5  6  1  0
  7  8  1  0
  7  9  2  0
  2 10  1  0
  4 11  1  0
  5 12  1  0
  6 13  1  0
M  CHG  1   8  -1
M  END
>  <mol_id>  (82) 
2026-09-18-3war-s0-n100-r4-0082

>  <rmsd_to_ref>  (82) 
4.173469387755521

>  <pose_kind>  (82) 
conformer

$$$$
3war.A
     RDKit          3D

 13 13  0  0  0  0  0  0  0  0999 V2000
    5.1765   20.4916   40.9434 N   0  0  0  0  0  0  0  0  0  0  0  0
    4.3235   21.6164   41.0487 C   0  0  0  0  0  0  0  0  0  0  0  0
    3.8102   22.1683   39.8193 C   0  0  0  0  0  0  0  0  0  0  0  0
    4.1678   21.6276   38.5971 C   0  0  0  0  0  0  0  0  0  0  0  0
    4.9797   20.5158   38.5439 C   0  0  0  0  0  0  0  0  0  0  0  0
    5.4932   19.9886   39.7076 C   0  0  0  0  0  0  0  0  0  0  0  0
    2.9661   23.4337   39.8524 C   0  0  0  0  0  0  0  0  0  0  0  0
    2.5175   23.8290   40.9683 O   0  0  0  0  0  0  0  0  0  0  0  0
    2.8064   23.9649   38.7747 O   0  0  0  0  0  0  0  0  0  0  0  0
    4.0635   22.0503   42.0255 H   0  0  0  0  0  0  0  0  0  0  0  0
    3.8032   22.0861   37.6661 H   0  0  0  0  0  0  0  0  0  0  0  0
    5.2167   20.0511   37.5755 H   0  0  0  0  0  0  0  0  0  0  0  0
    6.1820   19.1335   39.6437 H   0  0  0  0  0  0  0  0  0  0  0  0
  1  2  1  0
  1  6  2  0
  2  3  2  0
  3  4  1  0
  3  7  1  0
  4  5  2  0
  5  6  1  0
  7  8  1  0
  7  9  2  0
  2 10  1  0
  4 11  1  0
  5 12  1  0
  6 13  1  0
M  CHG  1   8  -1
M  END
>  <mol_id>  (83) 
2026-09-18-3war-s0-n100-r4-0083

>  <rmsd_to_ref>  (83) 
4.219387755103522

>  <pose_kind>  (83) 
rigid

$$$$
3war.A
     RDKit          3D

 13 13  0  0  0  0  0  0  0  0999 V2000
    1.1208   19.5174   36.1368 N   0  0  0  0  0  0  0  0  0  0  0  0
    0.1667   18.8918   36.8496 C   0  0  0  0  0  0  0  0  0  0  0  0
   -0.2569   19.4174   38.0737 C   0  0  0  0  0  0  0  0  0  0  0  0
    0.3378   20.5859   38.5092 C   0  0  0  0  0  0  0  0  0  0  0  0
    1.3122   21.1998   37.7530 C   0  0  0  0  0  0  0  0  0  0  0  0
    1.7061   20.6536   36.5497 C   0  0  0  0  0  0  0  0  0  0  0  0
   -1.2869   18.7505   38.8527 C   0  0  0  0  0  0  0  0  0  0  0  0
   -1.8475   17.5822   38.3669 O   0  0  0  0  0  0  0  0  0  0  0  0
   -1.6210   19.2765   39.9443 O   0  0  0  0  0  0  0  0  0  0  0  0
   -0.2845   17.9717   36.4813 H   0  0  0  0  0  0  0  0  0  0  0  0
    0.0172   21.0017   39.4561 H   0  0  0  0  0  0  0  0  0  0  0  0
    1.7842   22.1215   38.0922 H   0  0  0  0  0  0  0  0  0  0  0  0
    2.4722   21.1361   35.9550 H   0  0  0  0  0  0  0  0  0  0  0  0
  1  2  1  0
  1  6  2  0
  2  3  2  0
  3  4  1  0
  3  7  1  0
  4  5  2  0
  5  6  1  0
  7  8  1  0
  7  9  2  0
  2 10  1  0
  4 11  1  0
  5 12  1  0
  6 13  1  0
M  CHG  1   8  -1
M  END
>  <mol_id>  (84) 
2026-09-18-3war-s0-n100-r4-0084

>  <rmsd_to_ref>  (84) 
4.265306122450232

>  <pose_kind>  (84) 
conformer

$$$$
3war.A
     RDKit          3D

 13 13  0  0  0  0  0  0  0  0999 V2000
    2.9859   20.3576   36.7108 N   0  0  0  0  0  0  0  0  0  0  0  0
    1.9062   20.4407   37.6226 C   0  0  0  0  0  0  0  0  0  0  0  0
    0.9159   21.4595   37.3762 C   0  0  0  0  0  0  0  0  0  0  0  0
    1.0447   22.3278   36.3068 C   0  0  0  0  0  0  0  0  0  0  0  0
    2.0983   22.1926   35.4295 C   0  0  0  0  0  0  0  0  0  0  0  0
    3.0623   21.2373   35.6617 C   0  0  0  0  0  0  0  0  0  0  0  0
   -0.2187   21.6674   38.3683 C   0  0  0  0  0  0  0  0  0  0  0  0
   -0.4179   20.7806   39.2495 O   0  0  0  0  0  0  0  0  0  0  0  0
   -0.8372   22.6996   38.2221 O   0  0  0  0  0  0  0  0  0  0  0  0
    1.8261   19.7580   38.4814 H   0  0  0  0  0  0  0  0  0  0  0  0
    0.3045   23.1275   36.1568 H   0  0  0  0  0  0  0  0  0  0  0  0
    2.1692   22.8454   34.5470 H   0  0  0  0  0  0  0  0  0  0  0  0
    3.9245   21.1776   34.9813 H   0  0  0  0  0  0  0  0  0  0  0  0
  1  2  1  0
  1  6  2  0
  2  3  2  0
  3  4  1  0
  3  7  1  0
  4  5  2  0
  5  6  1  0
  7  8  1  0
  7  9  2  0
  2 10  1  0
  4 11  1  0
  5 12  1  0
  6 13  1  0
M  CHG  1   8  -1
M  END
>  <mol_id>  (85) 
2026-09-18-3war-s0-n100-r4-0085

>  <rmsd_to_ref>  (85) 
4.311224489797828

>  <pose_kind>  (85) 
rigid

$$$$
3war.A
     RDKit          3D

 13 13  0  0  0  0  0  0  0  0999 V2000
    0.1999   18.9442   36.5222 N   0  0  0  0  0  0  0  0  0  0  0  0
    0.3930   18.3469   37.7237 C   0  0  0  0  0  0  0  0  0  0  0  0
   -0.2982   18.8501   38.8092 C   0  0  0  0  0  0  0  0  0  0  0  0
   -1.1645   19.9201   38.7225 C   0  0  0  0  0  0  0  0  0  0  0  0
   -1.3376   20.5051   37.4824 C   0  0  0  0  0  0  0  0  0  0  0  0
   -0.6362   19.9914   36.3914 C   0  0  0  0  0  0  0  0  0  0  0  0
   -0.1178   18.2346   40.1201 C   0  0  0  0  0  0  0  0  0  0  0  0
    0.7496   17.1406   40.2817 O   0  0  0  0  0  0  0  0  0  0  0  0
   -0.7583   18.7055   41.1106 O   0  0  0  0  0  0  0  0  0  0  0  0
    1.0620   17.5051   37.8416 H   0  0  0  0  0  0  0  0  0  0  0  0
   -1.7091   20.3159   39.5801 H   0  0  0  0  0  0  0  0  0  0  0  0
   -1.9829   21.3398   37.2940 H   0  0  0  0  0  0  0  0  0  0  0  0
   -0.7344   20.4120   35.3955 H   0  0  0  0  0  0  0  0  0  0  0  0
  1  2  1  0
  1  6  2  0
  2  3  2  0
  3  4  1  0
  3  7  1  0
  4  5  2  0
  5  6  1  0
  7  8  1  0
  7  9  2  0
  2 10  1  0
  4 11  1  0
  5 12  1  0
  6 13  1  0
M  CHG  1   8  -1
M  END
>  <mol_id>  (86) 
2026-09-18-3war-s0-n100-r4-0086

>  <rmsd_to_ref>  (86) 
4.357142857144567

>  <pose_kind>  (86) 
conformer

$$$$
3war.A
     RDKit          3D

 13 13  0  0  0  0  0  0  0  0999 V2000
    1.6003   18.7763   40.0157 N   0  0  0  0  0  0  0  0  0  0  0  0
    1.0970   19.4375   41.1618 C   0  0  0  0  0  0  0  0  0  0  0  0
    0.2424   20.5776   40.9395 C   0  0  0  0  0  0  0  0  0  0  0  0
   -0.0409   21.0102   39.6563 C   0  0  0  0  0  0  0  0  0  0  0  0
    0.4493   20.3196   38.5698 C   0  0  0  0  0  0  0  0  0  0  0  0
    1.2821   19.2406   38.7653 C   0  0  0  0  0  0  0  0  0  0  0  0
   -0.2555   21.3922   42.1241 C   0  0  0  0  0  0  0  0  0  0  0  0
   -0.1245   20.9069   43.2860 O   0  0  0  0  0  0  0  0  0  0  0  0
   -0.7365   22.4664   41.8344 O   0  0  0  0  0  0  0  0  0  0  0  0
    1.3468   19.0966   42.1773 H   0  0  0  0  0  0  0  0  0  0  0  0
   -0.6588   21.9073   39.5033 H   0  0  0  0  0  0  0  0  0  0  0  0
    0.1766   20.6289   37.5500 H   0  0  0  0  0  0  0  0  0  0  0  0
    1.7073   18.7329   37.8870 H   0  0  0  0  0  0  0  0  0  0  0  0
  1  2  1  0
  1  6  2  0
  2  3  2  0
  3  4  1  0
  3  7  1  0
  4  5  2  0
  5  6  1  0
  7  8  1  0
  7  9  2  0
  2 10  1  0
  4 11  1  0
  5 12  1  0
  6 13  1  0
M  CHG  1   8  -1
M  END
>  <mol_id>  (87) 
2026-09-18-3war-s0-n100-r4-0087

>  <rmsd_to_ref>  (87) 
4.403061224490205

>  <pose_kind>  (87) 
rigid

$$$$
3war.A
     RDKit          3D

 13 13  0  0  0  0  0  0  0  0999 V2000
    0.1201   18.8268   38.2115 N   0  0  0  0  0  0  0  0  0  0  0  0
   -0.4711   19.5780   39.1742 C   0  0  0  0  0  0  0  0  0  0  0  0
    0.1155   19.6518   40.4397 C   0  0  0  0  0  0  0  0  0  0  0  0
    1.2956   18.9579   40.7021 C   0  0  0  0  0  0  0  0  0  0  0  0
    1.8799   18.1996   39.7073 C   0  0  0  0  0  0  0  0  0  0  0  0
    1.2608   18.1515   38.4525 C   0  0  0  0  0  0  0  0  0  0  0  0
   -0.5368   20.4677   41.4671 C   0  0  0  0  0  0  0  0  0  0  0  0
    0.0674   20.5278   42.7274 O   0  0  0  0  0  0  0  0  0  0  0  0
   -1.5844   21.1056   41.2935 O   0  0  0  0  0  0  0  0  0  0  0  0
   -1.3857   20.1187   38.9789 H   0  0  0  0  0  0  0  0  0  0  0  0
    1.7575   19.0076   41.6757 H   0  0  0  0  0  0  0  0  0  0  0  0
    2.7959   17.6546   39.8937 H   0  0  0  0  0  0  0  0  0  0  0  0
    1.6806   17.5706   37.6401 H   0  0  0  0  0  0  0  0  0  0  0  0
  1  2  1  0
  1  6  2  0
  2  3  2  0
  3  4  1  0
  3  7  1  0
  4  5  2  0
  5  6  1  0
  7  8  1  0
  7  9  2  0
  2 10  1  0
  4 11  1  0
  5 12  1  0
  6 13  1  0
M  CHG  1   8  -1
M  END
>  <mol_id>  (88) 
2026-09-18-3war-s0-n100-r4-0088

>  <rmsd_to_ref>  (88) 
4.448979591838442

>  <pose_kind>  (88) 
conformer

$$$$
3war.A
     RDKit          3D

 13 13  0  0  0  0  0  0  0  0999 V2000
    3.1715   16.6943   38.3518 N   0  0  0  0  0  0  0  0  0  0  0  0
    2.1689   16.8414   39.3404 C   0  0  0  0  0  0  0  0  0  0  0  0
    2.4945   17.6482   40.4904 C   0  0  0  0  0  0  0  0  0  0  0  0
    3.7460   18.2235   40.6199 C   0  0  0  0  0  0  0  0  0  0  0  0
    4.6818   18.0756   39.6197 C   0  0  0  0  0  0  0  0  0  0  0  0
    4.3931   17.2927   38.5245 C   0  0  0  0  0  0  0  0  0  0  0  0
    1.4996   17.7702   41.6350 C   0  0  0  0  0  0  0  0  0  0  0  0
    0.3116   17.3765   41.4445 O   0  0  0  0  0  0  0  0  0  0  0  0
    1.9561   18.2385   42.6556 O   0  0  0  0  0  0  0  0  0  0  0  0
    1.1848   16.3613   39.2359 H   0  0  0  0  0  0  0  0  0  0  0  0
    3.9943   18.8002   41.5231 H   0  0  0  0  0  0  0  0  0  0  0  0
    5.6559   18.5809   39.6959 H   0  0  0  0  0  0  0  0  0  0  0  0
    5.1702   17.1420   37.7607 H   0  0  0  0  0  0  0  0  0  0  0  0
  1  2  1  0
  1  6  2  0
  2  3  2  0
  3  4  1  0
  3  7  1  0
  4  5  2  0
  5  6  1  0
  7  8  1  0
  7  9  2  0
  2 10  1  0
  4 11  1  0
  5 12  1  0
  6 13  1  0
M  CHG  1   8  -1
M  END
>  <mol_id>  (89) 
2026-09-18-3war-s0-n100-r4-0089

>  <rmsd_to_ref>  (89) 
4.49489795918565

>  <pose_kind>  (89) 
rigid

$$$$
3war.A
     RDKit          3D

 13 13  0  0  0  0  0  0  0  0999 V2000
    2.5412   22.3321   37.5406 N   0  0  0  0  0  0  0  0  0  0  0  0
    2.2062   21.7480   38.7238 C   0  0  0  0  0  0  0  0  0  0  0  0
    2.4299   22.3984   39.9201 C   0  0  0  0  0  0  0  0  0  0  0  0
    3.0005   23.6538   39.8923 C   0  0  0  0  0  0  0  0  0  0  0  0
    3.3523   24.2730   38.6946 C   0  0  0  0  0  0  0  0  0  0  0  0
    3.1034   23.5690   37.5139 C   0  0  0  0  0  0  0  0  0  0  0  0
    2.0739   21.7759   41.1631 C   0  0  0  0  0  0  0  0  0  0  0  0
    1.4976   20.5066   41.1797 O   0  0  0  0  0  0  0  0  0  0  0  0
    2.2565   22.3244   42.2723 O   0  0  0  0  0  0  0  0  0  0  0  0
    1.7647   20.7648   38.6541 H   0  0  0  0  0  0  0  0  0  0  0  0
    3.1861   24.1836   40.8104 H   0  0  0  0  0  0  0  0  0  0  0  0
    3.7973   25.2485   38.6452 H   0  0  0  0  0  0  0  0  0  0  0  0
    3.3662   24.0228   36.5531 H   0  0  0  0  0  0  0  0  0  0  0  0
  1  2  1  0
  1  6  2  0
  2  3  2  0
  3  4  1  0
  3  7  1  0
  4  5  2  0
  5  6  1  0
  7  8  1  0
  7  9  2  0
  2 10  1  0
  4 11  1  0
  5 12  1  0
  6 13  1  0
M  CHG  1   8  -1
M  END
>  <mol_id>  (90) 
2026-09-18-3war-s0-n100-r4-0090

>  <rmsd_to_ref>  (90) 
4.540816326531282

>  <pose_kind>  (90) 
conformer

$$$$
3war.A
     RDKit          3D

 13 13  0  0  0  0  0  0  0  0999 V2000
    4.9687   19.1814   40.9041 N   0  0  0  0  0  0  0  0  0  0  0  0
    4.2040   19.5712   42.0299 C   0  0  0  0  0  0  0  0  0  0  0  0
    3.1480   20.5276   41.8069 C   0  0  0  0  0  0  0  0  0  0  0  0
    2.9231   21.0525   40.5467 C   0  0  0  0  0  0  0  0  0  0  0  0
    3.6750   20.6238   39.4749 C   0  0  0  0  0  0  0  0  0  0  0  0
    4.6993   19.7256   39.6746 C   0  0  0  0  0  0  0  0  0  0  0  0
    2.3500   21.0623   42.9867 C   0  0  0  0  0  0  0  0  0  0  0  0
    2.4528   20.4701   44.1008 O   0  0  0  0  0  0  0  0  0  0  0  0
    1.6781   22.0411   42.7423 O   0  0  0  0  0  0  0  0  0  0  0  0
    4.4064   19.1625   43.0308 H   0  0  0  0  0  0  0  0  0  0  0  0
    2.1425   21.8136   40.4003 H   0  0  0  0  0  0  0  0  0  0  0  0
    3.4580   20.9977   38.4634 H   0  0  0  0  0  0  0  0  0  0  0  0
    5.3238   19.4342   38.8173 H   0  0  0  0  0  0  0  0  0  0  0  0
  1  2  1  0
  1  6  2  0
  2  3  2  0
  3  4  1  0
  3  7  1  0
  4  5  2  0
  5  6  1  0
  7  8  1  0
  7  9  2  0
  2 10  1  0
  4 11  1  0
  5 12  1  0
  6 13  1  0
M  CHG  1   8  -1
M  END
>  <mol_id>  (91) 
2026-09-18-3war-s0-n100-r4-0091

>  <rmsd_to_ref>  (91) 
4.586734693878952

>  <pose_kind>  (91) 
rigid

$$$$
3war.A
     RDKit          3D

 13 13  0  0  0  0  0  0  0  0999 V2000
    2.8625   22.3925   36.9953 N   0  0  0  0  0  0  0  0  0  0  0  0
    3.3493   22.8911   38.1489 C   0  0  0  0  0  0  0  0  0  0  0  0
    4.3003   22.1739   38.8428 C   0  0  0  0  0  0  0  0  0  0  0  0
    4.7052   20.9697   38.3092 C   0  0  0  0  0  0  0  0  0  0  0  0
    4.1921   20.4801   37.1263 C   0  0  0  0  0  0  0  0  0  0  0  0
    3.2430   21.2222   36.4582 C   0  0  0  0  0  0  0  0  0  0  0  0
    4.8450   22.6877   40.0929 C   0  0  0  0  0  0  0  0  0  0  0  0
    5.8130   21.9076   40.7531 O   0  0  0  0  0  0  0  0  0  0  0  0
    4.4896   23.7871   40.6002 O   0  0  0  0  0  0  0  0  0  0  0  0
    3.0217   23.8460   38.5627 H   0  0  0  0  0  0  0  0  0  0  0  0
    5.4426   20.3952   38.8303 H   0  0  0  0  0  0  0  0  0  0  0  0
    4.5154   19.5503   36.7296 H   0  0  0  0  0  0  0  0  0  0  0  0
    2.7984   20.8981   35.5256 H   0  0  0  0  0  0  0  0  0  0  0  0
  1  2  1  0
  1  6  2  0
  2  3  2  0
  3  4  1  0
  3  7  1  0
  4  5  2  0
  5  6  1  0
  7  8  1  0
  7  9  2  0
  2 10  1  0
  4 11  1  0
  5 12  1  0
  6 13  1  0
M  CHG  1   8  -1
M  END
>  <mol_id>  (92) 
2026-09-18-3war-s0-n100-r4-0092

>  <rmsd_to_ref>  (92) 
4.632653061225111

>  <pose_kind>  (92) 
conformer

$$$$
3war.A
     RDKit          3D

 13 13  0  0  0  0  0  0  0  0999 V2000
    2.1488   19.9825   34.4846 N   0  0  0  0  0  0  0  0  0  0  0  0
    1.8186   19.7432   35.8402 C   0  0  0  0  0  0  0  0  0  0  0  0
    2.6903   18.8674   36.5834 C   0  0  0  0  0  0  0  0  0  0  0  0
    3.7818   18.2729   35.9756 C   0  0  0  0  0  0  0  0  0  0  0  0
    4.0802   18.5559   34.6608 C   0  0  0  0  0  0  0  0  0  0  0  0
    3.2471   19.3751   33.9323 C   0  0  0  0  0  0  0  0  0  0  0  0
    2.3423   18.4908   38.0158 C   0  0  0  0  0  0  0  0  0  0  0  0
    1.4408   19.1519   38.6099 O   0  0  0  0  0  0  0  0  0  0  0  0
    2.9744   17.5581   38.4627 O   0  0  0  0  0  0  0  0  0  0  0  0
    0.9357   20.2052   36.3062 H   0  0  0  0  0  0  0  0  0  0  0  0
    4.4126   17.5730   36.5434 H   0  0  0  0  0  0  0  0  0  0  0  0
    4.9806   18.1291   34.1948 H   0  0  0  0  0  0  0  0  0  0  0  0
    3.4706   19.5484   32.8693 H   0  0  0  0  0  0  0  0  0  0  0  0
  1  2  1  0
  1  6  2  0
  2  3  2  0
  3  4  1  0
  3  7  1  0
  4  5  2  0
  5  6  1  0
  7  8  1  0
  7  9  2  0
  2 10  1  0
  4 11  1  0
  5 12  1  0
  6 13  1  0
M  CHG  1   8  -1
M  END
>  <mol_id>  (93) 
2026-09-18-3war-s0-n100-r4-0093

>  <rmsd_to_ref>  (93) 
4.678571428572094

>  <pose_kind>  (93) 
rigid

$$$$
3war.A
     RDKit          3D

 13 13  0  0  0  0  0  0  0  0999 V2000
    2.6767   20.7796   39.3308 N   0  0  0  0  0  0  0  0  0  0  0  0
    2.2069   20.6219   40.6020 C   0  0  0  0  0  0  0  0  0  0  0  0
    3.0972   20.8125   41.6465 C   0  0  0  0  0  0  0  0  0  0  0  0
    4.4153   21.1490   41.4615 C   0  0  0  0  0  0  0  0  0  0  0  0
    4.8648   21.3030   40.1462 C   0  0  0  0  0  0  0  0  0  0  0  0
    3.9656   21.1097   39.1160 C   0  0  0  0  0  0  0  0  0  0  0  0
    2.5826   20.6410   42.9967 C   0  0  0  0  0  0  0  0  0  0  0  0
    3.4164   20.8155   44.1039 O   0  0  0  0  0  0  0  0  0  0  0  0
    1.3868   20.3331   43.2510 O   0  0  0  0  0  0  0  0  0  0  0  0
    1.1712   20.3576   40.7417 H   0  0  0  0  0  0  0  0  0  0  0  0
    5.0675   21.2860   42.3119 H   0  0  0  0  0  0  0  0  0  0  0  0
    5.8976   21.5666   40.0047 H   0  0  0  0  0  0  0  0  0  0  0  0
    4.3100   21.2288   38.0762 H   0  0  0  0  0  0  0  0  0  0  0  0
  1  2  1  0
  1  6  2  0
  2  3  2  0
  3  4  1  0
  3  7  1  0
  4  5  2  0
  5  6  1  0
  7  8  1  0
  7  9  2  0
  2 10  1  0
  4 11  1  0
  5 12  1  0
  6 13  1  0
M  CHG  1   8  -1
M  END
>  <mol_id>  (94) 
2026-09-18-3war-s0-n100-r4-0094

>  <rmsd_to_ref>  (94) 
4.724489795919587

>  <pose_kind>  (94) 
conformer

$$$$
3war.A
     RDKit          3D

 13 13  0  0  0  0  0  0  0  0999 V2000
   -0.0593   21.0840   36.9885 N   0  0  0  0  0  0  0  0  0  0  0  0
   -1.0732   20.8575   37.9502 C   0  0  0  0  0  0  0  0  0  0  0  0
   -0.8001   19.8794   38.9740 C   0  0  0  0  0  0  0  0  0  0  0  0
    0.3945   19.1816   38.9855 C   0  0  0  0  0  0  0  0  0  0  0  0
    1.3636   19.4543   38.0450 C   0  0  0  0  0  0  0  0  0  0  0  0
    1.1107   20.3715   37.0497 C   0  0  0  0  0  0  0  0  0  0  0  0
   -1.8809   19.5170   39.9817 C   0  0  0  0  0  0  0  0  0  0  0  0
   -2.9020   20.2608   40.0627 O   0  0  0  0  0  0  0  0  0  0  0  0
   -1.6587   18.5137   40.6244 O   0  0  0  0  0  0  0  0  0  0  0  0
   -2.0275   21.4036   37.9179 H   0  0  0  0  0  0  0  0  0  0  0  0
    0.5708   18.4076   39.7469 H   0  0  0  0  0  0  0  0  0  0  0  0
    2.3356   18.9412   38.0890 H   0  0  0  0  0  0  0  0  0  0  0  0
    1.8745   20.5387   36.2761 H   0  0  0  0  0  0  0  0  0  0  0  0
  1  2  1  0
  1  6  2  0
  2  3  2  0
  3  4  1  0
  3  7  1  0
  4  5  2  0
  5  6  1  0
  7  8  1  0
  7  9  2  0
  2 10  1  0
  4 11  1  0
  5 12  1  0
  6 13  1  0
M  CHG  1   8  -1
M  END
>  <mol_id>  (95) 
2026-09-18-3war-s0-n100-r4-0095

>  <rmsd_to_ref>  (95) 
4.77040816326669

>  <pose_kind>  (95) 
rigid

$$$$
3war.A
     RDKit          3D

 13 13  0  0  0  0  0  0  0  0999 V2000
    0.3254   21.3911   38.9725 N   0  0  0  0  0  0  0  0  0  0  0  0
    0.1470   21.5955   40.3071 C   0  0  0  0  0  0  0  0  0  0  0  0
    0.3932   20.6013   41.2360 C   0  0  0  0  0  0  0  0  0  0  0  0
    0.8309   19.3699   40.8027 C   0  0  0  0  0  0  0  0  0  0  0  0
    1.0042   19.1875   39.4440 C   0  0  0  0  0  0  0  0  0  0  0  0
    0.7538   20.1927   38.5223 C   0  0  0  0  0  0  0  0  0  0  0  0
    0.1937   20.8473   42.6600 C   0  0  0  0  0  0  0  0  0  0  0  0
    0.4418   19.8506   43.5762 O   0  0  0  0  0  0  0  0  0  0  0  0
   -0.2027   21.9648   43.0427 O   0  0  0  0  0  0  0  0  0  0  0  0
   -0.1982   22.5724   40.6261 H   0  0  0  0  0  0  0  0  0  0  0  0
    1.0390   18.5575   41.4798 H   0  0  0  0  0  0  0  0  0  0  0  0
    1.3467   18.2417   39.0360 H   0  0  0  0  0  0  0  0  0  0  0  0
    0.8884   20.0513   37.4661 H   0  0  0  0  0  0  0  0  0  0  0  0
  1  2  1  0
  1  6  2  0
  2  3  2  0
  3  4  1  0
  3  7  1  0
  4  5  2  0
  5  6  1  0
  7  8  1  0
  7  9  2  0
  2 10  1  0
  4 11  1  0
  5 12  1  0
  6 13  1  0
M  CHG  1   8  -1
M  END
>  <mol_id>  (96) 
2026-09-18-3war-s0-n100-r4-0096

>  <rmsd_to_ref>  (96) 
4.816326530613748

>  <pose_kind>  (96) 
conformer

$$$$
3war.A
     RDKit          3D

 13 13  0  0  0  0  0  0  0  0999 V2000
    3.0846   22.3604   34.5656 N   0  0  0  0  0  0  0  0  0  0  0  0
    2.5832   22.4297   35.8877 C   0  0  0  0  0  0  0  0  0  0  0  0
    3.1167   21.4897   36.8422 C   0  0  0  0  0  0  0  0  0  0  0  0
    4.0568   20.5494   36.4598 C   0  0  0  0  0  0  0  0  0  0  0  0
    4.5359   20.5363   35.1682 C   0  0  0  0  0  0  0  0  0  0  0  0
    4.0227   21.4147   34.2404 C   0  0  0  0  0  0  0  0  0  0  0  0
    2.5544   21.4447   38.2552 C   0  0  0  0  0  0  0  0  0  0  0  0
    1.8158   22.3983   38.6397 O   0  0  0  0  0  0  0  0  0  0  0  0
    2.8692   20.4646   38.8951 O   0  0  0  0  0  0  0  0  0  0  0  0
    1.8201   23.1683   36.1743 H   0  0  0  0  0  0  0  0  0  0  0  0
    4.4224   19.8108   37.1885 H   0  0  0  0  0  0  0  0  0  0  0  0
    5.3253   19.8268   34.8793 H   0  0  0  0  0  0  0  0  0  0  0  0
    4.3780   21.3556   33.2010 H   0  0  0  0  0  0  0  0  0  0  0  0
  1  2  1  0
  1  6  2  0
  2  3  2  0
  3  4  1  0
  3  7  1  0
  4  5  2  0
  5  6  1  0
  7  8  1  0
  7  9  2  0
  2 10  1  0
  4 11  1  0
  5 12  1  0
  6 13  1  0
M  CHG  1   8  -1
M  END
>  <mol_id>  (97) 
2026-09-18-3war-s0-n100-r4-0097

>  <rmsd_to_ref>  (97) 
4.862244897960816

>  <pose_kind>  (97) 
rigid

$$$$
