6fnk.A
     RDKit          3D

 27 29  0  0  0  0  0  0  0  0999 V2000
    2.9034   16.1161   40.7342 C   0  0  0  0  0  0  0  0  0  0  0  0
    3.3991   14.8730   40.3406 C   0  0  0  0  0  0  0  0  0  0  0  0
    3.2111   13.7637   41.1521 C   0  0  0  0  0  0  0  0  0  0  0  0
    2.5220   13.8922   42.3612 N   0  0  0  0  0  0  0  0  0  0  0  0
    2.0259   15.1442   42.7552 C   0  0  0  0  0  0  0  0  0  0  0  0
    2.2158   16.2597   41.9417 C   0  0  0  0  0  0  0  0  0  0  0  0
    1.7222   17.5068   42.3382 C   0  0  0  0  0  0  0  0  0  0  0  0
    2.0408   18.6212   41.6654 N   0  0  0  0  0  0  0  0  0  0  0  0
    0.9145   17.5957   43.3997 N   0  0  0  0  0  0  0  0  0  0  0  0
    0.4272   18.7780   43.8163 C   0  0  0  0  0  0  0  0  0  0  0  0
   -0.3708   19.1111   44.8422 N   0  0  0  0  0  0  0  0  0  0  0  0
   -0.9468   18.1844   45.8212 C   0  0  0  0  0  0  0  0  0  0  0  0
   -0.5738   20.3259   44.8557 N   0  0  0  0  0  0  0  0  0  0  0  0
    0.0681   20.8526   43.7999 C   0  0  0  0  0  0  0  0  0  0  0  0
    0.7283   19.8866   43.1473 C   0  0  0  0  0  0  0  0  0  0  0  0
    1.5428   19.8079   42.0593 C   0  0  0  0  0  0  0  0  0  0  0  0
    1.8732   20.9182   41.3561 N   0  0  0  0  0  0  0  0  0  0  0  0
    3.0555   16.9924   40.0870 H   0  0  0  0  0  0  0  0  0  0  0  0
    3.9387   14.7724   39.3873 H   0  0  0  0  0  0  0  0  0  0  0  0
    3.6041   12.7836   40.8441 H   0  0  0  0  0  0  0  0  0  0  0  0
    1.4860   15.2454   43.7082 H   0  0  0  0  0  0  0  0  0  0  0  0
   -0.7252   18.5408   46.8380 H   0  0  0  0  0  0  0  0  0  0  0  0
   -2.0365   18.1326   45.6801 H   0  0  0  0  0  0  0  0  0  0  0  0
   -0.5109   17.1844   45.6801 H   0  0  0  0  0  0  0  0  0  0  0  0
    0.0539   21.9149   43.5146 H   0  0  0  0  0  0  0  0  0  0  0  0
    1.5034   21.8366   41.6400 H   0  0  0  0  0  0  0  0  0  0  0  0
    2.4942   20.8437   40.5377 H   0  0  0  0  0  0  0  0  0  0  0  0
  1  2  2  0
  1  6  1  0
  2  3  1  0
  3  4  2  0
  4  5  1  0
  5  6  2  0
  6  7  1  0
  7  8  2  0
  7  9  1  0
  8 16  1  0
  9 10  2  0
 10 11  1  0
 10 15  1  0
 11 12  1  0
 11 13  1  0
 13 14  2  0
 14 15  1  0
 15 16  2  0
 16 17  1  0
  1 18  1  0
  2 19  1  0
  3 20  1  0
  5 21  1  0
 12 22  1  0
 12 23  1  0
 12 24  1  0
 14 25  1  0
 17 26  1  0
 17 27  1  0
M  END
>  <mol_id>  (1) 
2026-09-18-6fnk-s0-n100-r5-0001

>  <rmsd_to_ref>  (1) 
0.0

>  <pose_kind>  (1) 
native

$$$$
6fnk.A
     RDKit          3D

 27 29  0  0  0  0  0  0  0  0999 V2000
    3.3088   15.9575   41.0488 C   0  0  0  0  0  0  0  0  0  0  0  0
    3.8839   14.6983   40.8713 C   0  0  0  0  0  0  0  0  0  0  0  0
    3.6011   13.6937   41.7744 C   0  0  0  0  0  0  0  0  0  0  0  0
    2.7865   13.8652   42.8357 N   0  0  0  0  0  0  0  0  0  0  0  0
    2.2146   15.0868   43.0275 C   0  0  0  0  0  0  0  0  0  0  0  0
    2.4763   16.1217   42.1389 C   0  0  0  0  0  0  0  0  0  0  0  0
    1.8689   17.4506   42.3268 C   0  0  0  0  0  0  0  0  0  0  0  0
    2.1053   18.4713   41.4810 N   0  0  0  0  0  0  0  0  0  0  0  0
    1.0412   17.6698   43.3824 N   0  0  0  0  0  0  0  0  0  0  0  0
    0.4598   18.8517   43.6074 C   0  0  0  0  0  0  0  0  0  0  0  0
   -0.3854   19.3552   44.5450 N   0  0  0  0  0  0  0  0  0  0  0  0
   -0.9047   18.5891   45.6613 C   0  0  0  0  0  0  0  0  0  0  0  0
   -0.6209   20.6256   44.2384 N   0  0  0  0  0  0  0  0  0  0  0  0
    0.0420   20.9846   43.1243 C   0  0  0  0  0  0  0  0  0  0  0  0
    0.7320   19.8834   42.7058 C   0  0  0  0  0  0  0  0  0  0  0  0
    1.5663   19.6967   41.6245 C   0  0  0  0  0  0  0  0  0  0  0  0
    1.8714   20.7153   40.6830 N   0  0  0  0  0  0  0  0  0  0  0  0
    3.5234   16.7519   40.3475 H   0  0  0  0  0  0  0  0  0  0  0  0
    4.5438   14.5278   40.0276 H   0  0  0  0  0  0  0  0  0  0  0  0
    4.0425   12.7110   41.6465 H   0  0  0  0  0  0  0  0  0  0  0  0
    1.5575   15.2495   43.8714 H   0  0  0  0  0  0  0  0  0  0  0  0
   -1.6172   19.2510   46.2050 H   0  0  0  0  0  0  0  0  0  0  0  0
   -0.0976   18.2098   46.3238 H   0  0  0  0  0  0  0  0  0  0  0  0
   -1.5088   17.7202   45.3158 H   0  0  0  0  0  0  0  0  0  0  0  0
    0.0404   21.9653   42.6339 H   0  0  0  0  0  0  0  0  0  0  0  0
    1.9706   21.7043   41.0393 H   0  0  0  0  0  0  0  0  0  0  0  0
    2.0015   20.5288   39.6569 H   0  0  0  0  0  0  0  0  0  0  0  0
  1  2  2  0
  1  6  1  0
  2  3  1  0
  3  4  2  0
  4  5  1  0
  5  6  2  0
  6  7  1  0
  7  8  2  0
  7  9  1  0
  8 16  1  0
  9 10  2  0
 10 11  1  0
 10 15  1  0
 11 12  1  0
 11 13  1  0
 13 14  2  0
 14 15  1  0
 15 16  2  0
 16 17  1  0
  1 18  1  0
  2 19  1  0
  3 20  1  0
  5 21  1  0
 12 22  1  0
 12 23  1  0
 12 24  1  0
 14 25  1  0
 17 26  1  0
 17 27  1  0
M  END
>  <mol_id>  (2) 
2026-09-18-6fnk-s0-n100-r5-0002

>  <rmsd_to_ref>  (2) 
0.5000000000076816

>  <pose_kind>  (2) 
conformer

$$$$
6fnk.A
     RDKit          3D

 27 29  0  0  0  0  0  0  0  0999 V2000
    3.0834   16.0597   40.5930 C   0  0  0  0  0  0  0  0  0  0  0  0
    3.7989   14.9087   40.2628 C   0  0  0  0  0  0  0  0  0  0  0  0
    3.9233   13.8813   41.1867 C   0  0  0  0  0  0  0  0  0  0  0  0
    3.3284   13.9993   42.4458 N   0  0  0  0  0  0  0  0  0  0  0  0
    2.6106   15.1590   42.7757 C   0  0  0  0  0  0  0  0  0  0  0  0
    2.4866   16.1925   41.8491 C   0  0  0  0  0  0  0  0  0  0  0  0
    1.7726   17.3482   42.1816 C   0  0  0  0  0  0  0  0  0  0  0  0
    1.7861   18.4226   41.3807 N   0  0  0  0  0  0  0  0  0  0  0  0
    1.0582   17.3870   43.3109 N   0  0  0  0  0  0  0  0  0  0  0  0
    0.3659   18.4832   43.6685 C   0  0  0  0  0  0  0  0  0  0  0  0
   -0.3945   18.7575   44.7394 N   0  0  0  0  0  0  0  0  0  0  0  0
   -0.6726   17.8469   45.8540 C   0  0  0  0  0  0  0  0  0  0  0  0
   -0.8515   19.8988   44.6646 N   0  0  0  0  0  0  0  0  0  0  0  0
   -0.4301   20.4254   43.5030 C   0  0  0  0  0  0  0  0  0  0  0  0
    0.3639   19.5488   42.8737 C   0  0  0  0  0  0  0  0  0  0  0  0
    1.0805   19.5184   41.7166 C   0  0  0  0  0  0  0  0  0  0  0  0
    1.1037   20.5879   40.8846 N   0  0  0  0  0  0  0  0  0  0  0  0
    2.9882   16.8714   39.8567 H   0  0  0  0  0  0  0  0  0  0  0  0
    4.2642   14.8157   39.2704 H   0  0  0  0  0  0  0  0  0  0  0  0
    4.4897   12.9745   40.9284 H   0  0  0  0  0  0  0  0  0  0  0  0
    2.1448   15.2525   43.7678 H   0  0  0  0  0  0  0  0  0  0  0  0
   -0.4467   18.3517   46.8049 H   0  0  0  0  0  0  0  0  0  0  0  0
   -1.7337   17.5578   45.8353 H   0  0  0  0  0  0  0  0  0  0  0  0
   -0.0459   16.9480   45.7582 H   0  0  0  0  0  0  0  0  0  0  0  0
   -0.6962   21.4240   43.1260 H   0  0  0  0  0  0  0  0  0  0  0  0
    0.5710   21.4368   41.1221 H   0  0  0  0  0  0  0  0  0  0  0  0
    1.6541   20.5518   40.0147 H   0  0  0  0  0  0  0  0  0  0  0  0
  1  2  2  0
  1  6  1  0
  2  3  1  0
  3  4  2  0
  4  5  1  0
  5  6  2  0
  6  7  1  0
  7  8  2  0
  7  9  1  0
  8 16  1  0
  9 10  2  0
 10 11  1  0
 10 15  1  0
 11 12  1  0
 11 13  1  0
 13 14  2  0
 14 15  1  0
 15 16  2  0
 16 17  1  0
  1 18  1  0
  2 19  1  0
  3 20  1  0
  5 21  1  0
 12 22  1  0
 12 23  1  0
 12 24  1  0
 14 25  1  0
 17 26  1  0
 17 27  1  0
M  END
>  <mol_id>  (3) 
2026-09-18-6fnk-s0-n100-r5-0003

>  <rmsd_to_ref>  (3) 
0.5459183673481812

>  <pose_kind>  (3) 
rigid

$$$$
6fnk.A
     RDKit          3D

 27 29  0  0  0  0  0  0  0  0999 V2000
    2.6988   15.9855   40.4315 C   0  0  0  0  0  0  0  0  0  0  0  0
    2.9771   14.7589   39.8526 C   0  0  0  0  0  0  0  0  0  0  0  0
    2.4656   13.6283   40.4523 C   0  0  0  0  0  0  0  0  0  0  0  0
    1.7118   13.6865   41.5728 N   0  0  0  0  0  0  0  0  0  0  0  0
    1.4441   14.8659   42.1295 C   0  0  0  0  0  0  0  0  0  0  0  0
    1.9409   16.0410   41.5575 C   0  0  0  0  0  0  0  0  0  0  0  0
    1.6447   17.3322   42.1716 C   0  0  0  0  0  0  0  0  0  0  0  0
    2.1002   18.5000   41.6596 N   0  0  0  0  0  0  0  0  0  0  0  0
    0.8883   17.3740   43.2934 N   0  0  0  0  0  0  0  0  0  0  0  0
    0.5755   18.5263   43.9131 C   0  0  0  0  0  0  0  0  0  0  0  0
   -0.1380   18.8377   45.0086 N   0  0  0  0  0  0  0  0  0  0  0  0
   -0.8055   17.8483   45.8579 C   0  0  0  0  0  0  0  0  0  0  0  0
   -0.1315   20.1457   45.1784 N   0  0  0  0  0  0  0  0  0  0  0  0
    0.5878   20.7133   44.1947 C   0  0  0  0  0  0  0  0  0  0  0  0
    1.0489   19.7075   43.3765 C   0  0  0  0  0  0  0  0  0  0  0  0
    1.8224   19.6857   42.2321 C   0  0  0  0  0  0  0  0  0  0  0  0
    2.3190   20.8989   41.6656 N   0  0  0  0  0  0  0  0  0  0  0  0
    3.1211   16.8535   39.9272 H   0  0  0  0  0  0  0  0  0  0  0  0
    3.5788   14.6685   38.9523 H   0  0  0  0  0  0  0  0  0  0  0  0
    2.6678   12.6569   40.0209 H   0  0  0  0  0  0  0  0  0  0  0  0
    0.8306   14.9024   43.0397 H   0  0  0  0  0  0  0  0  0  0  0  0
   -1.2462   17.0278   45.2479 H   0  0  0  0  0  0  0  0  0  0  0  0
   -1.5615   18.3184   46.5032 H   0  0  0  0  0  0  0  0  0  0  0  0
   -0.0022   17.3755   46.4859 H   0  0  0  0  0  0  0  0  0  0  0  0
    0.7967   21.7704   44.0315 H   0  0  0  0  0  0  0  0  0  0  0  0
    2.3226   21.7730   42.2483 H   0  0  0  0  0  0  0  0  0  0  0  0
    2.6730   20.9107   40.6836 H   0  0  0  0  0  0  0  0  0  0  0  0
  1  2  2  0
  1  6  1  0
  2  3  1  0
  3  4  2  0
  4  5  1  0
  5  6  2  0
  6  7  1  0
  7  8  2  0
  7  9  1  0
  8 16  1  0
  9 10  2  0
 10 11  1  0
 10 15  1  0
 11 12  1  0
 11 13  1  0
 13 14  2  0
 14 15  1  0
 15 16  2  0
 16 17  1  0
  1 18  1  0
  2 19  1  0
  3 20  1  0
  5 21  1  0
 12 22  1  0
 12 23  1  0
 12 24  1  0
 14 25  1  0
 17 26  1  0
 17 27  1  0
M  END
>  <mol_id>  (4) 
2026-09-18-6fnk-s0-n100-r5-0004

>  <rmsd_to_ref>  (4) 
0.5918367346965044

>  <pose_kind>  (4) 
conformer

$$$$
6fnk.A
     RDKit          3D

 27 29  0  0  0  0  0  0  0  0999 V2000
    3.3572   15.9635   41.3009 C   0  0  0  0  0  0  0  0  0  0  0  0
    4.0450   14.7619   41.1302 C   0  0  0  0  0  0  0  0  0  0  0  0
    3.8539   13.7209   42.0270 C   0  0  0  0  0  0  0  0  0  0  0  0
    2.9696   13.8759   43.0981 N   0  0  0  0  0  0  0  0  0  0  0  0
    2.2803   15.0862   43.2680 C   0  0  0  0  0  0  0  0  0  0  0  0
    2.4729   16.1334   42.3689 C   0  0  0  0  0  0  0  0  0  0  0  0
    1.7862   17.3395   42.5422 C   0  0  0  0  0  0  0  0  0  0  0  0
    2.0826   18.4156   41.8004 N   0  0  0  0  0  0  0  0  0  0  0  0
    0.8137   17.4260   43.4553 N   0  0  0  0  0  0  0  0  0  0  0  0
    0.1372   18.5708   43.6568 C   0  0  0  0  0  0  0  0  0  0  0  0
   -0.8473   18.8963   44.5083 N   0  0  0  0  0  0  0  0  0  0  0  0
   -1.4661   18.0020   45.4913 C   0  0  0  0  0  0  0  0  0  0  0  0
   -1.1838   20.0708   44.3521 N   0  0  0  0  0  0  0  0  0  0  0  0
   -0.4434   20.5712   43.3493 C   0  0  0  0  0  0  0  0  0  0  0  0
    0.4165   19.6393   42.9168 C   0  0  0  0  0  0  0  0  0  0  0  0
    1.3987   19.5612   41.9774 C   0  0  0  0  0  0  0  0  0  0  0  0
    1.7120   20.6318   41.2080 N   0  0  0  0  0  0  0  0  0  0  0  0
    3.5127   16.7858   40.5869 H   0  0  0  0  0  0  0  0  0  0  0  0
    4.7385   14.6400   40.2852 H   0  0  0  0  0  0  0  0  0  0  0  0
    4.3980   12.7741   41.8951 H   0  0  0  0  0  0  0  0  0  0  0  0
    1.5864   15.2088   44.1127 H   0  0  0  0  0  0  0  0  0  0  0  0
   -1.4519   18.4799   46.4819 H   0  0  0  0  0  0  0  0  0  0  0  0
   -2.5064   17.7980   45.1976 H   0  0  0  0  0  0  0  0  0  0  0  0
   -0.9046   17.0570   45.5320 H   0  0  0  0  0  0  0  0  0  0  0  0
   -0.5299   21.5906   42.9450 H   0  0  0  0  0  0  0  0  0  0  0  0
    1.2014   21.5184   41.3267 H   0  0  0  0  0  0  0  0  0  0  0  0
    2.4607   20.5589   40.5044 H   0  0  0  0  0  0  0  0  0  0  0  0
  1  2  2  0
  1  6  1  0
  2  3  1  0
  3  4  2  0
  4  5  1  0
  5  6  2  0
  6  7  1  0
  7  8  2  0
  7  9  1  0
  8 16  1  0
  9 10  2  0
 10 11  1  0
 10 15  1  0
 11 12  1  0
 11 13  1  0
 13 14  2  0
 14 15  1  0
 15 16  2  0
 16 17  1  0
  1 18  1  0
  2 19  1  0
  3 20  1  0
  5 21  1  0
 12 22  1  0
 12 23  1  0
 12 24  1  0
 14 25  1  0
 17 26  1  0
 17 27  1  0
M  END
>  <mol_id>  (5) 
2026-09-18-6fnk-s0-n100-r5-0005

>  <rmsd_to_ref>  (5) 
0.6377551020450127

>  <pose_kind>  (5) 
rigid

$$$$
6fnk.A
     RDKit          3D

 27 29  0  0  0  0  0  0  0  0999 V2000
    2.8079   15.4262   41.1706 C   0  0  0  0  0  0  0  0  0  0  0  0
    3.1450   14.0731   41.0513 C   0  0  0  0  0  0  0  0  0  0  0  0
    2.6759   13.1586   42.0014 C   0  0  0  0  0  0  0  0  0  0  0  0
    1.9071   13.5913   43.0170 N   0  0  0  0  0  0  0  0  0  0  0  0
    1.5599   14.8863   43.1676 C   0  0  0  0  0  0  0  0  0  0  0  0
    2.0134   15.8197   42.2354 C   0  0  0  0  0  0  0  0  0  0  0  0
    1.6677   17.2178   42.3547 C   0  0  0  0  0  0  0  0  0  0  0  0
    2.0628   18.1661   41.5046 N   0  0  0  0  0  0  0  0  0  0  0  0
    0.8882   17.6160   43.3958 N   0  0  0  0  0  0  0  0  0  0  0  0
    0.5106   18.8887   43.5975 C   0  0  0  0  0  0  0  0  0  0  0  0
   -0.2524   19.4444   44.5700 N   0  0  0  0  0  0  0  0  0  0  0  0
   -0.8441   18.6787   45.6597 C   0  0  0  0  0  0  0  0  0  0  0  0
   -0.3210   20.7229   44.3133 N   0  0  0  0  0  0  0  0  0  0  0  0
    0.3782   21.0383   43.1908 C   0  0  0  0  0  0  0  0  0  0  0  0
    0.9160   19.8531   42.7278 C   0  0  0  0  0  0  0  0  0  0  0  0
    1.7089   19.4756   41.6609 C   0  0  0  0  0  0  0  0  0  0  0  0
    2.1293   20.4743   40.7593 N   0  0  0  0  0  0  0  0  0  0  0  0
    3.1846   16.1035   40.4237 H   0  0  0  0  0  0  0  0  0  0  0  0
    3.7702   13.7463   40.2183 H   0  0  0  0  0  0  0  0  0  0  0  0
    2.9659   12.1259   41.8619 H   0  0  0  0  0  0  0  0  0  0  0  0
    0.9334   15.1825   44.0111 H   0  0  0  0  0  0  0  0  0  0  0  0
   -1.4768   19.3066   46.2841 H   0  0  0  0  0  0  0  0  0  0  0  0
   -0.0739   18.1640   46.2715 H   0  0  0  0  0  0  0  0  0  0  0  0
   -1.4750   17.8408   45.2424 H   0  0  0  0  0  0  0  0  0  0  0  0
    0.5080   22.0104   42.7265 H   0  0  0  0  0  0  0  0  0  0  0  0
    2.0596   20.4076   39.7183 H   0  0  0  0  0  0  0  0  0  0  0  0
    2.5467   21.3596   41.1394 H   0  0  0  0  0  0  0  0  0  0  0  0
  1  2  2  0
  1  6  1  0
  2  3  1  0
  3  4  2  0
  4  5  1  0
  5  6  2  0
  6  7  1  0
  7  8  2  0
  7  9  1  0
  8 16  1  0
  9 10  2  0
 10 11  1  0
 10 15  1  0
 11 12  1  0
 11 13  1  0
 13 14  2  0
 14 15  1  0
 15 16  2  0
 16 17  1  0
  1 18  1  0
  2 19  1  0
  3 20  1  0
  5 21  1  0
 12 22  1  0
 12 23  1  0
 12 24  1  0
 14 25  1  0
 17 26  1  0
 17 27  1  0
M  END
>  <mol_id>  (6) 
2026-09-18-6fnk-s0-n100-r5-0006

>  <rmsd_to_ref>  (6) 
0.6836734693892007

>  <pose_kind>  (6) 
conformer

$$$$
6fnk.A
     RDKit          3D

 27 29  0  0  0  0  0  0  0  0999 V2000
    2.5079   15.5755   40.6549 C   0  0  0  0  0  0  0  0  0  0  0  0
    2.6866   14.2383   40.3001 C   0  0  0  0  0  0  0  0  0  0  0  0
    2.1526   13.2336   41.0937 C   0  0  0  0  0  0  0  0  0  0  0  0
    1.4328   13.5626   42.2457 N   0  0  0  0  0  0  0  0  0  0  0  0
    1.2560   14.9084   42.6009 C   0  0  0  0  0  0  0  0  0  0  0  0
    1.7937   15.9186   41.8054 C   0  0  0  0  0  0  0  0  0  0  0  0
    1.6178   17.2591   42.1633 C   0  0  0  0  0  0  0  0  0  0  0  0
    2.2684   18.2371   41.5181 N   0  0  0  0  0  0  0  0  0  0  0  0
    0.7847   17.5781   43.1589 N   0  0  0  0  0  0  0  0  0  0  0  0
    0.5962   18.8549   43.5372 C   0  0  0  0  0  0  0  0  0  0  0  0
   -0.1606   19.4061   44.4983 N   0  0  0  0  0  0  0  0  0  0  0  0
   -1.0323   18.6829   45.4289 C   0  0  0  0  0  0  0  0  0  0  0  0
   -0.0367   20.6316   44.4969 N   0  0  0  0  0  0  0  0  0  0  0  0
    0.7987   20.9502   43.4945 C   0  0  0  0  0  0  0  0  0  0  0  0
    1.2282   19.8319   42.8945 C   0  0  0  0  0  0  0  0  0  0  0  0
    2.0725   19.5205   41.8730 C   0  0  0  0  0  0  0  0  0  0  0  0
    2.7356   20.4909   41.1984 N   0  0  0  0  0  0  0  0  0  0  0  0
    2.9337   16.3681   40.0221 H   0  0  0  0  0  0  0  0  0  0  0  0
    3.2507   13.9807   39.3915 H   0  0  0  0  0  0  0  0  0  0  0  0
    2.2955   12.1788   40.8165 H   0  0  0  0  0  0  0  0  0  0  0  0
    0.6918   15.1668   43.5091 H   0  0  0  0  0  0  0  0  0  0  0  0
   -0.8017   18.9886   46.4601 H   0  0  0  0  0  0  0  0  0  0  0  0
   -2.0833   18.9164   45.2035 H   0  0  0  0  0  0  0  0  0  0  0  0
   -0.8659   17.6008   45.3214 H   0  0  0  0  0  0  0  0  0  0  0  0
    1.0864   21.9730   43.2098 H   0  0  0  0  0  0  0  0  0  0  0  0
    2.6006   21.4796   41.4534 H   0  0  0  0  0  0  0  0  0  0  0  0
    3.3747   20.2397   40.4307 H   0  0  0  0  0  0  0  0  0  0  0  0
  1  2  2  0
  1  6  1  0
  2  3  1  0
  3  4  2  0
  4  5  1  0
  5  6  2  0
  6  7  1  0
  7  8  2  0
  7  9  1  0
  8 16  1  0
  9 10  2  0
 10 11  1  0
 10 15  1  0
 11 12  1  0
 11 13  1  0
 13 14  2  0
 14 15  1  0
 15 16  2  0
 16 17  1  0
  1 18  1  0
  2 19  1  0
  3 20  1  0
  5 21  1  0
 12 22  1  0
 12 23  1  0
 12 24  1  0
 14 25  1  0
 17 26  1  0
 17 27  1  0
M  END
>  <mol_id>  (7) 
2026-09-18-6fnk-s0-n100-r5-0007

>  <rmsd_to_ref>  (7) 
0.7295918367415618

>  <pose_kind>  (7) 
rigid

$$$$
6fnk.A
     RDKit          3D

 27 29  0  0  0  0  0  0  0  0999 V2000
    3.7128   16.3330   41.1309 C   0  0  0  0  0  0  0  0  0  0  0  0
    4.5020   15.2212   40.8163 C   0  0  0  0  0  0  0  0  0  0  0  0
    4.2788   14.0068   41.4619 C   0  0  0  0  0  0  0  0  0  0  0  0
    3.2934   13.9036   42.3976 N   0  0  0  0  0  0  0  0  0  0  0  0
    2.5149   14.9623   42.7217 C   0  0  0  0  0  0  0  0  0  0  0  0
    2.7185   16.1916   42.0886 C   0  0  0  0  0  0  0  0  0  0  0  0
    1.8883   17.3431   42.4261 C   0  0  0  0  0  0  0  0  0  0  0  0
    2.0846   18.5327   41.8140 N   0  0  0  0  0  0  0  0  0  0  0  0
    0.9210   17.2005   43.3597 N   0  0  0  0  0  0  0  0  0  0  0  0
    0.1442   18.2226   43.6956 C   0  0  0  0  0  0  0  0  0  0  0  0
   -0.8667   18.3278   44.5787 N   0  0  0  0  0  0  0  0  0  0  0  0
   -1.3967   17.2879   45.4405 C   0  0  0  0  0  0  0  0  0  0  0  0
   -1.2900   19.5579   44.5166 N   0  0  0  0  0  0  0  0  0  0  0  0
   -0.5997   20.2995   43.6175 C   0  0  0  0  0  0  0  0  0  0  0  0
    0.3375   19.4394   43.0764 C   0  0  0  0  0  0  0  0  0  0  0  0
    1.3161   19.6020   42.1252 C   0  0  0  0  0  0  0  0  0  0  0  0
    1.4985   20.8656   41.4989 N   0  0  0  0  0  0  0  0  0  0  0  0
    3.9033   17.2690   40.6164 H   0  0  0  0  0  0  0  0  0  0  0  0
    5.2789   15.3339   40.0671 H   0  0  0  0  0  0  0  0  0  0  0  0
    4.9027   13.1367   41.2099 H   0  0  0  0  0  0  0  0  0  0  0  0
    1.7410   14.8395   43.4719 H   0  0  0  0  0  0  0  0  0  0  0  0
   -2.4670   17.0769   45.2803 H   0  0  0  0  0  0  0  0  0  0  0  0
   -0.8771   16.3213   45.2485 H   0  0  0  0  0  0  0  0  0  0  0  0
   -1.1964   17.5039   46.5149 H   0  0  0  0  0  0  0  0  0  0  0  0
   -0.7713   21.3460   43.3929 H   0  0  0  0  0  0  0  0  0  0  0  0
    1.0241   21.6946   41.8670 H   0  0  0  0  0  0  0  0  0  0  0  0
    2.1236   20.9443   40.6552 H   0  0  0  0  0  0  0  0  0  0  0  0
  1  2  2  0
  1  6  1  0
  2  3  1  0
  3  4  2  0
  4  5  1  0
  5  6  2  0
  6  7  1  0
  7  8  2  0
  7  9  1  0
  8 16  1  0
  9 10  2  0
 10 11  1  0
 10 15  1  0
 11 12  1  0
 11 13  1  0
 13 14  2  0
 14 15  1  0
 15 16  2  0
 16 17  1  0
  1 18  1  0
  2 19  1  0
  3 20  1  0
  5 21  1  0
 12 22  1  0
 12 23  1  0
 12 24  1  0
 14 25  1  0
 17 26  1  0
 17 27  1  0
M  END
>  <mol_id>  (8) 
2026-09-18-6fnk-s0-n100-r5-0008

>  <rmsd_to_ref>  (8) 
0.7755102040846484

>  <pose_kind>  (8) 
conformer

$$$$
6fnk.A
     RDKit          3D

 27 29  0  0  0  0  0  0  0  0999 V2000
    2.6383   15.5996   41.2288 C   0  0  0  0  0  0  0  0  0  0  0  0
    3.1468   14.3009   41.1997 C   0  0  0  0  0  0  0  0  0  0  0  0
    2.9783   13.4663   42.2948 C   0  0  0  0  0  0  0  0  0  0  0  0
    2.2960   13.9263   43.4245 N   0  0  0  0  0  0  0  0  0  0  0  0
    1.7870   15.2336   43.4514 C   0  0  0  0  0  0  0  0  0  0  0  0
    1.9573   16.0736   42.3526 C   0  0  0  0  0  0  0  0  0  0  0  0
    1.4509   17.3770   42.3833 C   0  0  0  0  0  0  0  0  0  0  0  0
    1.7509   18.2573   41.4183 N   0  0  0  0  0  0  0  0  0  0  0  0
    0.6495   17.7559   43.3839 N   0  0  0  0  0  0  0  0  0  0  0  0
    0.1504   19.0029   43.4522 C   0  0  0  0  0  0  0  0  0  0  0  0
   -0.6446   19.6059   44.3492 N   0  0  0  0  0  0  0  0  0  0  0  0
   -1.2022   18.9901   45.5570 C   0  0  0  0  0  0  0  0  0  0  0  0
   -0.8627   20.7723   44.0190 N   0  0  0  0  0  0  0  0  0  0  0  0
   -0.2347   20.9835   42.8506 C   0  0  0  0  0  0  0  0  0  0  0  0
    0.4330   19.8785   42.4927 C   0  0  0  0  0  0  0  0  0  0  0  0
    1.2409   19.5019   41.4638 C   0  0  0  0  0  0  0  0  0  0  0  0
    1.5525   20.3697   40.4707 N   0  0  0  0  0  0  0  0  0  0  0  0
    2.7750   16.2572   40.3577 H   0  0  0  0  0  0  0  0  0  0  0  0
    3.6810   13.9389   40.3089 H   0  0  0  0  0  0  0  0  0  0  0  0
    3.3814   12.4430   42.2741 H   0  0  0  0  0  0  0  0  0  0  0  0
    1.2524   15.5962   44.3418 H   0  0  0  0  0  0  0  0  0  0  0  0
   -0.9782   19.6231   46.4283 H   0  0  0  0  0  0  0  0  0  0  0  0
   -2.2921   18.8894   45.4476 H   0  0  0  0  0  0  0  0  0  0  0  0
   -0.7548   17.9956   45.7016 H   0  0  0  0  0  0  0  0  0  0  0  0
   -0.2642   21.9207   42.2753 H   0  0  0  0  0  0  0  0  0  0  0  0
    1.1732   21.3272   40.4856 H   0  0  0  0  0  0  0  0  0  0  0  0
    2.1687   20.0719   39.7010 H   0  0  0  0  0  0  0  0  0  0  0  0
  1  2  2  0
  1  6  1  0
  2  3  1  0
  3  4  2  0
  4  5  1  0
  5  6  2  0
  6  7  1  0
  7  8  2  0
  7  9  1  0
  8 16  1  0
  9 10  2  0
 10 11  1  0
 10 15  1  0
 11 12  1  0
 11 13  1  0
 13 14  2  0
 14 15  1  0
 15 16  2  0
 16 17  1  0
  1 18  1  0
  2 19  1  0
  3 20  1  0
  5 21  1  0
 12 22  1  0
 12 23  1  0
 12 24  1  0
 14 25  1  0
 17 26  1  0
 17 27  1  0
M  END
>  <mol_id>  (9) 
2026-09-18-6fnk-s0-n100-r5-0009

>  <rmsd_to_ref>  (9) 
0.8214285714341862

>  <pose_kind>  (9) 
rigid

$$$$
6fnk.A
     RDKit          3D

 27 29  0  0  0  0  0  0  0  0999 V2000
    2.3763   15.4056   41.2089 C   0  0  0  0  0  0  0  0  0  0  0  0
    2.5853   14.0343   41.0256 C   0  0  0  0  0  0  0  0  0  0  0  0
    2.1794   13.1332   42.0078 C   0  0  0  0  0  0  0  0  0  0  0  0
    1.5802   13.5881   43.1441 N   0  0  0  0  0  0  0  0  0  0  0  0
    1.3654   14.9088   43.3479 C   0  0  0  0  0  0  0  0  0  0  0  0
    1.7632   15.8332   42.3780 C   0  0  0  0  0  0  0  0  0  0  0  0
    1.5393   17.2607   42.5818 C   0  0  0  0  0  0  0  0  0  0  0  0
    1.9239   18.1556   41.6440 N   0  0  0  0  0  0  0  0  0  0  0  0
    0.9417   17.6724   43.7224 N   0  0  0  0  0  0  0  0  0  0  0  0
    0.7196   18.9613   43.9467 C   0  0  0  0  0  0  0  0  0  0  0  0
    0.1527   19.6059   44.9839 N   0  0  0  0  0  0  0  0  0  0  0  0
   -0.3929   19.0207   46.1943 C   0  0  0  0  0  0  0  0  0  0  0  0
    0.1844   20.8758   44.6965 N   0  0  0  0  0  0  0  0  0  0  0  0
    0.7560   21.1214   43.4933 C   0  0  0  0  0  0  0  0  0  0  0  0
    1.1086   19.8808   42.9956 C   0  0  0  0  0  0  0  0  0  0  0  0
    1.7173   19.4797   41.8306 C   0  0  0  0  0  0  0  0  0  0  0  0
    2.1106   20.4448   40.8629 N   0  0  0  0  0  0  0  0  0  0  0  0
    2.7000   16.0899   40.4317 H   0  0  0  0  0  0  0  0  0  0  0  0
    3.0649   13.7021   40.1106 H   0  0  0  0  0  0  0  0  0  0  0  0
    2.3467   12.0565   41.8575 H   0  0  0  0  0  0  0  0  0  0  0  0
    0.8853   15.2309   44.2658 H   0  0  0  0  0  0  0  0  0  0  0  0
   -1.4601   19.2444   46.3572 H   0  0  0  0  0  0  0  0  0  0  0  0
   -0.3314   17.9091   46.1508 H   0  0  0  0  0  0  0  0  0  0  0  0
    0.2072   19.2986   47.0908 H   0  0  0  0  0  0  0  0  0  0  0  0
    0.8931   22.0980   43.0434 H   0  0  0  0  0  0  0  0  0  0  0  0
    2.0985   21.4412   41.0969 H   0  0  0  0  0  0  0  0  0  0  0  0
    2.4140   20.1295   39.9051 H   0  0  0  0  0  0  0  0  0  0  0  0
  1  2  2  0
  1  6  1  0
  2  3  1  0
  3  4  2  0
  4  5  1  0
  5  6  2  0
  6  7  1  0
  7  8  2  0
  7  9  1  0
  8 16  1  0
  9 10  2  0
 10 11  1  0
 10 15  1  0
 11 12  1  0
 11 13  1  0
 13 14  2  0
 14 15  1  0
 15 16  2  0
 16 17  1  0
  1 18  1  0
  2 19  1  0
  3 20  1  0
  5 21  1  0
 12 22  1  0
 12 23  1  0
 12 24  1  0
 14 25  1  0
 17 26  1  0
 17 27  1  0
M  END
>  <mol_id>  (10) 
2026-09-18-6fnk-s0-n100-r5-0010

>  <rmsd_to_ref>  (10) 
0.8673469387780328

>  <pose_kind>  (10) 
conformer

$$$$
6fnk.A
     RDKit          3D

 27 29  0  0  0  0  0  0  0  0999 V2000
    2.4343   16.6638   40.0040 C   0  0  0  0  0  0  0  0  0  0  0  0
    2.8497   15.5120   39.3355 C   0  0  0  0  0  0  0  0  0  0  0  0
    3.0583   14.3374   40.0434 C   0  0  0  0  0  0  0  0  0  0  0  0
    2.8485   14.3084   41.4249 N   0  0  0  0  0  0  0  0  0  0  0  0
    2.4322   15.4689   42.0947 C   0  0  0  0  0  0  0  0  0  0  0  0
    2.2241   16.6500   41.3849 C   0  0  0  0  0  0  0  0  0  0  0  0
    1.8114   17.8058   42.0558 C   0  0  0  0  0  0  0  0  0  0  0  0
    1.7740   18.9908   41.4308 N   0  0  0  0  0  0  0  0  0  0  0  0
    1.4409   17.7342   43.3382 N   0  0  0  0  0  0  0  0  0  0  0  0
    1.0465   18.8251   44.0189 C   0  0  0  0  0  0  0  0  0  0  0  0
    0.6528   18.9991   45.2896 N   0  0  0  0  0  0  0  0  0  0  0  0
    0.5478   17.9515   46.3097 C   0  0  0  0  0  0  0  0  0  0  0  0
    0.3730   20.1804   45.4980 N   0  0  0  0  0  0  0  0  0  0  0  0
    0.5429   20.8437   44.3425 C   0  0  0  0  0  0  0  0  0  0  0  0
    0.9948   20.0021   43.4031 C   0  0  0  0  0  0  0  0  0  0  0  0
    1.3611   20.0863   42.0946 C   0  0  0  0  0  0  0  0  0  0  0  0
    1.3239   21.2705   41.4368 N   0  0  0  0  0  0  0  0  0  0  0  0
    2.2706   17.5925   39.4377 H   0  0  0  0  0  0  0  0  0  0  0  0
    3.0116   15.5352   38.2477 H   0  0  0  0  0  0  0  0  0  0  0  0
    3.3887   13.4293   39.5178 H   0  0  0  0  0  0  0  0  0  0  0  0
    2.2697   15.4464   43.1824 H   0  0  0  0  0  0  0  0  0  0  0  0
    1.0951   18.2621   47.2119 H   0  0  0  0  0  0  0  0  0  0  0  0
   -0.5108   17.7889   46.5607 H   0  0  0  0  0  0  0  0  0  0  0  0
    0.9803   17.0174   45.9218 H   0  0  0  0  0  0  0  0  0  0  0  0
    0.3418   21.9145   44.1906 H   0  0  0  0  0  0  0  0  0  0  0  0
    1.0112   22.1215   41.9256 H   0  0  0  0  0  0  0  0  0  0  0  0
    1.6084   21.3196   40.4481 H   0  0  0  0  0  0  0  0  0  0  0  0
  1  2  2  0
  1  6  1  0
  2  3  1  0
  3  4  2  0
  4  5  1  0
  5  6  2  0
  6  7  1  0
  7  8  2  0
  7  9  1  0
  8 16  1  0
  9 10  2  0
 10 11  1  0
 10 15  1  0
 11 12  1  0
 11 13  1  0
 13 14  2  0
 14 15  1  0
 15 16  2  0
 16 17  1  0
  1 18  1  0
  2 19  1  0
  3 20  1  0
  5 21  1  0
 12 22  1  0
 12 23  1  0
 12 24  1  0
 14 25  1  0
 17 26  1  0
 17 27  1  0
M  END
>  <mol_id>  (11) 
2026-09-18-6fnk-s0-n100-r5-0011

>  <rmsd_to_ref>  (11) 
0.9132653061263744

>  <pose_kind>  (11) 
rigid

$$$$
6fnk.A
     RDKit          3D

 27 29  0  0  0  0  0  0  0  0999 V2000
    2.0996   15.9254   40.7459 C   0  0  0  0  0  0  0  0  0  0  0  0
    2.2670   14.6376   40.2601 C   0  0  0  0  0  0  0  0  0  0  0  0
    2.1118   13.5595   41.1286 C   0  0  0  0  0  0  0  0  0  0  0  0
    1.8006   13.7714   42.4331 N   0  0  0  0  0  0  0  0  0  0  0  0
    1.6347   15.0268   42.9179 C   0  0  0  0  0  0  0  0  0  0  0  0
    1.7836   16.1220   42.0738 C   0  0  0  0  0  0  0  0  0  0  0  0
    1.6106   17.4791   42.5705 C   0  0  0  0  0  0  0  0  0  0  0  0
    1.7495   18.5606   41.7717 N   0  0  0  0  0  0  0  0  0  0  0  0
    1.3019   17.6607   43.8694 N   0  0  0  0  0  0  0  0  0  0  0  0
    1.1182   18.8637   44.4407 C   0  0  0  0  0  0  0  0  0  0  0  0
    0.8116   19.2723   45.6890 N   0  0  0  0  0  0  0  0  0  0  0  0
    0.5972   18.3582   46.7826 C   0  0  0  0  0  0  0  0  0  0  0  0
    0.7541   20.6131   45.6902 N   0  0  0  0  0  0  0  0  0  0  0  0
    1.0236   21.0550   44.4455 C   0  0  0  0  0  0  0  0  0  0  0  0
    1.2611   19.9724   43.6196 C   0  0  0  0  0  0  0  0  0  0  0  0
    1.5782   19.8039   42.2820 C   0  0  0  0  0  0  0  0  0  0  0  0
    1.7223   20.9603   41.4470 N   0  0  0  0  0  0  0  0  0  0  0  0
    2.2300   16.7289   40.0350 H   0  0  0  0  0  0  0  0  0  0  0  0
    2.5143   14.4373   39.2298 H   0  0  0  0  0  0  0  0  0  0  0  0
    2.2419   12.5534   40.7523 H   0  0  0  0  0  0  0  0  0  0  0  0
    1.3830   15.1598   43.9798 H   0  0  0  0  0  0  0  0  0  0  0  0
    0.0642   18.8578   47.6133 H   0  0  0  0  0  0  0  0  0  0  0  0
    0.0325   17.4491   46.4623 H   0  0  0  0  0  0  0  0  0  0  0  0
    1.5778   18.0052   47.2030 H   0  0  0  0  0  0  0  0  0  0  0  0
    1.0615   22.0732   44.0943 H   0  0  0  0  0  0  0  0  0  0  0  0
    1.7192   20.8167   40.4161 H   0  0  0  0  0  0  0  0  0  0  0  0
    1.8240   21.8932   41.8837 H   0  0  0  0  0  0  0  0  0  0  0  0
  1  2  2  0
  1  6  1  0
  2  3  1  0
  3  4  2  0
  4  5  1  0
  5  6  2  0
  6  7  1  0
  7  8  2  0
  7  9  1  0
  8 16  1  0
  9 10  2  0
 10 11  1  0
 10 15  1  0
 11 12  1  0
 11 13  1  0
 13 14  2  0
 14 15  1  0
 15 16  2  0
 16 17  1  0
  1 18  1  0
  2 19  1  0
  3 20  1  0
  5 21  1  0
 12 22  1  0
 12 23  1  0
 12 24  1  0
 14 25  1  0
 17 26  1  0
 17 27  1  0
M  END
>  <mol_id>  (12) 
2026-09-18-6fnk-s0-n100-r5-0012

>  <rmsd_to_ref>  (12) 
0.9591836734695056

>  <pose_kind>  (12) 
conformer

$$$$
6fnk.A
     RDKit          3D

 27 29  0  0  0  0  0  0  0  0999 V2000
    3.4469   15.7449   41.6698 C   0  0  0  0  0  0  0  0  0  0  0  0
    4.1930   14.5665   41.6938 C   0  0  0  0  0  0  0  0  0  0  0  0
    4.0798   13.6967   42.7685 C   0  0  0  0  0  0  0  0  0  0  0  0
    3.2157   14.0003   43.8241 N   0  0  0  0  0  0  0  0  0  0  0  0
    2.4676   15.1872   43.7979 C   0  0  0  0  0  0  0  0  0  0  0  0
    2.5819   16.0627   42.7197 C   0  0  0  0  0  0  0  0  0  0  0  0
    1.8368   17.2461   42.6975 C   0  0  0  0  0  0  0  0  0  0  0  0
    2.0570   18.1833   41.7652 N   0  0  0  0  0  0  0  0  0  0  0  0
    0.8842   17.4497   43.6130 N   0  0  0  0  0  0  0  0  0  0  0  0
    0.1532   18.5785   43.6291 C   0  0  0  0  0  0  0  0  0  0  0  0
   -0.8255   19.0051   44.4417 N   0  0  0  0  0  0  0  0  0  0  0  0
   -1.3713   18.2747   45.5896 C   0  0  0  0  0  0  0  0  0  0  0  0
   -1.2277   20.1147   44.0892 N   0  0  0  0  0  0  0  0  0  0  0  0
   -0.5402   20.4605   42.9883 C   0  0  0  0  0  0  0  0  0  0  0  0
    0.3568   19.5078   42.7006 C   0  0  0  0  0  0  0  0  0  0  0  0
    1.3180   19.3082   41.7574 C   0  0  0  0  0  0  0  0  0  0  0  0
    1.5547   20.2359   40.7984 N   0  0  0  0  0  0  0  0  0  0  0  0
    3.5407   16.4311   40.8152 H   0  0  0  0  0  0  0  0  0  0  0  0
    4.8706   14.3271   40.8610 H   0  0  0  0  0  0  0  0  0  0  0  0
    4.6699   12.7686   42.7899 H   0  0  0  0  0  0  0  0  0  0  0  0
    1.7896   15.4271   44.6302 H   0  0  0  0  0  0  0  0  0  0  0  0
   -1.3576   18.9239   46.4775 H   0  0  0  0  0  0  0  0  0  0  0  0
   -2.4063   17.9717   45.3729 H   0  0  0  0  0  0  0  0  0  0  0  0
   -0.7595   17.3805   45.7797 H   0  0  0  0  0  0  0  0  0  0  0  0
   -0.6907   21.3847   42.4111 H   0  0  0  0  0  0  0  0  0  0  0  0
    1.0010   21.1040   40.7737 H   0  0  0  0  0  0  0  0  0  0  0  0
    2.2884   20.0729   40.0941 H   0  0  0  0  0  0  0  0  0  0  0  0
  1  2  2  0
  1  6  1  0
  2  3  1  0
  3  4  2  0
  4  5  1  0
  5  6  2  0
  6  7  1  0
  7  8  2  0
  7  9  1  0
  8 16  1  0
  9 10  2  0
 10 11  1  0
 10 15  1  0
 11 12  1  0
 11 13  1  0
 13 14  2  0
 14 15  1  0
 15 16  2  0
 16 17  1  0
  1 18  1  0
  2 19  1  0
  3 20  1  0
  5 21  1  0
 12 22  1  0
 12 23  1  0
 12 24  1  0
 14 25  1  0
 17 26  1  0
 17 27  1  0
M  END
>  <mol_id>  (13) 
2026-09-18-6fnk-s0-n100-r5-0013

>  <rmsd_to_ref>  (13) 
1.0051020408180078

>  <pose_kind>  (13) 
rigid

$$$$
6fnk.A
     RDKit          3D

 27 29  0  0  0  0  0  0  0  0999 V2000
    3.6057   15.8644   41.3751 C   0  0  0  0  0  0  0  0  0  0  0  0
    4.3653   14.7076   41.3787 C   0  0  0  0  0  0  0  0  0  0  0  0
    4.0200   13.7147   42.2865 C   0  0  0  0  0  0  0  0  0  0  0  0
    2.9787   13.9146   43.1115 N   0  0  0  0  0  0  0  0  0  0  0  0
    2.2433   15.0347   43.1079 C   0  0  0  0  0  0  0  0  0  0  0  0
    2.5399   16.0628   42.2232 C   0  0  0  0  0  0  0  0  0  0  0  0
    1.7553   17.2927   42.1983 C   0  0  0  0  0  0  0  0  0  0  0  0
    2.0339   18.3047   41.3395 N   0  0  0  0  0  0  0  0  0  0  0  0
    0.7276   17.4126   43.0589 N   0  0  0  0  0  0  0  0  0  0  0  0
   -0.0493   18.5171   43.1022 C   0  0  0  0  0  0  0  0  0  0  0  0
   -1.1101   18.8959   43.8377 N   0  0  0  0  0  0  0  0  0  0  0  0
   -1.7497   18.1065   44.8906 C   0  0  0  0  0  0  0  0  0  0  0  0
   -1.5157   20.1064   43.4807 N   0  0  0  0  0  0  0  0  0  0  0  0
   -0.7198   20.5713   42.4803 C   0  0  0  0  0  0  0  0  0  0  0  0
    0.2060   19.5704   42.2398 C   0  0  0  0  0  0  0  0  0  0  0  0
    1.2643   19.4308   41.3633 C   0  0  0  0  0  0  0  0  0  0  0  0
    1.5816   20.4718   40.4521 N   0  0  0  0  0  0  0  0  0  0  0  0
    3.8840   16.6233   40.6682 H   0  0  0  0  0  0  0  0  0  0  0  0
    5.1974   14.5695   40.7066 H   0  0  0  0  0  0  0  0  0  0  0  0
    4.5930   12.8132   42.3066 H   0  0  0  0  0  0  0  0  0  0  0  0
    1.4044   15.1251   43.8147 H   0  0  0  0  0  0  0  0  0  0  0  0
   -2.7218   17.6996   44.5470 H   0  0  0  0  0  0  0  0  0  0  0  0
   -1.9221   18.7275   45.7867 H   0  0  0  0  0  0  0  0  0  0  0  0
   -1.1012   17.2442   45.1361 H   0  0  0  0  0  0  0  0  0  0  0  0
   -0.7790   21.5224   41.9644 H   0  0  0  0  0  0  0  0  0  0  0  0
    2.0345   21.3713   40.7368 H   0  0  0  0  0  0  0  0  0  0  0  0
    1.3384   20.3035   39.4489 H   0  0  0  0  0  0  0  0  0  0  0  0
  1  2  2  0
  1  6  1  0
  2  3  1  0
  3  4  2  0
  4  5  1  0
  5  6  2  0
  6  7  1  0
  7  8  2  0
  7  9  1  0
  8 16  1  0
  9 10  2  0
 10 11  1  0
 10 15  1  0
 11 12  1  0
 11 13  1  0
 13 14  2  0
 14 15  1  0
 15 16  2  0
 16 17  1  0
  1 18  1  0
  2 19  1  0
  3 20  1  0
  5 21  1  0
 12 22  1  0
 12 23  1  0
 12 24  1  0
 14 25  1  0
 17 26  1  0
 17 27  1  0
M  END
>  <mol_id>  (14) 
2026-09-18-6fnk-s0-n100-r5-0014

>  <rmsd_to_ref>  (14) 
1.0510204081677763

>  <pose_kind>  (14) 
conformer

$$$$
6fnk.A
     RDKit          3D

 27 29  0  0  0  0  0  0  0  0999 V2000
    3.0289   15.2976   40.8696 C   0  0  0  0  0  0  0  0  0  0  0  0
    3.1317   13.9876   40.4014 C   0  0  0  0  0  0  0  0  0  0  0  0
    2.2696   13.0115   40.8793 C   0  0  0  0  0  0  0  0  0  0  0  0
    1.2966   13.3426   41.8264 N   0  0  0  0  0  0  0  0  0  0  0  0
    1.1966   14.6609   42.2966 C   0  0  0  0  0  0  0  0  0  0  0  0
    2.0634   15.6419   41.8187 C   0  0  0  0  0  0  0  0  0  0  0  0
    1.9629   16.9545   42.2910 C   0  0  0  0  0  0  0  0  0  0  0  0
    2.8896   17.8722   41.9826 N   0  0  0  0  0  0  0  0  0  0  0  0
    0.9259   17.3083   43.0569 N   0  0  0  0  0  0  0  0  0  0  0  0
    0.7995   18.5583   43.5369 C   0  0  0  0  0  0  0  0  0  0  0  0
   -0.1256   19.1316   44.3215 N   0  0  0  0  0  0  0  0  0  0  0  0
   -1.3121   18.4730   44.8761 C   0  0  0  0  0  0  0  0  0  0  0  0
    0.1472   20.3167   44.5172 N   0  0  0  0  0  0  0  0  0  0  0  0
    1.2688   20.5898   43.8305 C   0  0  0  0  0  0  0  0  0  0  0  0
    1.7078   19.4779   43.2256 C   0  0  0  0  0  0  0  0  0  0  0  0
    2.7637   19.1321   42.4391 C   0  0  0  0  0  0  0  0  0  0  0  0
    3.7098   20.0430   42.1051 N   0  0  0  0  0  0  0  0  0  0  0  0
    3.7153   16.0676   40.4874 H   0  0  0  0  0  0  0  0  0  0  0  0
    3.8959   13.7287   39.6538 H   0  0  0  0  0  0  0  0  0  0  0  0
    2.3517   11.9775   40.5131 H   0  0  0  0  0  0  0  0  0  0  0  0
    0.4325   14.9205   43.0440 H   0  0  0  0  0  0  0  0  0  0  0  0
   -1.3510   18.6417   45.9624 H   0  0  0  0  0  0  0  0  0  0  0  0
   -2.2157   18.8903   44.4076 H   0  0  0  0  0  0  0  0  0  0  0  0
   -1.2600   17.3930   44.6743 H   0  0  0  0  0  0  0  0  0  0  0  0
    1.7530   21.5759   43.7734 H   0  0  0  0  0  0  0  0  0  0  0  0
    3.6332   21.0128   42.4434 H   0  0  0  0  0  0  0  0  0  0  0  0
    4.5056   19.7655   41.5128 H   0  0  0  0  0  0  0  0  0  0  0  0
  1  2  2  0
  1  6  1  0
  2  3  1  0
  3  4  2  0
  4  5  1  0
  5  6  2  0
  6  7  1  0
  7  8  2  0
  7  9  1  0
  8 16  1  0
  9 10  2  0
 10 11  1  0
 10 15  1  0
 11 12  1  0
 11 13  1  0
 13 14  2  0
 14 15  1  0
 15 16  2  0
 16 17  1  0
  1 18  1  0
  2 19  1  0
  3 20  1  0
  5 21  1  0
 12 22  1  0
 12 23  1  0
 12 24  1  0
 14 25  1  0
 17 26  1  0
 17 27  1  0
M  END
>  <mol_id>  (15) 
2026-09-18-6fnk-s0-n100-r5-0015

>  <rmsd_to_ref>  (15) 
1.0969387755145708

>  <pose_kind>  (15) 
rigid

$$$$
6fnk.A
     RDKit          3D

 27 29  0  0  0  0  0  0  0  0999 V2000
    4.0229   15.8400   41.5420 C   0  0  0  0  0  0  0  0  0  0  0  0
    4.5746   14.5628   41.4397 C   0  0  0  0  0  0  0  0  0  0  0  0
    3.8578   13.4596   41.9033 C   0  0  0  0  0  0  0  0  0  0  0  0
    2.6369   13.5965   42.4518 N   0  0  0  0  0  0  0  0  0  0  0  0
    2.1058   14.8253   42.5504 C   0  0  0  0  0  0  0  0  0  0  0  0
    2.7614   15.9575   42.1116 C   0  0  0  0  0  0  0  0  0  0  0  0
    2.1719   17.2983   42.2239 C   0  0  0  0  0  0  0  0  0  0  0  0
    2.8323   18.3861   41.7882 N   0  0  0  0  0  0  0  0  0  0  0  0
    0.9511   17.4440   42.7712 N   0  0  0  0  0  0  0  0  0  0  0  0
    0.3793   18.6677   42.8893 C   0  0  0  0  0  0  0  0  0  0  0  0
   -0.7727   19.1398   43.3658 N   0  0  0  0  0  0  0  0  0  0  0  0
   -1.8063   18.3112   43.9431 C   0  0  0  0  0  0  0  0  0  0  0  0
   -0.8294   20.4713   43.2327 N   0  0  0  0  0  0  0  0  0  0  0  0
    0.3014   20.9116   42.6569 C   0  0  0  0  0  0  0  0  0  0  0  0
    1.0806   19.7725   42.4327 C   0  0  0  0  0  0  0  0  0  0  0  0
    2.3395   19.6357   41.8666 C   0  0  0  0  0  0  0  0  0  0  0  0
    3.0762   20.7496   41.3925 N   0  0  0  0  0  0  0  0  0  0  0  0
    4.5783   16.6905   41.1833 H   0  0  0  0  0  0  0  0  0  0  0  0
    5.5660   14.4366   40.9961 H   0  0  0  0  0  0  0  0  0  0  0  0
    4.3561   12.4980   41.7878 H   0  0  0  0  0  0  0  0  0  0  0  0
    1.1144   14.9056   42.9995 H   0  0  0  0  0  0  0  0  0  0  0  0
   -1.9574   17.4601   43.2413 H   0  0  0  0  0  0  0  0  0  0  0  0
   -1.5063   17.8951   44.9218 H   0  0  0  0  0  0  0  0  0  0  0  0
   -2.7488   18.9013   44.0120 H   0  0  0  0  0  0  0  0  0  0  0  0
    0.6037   21.9184   42.3965 H   0  0  0  0  0  0  0  0  0  0  0  0
    3.1596   20.9888   40.3753 H   0  0  0  0  0  0  0  0  0  0  0  0
    3.5623   21.3676   42.0776 H   0  0  0  0  0  0  0  0  0  0  0  0
  1  2  2  0
  1  6  1  0
  2  3  1  0
  3  4  2  0
  4  5  1  0
  5  6  2  0
  6  7  1  0
  7  8  2  0
  7  9  1  0
  8 16  1  0
  9 10  2  0
 10 11  1  0
 10 15  1  0
 11 12  1  0
 11 13  1  0
 13 14  2  0
 14 15  1  0
 15 16  2  0
 16 17  1  0
  1 18  1  0
  2 19  1  0
  3 20  1  0
  5 21  1  0
 12 22  1  0
 12 23  1  0
 12 24  1  0
 14 25  1  0
 17 26  1  0
 17 27  1  0
M  END
>  <mol_id>  (16) 
2026-09-18-6fnk-s0-n100-r5-0016

>  <rmsd_to_ref>  (16) 
1.1428571428617187

>  <pose_kind>  (16) 
conformer

$$$$
6fnk.A
     RDKit          3D

 27 29  0  0  0  0  0  0  0  0999 V2000
    2.9620   15.1582   41.3140 C   0  0  0  0  0  0  0  0  0  0  0  0
    3.3685   13.8293   41.4351 C   0  0  0  0  0  0  0  0  0  0  0  0
    3.0711   13.1161   42.5871 C   0  0  0  0  0  0  0  0  0  0  0  0
    2.3611   13.7286   43.6235 N   0  0  0  0  0  0  0  0  0  0  0  0
    1.9549   15.0660   43.4995 C   0  0  0  0  0  0  0  0  0  0  0  0
    2.2548   15.7841   42.3434 C   0  0  0  0  0  0  0  0  0  0  0  0
    1.8505   17.1176   42.2237 C   0  0  0  0  0  0  0  0  0  0  0  0
    2.2747   17.8790   41.2056 N   0  0  0  0  0  0  0  0  0  0  0  0
    1.0234   17.6461   43.1312 N   0  0  0  0  0  0  0  0  0  0  0  0
    0.6197   18.9267   43.0544 C   0  0  0  0  0  0  0  0  0  0  0  0
   -0.1775   19.6674   43.8393 N   0  0  0  0  0  0  0  0  0  0  0  0
   -0.8518   19.2101   45.0580 C   0  0  0  0  0  0  0  0  0  0  0  0
   -0.2841   20.8102   43.3921 N   0  0  0  0  0  0  0  0  0  0  0  0
    0.4264   20.8643   42.2535 C   0  0  0  0  0  0  0  0  0  0  0  0
    1.0259   19.6852   42.0410 C   0  0  0  0  0  0  0  0  0  0  0  0
    1.8614   19.1559   41.1055 C   0  0  0  0  0  0  0  0  0  0  0  0
    2.2978   19.9014   40.0614 N   0  0  0  0  0  0  0  0  0  0  0  0
    3.2008   15.7192   40.3984 H   0  0  0  0  0  0  0  0  0  0  0  0
    3.9247   13.3473   40.6176 H   0  0  0  0  0  0  0  0  0  0  0  0
    3.3938   12.0690   42.6849 H   0  0  0  0  0  0  0  0  0  0  0  0
    1.3985   15.5485   44.3165 H   0  0  0  0  0  0  0  0  0  0  0  0
   -0.6309   19.9047   45.8819 H   0  0  0  0  0  0  0  0  0  0  0  0
   -1.9378   19.1785   44.8862 H   0  0  0  0  0  0  0  0  0  0  0  0
   -0.4925   18.2041   45.3202 H   0  0  0  0  0  0  0  0  0  0  0  0
    0.5041   21.7427   41.5959 H   0  0  0  0  0  0  0  0  0  0  0  0
    1.9941   20.8809   39.9654 H   0  0  0  0  0  0  0  0  0  0  0  0
    2.9334   19.4886   39.3639 H   0  0  0  0  0  0  0  0  0  0  0  0
  1  2  2  0
  1  6  1  0
  2  3  1  0
  3  4  2  0
  4  5  1  0
  5  6  2  0
  6  7  1  0
  7  8  2  0
  7  9  1  0
  8 16  1  0
  9 10  2  0
 10 11  1  0
 10 15  1  0
 11 12  1  0
 11 13  1  0
 13 14  2  0
 14 15  1  0
 15 16  2  0
 16 17  1  0
  1 18  1  0
  2 19  1  0
  3 20  1  0
  5 21  1  0
 12 22  1  0
 12 23  1  0
 12 24  1  0
 14 25  1  0
 17 26  1  0
 17 27  1  0
M  END
>  <mol_id>  (17) 
2026-09-18-6fnk-s0-n100-r5-0017

>  <rmsd_to_ref>  (17) 
1.1887755102124082

>  <pose_kind>  (17) 
rigid

$$$$
6fnk.A
     RDKit          3D

 27 29  0  0  0  0  0  0  0  0999 V2000
    2.4051   15.5967   41.4396 C   0  0  0  0  0  0  0  0  0  0  0  0
    2.5832   14.2244   41.4184 C   0  0  0  0  0  0  0  0  0  0  0  0
    2.1223   13.4994   42.5098 C   0  0  0  0  0  0  0  0  0  0  0  0
    1.5314   14.1499   43.5260 N   0  0  0  0  0  0  0  0  0  0  0  0
    1.3590   15.4785   43.5465 C   0  0  0  0  0  0  0  0  0  0  0  0
    1.7987   16.2568   42.4842 C   0  0  0  0  0  0  0  0  0  0  0  0
    1.6236   17.7053   42.4810 C   0  0  0  0  0  0  0  0  0  0  0  0
    2.0482   18.4776   41.4502 N   0  0  0  0  0  0  0  0  0  0  0  0
    1.0211   18.2785   43.5392 N   0  0  0  0  0  0  0  0  0  0  0  0
    0.8193   19.6121   43.6169 C   0  0  0  0  0  0  0  0  0  0  0  0
    0.2611   20.4302   44.5274 N   0  0  0  0  0  0  0  0  0  0  0  0
   -0.3300   20.0196   45.8013 C   0  0  0  0  0  0  0  0  0  0  0  0
    0.3143   21.6893   44.1164 N   0  0  0  0  0  0  0  0  0  0  0  0
    0.9205   21.7409   42.8997 C   0  0  0  0  0  0  0  0  0  0  0  0
    1.2399   20.4317   42.5825 C   0  0  0  0  0  0  0  0  0  0  0  0
    1.8563   19.8271   41.5044 C   0  0  0  0  0  0  0  0  0  0  0  0
    2.3120   20.6075   40.4099 N   0  0  0  0  0  0  0  0  0  0  0  0
    2.7662   16.1443   40.5894 H   0  0  0  0  0  0  0  0  0  0  0  0
    3.0607   13.7240   40.5909 H   0  0  0  0  0  0  0  0  0  0  0  0
    2.2494   12.4386   42.5144 H   0  0  0  0  0  0  0  0  0  0  0  0
    0.8654   15.9397   44.4154 H   0  0  0  0  0  0  0  0  0  0  0  0
   -1.4364   20.0726   45.7612 H   0  0  0  0  0  0  0  0  0  0  0  0
    0.0267   20.6698   46.6188 H   0  0  0  0  0  0  0  0  0  0  0  0
   -0.0587   18.9651   45.9989 H   0  0  0  0  0  0  0  0  0  0  0  0
    1.1220   22.6124   42.2881 H   0  0  0  0  0  0  0  0  0  0  0  0
    3.1571   21.2233   40.4511 H   0  0  0  0  0  0  0  0  0  0  0  0
    1.7538   20.5441   39.5277 H   0  0  0  0  0  0  0  0  0  0  0  0
  1  2  2  0
  1  6  1  0
  2  3  1  0
  3  4  2  0
  4  5  1  0
  5  6  2  0
  6  7  1  0
  7  8  2  0
  7  9  1  0
  8 16  1  0
  9 10  2  0
 10 11  1  0
 10 15  1  0
 11 12  1  0
 11 13  1  0
 13 14  2  0
 14 15  1  0
 15 16  2  0
 16 17  1  0
  1 18  1  0
  2 19  1  0
  3 20  1  0
  5 21  1  0
 12 22  1  0
 12 23  1  0
 12 24  1  0
 14 25  1  0
 17 26  1  0
 17 27  1  0
M  END
>  <mol_id>  (18) 
2026-09-18-6fnk-s0-n100-r5-0018

>  <rmsd_to_ref>  (18) 
1.2346938775586036

>  <pose_kind>  (18) 
conformer

$$$$
6fnk.A
     RDKit          3D

 27 29  0  0  0  0  0  0  0  0999 V2000
    1.7162   15.8316   41.0816 C   0  0  0  0  0  0  0  0  0  0  0  0
    2.2259   14.5345   41.0203 C   0  0  0  0  0  0  0  0  0  0  0  0
    2.6302   13.8934   42.1822 C   0  0  0  0  0  0  0  0  0  0  0  0
    2.5229   14.5465   43.4132 N   0  0  0  0  0  0  0  0  0  0  0  0
    2.0113   15.8518   43.4715 C   0  0  0  0  0  0  0  0  0  0  0  0
    1.6066   16.4975   42.3047 C   0  0  0  0  0  0  0  0  0  0  0  0
    1.0992   17.7994   42.3657 C   0  0  0  0  0  0  0  0  0  0  0  0
    0.8689   18.5038   41.2491 N   0  0  0  0  0  0  0  0  0  0  0  0
    0.8314   18.3541   43.5522 N   0  0  0  0  0  0  0  0  0  0  0  0
    0.3511   19.6064   43.6513 C   0  0  0  0  0  0  0  0  0  0  0  0
    0.0284   20.3651   44.7099 N   0  0  0  0  0  0  0  0  0  0  0  0
    0.1282   19.9669   46.1171 C   0  0  0  0  0  0  0  0  0  0  0  0
   -0.3830   21.4667   44.3433 N   0  0  0  0  0  0  0  0  0  0  0  0
   -0.3795   21.4707   43.0001 C   0  0  0  0  0  0  0  0  0  0  0  0
    0.1081   20.3075   42.5483 C   0  0  0  0  0  0  0  0  0  0  0  0
    0.3684   19.7503   41.3337 C   0  0  0  0  0  0  0  0  0  0  0  0
    0.1361   20.4376   40.1891 N   0  0  0  0  0  0  0  0  0  0  0  0
    1.3973   16.3353   40.1572 H   0  0  0  0  0  0  0  0  0  0  0  0
    2.3071   14.0203   40.0513 H   0  0  0  0  0  0  0  0  0  0  0  0
    3.0350   12.8717   42.1347 H   0  0  0  0  0  0  0  0  0  0  0  0
    1.9295   16.3664   44.4402 H   0  0  0  0  0  0  0  0  0  0  0  0
    0.6937   20.7283   46.6744 H   0  0  0  0  0  0  0  0  0  0  0  0
   -0.8812   19.8741   46.5444 H   0  0  0  0  0  0  0  0  0  0  0  0
    0.6469   18.9995   46.1886 H   0  0  0  0  0  0  0  0  0  0  0  0
   -0.7244   22.3020   42.3676 H   0  0  0  0  0  0  0  0  0  0  0  0
   -0.2466   21.3929   40.2307 H   0  0  0  0  0  0  0  0  0  0  0  0
    0.3422   20.0045   39.2776 H   0  0  0  0  0  0  0  0  0  0  0  0
  1  2  2  0
  1  6  1  0
  2  3  1  0
  3  4  2  0
  4  5  1  0
  5  6  2  0
  6  7  1  0
  7  8  2  0
  7  9  1  0
  8 16  1  0
  9 10  2  0
 10 11  1  0
 10 15  1  0
 11 12  1  0
 11 13  1  0
 13 14  2  0
 14 15  1  0
 15 16  2  0
 16 17  1  0
  1 18  1  0
  2 19  1  0
  3 20  1  0
  5 21  1  0
 12 22  1  0
 12 23  1  0
 12 24  1  0
 14 25  1  0
 17 26  1  0
 17 27  1  0
M  END
>  <mol_id>  (19) 
2026-09-18-6fnk-s0-n100-r5-0019

>  <rmsd_to_ref>  (19) 
1.2806122448994162

>  <pose_kind>  (19) 
rigid

$$$$
6fnk.A
     RDKit          3D

 27 29  0  0  0  0  0  0  0  0999 V2000
    1.4818   15.3166   42.6449 C   0  0  0  0  0  0  0  0  0  0  0  0
    1.8447   14.0142   42.3339 C   0  0  0  0  0  0  0  0  0  0  0  0
    2.7958   13.7325   41.3728 C   0  0  0  0  0  0  0  0  0  0  0  0
    3.4033   14.7565   40.7028 N   0  0  0  0  0  0  0  0  0  0  0  0
    3.0773   16.0539   40.9763 C   0  0  0  0  0  0  0  0  0  0  0  0
    2.1215   16.3185   41.9430 C   0  0  0  0  0  0  0  0  0  0  0  0
    1.7837   17.7096   42.2243 C   0  0  0  0  0  0  0  0  0  0  0  0
    2.3829   18.7135   41.5638 N   0  0  0  0  0  0  0  0  0  0  0  0
    0.8629   18.0238   43.1527 N   0  0  0  0  0  0  0  0  0  0  0  0
    0.5210   19.2905   43.4440 C   0  0  0  0  0  0  0  0  0  0  0  0
   -0.3465   19.8298   44.3073 N   0  0  0  0  0  0  0  0  0  0  0  0
   -1.2107   19.1201   45.2255 C   0  0  0  0  0  0  0  0  0  0  0  0
   -0.2882   21.1330   44.1870 N   0  0  0  0  0  0  0  0  0  0  0  0
    0.6275   21.4774   43.2331 C   0  0  0  0  0  0  0  0  0  0  0  0
    1.1520   20.2924   42.7510 C   0  0  0  0  0  0  0  0  0  0  0  0
    2.0969   20.0114   41.7963 C   0  0  0  0  0  0  0  0  0  0  0  0
    2.7141   21.0853   41.1141 N   0  0  0  0  0  0  0  0  0  0  0  0
    0.7346   15.5449   43.3997 H   0  0  0  0  0  0  0  0  0  0  0  0
    1.3359   13.2246   42.8918 H   0  0  0  0  0  0  0  0  0  0  0  0
    3.0572   12.6997   41.1531 H   0  0  0  0  0  0  0  0  0  0  0  0
    3.5839   16.8283   40.4213 H   0  0  0  0  0  0  0  0  0  0  0  0
   -0.8671   19.4248   46.2438 H   0  0  0  0  0  0  0  0  0  0  0  0
   -1.1014   18.0367   45.1576 H   0  0  0  0  0  0  0  0  0  0  0  0
   -2.2637   19.4625   45.0921 H   0  0  0  0  0  0  0  0  0  0  0  0
    0.8893   22.4770   42.9183 H   0  0  0  0  0  0  0  0  0  0  0  0
    2.5716   21.2322   40.0938 H   0  0  0  0  0  0  0  0  0  0  0  0
    3.3306   21.7658   41.6019 H   0  0  0  0  0  0  0  0  0  0  0  0
  1  2  2  0
  1  6  1  0
  2  3  1  0
  3  4  2  0
  4  5  1  0
  5  6  2  0
  6  7  1  0
  7  8  2  0
  7  9  1  0
  8 16  1  0
  9 10  2  0
 10 11  1  0
 10 15  1  0
 11 12  1  0
 11 13  1  0
 13 14  2  0
 14 15  1  0
 15 16  2  0
 16 17  1  0
  1 18  1  0
  2 19  1  0
  3 20  1  0
  5 21  1  0
 12 22  1  0
 12 23  1  0
 12 24  1  0
 14 25  1  0
 17 26  1  0
 17 27  1  0
M  END
>  <mol_id>  (20) 
2026-09-18-6fnk-s0-n100-r5-0020

>  <rmsd_to_ref>  (20) 
1.326530612246662

>  <pose_kind>  (20) 
conformer

$$$$
6fnk.A
     RDKit          3D

 27 29  0  0  0  0  0  0  0  0999 V2000
    1.6064   15.9776   39.7830 C   0  0  0  0  0  0  0  0  0  0  0  0
    1.5444   14.7225   39.1776 C   0  0  0  0  0  0  0  0  0  0  0  0
    1.3851   13.5851   39.9556 C   0  0  0  0  0  0  0  0  0  0  0  0
    1.2832   13.6985   41.3449 N   0  0  0  0  0  0  0  0  0  0  0  0
    1.3475   14.9623   41.9512 C   0  0  0  0  0  0  0  0  0  0  0  0
    1.5094   16.1054   41.1707 C   0  0  0  0  0  0  0  0  0  0  0  0
    1.5755   17.3635   41.7782 C   0  0  0  0  0  0  0  0  0  0  0  0
    1.9047   18.4544   41.0727 N   0  0  0  0  0  0  0  0  0  0  0  0
    1.3011   17.4887   43.0805 N   0  0  0  0  0  0  0  0  0  0  0  0
    1.3626   18.6802   43.7014 C   0  0  0  0  0  0  0  0  0  0  0  0
    1.1508   19.0427   44.9757 N   0  0  0  0  0  0  0  0  0  0  0  0
    0.7660   18.1493   46.0725 C   0  0  0  0  0  0  0  0  0  0  0  0
    1.3151   20.2556   45.1136 N   0  0  0  0  0  0  0  0  0  0  0  0
    1.6170   20.7602   43.9060 C   0  0  0  0  0  0  0  0  0  0  0  0
    1.6763   19.7692   43.0064 C   0  0  0  0  0  0  0  0  0  0  0  0
    1.9492   19.6560   41.6775 C   0  0  0  0  0  0  0  0  0  0  0  0
    2.2758   20.7445   40.9394 N   0  0  0  0  0  0  0  0  0  0  0  0
    1.7330   16.8762   39.1613 H   0  0  0  0  0  0  0  0  0  0  0  0
    1.6217   14.6346   38.0838 H   0  0  0  0  0  0  0  0  0  0  0  0
    1.3390   12.5946   39.4795 H   0  0  0  0  0  0  0  0  0  0  0  0
    1.2699   15.0509   43.0449 H   0  0  0  0  0  0  0  0  0  0  0  0
    1.4535   18.2912   46.9194 H   0  0  0  0  0  0  0  0  0  0  0  0
   -0.2610   18.3812   46.3911 H   0  0  0  0  0  0  0  0  0  0  0  0
    0.8168   17.1052   45.7299 H   0  0  0  0  0  0  0  0  0  0  0  0
    1.7892   21.8247   43.6887 H   0  0  0  0  0  0  0  0  0  0  0  0
    2.3158   21.6737   41.3820 H   0  0  0  0  0  0  0  0  0  0  0  0
    2.4842   20.6426   39.9358 H   0  0  0  0  0  0  0  0  0  0  0  0
  1  2  2  0
  1  6  1  0
  2  3  1  0
  3  4  2  0
  4  5  1  0
  5  6  2  0
  6  7  1  0
  7  8  2  0
  7  9  1  0
  8 16  1  0
  9 10  2  0
 10 11  1  0
 10 15  1  0
 11 12  1  0
 11 13  1  0
 13 14  2  0
 14 15  1  0
 15 16  2  0
 16 17  1  0
  1 18  1  0
  2 19  1  0
  3 20  1  0
  5 21  1  0
 12 22  1  0
 12 23  1  0
 12 24  1  0
 14 25  1  0
 17 26  1  0
 17 27  1  0
M  END
>  <mol_id>  (21) 
2026-09-18-6fnk-s0-n100-r5-0021

>  <rmsd_to_ref>  (21) 
1.372448979595465

>  <pose_kind>  (21) 
rigid

$$$$
6fnk.A
     RDKit          3D

 27 29  0  0  0  0  0  0  0  0999 V2000
    1.6799   16.1355   40.6997 C   0  0  0  0  0  0  0  0  0  0  0  0
    1.5475   14.8333   40.2612 C   0  0  0  0  0  0  0  0  0  0  0  0
    1.0880   13.8681   41.0988 C   0  0  0  0  0  0  0  0  0  0  0  0
    0.7619   14.1958   42.3656 N   0  0  0  0  0  0  0  0  0  0  0  0
    0.8800   15.4723   42.8329 C   0  0  0  0  0  0  0  0  0  0  0  0
    1.3429   16.4534   41.9951 C   0  0  0  0  0  0  0  0  0  0  0  0
    1.4837   17.8337   42.4585 C   0  0  0  0  0  0  0  0  0  0  0  0
    1.9405   18.8089   41.6362 N   0  0  0  0  0  0  0  0  0  0  0  0
    1.1672   18.1832   43.7088 N   0  0  0  0  0  0  0  0  0  0  0  0
    1.2737   19.4349   44.1973 C   0  0  0  0  0  0  0  0  0  0  0  0
    1.0121   19.9982   45.4131 N   0  0  0  0  0  0  0  0  0  0  0  0
    0.5075   19.3186   46.5855 C   0  0  0  0  0  0  0  0  0  0  0  0
    1.3051   21.2687   45.3139 N   0  0  0  0  0  0  0  0  0  0  0  0
    1.7543   21.5731   44.0708 C   0  0  0  0  0  0  0  0  0  0  0  0
    1.7420   20.4056   43.3352 C   0  0  0  0  0  0  0  0  0  0  0  0
    2.0779   20.0823   42.0398 C   0  0  0  0  0  0  0  0  0  0  0  0
    2.5554   21.1180   41.1911 N   0  0  0  0  0  0  0  0  0  0  0  0
    2.0548   16.8721   39.9825 H   0  0  0  0  0  0  0  0  0  0  0  0
    1.8029   14.5430   39.2464 H   0  0  0  0  0  0  0  0  0  0  0  0
    0.9588   12.8152   40.8152 H   0  0  0  0  0  0  0  0  0  0  0  0
    0.5994   15.6746   43.8701 H   0  0  0  0  0  0  0  0  0  0  0  0
   -0.1936   18.5134   46.2790 H   0  0  0  0  0  0  0  0  0  0  0  0
    0.0054   20.0276   47.2637 H   0  0  0  0  0  0  0  0  0  0  0  0
    1.3335   18.8475   47.1620 H   0  0  0  0  0  0  0  0  0  0  0  0
    2.0592   22.5542   43.7411 H   0  0  0  0  0  0  0  0  0  0  0  0
    3.3874   20.9933   40.5488 H   0  0  0  0  0  0  0  0  0  0  0  0
    2.0825   22.0611   41.1779 H   0  0  0  0  0  0  0  0  0  0  0  0
  1  2  2  0
  1  6  1  0
  2  3  1  0
  3  4  2  0
  4  5  1  0
  5  6  2  0
  6  7  1  0
  7  8  2  0
  7  9  1  0
  8 16  1  0
  9 10  2  0
 10 11  1  0
 10 15  1  0
 11 12  1  0
 11 13  1  0
 13 14  2  0
 14 15  1  0
 15 16  2  0
 16 17  1  0
  1 18  1  0
  2 19  1  0
  3 20  1  0
  5 21  1  0
 12 22  1  0
 12 23  1  0
 12 24  1  0
 14 25  1  0
 17 26  1  0
 17 27  1  0
M  END
>  <mol_id>  (22) 
2026-09-18-6fnk-s0-n100-r5-0022

>  <rmsd_to_ref>  (22) 
1.418367346942956

>  <pose_kind>  (22) 
conformer

$$$$
6fnk.A
     RDKit          3D

 27 29  0  0  0  0  0  0  0  0999 V2000
    3.0793   17.4456   40.0901 C   0  0  0  0  0  0  0  0  0  0  0  0
    3.6704   16.5666   39.1825 C   0  0  0  0  0  0  0  0  0  0  0  0
    3.8605   15.2369   39.5293 C   0  0  0  0  0  0  0  0  0  0  0  0
    3.4561   14.7788   40.7862 N   0  0  0  0  0  0  0  0  0  0  0  0
    2.8632   15.6657   41.6977 C   0  0  0  0  0  0  0  0  0  0  0  0
    2.6734   17.0021   41.3511 C   0  0  0  0  0  0  0  0  0  0  0  0
    2.0843   17.8843   42.2626 C   0  0  0  0  0  0  0  0  0  0  0  0
    2.0505   19.2027   42.0243 N   0  0  0  0  0  0  0  0  0  0  0  0
    1.5389   17.4120   43.3880 N   0  0  0  0  0  0  0  0  0  0  0  0
    0.9712   18.2299   44.2922 C   0  0  0  0  0  0  0  0  0  0  0  0
    0.3863   17.9941   45.4765 N   0  0  0  0  0  0  0  0  0  0  0  0
    0.2125   16.6811   46.1048 C   0  0  0  0  0  0  0  0  0  0  0  0
   -0.0067   19.0463   45.9820 N   0  0  0  0  0  0  0  0  0  0  0  0
    0.2790   20.0372   45.1214 C   0  0  0  0  0  0  0  0  0  0  0  0
    0.9224   19.5375   44.0578 C   0  0  0  0  0  0  0  0  0  0  0  0
    1.4666   20.0297   42.9111 C   0  0  0  0  0  0  0  0  0  0  0  0
    1.4378   21.3575   42.6417 N   0  0  0  0  0  0  0  0  0  0  0  0
    2.9311   18.4990   39.8100 H   0  0  0  0  0  0  0  0  0  0  0  0
    3.9855   16.9276   38.1923 H   0  0  0  0  0  0  0  0  0  0  0  0
    4.3292   14.5436   38.8155 H   0  0  0  0  0  0  0  0  0  0  0  0
    2.5475   15.3053   42.6879 H   0  0  0  0  0  0  0  0  0  0  0  0
    0.5995   16.7130   47.1340 H   0  0  0  0  0  0  0  0  0  0  0  0
   -0.8563   16.4218   46.1229 H   0  0  0  0  0  0  0  0  0  0  0  0
    0.7640   15.9232   45.5291 H   0  0  0  0  0  0  0  0  0  0  0  0
    0.0236   21.0971   45.2676 H   0  0  0  0  0  0  0  0  0  0  0  0
    0.9960   22.0084   43.3066 H   0  0  0  0  0  0  0  0  0  0  0  0
    1.8577   21.7158   41.7721 H   0  0  0  0  0  0  0  0  0  0  0  0
  1  2  2  0
  1  6  1  0
  2  3  1  0
  3  4  2  0
  4  5  1  0
  5  6  2  0
  6  7  1  0
  7  8  2  0
  7  9  1  0
  8 16  1  0
  9 10  2  0
 10 11  1  0
 10 15  1  0
 11 12  1  0
 11 13  1  0
 13 14  2  0
 14 15  1  0
 15 16  2  0
 16 17  1  0
  1 18  1  0
  2 19  1  0
  3 20  1  0
  5 21  1  0
 12 22  1  0
 12 23  1  0
 12 24  1  0
 14 25  1  0
 17 26  1  0
 17 27  1  0
M  END
>  <mol_id>  (23) 
2026-09-18-6fnk-s0-n100-r5-0023

>  <rmsd_to_ref>  (23) 
1.4642857142879786

>  <pose_kind>  (23) 
rigid

$$$$
6fnk.A
     RDKit          3D

 27 29  0  0  0  0  0  0  0  0999 V2000
    4.1299   16.7695   42.0991 C   0  0  0  0  0  0  0  0  0  0  0  0
    4.6976   15.6808   41.4321 C   0  0  0  0  0  0  0  0  0  0  0  0
    3.9045   14.5687   41.1856 C   0  0  0  0  0  0  0  0  0  0  0  0
    2.6108   14.5380   41.5817 N   0  0  0  0  0  0  0  0  0  0  0  0
    2.0384   15.5607   42.2206 C   0  0  0  0  0  0  0  0  0  0  0  0
    2.8076   16.6813   42.4784 C   0  0  0  0  0  0  0  0  0  0  0  0
    2.2182   17.8199   43.1746 C   0  0  0  0  0  0  0  0  0  0  0  0
    2.9023   18.9435   43.4607 N   0  0  0  0  0  0  0  0  0  0  0  0
    0.9114   17.7723   43.5672 N   0  0  0  0  0  0  0  0  0  0  0  0
    0.3491   18.8207   44.2145 C   0  0  0  0  0  0  0  0  0  0  0  0
   -0.8967   19.0054   44.6918 N   0  0  0  0  0  0  0  0  0  0  0  0
   -2.0200   18.0776   44.6324 C   0  0  0  0  0  0  0  0  0  0  0  0
   -0.9855   20.2102   45.2590 N   0  0  0  0  0  0  0  0  0  0  0  0
    0.2247   20.8314   45.1537 C   0  0  0  0  0  0  0  0  0  0  0  0
    1.0753   19.9585   44.4936 C   0  0  0  0  0  0  0  0  0  0  0  0
    2.3976   19.9952   44.0912 C   0  0  0  0  0  0  0  0  0  0  0  0
    3.1681   21.1408   44.3598 N   0  0  0  0  0  0  0  0  0  0  0  0
    4.7462   17.6468   42.2964 H   0  0  0  0  0  0  0  0  0  0  0  0
    5.7329   15.7094   41.1169 H   0  0  0  0  0  0  0  0  0  0  0  0
    4.3818   13.7478   40.6671 H   0  0  0  0  0  0  0  0  0  0  0  0
    1.0032   15.4850   42.5146 H   0  0  0  0  0  0  0  0  0  0  0  0
   -2.9759   18.6359   44.6755 H   0  0  0  0  0  0  0  0  0  0  0  0
   -2.0128   17.3317   45.4510 H   0  0  0  0  0  0  0  0  0  0  0  0
   -1.8990   17.5226   43.6748 H   0  0  0  0  0  0  0  0  0  0  0  0
    0.4869   21.8093   45.5082 H   0  0  0  0  0  0  0  0  0  0  0  0
    3.2787   21.8632   43.6129 H   0  0  0  0  0  0  0  0  0  0  0  0
    3.6122   21.2325   45.3149 H   0  0  0  0  0  0  0  0  0  0  0  0
  1  2  2  0
  1  6  1  0
  2  3  1  0
  3  4  2  0
  4  5  1  0
  5  6  2  0
  6  7  1  0
  7  8  2  0
  7  9  1  0
  8 16  1  0
  9 10  2  0
 10 11  1  0
 10 15  1  0
 11 12  1  0
 11 13  1  0
 13 14  2  0
 14 15  1  0
 15 16  2  0
 16 17  1  0
  1 18  1  0
  2 19  1  0
  3 20  1  0
  5 21  1  0
 12 22  1  0
 12 23  1  0
 12 24  1  0
 14 25  1  0
 17 26  1  0
 17 27  1  0
M  END
>  <mol_id>  (24) 
2026-09-18-6fnk-s0-n100-r5-0024

>  <rmsd_to_ref>  (24) 
1.5102040816368265

>  <pose_kind>  (24) 
conformer

$$$$
6fnk.A
     RDKit          3D

 27 29  0  0  0  0  0  0  0  0999 V2000
    4.2580   16.7672   41.7686 C   0  0  0  0  0  0  0  0  0  0  0  0
    5.3204   15.8732   41.6341 C   0  0  0  0  0  0  0  0  0  0  0  0
    5.3679   14.7306   42.4193 C   0  0  0  0  0  0  0  0  0  0  0  0
    4.3493   14.4746   43.3415 N   0  0  0  0  0  0  0  0  0  0  0  0
    3.2828   15.3764   43.4756 C   0  0  0  0  0  0  0  0  0  0  0  0
    3.2350   16.5256   42.6887 C   0  0  0  0  0  0  0  0  0  0  0  0
    2.1718   17.4239   42.8263 C   0  0  0  0  0  0  0  0  0  0  0  0
    2.1907   18.6153   42.2129 N   0  0  0  0  0  0  0  0  0  0  0  0
    1.1142   17.0934   43.5742 N   0  0  0  0  0  0  0  0  0  0  0  0
    0.0771   17.9341   43.7372 C   0  0  0  0  0  0  0  0  0  0  0  0
   -1.0625   17.8317   44.4379 N   0  0  0  0  0  0  0  0  0  0  0  0
   -1.4746   16.6819   45.2484 C   0  0  0  0  0  0  0  0  0  0  0  0
   -1.7447   18.8487   44.3054 N   0  0  0  0  0  0  0  0  0  0  0  0
   -1.0862   19.6685   43.4696 C   0  0  0  0  0  0  0  0  0  0  0  0
    0.0823   19.1127   43.1224 C   0  0  0  0  0  0  0  0  0  0  0  0
    1.1497   19.4572   42.3508 C   0  0  0  0  0  0  0  0  0  0  0  0
    1.1898   20.6520   41.7126 N   0  0  0  0  0  0  0  0  0  0  0  0
    4.2255   17.6718   41.1436 H   0  0  0  0  0  0  0  0  0  0  0  0
    6.1200   16.0742   40.9060 H   0  0  0  0  0  0  0  0  0  0  0  0
    6.2067   14.0265   42.3163 H   0  0  0  0  0  0  0  0  0  0  0  0
    2.4827   15.1759   44.2034 H   0  0  0  0  0  0  0  0  0  0  0  0
   -1.7495   17.0239   46.2571 H   0  0  0  0  0  0  0  0  0  0  0  0
   -2.3408   16.1934   44.7782 H   0  0  0  0  0  0  0  0  0  0  0  0
   -0.6428   15.9655   45.3182 H   0  0  0  0  0  0  0  0  0  0  0  0
   -1.4508   20.6468   43.1232 H   0  0  0  0  0  0  0  0  0  0  0  0
    0.4040   21.3115   41.8043 H   0  0  0  0  0  0  0  0  0  0  0  0
    2.0062   20.9006   41.1358 H   0  0  0  0  0  0  0  0  0  0  0  0
  1  2  2  0
  1  6  1  0
  2  3  1  0
  3  4  2  0
  4  5  1  0
  5  6  2  0
  6  7  1  0
  7  8  2  0
  7  9  1  0
  8 16  1  0
  9 10  2  0
 10 11  1  0
 10 15  1  0
 11 12  1  0
 11 13  1  0
 13 14  2  0
 14 15  1  0
 15 16  2  0
 16 17  1  0
  1 18  1  0
  2 19  1  0
  3 20  1  0
  5 21  1  0
 12 22  1  0
 12 23  1  0
 12 24  1  0
 14 25  1  0
 17 26  1  0
 17 27  1  0
M  END
>  <mol_id>  (25) 
2026-09-18-6fnk-s0-n100-r5-0025

>  <rmsd_to_ref>  (25) 
1.5561224489844376

>  <pose_kind>  (25) 
rigid

$$$$
6fnk.A
     RDKit          3D

 27 29  0  0  0  0  0  0  0  0999 V2000
    3.2774   15.0158   41.9327 C   0  0  0  0  0  0  0  0  0  0  0  0
    3.6519   13.6924   42.1358 C   0  0  0  0  0  0  0  0  0  0  0  0
    3.1286   13.0669   43.2482 C   0  0  0  0  0  0  0  0  0  0  0  0
    2.2974   13.7115   44.0911 N   0  0  0  0  0  0  0  0  0  0  0  0
    1.9420   14.9855   43.8881 C   0  0  0  0  0  0  0  0  0  0  0  0
    2.4263   15.6753   42.7958 C   0  0  0  0  0  0  0  0  0  0  0  0
    2.0823   17.0645   42.5114 C   0  0  0  0  0  0  0  0  0  0  0  0
    2.5880   17.7031   41.4171 N   0  0  0  0  0  0  0  0  0  0  0  0
    1.2473   17.7377   43.3435 N   0  0  0  0  0  0  0  0  0  0  0  0
    0.9035   19.0144   43.1221 C   0  0  0  0  0  0  0  0  0  0  0  0
    0.1447   19.9494   43.6961 N   0  0  0  0  0  0  0  0  0  0  0  0
   -0.6176   19.7513   44.9142 C   0  0  0  0  0  0  0  0  0  0  0  0
    0.1816   21.0866   43.0009 N   0  0  0  0  0  0  0  0  0  0  0  0
    0.9777   20.9380   41.9292 C   0  0  0  0  0  0  0  0  0  0  0  0
    1.4416   19.6366   41.9902 C   0  0  0  0  0  0  0  0  0  0  0  0
    2.2828   18.9831   41.1379 C   0  0  0  0  0  0  0  0  0  0  0  0
    2.8605   19.5568   39.9757 N   0  0  0  0  0  0  0  0  0  0  0  0
    3.6710   15.5553   41.0569 H   0  0  0  0  0  0  0  0  0  0  0  0
    4.3254   13.1891   41.4421 H   0  0  0  0  0  0  0  0  0  0  0  0
    3.4248   12.0350   43.4005 H   0  0  0  0  0  0  0  0  0  0  0  0
    1.2683   15.4868   44.5831 H   0  0  0  0  0  0  0  0  0  0  0  0
    0.1108   19.4459   45.7003 H   0  0  0  0  0  0  0  0  0  0  0  0
   -1.3988   19.0053   44.7044 H   0  0  0  0  0  0  0  0  0  0  0  0
   -1.0808   20.7162   45.2483 H   0  0  0  0  0  0  0  0  0  0  0  0
    1.1967   21.6738   41.1961 H   0  0  0  0  0  0  0  0  0  0  0  0
    2.4353   19.5009   39.0256 H   0  0  0  0  0  0  0  0  0  0  0  0
    3.7788   20.0631   40.1264 H   0  0  0  0  0  0  0  0  0  0  0  0
  1  2  2  0
  1  6  1  0
  2  3  1  0
  3  4  2  0
  4  5  1  0
  5  6  2  0
  6  7  1  0
  7  8  2  0
  7  9  1  0
  8 16  1  0
  9 10  2  0
 10 11  1  0
 10 15  1  0
 11 12  1  0
 11 13  1  0
 13 14  2  0
 14 15  1  0
 15 16  2  0
 16 17  1  0
  1 18  1  0
  2 19  1  0
  3 20  1  0
  5 21  1  0
 12 22  1  0
 12 23  1  0
 12 24  1  0
 14 25  1  0
 17 26  1  0
 17 27  1  0
M  END
>  <mol_id>  (26) 
2026-09-18-6fnk-s0-n100-r5-0026

>  <rmsd_to_ref>  (26) 
1.602040816331067

>  <pose_kind>  (26) 
conformer

$$$$
6fnk.A
     RDKit          3D

 27 29  0  0  0  0  0  0  0  0999 V2000
    2.2445   15.7004   41.6215 C   0  0  0  0  0  0  0  0  0  0  0  0
    2.0794   14.3221   41.4840 C   0  0  0  0  0  0  0  0  0  0  0  0
    1.2103   13.6413   42.3241 C   0  0  0  0  0  0  0  0  0  0  0  0
    0.4984   14.3378   43.3046 N   0  0  0  0  0  0  0  0  0  0  0  0
    0.6678   15.7240   43.4415 C   0  0  0  0  0  0  0  0  0  0  0  0
    1.5420   16.4087   42.5994 C   0  0  0  0  0  0  0  0  0  0  0  0
    1.7104   17.7900   42.7398 C   0  0  0  0  0  0  0  0  0  0  0  0
    2.6685   18.4408   42.0656 N   0  0  0  0  0  0  0  0  0  0  0  0
    0.9031   18.4795   43.5522 N   0  0  0  0  0  0  0  0  0  0  0  0
    1.0399   19.8069   43.7196 C   0  0  0  0  0  0  0  0  0  0  0  0
    0.3736   20.6916   44.4770 N   0  0  0  0  0  0  0  0  0  0  0  0
   -0.7536   20.3891   45.3641 C   0  0  0  0  0  0  0  0  0  0  0  0
    0.8325   21.8243   44.3241 N   0  0  0  0  0  0  0  0  0  0  0  0
    1.8198   21.7391   43.4174 C   0  0  0  0  0  0  0  0  0  0  0  0
    1.9797   20.4621   43.0453 C   0  0  0  0  0  0  0  0  0  0  0  0
    2.8024   19.7724   42.2081 C   0  0  0  0  0  0  0  0  0  0  0  0
    3.7732   20.4077   41.5079 N   0  0  0  0  0  0  0  0  0  0  0  0
    2.9351   16.2352   40.9528 H   0  0  0  0  0  0  0  0  0  0  0  0
    2.6379   13.7754   40.7100 H   0  0  0  0  0  0  0  0  0  0  0  0
    1.0816   12.5540   42.2185 H   0  0  0  0  0  0  0  0  0  0  0  0
    0.1093   16.2713   44.2151 H   0  0  0  0  0  0  0  0  0  0  0  0
   -0.5519   20.7972   46.3655 H   0  0  0  0  0  0  0  0  0  0  0  0
   -1.6702   20.8440   44.9605 H   0  0  0  0  0  0  0  0  0  0  0  0
   -0.8846   19.2990   45.4320 H   0  0  0  0  0  0  0  0  0  0  0  0
    2.4074   22.5882   43.0383 H   0  0  0  0  0  0  0  0  0  0  0  0
    3.8934   21.4263   41.6019 H   0  0  0  0  0  0  0  0  0  0  0  0
    4.3911   19.8718   40.8817 H   0  0  0  0  0  0  0  0  0  0  0  0
  1  2  2  0
  1  6  1  0
  2  3  1  0
  3  4  2  0
  4  5  1  0
  5  6  2  0
  6  7  1  0
  7  8  2  0
  7  9  1  0
  8 16  1  0
  9 10  2  0
 10 11  1  0
 10 15  1  0
 11 12  1  0
 11 13  1  0
 13 14  2  0
 14 15  1  0
 15 16  2  0
 16 17  1  0
  1 18  1  0
  2 19  1  0
  3 20  1  0
  5 21  1  0
 12 22  1  0
 12 23  1  0
 12 24  1  0
 14 25  1  0
 17 26  1  0
 17 27  1  0
M  END
>  <mol_id>  (27) 
2026-09-18-6fnk-s0-n100-r5-0027

>  <rmsd_to_ref>  (27) 
1.6479591836795313

>  <pose_kind>  (27) 
rigid

$$$$
6fnk.A
     RDKit          3D

 27 29  0  0  0  0  0  0  0  0999 V2000
    1.9312   15.0142   42.9384 C   0  0  0  0  0  0  0  0  0  0  0  0
    2.6617   13.8322   42.9613 C   0  0  0  0  0  0  0  0  0  0  0  0
    3.8476   13.7459   42.2273 C   0  0  0  0  0  0  0  0  0  0  0  0
    4.2866   14.8098   41.4943 N   0  0  0  0  0  0  0  0  0  0  0  0
    3.5651   15.9578   41.4800 C   0  0  0  0  0  0  0  0  0  0  0  0
    2.4027   16.0760   42.1853 C   0  0  0  0  0  0  0  0  0  0  0  0
    1.6752   17.3517   42.1210 C   0  0  0  0  0  0  0  0  0  0  0  0
    2.2037   18.3244   41.3684 N   0  0  0  0  0  0  0  0  0  0  0  0
    0.5210   17.5551   42.7852 N   0  0  0  0  0  0  0  0  0  0  0  0
   -0.1237   18.7533   42.6998 C   0  0  0  0  0  0  0  0  0  0  0  0
   -1.2577   19.2520   43.2265 N   0  0  0  0  0  0  0  0  0  0  0  0
   -2.1677   18.5329   44.1203 C   0  0  0  0  0  0  0  0  0  0  0  0
   -1.4185   20.5023   42.8048 N   0  0  0  0  0  0  0  0  0  0  0  0
   -0.3968   20.8474   41.9958 C   0  0  0  0  0  0  0  0  0  0  0  0
    0.4345   19.7656   41.9111 C   0  0  0  0  0  0  0  0  0  0  0  0
    1.6180   19.5416   41.2365 C   0  0  0  0  0  0  0  0  0  0  0  0
    2.2158   20.5534   40.4224 N   0  0  0  0  0  0  0  0  0  0  0  0
    1.0208   15.0886   43.4985 H   0  0  0  0  0  0  0  0  0  0  0  0
    2.3303   12.9674   43.5404 H   0  0  0  0  0  0  0  0  0  0  0  0
    4.4328   12.8150   42.2388 H   0  0  0  0  0  0  0  0  0  0  0  0
    3.9931   16.7565   40.8659 H   0  0  0  0  0  0  0  0  0  0  0  0
   -2.8973   17.9363   43.5371 H   0  0  0  0  0  0  0  0  0  0  0  0
   -2.7757   19.2738   44.7166 H   0  0  0  0  0  0  0  0  0  0  0  0
   -1.6270   17.9512   44.8913 H   0  0  0  0  0  0  0  0  0  0  0  0
   -0.2214   21.7860   41.4869 H   0  0  0  0  0  0  0  0  0  0  0  0
    3.2297   20.7658   40.5397 H   0  0  0  0  0  0  0  0  0  0  0  0
    1.6166   21.0665   39.7168 H   0  0  0  0  0  0  0  0  0  0  0  0
  1  2  2  0
  1  6  1  0
  2  3  1  0
  3  4  2  0
  4  5  1  0
  5  6  2  0
  6  7  1  0
  7  8  2  0
  7  9  1  0
  8 16  1  0
  9 10  2  0
 10 11  1  0
 10 15  1  0
 11 12  1  0
 11 13  1  0
 13 14  2  0
 14 15  1  0
 15 16  2  0
 16 17  1  0
  1 18  1  0
  2 19  1  0
  3 20  1  0
  5 21  1  0
 12 22  1  0
 12 23  1  0
 12 24  1  0
 14 25  1  0
 17 26  1  0
 17 27  1  0
M  END
>  <mol_id>  (28) 
2026-09-18-6fnk-s0-n100-r5-0028

>  <rmsd_to_ref>  (28) 
1.6938775510216977

>  <pose_kind>  (28) 
conformer

$$$$
6fnk.A
     RDKit          3D

 27 29  0  0  0  0  0  0  0  0999 V2000
    2.2018   17.3656   39.4022 C   0  0  0  0  0  0  0  0  0  0  0  0
    2.2412   16.4215   38.3760 C   0  0  0  0  0  0  0  0  0  0  0  0
    1.8691   15.1090   38.6276 C   0  0  0  0  0  0  0  0  0  0  0  0
    1.4516   14.7351   39.9079 N   0  0  0  0  0  0  0  0  0  0  0  0
    1.4146   15.6866   40.9385 C   0  0  0  0  0  0  0  0  0  0  0  0
    1.7900   17.0050   40.6874 C   0  0  0  0  0  0  0  0  0  0  0  0
    1.7543   17.9507   41.7173 C   0  0  0  0  0  0  0  0  0  0  0  0
    2.2732   19.1748   41.5490 N   0  0  0  0  0  0  0  0  0  0  0  0
    1.1897   17.6383   42.8880 N   0  0  0  0  0  0  0  0  0  0  0  0
    1.1442   18.5179   43.9045 C   0  0  0  0  0  0  0  0  0  0  0  0
    0.6547   18.4284   45.1505 N   0  0  0  0  0  0  0  0  0  0  0  0
   -0.0026   17.2558   45.7353 C   0  0  0  0  0  0  0  0  0  0  0  0
    0.8218   19.4867   45.7580 N   0  0  0  0  0  0  0  0  0  0  0  0
    1.4115   20.3473   44.9119 C   0  0  0  0  0  0  0  0  0  0  0  0
    1.6455   19.7383   43.7418 C   0  0  0  0  0  0  0  0  0  0  0  0
    2.2152   20.0714   42.5510 C   0  0  0  0  0  0  0  0  0  0  0  0
    2.7392   21.3051   42.3517 N   0  0  0  0  0  0  0  0  0  0  0  0
    2.4982   18.4049   39.1972 H   0  0  0  0  0  0  0  0  0  0  0  0
    2.5670   16.7176   37.3680 H   0  0  0  0  0  0  0  0  0  0  0  0
    1.9025   14.3630   37.8199 H   0  0  0  0  0  0  0  0  0  0  0  0
    1.0886   15.3912   41.9467 H   0  0  0  0  0  0  0  0  0  0  0  0
    0.4741   17.0090   46.6954 H   0  0  0  0  0  0  0  0  0  0  0  0
   -1.0674   17.4767   45.9007 H   0  0  0  0  0  0  0  0  0  0  0  0
    0.0923   16.4017   45.0485 H   0  0  0  0  0  0  0  0  0  0  0  0
    1.6638   21.3924   45.1443 H   0  0  0  0  0  0  0  0  0  0  0  0
    2.7056   22.0068   43.1050 H   0  0  0  0  0  0  0  0  0  0  0  0
    3.1710   21.5412   41.4469 H   0  0  0  0  0  0  0  0  0  0  0  0
  1  2  2  0
  1  6  1  0
  2  3  1  0
  3  4  2  0
  4  5  1  0
  5  6  2  0
  6  7  1  0
  7  8  2  0
  7  9  1  0
  8 16  1  0
  9 10  2  0
 10 11  1  0
 10 15  1  0
 11 12  1  0
 11 13  1  0
 13 14  2  0
 14 15  1  0
 15 16  2  0
 16 17  1  0
  1 18  1  0
  2 19  1  0
  3 20  1  0
  5 21  1  0
 12 22  1  0
 12 23  1  0
 12 24  1  0
 14 25  1  0
 17 26  1  0
 17 27  1  0
M  END
>  <mol_id>  (29) 
2026-09-18-6fnk-s0-n100-r5-0029

>  <rmsd_to_ref>  (29) 
1.7397959183745861

>  <pose_kind>  (29) 
rigid

$$$$
6fnk.A
     RDKit          3D

 27 29  0  0  0  0  0  0  0  0999 V2000
    1.3103   15.1801   41.8789 C   0  0  0  0  0  0  0  0  0  0  0  0
    1.4590   13.8059   41.8334 C   0  0  0  0  0  0  0  0  0  0  0  0
    1.7286   13.0953   42.9833 C   0  0  0  0  0  0  0  0  0  0  0  0
    1.8576   13.7082   44.1937 N   0  0  0  0  0  0  0  0  0  0  0  0
    1.7164   15.0588   44.2688 C   0  0  0  0  0  0  0  0  0  0  0  0
    1.4427   15.7951   43.1113 C   0  0  0  0  0  0  0  0  0  0  0  0
    1.2860   17.2603   43.1715 C   0  0  0  0  0  0  0  0  0  0  0  0
    1.0226   17.9859   42.0696 N   0  0  0  0  0  0  0  0  0  0  0  0
    1.4089   17.8932   44.3586 N   0  0  0  0  0  0  0  0  0  0  0  0
    1.2747   19.2321   44.4685 C   0  0  0  0  0  0  0  0  0  0  0  0
    1.3387   20.1244   45.4762 N   0  0  0  0  0  0  0  0  0  0  0  0
    1.6017   19.8109   46.8607 C   0  0  0  0  0  0  0  0  0  0  0  0
    1.1232   21.3421   45.0069 N   0  0  0  0  0  0  0  0  0  0  0  0
    0.9140   21.2692   43.6821 C   0  0  0  0  0  0  0  0  0  0  0  0
    1.0034   19.9614   43.3205 C   0  0  0  0  0  0  0  0  0  0  0  0
    0.8728   19.3244   42.0839 C   0  0  0  0  0  0  0  0  0  0  0  0
    0.5984   20.0423   40.9100 N   0  0  0  0  0  0  0  0  0  0  0  0
    1.0959   15.7506   40.9680 H   0  0  0  0  0  0  0  0  0  0  0  0
    1.3507   13.3468   40.8553 H   0  0  0  0  0  0  0  0  0  0  0  0
    1.8435   12.0152   42.9355 H   0  0  0  0  0  0  0  0  0  0  0  0
    1.8177   15.5592   45.2323 H   0  0  0  0  0  0  0  0  0  0  0  0
    0.9958   20.5194   47.4726 H   0  0  0  0  0  0  0  0  0  0  0  0
    2.6684   20.0584   47.1299 H   0  0  0  0  0  0  0  0  0  0  0  0
    1.3211   18.8004   47.1508 H   0  0  0  0  0  0  0  0  0  0  0  0
    0.7147   22.1226   43.0589 H   0  0  0  0  0  0  0  0  0  0  0  0
    1.3065   20.7029   40.5060 H   0  0  0  0  0  0  0  0  0  0  0  0
   -0.3482   19.8848   40.4588 H   0  0  0  0  0  0  0  0  0  0  0  0
  1  2  2  0
  1  6  1  0
  2  3  1  0
  3  4  2  0
  4  5  1  0
  5  6  2  0
  6  7  1  0
  7  8  2  0
  7  9  1  0
  8 16  1  0
  9 10  2  0
 10 11  1  0
 10 15  1  0
 11 12  1  0
 11 13  1  0
 13 14  2  0
 14 15  1  0
 15 16  2  0
 16 17  1  0
  1 18  1  0
  2 19  1  0
  3 20  1  0
  5 21  1  0
 12 22  1  0
 12 23  1  0
 12 24  1  0
 14 25  1  0
 17 26  1  0
 17 27  1  0
M  END
>  <mol_id>  (30) 
2026-09-18-6fnk-s0-n100-r5-0030

>  <rmsd_to_ref>  (30) 
1.7857142857174226

>  <pose_kind>  (30) 
conformer

$$$$
6fnk.A
     RDKit          3D

 27 29  0  0  0  0  0  0  0  0999 V2000
    3.6556   17.0252   40.0953 C   0  0  0  0  0  0  0  0  0  0  0  0
    3.9572   16.1974   39.0137 C   0  0  0  0  0  0  0  0  0  0  0  0
    3.3390   14.9613   38.8939 C   0  0  0  0  0  0  0  0  0  0  0  0
    2.4120   14.5485   39.8549 N   0  0  0  0  0  0  0  0  0  0  0  0
    2.1118   15.3826   40.9425 C   0  0  0  0  0  0  0  0  0  0  0  0
    2.7336   16.6238   41.0650 C   0  0  0  0  0  0  0  0  0  0  0  0
    2.4341   17.4521   42.1514 C   0  0  0  0  0  0  0  0  0  0  0  0
    3.1418   18.5656   42.3865 N   0  0  0  0  0  0  0  0  0  0  0  0
    1.4237   17.1382   42.9686 N   0  0  0  0  0  0  0  0  0  0  0  0
    1.1113   17.9051   44.0283 C   0  0  0  0  0  0  0  0  0  0  0  0
    0.1712   17.7873   44.9783 N   0  0  0  0  0  0  0  0  0  0  0  0
   -0.8164   16.7090   45.0833 C   0  0  0  0  0  0  0  0  0  0  0  0
    0.2354   18.7289   45.7697 N   0  0  0  0  0  0  0  0  0  0  0  0
    1.2192   19.5411   45.3494 C   0  0  0  0  0  0  0  0  0  0  0  0
    1.8003   19.0179   44.2615 C   0  0  0  0  0  0  0  0  0  0  0  0
    2.8259   19.3530   43.4313 C   0  0  0  0  0  0  0  0  0  0  0  0
    3.5515   20.4780   43.6414 N   0  0  0  0  0  0  0  0  0  0  0  0
    4.1489   18.0042   40.1855 H   0  0  0  0  0  0  0  0  0  0  0  0
    4.6847   16.5245   38.2563 H   0  0  0  0  0  0  0  0  0  0  0  0
    3.5783   14.3064   38.0431 H   0  0  0  0  0  0  0  0  0  0  0  0
    1.3841   15.0562   41.7001 H   0  0  0  0  0  0  0  0  0  0  0  0
   -0.7867   16.2820   46.0966 H   0  0  0  0  0  0  0  0  0  0  0  0
   -1.8208   17.1111   44.8841 H   0  0  0  0  0  0  0  0  0  0  0  0
   -0.5828   15.9250   44.3480 H   0  0  0  0  0  0  0  0  0  0  0  0
    1.5041   20.4909   45.8256 H   0  0  0  0  0  0  0  0  0  0  0  0
    3.3270   21.0950   44.4350 H   0  0  0  0  0  0  0  0  0  0  0  0
    4.3275   20.7162   43.0074 H   0  0  0  0  0  0  0  0  0  0  0  0
  1  2  2  0
  1  6  1  0
  2  3  1  0
  3  4  2  0
  4  5  1  0
  5  6  2  0
  6  7  1  0
  7  8  2  0
  7  9  1  0
  8 16  1  0
  9 10  2  0
 10 11  1  0
 10 15  1  0
 11 12  1  0
 11 13  1  0
 13 14  2  0
 14 15  1  0
 15 16  2  0
 16 17  1  0
  1 18  1  0
  2 19  1  0
  3 20  1  0
  5 21  1  0
 12 22  1  0
 12 23  1  0
 12 24  1  0
 14 25  1  0
 17 26  1  0
 17 27  1  0
M  END
>  <mol_id>  (31) 
2026-09-18-6fnk-s0-n100-r5-0031

>  <rmsd_to_ref>  (31) 
1.8316326530613662

>  <pose_kind>  (31) 
rigid

$$$$
6fnk.A
     RDKit          3D

 27 29  0  0  0  0  0  0  0  0999 V2000
    3.2804   16.7866   40.5299 C   0  0  0  0  0  0  0  0  0  0  0  0
    4.3078   16.0535   39.9435 C   0  0  0  0  0  0  0  0  0  0  0  0
    4.9729   15.0640   40.6102 C   0  0  0  0  0  0  0  0  0  0  0  0
    4.6468   14.7589   41.8889 N   0  0  0  0  0  0  0  0  0  0  0  0
    3.6617   15.4448   42.4857 C   0  0  0  0  0  0  0  0  0  0  0  0
    2.9617   16.4601   41.8370 C   0  0  0  0  0  0  0  0  0  0  0  0
    1.8969   17.1793   42.5276 C   0  0  0  0  0  0  0  0  0  0  0  0
    1.1938   18.1739   41.9272 N   0  0  0  0  0  0  0  0  0  0  0  0
    1.5964   16.8593   43.7848 N   0  0  0  0  0  0  0  0  0  0  0  0
    0.6440   17.4490   44.5110 C   0  0  0  0  0  0  0  0  0  0  0  0
    0.2178   17.2523   45.7718 N   0  0  0  0  0  0  0  0  0  0  0  0
    0.7440   16.2622   46.7204 C   0  0  0  0  0  0  0  0  0  0  0  0
   -0.7586   18.1104   46.0013 N   0  0  0  0  0  0  0  0  0  0  0  0
   -0.9779   18.8742   44.8924 C   0  0  0  0  0  0  0  0  0  0  0  0
   -0.0858   18.4621   43.9272 C   0  0  0  0  0  0  0  0  0  0  0  0
    0.2073   18.8120   42.6241 C   0  0  0  0  0  0  0  0  0  0  0  0
   -0.5438   19.8576   42.0174 N   0  0  0  0  0  0  0  0  0  0  0  0
    2.7750   17.5597   39.9802 H   0  0  0  0  0  0  0  0  0  0  0  0
    4.6234   16.2481   38.9104 H   0  0  0  0  0  0  0  0  0  0  0  0
    5.7789   14.4732   40.1819 H   0  0  0  0  0  0  0  0  0  0  0  0
    3.3797   15.2216   43.5090 H   0  0  0  0  0  0  0  0  0  0  0  0
    1.5063   15.6494   46.1954 H   0  0  0  0  0  0  0  0  0  0  0  0
   -0.0514   15.5767   47.0723 H   0  0  0  0  0  0  0  0  0  0  0  0
    1.2847   16.7565   47.5620 H   0  0  0  0  0  0  0  0  0  0  0  0
   -1.6970   19.6544   44.7603 H   0  0  0  0  0  0  0  0  0  0  0  0
   -0.0225   20.6971   41.6798 H   0  0  0  0  0  0  0  0  0  0  0  0
   -1.5975   19.7944   41.9079 H   0  0  0  0  0  0  0  0  0  0  0  0
  1  2  2  0
  1  6  1  0
  2  3  1  0
  3  4  2  0
  4  5  1  0
  5  6  2  0
  6  7  1  0
  7  8  2  0
  7  9  1  0
  8 16  1  0
  9 10  2  0
 10 11  1  0
 10 15  1  0
 11 12  1  0
 11 13  1  0
 13 14  2  0
 14 15  1  0
 15 16  2  0
 16 17  1  0
  1 18  1  0
  2 19  1  0
  3 20  1  0
  5 21  1  0
 12 22  1  0
 12 23  1  0
 12 24  1  0
 14 25  1  0
 17 26  1  0
 17 27  1  0
M  END
>  <mol_id>  (32) 
2026-09-18-6fnk-s0-n100-r5-0032

>  <rmsd_to_ref>  (32) 
1.8775510204136538

>  <pose_kind>  (32) 
conformer

$$$$
6fnk.A
     RDKit          3D

 27 29  0  0  0  0  0  0  0  0999 V2000
    0.3656   16.0076   40.6523 C   0  0  0  0  0  0  0  0  0  0  0  0
    0.3446   14.8305   39.9040 C   0  0  0  0  0  0  0  0  0  0  0  0
    0.7641   13.6384   40.4761 C   0  0  0  0  0  0  0  0  0  0  0  0
    1.2037   13.6175   41.8026 N   0  0  0  0  0  0  0  0  0  0  0  0
    1.2252   14.8034   42.5523 C   0  0  0  0  0  0  0  0  0  0  0  0
    0.8058   16.0020   41.9780 C   0  0  0  0  0  0  0  0  0  0  0  0
    0.8306   17.1829   42.7270 C   0  0  0  0  0  0  0  0  0  0  0  0
    0.6015   18.3710   42.1508 N   0  0  0  0  0  0  0  0  0  0  0  0
    1.0794   17.1331   44.0395 N   0  0  0  0  0  0  0  0  0  0  0  0
    1.1201   18.2478   44.7910 C   0  0  0  0  0  0  0  0  0  0  0  0
    1.3613   18.4447   46.0961 N   0  0  0  0  0  0  0  0  0  0  0  0
    1.6538   17.4025   47.0846 C   0  0  0  0  0  0  0  0  0  0  0  0
    1.2957   19.6433   46.3721 N   0  0  0  0  0  0  0  0  0  0  0  0
    0.9706   20.2982   45.2454 C   0  0  0  0  0  0  0  0  0  0  0  0
    0.8819   19.4290   44.2297 C   0  0  0  0  0  0  0  0  0  0  0  0
    0.6184   19.4919   42.8955 C   0  0  0  0  0  0  0  0  0  0  0  0
    0.3746   20.6794   42.2900 N   0  0  0  0  0  0  0  0  0  0  0  0
    0.0321   16.9501   40.1935 H   0  0  0  0  0  0  0  0  0  0  0  0
   -0.0044   14.8475   38.8610 H   0  0  0  0  0  0  0  0  0  0  0  0
    0.7508   12.7101   39.8861 H   0  0  0  0  0  0  0  0  0  0  0  0
    1.5739   14.7871   43.5954 H   0  0  0  0  0  0  0  0  0  0  0  0
    2.5729   17.6623   47.6303 H   0  0  0  0  0  0  0  0  0  0  0  0
    0.8163   17.3239   47.7934 H   0  0  0  0  0  0  0  0  0  0  0  0
    1.7918   16.4391   46.5718 H   0  0  0  0  0  0  0  0  0  0  0  0
    0.8028   21.3826   45.1683 H   0  0  0  0  0  0  0  0  0  0  0  0
    0.3826   21.5497   42.8409 H   0  0  0  0  0  0  0  0  0  0  0  0
    0.1813   20.7118   41.2788 H   0  0  0  0  0  0  0  0  0  0  0  0
  1  2  2  0
  1  6  1  0
  2  3  1  0
  3  4  2  0
  4  5  1  0
  5  6  2  0
  6  7  1  0
  7  8  2  0
  7  9  1  0
  8 16  1  0
  9 10  2  0
 10 11  1  0
 10 15  1  0
 11 12  1  0
 11 13  1  0
 13 14  2  0
 14 15  1  0
 15 16  2  0
 16 17  1  0
  1 18  1  0
  2 19  1  0
  3 20  1  0
  5 21  1  0
 12 22  1  0
 12 23  1  0
 12 24  1  0
 14 25  1  0
 17 26  1  0
 17 27  1  0
M  END
>  <mol_id>  (33) 
2026-09-18-6fnk-s0-n100-r5-0033

>  <rmsd_to_ref>  (33) 
1.9234693877566866

>  <pose_kind>  (33) 
rigid

$$$$
6fnk.A
     RDKit          3D

 27 29  0  0  0  0  0  0  0  0999 V2000
    2.3243   15.1128   44.1578 C   0  0  0  0  0  0  0  0  0  0  0  0
    2.9002   13.8741   44.4445 C   0  0  0  0  0  0  0  0  0  0  0  0
    3.8909   13.3848   43.6178 C   0  0  0  0  0  0  0  0  0  0  0  0
    4.3191   14.0680   42.5411 N   0  0  0  0  0  0  0  0  0  0  0  0
    3.7776   15.2805   42.2331 C   0  0  0  0  0  0  0  0  0  0  0  0
    2.7793   15.7921   43.0512 C   0  0  0  0  0  0  0  0  0  0  0  0
    2.2191   17.0912   42.6966 C   0  0  0  0  0  0  0  0  0  0  0  0
    2.6753   17.7419   41.6115 N   0  0  0  0  0  0  0  0  0  0  0  0
    1.2490   17.6281   43.4597 N   0  0  0  0  0  0  0  0  0  0  0  0
    0.7034   18.8276   43.1672 C   0  0  0  0  0  0  0  0  0  0  0  0
   -0.2549   19.5751   43.7465 N   0  0  0  0  0  0  0  0  0  0  0  0
   -0.9994   19.2315   44.9397 C   0  0  0  0  0  0  0  0  0  0  0  0
   -0.4077   20.6757   43.0497 N   0  0  0  0  0  0  0  0  0  0  0  0
    0.4547   20.6678   41.9938 C   0  0  0  0  0  0  0  0  0  0  0  0
    1.1833   19.4814   42.0505 C   0  0  0  0  0  0  0  0  0  0  0  0
    2.1783   18.9598   41.2443 C   0  0  0  0  0  0  0  0  0  0  0  0
    2.6585   19.6481   40.0994 N   0  0  0  0  0  0  0  0  0  0  0  0
    1.5436   15.5123   44.7982 H   0  0  0  0  0  0  0  0  0  0  0  0
    2.5405   13.3352   45.3209 H   0  0  0  0  0  0  0  0  0  0  0  0
    4.3439   12.4358   43.8229 H   0  0  0  0  0  0  0  0  0  0  0  0
    4.1306   15.8318   41.3551 H   0  0  0  0  0  0  0  0  0  0  0  0
   -0.6411   19.8884   45.7725 H   0  0  0  0  0  0  0  0  0  0  0  0
   -0.8723   18.1632   45.2167 H   0  0  0  0  0  0  0  0  0  0  0  0
   -2.0941   19.4426   44.8324 H   0  0  0  0  0  0  0  0  0  0  0  0
    0.5538   21.4438   41.2478 H   0  0  0  0  0  0  0  0  0  0  0  0
    2.1133   19.5480   39.2188 H   0  0  0  0  0  0  0  0  0  0  0  0
    3.5269   20.2178   40.1894 H   0  0  0  0  0  0  0  0  0  0  0  0
  1  2  2  0
  1  6  1  0
  2  3  1  0
  3  4  2  0
  4  5  1  0
  5  6  2  0
  6  7  1  0
  7  8  2  0
  7  9  1  0
  8 16  1  0
  9 10  2  0
 10 11  1  0
 10 15  1  0
 11 12  1  0
 11 13  1  0
 13 14  2  0
 14 15  1  0
 15 16  2  0
 16 17  1  0
  1 18  1  0
  2 19  1  0
  3 20  1  0
  5 21  1  0
 12 22  1  0
 12 23  1  0
 12 24  1  0
 14 25  1  0
 17 26  1  0
 17 27  1  0
M  END
>  <mol_id>  (34) 
2026-09-18-6fnk-s0-n100-r5-0034

>  <rmsd_to_ref>  (34) 
1.969387755104897

>  <pose_kind>  (34) 
conformer

$$$$
6fnk.A
     RDKit          3D

 27 29  0  0  0  0  0  0  0  0999 V2000
    4.6207   17.8048   41.6307 C   0  0  0  0  0  0  0  0  0  0  0  0
    5.3581   16.9512   40.8101 C   0  0  0  0  0  0  0  0  0  0  0  0
    4.8017   15.7575   40.3742 C   0  0  0  0  0  0  0  0  0  0  0  0
    3.5016   15.4135   40.7546 N   0  0  0  0  0  0  0  0  0  0  0  0
    2.7628   16.2735   41.5813 C   0  0  0  0  0  0  0  0  0  0  0  0
    3.3214   17.4720   42.0214 C   0  0  0  0  0  0  0  0  0  0  0  0
    2.5835   18.3260   42.8473 C   0  0  0  0  0  0  0  0  0  0  0  0
    3.1545   19.3924   43.4243 N   0  0  0  0  0  0  0  0  0  0  0  0
    1.2865   18.0852   43.0641 N   0  0  0  0  0  0  0  0  0  0  0  0
    0.5465   18.8787   43.8588 C   0  0  0  0  0  0  0  0  0  0  0  0
   -0.7417   18.8297   44.2308 N   0  0  0  0  0  0  0  0  0  0  0  0
   -1.7198   17.8195   43.8164 C   0  0  0  0  0  0  0  0  0  0  0  0
   -1.0124   19.7708   44.9779 N   0  0  0  0  0  0  0  0  0  0  0  0
    0.0992   20.5136   45.1079 C   0  0  0  0  0  0  0  0  0  0  0  0
    1.1021   19.9454   44.4251 C   0  0  0  0  0  0  0  0  0  0  0  0
    2.4200   20.2063   44.2049 C   0  0  0  0  0  0  0  0  0  0  0  0
    3.0195   21.2828   44.7689 N   0  0  0  0  0  0  0  0  0  0  0  0
    5.0669   18.7500   41.9737 H   0  0  0  0  0  0  0  0  0  0  0  0
    6.3802   17.2243   40.5089 H   0  0  0  0  0  0  0  0  0  0  0  0
    5.3834   15.0822   39.7295 H   0  0  0  0  0  0  0  0  0  0  0  0
    1.7406   16.0011   41.8827 H   0  0  0  0  0  0  0  0  0  0  0  0
   -2.2117   17.3989   44.7058 H   0  0  0  0  0  0  0  0  0  0  0  0
   -2.4747   18.2852   43.1657 H   0  0  0  0  0  0  0  0  0  0  0  0
   -1.2071   17.0165   43.2667 H   0  0  0  0  0  0  0  0  0  0  0  0
    0.1746   21.4460   45.6867 H   0  0  0  0  0  0  0  0  0  0  0  0
    2.4762   21.9189   45.3698 H   0  0  0  0  0  0  0  0  0  0  0  0
    4.0186   21.4649   44.5968 H   0  0  0  0  0  0  0  0  0  0  0  0
  1  2  2  0
  1  6  1  0
  2  3  1  0
  3  4  2  0
  4  5  1  0
  5  6  2  0
  6  7  1  0
  7  8  2  0
  7  9  1  0
  8 16  1  0
  9 10  2  0
 10 11  1  0
 10 15  1  0
 11 12  1  0
 11 13  1  0
 13 14  2  0
 14 15  1  0
 15 16  2  0
 16 17  1  0
  1 18  1  0
  2 19  1  0
  3 20  1  0
  5 21  1  0
 12 22  1  0
 12 23  1  0
 12 24  1  0
 14 25  1  0
 17 26  1  0
 17 27  1  0
M  END
>  <mol_id>  (35) 
2026-09-18-6fnk-s0-n100-r5-0035

>  <rmsd_to_ref>  (35) 
2.0153061224522775

>  <pose_kind>  (35) 
rigid

$$$$
6fnk.A
     RDKit          3D

 27 29  0  0  0  0  0  0  0  0999 V2000
    0.8381   15.8578   39.9924 C   0  0  0  0  0  0  0  0  0  0  0  0
    0.7041   14.7487   39.1569 C   0  0  0  0  0  0  0  0  0  0  0  0
    0.8007   13.4637   39.6910 C   0  0  0  0  0  0  0  0  0  0  0  0
    1.0218   13.2642   41.0030 N   0  0  0  0  0  0  0  0  0  0  0  0
    1.1508   14.3312   41.8072 C   0  0  0  0  0  0  0  0  0  0  0  0
    1.0658   15.6280   41.3433 C   0  0  0  0  0  0  0  0  0  0  0  0
    1.2083   16.7895   42.2313 C   0  0  0  0  0  0  0  0  0  0  0  0
    1.1213   18.0439   41.7536 N   0  0  0  0  0  0  0  0  0  0  0  0
    1.4296   16.5988   43.5450 N   0  0  0  0  0  0  0  0  0  0  0  0
    1.5656   17.6495   44.3910 C   0  0  0  0  0  0  0  0  0  0  0  0
    1.7838   17.7997   45.6974 N   0  0  0  0  0  0  0  0  0  0  0  0
    1.9445   16.6989   46.6197 C   0  0  0  0  0  0  0  0  0  0  0  0
    1.8313   19.0980   46.0229 N   0  0  0  0  0  0  0  0  0  0  0  0
    1.6424   19.8424   44.9209 C   0  0  0  0  0  0  0  0  0  0  0  0
    1.4718   18.9319   43.8736 C   0  0  0  0  0  0  0  0  0  0  0  0
    1.2440   19.1419   42.5216 C   0  0  0  0  0  0  0  0  0  0  0  0
    1.1442   20.4429   41.9688 N   0  0  0  0  0  0  0  0  0  0  0  0
    0.7631   16.8493   39.5777 H   0  0  0  0  0  0  0  0  0  0  0  0
    0.5241   14.8959   38.0885 H   0  0  0  0  0  0  0  0  0  0  0  0
    0.6851   12.6514   38.9747 H   0  0  0  0  0  0  0  0  0  0  0  0
    1.3294   14.1387   42.8664 H   0  0  0  0  0  0  0  0  0  0  0  0
    1.1141   15.9875   46.4099 H   0  0  0  0  0  0  0  0  0  0  0  0
    2.8982   16.1628   46.4640 H   0  0  0  0  0  0  0  0  0  0  0  0
    1.8459   17.0805   47.6617 H   0  0  0  0  0  0  0  0  0  0  0  0
    1.6168   20.9187   44.8038 H   0  0  0  0  0  0  0  0  0  0  0  0
    0.2296   20.8865   41.7125 H   0  0  0  0  0  0  0  0  0  0  0  0
    2.0138   20.9946   41.8047 H   0  0  0  0  0  0  0  0  0  0  0  0
  1  2  2  0
  1  6  1  0
  2  3  1  0
  3  4  2  0
  4  5  1  0
  5  6  2  0
  6  7  1  0
  7  8  2  0
  7  9  1  0
  8 16  1  0
  9 10  2  0
 10 11  1  0
 10 15  1  0
 11 12  1  0
 11 13  1  0
 13 14  2  0
 14 15  1  0
 15 16  2  0
 16 17  1  0
  1 18  1  0
  2 19  1  0
  3 20  1  0
  5 21  1  0
 12 22  1  0
 12 23  1  0
 12 24  1  0
 14 25  1  0
 17 26  1  0
 17 27  1  0
M  END
>  <mol_id>  (36) 
2026-09-18-6fnk-s0-n100-r5-0036

>  <rmsd_to_ref>  (36) 
2.0612244898025227

>  <pose_kind>  (36) 
conformer

$$$$
6fnk.A
     RDKit          3D

 27 29  0  0  0  0  0  0  0  0999 V2000
    1.1587   16.6953   40.3583 C   0  0  0  0  0  0  0  0  0  0  0  0
    1.0547   15.4228   39.7963 C   0  0  0  0  0  0  0  0  0  0  0  0
    1.5720   14.3246   40.4677 C   0  0  0  0  0  0  0  0  0  0  0  0
    2.1934   14.4940   41.7081 N   0  0  0  0  0  0  0  0  0  0  0  0
    2.2980   15.7754   42.2701 C   0  0  0  0  0  0  0  0  0  0  0  0
    1.7803   16.8797   41.5956 C   0  0  0  0  0  0  0  0  0  0  0  0
    1.8881   18.1560   42.1572 C   0  0  0  0  0  0  0  0  0  0  0  0
    1.5589   19.2493   41.4554 N   0  0  0  0  0  0  0  0  0  0  0  0
    2.3192   18.2952   43.4149 N   0  0  0  0  0  0  0  0  0  0  0  0
    2.4443   19.5064   43.9862 C   0  0  0  0  0  0  0  0  0  0  0  0
    2.8623   19.8887   45.2025 N   0  0  0  0  0  0  0  0  0  0  0  0
    3.3094   18.9990   46.2783 C   0  0  0  0  0  0  0  0  0  0  0  0
    2.8140   21.1147   45.3110 N   0  0  0  0  0  0  0  0  0  0  0  0
    2.3223   21.6012   44.1596 C   0  0  0  0  0  0  0  0  0  0  0  0
    2.1082   20.5950   43.3013 C   0  0  0  0  0  0  0  0  0  0  0  0
    1.6594   20.4657   42.0225 C   0  0  0  0  0  0  0  0  0  0  0  0
    1.3114   21.5542   41.2942 N   0  0  0  0  0  0  0  0  0  0  0  0
    0.7470   17.5626   39.8214 H   0  0  0  0  0  0  0  0  0  0  0  0
    0.5628   15.2902   38.8214 H   0  0  0  0  0  0  0  0  0  0  0  0
    1.4932   13.3211   40.0242 H   0  0  0  0  0  0  0  0  0  0  0  0
    2.7895   15.9087   43.2451 H   0  0  0  0  0  0  0  0  0  0  0  0
    4.2909   19.3327   46.6460 H   0  0  0  0  0  0  0  0  0  0  0  0
    2.5810   19.0250   47.1022 H   0  0  0  0  0  0  0  0  0  0  0  0
    3.3918   17.9716   45.8940 H   0  0  0  0  0  0  0  0  0  0  0  0
    2.1255   22.6635   43.9530 H   0  0  0  0  0  0  0  0  0  0  0  0
    1.3805   22.4947   41.7084 H   0  0  0  0  0  0  0  0  0  0  0  0
    0.9778   21.4411   40.3263 H   0  0  0  0  0  0  0  0  0  0  0  0
  1  2  2  0
  1  6  1  0
  2  3  1  0
  3  4  2  0
  4  5  1  0
  5  6  2  0
  6  7  1  0
  7  8  2  0
  7  9  1  0
  8 16  1  0
  9 10  2  0
 10 11  1  0
 10 15  1  0
 11 12  1  0
 11 13  1  0
 13 14  2  0
 14 15  1  0
 15 16  2  0
 16 17  1  0
  1 18  1  0
  2 19  1  0
  3 20  1  0
  5 21  1  0
 12 22  1  0
 12 23  1  0
 12 24  1  0
 14 25  1  0
 17 26  1  0
 17 27  1  0
M  END
>  <mol_id>  (37) 
2026-09-18-6fnk-s0-n100-r5-0037

>  <rmsd_to_ref>  (37) 
2.1071428571438506

>  <pose_kind>  (37) 
rigid

$$$$
6fnk.A
     RDKit          3D

 27 29  0  0  0  0  0  0  0  0999 V2000
    2.9181   15.4100   42.4907 C   0  0  0  0  0  0  0  0  0  0  0  0
    3.7641   14.4477   42.9961 C   0  0  0  0  0  0  0  0  0  0  0  0
    3.7278   14.1089   44.3521 C   0  0  0  0  0  0  0  0  0  0  0  0
    2.8627   14.7164   45.1996 N   0  0  0  0  0  0  0  0  0  0  0  0
    2.0156   15.6707   44.7266 C   0  0  0  0  0  0  0  0  0  0  0  0
    2.0452   16.0117   43.3868 C   0  0  0  0  0  0  0  0  0  0  0  0
    1.1305   17.0452   42.8653 C   0  0  0  0  0  0  0  0  0  0  0  0
    1.1373   17.3984   41.5615 N   0  0  0  0  0  0  0  0  0  0  0  0
    0.2684   17.6528   43.7016 N   0  0  0  0  0  0  0  0  0  0  0  0
   -0.5909   18.6045   43.2814 C   0  0  0  0  0  0  0  0  0  0  0  0
   -1.5413   19.3653   43.8742 N   0  0  0  0  0  0  0  0  0  0  0  0
   -1.8955   19.3218   45.2797 C   0  0  0  0  0  0  0  0  0  0  0  0
   -2.1064   20.1644   42.9701 N   0  0  0  0  0  0  0  0  0  0  0  0
   -1.5444   19.9474   41.7758 C   0  0  0  0  0  0  0  0  0  0  0  0
   -0.5788   18.9608   41.9475 C   0  0  0  0  0  0  0  0  0  0  0  0
    0.2999   18.3469   41.0759 C   0  0  0  0  0  0  0  0  0  0  0  0
    0.3212   18.7066   39.6975 N   0  0  0  0  0  0  0  0  0  0  0  0
    2.9296   15.6908   41.4327 H   0  0  0  0  0  0  0  0  0  0  0  0
    4.4494   13.9720   42.3051 H   0  0  0  0  0  0  0  0  0  0  0  0
    4.3987   13.3478   44.7456 H   0  0  0  0  0  0  0  0  0  0  0  0
    1.3108   16.1675   45.4101 H   0  0  0  0  0  0  0  0  0  0  0  0
   -1.4204   20.2051   45.7679 H   0  0  0  0  0  0  0  0  0  0  0  0
   -1.5964   18.3664   45.7281 H   0  0  0  0  0  0  0  0  0  0  0  0
   -2.9972   19.4059   45.4287 H   0  0  0  0  0  0  0  0  0  0  0  0
   -1.8137   20.4657   40.8467 H   0  0  0  0  0  0  0  0  0  0  0  0
    0.8071   19.5855   39.4348 H   0  0  0  0  0  0  0  0  0  0  0  0
   -0.1367   18.1122   38.9502 H   0  0  0  0  0  0  0  0  0  0  0  0
  1  2  2  0
  1  6  1  0
  2  3  1  0
  3  4  2  0
  4  5  1  0
  5  6  2  0
  6  7  1  0
  7  8  2  0
  7  9  1  0
  8 16  1  0
  9 10  2  0
 10 11  1  0
 10 15  1  0
 11 12  1  0
 11 13  1  0
 13 14  2  0
 14 15  1  0
 15 16  2  0
 16 17  1  0
  1 18  1  0
  2 19  1  0
  3 20  1  0
  5 21  1  0
 12 22  1  0
 12 23  1  0
 12 24  1  0
 14 25  1  0
 17 26  1  0
 17 27  1  0
M  END
>  <mol_id>  (38) 
2026-09-18-6fnk-s0-n100-r5-0038

>  <rmsd_to_ref>  (38) 
2.153061224494662

>  <pose_kind>  (38) 
conformer

$$$$
6fnk.A
     RDKit          3D

 27 29  0  0  0  0  0  0  0  0999 V2000
    2.6751   16.0143   43.2200 C   0  0  0  0  0  0  0  0  0  0  0  0
    2.8211   14.6444   43.4395 C   0  0  0  0  0  0  0  0  0  0  0  0
    1.7300   13.8867   43.8389 C   0  0  0  0  0  0  0  0  0  0  0  0
    0.4849   14.4959   44.0173 N   0  0  0  0  0  0  0  0  0  0  0  0
    0.3414   15.8743   43.7973 C   0  0  0  0  0  0  0  0  0  0  0  0
    1.4373   16.6369   43.3978 C   0  0  0  0  0  0  0  0  0  0  0  0
    1.2918   18.0110   43.1815 C   0  0  0  0  0  0  0  0  0  0  0  0
    2.3589   18.7935   42.9695 N   0  0  0  0  0  0  0  0  0  0  0  0
    0.0722   18.5585   43.1784 N   0  0  0  0  0  0  0  0  0  0  0  0
   -0.1070   19.8770   42.9827 C   0  0  0  0  0  0  0  0  0  0  0  0
   -1.2099   20.6405   42.9531 N   0  0  0  0  0  0  0  0  0  0  0  0
   -2.5867   20.1719   43.1365 C   0  0  0  0  0  0  0  0  0  0  0  0
   -0.9159   21.8170   42.7373 N   0  0  0  0  0  0  0  0  0  0  0  0
    0.4168   21.8762   42.5804 C   0  0  0  0  0  0  0  0  0  0  0  0
    0.9452   20.6582   42.7593 C   0  0  0  0  0  0  0  0  0  0  0  0
    2.1917   20.1110   42.7513 C   0  0  0  0  0  0  0  0  0  0  0  0
    3.2867   20.8783   42.5304 N   0  0  0  0  0  0  0  0  0  0  0  0
    3.5437   16.6104   42.9035 H   0  0  0  0  0  0  0  0  0  0  0  0
    3.8009   14.1654   43.2959 H   0  0  0  0  0  0  0  0  0  0  0  0
    1.8446   12.8069   44.0152 H   0  0  0  0  0  0  0  0  0  0  0  0
   -0.6381   16.3539   43.9405 H   0  0  0  0  0  0  0  0  0  0  0  0
   -3.0806   20.7786   43.9097 H   0  0  0  0  0  0  0  0  0  0  0  0
   -3.1362   20.2682   42.1884 H   0  0  0  0  0  0  0  0  0  0  0  0
   -2.5766   19.1172   43.4488 H   0  0  0  0  0  0  0  0  0  0  0  0
    0.9872   22.7859   42.3415 H   0  0  0  0  0  0  0  0  0  0  0  0
    3.1818   21.8889   42.3612 H   0  0  0  0  0  0  0  0  0  0  0  0
    4.2238   20.4509   42.5317 H   0  0  0  0  0  0  0  0  0  0  0  0
  1  2  2  0
  1  6  1  0
  2  3  1  0
  3  4  2  0
  4  5  1  0
  5  6  2  0
  6  7  1  0
  7  8  2  0
  7  9  1  0
  8 16  1  0
  9 10  2  0
 10 11  1  0
 10 15  1  0
 11 12  1  0
 11 13  1  0
 13 14  2  0
 14 15  1  0
 15 16  2  0
 16 17  1  0
  1 18  1  0
  2 19  1  0
  3 20  1  0
  5 21  1  0
 12 22  1  0
 12 23  1  0
 12 24  1  0
 14 25  1  0
 17 26  1  0
 17 27  1  0
M  END
>  <mol_id>  (39) 
2026-09-18-6fnk-s0-n100-r5-0039

>  <rmsd_to_ref>  (39) 
2.1989795918387003

>  <pose_kind>  (39) 
rigid

$$$$
6fnk.A
     RDKit          3D

 27 29  0  0  0  0  0  0  0  0999 V2000
    2.3243   15.3808   43.8335 C   0  0  0  0  0  0  0  0  0  0  0  0
    2.8713   14.1465   44.1630 C   0  0  0  0  0  0  0  0  0  0  0  0
    4.2355   13.9585   43.9421 C   0  0  0  0  0  0  0  0  0  0  0  0
    5.0040   14.9554   43.4199 N   0  0  0  0  0  0  0  0  0  0  0  0
    4.4641   16.1530   43.1021 C   0  0  0  0  0  0  0  0  0  0  0  0
    3.1188   16.4005   43.2975 C   0  0  0  0  0  0  0  0  0  0  0  0
    2.5435   17.6973   42.9513 C   0  0  0  0  0  0  0  0  0  0  0  0
    3.3797   18.6169   42.4426 N   0  0  0  0  0  0  0  0  0  0  0  0
    1.2333   17.9079   43.1526 N   0  0  0  0  0  0  0  0  0  0  0  0
    0.7091   19.1141   42.8283 C   0  0  0  0  0  0  0  0  0  0  0  0
   -0.5207   19.6663   42.8893 N   0  0  0  0  0  0  0  0  0  0  0  0
   -1.6945   18.9838   43.3839 C   0  0  0  0  0  0  0  0  0  0  0  0
   -0.4677   20.9051   42.4310 N   0  0  0  0  0  0  0  0  0  0  0  0
    0.7950   21.2168   42.0514 C   0  0  0  0  0  0  0  0  0  0  0  0
    1.5282   20.0750   42.3082 C   0  0  0  0  0  0  0  0  0  0  0  0
    2.8532   19.8312   42.1159 C   0  0  0  0  0  0  0  0  0  0  0  0
    3.7279   20.8266   41.5717 N   0  0  0  0  0  0  0  0  0  0  0  0
    1.2956   15.6118   43.9678 H   0  0  0  0  0  0  0  0  0  0  0  0
    2.2398   13.3689   44.5771 H   0  0  0  0  0  0  0  0  0  0  0  0
    4.7009   12.9961   44.1908 H   0  0  0  0  0  0  0  0  0  0  0  0
    5.0887   16.9132   42.6957 H   0  0  0  0  0  0  0  0  0  0  0  0
   -1.4443   18.2710   44.1977 H   0  0  0  0  0  0  0  0  0  0  0  0
   -2.3861   19.7362   43.8409 H   0  0  0  0  0  0  0  0  0  0  0  0
   -2.1941   18.4093   42.5739 H   0  0  0  0  0  0  0  0  0  0  0  0
    1.1335   22.1525   41.6422 H   0  0  0  0  0  0  0  0  0  0  0  0
    4.5951   20.4932   41.0581 H   0  0  0  0  0  0  0  0  0  0  0  0
    3.5309   21.8580   41.6696 H   0  0  0  0  0  0  0  0  0  0  0  0
  1  2  2  0
  1  6  1  0
  2  3  1  0
  3  4  2  0
  4  5  1  0
  5  6  2  0
  6  7  1  0
  7  8  2  0
  7  9  1  0
  8 16  1  0
  9 10  2  0
 10 11  1  0
 10 15  1  0
 11 12  1  0
 11 13  1  0
 13 14  2  0
 14 15  1  0
 15 16  2  0
 16 17  1  0
  1 18  1  0
  2 19  1  0
  3 20  1  0
  5 21  1  0
 12 22  1  0
 12 23  1  0
 12 24  1  0
 14 25  1  0
 17 26  1  0
 17 27  1  0
M  END
>  <mol_id>  (40) 
2026-09-18-6fnk-s0-n100-r5-0040

>  <rmsd_to_ref>  (40) 
2.2448979591848546

>  <pose_kind>  (40) 
conformer

$$$$
6fnk.A
     RDKit          3D

 27 29  0  0  0  0  0  0  0  0999 V2000
    3.4251   15.2237   41.7067 C   0  0  0  0  0  0  0  0  0  0  0  0
    3.3622   13.8301   41.7049 C   0  0  0  0  0  0  0  0  0  0  0  0
    2.1431   13.1916   41.8795 C   0  0  0  0  0  0  0  0  0  0  0  0
    0.9790   13.9452   42.0532 N   0  0  0  0  0  0  0  0  0  0  0  0
    1.0457   15.3468   42.0561 C   0  0  0  0  0  0  0  0  0  0  0  0
    2.2701   15.9894   41.8827 C   0  0  0  0  0  0  0  0  0  0  0  0
    2.3338   17.3866   41.8884 C   0  0  0  0  0  0  0  0  0  0  0  0
    3.5126   18.0240   41.9000 N   0  0  0  0  0  0  0  0  0  0  0  0
    1.2058   18.1040   41.8755 N   0  0  0  0  0  0  0  0  0  0  0  0
    1.2268   19.4487   41.8893 C   0  0  0  0  0  0  0  0  0  0  0  0
    0.2456   20.3638   41.8963 N   0  0  0  0  0  0  0  0  0  0  0  0
   -1.1933   20.0836   41.8834 C   0  0  0  0  0  0  0  0  0  0  0  0
    0.7157   21.5022   41.9060 N   0  0  0  0  0  0  0  0  0  0  0  0
    2.0534   21.3851   41.8727 C   0  0  0  0  0  0  0  0  0  0  0  0
    2.3918   20.0889   41.8884 C   0  0  0  0  0  0  0  0  0  0  0  0
    3.5476   19.3694   41.8925 C   0  0  0  0  0  0  0  0  0  0  0  0
    4.7527   19.9892   41.8952 N   0  0  0  0  0  0  0  0  0  0  0  0
    4.3945   15.7249   41.5680 H   0  0  0  0  0  0  0  0  0  0  0  0
    4.2786   13.2380   41.5651 H   0  0  0  0  0  0  0  0  0  0  0  0
    2.0927   12.0927   41.8813 H   0  0  0  0  0  0  0  0  0  0  0  0
    0.1296   15.9395   42.1956 H   0  0  0  0  0  0  0  0  0  0  0  0
   -1.6808   20.6309   42.7036 H   0  0  0  0  0  0  0  0  0  0  0  0
   -1.6209   20.4057   40.9224 H   0  0  0  0  0  0  0  0  0  0  0  0
   -1.3578   19.0039   42.0144 H   0  0  0  0  0  0  0  0  0  0  0  0
    2.7627   22.2251   41.8379 H   0  0  0  0  0  0  0  0  0  0  0  0
    4.8027   21.0180   41.8896 H   0  0  0  0  0  0  0  0  0  0  0  0
    5.6186   19.4316   41.9029 H   0  0  0  0  0  0  0  0  0  0  0  0
  1  2  2  0
  1  6  1  0
  2  3  1  0
  3  4  2  0
  4  5  1  0
  5  6  2  0
  6  7  1  0
  7  8  2  0
  7  9  1  0
  8 16  1  0
  9 10  2  0
 10 11  1  0
 10 15  1  0
 11 12  1  0
 11 13  1  0
 13 14  2  0
 14 15  1  0
 15 16  2  0
 16 17  1  0
  1 18  1  0
  2 19  1  0
  3 20  1  0
  5 21  1  0
 12 22  1  0
 12 23  1  0
 12 24  1  0
 14 25  1  0
 17 26  1  0
 17 27  1  0
M  END
>  <mol_id>  (41) 
2026-09-18-6fnk-s0-n100-r5-0041

>  <rmsd_to_ref>  (41) 
2.290816326532833

>  <pose_kind>  (41) 
rigid

$$$$
6fnk.A
     RDKit          3D

 27 29  0  0  0  0  0  0  0  0999 V2000
    1.6880   15.8982   42.1498 C   0  0  0  0  0  0  0  0  0  0  0  0
    1.5527   14.6854   41.4836 C   0  0  0  0  0  0  0  0  0  0  0  0
    0.2680   14.2940   41.1692 C   0  0  0  0  0  0  0  0  0  0  0  0
   -0.7973   15.0533   41.4941 N   0  0  0  0  0  0  0  0  0  0  0  0
   -0.6582   16.2194   42.1354 C   0  0  0  0  0  0  0  0  0  0  0  0
    0.5970   16.6751   42.4822 C   0  0  0  0  0  0  0  0  0  0  0  0
    0.8245   17.9354   43.1815 C   0  0  0  0  0  0  0  0  0  0  0  0
    2.0863   18.3424   43.5025 N   0  0  0  0  0  0  0  0  0  0  0  0
   -0.2302   18.7197   43.5208 N   0  0  0  0  0  0  0  0  0  0  0  0
   -0.0693   19.8852   44.1634 C   0  0  0  0  0  0  0  0  0  0  0  0
   -0.8355   20.8703   44.6344 N   0  0  0  0  0  0  0  0  0  0  0  0
   -2.2823   20.9013   44.5352 C   0  0  0  0  0  0  0  0  0  0  0  0
   -0.0939   21.8194   45.2067 N   0  0  0  0  0  0  0  0  0  0  0  0
    1.2055   21.4873   45.1313 C   0  0  0  0  0  0  0  0  0  0  0  0
    1.2392   20.2699   44.4762 C   0  0  0  0  0  0  0  0  0  0  0  0
    2.3166   19.5006   44.1468 C   0  0  0  0  0  0  0  0  0  0  0  0
    3.6653   19.8341   44.4351 N   0  0  0  0  0  0  0  0  0  0  0  0
    2.6955   16.2508   42.4210 H   0  0  0  0  0  0  0  0  0  0  0  0
    2.4273   14.0863   41.2299 H   0  0  0  0  0  0  0  0  0  0  0  0
    0.1699   13.3474   40.6498 H   0  0  0  0  0  0  0  0  0  0  0  0
   -1.5342   16.8170   42.3882 H   0  0  0  0  0  0  0  0  0  0  0  0
   -2.6563   19.9785   45.0354 H   0  0  0  0  0  0  0  0  0  0  0  0
   -2.5447   20.9784   43.4694 H   0  0  0  0  0  0  0  0  0  0  0  0
   -2.6957   21.7761   45.1018 H   0  0  0  0  0  0  0  0  0  0  0  0
    2.0255   22.0506   45.5014 H   0  0  0  0  0  0  0  0  0  0  0  0
    4.2896   20.3532   43.7812 H   0  0  0  0  0  0  0  0  0  0  0  0
    4.0199   19.5181   45.3821 H   0  0  0  0  0  0  0  0  0  0  0  0
  1  2  2  0
  1  6  1  0
  2  3  1  0
  3  4  2  0
  4  5  1  0
  5  6  2  0
  6  7  1  0
  7  8  2  0
  7  9  1  0
  8 16  1  0
  9 10  2  0
 10 11  1  0
 10 15  1  0
 11 12  1  0
 11 13  1  0
 13 14  2  0
 14 15  1  0
 15 16  2  0
 16 17  1  0
  1 18  1  0
  2 19  1  0
  3 20  1  0
  5 21  1  0
 12 22  1  0
 12 23  1  0
 12 24  1  0
 14 25  1  0
 17 26  1  0
 17 27  1  0
M  END
>  <mol_id>  (42) 
2026-09-18-6fnk-s0-n100-r5-0042

>  <rmsd_to_ref>  (42) 
2.336734693879622

>  <pose_kind>  (42) 
conformer

$$$$
6fnk.A
     RDKit          3D

 27 29  0  0  0  0  0  0  0  0999 V2000
    3.0236   17.6590   39.8407 C   0  0  0  0  0  0  0  0  0  0  0  0
    3.7562   17.1317   38.7771 C   0  0  0  0  0  0  0  0  0  0  0  0
    4.4965   15.9718   38.9534 C   0  0  0  0  0  0  0  0  0  0  0  0
    4.5043   15.3309   40.1954 N   0  0  0  0  0  0  0  0  0  0  0  0
    3.7677   15.8645   41.2638 C   0  0  0  0  0  0  0  0  0  0  0  0
    3.0252   17.0308   41.0884 C   0  0  0  0  0  0  0  0  0  0  0  0
    2.2938   17.5616   42.1559 C   0  0  0  0  0  0  0  0  0  0  0  0
    1.7171   18.7679   42.0656 N   0  0  0  0  0  0  0  0  0  0  0  0
    2.1581   16.8579   43.2844 N   0  0  0  0  0  0  0  0  0  0  0  0
    1.4698   17.3387   44.3351 C   0  0  0  0  0  0  0  0  0  0  0  0
    1.2164   16.8334   45.5519 N   0  0  0  0  0  0  0  0  0  0  0  0
    1.6640   15.5307   46.0537 C   0  0  0  0  0  0  0  0  0  0  0  0
    0.5335   17.6174   46.2123 N   0  0  0  0  0  0  0  0  0  0  0  0
    0.2751   18.6804   45.4330 C   0  0  0  0  0  0  0  0  0  0  0  0
    0.8843   18.5291   44.2494 C   0  0  0  0  0  0  0  0  0  0  0  0
    1.0079   19.2515   43.1022 C   0  0  0  0  0  0  0  0  0  0  0  0
    0.4272   20.4700   42.9816 N   0  0  0  0  0  0  0  0  0  0  0  0
    2.4386   18.5791   39.6954 H   0  0  0  0  0  0  0  0  0  0  0  0
    3.7469   17.6354   37.7992 H   0  0  0  0  0  0  0  0  0  0  0  0
    5.0769   15.5568   38.1162 H   0  0  0  0  0  0  0  0  0  0  0  0
    3.7763   15.3613   42.2419 H   0  0  0  0  0  0  0  0  0  0  0  0
    2.1663   15.6641   47.0232 H   0  0  0  0  0  0  0  0  0  0  0  0
    0.7952   14.8679   46.1790 H   0  0  0  0  0  0  0  0  0  0  0  0
    2.3664   15.0828   45.3354 H   0  0  0  0  0  0  0  0  0  0  0  0
   -0.3425   19.5435   45.7224 H   0  0  0  0  0  0  0  0  0  0  0  0
   -0.1201   20.8592   43.7625 H   0  0  0  0  0  0  0  0  0  0  0  0
    0.5332   21.0069   42.1090 H   0  0  0  0  0  0  0  0  0  0  0  0
  1  2  2  0
  1  6  1  0
  2  3  1  0
  3  4  2  0
  4  5  1  0
  5  6  2  0
  6  7  1  0
  7  8  2  0
  7  9  1  0
  8 16  1  0
  9 10  2  0
 10 11  1  0
 10 15  1  0
 11 12  1  0
 11 13  1  0
 13 14  2  0
 14 15  1  0
 15 16  2  0
 16 17  1  0
  1 18  1  0
  2 19  1  0
  3 20  1  0
  5 21  1  0
 12 22  1  0
 12 23  1  0
 12 24  1  0
 14 25  1  0
 17 26  1  0
 17 27  1  0
M  END
>  <mol_id>  (43) 
2026-09-18-6fnk-s0-n100-r5-0043

>  <rmsd_to_ref>  (43) 
2.382653061228561

>  <pose_kind>  (43) 
rigid

$$$$
6fnk.A
     RDKit          3D

 27 29  0  0  0  0  0  0  0  0999 V2000
    3.5992   15.7156   41.1838 C   0  0  0  0  0  0  0  0  0  0  0  0
    4.7031   15.2036   40.5359 C   0  0  0  0  0  0  0  0  0  0  0  0
    5.5446   16.0824   39.8647 C   0  0  0  0  0  0  0  0  0  0  0  0
    5.3422   17.3974   39.8129 N   0  0  0  0  0  0  0  0  0  0  0  0
    4.2567   17.9286   40.4461 C   0  0  0  0  0  0  0  0  0  0  0  0
    3.3995   17.0848   41.1226 C   0  0  0  0  0  0  0  0  0  0  0  0
    2.2418   17.6640   41.7962 C   0  0  0  0  0  0  0  0  0  0  0  0
    2.0298   18.9924   41.7488 N   0  0  0  0  0  0  0  0  0  0  0  0
    1.3735   16.8784   42.4718 N   0  0  0  0  0  0  0  0  0  0  0  0
    0.2985   17.4327   43.0949 C   0  0  0  0  0  0  0  0  0  0  0  0
   -0.6945   16.8717   43.8204 N   0  0  0  0  0  0  0  0  0  0  0  0
   -0.8837   15.4548   44.1416 C   0  0  0  0  0  0  0  0  0  0  0  0
   -1.5247   17.8230   44.2285 N   0  0  0  0  0  0  0  0  0  0  0  0
   -1.0842   19.0272   43.7733 C   0  0  0  0  0  0  0  0  0  0  0  0
    0.0625   18.7924   43.0588 C   0  0  0  0  0  0  0  0  0  0  0  0
    0.9716   19.5883   42.3552 C   0  0  0  0  0  0  0  0  0  0  0  0
    0.7680   20.9732   42.2944 N   0  0  0  0  0  0  0  0  0  0  0  0
    2.9080   15.0640   41.7252 H   0  0  0  0  0  0  0  0  0  0  0  0
    4.8867   14.1322   40.5659 H   0  0  0  0  0  0  0  0  0  0  0  0
    6.4015   15.6017   39.3734 H   0  0  0  0  0  0  0  0  0  0  0  0
    4.1171   19.0031   40.3871 H   0  0  0  0  0  0  0  0  0  0  0  0
   -1.1303   15.3326   45.2288 H   0  0  0  0  0  0  0  0  0  0  0  0
   -1.7775   15.1096   43.5926 H   0  0  0  0  0  0  0  0  0  0  0  0
    0.0330   14.8825   43.8658 H   0  0  0  0  0  0  0  0  0  0  0  0
   -1.5414   20.0073   43.9343 H   0  0  0  0  0  0  0  0  0  0  0  0
    1.0982   21.6109   41.5549 H   0  0  0  0  0  0  0  0  0  0  0  0
    0.2203   21.4372   43.0790 H   0  0  0  0  0  0  0  0  0  0  0  0
  1  2  2  0
  1  6  1  0
  2  3  1  0
  3  4  2  0
  4  5  1  0
  5  6  2  0
  6  7  1  0
  7  8  2  0
  7  9  1  0
  8 16  1  0
  9 10  2  0
 10 11  1  0
 10 15  1  0
 11 12  1  0
 11 13  1  0
 13 14  2  0
 14 15  1  0
 15 16  2  0
 16 17  1  0
  1 18  1  0
  2 19  1  0
  3 20  1  0
  5 21  1  0
 12 22  1  0
 12 23  1  0
 12 24  1  0
 14 25  1  0
 17 26  1  0
 17 27  1  0
M  END
>  <mol_id>  (44) 
2026-09-18-6fnk-s0-n100-r5-0044

>  <rmsd_to_ref>  (44) 
2.4285714285727837

>  <pose_kind>  (44) 
conformer

$$$$
6fnk.A
     RDKit          3D

 27 29  0  0  0  0  0  0  0  0999 V2000
    2.6455   18.9836   40.6100 C   0  0  0  0  0  0  0  0  0  0  0  0
    3.4980   18.5485   39.5952 C   0  0  0  0  0  0  0  0  0  0  0  0
    3.8459   17.2083   39.5097 C   0  0  0  0  0  0  0  0  0  0  0  0
    3.3389   16.2951   40.4383 N   0  0  0  0  0  0  0  0  0  0  0  0
    2.4828   16.7359   41.4589 C   0  0  0  0  0  0  0  0  0  0  0  0
    2.1341   18.0823   41.5469 C   0  0  0  0  0  0  0  0  0  0  0  0
    1.2825   18.5191   42.5667 C   0  0  0  0  0  0  0  0  0  0  0  0
    1.0728   19.8257   42.7789 N   0  0  0  0  0  0  0  0  0  0  0  0
    0.6595   17.6255   43.3416 N   0  0  0  0  0  0  0  0  0  0  0  0
   -0.1598   18.0073   44.3375 C   0  0  0  0  0  0  0  0  0  0  0  0
   -0.8679   17.3086   45.2379 N   0  0  0  0  0  0  0  0  0  0  0  0
   -0.9194   15.8477   45.3468 C   0  0  0  0  0  0  0  0  0  0  0  0
   -1.4954   18.0674   45.9779 N   0  0  0  0  0  0  0  0  0  0  0  0
   -1.2486   19.3229   45.5692 C   0  0  0  0  0  0  0  0  0  0  0  0
   -0.3829   19.3010   44.5469 C   0  0  0  0  0  0  0  0  0  0  0  0
    0.2387   20.2206   43.7587 C   0  0  0  0  0  0  0  0  0  0  0  0
    0.0370   21.5474   43.9463 N   0  0  0  0  0  0  0  0  0  0  0  0
    2.3730   20.0474   40.6732 H   0  0  0  0  0  0  0  0  0  0  0  0
    3.8941   19.2677   38.8631 H   0  0  0  0  0  0  0  0  0  0  0  0
    4.5204   16.8647   38.7117 H   0  0  0  0  0  0  0  0  0  0  0  0
    2.0861   16.0172   42.1911 H   0  0  0  0  0  0  0  0  0  0  0  0
   -0.6993   15.5492   46.3824 H   0  0  0  0  0  0  0  0  0  0  0  0
   -1.9234   15.4944   45.0690 H   0  0  0  0  0  0  0  0  0  0  0  0
   -0.1742   15.4031   44.6708 H   0  0  0  0  0  0  0  0  0  0  0  0
   -1.6898   20.2304   46.0070 H   0  0  0  0  0  0  0  0  0  0  0  0
   -0.5972   21.8718   44.6903 H   0  0  0  0  0  0  0  0  0  0  0  0
    0.5179   22.2315   43.3450 H   0  0  0  0  0  0  0  0  0  0  0  0
  1  2  2  0
  1  6  1  0
  2  3  1  0
  3  4  2  0
  4  5  1  0
  5  6  2  0
  6  7  1  0
  7  8  2  0
  7  9  1  0
  8 16  1  0
  9 10  2  0
 10 11  1  0
 10 15  1  0
 11 12  1  0
 11 13  1  0
 13 14  2  0
 14 15  1  0
 15 16  2  0
 16 17  1  0
  1 18  1  0
  2 19  1  0
  3 20  1  0
  5 21  1  0
 12 22  1  0
 12 23  1  0
 12 24  1  0
 14 25  1  0
 17 26  1  0
 17 27  1  0
M  END
>  <mol_id>  (45) 
2026-09-18-6fnk-s0-n100-r5-0045

>  <rmsd_to_ref>  (45) 
2.474489795920531

>  <pose_kind>  (45) 
rigid

$$$$
6fnk.A
     RDKit          3D

 27 29  0  0  0  0  0  0  0  0999 V2000
    1.1440   15.0978   44.9039 C   0  0  0  0  0  0  0  0  0  0  0  0
    1.2226   13.7624   45.3084 C   0  0  0  0  0  0  0  0  0  0  0  0
    1.6306   12.7659   44.4462 C   0  0  0  0  0  0  0  0  0  0  0  0
    1.9633   13.0998   43.1711 N   0  0  0  0  0  0  0  0  0  0  0  0
    1.8968   14.3841   42.7520 C   0  0  0  0  0  0  0  0  0  0  0  0
    1.4914   15.3862   43.6027 C   0  0  0  0  0  0  0  0  0  0  0  0
    1.4336   16.7488   43.1154 C   0  0  0  0  0  0  0  0  0  0  0  0
    1.7771   17.0132   41.8390 N   0  0  0  0  0  0  0  0  0  0  0  0
    1.0394   17.7522   43.9279 N   0  0  0  0  0  0  0  0  0  0  0  0
    0.9715   19.0319   43.5156 C   0  0  0  0  0  0  0  0  0  0  0  0
    0.6255   20.2082   44.0816 N   0  0  0  0  0  0  0  0  0  0  0  0
    0.1895   20.3237   45.4764 C   0  0  0  0  0  0  0  0  0  0  0  0
    0.7434   21.1877   43.2000 N   0  0  0  0  0  0  0  0  0  0  0  0
    1.1751   20.6423   42.0339 C   0  0  0  0  0  0  0  0  0  0  0  0
    1.3308   19.2708   42.1992 C   0  0  0  0  0  0  0  0  0  0  0  0
    1.7389   18.2602   41.3441 C   0  0  0  0  0  0  0  0  0  0  0  0
    2.1029   18.5406   39.9912 N   0  0  0  0  0  0  0  0  0  0  0  0
    0.8356   15.8913   45.5356 H   0  0  0  0  0  0  0  0  0  0  0  0
    0.9587   13.5096   46.3136 H   0  0  0  0  0  0  0  0  0  0  0  0
    1.6910   11.7331   44.7604 H   0  0  0  0  0  0  0  0  0  0  0  0
    2.1664   14.6482   41.7220 H   0  0  0  0  0  0  0  0  0  0  0  0
   -0.6737   19.6305   45.6617 H   0  0  0  0  0  0  0  0  0  0  0  0
   -0.1772   21.3650   45.6298 H   0  0  0  0  0  0  0  0  0  0  0  0
    1.0343   20.1662   46.1758 H   0  0  0  0  0  0  0  0  0  0  0  0
    1.3598   21.1961   41.1420 H   0  0  0  0  0  0  0  0  0  0  0  0
    2.9620   19.1574   39.8803 H   0  0  0  0  0  0  0  0  0  0  0  0
    1.5740   18.1739   39.1685 H   0  0  0  0  0  0  0  0  0  0  0  0
  1  2  2  0
  1  6  1  0
  2  3  1  0
  3  4  2  0
  4  5  1  0
  5  6  2  0
  6  7  1  0
  7  8  2  0
  7  9  1  0
  8 16  1  0
  9 10  2  0
 10 11  1  0
 10 15  1  0
 11 12  1  0
 11 13  1  0
 13 14  2  0
 14 15  1  0
 15 16  2  0
 16 17  1  0
  1 18  1  0
  2 19  1  0
  3 20  1  0
  5 21  1  0
 12 22  1  0
 12 23  1  0
 12 24  1  0
 14 25  1  0
 17 26  1  0
 17 27  1  0
M  END
>  <mol_id>  (46) 
2026-09-18-6fnk-s0-n100-r5-0046

>  <rmsd_to_ref>  (46) 
2.520408163268982

>  <pose_kind>  (46) 
conformer

$$$$
6fnk.A
     RDKit          3D

 27 29  0  0  0  0  0  0  0  0999 V2000
    1.1382   16.7972   40.0380 C   0  0  0  0  0  0  0  0  0  0  0  0
    2.2086   16.2405   39.3378 C   0  0  0  0  0  0  0  0  0  0  0  0
    3.4611   16.1684   39.9298 C   0  0  0  0  0  0  0  0  0  0  0  0
    3.6481   16.6500   41.2284 N   0  0  0  0  0  0  0  0  0  0  0  0
    2.5699   17.2108   41.9297 C   0  0  0  0  0  0  0  0  0  0  0  0
    1.3116   17.2856   41.3353 C   0  0  0  0  0  0  0  0  0  0  0  0
    0.2393   17.8473   42.0358 C   0  0  0  0  0  0  0  0  0  0  0  0
   -0.9305   18.0905   41.4288 N   0  0  0  0  0  0  0  0  0  0  0  0
    0.3736   18.1428   43.3327 N   0  0  0  0  0  0  0  0  0  0  0  0
   -0.6319   18.6917   44.0373 C   0  0  0  0  0  0  0  0  0  0  0  0
   -0.7252   19.0817   45.3177 N   0  0  0  0  0  0  0  0  0  0  0  0
    0.3339   18.9846   46.3267 C   0  0  0  0  0  0  0  0  0  0  0  0
   -1.8459   19.5361   45.5510 N   0  0  0  0  0  0  0  0  0  0  0  0
   -2.5645   19.4341   44.4208 C   0  0  0  0  0  0  0  0  0  0  0  0
   -1.7995   18.9248   43.4460 C   0  0  0  0  0  0  0  0  0  0  0  0
   -1.9515   18.6200   42.1279 C   0  0  0  0  0  0  0  0  0  0  0  0
   -3.1266   18.8475   41.4925 N   0  0  0  0  0  0  0  0  0  0  0  0
    0.1473   16.8522   39.5637 H   0  0  0  0  0  0  0  0  0  0  0  0
    2.0597   15.8591   38.3169 H   0  0  0  0  0  0  0  0  0  0  0  0
    4.3066   15.7323   39.3775 H   0  0  0  0  0  0  0  0  0  0  0  0
    2.7181   17.5923   42.9507 H   0  0  0  0  0  0  0  0  0  0  0  0
    0.4727   19.9640   46.8079 H   0  0  0  0  0  0  0  0  0  0  0  0
    0.0504   18.2402   47.0854 H   0  0  0  0  0  0  0  0  0  0  0  0
    1.2731   18.6768   45.8440 H   0  0  0  0  0  0  0  0  0  0  0  0
   -3.6199   19.7243   44.3122 H   0  0  0  0  0  0  0  0  0  0  0  0
   -3.9211   19.2521   42.0083 H   0  0  0  0  0  0  0  0  0  0  0  0
   -3.2253   18.6159   40.4937 H   0  0  0  0  0  0  0  0  0  0  0  0
  1  2  2  0
  1  6  1  0
  2  3  1  0
  3  4  2  0
  4  5  1  0
  5  6  2  0
  6  7  1  0
  7  8  2  0
  7  9  1  0
  8 16  1  0
  9 10  2  0
 10 11  1  0
 10 15  1  0
 11 12  1  0
 11 13  1  0
 13 14  2  0
 14 15  1  0
 15 16  2  0
 16 17  1  0
  1 18  1  0
  2 19  1  0
  3 20  1  0
  5 21  1  0
 12 22  1  0
 12 23  1  0
 12 24  1  0
 14 25  1  0
 17 26  1  0
 17 27  1  0
M  END
>  <mol_id>  (47) 
2026-09-18-6fnk-s0-n100-r5-0047

>  <rmsd_to_ref>  (47) 
2.566326530615615

>  <pose_kind>  (47) 
rigid

$$$$
6fnk.A
     RDKit          3D

 27 29  0  0  0  0  0  0  0  0999 V2000
    0.3510   15.1572   42.4692 C   0  0  0  0  0  0  0  0  0  0  0  0
   -0.1293   13.8801   42.1960 C   0  0  0  0  0  0  0  0  0  0  0  0
    0.3539   13.1370   41.1404 C   0  0  0  0  0  0  0  0  0  0  0  0
    1.3201   13.6284   40.3269 N   0  0  0  0  0  0  0  0  0  0  0  0
    1.8050   14.8621   40.5662 C   0  0  0  0  0  0  0  0  0  0  0  0
    1.3399   15.6269   41.6148 C   0  0  0  0  0  0  0  0  0  0  0  0
    1.9038   16.9526   41.8215 C   0  0  0  0  0  0  0  0  0  0  0  0
    2.8612   17.3884   40.9818 N   0  0  0  0  0  0  0  0  0  0  0  0
    1.4928   17.7461   42.8253 N   0  0  0  0  0  0  0  0  0  0  0  0
    2.0246   18.9847   43.0127 C   0  0  0  0  0  0  0  0  0  0  0  0
    1.8073   19.9586   43.9071 N   0  0  0  0  0  0  0  0  0  0  0  0
    0.8534   19.9364   45.0141 C   0  0  0  0  0  0  0  0  0  0  0  0
    2.5985   20.9924   43.6552 N   0  0  0  0  0  0  0  0  0  0  0  0
    3.3659   20.7130   42.5696 C   0  0  0  0  0  0  0  0  0  0  0  0
    3.0036   19.4353   42.1573 C   0  0  0  0  0  0  0  0  0  0  0  0
    3.4253   18.6166   41.1244 C   0  0  0  0  0  0  0  0  0  0  0  0
    4.4375   19.0747   40.2348 N   0  0  0  0  0  0  0  0  0  0  0  0
   -0.0351   15.7135   43.2881 H   0  0  0  0  0  0  0  0  0  0  0  0
   -0.9058   13.4611   42.8341 H   0  0  0  0  0  0  0  0  0  0  0  0
   -0.0699   12.1460   40.9885 H   0  0  0  0  0  0  0  0  0  0  0  0
    2.5905   15.2646   39.9067 H   0  0  0  0  0  0  0  0  0  0  0  0
    0.6144   20.9587   45.3560 H   0  0  0  0  0  0  0  0  0  0  0  0
   -0.0433   19.3380   44.7445 H   0  0  0  0  0  0  0  0  0  0  0  0
    1.3545   19.4149   45.8609 H   0  0  0  0  0  0  0  0  0  0  0  0
    4.1073   21.3599   42.1223 H   0  0  0  0  0  0  0  0  0  0  0  0
    4.4389   18.8623   39.2126 H   0  0  0  0  0  0  0  0  0  0  0  0
    5.2437   19.6638   40.6005 H   0  0  0  0  0  0  0  0  0  0  0  0
  1  2  2  0
  1  6  1  0
  2  3  1  0
  3  4  2  0
  4  5  1  0
  5  6  2  0
  6  7  1  0
  7  8  2  0
  7  9  1  0
  8 16  1  0
  9 10  2  0
 10 11  1  0
 10 15  1  0
 11 12  1  0
 11 13  1  0
 13 14  2  0
 14 15  1  0
 15 16  2  0
 16 17  1  0
  1 18  1  0
  2 19  1  0
  3 20  1  0
  5 21  1  0
 12 22  1  0
 12 23  1  0
 12 24  1  0
 14 25  1  0
 17 26  1  0
 17 27  1  0
M  END
>  <mol_id>  (48) 
2026-09-18-6fnk-s0-n100-r5-0048

>  <rmsd_to_ref>  (48) 
2.612244897959849

>  <pose_kind>  (48) 
conformer

$$$$
6fnk.A
     RDKit          3D

 27 29  0  0  0  0  0  0  0  0999 V2000
    3.5707   15.5426   42.4563 C   0  0  0  0  0  0  0  0  0  0  0  0
    4.8233   15.0230   42.7836 C   0  0  0  0  0  0  0  0  0  0  0  0
    5.2813   15.0910   44.0913 C   0  0  0  0  0  0  0  0  0  0  0  0
    4.4856   15.6766   45.0799 N   0  0  0  0  0  0  0  0  0  0  0  0
    3.2268   16.1997   44.7473 C   0  0  0  0  0  0  0  0  0  0  0  0
    2.7664   16.1337   43.4336 C   0  0  0  0  0  0  0  0  0  0  0  0
    1.5123   16.6581   43.1047 C   0  0  0  0  0  0  0  0  0  0  0  0
    1.1223   16.7656   41.8270 N   0  0  0  0  0  0  0  0  0  0  0  0
    0.6817   17.0543   44.0743 N   0  0  0  0  0  0  0  0  0  0  0  0
   -0.5284   17.5716   43.7969 C   0  0  0  0  0  0  0  0  0  0  0  0
   -1.5074   18.0427   44.5841 N   0  0  0  0  0  0  0  0  0  0  0  0
   -1.4821   18.1004   46.0486 C   0  0  0  0  0  0  0  0  0  0  0  0
   -2.4624   18.4236   43.9057 N   0  0  0  0  0  0  0  0  0  0  0  0
   -2.1615   18.1859   42.6185 C   0  0  0  0  0  0  0  0  0  0  0  0
   -0.9279   17.6702   42.5328 C   0  0  0  0  0  0  0  0  0  0  0  0
   -0.0946   17.2619   41.5367 C   0  0  0  0  0  0  0  0  0  0  0  0
   -0.4681   17.3513   40.2371 N   0  0  0  0  0  0  0  0  0  0  0  0
    3.2127   15.4862   41.4177 H   0  0  0  0  0  0  0  0  0  0  0  0
    5.4474   14.5597   42.0053 H   0  0  0  0  0  0  0  0  0  0  0  0
    6.2700   14.6844   44.3500 H   0  0  0  0  0  0  0  0  0  0  0  0
    2.6020   16.6630   45.5252 H   0  0  0  0  0  0  0  0  0  0  0  0
   -1.7317   19.1193   46.3798 H   0  0  0  0  0  0  0  0  0  0  0  0
   -2.2181   17.3918   46.4563 H   0  0  0  0  0  0  0  0  0  0  0  0
   -0.4777   17.8335   46.4088 H   0  0  0  0  0  0  0  0  0  0  0  0
   -2.8263   18.3844   41.7649 H   0  0  0  0  0  0  0  0  0  0  0  0
   -1.3949   17.7281   39.9924 H   0  0  0  0  0  0  0  0  0  0  0  0
    0.1749   17.0426   39.4941 H   0  0  0  0  0  0  0  0  0  0  0  0
  1  2  2  0
  1  6  1  0
  2  3  1  0
  3  4  2  0
  4  5  1  0
  5  6  2  0
  6  7  1  0
  7  8  2  0
  7  9  1  0
  8 16  1  0
  9 10  2  0
 10 11  1  0
 10 15  1  0
 11 12  1  0
 11 13  1  0
 13 14  2  0
 14 15  1  0
 15 16  2  0
 16 17  1  0
  1 18  1  0
  2 19  1  0
  3 20  1  0
  5 21  1  0
 12 22  1  0
 12 23  1  0
 12 24  1  0
 14 25  1  0
 17 26  1  0
 17 27  1  0
M  END
>  <mol_id>  (49) 
2026-09-18-6fnk-s0-n100-r5-0049

>  <rmsd_to_ref>  (49) 
2.658163265308383

>  <pose_kind>  (49) 
rigid

$$$$
6fnk.A
     RDKit          3D

 27 29  0  0  0  0  0  0  0  0999 V2000
    0.4047   16.6990   41.0528 C   0  0  0  0  0  0  0  0  0  0  0  0
    0.5589   16.2137   39.7544 C   0  0  0  0  0  0  0  0  0  0  0  0
    1.6185   16.7070   39.0047 C   0  0  0  0  0  0  0  0  0  0  0  0
    2.4836   17.6203   39.4823 N   0  0  0  0  0  0  0  0  0  0  0  0
    2.3355   18.0884   40.7335 C   0  0  0  0  0  0  0  0  0  0  0  0
    1.2991   17.6378   41.5351 C   0  0  0  0  0  0  0  0  0  0  0  0
    1.1850   18.1786   42.8837 C   0  0  0  0  0  0  0  0  0  0  0  0
    2.0948   19.0880   43.2771 N   0  0  0  0  0  0  0  0  0  0  0  0
    0.1988   17.7794   43.7095 N   0  0  0  0  0  0  0  0  0  0  0  0
    0.0897   18.2748   44.9525 C   0  0  0  0  0  0  0  0  0  0  0  0
   -0.7705   18.0756   45.9909 N   0  0  0  0  0  0  0  0  0  0  0  0
   -1.8784   17.1506   45.9012 C   0  0  0  0  0  0  0  0  0  0  0  0
   -0.4077   18.8433   47.0123 N   0  0  0  0  0  0  0  0  0  0  0  0
    0.6803   19.5471   46.6635 C   0  0  0  0  0  0  0  0  0  0  0  0
    1.0150   19.2077   45.3696 C   0  0  0  0  0  0  0  0  0  0  0  0
    2.0222   19.6104   44.5157 C   0  0  0  0  0  0  0  0  0  0  0  0
    2.9983   20.5766   44.9175 N   0  0  0  0  0  0  0  0  0  0  0  0
   -0.4100   16.3348   41.6617 H   0  0  0  0  0  0  0  0  0  0  0  0
   -0.1075   15.4816   39.3254 H   0  0  0  0  0  0  0  0  0  0  0  0
    1.7333   16.3309   38.0064 H   0  0  0  0  0  0  0  0  0  0  0  0
    3.0581   18.8222   41.0705 H   0  0  0  0  0  0  0  0  0  0  0  0
   -2.7175   17.6002   45.3316 H   0  0  0  0  0  0  0  0  0  0  0  0
   -1.5856   16.1620   45.5359 H   0  0  0  0  0  0  0  0  0  0  0  0
   -2.2750   17.0379   46.9517 H   0  0  0  0  0  0  0  0  0  0  0  0
    1.2343   20.2612   47.2454 H   0  0  0  0  0  0  0  0  0  0  0  0
    3.5498   20.4375   45.8147 H   0  0  0  0  0  0  0  0  0  0  0  0
    3.1419   21.4108   44.2995 H   0  0  0  0  0  0  0  0  0  0  0  0
  1  2  2  0
  1  6  1  0
  2  3  1  0
  3  4  2  0
  4  5  1  0
  5  6  2  0
  6  7  1  0
  7  8  2  0
  7  9  1  0
  8 16  1  0
  9 10  2  0
 10 11  1  0
 10 15  1  0
 11 12  1  0
 11 13  1  0
 13 14  2  0
 14 15  1  0
 15 16  2  0
 16 17  1  0
  1 18  1  0
  2 19  1  0
  3 20  1  0
  5 21  1  0
 12 22  1  0
 12 23  1  0
 12 24  1  0
 14 25  1  0
 17 26  1  0
 17 27  1  0
M  END
>  <mol_id>  (50) 
2026-09-18-6fnk-s0-n100-r5-0050

>  <rmsd_to_ref>  (50) 
2.7040816326559476

>  <pose_kind>  (50) 
conformer

$$$$
6fnk.A
     RDKit          3D

 27 29  0  0  0  0  0  0  0  0999 V2000
    2.5326   16.7502   39.2685 C   0  0  0  0  0  0  0  0  0  0  0  0
    3.6620   16.4578   38.5038 C   0  0  0  0  0  0  0  0  0  0  0  0
    4.8334   16.0509   39.1257 C   0  0  0  0  0  0  0  0  0  0  0  0
    4.8794   15.9308   40.5173 N   0  0  0  0  0  0  0  0  0  0  0  0
    3.7422   16.2272   41.2841 C   0  0  0  0  0  0  0  0  0  0  0  0
    2.5654   16.6379   40.6606 C   0  0  0  0  0  0  0  0  0  0  0  0
    1.4343   16.9349   41.4276 C   0  0  0  0  0  0  0  0  0  0  0  0
    0.3516   17.4967   40.8725 N   0  0  0  0  0  0  0  0  0  0  0  0
    1.4230   16.6510   42.7339 N   0  0  0  0  0  0  0  0  0  0  0  0
    0.3573   16.9297   43.5056 C   0  0  0  0  0  0  0  0  0  0  0  0
    0.1247   16.7553   44.8154 N   0  0  0  0  0  0  0  0  0  0  0  0
    1.0541   16.1664   45.7841 C   0  0  0  0  0  0  0  0  0  0  0  0
   -1.0025   17.1540   45.1115 N   0  0  0  0  0  0  0  0  0  0  0  0
   -1.5853   17.5875   43.9817 C   0  0  0  0  0  0  0  0  0  0  0  0
   -0.7253   17.4756   42.9605 C   0  0  0  0  0  0  0  0  0  0  0  0
   -0.7294   17.7613   41.6294 C   0  0  0  0  0  0  0  0  0  0  0  0
   -1.8145   18.3212   41.0416 N   0  0  0  0  0  0  0  0  0  0  0  0
    1.6064   17.0727   38.7703 H   0  0  0  0  0  0  0  0  0  0  0  0
    3.6237   16.5497   37.4083 H   0  0  0  0  0  0  0  0  0  0  0  0
    5.7254   15.8229   38.5238 H   0  0  0  0  0  0  0  0  0  0  0  0
    3.7796   16.1352   42.3796 H   0  0  0  0  0  0  0  0  0  0  0  0
    1.1628   16.8420   46.6454 H   0  0  0  0  0  0  0  0  0  0  0  0
    0.6622   15.1970   46.1257 H   0  0  0  0  0  0  0  0  0  0  0  0
    2.0347   16.0184   45.3082 H   0  0  0  0  0  0  0  0  0  0  0  0
   -2.6120   17.9752   43.9063 H   0  0  0  0  0  0  0  0  0  0  0  0
   -2.6525   18.5320   41.6021 H   0  0  0  0  0  0  0  0  0  0  0  0
   -1.8012   18.5358   40.0343 H   0  0  0  0  0  0  0  0  0  0  0  0
  1  2  2  0
  1  6  1  0
  2  3  1  0
  3  4  2  0
  4  5  1  0
  5  6  2  0
  6  7  1  0
  7  8  2  0
  7  9  1  0
  8 16  1  0
  9 10  2  0
 10 11  1  0
 10 15  1  0
 11 12  1  0
 11 13  1  0
 13 14  2  0
 14 15  1  0
 15 16  2  0
 16 17  1  0
  1 18  1  0
  2 19  1  0
  3 20  1  0
  5 21  1  0
 12 22  1  0
 12 23  1  0
 12 24  1  0
 14 25  1  0
 17 26  1  0
 17 27  1  0
M  END
>  <mol_id>  (51) 
2026-09-18-6fnk-s0-n100-r5-0051

>  <rmsd_to_ref>  (51) 
2.7500000000018687

>  <pose_kind>  (51) 
rigid

$$$$
6fnk.A
     RDKit          3D

 27 29  0  0  0  0  0  0  0  0999 V2000
    0.3984   15.8441   43.4767 C   0  0  0  0  0  0  0  0  0  0  0  0
    0.4403   14.5839   44.0340 C   0  0  0  0  0  0  0  0  0  0  0  0
    1.3972   13.6873   43.5742 C   0  0  0  0  0  0  0  0  0  0  0  0
    2.2794   13.9800   42.6208 N   0  0  0  0  0  0  0  0  0  0  0  0
    2.2584   15.2205   42.0535 C   0  0  0  0  0  0  0  0  0  0  0  0
    1.3211   16.1364   42.4861 C   0  0  0  0  0  0  0  0  0  0  0  0
    1.3080   17.4602   41.8721 C   0  0  0  0  0  0  0  0  0  0  0  0
    2.1963   17.7644   40.9077 N   0  0  0  0  0  0  0  0  0  0  0  0
    0.4089   18.3915   42.2620 N   0  0  0  0  0  0  0  0  0  0  0  0
    0.4087   19.6215   41.6804 C   0  0  0  0  0  0  0  0  0  0  0  0
   -0.3735   20.7035   41.8912 N   0  0  0  0  0  0  0  0  0  0  0  0
   -1.4772   20.8436   42.8444 C   0  0  0  0  0  0  0  0  0  0  0  0
    0.0076   21.6799   41.0774 N   0  0  0  0  0  0  0  0  0  0  0  0
    1.0509   21.2481   40.3179 C   0  0  0  0  0  0  0  0  0  0  0  0
    1.3108   19.9540   40.6898 C   0  0  0  0  0  0  0  0  0  0  0  0
    2.2327   18.9777   40.3001 C   0  0  0  0  0  0  0  0  0  0  0  0
    3.1654   19.2752   39.2978 N   0  0  0  0  0  0  0  0  0  0  0  0
   -0.3363   16.5841   43.8053 H   0  0  0  0  0  0  0  0  0  0  0  0
   -0.2714   14.3246   44.8141 H   0  0  0  0  0  0  0  0  0  0  0  0
    1.3691   12.7049   44.0649 H   0  0  0  0  0  0  0  0  0  0  0  0
    2.9889   15.4309   41.2792 H   0  0  0  0  0  0  0  0  0  0  0  0
   -1.3924   21.8160   43.3967 H   0  0  0  0  0  0  0  0  0  0  0  0
   -2.4108   20.9140   42.2587 H   0  0  0  0  0  0  0  0  0  0  0  0
   -1.4788   19.9764   43.5458 H   0  0  0  0  0  0  0  0  0  0  0  0
    1.5932   21.8088   39.5517 H   0  0  0  0  0  0  0  0  0  0  0  0
    3.6267   18.6018   38.6683 H   0  0  0  0  0  0  0  0  0  0  0  0
    3.4420   20.2916   39.1521 H   0  0  0  0  0  0  0  0  0  0  0  0
  1  2  2  0
  1  6  1  0
  2  3  1  0
  3  4  2  0
  4  5  1  0
  5  6  2  0
  6  7  1  0
  7  8  2  0
  7  9  1  0
  8 16  1  0
  9 10  2  0
 10 11  1  0
 10 15  1  0
 11 12  1  0
 11 13  1  0
 13 14  2  0
 14 15  1  0
 15 16  2  0
 16 17  1  0
  1 18  1  0
  2 19  1  0
  3 20  1  0
  5 21  1  0
 12 22  1  0
 12 23  1  0
 12 24  1  0
 14 25  1  0
 17 26  1  0
 17 27  1  0
M  END
>  <mol_id>  (52) 
2026-09-18-6fnk-s0-n100-r5-0052

>  <rmsd_to_ref>  (52) 
2.7959183673478103

>  <pose_kind>  (52) 
conformer

$$$$
6fnk.A
     RDKit          3D

 27 29  0  0  0  0  0  0  0  0999 V2000
    2.4013   15.4853   43.1564 C   0  0  0  0  0  0  0  0  0  0  0  0
    3.3182   14.4903   42.8172 C   0  0  0  0  0  0  0  0  0  0  0  0
    4.6698   14.6798   43.0660 C   0  0  0  0  0  0  0  0  0  0  0  0
    5.1106   15.8658   43.6597 N   0  0  0  0  0  0  0  0  0  0  0  0
    4.1860   16.8655   43.9984 C   0  0  0  0  0  0  0  0  0  0  0  0
    2.8282   16.6770   43.7471 C   0  0  0  0  0  0  0  0  0  0  0  0
    1.9093   17.6763   44.0837 C   0  0  0  0  0  0  0  0  0  0  0  0
    0.6290   17.5960   43.6959 N   0  0  0  0  0  0  0  0  0  0  0  0
    2.3053   18.7274   44.8086 N   0  0  0  0  0  0  0  0  0  0  0  0
    1.4530   19.7121   45.1442 C   0  0  0  0  0  0  0  0  0  0  0  0
    1.6197   20.8492   45.8367 N   0  0  0  0  0  0  0  0  0  0  0  0
    2.8718   21.3136   46.4412 C   0  0  0  0  0  0  0  0  0  0  0  0
    0.5580   21.4692   45.9125 N   0  0  0  0  0  0  0  0  0  0  0  0
   -0.3801   20.7379   45.2886 C   0  0  0  0  0  0  0  0  0  0  0  0
    0.1785   19.6342   44.7741 C   0  0  0  0  0  0  0  0  0  0  0  0
   -0.2389   18.5643   44.0431 C   0  0  0  0  0  0  0  0  0  0  0  0
   -1.5298   18.4543   43.6459 N   0  0  0  0  0  0  0  0  0  0  0  0
    1.3308   15.3299   42.9566 H   0  0  0  0  0  0  0  0  0  0  0  0
    2.9698   13.5560   42.3527 H   0  0  0  0  0  0  0  0  0  0  0  0
    5.3940   13.8971   42.7962 H   0  0  0  0  0  0  0  0  0  0  0  0
    4.5337   17.7999   44.4631 H   0  0  0  0  0  0  0  0  0  0  0  0
    3.0734   22.3460   46.1197 H   0  0  0  0  0  0  0  0  0  0  0  0
    2.7839   21.2813   47.5372 H   0  0  0  0  0  0  0  0  0  0  0  0
    3.6977   20.6618   46.1202 H   0  0  0  0  0  0  0  0  0  0  0  0
   -1.4445   21.0045   45.2117 H   0  0  0  0  0  0  0  0  0  0  0  0
   -2.2109   19.1838   43.9006 H   0  0  0  0  0  0  0  0  0  0  0  0
   -1.8300   17.6412   43.0894 H   0  0  0  0  0  0  0  0  0  0  0  0
  1  2  2  0
  1  6  1  0
  2  3  1  0
  3  4  2  0
  4  5  1  0
  5  6  2  0
  6  7  1  0
  7  8  2  0
  7  9  1  0
  8 16  1  0
  9 10  2  0
 10 11  1  0
 10 15  1  0
 11 12  1  0
 11 13  1  0
 13 14  2  0
 14 15  1  0
 15 16  2  0
 16 17  1  0
  1 18  1  0
  2 19  1  0
  3 20  1  0
  5 21  1  0
 12 22  1  0
 12 23  1  0
 12 24  1  0
 14 25  1  0
 17 26  1  0
 17 27  1  0
M  END
>  <mol_id>  (53) 
2026-09-18-6fnk-s0-n100-r5-0053

>  <rmsd_to_ref>  (53) 
2.8418367346952698

>  <pose_kind>  (53) 
rigid

$$$$
6fnk.A
     RDKit          3D

 27 29  0  0  0  0  0  0  0  0999 V2000
    2.6288   15.1645   43.1646 C   0  0  0  0  0  0  0  0  0  0  0  0
    3.0315   13.8797   43.4558 C   0  0  0  0  0  0  0  0  0  0  0  0
    2.2662   12.7710   43.0886 C   0  0  0  0  0  0  0  0  0  0  0  0
    1.1049   12.9592   42.4332 N   0  0  0  0  0  0  0  0  0  0  0  0
    0.6639   14.1944   42.1233 C   0  0  0  0  0  0  0  0  0  0  0  0
    1.4175   15.3157   42.4834 C   0  0  0  0  0  0  0  0  0  0  0  0
    0.9960   16.6565   42.1788 C   0  0  0  0  0  0  0  0  0  0  0  0
    1.6795   17.7558   42.5010 N   0  0  0  0  0  0  0  0  0  0  0  0
   -0.1752   16.8238   41.5191 N   0  0  0  0  0  0  0  0  0  0  0  0
   -0.6692   18.0207   41.1817 C   0  0  0  0  0  0  0  0  0  0  0  0
   -1.7562   18.4787   40.5536 N   0  0  0  0  0  0  0  0  0  0  0  0
   -2.8093   17.6298   40.0129 C   0  0  0  0  0  0  0  0  0  0  0  0
   -1.7548   19.7986   40.4852 N   0  0  0  0  0  0  0  0  0  0  0  0
   -0.6270   20.2763   41.0869 C   0  0  0  0  0  0  0  0  0  0  0  0
    0.0554   19.1598   41.5247 C   0  0  0  0  0  0  0  0  0  0  0  0
    1.2507   18.9957   42.1976 C   0  0  0  0  0  0  0  0  0  0  0  0
    2.0294   20.1309   42.5708 N   0  0  0  0  0  0  0  0  0  0  0  0
    3.2063   16.0123   43.4411 H   0  0  0  0  0  0  0  0  0  0  0  0
    3.9806   13.7305   43.9910 H   0  0  0  0  0  0  0  0  0  0  0  0
    2.6002   11.7705   43.3266 H   0  0  0  0  0  0  0  0  0  0  0  0
   -0.2721   14.3399   41.5954 H   0  0  0  0  0  0  0  0  0  0  0  0
   -2.3467   16.9217   39.3239 H   0  0  0  0  0  0  0  0  0  0  0  0
   -3.5961   18.1995   39.5165 H   0  0  0  0  0  0  0  0  0  0  0  0
   -3.2136   17.0100   40.8658 H   0  0  0  0  0  0  0  0  0  0  0  0
   -0.3176   21.3074   41.2047 H   0  0  0  0  0  0  0  0  0  0  0  0
    1.5951   20.8393   43.2026 H   0  0  0  0  0  0  0  0  0  0  0  0
    3.0030   20.2521   42.2246 H   0  0  0  0  0  0  0  0  0  0  0  0
  1  2  2  0
  1  6  1  0
  2  3  1  0
  3  4  2  0
  4  5  1  0
  5  6  2  0
  6  7  1  0
  7  8  2  0
  7  9  1  0
  8 16  1  0
  9 10  2  0
 10 11  1  0
 10 15  1  0
 11 12  1  0
 11 13  1  0
 13 14  2  0
 14 15  1  0
 15 16  2  0
 16 17  1  0
  1 18  1  0
  2 19  1  0
  3 20  1  0
  5 21  1  0
 12 22  1  0
 12 23  1  0
 12 24  1  0
 14 25  1  0
 17 26  1  0
 17 27  1  0
M  END
>  <mol_id>  (54) 
2026-09-18-6fnk-s0-n100-r5-0054

>  <rmsd_to_ref>  (54) 
2.887755102044487

>  <pose_kind>  (54) 
conformer

$$$$
6fnk.A
     RDKit          3D

 27 29  0  0  0  0  0  0  0  0999 V2000
    3.5268   18.2439   42.4444 C   0  0  0  0  0  0  0  0  0  0  0  0
    4.9006   18.0037   42.4754 C   0  0  0  0  0  0  0  0  0  0  0  0
    5.4297   17.1277   43.4120 C   0  0  0  0  0  0  0  0  0  0  0  0
    4.5853   16.4842   44.3209 N   0  0  0  0  0  0  0  0  0  0  0  0
    3.2041   16.7290   44.2883 C   0  0  0  0  0  0  0  0  0  0  0  0
    2.6716   17.6102   43.3491 C   0  0  0  0  0  0  0  0  0  0  0  0
    1.2947   17.8541   43.3206 C   0  0  0  0  0  0  0  0  0  0  0  0
    0.7808   18.8226   42.5499 N   0  0  0  0  0  0  0  0  0  0  0  0
    0.4717   17.1096   44.0659 N   0  0  0  0  0  0  0  0  0  0  0  0
   -0.8567   17.3199   44.0715 C   0  0  0  0  0  0  0  0  0  0  0  0
   -1.8591   16.7244   44.7355 N   0  0  0  0  0  0  0  0  0  0  0  0
   -1.7248   15.6119   45.6805 C   0  0  0  0  0  0  0  0  0  0  0  0
   -2.9393   17.2361   44.4379 N   0  0  0  0  0  0  0  0  0  0  0  0
   -2.6946   18.1885   43.5228 C   0  0  0  0  0  0  0  0  0  0  0  0
   -1.3760   18.2703   43.3006 C   0  0  0  0  0  0  0  0  0  0  0  0
   -0.5490   19.0294   42.5303 C   0  0  0  0  0  0  0  0  0  0  0  0
   -1.0437   20.0090   41.7354 N   0  0  0  0  0  0  0  0  0  0  0  0
    3.1126   18.9396   41.6998 H   0  0  0  0  0  0  0  0  0  0  0  0
    5.5639   18.5084   41.7576 H   0  0  0  0  0  0  0  0  0  0  0  0
    6.5132   16.9398   43.4392 H   0  0  0  0  0  0  0  0  0  0  0  0
    2.5402   16.2244   45.0057 H   0  0  0  0  0  0  0  0  0  0  0  0
   -2.2355   15.8660   46.6211 H   0  0  0  0  0  0  0  0  0  0  0  0
   -2.1791   14.7076   45.2493 H   0  0  0  0  0  0  0  0  0  0  0  0
   -0.6590   15.4271   45.8803 H   0  0  0  0  0  0  0  0  0  0  0  0
   -3.4600   18.8067   43.0310 H   0  0  0  0  0  0  0  0  0  0  0  0
   -2.0582   20.1845   41.7050 H   0  0  0  0  0  0  0  0  0  0  0  0
   -0.4053   20.5782   41.1615 H   0  0  0  0  0  0  0  0  0  0  0  0
  1  2  2  0
  1  6  1  0
  2  3  1  0
  3  4  2  0
  4  5  1  0
  5  6  2  0
  6  7  1  0
  7  8  2  0
  7  9  1  0
  8 16  1  0
  9 10  2  0
 10 11  1  0
 10 15  1  0
 11 12  1  0
 11 13  1  0
 13 14  2  0
 14 15  1  0
 15 16  2  0
 16 17  1  0
  1 18  1  0
  2 19  1  0
  3 20  1  0
  5 21  1  0
 12 22  1  0
 12 23  1  0
 12 24  1  0
 14 25  1  0
 17 26  1  0
 17 27  1  0
M  END
>  <mol_id>  (55) 
2026-09-18-6fnk-s0-n100-r5-0055

>  <rmsd_to_ref>  (55) 
2.9336734693890514

>  <pose_kind>  (55) 
rigid

$$$$
6fnk.A
     RDKit          3D

 27 29  0  0  0  0  0  0  0  0999 V2000
    2.1467   17.5937   38.8105 C   0  0  0  0  0  0  0  0  0  0  0  0
    2.7474   17.0453   37.6866 C   0  0  0  0  0  0  0  0  0  0  0  0
    4.0129   16.4928   37.8278 C   0  0  0  0  0  0  0  0  0  0  0  0
    4.6541   16.4819   39.0191 N   0  0  0  0  0  0  0  0  0  0  0  0
    4.0534   17.0189   40.0956 C   0  0  0  0  0  0  0  0  0  0  0  0
    2.7986   17.5872   40.0406 C   0  0  0  0  0  0  0  0  0  0  0  0
    2.1510   18.1694   41.2146 C   0  0  0  0  0  0  0  0  0  0  0  0
    0.9178   18.7277   41.1598 N   0  0  0  0  0  0  0  0  0  0  0  0
    2.8345   18.1330   42.3818 N   0  0  0  0  0  0  0  0  0  0  0  0
    2.3485   18.6352   43.5348 C   0  0  0  0  0  0  0  0  0  0  0  0
    2.7881   18.7365   44.8043 N   0  0  0  0  0  0  0  0  0  0  0  0
    4.0749   18.2564   45.2879 C   0  0  0  0  0  0  0  0  0  0  0  0
    1.8599   19.3471   45.5555 N   0  0  0  0  0  0  0  0  0  0  0  0
    0.7829   19.6617   44.7874 C   0  0  0  0  0  0  0  0  0  0  0  0
    1.0785   19.2145   43.4964 C   0  0  0  0  0  0  0  0  0  0  0  0
    0.3783   19.2501   42.2940 C   0  0  0  0  0  0  0  0  0  0  0  0
   -0.9188   19.8428   42.2589 N   0  0  0  0  0  0  0  0  0  0  0  0
    1.1524   18.0246   38.6863 H   0  0  0  0  0  0  0  0  0  0  0  0
    2.2362   17.0487   36.7149 H   0  0  0  0  0  0  0  0  0  0  0  0
    4.4951   16.0587   36.9511 H   0  0  0  0  0  0  0  0  0  0  0  0
    4.5384   17.0276   41.0672 H   0  0  0  0  0  0  0  0  0  0  0  0
    4.7749   18.2028   44.4079 H   0  0  0  0  0  0  0  0  0  0  0  0
    4.0202   17.2129   45.6767 H   0  0  0  0  0  0  0  0  0  0  0  0
    4.5595   18.9257   46.0080 H   0  0  0  0  0  0  0  0  0  0  0  0
   -0.1286   20.1608   45.1067 H   0  0  0  0  0  0  0  0  0  0  0  0
   -1.7949   19.2744   42.3495 H   0  0  0  0  0  0  0  0  0  0  0  0
   -1.0726   20.8741   42.1414 H   0  0  0  0  0  0  0  0  0  0  0  0
  1  2  2  0
  1  6  1  0
  2  3  1  0
  3  4  2  0
  4  5  1  0
  5  6  2  0
  6  7  1  0
  7  8  2  0
  7  9  1  0
  8 16  1  0
  9 10  2  0
 10 11  1  0
 10 15  1  0
 11 12  1  0
 11 13  1  0
 13 14  2  0
 14 15  1  0
 15 16  2  0
 16 17  1  0
  1 18  1  0
  2 19  1  0
  3 20  1  0
  5 21  1  0
 12 22  1  0
 12 23  1  0
 12 24  1  0
 14 25  1  0
 17 26  1  0
 17 27  1  0
M  END
>  <mol_id>  (56) 
2026-09-18-6fnk-s0-n100-r5-0056

>  <rmsd_to_ref>  (56) 
2.979591836739455

>  <pose_kind>  (56) 
conformer

$$$$
6fnk.A
     RDKit          3D

 27 29  0  0  0  0  0  0  0  0999 V2000
    0.5994   14.5329   40.4727 C   0  0  0  0  0  0  0  0  0  0  0  0
   -0.2486   13.4434   40.2734 C   0  0  0  0  0  0  0  0  0  0  0  0
   -1.4194   13.3330   41.0093 C   0  0  0  0  0  0  0  0  0  0  0  0
   -1.7497   14.3155   41.9467 N   0  0  0  0  0  0  0  0  0  0  0  0
   -0.8940   15.4095   42.1461 C   0  0  0  0  0  0  0  0  0  0  0  0
    0.2834   15.5205   41.4088 C   0  0  0  0  0  0  0  0  0  0  0  0
    1.1355   16.6109   41.6115 C   0  0  0  0  0  0  0  0  0  0  0  0
    2.3505   16.6519   41.0475 N   0  0  0  0  0  0  0  0  0  0  0  0
    0.7364   17.6346   42.3729 N   0  0  0  0  0  0  0  0  0  0  0  0
    1.5309   18.6962   42.5979 C   0  0  0  0  0  0  0  0  0  0  0  0
    1.3584   19.8114   43.3237 N   0  0  0  0  0  0  0  0  0  0  0  0
    0.1624   20.1592   44.0968 C   0  0  0  0  0  0  0  0  0  0  0  0
    2.3540   20.5330   43.2514 N   0  0  0  0  0  0  0  0  0  0  0  0
    3.2305   19.9280   42.4330 C   0  0  0  0  0  0  0  0  0  0  0  0
    2.7327   18.7505   42.0323 C   0  0  0  0  0  0  0  0  0  0  0  0
    3.1471   17.7181   41.2475 C   0  0  0  0  0  0  0  0  0  0  0  0
    4.3673   17.7387   40.6583 N   0  0  0  0  0  0  0  0  0  0  0  0
    1.5266   14.6153   39.8867 H   0  0  0  0  0  0  0  0  0  0  0  0
    0.0109   12.6722   39.5332 H   0  0  0  0  0  0  0  0  0  0  0  0
   -2.0873   12.4728   40.8550 H   0  0  0  0  0  0  0  0  0  0  0  0
   -1.1531   16.1812   42.8860 H   0  0  0  0  0  0  0  0  0  0  0  0
    0.4532   20.4178   45.1257 H   0  0  0  0  0  0  0  0  0  0  0  0
   -0.3384   21.0201   43.6299 H   0  0  0  0  0  0  0  0  0  0  0  0
   -0.5250   19.3006   44.1149 H   0  0  0  0  0  0  0  0  0  0  0  0
    4.2079   20.3369   42.1370 H   0  0  0  0  0  0  0  0  0  0  0  0
    4.9931   18.5448   40.7979 H   0  0  0  0  0  0  0  0  0  0  0  0
    4.6689   16.9482   40.0709 H   0  0  0  0  0  0  0  0  0  0  0  0
  1  2  2  0
  1  6  1  0
  2  3  1  0
  3  4  2  0
  4  5  1  0
  5  6  2  0
  6  7  1  0
  7  8  2  0
  7  9  1  0
  8 16  1  0
  9 10  2  0
 10 11  1  0
 10 15  1  0
 11 12  1  0
 11 13  1  0
 13 14  2  0
 14 15  1  0
 15 16  2  0
 16 17  1  0
  1 18  1  0
  2 19  1  0
  3 20  1  0
  5 21  1  0
 12 22  1  0
 12 23  1  0
 12 24  1  0
 14 25  1  0
 17 26  1  0
 17 27  1  0
M  END
>  <mol_id>  (57) 
2026-09-18-6fnk-s0-n100-r5-0057

>  <rmsd_to_ref>  (57) 
3.0255102040858417

>  <pose_kind>  (57) 
rigid

$$$$
6fnk.A
     RDKit          3D

 27 29  0  0  0  0  0  0  0  0999 V2000
   -1.4330   15.4221   41.0838 C   0  0  0  0  0  0  0  0  0  0  0  0
   -2.0252   14.2575   40.6410 C   0  0  0  0  0  0  0  0  0  0  0  0
   -1.2790   13.1038   40.4057 C   0  0  0  0  0  0  0  0  0  0  0  0
    0.0493   13.1301   40.6163 N   0  0  0  0  0  0  0  0  0  0  0  0
    0.6596   14.2699   41.0543 C   0  0  0  0  0  0  0  0  0  0  0  0
   -0.0675   15.4183   41.2910 C   0  0  0  0  0  0  0  0  0  0  0  0
    0.6059   16.6245   41.7587 C   0  0  0  0  0  0  0  0  0  0  0  0
    1.9255   16.6339   41.9628 N   0  0  0  0  0  0  0  0  0  0  0  0
   -0.1084   17.7422   41.9880 N   0  0  0  0  0  0  0  0  0  0  0  0
    0.5046   18.8593   42.4195 C   0  0  0  0  0  0  0  0  0  0  0  0
   -0.0100   20.0685   42.7070 N   0  0  0  0  0  0  0  0  0  0  0  0
   -1.4009   20.5021   42.6261 C   0  0  0  0  0  0  0  0  0  0  0  0
    0.9828   20.8518   43.0954 N   0  0  0  0  0  0  0  0  0  0  0  0
    2.1522   20.1536   43.0624 C   0  0  0  0  0  0  0  0  0  0  0  0
    1.8664   18.8758   42.6322 C   0  0  0  0  0  0  0  0  0  0  0  0
    2.5888   17.7232   42.3935 C   0  0  0  0  0  0  0  0  0  0  0  0
    3.9953   17.7421   42.6137 N   0  0  0  0  0  0  0  0  0  0  0  0
   -2.0364   16.3161   41.2624 H   0  0  0  0  0  0  0  0  0  0  0  0
   -3.0968   14.2943   40.4888 H   0  0  0  0  0  0  0  0  0  0  0  0
   -1.7921   12.1984   40.0534 H   0  0  0  0  0  0  0  0  0  0  0  0
    1.7306   14.2028   41.1974 H   0  0  0  0  0  0  0  0  0  0  0  0
   -1.7121   20.9621   43.5882 H   0  0  0  0  0  0  0  0  0  0  0  0
   -2.0533   19.6252   42.4711 H   0  0  0  0  0  0  0  0  0  0  0  0
   -1.5846   21.2054   41.7881 H   0  0  0  0  0  0  0  0  0  0  0  0
    3.1438   20.4864   43.3143 H   0  0  0  0  0  0  0  0  0  0  0  0
    4.5028   17.1447   43.2692 H   0  0  0  0  0  0  0  0  0  0  0  0
    4.5393   18.4468   42.0340 H   0  0  0  0  0  0  0  0  0  0  0  0
  1  2  2  0
  1  6  1  0
  2  3  1  0
  3  4  2  0
  4  5  1  0
  5  6  2  0
  6  7  1  0
  7  8  2  0
  7  9  1  0
  8 16  1  0
  9 10  2  0
 10 11  1  0
 10 15  1  0
 11 12  1  0
 11 13  1  0
 13 14  2  0
 14 15  1  0
 15 16  2  0
 16 17  1  0
  1 18  1  0
  2 19  1  0
  3 20  1  0
  5 21  1  0
 12 22  1  0
 12 23  1  0
 12 24  1  0
 14 25  1  0
 17 26  1  0
 17 27  1  0
M  END
>  <mol_id>  (58) 
2026-09-18-6fnk-s0-n100-r5-0058

>  <rmsd_to_ref>  (58) 
3.071428571432836

>  <pose_kind>  (58) 
conformer

$$$$
6fnk.A
     RDKit          3D

 27 29  0  0  0  0  0  0  0  0999 V2000
    4.9921   18.4137   42.2170 C   0  0  0  0  0  0  0  0  0  0  0  0
    6.1782   17.9179   42.7586 C   0  0  0  0  0  0  0  0  0  0  0  0
    6.1486   16.8117   43.5951 C   0  0  0  0  0  0  0  0  0  0  0  0
    4.9309   16.1929   43.8911 N   0  0  0  0  0  0  0  0  0  0  0  0
    3.7393   16.6947   43.3461 C   0  0  0  0  0  0  0  0  0  0  0  0
    3.7676   17.8072   42.5071 C   0  0  0  0  0  0  0  0  0  0  0  0
    2.5779   18.3066   41.9673 C   0  0  0  0  0  0  0  0  0  0  0  0
    2.5557   19.4713   41.3046 N   0  0  0  0  0  0  0  0  0  0  0  0
    1.4428   17.6140   42.1046 N   0  0  0  0  0  0  0  0  0  0  0  0
    0.2779   18.0660   41.6069 C   0  0  0  0  0  0  0  0  0  0  0  0
   -0.9666   17.5652   41.6334 N   0  0  0  0  0  0  0  0  0  0  0  0
   -1.3736   16.3027   42.2575 C   0  0  0  0  0  0  0  0  0  0  0  0
   -1.7468   18.3137   41.0435 N   0  0  0  0  0  0  0  0  0  0  0  0
   -1.0310   19.3449   40.5656 C   0  0  0  0  0  0  0  0  0  0  0  0
    0.2494   19.2143   40.9377 C   0  0  0  0  0  0  0  0  0  0  0  0
    1.4006   19.9244   40.7834 C   0  0  0  0  0  0  0  0  0  0  0  0
    1.4073   21.1004   40.1101 N   0  0  0  0  0  0  0  0  0  0  0  0
    5.0213   19.2913   41.5545 H   0  0  0  0  0  0  0  0  0  0  0  0
    7.1364   18.4040   42.5225 H   0  0  0  0  0  0  0  0  0  0  0  0
    7.0830   16.4217   44.0251 H   0  0  0  0  0  0  0  0  0  0  0  0
    2.7808   16.2091   43.5815 H   0  0  0  0  0  0  0  0  0  0  0  0
   -2.2238   16.4842   42.9314 H   0  0  0  0  0  0  0  0  0  0  0  0
   -1.6706   15.5868   41.4770 H   0  0  0  0  0  0  0  0  0  0  0  0
   -0.5316   15.8897   42.8325 H   0  0  0  0  0  0  0  0  0  0  0  0
   -1.4344   20.1705   39.9610 H   0  0  0  0  0  0  0  0  0  0  0  0
    0.5346   21.4659   39.7031 H   0  0  0  0  0  0  0  0  0  0  0  0
    2.2852   21.6289   40.0054 H   0  0  0  0  0  0  0  0  0  0  0  0
  1  2  2  0
  1  6  1  0
  2  3  1  0
  3  4  2  0
  4  5  1  0
  5  6  2  0
  6  7  1  0
  7  8  2  0
  7  9  1  0
  8 16  1  0
  9 10  2  0
 10 11  1  0
 10 15  1  0
 11 12  1  0
 11 13  1  0
 13 14  2  0
 14 15  1  0
 15 16  2  0
 16 17  1  0
  1 18  1  0
  2 19  1  0
  3 20  1  0
  5 21  1  0
 12 22  1  0
 12 23  1  0
 12 24  1  0
 14 25  1  0
 17 26  1  0
 17 27  1  0
M  END
>  <mol_id>  (59) 
2026-09-18-6fnk-s0-n100-r5-0059

>  <rmsd_to_ref>  (59) 
3.1173469387771044

>  <pose_kind>  (59) 
rigid

$$$$
6fnk.A
     RDKit          3D

 27 29  0  0  0  0  0  0  0  0999 V2000
    1.9099   15.0693   43.7648 C   0  0  0  0  0  0  0  0  0  0  0  0
    2.0343   13.7864   44.3065 C   0  0  0  0  0  0  0  0  0  0  0  0
    1.8509   12.6712   43.5312 C   0  0  0  0  0  0  0  0  0  0  0  0
    1.5445   12.7835   42.2203 N   0  0  0  0  0  0  0  0  0  0  0  0
    1.4239   14.0264   41.6950 C   0  0  0  0  0  0  0  0  0  0  0  0
    1.6013   15.1717   42.4446 C   0  0  0  0  0  0  0  0  0  0  0  0
    1.4431   16.4598   41.7583 C   0  0  0  0  0  0  0  0  0  0  0  0
    1.1367   16.4544   40.4484 N   0  0  0  0  0  0  0  0  0  0  0  0
    1.5906   17.6334   42.3793 N   0  0  0  0  0  0  0  0  0  0  0  0
    1.4388   18.8157   41.7211 C   0  0  0  0  0  0  0  0  0  0  0  0
    1.5181   20.1080   42.0498 N   0  0  0  0  0  0  0  0  0  0  0  0
    1.8324   20.5994   43.3891 C   0  0  0  0  0  0  0  0  0  0  0  0
    1.2728   20.8621   40.9949 N   0  0  0  0  0  0  0  0  0  0  0  0
    1.0179   20.0897   39.9118 C   0  0  0  0  0  0  0  0  0  0  0  0
    1.1239   18.7895   40.3751 C   0  0  0  0  0  0  0  0  0  0  0  0
    0.9703   17.5857   39.7283 C   0  0  0  0  0  0  0  0  0  0  0  0
    0.6453   17.4821   38.3401 N   0  0  0  0  0  0  0  0  0  0  0  0
    2.0497   15.9392   44.3556 H   0  0  0  0  0  0  0  0  0  0  0  0
    2.2803   13.6672   45.3591 H   0  0  0  0  0  0  0  0  0  0  0  0
    1.9394   11.6606   43.9176 H   0  0  0  0  0  0  0  0  0  0  0  0
    1.1753   14.0537   40.6319 H   0  0  0  0  0  0  0  0  0  0  0  0
    2.8939   20.7738   43.5633 H   0  0  0  0  0  0  0  0  0  0  0  0
    1.1797   21.4922   43.5330 H   0  0  0  0  0  0  0  0  0  0  0  0
    1.4860   19.8536   44.1341 H   0  0  0  0  0  0  0  0  0  0  0  0
    0.7826   20.4123   38.9036 H   0  0  0  0  0  0  0  0  0  0  0  0
   -0.2345   17.8650   37.9313 H   0  0  0  0  0  0  0  0  0  0  0  0
    1.3170   16.9991   37.6898 H   0  0  0  0  0  0  0  0  0  0  0  0
  1  2  2  0
  1  6  1  0
  2  3  1  0
  3  4  2  0
  4  5  1  0
  5  6  2  0
  6  7  1  0
  7  8  2  0
  7  9  1  0
  8 16  1  0
  9 10  2  0
 10 11  1  0
 10 15  1  0
 11 12  1  0
 11 13  1  0
 13 14  2  0
 14 15  1  0
 15 16  2  0
 16 17  1  0
  1 18  1  0
  2 19  1  0
  3 20  1  0
  5 21  1  0
 12 22  1  0
 12 23  1  0
 12 24  1  0
 14 25  1  0
 17 26  1  0
 17 27  1  0
M  END
>  <mol_id>  (60) 
2026-09-18-6fnk-s0-n100-r5-0060

>  <rmsd_to_ref>  (60) 
3.1632653061261866

>  <pose_kind>  (60) 
conformer

$$$$
6fnk.A
     RDKit          3D

 27 29  0  0  0  0  0  0  0  0999 V2000
    3.7828   18.9544   40.2164 C   0  0  0  0  0  0  0  0  0  0  0  0
    4.9010   18.9358   39.3825 C   0  0  0  0  0  0  0  0  0  0  0  0
    6.0437   18.2522   39.7714 C   0  0  0  0  0  0  0  0  0  0  0  0
    6.0720   17.5799   40.9963 N   0  0  0  0  0  0  0  0  0  0  0  0
    4.9463   17.6017   41.8336 C   0  0  0  0  0  0  0  0  0  0  0  0
    3.7983   18.2896   41.4449 C   0  0  0  0  0  0  0  0  0  0  0  0
    2.6786   18.3116   42.2827 C   0  0  0  0  0  0  0  0  0  0  0  0
    1.6321   19.1052   42.0160 N   0  0  0  0  0  0  0  0  0  0  0  0
    2.6416   17.5269   43.3643 N   0  0  0  0  0  0  0  0  0  0  0  0
    1.5862   17.5268   44.1980 C   0  0  0  0  0  0  0  0  0  0  0  0
    1.3340   16.8523   45.3301 N   0  0  0  0  0  0  0  0  0  0  0  0
    2.2226   15.8755   45.9666 C   0  0  0  0  0  0  0  0  0  0  0  0
    0.2275   17.1565   45.7776 N   0  0  0  0  0  0  0  0  0  0  0  0
   -0.3221   18.0381   44.9262 C   0  0  0  0  0  0  0  0  0  0  0  0
    0.5389   18.3018   43.9342 C   0  0  0  0  0  0  0  0  0  0  0  0
    0.5609   19.0989   42.8308 C   0  0  0  0  0  0  0  0  0  0  0  0
   -0.4878   19.9041   42.5334 N   0  0  0  0  0  0  0  0  0  0  0  0
    2.8793   19.4982   39.9032 H   0  0  0  0  0  0  0  0  0  0  0  0
    4.8766   19.4628   38.4173 H   0  0  0  0  0  0  0  0  0  0  0  0
    6.9271   18.2393   39.1160 H   0  0  0  0  0  0  0  0  0  0  0  0
    4.9699   17.0746   42.7988 H   0  0  0  0  0  0  0  0  0  0  0  0
    2.3605   16.1405   47.0253 H   0  0  0  0  0  0  0  0  0  0  0  0
    1.7765   14.8726   45.8948 H   0  0  0  0  0  0  0  0  0  0  0  0
    3.1976   15.8804   45.4574 H   0  0  0  0  0  0  0  0  0  0  0  0
   -1.3258   18.4765   45.0279 H   0  0  0  0  0  0  0  0  0  0  0  0
   -1.3178   19.9151   43.1432 H   0  0  0  0  0  0  0  0  0  0  0  0
   -0.4548   20.5051   41.6975 H   0  0  0  0  0  0  0  0  0  0  0  0
  1  2  2  0
  1  6  1  0
  2  3  1  0
  3  4  2  0
  4  5  1  0
  5  6  2  0
  6  7  1  0
  7  8  2  0
  7  9  1  0
  8 16  1  0
  9 10  2  0
 10 11  1  0
 10 15  1  0
 11 12  1  0
 11 13  1  0
 13 14  2  0
 14 15  1  0
 15 16  2  0
 16 17  1  0
  1 18  1  0
  2 19  1  0
  3 20  1  0
  5 21  1  0
 12 22  1  0
 12 23  1  0
 12 24  1  0
 14 25  1  0
 17 26  1  0
 17 27  1  0
M  END
>  <mol_id>  (61) 
2026-09-18-6fnk-s0-n100-r5-0061

>  <rmsd_to_ref>  (61) 
3.209183673471318

>  <pose_kind>  (61) 
rigid

$$$$
6fnk.A
     RDKit          3D

 27 29  0  0  0  0  0  0  0  0999 V2000
    4.4013   19.1252   43.1779 C   0  0  0  0  0  0  0  0  0  0  0  0
    5.6581   18.9069   42.6579 C   0  0  0  0  0  0  0  0  0  0  0  0
    5.9319   17.6607   42.1559 C   0  0  0  0  0  0  0  0  0  0  0  0
    5.0187   16.6576   42.1571 N   0  0  0  0  0  0  0  0  0  0  0  0
    3.7930   16.8809   42.6676 C   0  0  0  0  0  0  0  0  0  0  0  0
    3.4314   18.1232   43.1997 C   0  0  0  0  0  0  0  0  0  0  0  0
    2.1088   18.3717   43.7530 C   0  0  0  0  0  0  0  0  0  0  0  0
    1.7761   19.5850   44.2654 N   0  0  0  0  0  0  0  0  0  0  0  0
    1.2273   17.3556   43.7386 N   0  0  0  0  0  0  0  0  0  0  0  0
   -0.0196   17.4866   44.2267 C   0  0  0  0  0  0  0  0  0  0  0  0
   -1.0804   16.6396   44.3313 N   0  0  0  0  0  0  0  0  0  0  0  0
   -1.0992   15.2547   43.8889 C   0  0  0  0  0  0  0  0  0  0  0  0
   -2.0841   17.2903   44.9011 N   0  0  0  0  0  0  0  0  0  0  0  0
   -1.6789   18.5647   45.1695 C   0  0  0  0  0  0  0  0  0  0  0  0
   -0.3732   18.7210   44.7535 C   0  0  0  0  0  0  0  0  0  0  0  0
    0.5424   19.7656   44.7649 C   0  0  0  0  0  0  0  0  0  0  0  0
    0.1560   21.0233   45.3109 N   0  0  0  0  0  0  0  0  0  0  0  0
    4.1824   20.1144   43.5769 H   0  0  0  0  0  0  0  0  0  0  0  0
    6.3709   19.7277   42.6693 H   0  0  0  0  0  0  0  0  0  0  0  0
    6.9416   17.5098   41.7460 H   0  0  0  0  0  0  0  0  0  0  0  0
    3.0590   16.0611   42.6641 H   0  0  0  0  0  0  0  0  0  0  0  0
   -0.4025   15.2018   43.0213 H   0  0  0  0  0  0  0  0  0  0  0  0
   -0.7020   14.5628   44.6708 H   0  0  0  0  0  0  0  0  0  0  0  0
   -2.1443   14.9679   43.5794 H   0  0  0  0  0  0  0  0  0  0  0  0
   -2.2939   19.3336   45.6386 H   0  0  0  0  0  0  0  0  0  0  0  0
    0.7236   21.8685   45.0788 H   0  0  0  0  0  0  0  0  0  0  0  0
   -0.6656   21.0845   45.9186 H   0  0  0  0  0  0  0  0  0  0  0  0
  1  2  2  0
  1  6  1  0
  2  3  1  0
  3  4  2  0
  4  5  1  0
  5  6  2  0
  6  7  1  0
  7  8  2  0
  7  9  1  0
  8 16  1  0
  9 10  2  0
 10 11  1  0
 10 15  1  0
 11 12  1  0
 11 13  1  0
 13 14  2  0
 14 15  1  0
 15 16  2  0
 16 17  1  0
  1 18  1  0
  2 19  1  0
  3 20  1  0
  5 21  1  0
 12 22  1  0
 12 23  1  0
 12 24  1  0
 14 25  1  0
 17 26  1  0
 17 27  1  0
M  END
>  <mol_id>  (62) 
2026-09-18-6fnk-s0-n100-r5-0062

>  <rmsd_to_ref>  (62) 
3.255102040819631

>  <pose_kind>  (62) 
conformer

$$$$
6fnk.A
     RDKit          3D

 27 29  0  0  0  0  0  0  0  0999 V2000
    0.7594   15.8744   42.1831 C   0  0  0  0  0  0  0  0  0  0  0  0
   -0.0000   14.7374   42.4599 C   0  0  0  0  0  0  0  0  0  0  0  0
   -1.1272   14.8356   43.2626 C   0  0  0  0  0  0  0  0  0  0  0  0
   -1.5027   16.0743   43.7899 N   0  0  0  0  0  0  0  0  0  0  0  0
   -0.7360   17.2159   43.5110 C   0  0  0  0  0  0  0  0  0  0  0  0
    0.3976   17.1181   42.7063 C   0  0  0  0  0  0  0  0  0  0  0  0
    1.1612   18.2574   42.4321 C   0  0  0  0  0  0  0  0  0  0  0  0
    2.3451   18.1622   41.8113 N   0  0  0  0  0  0  0  0  0  0  0  0
    0.7067   19.4638   42.7858 N   0  0  0  0  0  0  0  0  0  0  0  0
    1.4163   20.5811   42.5468 C   0  0  0  0  0  0  0  0  0  0  0  0
    1.1783   21.8733   42.8182 N   0  0  0  0  0  0  0  0  0  0  0  0
   -0.0115   22.4077   43.4874 C   0  0  0  0  0  0  0  0  0  0  0  0
    2.1052   22.5777   42.4159 N   0  0  0  0  0  0  0  0  0  0  0  0
    2.9970   21.7680   41.8217 C   0  0  0  0  0  0  0  0  0  0  0  0
    2.5858   20.4967   41.9205 C   0  0  0  0  0  0  0  0  0  0  0  0
    3.0553   19.2745   41.5473 C   0  0  0  0  0  0  0  0  0  0  0  0
    4.2450   19.1513   40.9104 N   0  0  0  0  0  0  0  0  0  0  0  0
    1.6523   15.7907   41.5462 H   0  0  0  0  0  0  0  0  0  0  0  0
    0.2948   13.7636   42.0419 H   0  0  0  0  0  0  0  0  0  0  0  0
   -1.7250   13.9392   43.4839 H   0  0  0  0  0  0  0  0  0  0  0  0
   -1.0303   18.1901   43.9285 H   0  0  0  0  0  0  0  0  0  0  0  0
    0.2967   23.0508   44.3249 H   0  0  0  0  0  0  0  0  0  0  0  0
   -0.6019   22.9971   42.7704 H   0  0  0  0  0  0  0  0  0  0  0  0
   -0.6221   21.5761   43.8691 H   0  0  0  0  0  0  0  0  0  0  0  0
    3.9235   22.0981   41.3292 H   0  0  0  0  0  0  0  0  0  0  0  0
    4.8049   19.9895   40.6984 H   0  0  0  0  0  0  0  0  0  0  0  0
    4.5894   18.2196   40.6382 H   0  0  0  0  0  0  0  0  0  0  0  0
  1  2  2  0
  1  6  1  0
  2  3  1  0
  3  4  2  0
  4  5  1  0
  5  6  2  0
  6  7  1  0
  7  8  2  0
  7  9  1  0
  8 16  1  0
  9 10  2  0
 10 11  1  0
 10 15  1  0
 11 12  1  0
 11 13  1  0
 13 14  2  0
 14 15  1  0
 15 16  2  0
 16 17  1  0
  1 18  1  0
  2 19  1  0
  3 20  1  0
  5 21  1  0
 12 22  1  0
 12 23  1  0
 12 24  1  0
 14 25  1  0
 17 26  1  0
 17 27  1  0
M  END
>  <mol_id>  (63) 
2026-09-18-6fnk-s0-n100-r5-0063

>  <rmsd_to_ref>  (63) 
3.301020408166506

>  <pose_kind>  (63) 
rigid

$$$$
6fnk.A
     RDKit          3D

 27 29  0  0  0  0  0  0  0  0999 V2000
    2.8635   15.8476   40.5562 C   0  0  0  0  0  0  0  0  0  0  0  0
    3.2109   15.6931   39.2135 C   0  0  0  0  0  0  0  0  0  0  0  0
    3.1638   16.7974   38.3961 C   0  0  0  0  0  0  0  0  0  0  0  0
    2.7965   18.0212   38.8371 N   0  0  0  0  0  0  0  0  0  0  0  0
    2.4635   18.1532   40.1391 C   0  0  0  0  0  0  0  0  0  0  0  0
    2.4856   17.0924   41.0234 C   0  0  0  0  0  0  0  0  0  0  0  0
    2.1140   17.2912   42.4284 C   0  0  0  0  0  0  0  0  0  0  0  0
    1.7564   18.5291   42.8153 N   0  0  0  0  0  0  0  0  0  0  0  0
    2.1467   16.2372   43.2608 N   0  0  0  0  0  0  0  0  0  0  0  0
    1.8123   16.3910   44.5484 C   0  0  0  0  0  0  0  0  0  0  0  0
    1.7402   15.5712   45.6126 N   0  0  0  0  0  0  0  0  0  0  0  0
    2.0502   14.1398   45.6078 C   0  0  0  0  0  0  0  0  0  0  0  0
    1.3443   16.2376   46.6899 N   0  0  0  0  0  0  0  0  0  0  0  0
    1.1539   17.5335   46.3087 C   0  0  0  0  0  0  0  0  0  0  0  0
    1.4438   17.6559   44.9571 C   0  0  0  0  0  0  0  0  0  0  0  0
    1.4082   18.7446   44.1050 C   0  0  0  0  0  0  0  0  0  0  0  0
    1.0182   20.0447   44.5728 N   0  0  0  0  0  0  0  0  0  0  0  0
    2.8961   14.9879   41.2097 H   0  0  0  0  0  0  0  0  0  0  0  0
    3.5030   14.7044   38.8765 H   0  0  0  0  0  0  0  0  0  0  0  0
    3.4256   16.7122   37.3555 H   0  0  0  0  0  0  0  0  0  0  0  0
    2.1750   19.1569   40.4466 H   0  0  0  0  0  0  0  0  0  0  0  0
    1.4591   13.6392   46.3828 H   0  0  0  0  0  0  0  0  0  0  0  0
    3.1258   13.9431   45.8383 H   0  0  0  0  0  0  0  0  0  0  0  0
    1.8401   13.6597   44.6341 H   0  0  0  0  0  0  0  0  0  0  0  0
    0.8349   18.3603   46.9098 H   0  0  0  0  0  0  0  0  0  0  0  0
    0.0462   20.2380   44.9278 H   0  0  0  0  0  0  0  0  0  0  0  0
    1.6830   20.8466   44.5786 H   0  0  0  0  0  0  0  0  0  0  0  0
  1  2  2  0
  1  6  1  0
  2  3  1  0
  3  4  2  0
  4  5  1  0
  5  6  2  0
  6  7  1  0
  7  8  2  0
  7  9  1  0
  8 16  1  0
  9 10  2  0
 10 11  1  0
 10 15  1  0
 11 12  1  0
 11 13  1  0
 13 14  2  0
 14 15  1  0
 15 16  2  0
 16 17  1  0
  1 18  1  0
  2 19  1  0
  3 20  1  0
  5 21  1  0
 12 22  1  0
 12 23  1  0
 12 24  1  0
 14 25  1  0
 17 26  1  0
 17 27  1  0
M  END
>  <mol_id>  (64) 
2026-09-18-6fnk-s0-n100-r5-0064

>  <rmsd_to_ref>  (64) 
3.346938775511121

>  <pose_kind>  (64) 
conformer

$$$$
6fnk.A
     RDKit          3D

 27 29  0  0  0  0  0  0  0  0999 V2000
    3.2843   18.9429   40.4513 C   0  0  0  0  0  0  0  0  0  0  0  0
    4.2519   18.8179   39.4542 C   0  0  0  0  0  0  0  0  0  0  0  0
    4.0867   17.8840   38.4418 C   0  0  0  0  0  0  0  0  0  0  0  0
    2.9492   17.0723   38.4198 N   0  0  0  0  0  0  0  0  0  0  0  0
    1.9784   17.1993   39.4250 C   0  0  0  0  0  0  0  0  0  0  0  0
    2.1442   18.1357   40.4437 C   0  0  0  0  0  0  0  0  0  0  0  0
    1.1760   18.2584   41.4455 C   0  0  0  0  0  0  0  0  0  0  0  0
    1.3928   19.0216   42.5255 N   0  0  0  0  0  0  0  0  0  0  0  0
    0.0115   17.6125   41.3278 N   0  0  0  0  0  0  0  0  0  0  0  0
   -0.9401   17.6990   42.2743 C   0  0  0  0  0  0  0  0  0  0  0  0
   -2.1556   17.1412   42.3817 N   0  0  0  0  0  0  0  0  0  0  0  0
   -2.7785   16.2398   41.4078 C   0  0  0  0  0  0  0  0  0  0  0  0
   -2.7043   17.4971   43.4255 N   0  0  0  0  0  0  0  0  0  0  0  0
   -1.8711   18.3469   44.0482 C   0  0  0  0  0  0  0  0  0  0  0  0
   -0.7381   18.4637   43.3428 C   0  0  0  0  0  0  0  0  0  0  0  0
    0.4403   19.1335   43.4698 C   0  0  0  0  0  0  0  0  0  0  0  0
    0.6812   19.9189   44.5475 N   0  0  0  0  0  0  0  0  0  0  0  0
    3.4205   19.6849   41.2519 H   0  0  0  0  0  0  0  0  0  0  0  0
    5.1453   19.4594   39.4708 H   0  0  0  0  0  0  0  0  0  0  0  0
    4.8504   17.7825   37.6567 H   0  0  0  0  0  0  0  0  0  0  0  0
    1.0846   16.5583   39.4089 H   0  0  0  0  0  0  0  0  0  0  0  0
   -3.1263   15.3305   41.9199 H   0  0  0  0  0  0  0  0  0  0  0  0
   -3.6341   16.7448   40.9357 H   0  0  0  0  0  0  0  0  0  0  0  0
   -2.0424   15.9676   40.6370 H   0  0  0  0  0  0  0  0  0  0  0  0
   -2.0862   18.8674   44.9931 H   0  0  0  0  0  0  0  0  0  0  0  0
   -0.0339   20.0188   45.2821 H   0  0  0  0  0  0  0  0  0  0  0  0
    1.5793   20.4160   44.6321 H   0  0  0  0  0  0  0  0  0  0  0  0
  1  2  2  0
  1  6  1  0
  2  3  1  0
  3  4  2  0
  4  5  1  0
  5  6  2  0
  6  7  1  0
  7  8  2  0
  7  9  1  0
  8 16  1  0
  9 10  2  0
 10 11  1  0
 10 15  1  0
 11 12  1  0
 11 13  1  0
 13 14  2  0
 14 15  1  0
 15 16  2  0
 16 17  1  0
  1 18  1  0
  2 19  1  0
  3 20  1  0
  5 21  1  0
 12 22  1  0
 12 23  1  0
 12 24  1  0
 14 25  1  0
 17 26  1  0
 17 27  1  0
M  END
>  <mol_id>  (65) 
2026-09-18-6fnk-s0-n100-r5-0065

>  <rmsd_to_ref>  (65) 
3.3928571428618954

>  <pose_kind>  (65) 
rigid

$$$$
6fnk.A
     RDKit          3D

 27 29  0  0  0  0  0  0  0  0999 V2000
    5.2436   18.9961   43.6055 C   0  0  0  0  0  0  0  0  0  0  0  0
    6.4455   18.7071   44.2356 C   0  0  0  0  0  0  0  0  0  0  0  0
    6.5323   17.6399   45.1363 C   0  0  0  0  0  0  0  0  0  0  0  0
    5.4764   16.8661   45.4224 N   0  0  0  0  0  0  0  0  0  0  0  0
    4.2878   17.1282   44.8186 C   0  0  0  0  0  0  0  0  0  0  0  0
    4.1625   18.1711   43.9253 C   0  0  0  0  0  0  0  0  0  0  0  0
    2.8791   18.4587   43.2695 C   0  0  0  0  0  0  0  0  0  0  0  0
    2.7286   19.4706   42.3932 N   0  0  0  0  0  0  0  0  0  0  0  0
    1.8168   17.6648   43.5699 N   0  0  0  0  0  0  0  0  0  0  0  0
    0.6227   17.8823   43.0008 C   0  0  0  0  0  0  0  0  0  0  0  0
   -0.5565   17.2456   43.1345 N   0  0  0  0  0  0  0  0  0  0  0  0
   -0.7568   16.0956   44.0086 C   0  0  0  0  0  0  0  0  0  0  0  0
   -1.4385   17.8519   42.3498 N   0  0  0  0  0  0  0  0  0  0  0  0
   -0.8711   18.8777   41.6976 C   0  0  0  0  0  0  0  0  0  0  0  0
    0.4541   18.9203   42.0973 C   0  0  0  0  0  0  0  0  0  0  0  0
    1.5465   19.7111   41.8091 C   0  0  0  0  0  0  0  0  0  0  0  0
    1.4008   20.7821   40.8863 N   0  0  0  0  0  0  0  0  0  0  0  0
    5.1501   19.8144   42.9060 H   0  0  0  0  0  0  0  0  0  0  0  0
    7.3128   19.3290   44.0117 H   0  0  0  0  0  0  0  0  0  0  0  0
    7.4950   17.4648   45.5950 H   0  0  0  0  0  0  0  0  0  0  0  0
    3.3999   16.5211   45.0237 H   0  0  0  0  0  0  0  0  0  0  0  0
   -0.1514   15.2150   43.7097 H   0  0  0  0  0  0  0  0  0  0  0  0
   -0.5600   16.3783   45.0799 H   0  0  0  0  0  0  0  0  0  0  0  0
   -1.8300   15.8136   43.9870 H   0  0  0  0  0  0  0  0  0  0  0  0
   -1.3028   19.5630   40.9960 H   0  0  0  0  0  0  0  0  0  0  0  0
    0.4872   20.9947   40.4494 H   0  0  0  0  0  0  0  0  0  0  0  0
    2.2104   21.3853   40.6221 H   0  0  0  0  0  0  0  0  0  0  0  0
  1  2  2  0
  1  6  1  0
  2  3  1  0
  3  4  2  0
  4  5  1  0
  5  6  2  0
  6  7  1  0
  7  8  2  0
  7  9  1  0
  8 16  1  0
  9 10  2  0
 10 11  1  0
 10 15  1  0
 11 12  1  0
 11 13  1  0
 13 14  2  0
 14 15  1  0
 15 16  2  0
 16 17  1  0
  1 18  1  0
  2 19  1  0
  3 20  1  0
  5 21  1  0
 12 22  1  0
 12 23  1  0
 12 24  1  0
 14 25  1  0
 17 26  1  0
 17 27  1  0
M  END
>  <mol_id>  (66) 
2026-09-18-6fnk-s0-n100-r5-0066

>  <rmsd_to_ref>  (66) 
3.438775510205538

>  <pose_kind>  (66) 
conformer

$$$$
6fnk.A
     RDKit          3D

 27 29  0  0  0  0  0  0  0  0999 V2000
    5.1536   19.1434   42.2651 C   0  0  0  0  0  0  0  0  0  0  0  0
    6.4859   19.1735   42.6776 C   0  0  0  0  0  0  0  0  0  0  0  0
    6.8095   18.8875   43.9959 C   0  0  0  0  0  0  0  0  0  0  0  0
    5.8008   18.5660   44.9082 N   0  0  0  0  0  0  0  0  0  0  0  0
    4.4615   18.5380   44.4907 C   0  0  0  0  0  0  0  0  0  0  0  0
    4.1349   18.8269   43.1671 C   0  0  0  0  0  0  0  0  0  0  0  0
    2.7988   18.8006   42.7545 C   0  0  0  0  0  0  0  0  0  0  0  0
    2.4422   19.2425   41.5406 N   0  0  0  0  0  0  0  0  0  0  0  0
    1.8583   18.3227   43.5756 N   0  0  0  0  0  0  0  0  0  0  0  0
    0.5623   18.2893   43.2176 C   0  0  0  0  0  0  0  0  0  0  0  0
   -0.5394   17.8787   43.8640 N   0  0  0  0  0  0  0  0  0  0  0  0
   -0.5850   17.3204   45.2187 C   0  0  0  0  0  0  0  0  0  0  0  0
   -1.5363   18.0239   43.1553 N   0  0  0  0  0  0  0  0  0  0  0  0
   -1.1230   18.5164   41.9760 C   0  0  0  0  0  0  0  0  0  0  0  0
    0.2016   18.7142   42.0107 C   0  0  0  0  0  0  0  0  0  0  0  0
    1.1515   19.1949   41.1621 C   0  0  0  0  0  0  0  0  0  0  0  0
    0.8188   19.6395   39.9259 N   0  0  0  0  0  0  0  0  0  0  0  0
    4.9026   19.3712   41.2186 H   0  0  0  0  0  0  0  0  0  0  0  0
    7.2793   19.4237   41.9579 H   0  0  0  0  0  0  0  0  0  0  0  0
    7.8595   18.9139   44.3229 H   0  0  0  0  0  0  0  0  0  0  0  0
    3.6676   18.2876   45.2098 H   0  0  0  0  0  0  0  0  0  0  0  0
   -1.3324   17.8647   45.8146 H   0  0  0  0  0  0  0  0  0  0  0  0
   -0.8607   16.2567   45.1678 H   0  0  0  0  0  0  0  0  0  0  0  0
    0.4037   17.4207   45.6902 H   0  0  0  0  0  0  0  0  0  0  0  0
   -1.7728   18.7254   41.1135 H   0  0  0  0  0  0  0  0  0  0  0  0
   -0.1630   19.6123   39.6157 H   0  0  0  0  0  0  0  0  0  0  0  0
    1.5478   20.0047   39.2965 H   0  0  0  0  0  0  0  0  0  0  0  0
  1  2  2  0
  1  6  1  0
  2  3  1  0
  3  4  2  0
  4  5  1  0
  5  6  2  0
  6  7  1  0
  7  8  2  0
  7  9  1  0
  8 16  1  0
  9 10  2  0
 10 11  1  0
 10 15  1  0
 11 12  1  0
 11 13  1  0
 13 14  2  0
 14 15  1  0
 15 16  2  0
 16 17  1  0
  1 18  1  0
  2 19  1  0
  3 20  1  0
  5 21  1  0
 12 22  1  0
 12 23  1  0
 12 24  1  0
 14 25  1  0
 17 26  1  0
 17 27  1  0
M  END
>  <mol_id>  (67) 
2026-09-18-6fnk-s0-n100-r5-0067

>  <rmsd_to_ref>  (67) 
3.4846938775517375

>  <pose_kind>  (67) 
rigid

$$$$
6fnk.A
     RDKit          3D

 27 29  0  0  0  0  0  0  0  0999 V2000
    5.2103   17.2083   43.2142 C   0  0  0  0  0  0  0  0  0  0  0  0
    6.6027   17.2726   43.2092 C   0  0  0  0  0  0  0  0  0  0  0  0
    7.2533   17.8143   42.1044 C   0  0  0  0  0  0  0  0  0  0  0  0
    6.5722   18.2796   41.0367 N   0  0  0  0  0  0  0  0  0  0  0  0
    5.2231   18.2169   41.0425 C   0  0  0  0  0  0  0  0  0  0  0  0
    4.5315   17.6931   42.1047 C   0  0  0  0  0  0  0  0  0  0  0  0
    3.0811   17.6543   42.0494 C   0  0  0  0  0  0  0  0  0  0  0  0
    2.4905   18.1496   40.9259 N   0  0  0  0  0  0  0  0  0  0  0  0
    2.3280   17.1579   43.0467 N   0  0  0  0  0  0  0  0  0  0  0  0
    0.9651   17.1423   42.9497 C   0  0  0  0  0  0  0  0  0  0  0  0
   -0.0134   16.7087   43.7901 N   0  0  0  0  0  0  0  0  0  0  0  0
    0.1852   16.1116   45.0955 C   0  0  0  0  0  0  0  0  0  0  0  0
   -1.1937   16.9298   43.2008 N   0  0  0  0  0  0  0  0  0  0  0  0
   -1.0204   17.4962   41.9972 C   0  0  0  0  0  0  0  0  0  0  0  0
    0.3343   17.6449   41.8066 C   0  0  0  0  0  0  0  0  0  0  0  0
    1.1446   18.1491   40.7981 C   0  0  0  0  0  0  0  0  0  0  0  0
    0.4800   18.6545   39.6456 N   0  0  0  0  0  0  0  0  0  0  0  0
    4.7065   16.7924   44.0620 H   0  0  0  0  0  0  0  0  0  0  0  0
    7.1954   16.9086   44.0501 H   0  0  0  0  0  0  0  0  0  0  0  0
    8.3488   17.8408   42.1523 H   0  0  0  0  0  0  0  0  0  0  0  0
    4.7300   18.6045   40.1603 H   0  0  0  0  0  0  0  0  0  0  0  0
    0.2594   16.8951   45.8949 H   0  0  0  0  0  0  0  0  0  0  0  0
   -0.7518   15.5362   45.3481 H   0  0  0  0  0  0  0  0  0  0  0  0
    1.0036   15.3897   45.0969 H   0  0  0  0  0  0  0  0  0  0  0  0
   -1.7526   17.7968   41.2794 H   0  0  0  0  0  0  0  0  0  0  0  0
    0.2722   19.6773   39.5324 H   0  0  0  0  0  0  0  0  0  0  0  0
    0.2139   17.9360   38.9212 H   0  0  0  0  0  0  0  0  0  0  0  0
  1  2  2  0
  1  6  1  0
  2  3  1  0
  3  4  2  0
  4  5  1  0
  5  6  2  0
  6  7  1  0
  7  8  2  0
  7  9  1  0
  8 16  1  0
  9 10  2  0
 10 11  1  0
 10 15  1  0
 11 12  1  0
 11 13  1  0
 13 14  2  0
 14 15  1  0
 15 16  2  0
 16 17  1  0
  1 18  1  0
  2 19  1  0
  3 20  1  0
  5 21  1  0
 12 22  1  0
 12 23  1  0
 12 24  1  0
 14 25  1  0
 17 26  1  0
 17 27  1  0
M  END
>  <mol_id>  (68) 
2026-09-18-6fnk-s0-n100-r5-0068

>  <rmsd_to_ref>  (68) 
3.530612244902771

>  <pose_kind>  (68) 
conformer

$$$$
6fnk.A
     RDKit          3D

 27 29  0  0  0  0  0  0  0  0999 V2000
    0.4752   18.8270   39.6767 C   0  0  0  0  0  0  0  0  0  0  0  0
    0.8117   18.7828   38.3236 C   0  0  0  0  0  0  0  0  0  0  0  0
    1.3934   17.6414   37.7913 C   0  0  0  0  0  0  0  0  0  0  0  0
    1.6380   16.5358   38.6105 N   0  0  0  0  0  0  0  0  0  0  0  0
    1.2999   16.5838   39.9715 C   0  0  0  0  0  0  0  0  0  0  0  0
    0.7173   17.7306   40.5078 C   0  0  0  0  0  0  0  0  0  0  0  0
    0.3835   17.7762   41.8652 C   0  0  0  0  0  0  0  0  0  0  0  0
   -0.0126   18.9199   42.4408 N   0  0  0  0  0  0  0  0  0  0  0  0
    0.4519   16.6648   42.6049 N   0  0  0  0  0  0  0  0  0  0  0  0
    0.1473   16.6713   43.9148 C   0  0  0  0  0  0  0  0  0  0  0  0
    0.1564   15.7048   44.8455 N   0  0  0  0  0  0  0  0  0  0  0  0
    0.5252   14.3029   44.6274 C   0  0  0  0  0  0  0  0  0  0  0  0
   -0.2026   16.1509   45.9360 N   0  0  0  0  0  0  0  0  0  0  0  0
   -0.5005   17.4489   45.7611 C   0  0  0  0  0  0  0  0  0  0  0  0
   -0.2582   17.7987   44.4908 C   0  0  0  0  0  0  0  0  0  0  0  0
   -0.3405   18.9353   43.7460 C   0  0  0  0  0  0  0  0  0  0  0  0
   -0.7467   20.1028   44.3013 N   0  0  0  0  0  0  0  0  0  0  0  0
    0.0144   19.7347   40.0935 H   0  0  0  0  0  0  0  0  0  0  0  0
    0.6159   19.6525   37.6791 H   0  0  0  0  0  0  0  0  0  0  0  0
    1.6618   17.6066   36.7252 H   0  0  0  0  0  0  0  0  0  0  0  0
    1.4951   15.7144   40.6165 H   0  0  0  0  0  0  0  0  0  0  0  0
    1.2819   14.0034   45.3674 H   0  0  0  0  0  0  0  0  0  0  0  0
   -0.3664   13.6679   44.7370 H   0  0  0  0  0  0  0  0  0  0  0  0
    0.9367   14.1854   43.6140 H   0  0  0  0  0  0  0  0  0  0  0  0
   -0.8847   18.1220   46.5418 H   0  0  0  0  0  0  0  0  0  0  0  0
   -1.0025   20.1373   45.2985 H   0  0  0  0  0  0  0  0  0  0  0  0
   -0.7997   20.9557   43.7263 H   0  0  0  0  0  0  0  0  0  0  0  0
  1  2  2  0
  1  6  1  0
  2  3  1  0
  3  4  2  0
  4  5  1  0
  5  6  2  0
  6  7  1  0
  7  8  2  0
  7  9  1  0
  8 16  1  0
  9 10  2  0
 10 11  1  0
 10 15  1  0
 11 12  1  0
 11 13  1  0
 13 14  2  0
 14 15  1  0
 15 16  2  0
 16 17  1  0
  1 18  1  0
  2 19  1  0
  3 20  1  0
  5 21  1  0
 12 22  1  0
 12 23  1  0
 12 24  1  0
 14 25  1  0
 17 26  1  0
 17 27  1  0
M  END
>  <mol_id>  (69) 
2026-09-18-6fnk-s0-n100-r5-0069

>  <rmsd_to_ref>  (69) 
3.5765306122467844

>  <pose_kind>  (69) 
rigid

$$$$
6fnk.A
     RDKit          3D

 27 29  0  0  0  0  0  0  0  0999 V2000
    4.4912   15.2465   43.8641 C   0  0  0  0  0  0  0  0  0  0  0  0
    5.4754   14.4024   44.3608 C   0  0  0  0  0  0  0  0  0  0  0  0
    5.3684   13.0202   44.1923 C   0  0  0  0  0  0  0  0  0  0  0  0
    4.2924   12.4991   43.5372 N   0  0  0  0  0  0  0  0  0  0  0  0
    3.3346   13.3385   43.0553 C   0  0  0  0  0  0  0  0  0  0  0  0
    3.4071   14.7010   43.2025 C   0  0  0  0  0  0  0  0  0  0  0  0
    2.3361   15.5376   42.6557 C   0  0  0  0  0  0  0  0  0  0  0  0
    1.3246   14.8967   42.0282 N   0  0  0  0  0  0  0  0  0  0  0  0
    2.3754   16.8748   42.7821 N   0  0  0  0  0  0  0  0  0  0  0  0
    1.3757   17.6387   42.2705 C   0  0  0  0  0  0  0  0  0  0  0  0
    1.1243   18.9534   42.2290 N   0  0  0  0  0  0  0  0  0  0  0  0
    1.9754   19.9778   42.7947 C   0  0  0  0  0  0  0  0  0  0  0  0
   -0.0229   19.1381   41.5881 N   0  0  0  0  0  0  0  0  0  0  0  0
   -0.5439   17.9626   41.1992 C   0  0  0  0  0  0  0  0  0  0  0  0
    0.3462   16.9752   41.6309 C   0  0  0  0  0  0  0  0  0  0  0  0
    0.2990   15.6060   41.4975 C   0  0  0  0  0  0  0  0  0  0  0  0
   -0.7747   14.9356   40.8322 N   0  0  0  0  0  0  0  0  0  0  0  0
    4.5732   16.3193   43.9943 H   0  0  0  0  0  0  0  0  0  0  0  0
    6.3484   14.8007   44.8904 H   0  0  0  0  0  0  0  0  0  0  0  0
    6.1535   12.3942   44.5922 H   0  0  0  0  0  0  0  0  0  0  0  0
    2.4923   12.8579   42.5368 H   0  0  0  0  0  0  0  0  0  0  0  0
    1.6204   20.9880   42.5208 H   0  0  0  0  0  0  0  0  0  0  0  0
    3.0091   19.8880   42.3733 H   0  0  0  0  0  0  0  0  0  0  0  0
    1.9906   19.8958   43.8961 H   0  0  0  0  0  0  0  0  0  0  0  0
   -1.4823   17.8100   40.6514 H   0  0  0  0  0  0  0  0  0  0  0  0
   -1.6695   15.4501   40.7657 H   0  0  0  0  0  0  0  0  0  0  0  0
   -0.6107   13.9712   40.4487 H   0  0  0  0  0  0  0  0  0  0  0  0
  1  2  2  0
  1  6  1  0
  2  3  1  0
  3  4  2  0
  4  5  1  0
  5  6  2  0
  6  7  1  0
  7  8  2  0
  7  9  1  0
  8 16  1  0
  9 10  2  0
 10 11  1  0
 10 15  1  0
 11 12  1  0
 11 13  1  0
 13 14  2  0
 14 15  1  0
 15 16  2  0
 16 17  1  0
  1 18  1  0
  2 19  1  0
  3 20  1  0
  5 21  1  0
 12 22  1  0
 12 23  1  0
 12 24  1  0
 14 25  1  0
 17 26  1  0
 17 27  1  0
M  END
>  <mol_id>  (70) 
2026-09-18-6fnk-s0-n100-r5-0070

>  <rmsd_to_ref>  (70) 
3.6224489795924524

>  <pose_kind>  (70) 
conformer

$$$$
6fnk.A
     RDKit          3D

 27 29  0  0  0  0  0  0  0  0999 V2000
    5.1780   16.8665   44.7854 C   0  0  0  0  0  0  0  0  0  0  0  0
    6.4768   16.3654   44.6955 C   0  0  0  0  0  0  0  0  0  0  0  0
    6.7598   15.3279   43.8193 C   0  0  0  0  0  0  0  0  0  0  0  0
    5.7443   14.7885   43.0249 N   0  0  0  0  0  0  0  0  0  0  0  0
    4.4385   15.2936   43.1186 C   0  0  0  0  0  0  0  0  0  0  0  0
    4.1526   16.3347   43.9999 C   0  0  0  0  0  0  0  0  0  0  0  0
    2.8496   16.8345   44.0929 C   0  0  0  0  0  0  0  0  0  0  0  0
    2.5121   17.7087   45.0509 N   0  0  0  0  0  0  0  0  0  0  0  0
    1.9228   16.4438   43.2123 N   0  0  0  0  0  0  0  0  0  0  0  0
    0.6576   16.8957   43.2748 C   0  0  0  0  0  0  0  0  0  0  0  0
   -0.4272   16.6396   42.5280 N   0  0  0  0  0  0  0  0  0  0  0  0
   -0.4845   15.7383   41.3733 C   0  0  0  0  0  0  0  0  0  0  0  0
   -1.3958   17.2807   42.9379 N   0  0  0  0  0  0  0  0  0  0  0  0
   -0.9756   18.0262   43.9732 C   0  0  0  0  0  0  0  0  0  0  0  0
    0.3176   17.7725   44.2144 C   0  0  0  0  0  0  0  0  0  0  0  0
    1.2547   18.1848   45.1117 C   0  0  0  0  0  0  0  0  0  0  0  0
    0.9420   19.0748   46.0846 N   0  0  0  0  0  0  0  0  0  0  0  0
    4.9591   17.6892   45.4821 H   0  0  0  0  0  0  0  0  0  0  0  0
    7.2759   16.7926   45.3191 H   0  0  0  0  0  0  0  0  0  0  0  0
    7.7829   14.9299   43.7497 H   0  0  0  0  0  0  0  0  0  0  0  0
    3.6389   14.8670   42.4952 H   0  0  0  0  0  0  0  0  0  0  0  0
   -1.3143   15.0281   41.5033 H   0  0  0  0  0  0  0  0  0  0  0  0
   -0.6448   16.3258   40.4572 H   0  0  0  0  0  0  0  0  0  0  0  0
    0.4627   15.1848   41.2928 H   0  0  0  0  0  0  0  0  0  0  0  0
   -1.5982   18.7365   44.5369 H   0  0  0  0  0  0  0  0  0  0  0  0
   -0.0143   19.4520   46.1495 H   0  0  0  0  0  0  0  0  0  0  0  0
    1.6605   19.3740   46.7592 H   0  0  0  0  0  0  0  0  0  0  0  0
  1  2  2  0
  1  6  1  0
  2  3  1  0
  3  4  2  0
  4  5  1  0
  5  6  2  0
  6  7  1  0
  7  8  2  0
  7  9  1  0
  8 16  1  0
  9 10  2  0
 10 11  1  0
 10 15  1  0
 11 12  1  0
 11 13  1  0
 13 14  2  0
 14 15  1  0
 15 16  2  0
 16 17  1  0
  1 18  1  0
  2 19  1  0
  3 20  1  0
  5 21  1  0
 12 22  1  0
 12 23  1  0
 12 24  1  0
 14 25  1  0
 17 26  1  0
 17 27  1  0
M  END
>  <mol_id>  (71) 
2026-09-18-6fnk-s0-n100-r5-0071

>  <rmsd_to_ref>  (71) 
3.6683673469431155

>  <pose_kind>  (71) 
rigid

$$$$
6fnk.A
     RDKit          3D

 27 29  0  0  0  0  0  0  0  0999 V2000
    2.8277   18.1617   41.9691 C   0  0  0  0  0  0  0  0  0  0  0  0
    2.9405   16.9561   41.3062 C   0  0  0  0  0  0  0  0  0  0  0  0
    1.9652   15.9741   41.3611 C   0  0  0  0  0  0  0  0  0  0  0  0
    0.8361   16.1880   42.0970 N   0  0  0  0  0  0  0  0  0  0  0  0
    0.6931   17.3682   42.7640 C   0  0  0  0  0  0  0  0  0  0  0  0
    1.6580   18.3433   42.7115 C   0  0  0  0  0  0  0  0  0  0  0  0
    1.4816   19.5816   43.4259 C   0  0  0  0  0  0  0  0  0  0  0  0
    0.3601   19.7901   44.1547 N   0  0  0  0  0  0  0  0  0  0  0  0
    2.4072   20.5577   43.3957 N   0  0  0  0  0  0  0  0  0  0  0  0
    2.2887   21.7306   44.0455 C   0  0  0  0  0  0  0  0  0  0  0  0
    3.1050   22.7910   44.1182 N   0  0  0  0  0  0  0  0  0  0  0  0
    4.4070   22.9400   43.4667 C   0  0  0  0  0  0  0  0  0  0  0  0
    2.5096   23.6819   44.8933 N   0  0  0  0  0  0  0  0  0  0  0  0
    1.3083   23.2134   45.3298 C   0  0  0  0  0  0  0  0  0  0  0  0
    1.1499   21.9547   44.7917 C   0  0  0  0  0  0  0  0  0  0  0  0
    0.1925   20.9637   44.8322 C   0  0  0  0  0  0  0  0  0  0  0  0
   -0.9821   21.2104   45.6096 N   0  0  0  0  0  0  0  0  0  0  0  0
    3.5820   18.9380   41.9349 H   0  0  0  0  0  0  0  0  0  0  0  0
    3.8569   16.8216   40.7284 H   0  0  0  0  0  0  0  0  0  0  0  0
    2.0870   15.0328   40.8248 H   0  0  0  0  0  0  0  0  0  0  0  0
   -0.1952   17.5499   43.3496 H   0  0  0  0  0  0  0  0  0  0  0  0
    4.6781   21.9658   43.0009 H   0  0  0  0  0  0  0  0  0  0  0  0
    4.2757   23.7310   42.6803 H   0  0  0  0  0  0  0  0  0  0  0  0
    5.1683   23.2317   44.2027 H   0  0  0  0  0  0  0  0  0  0  0  0
    0.6081   23.7055   45.9648 H   0  0  0  0  0  0  0  0  0  0  0  0
   -1.7912   21.7206   45.1853 H   0  0  0  0  0  0  0  0  0  0  0  0
   -1.0725   20.8999   46.5986 H   0  0  0  0  0  0  0  0  0  0  0  0
  1  2  2  0
  1  6  1  0
  2  3  1  0
  3  4  2  0
  4  5  1  0
  5  6  2  0
  6  7  1  0
  7  8  2  0
  7  9  1  0
  8 16  1  0
  9 10  2  0
 10 11  1  0
 10 15  1  0
 11 12  1  0
 11 13  1  0
 13 14  2  0
 14 15  1  0
 15 16  2  0
 16 17  1  0
  1 18  1  0
  2 19  1  0
  3 20  1  0
  5 21  1  0
 12 22  1  0
 12 23  1  0
 12 24  1  0
 14 25  1  0
 17 26  1  0
 17 27  1  0
M  END
>  <mol_id>  (72) 
2026-09-18-6fnk-s0-n100-r5-0072

>  <rmsd_to_ref>  (72) 
3.714285714287039

>  <pose_kind>  (72) 
conformer

$$$$
6fnk.A
     RDKit          3D

 27 29  0  0  0  0  0  0  0  0999 V2000
    5.6338   18.1805   42.3100 C   0  0  0  0  0  0  0  0  0  0  0  0
    6.6664   17.7734   41.4651 C   0  0  0  0  0  0  0  0  0  0  0  0
    6.5326   17.9116   40.0913 C   0  0  0  0  0  0  0  0  0  0  0  0
    5.3649   18.4621   39.5556 N   0  0  0  0  0  0  0  0  0  0  0  0
    4.3273   18.8692   40.4080 C   0  0  0  0  0  0  0  0  0  0  0  0
    4.4598   18.7291   41.7882 C   0  0  0  0  0  0  0  0  0  0  0  0
    3.4229   19.1336   42.6351 C   0  0  0  0  0  0  0  0  0  0  0  0
    3.4508   18.8505   43.9447 N   0  0  0  0  0  0  0  0  0  0  0  0
    2.3879   19.8191   42.1391 N   0  0  0  0  0  0  0  0  0  0  0  0
    1.3683   20.2175   42.9204 C   0  0  0  0  0  0  0  0  0  0  0  0
    0.2380   20.8887   42.6518 N   0  0  0  0  0  0  0  0  0  0  0  0
   -0.1751   21.3881   41.3369 C   0  0  0  0  0  0  0  0  0  0  0  0
   -0.4255   21.0467   43.6775 N   0  0  0  0  0  0  0  0  0  0  0  0
    0.2673   20.5039   44.6921 C   0  0  0  0  0  0  0  0  0  0  0  0
    1.3940   19.9516   44.2226 C   0  0  0  0  0  0  0  0  0  0  0  0
    2.4469   19.2618   44.7413 C   0  0  0  0  0  0  0  0  0  0  0  0
    2.5040   18.9704   46.0635 N   0  0  0  0  0  0  0  0  0  0  0  0
    5.7451   18.0683   43.3986 H   0  0  0  0  0  0  0  0  0  0  0  0
    7.5862   17.3431   41.8879 H   0  0  0  0  0  0  0  0  0  0  0  0
    7.3450   17.5882   39.4239 H   0  0  0  0  0  0  0  0  0  0  0  0
    3.4074   19.2999   39.9858 H   0  0  0  0  0  0  0  0  0  0  0  0
   -1.1979   21.0464   41.1197 H   0  0  0  0  0  0  0  0  0  0  0  0
   -0.1482   22.4878   41.3374 H   0  0  0  0  0  0  0  0  0  0  0  0
    0.5108   21.0049   40.5671 H   0  0  0  0  0  0  0  0  0  0  0  0
   -0.0430   20.5118   45.7474 H   0  0  0  0  0  0  0  0  0  0  0  0
    1.7465   19.2755   46.6912 H   0  0  0  0  0  0  0  0  0  0  0  0
    3.3048   18.4439   46.4407 H   0  0  0  0  0  0  0  0  0  0  0  0
  1  2  2  0
  1  6  1  0
  2  3  1  0
  3  4  2  0
  4  5  1  0
  5  6  2  0
  6  7  1  0
  7  8  2  0
  7  9  1  0
  8 16  1  0
  9 10  2  0
 10 11  1  0
 10 15  1  0
 11 12  1  0
 11 13  1  0
 13 14  2  0
 14 15  1  0
 15 16  2  0
 16 17  1  0
  1 18  1  0
  2 19  1  0
  3 20  1  0
  5 21  1  0
 12 22  1  0
 12 23  1  0
 12 24  1  0
 14 25  1  0
 17 26  1  0
 17 27  1  0
M  END
>  <mol_id>  (73) 
2026-09-18-6fnk-s0-n100-r5-0073

>  <rmsd_to_ref>  (73) 
3.760204081632891

>  <pose_kind>  (73) 
rigid

$$$$
6fnk.A
     RDKit          3D

 27 29  0  0  0  0  0  0  0  0999 V2000
    0.8522   14.2176   42.0774 C   0  0  0  0  0  0  0  0  0  0  0  0
    0.1690   13.2730   42.8256 C   0  0  0  0  0  0  0  0  0  0  0  0
   -0.3550   13.6534   44.0376 C   0  0  0  0  0  0  0  0  0  0  0  0
   -0.2305   14.9064   44.5255 N   0  0  0  0  0  0  0  0  0  0  0  0
    0.4412   15.8412   43.7932 C   0  0  0  0  0  0  0  0  0  0  0  0
    0.9915   15.5040   42.5564 C   0  0  0  0  0  0  0  0  0  0  0  0
    1.7135   16.5086   41.7693 C   0  0  0  0  0  0  0  0  0  0  0  0
    2.2603   16.2435   40.5808 N   0  0  0  0  0  0  0  0  0  0  0  0
    1.8346   17.7561   42.2603 N   0  0  0  0  0  0  0  0  0  0  0  0
    2.4758   18.7505   41.6204 C   0  0  0  0  0  0  0  0  0  0  0  0
    2.7070   20.0503   41.9333 N   0  0  0  0  0  0  0  0  0  0  0  0
    2.2563   20.7039   43.1642 C   0  0  0  0  0  0  0  0  0  0  0  0
    3.4009   20.5948   40.9336 N   0  0  0  0  0  0  0  0  0  0  0  0
    3.6167   19.6486   39.9786 C   0  0  0  0  0  0  0  0  0  0  0  0
    3.0391   18.4620   40.3870 C   0  0  0  0  0  0  0  0  0  0  0  0
    2.9258   17.1884   39.8663 C   0  0  0  0  0  0  0  0  0  0  0  0
    3.5028   16.9072   38.6111 N   0  0  0  0  0  0  0  0  0  0  0  0
    1.2727   13.9220   41.1102 H   0  0  0  0  0  0  0  0  0  0  0  0
    0.0378   12.2520   42.4845 H   0  0  0  0  0  0  0  0  0  0  0  0
   -0.9077   12.9610   44.6844 H   0  0  0  0  0  0  0  0  0  0  0  0
    0.5648   16.8626   44.1492 H   0  0  0  0  0  0  0  0  0  0  0  0
    1.2403   21.1233   43.0515 H   0  0  0  0  0  0  0  0  0  0  0  0
    2.9411   21.5240   43.4460 H   0  0  0  0  0  0  0  0  0  0  0  0
    2.2108   19.9656   43.9914 H   0  0  0  0  0  0  0  0  0  0  0  0
    4.1445   19.7503   39.0378 H   0  0  0  0  0  0  0  0  0  0  0  0
    2.9113   16.5640   37.8244 H   0  0  0  0  0  0  0  0  0  0  0  0
    4.5286   17.0425   38.4652 H   0  0  0  0  0  0  0  0  0  0  0  0
  1  2  2  0
  1  6  1  0
  2  3  1  0
  3  4  2  0
  4  5  1  0
  5  6  2  0
  6  7  1  0
  7  8  2  0
  7  9  1  0
  8 16  1  0
  9 10  2  0
 10 11  1  0
 10 15  1  0
 11 12  1  0
 11 13  1  0
 13 14  2  0
 14 15  1  0
 15 16  2  0
 16 17  1  0
  1 18  1  0
  2 19  1  0
  3 20  1  0
  5 21  1  0
 12 22  1  0
 12 23  1  0
 12 24  1  0
 14 25  1  0
 17 26  1  0
 17 27  1  0
M  END
>  <mol_id>  (74) 
2026-09-18-6fnk-s0-n100-r5-0074

>  <rmsd_to_ref>  (74) 
3.8061224489850467

>  <pose_kind>  (74) 
conformer

$$$$
6fnk.A
     RDKit          3D

 27 29  0  0  0  0  0  0  0  0999 V2000
   -1.9077   18.0061   41.1372 C   0  0  0  0  0  0  0  0  0  0  0  0
   -2.8959   17.0216   41.1256 C   0  0  0  0  0  0  0  0  0  0  0  0
   -2.7588   15.8929   41.9204 C   0  0  0  0  0  0  0  0  0  0  0  0
   -1.6325   15.7454   42.7348 N   0  0  0  0  0  0  0  0  0  0  0  0
   -0.6394   16.7367   42.7432 C   0  0  0  0  0  0  0  0  0  0  0  0
   -0.7752   17.8700   41.9437 C   0  0  0  0  0  0  0  0  0  0  0  0
    0.2175   18.8553   41.9525 C   0  0  0  0  0  0  0  0  0  0  0  0
    0.1981   19.8629   41.0691 N   0  0  0  0  0  0  0  0  0  0  0  0
    1.2004   18.8013   42.8570 N   0  0  0  0  0  0  0  0  0  0  0  0
    2.1770   19.7253   42.8911 C   0  0  0  0  0  0  0  0  0  0  0  0
    3.2537   19.8678   43.6790 N   0  0  0  0  0  0  0  0  0  0  0  0
    3.6401   18.9783   44.7782 C   0  0  0  0  0  0  0  0  0  0  0  0
    3.8916   20.8728   43.3622 N   0  0  0  0  0  0  0  0  0  0  0  0
    3.2330   21.4655   42.3528 C   0  0  0  0  0  0  0  0  0  0  0  0
    2.1585   20.7349   42.0264 C   0  0  0  0  0  0  0  0  0  0  0  0
    1.1578   20.8058   41.1061 C   0  0  0  0  0  0  0  0  0  0  0  0
    1.1098   21.8190   40.2075 N   0  0  0  0  0  0  0  0  0  0  0  0
   -2.0214   18.8989   40.5048 H   0  0  0  0  0  0  0  0  0  0  0  0
   -3.7833   17.1401   40.4865 H   0  0  0  0  0  0  0  0  0  0  0  0
   -3.5359   15.1146   41.9098 H   0  0  0  0  0  0  0  0  0  0  0  0
    0.2481   16.6189   43.3822 H   0  0  0  0  0  0  0  0  0  0  0  0
    4.6889   18.6721   44.6507 H   0  0  0  0  0  0  0  0  0  0  0  0
    3.5265   19.5078   45.7356 H   0  0  0  0  0  0  0  0  0  0  0  0
    2.9948   18.0874   44.7731 H   0  0  0  0  0  0  0  0  0  0  0  0
    3.5304   22.4071   41.8681 H   0  0  0  0  0  0  0  0  0  0  0  0
    1.8341   22.5513   40.2179 H   0  0  0  0  0  0  0  0  0  0  0  0
    0.3490   21.8569   39.5142 H   0  0  0  0  0  0  0  0  0  0  0  0
  1  2  2  0
  1  6  1  0
  2  3  1  0
  3  4  2  0
  4  5  1  0
  5  6  2  0
  6  7  1  0
  7  8  2  0
  7  9  1  0
  8 16  1  0
  9 10  2  0
 10 11  1  0
 10 15  1  0
 11 12  1  0
 11 13  1  0
 13 14  2  0
 14 15  1  0
 15 16  2  0
 16 17  1  0
  1 18  1  0
  2 19  1  0
  3 20  1  0
  5 21  1  0
 12 22  1  0
 12 23  1  0
 12 24  1  0
 14 25  1  0
 17 26  1  0
 17 27  1  0
M  END
>  <mol_id>  (75) 
2026-09-18-6fnk-s0-n100-r5-0075

>  <rmsd_to_ref>  (75) 
3.852040816329494

>  <pose_kind>  (75) 
rigid

$$$$
6fnk.A
     RDKit          3D

 27 29  0  0  0  0  0  0  0  0999 V2000
    2.8675   20.7279   41.0319 C   0  0  0  0  0  0  0  0  0  0  0  0
    3.2360   20.9493   39.7164 C   0  0  0  0  0  0  0  0  0  0  0  0
    2.9718   19.9426   38.7966 C   0  0  0  0  0  0  0  0  0  0  0  0
    2.3785   18.8122   39.2150 N   0  0  0  0  0  0  0  0  0  0  0  0
    2.0217   18.5979   40.4886 C   0  0  0  0  0  0  0  0  0  0  0  0
    2.2597   19.5671   41.4538 C   0  0  0  0  0  0  0  0  0  0  0  0
    1.8814   19.3594   42.8475 C   0  0  0  0  0  0  0  0  0  0  0  0
    2.1079   20.2975   43.8004 N   0  0  0  0  0  0  0  0  0  0  0  0
    1.2908   18.1975   43.1830 N   0  0  0  0  0  0  0  0  0  0  0  0
    0.9090   17.9242   44.4498 C   0  0  0  0  0  0  0  0  0  0  0  0
    0.3156   16.8771   45.0510 N   0  0  0  0  0  0  0  0  0  0  0  0
   -0.1069   15.6386   44.3963 C   0  0  0  0  0  0  0  0  0  0  0  0
    0.1566   17.1126   46.3458 N   0  0  0  0  0  0  0  0  0  0  0  0
    0.6494   18.3451   46.6434 C   0  0  0  0  0  0  0  0  0  0  0  0
    1.1245   18.8590   45.4489 C   0  0  0  0  0  0  0  0  0  0  0  0
    1.7316   20.0457   45.0872 C   0  0  0  0  0  0  0  0  0  0  0  0
    1.9825   21.0475   46.0609 N   0  0  0  0  0  0  0  0  0  0  0  0
    3.0777   21.5145   41.7318 H   0  0  0  0  0  0  0  0  0  0  0  0
    3.7114   21.8654   39.4038 H   0  0  0  0  0  0  0  0  0  0  0  0
    3.2480   20.0924   37.7754 H   0  0  0  0  0  0  0  0  0  0  0  0
    1.5392   17.6451   40.7550 H   0  0  0  0  0  0  0  0  0  0  0  0
   -1.2092   15.6037   44.2861 H   0  0  0  0  0  0  0  0  0  0  0  0
    0.2187   14.7623   44.9832 H   0  0  0  0  0  0  0  0  0  0  0  0
    0.3261   15.6056   43.3786 H   0  0  0  0  0  0  0  0  0  0  0  0
    0.6754   18.8415   47.6063 H   0  0  0  0  0  0  0  0  0  0  0  0
    2.7324   20.9731   46.7871 H   0  0  0  0  0  0  0  0  0  0  0  0
    1.3698   21.8945   46.0271 H   0  0  0  0  0  0  0  0  0  0  0  0
  1  2  2  0
  1  6  1  0
  2  3  1  0
  3  4  2  0
  4  5  1  0
  5  6  2  0
  6  7  1  0
  7  8  2  0
  7  9  1  0
  8 16  1  0
  9 10  2  0
 10 11  1  0
 10 15  1  0
 11 12  1  0
 11 13  1  0
 13 14  2  0
 14 15  1  0
 15 16  2  0
 16 17  1  0
  1 18  1  0
  2 19  1  0
  3 20  1  0
  5 21  1  0
 12 22  1  0
 12 23  1  0
 12 24  1  0
 14 25  1  0
 17 26  1  0
 17 27  1  0
M  END
>  <mol_id>  (76) 
2026-09-18-6fnk-s0-n100-r5-0076

>  <rmsd_to_ref>  (76) 
3.8979591836769254

>  <pose_kind>  (76) 
conformer

$$$$
6fnk.A
     RDKit          3D

 27 29  0  0  0  0  0  0  0  0999 V2000
   -0.5008   18.4720   40.6821 C   0  0  0  0  0  0  0  0  0  0  0  0
   -1.6295   18.2018   39.9082 C   0  0  0  0  0  0  0  0  0  0  0  0
   -2.8563   17.9933   40.5213 C   0  0  0  0  0  0  0  0  0  0  0  0
   -2.9606   18.0580   41.9135 N   0  0  0  0  0  0  0  0  0  0  0  0
   -1.8233   18.3284   42.6895 C   0  0  0  0  0  0  0  0  0  0  0  0
   -0.5899   18.5361   42.0748 C   0  0  0  0  0  0  0  0  0  0  0  0
    0.5424   18.8032   42.8510 C   0  0  0  0  0  0  0  0  0  0  0  0
    1.7647   18.8323   42.3021 N   0  0  0  0  0  0  0  0  0  0  0  0
    0.4108   19.0404   44.1600 N   0  0  0  0  0  0  0  0  0  0  0  0
    1.4769   19.2922   44.9403 C   0  0  0  0  0  0  0  0  0  0  0  0
    1.5921   19.5385   46.2542 N   0  0  0  0  0  0  0  0  0  0  0  0
    0.4897   19.6006   47.2185 C   0  0  0  0  0  0  0  0  0  0  0  0
    2.7716   19.7207   46.5585 N   0  0  0  0  0  0  0  0  0  0  0  0
    3.4960   19.6324   45.4309 C   0  0  0  0  0  0  0  0  0  0  0  0
    2.6915   19.3352   44.4016 C   0  0  0  0  0  0  0  0  0  0  0  0
    2.8375   19.1040   43.0680 C   0  0  0  0  0  0  0  0  0  0  0  0
    4.0611   19.1364   42.4864 N   0  0  0  0  0  0  0  0  0  0  0  0
    0.4695   18.6362   40.1907 H   0  0  0  0  0  0  0  0  0  0  0  0
   -1.5468   18.1540   38.8123 H   0  0  0  0  0  0  0  0  0  0  0  0
   -3.7464   17.7772   39.9122 H   0  0  0  0  0  0  0  0  0  0  0  0
   -1.9053   18.3766   43.7854 H   0  0  0  0  0  0  0  0  0  0  0  0
    0.7117   18.9431   48.0720 H   0  0  0  0  0  0  0  0  0  0  0  0
    0.3709   20.6349   47.5736 H   0  0  0  0  0  0  0  0  0  0  0  0
   -0.4407   19.2703   46.7335 H   0  0  0  0  0  0  0  0  0  0  0  0
    4.5838   19.7813   45.3628 H   0  0  0  0  0  0  0  0  0  0  0  0
    4.8957   19.3424   43.0538 H   0  0  0  0  0  0  0  0  0  0  0  0
    4.1565   18.9550   41.4770 H   0  0  0  0  0  0  0  0  0  0  0  0
  1  2  2  0
  1  6  1  0
  2  3  1  0
  3  4  2  0
  4  5  1  0
  5  6  2  0
  6  7  1  0
  7  8  2  0
  7  9  1  0
  8 16  1  0
  9 10  2  0
 10 11  1  0
 10 15  1  0
 11 12  1  0
 11 13  1  0
 13 14  2  0
 14 15  1  0
 15 16  2  0
 16 17  1  0
  1 18  1  0
  2 19  1  0
  3 20  1  0
  5 21  1  0
 12 22  1  0
 12 23  1  0
 12 24  1  0
 14 25  1  0
 17 26  1  0
 17 27  1  0
M  END
>  <mol_id>  (77) 
2026-09-18-6fnk-s0-n100-r5-0077

>  <rmsd_to_ref>  (77) 
3.9438775510249493

>  <pose_kind>  (77) 
rigid

$$$$
6fnk.A
     RDKit          3D

 27 29  0  0  0  0  0  0  0  0999 V2000
    2.8564   17.5722   40.8944 C   0  0  0  0  0  0  0  0  0  0  0  0
    4.2430   17.6008   40.7402 C   0  0  0  0  0  0  0  0  0  0  0  0
    4.9477   18.6065   41.3580 C   0  0  0  0  0  0  0  0  0  0  0  0
    4.3556   19.5647   42.1053 N   0  0  0  0  0  0  0  0  0  0  0  0
    3.0131   19.5223   42.2442 C   0  0  0  0  0  0  0  0  0  0  0  0
    2.2353   18.5446   41.6554 C   0  0  0  0  0  0  0  0  0  0  0  0
    0.7799   18.5453   41.8388 C   0  0  0  0  0  0  0  0  0  0  0  0
    0.2413   19.5214   42.5919 N   0  0  0  0  0  0  0  0  0  0  0  0
    0.0541   17.5793   41.2515 N   0  0  0  0  0  0  0  0  0  0  0  0
   -1.2763   17.5566   41.4027 C   0  0  0  0  0  0  0  0  0  0  0  0
   -2.2656   16.7568   40.9653 N   0  0  0  0  0  0  0  0  0  0  0  0
   -2.0941   15.5767   40.1150 C   0  0  0  0  0  0  0  0  0  0  0  0
   -3.4414   17.1814   41.4111 N   0  0  0  0  0  0  0  0  0  0  0  0
   -3.2037   18.2945   42.1630 C   0  0  0  0  0  0  0  0  0  0  0  0
   -1.8402   18.5524   42.1728 C   0  0  0  0  0  0  0  0  0  0  0  0
   -1.0984   19.5494   42.7798 C   0  0  0  0  0  0  0  0  0  0  0  0
   -1.7266   20.5674   43.5737 N   0  0  0  0  0  0  0  0  0  0  0  0
    2.2904   16.7872   40.4143 H   0  0  0  0  0  0  0  0  0  0  0  0
    4.7017   16.8244   40.1374 H   0  0  0  0  0  0  0  0  0  0  0  0
    6.0184   18.6572   41.2590 H   0  0  0  0  0  0  0  0  0  0  0  0
    2.5828   20.3145   42.8546 H   0  0  0  0  0  0  0  0  0  0  0  0
   -3.0002   15.4268   39.5173 H   0  0  0  0  0  0  0  0  0  0  0  0
   -1.9400   14.6466   40.7149 H   0  0  0  0  0  0  0  0  0  0  0  0
   -1.2280   15.6630   39.4329 H   0  0  0  0  0  0  0  0  0  0  0  0
   -3.9127   18.9066   42.6819 H   0  0  0  0  0  0  0  0  0  0  0  0
   -2.3963   21.2632   43.1546 H   0  0  0  0  0  0  0  0  0  0  0  0
   -1.5432   20.6561   44.5952 H   0  0  0  0  0  0  0  0  0  0  0  0
  1  2  2  0
  1  6  1  0
  2  3  1  0
  3  4  2  0
  4  5  1  0
  5  6  2  0
  6  7  1  0
  7  8  2  0
  7  9  1  0
  8 16  1  0
  9 10  2  0
 10 11  1  0
 10 15  1  0
 11 12  1  0
 11 13  1  0
 13 14  2  0
 14 15  1  0
 15 16  2  0
 16 17  1  0
  1 18  1  0
  2 19  1  0
  3 20  1  0
  5 21  1  0
 12 22  1  0
 12 23  1  0
 12 24  1  0
 14 25  1  0
 17 26  1  0
 17 27  1  0
M  END
>  <mol_id>  (78) 
2026-09-18-6fnk-s0-n100-r5-0078

>  <rmsd_to_ref>  (78) 
3.9897959183692713

>  <pose_kind>  (78) 
conformer

$$$$
6fnk.A
     RDKit          3D

 27 29  0  0  0  0  0  0  0  0999 V2000
    0.3106   16.6528   43.4521 C   0  0  0  0  0  0  0  0  0  0  0  0
   -0.3561   15.6172   44.1070 C   0  0  0  0  0  0  0  0  0  0  0  0
    0.1528   15.1056   45.2918 C   0  0  0  0  0  0  0  0  0  0  0  0
    1.3309   15.6309   45.8297 N   0  0  0  0  0  0  0  0  0  0  0  0
    2.0002   16.6715   45.1679 C   0  0  0  0  0  0  0  0  0  0  0  0
    1.4909   17.1850   43.9767 C   0  0  0  0  0  0  0  0  0  0  0  0
    2.1615   18.2207   43.3180 C   0  0  0  0  0  0  0  0  0  0  0  0
    1.7930   18.6109   42.0900 N   0  0  0  0  0  0  0  0  0  0  0  0
    3.1826   18.8400   43.9188 N   0  0  0  0  0  0  0  0  0  0  0  0
    3.8572   19.8340   43.3140 C   0  0  0  0  0  0  0  0  0  0  0  0
    4.9037   20.5780   43.7031 N   0  0  0  0  0  0  0  0  0  0  0  0
    5.6055   20.4728   44.9859 C   0  0  0  0  0  0  0  0  0  0  0  0
    5.2058   21.3908   42.8283 N   0  0  0  0  0  0  0  0  0  0  0  0
    4.3344   21.2365   41.8179 C   0  0  0  0  0  0  0  0  0  0  0  0
    3.4902   20.2355   42.1010 C   0  0  0  0  0  0  0  0  0  0  0  0
    2.4462   19.6186   41.4823 C   0  0  0  0  0  0  0  0  0  0  0  0
    2.0476   19.9998   40.2444 N   0  0  0  0  0  0  0  0  0  0  0  0
   -0.0973   17.0546   42.5129 H   0  0  0  0  0  0  0  0  0  0  0  0
   -1.2849   15.2065   43.6843 H   0  0  0  0  0  0  0  0  0  0  0  0
   -0.3705   14.2870   45.8075 H   0  0  0  0  0  0  0  0  0  0  0  0
    2.9289   17.0829   45.5902 H   0  0  0  0  0  0  0  0  0  0  0  0
    6.6858   20.3714   44.8055 H   0  0  0  0  0  0  0  0  0  0  0  0
    5.4166   21.3774   45.5824 H   0  0  0  0  0  0  0  0  0  0  0  0
    5.2405   19.5905   45.5322 H   0  0  0  0  0  0  0  0  0  0  0  0
    4.3166   21.8400   40.8984 H   0  0  0  0  0  0  0  0  0  0  0  0
    2.5334   20.7687   39.7610 H   0  0  0  0  0  0  0  0  0  0  0  0
    1.2588   19.5206   39.7871 H   0  0  0  0  0  0  0  0  0  0  0  0
  1  2  2  0
  1  6  1  0
  2  3  1  0
  3  4  2  0
  4  5  1  0
  5  6  2  0
  6  7  1  0
  7  8  2  0
  7  9  1  0
  8 16  1  0
  9 10  2  0
 10 11  1  0
 10 15  1  0
 11 12  1  0
 11 13  1  0
 13 14  2  0
 14 15  1  0
 15 16  2  0
 16 17  1  0
  1 18  1  0
  2 19  1  0
  3 20  1  0
  5 21  1  0
 12 22  1  0
 12 23  1  0
 12 24  1  0
 14 25  1  0
 17 26  1  0
 17 27  1  0
M  END
>  <mol_id>  (79) 
2026-09-18-6fnk-s0-n100-r5-0079

>  <rmsd_to_ref>  (79) 
4.035714285718095

>  <pose_kind>  (79) 
rigid

$$$$
6fnk.A
     RDKit          3D

 27 29  0  0  0  0  0  0  0  0999 V2000
    3.5802   19.2787   42.7301 C   0  0  0  0  0  0  0  0  0  0  0  0
    4.3034   18.9571   41.6071 C   0  0  0  0  0  0  0  0  0  0  0  0
    4.6694   17.6202   41.4420 C   0  0  0  0  0  0  0  0  0  0  0  0
    4.3337   16.6787   42.3379 N   0  0  0  0  0  0  0  0  0  0  0  0
    3.6270   17.0075   43.4301 C   0  0  0  0  0  0  0  0  0  0  0  0
    3.2333   18.3103   43.6543 C   0  0  0  0  0  0  0  0  0  0  0  0
    2.4668   18.6410   44.8480 C   0  0  0  0  0  0  0  0  0  0  0  0
    2.1629   17.6505   45.7064 N   0  0  0  0  0  0  0  0  0  0  0  0
    2.0791   19.9099   45.0734 N   0  0  0  0  0  0  0  0  0  0  0  0
    1.3625   20.2022   46.1952 C   0  0  0  0  0  0  0  0  0  0  0  0
    0.8502   21.3640   46.6699 N   0  0  0  0  0  0  0  0  0  0  0  0
    0.9779   22.6386   46.0146 C   0  0  0  0  0  0  0  0  0  0  0  0
    0.2354   21.0791   47.8164 N   0  0  0  0  0  0  0  0  0  0  0  0
    0.3432   19.7579   48.0863 C   0  0  0  0  0  0  0  0  0  0  0  0
    1.0581   19.1704   47.0687 C   0  0  0  0  0  0  0  0  0  0  0  0
    1.4588   17.8743   46.8304 C   0  0  0  0  0  0  0  0  0  0  0  0
    1.1476   16.8296   47.7200 N   0  0  0  0  0  0  0  0  0  0  0  0
    3.2860   20.3294   42.8710 H   0  0  0  0  0  0  0  0  0  0  0  0
    4.5904   19.7085   40.8595 H   0  0  0  0  0  0  0  0  0  0  0  0
    5.2480   17.3511   40.5475 H   0  0  0  0  0  0  0  0  0  0  0  0
    3.3523   16.2465   44.1600 H   0  0  0  0  0  0  0  0  0  0  0  0
    0.1084   22.8620   45.3733 H   0  0  0  0  0  0  0  0  0  0  0  0
    1.9605   22.7139   45.4718 H   0  0  0  0  0  0  0  0  0  0  0  0
    1.0208   23.4515   46.7946 H   0  0  0  0  0  0  0  0  0  0  0  0
   -0.0414   19.2092   48.9306 H   0  0  0  0  0  0  0  0  0  0  0  0
    1.6226   15.9099   47.6769 H   0  0  0  0  0  0  0  0  0  0  0  0
    0.4163   16.9591   48.4588 H   0  0  0  0  0  0  0  0  0  0  0  0
  1  2  2  0
  1  6  1  0
  2  3  1  0
  3  4  2  0
  4  5  1  0
  5  6  2  0
  6  7  1  0
  7  8  2  0
  7  9  1  0
  8 16  1  0
  9 10  2  0
 10 11  1  0
 10 15  1  0
 11 12  1  0
 11 13  1  0
 13 14  2  0
 14 15  1  0
 15 16  2  0
 16 17  1  0
  1 18  1  0
  2 19  1  0
  3 20  1  0
  5 21  1  0
 12 22  1  0
 12 23  1  0
 12 24  1  0
 14 25  1  0
 17 26  1  0
 17 27  1  0
M  END
>  <mol_id>  (80) 
2026-09-18-6fnk-s0-n100-r5-0080

>  <rmsd_to_ref>  (80) 
4.0816326530620195

>  <pose_kind>  (80) 
conformer

$$$$
6fnk.A
     RDKit          3D

 27 29  0  0  0  0  0  0  0  0999 V2000
    0.5727   19.2150   39.2413 C   0  0  0  0  0  0  0  0  0  0  0  0
   -0.5449   19.0017   38.4342 C   0  0  0  0  0  0  0  0  0  0  0  0
   -1.4230   17.9681   38.7259 C   0  0  0  0  0  0  0  0  0  0  0  0
   -1.1888   17.1441   39.8302 N   0  0  0  0  0  0  0  0  0  0  0  0
   -0.0629   17.3601   40.6393 C   0  0  0  0  0  0  0  0  0  0  0  0
    0.8209   18.3969   40.3461 C   0  0  0  0  0  0  0  0  0  0  0  0
    1.9436   18.6083   41.1530 C   0  0  0  0  0  0  0  0  0  0  0  0
    2.8969   19.4797   40.7953 N   0  0  0  0  0  0  0  0  0  0  0  0
    2.0716   17.9393   42.3033 N   0  0  0  0  0  0  0  0  0  0  0  0
    3.1408   18.1093   43.1012 C   0  0  0  0  0  0  0  0  0  0  0  0
    3.4893   17.5500   44.2699 N   0  0  0  0  0  0  0  0  0  0  0  0
    2.7168   16.5468   45.0087 C   0  0  0  0  0  0  0  0  0  0  0  0
    4.5654   18.0029   44.6625 N   0  0  0  0  0  0  0  0  0  0  0  0
    4.9652   18.9218   43.7681 C   0  0  0  0  0  0  0  0  0  0  0  0
    4.0849   18.9808   42.7599 C   0  0  0  0  0  0  0  0  0  0  0  0
    3.9616   19.6747   41.5951 C   0  0  0  0  0  0  0  0  0  0  0  0
    4.9067   20.5682   41.2145 N   0  0  0  0  0  0  0  0  0  0  0  0
    1.2659   20.0359   39.0052 H   0  0  0  0  0  0  0  0  0  0  0  0
   -0.7298   19.6527   37.5670 H   0  0  0  0  0  0  0  0  0  0  0  0
   -2.3030   17.7972   38.0885 H   0  0  0  0  0  0  0  0  0  0  0  0
    0.1225   16.7096   41.5067 H   0  0  0  0  0  0  0  0  0  0  0  0
    3.3633   15.6898   45.2487 H   0  0  0  0  0  0  0  0  0  0  0  0
    2.3355   16.9906   45.9402 H   0  0  0  0  0  0  0  0  0  0  0  0
    1.8718   16.2073   44.3916 H   0  0  0  0  0  0  0  0  0  0  0  0
    5.8763   19.5326   43.8508 H   0  0  0  0  0  0  0  0  0  0  0  0
    5.7297   20.7331   41.8115 H   0  0  0  0  0  0  0  0  0  0  0  0
    4.8020   21.0826   40.3283 H   0  0  0  0  0  0  0  0  0  0  0  0
  1  2  2  0
  1  6  1  0
  2  3  1  0
  3  4  2  0
  4  5  1  0
  5  6  2  0
  6  7  1  0
  7  8  2  0
  7  9  1  0
  8 16  1  0
  9 10  2  0
 10 11  1  0
 10 15  1  0
 11 12  1  0
 11 13  1  0
 13 14  2  0
 14 15  1  0
 15 16  2  0
 16 17  1  0
  1 18  1  0
  2 19  1  0
  3 20  1  0
  5 21  1  0
 12 22  1  0
 12 23  1  0
 12 24  1  0
 14 25  1  0
 17 26  1  0
 17 27  1  0
M  END
>  <mol_id>  (81) 
2026-09-18-6fnk-s0-n100-r5-0081

>  <rmsd_to_ref>  (81) 
4.127551020408833

>  <pose_kind>  (81) 
rigid

$$$$
6fnk.A
     RDKit          3D

 27 29  0  0  0  0  0  0  0  0999 V2000
   -0.8248   18.3242   41.8056 C   0  0  0  0  0  0  0  0  0  0  0  0
   -2.0438   17.8013   41.4918 C   0  0  0  0  0  0  0  0  0  0  0  0
   -2.2208   17.0194   40.3551 C   0  0  0  0  0  0  0  0  0  0  0  0
   -1.1348   16.7911   39.5620 N   0  0  0  0  0  0  0  0  0  0  0  0
    0.0720   17.3114   39.8767 C   0  0  0  0  0  0  0  0  0  0  0  0
    0.2505   18.0829   40.9967 C   0  0  0  0  0  0  0  0  0  0  0  0
    1.5624   18.6382   41.3230 C   0  0  0  0  0  0  0  0  0  0  0  0
    2.6352   18.4299   40.5659 N   0  0  0  0  0  0  0  0  0  0  0  0
    1.7110   19.3918   42.4273 N   0  0  0  0  0  0  0  0  0  0  0  0
    2.8681   19.9412   42.8071 C   0  0  0  0  0  0  0  0  0  0  0  0
    3.1801   20.7087   43.8666 N   0  0  0  0  0  0  0  0  0  0  0  0
    2.2591   21.1477   44.9186 C   0  0  0  0  0  0  0  0  0  0  0  0
    4.4781   20.9844   43.7664 N   0  0  0  0  0  0  0  0  0  0  0  0
    5.0044   20.4114   42.6675 C   0  0  0  0  0  0  0  0  0  0  0  0
    3.9883   19.7300   42.0264 C   0  0  0  0  0  0  0  0  0  0  0  0
    3.8460   18.9652   40.9023 C   0  0  0  0  0  0  0  0  0  0  0  0
    5.0047   18.7462   40.0939 N   0  0  0  0  0  0  0  0  0  0  0  0
   -0.7060   18.9380   42.7060 H   0  0  0  0  0  0  0  0  0  0  0  0
   -2.8746   18.0230   42.1713 H   0  0  0  0  0  0  0  0  0  0  0  0
   -3.1956   16.6201   40.1333 H   0  0  0  0  0  0  0  0  0  0  0  0
    0.9094   17.1045   39.2174 H   0  0  0  0  0  0  0  0  0  0  0  0
    2.6731   21.0480   45.9235 H   0  0  0  0  0  0  0  0  0  0  0  0
    1.3614   20.4826   44.8709 H   0  0  0  0  0  0  0  0  0  0  0  0
    1.8860   22.1617   44.6752 H   0  0  0  0  0  0  0  0  0  0  0  0
    6.0190   20.4525   42.3196 H   0  0  0  0  0  0  0  0  0  0  0  0
    5.0950   19.1109   39.1282 H   0  0  0  0  0  0  0  0  0  0  0  0
    5.7736   18.1800   40.5525 H   0  0  0  0  0  0  0  0  0  0  0  0
  1  2  2  0
  1  6  1  0
  2  3  1  0
  3  4  2  0
  4  5  1  0
  5  6  2  0
  6  7  1  0
  7  8  2  0
  7  9  1  0
  8 16  1  0
  9 10  2  0
 10 11  1  0
 10 15  1  0
 11 12  1  0
 11 13  1  0
 13 14  2  0
 14 15  1  0
 15 16  2  0
 16 17  1  0
  1 18  1  0
  2 19  1  0
  3 20  1  0
  5 21  1  0
 12 22  1  0
 12 23  1  0
 12 24  1  0
 14 25  1  0
 17 26  1  0
 17 27  1  0
M  END
>  <mol_id>  (82) 
2026-09-18-6fnk-s0-n100-r5-0082

>  <rmsd_to_ref>  (82) 
4.173469387759974

>  <pose_kind>  (82) 
conformer

$$$$
6fnk.A
     RDKit          3D

 27 29  0  0  0  0  0  0  0  0999 V2000
    0.0432   17.2236   39.0999 C   0  0  0  0  0  0  0  0  0  0  0  0
   -1.2508   16.9365   38.6651 C   0  0  0  0  0  0  0  0  0  0  0  0
   -2.1964   16.4685   39.5658 C   0  0  0  0  0  0  0  0  0  0  0  0
   -1.8524   16.2887   40.9084 N   0  0  0  0  0  0  0  0  0  0  0  0
   -0.5496   16.5768   41.3425 C   0  0  0  0  0  0  0  0  0  0  0  0
    0.4017   17.0453   40.4382 C   0  0  0  0  0  0  0  0  0  0  0  0
    1.7002   17.3294   40.8734 C   0  0  0  0  0  0  0  0  0  0  0  0
    2.6756   17.6109   39.9985 N   0  0  0  0  0  0  0  0  0  0  0  0
    1.9788   17.3282   42.1809 N   0  0  0  0  0  0  0  0  0  0  0  0
    3.2172   17.5880   42.6369 C   0  0  0  0  0  0  0  0  0  0  0  0
    3.7296   17.6278   43.8762 N   0  0  0  0  0  0  0  0  0  0  0  0
    2.9941   17.3829   45.1204 C   0  0  0  0  0  0  0  0  0  0  0  0
    4.9274   17.9129   43.8402 N   0  0  0  0  0  0  0  0  0  0  0  0
    5.2555   18.1087   42.5525 C   0  0  0  0  0  0  0  0  0  0  0  0
    4.1875   17.8804   41.7765 C   0  0  0  0  0  0  0  0  0  0  0  0
    3.9142   17.8934   40.4430 C   0  0  0  0  0  0  0  0  0  0  0  0
    4.8800   18.1838   39.5378 N   0  0  0  0  0  0  0  0  0  0  0  0
    0.7892   17.5942   38.3814 H   0  0  0  0  0  0  0  0  0  0  0  0
   -1.5212   17.0812   37.6087 H   0  0  0  0  0  0  0  0  0  0  0  0
   -3.2162   16.2390   39.2234 H   0  0  0  0  0  0  0  0  0  0  0  0
   -0.2785   16.4326   42.3988 H   0  0  0  0  0  0  0  0  0  0  0  0
    3.5269   16.6295   45.7191 H   0  0  0  0  0  0  0  0  0  0  0  0
    2.9189   18.3195   45.6923 H   0  0  0  0  0  0  0  0  0  0  0  0
    1.9845   17.0160   44.8834 H   0  0  0  0  0  0  0  0  0  0  0  0
    6.2494   18.4103   42.1904 H   0  0  0  0  0  0  0  0  0  0  0  0
    5.8349   18.4029   39.8560 H   0  0  0  0  0  0  0  0  0  0  0  0
    4.6593   18.1853   38.5318 H   0  0  0  0  0  0  0  0  0  0  0  0
  1  2  2  0
  1  6  1  0
  2  3  1  0
  3  4  2  0
  4  5  1  0
  5  6  2  0
  6  7  1  0
  7  8  2  0
  7  9  1  0
  8 16  1  0
  9 10  2  0
 10 11  1  0
 10 15  1  0
 11 12  1  0
 11 13  1  0
 13 14  2  0
 14 15  1  0
 15 16  2  0
 16 17  1  0
  1 18  1  0
  2 19  1  0
  3 20  1  0
  5 21  1  0
 12 22  1  0
 12 23  1  0
 12 24  1  0
 14 25  1  0
 17 26  1  0
 17 27  1  0
M  END
>  <mol_id>  (83) 
2026-09-18-6fnk-s0-n100-r5-0083

>  <rmsd_to_ref>  (83) 
4.21938775510526

>  <pose_kind>  (83) 
rigid

$$$$
6fnk.A
     RDKit          3D

 27 29  0  0  0  0  0  0  0  0999 V2000
   -2.1196   16.3261   42.3563 C   0  0  0  0  0  0  0  0  0  0  0  0
   -3.3606   15.7143   42.3267 C   0  0  0  0  0  0  0  0  0  0  0  0
   -3.7150   14.9263   43.4142 C   0  0  0  0  0  0  0  0  0  0  0  0
   -2.8518   14.7921   44.4350 N   0  0  0  0  0  0  0  0  0  0  0  0
   -1.6503   15.3844   44.4635 C   0  0  0  0  0  0  0  0  0  0  0  0
   -1.2399   16.1843   43.4054 C   0  0  0  0  0  0  0  0  0  0  0  0
    0.0631   16.8408   43.4111 C   0  0  0  0  0  0  0  0  0  0  0  0
    0.4765   17.6247   42.3845 N   0  0  0  0  0  0  0  0  0  0  0  0
    0.8682   16.6540   44.4733 N   0  0  0  0  0  0  0  0  0  0  0  0
    2.0898   17.2244   44.5591 C   0  0  0  0  0  0  0  0  0  0  0  0
    3.0751   17.2107   45.4751 N   0  0  0  0  0  0  0  0  0  0  0  0
    3.0536   16.4879   46.7471 C   0  0  0  0  0  0  0  0  0  0  0  0
    4.0962   17.9534   45.0716 N   0  0  0  0  0  0  0  0  0  0  0  0
    3.8101   18.4896   43.8546 C   0  0  0  0  0  0  0  0  0  0  0  0
    2.5449   18.0312   43.5293 C   0  0  0  0  0  0  0  0  0  0  0  0
    1.7061   18.2122   42.4470 C   0  0  0  0  0  0  0  0  0  0  0  0
    2.1095   19.0266   41.3567 N   0  0  0  0  0  0  0  0  0  0  0  0
   -1.8590   16.9321   41.5091 H   0  0  0  0  0  0  0  0  0  0  0  0
   -4.0372   15.8368   41.4959 H   0  0  0  0  0  0  0  0  0  0  0  0
   -4.6686   14.4446   43.4124 H   0  0  0  0  0  0  0  0  0  0  0  0
   -0.9976   15.2267   45.3357 H   0  0  0  0  0  0  0  0  0  0  0  0
    2.9069   17.1841   47.5970 H   0  0  0  0  0  0  0  0  0  0  0  0
    4.0011   15.9416   46.8958 H   0  0  0  0  0  0  0  0  0  0  0  0
    2.1981   15.7861   46.7461 H   0  0  0  0  0  0  0  0  0  0  0  0
    4.4274   19.1417   43.2480 H   0  0  0  0  0  0  0  0  0  0  0  0
    2.8292   18.7373   40.6542 H   0  0  0  0  0  0  0  0  0  0  0  0
    1.6459   19.9607   41.2759 H   0  0  0  0  0  0  0  0  0  0  0  0
  1  2  2  0
  1  6  1  0
  2  3  1  0
  3  4  2  0
  4  5  1  0
  5  6  2  0
  6  7  1  0
  7  8  2  0
  7  9  1  0
  8 16  1  0
  9 10  2  0
 10 11  1  0
 10 15  1  0
 11 12  1  0
 11 13  1  0
 13 14  2  0
 14 15  1  0
 15 16  2  0
 16 17  1  0
  1 18  1  0
  2 19  1  0
  3 20  1  0
  5 21  1  0
 12 22  1  0
 12 23  1  0
 12 24  1  0
 14 25  1  0
 17 26  1  0
 17 27  1  0
M  END
>  <mol_id>  (84) 
2026-09-18-6fnk-s0-n100-r5-0084

>  <rmsd_to_ref>  (84) 
4.265306122449309

>  <pose_kind>  (84) 
conformer

$$$$
6fnk.A
     RDKit          3D

 27 29  0  0  0  0  0  0  0  0999 V2000
   -1.1679   14.2520   41.9845 C   0  0  0  0  0  0  0  0  0  0  0  0
   -2.4297   13.6692   42.1031 C   0  0  0  0  0  0  0  0  0  0  0  0
   -3.3395   14.1682   43.0238 C   0  0  0  0  0  0  0  0  0  0  0  0
   -2.9921   15.2566   43.8288 N   0  0  0  0  0  0  0  0  0  0  0  0
   -1.7215   15.8398   43.7083 C   0  0  0  0  0  0  0  0  0  0  0  0
   -0.8060   15.3381   42.7851 C   0  0  0  0  0  0  0  0  0  0  0  0
    0.4605   15.9200   42.6689 C   0  0  0  0  0  0  0  0  0  0  0  0
    1.4154   15.3516   41.9198 N   0  0  0  0  0  0  0  0  0  0  0  0
    0.7281   17.0640   43.3067 N   0  0  0  0  0  0  0  0  0  0  0  0
    1.9365   17.6488   43.2261 C   0  0  0  0  0  0  0  0  0  0  0  0
    2.4342   18.7657   43.7783 N   0  0  0  0  0  0  0  0  0  0  0  0
    1.7123   19.6836   44.6645 C   0  0  0  0  0  0  0  0  0  0  0  0
    3.6039   18.9356   43.4318 N   0  0  0  0  0  0  0  0  0  0  0  0
    3.9244   17.9356   42.5942 C   0  0  0  0  0  0  0  0  0  0  0  0
    2.8855   17.0981   42.4754 C   0  0  0  0  0  0  0  0  0  0  0  0
    2.6223   15.9377   41.8138 C   0  0  0  0  0  0  0  0  0  0  0  0
    3.5673   15.3471   41.0427 N   0  0  0  0  0  0  0  0  0  0  0  0
   -0.4503   13.8522   41.2529 H   0  0  0  0  0  0  0  0  0  0  0  0
   -2.7031   12.8145   41.4669 H   0  0  0  0  0  0  0  0  0  0  0  0
   -4.3337   13.7076   43.1203 H   0  0  0  0  0  0  0  0  0  0  0  0
   -1.4475   16.6947   44.3440 H   0  0  0  0  0  0  0  0  0  0  0  0
    2.3020   19.8512   45.5778 H   0  0  0  0  0  0  0  0  0  0  0  0
    1.5541   20.6424   44.1490 H   0  0  0  0  0  0  0  0  0  0  0  0
    0.7391   19.2459   44.9315 H   0  0  0  0  0  0  0  0  0  0  0  0
    4.8922   17.8217   42.0838 H   0  0  0  0  0  0  0  0  0  0  0  0
    4.4978   15.7785   40.9475 H   0  0  0  0  0  0  0  0  0  0  0  0
    3.3551   14.4669   40.5518 H   0  0  0  0  0  0  0  0  0  0  0  0
  1  2  2  0
  1  6  1  0
  2  3  1  0
  3  4  2  0
  4  5  1  0
  5  6  2  0
  6  7  1  0
  7  8  2  0
  7  9  1  0
  8 16  1  0
  9 10  2  0
 10 11  1  0
 10 15  1  0
 11 12  1  0
 11 13  1  0
 13 14  2  0
 14 15  1  0
 15 16  2  0
 16 17  1  0
  1 18  1  0
  2 19  1  0
  3 20  1  0
  5 21  1  0
 12 22  1  0
 12 23  1  0
 12 24  1  0
 14 25  1  0
 17 26  1  0
 17 27  1  0
M  END
>  <mol_id>  (85) 
2026-09-18-6fnk-s0-n100-r5-0085

>  <rmsd_to_ref>  (85) 
4.311224489797448

>  <pose_kind>  (85) 
rigid

$$$$
6fnk.A
     RDKit          3D

 27 29  0  0  0  0  0  0  0  0999 V2000
    0.0500   17.3763   46.3614 C   0  0  0  0  0  0  0  0  0  0  0  0
   -0.2771   16.6998   47.5303 C   0  0  0  0  0  0  0  0  0  0  0  0
    0.5864   15.6944   47.9646 C   0  0  0  0  0  0  0  0  0  0  0  0
    1.7135   15.3881   47.2626 N   0  0  0  0  0  0  0  0  0  0  0  0
    2.0243   16.0509   46.1265 C   0  0  0  0  0  0  0  0  0  0  0  0
    1.2089   17.0572   45.6449 C   0  0  0  0  0  0  0  0  0  0  0  0
    1.5522   17.7683   44.4165 C   0  0  0  0  0  0  0  0  0  0  0  0
    2.6826   17.3961   43.7943 N   0  0  0  0  0  0  0  0  0  0  0  0
    0.7403   18.7411   43.9736 N   0  0  0  0  0  0  0  0  0  0  0  0
    1.0673   19.3948   42.8332 C   0  0  0  0  0  0  0  0  0  0  0  0
    0.5112   20.3915   42.1131 N   0  0  0  0  0  0  0  0  0  0  0  0
   -0.7222   21.0575   42.4642 C   0  0  0  0  0  0  0  0  0  0  0  0
    1.2687   20.6463   41.0602 N   0  0  0  0  0  0  0  0  0  0  0  0
    2.3502   19.8302   41.0452 C   0  0  0  0  0  0  0  0  0  0  0  0
    2.2096   19.0444   42.1721 C   0  0  0  0  0  0  0  0  0  0  0  0
    3.0127   18.0534   42.6465 C   0  0  0  0  0  0  0  0  0  0  0  0
    4.2147   17.6718   41.9670 N   0  0  0  0  0  0  0  0  0  0  0  0
   -0.5493   18.1556   45.9573 H   0  0  0  0  0  0  0  0  0  0  0  0
   -1.1791   16.9613   48.0715 H   0  0  0  0  0  0  0  0  0  0  0  0
    0.3590   15.1394   48.8839 H   0  0  0  0  0  0  0  0  0  0  0  0
    2.9113   15.7902   45.5988 H   0  0  0  0  0  0  0  0  0  0  0  0
   -0.8556   21.1242   43.5646 H   0  0  0  0  0  0  0  0  0  0  0  0
   -0.6805   22.1148   42.0986 H   0  0  0  0  0  0  0  0  0  0  0  0
   -1.6007   20.5167   42.0500 H   0  0  0  0  0  0  0  0  0  0  0  0
    3.1352   19.8124   40.3096 H   0  0  0  0  0  0  0  0  0  0  0  0
    4.5637   16.6786   42.1028 H   0  0  0  0  0  0  0  0  0  0  0  0
    4.7453   18.3428   41.3502 H   0  0  0  0  0  0  0  0  0  0  0  0
  1  2  2  0
  1  6  1  0
  2  3  1  0
  3  4  2  0
  4  5  1  0
  5  6  2  0
  6  7  1  0
  7  8  2  0
  7  9  1  0
  8 16  1  0
  9 10  2  0
 10 11  1  0
 10 15  1  0
 11 12  1  0
 11 13  1  0
 13 14  2  0
 14 15  1  0
 15 16  2  0
 16 17  1  0
  1 18  1  0
  2 19  1  0
  3 20  1  0
  5 21  1  0
 12 22  1  0
 12 23  1  0
 12 24  1  0
 14 25  1  0
 17 26  1  0
 17 27  1  0
M  END
>  <mol_id>  (86) 
2026-09-18-6fnk-s0-n100-r5-0086

>  <rmsd_to_ref>  (86) 
4.35714285714544

>  <pose_kind>  (86) 
conformer

$$$$
6fnk.A
     RDKit          3D

 27 29  0  0  0  0  0  0  0  0999 V2000
   -0.3824   18.9339   41.3996 C   0  0  0  0  0  0  0  0  0  0  0  0
   -0.1835   19.2602   40.0580 C   0  0  0  0  0  0  0  0  0  0  0  0
    0.7936   18.6046   39.3231 C   0  0  0  0  0  0  0  0  0  0  0  0
    1.5749   17.6155   39.9268 N   0  0  0  0  0  0  0  0  0  0  0  0
    1.3736   17.2906   41.2769 C   0  0  0  0  0  0  0  0  0  0  0  0
    0.3936   17.9498   42.0167 C   0  0  0  0  0  0  0  0  0  0  0  0
    0.1968   17.6255   43.3629 C   0  0  0  0  0  0  0  0  0  0  0  0
   -0.6118   18.3601   44.1391 N   0  0  0  0  0  0  0  0  0  0  0  0
    0.8164   16.5641   43.8889 N   0  0  0  0  0  0  0  0  0  0  0  0
    0.6588   16.2259   45.1810 C   0  0  0  0  0  0  0  0  0  0  0  0
    1.1782   15.2350   45.9215 N   0  0  0  0  0  0  0  0  0  0  0  0
    2.1089   14.2049   45.4504 C   0  0  0  0  0  0  0  0  0  0  0  0
    0.7577   15.2927   47.0778 N   0  0  0  0  0  0  0  0  0  0  0  0
   -0.0988   16.3254   47.1430 C   0  0  0  0  0  0  0  0  0  0  0  0
   -0.1511   16.9419   45.9547 C   0  0  0  0  0  0  0  0  0  0  0  0
   -0.7947   18.0200   45.4284 C   0  0  0  0  0  0  0  0  0  0  0  0
   -1.6247   18.7742   46.1891 N   0  0  0  0  0  0  0  0  0  0  0  0
   -1.1584   19.4571   41.9776 H   0  0  0  0  0  0  0  0  0  0  0  0
   -0.8010   20.0368   39.5830 H   0  0  0  0  0  0  0  0  0  0  0  0
    0.9533   18.8631   38.2659 H   0  0  0  0  0  0  0  0  0  0  0  0
    1.9905   16.5139   41.7524 H   0  0  0  0  0  0  0  0  0  0  0  0
    2.9827   14.1674   46.1176 H   0  0  0  0  0  0  0  0  0  0  0  0
    1.6048   13.2272   45.4512 H   0  0  0  0  0  0  0  0  0  0  0  0
    2.4375   14.4472   44.4290 H   0  0  0  0  0  0  0  0  0  0  0  0
   -0.6700   16.6199   48.0357 H   0  0  0  0  0  0  0  0  0  0  0  0
   -1.7791   18.5319   47.1782 H   0  0  0  0  0  0  0  0  0  0  0  0
   -2.1012   19.5896   45.7781 H   0  0  0  0  0  0  0  0  0  0  0  0
  1  2  2  0
  1  6  1  0
  2  3  1  0
  3  4  2  0
  4  5  1  0
  5  6  2  0
  6  7  1  0
  7  8  2  0
  7  9  1  0
  8 16  1  0
  9 10  2  0
 10 11  1  0
 10 15  1  0
 11 12  1  0
 11 13  1  0
 13 14  2  0
 14 15  1  0
 15 16  2  0
 16 17  1  0
  1 18  1  0
  2 19  1  0
  3 20  1  0
  5 21  1  0
 12 22  1  0
 12 23  1  0
 12 24  1  0
 14 25  1  0
 17 26  1  0
 17 27  1  0
M  END
>  <mol_id>  (87) 
2026-09-18-6fnk-s0-n100-r5-0087

>  <rmsd_to_ref>  (87) 
4.4030612244903065

>  <pose_kind>  (87) 
rigid

$$$$
6fnk.A
     RDKit          3D

 27 29  0  0  0  0  0  0  0  0999 V2000
   -2.7946   18.6932   42.2591 C   0  0  0  0  0  0  0  0  0  0  0  0
   -3.9500   18.5429   41.5190 C   0  0  0  0  0  0  0  0  0  0  0  0
   -3.9841   17.8744   40.3063 C   0  0  0  0  0  0  0  0  0  0  0  0
   -2.8364   17.3336   39.8041 N   0  0  0  0  0  0  0  0  0  0  0  0
   -1.6776   17.4641   40.5100 C   0  0  0  0  0  0  0  0  0  0  0  0
   -1.6407   18.1260   41.7121 C   0  0  0  0  0  0  0  0  0  0  0  0
   -0.4025   18.2495   42.4377 C   0  0  0  0  0  0  0  0  0  0  0  0
    0.7339   17.7116   41.9363 N   0  0  0  0  0  0  0  0  0  0  0  0
   -0.3315   18.8916   43.6181 N   0  0  0  0  0  0  0  0  0  0  0  0
    0.8001   19.0334   44.3332 C   0  0  0  0  0  0  0  0  0  0  0  0
    1.0383   19.6340   45.5073 N   0  0  0  0  0  0  0  0  0  0  0  0
    0.0626   20.3260   46.3506 C   0  0  0  0  0  0  0  0  0  0  0  0
    2.3272   19.4831   45.7618 N   0  0  0  0  0  0  0  0  0  0  0  0
    2.9365   18.7875   44.7628 C   0  0  0  0  0  0  0  0  0  0  0  0
    1.9649   18.4893   43.8322 C   0  0  0  0  0  0  0  0  0  0  0  0
    1.9078   17.8283   42.6238 C   0  0  0  0  0  0  0  0  0  0  0  0
    3.1229   17.2698   42.1174 N   0  0  0  0  0  0  0  0  0  0  0  0
   -2.7534   19.2132   43.2082 H   0  0  0  0  0  0  0  0  0  0  0  0
   -4.8472   18.9886   41.9528 H   0  0  0  0  0  0  0  0  0  0  0  0
   -4.9150   17.7742   39.7477 H   0  0  0  0  0  0  0  0  0  0  0  0
   -0.7629   17.0409   40.1238 H   0  0  0  0  0  0  0  0  0  0  0  0
   -0.8981   20.3916   45.7917 H   0  0  0  0  0  0  0  0  0  0  0  0
   -0.0587   19.6957   47.2721 H   0  0  0  0  0  0  0  0  0  0  0  0
    0.4237   21.3327   46.6006 H   0  0  0  0  0  0  0  0  0  0  0  0
    3.9640   18.5141   44.6912 H   0  0  0  0  0  0  0  0  0  0  0  0
    3.4228   16.3134   42.4179 H   0  0  0  0  0  0  0  0  0  0  0  0
    3.7364   17.7803   41.4498 H   0  0  0  0  0  0  0  0  0  0  0  0
  1  2  2  0
  1  6  1  0
  2  3  1  0
  3  4  2  0
  4  5  1  0
  5  6  2  0
  6  7  1  0
  7  8  2  0
  7  9  1  0
  8 16  1  0
  9 10  2  0
 10 11  1  0
 10 15  1  0
 11 12  1  0
 11 13  1  0
 13 14  2  0
 14 15  1  0
 15 16  2  0
 16 17  1  0
  1 18  1  0
  2 19  1  0
  3 20  1  0
  5 21  1  0
 12 22  1  0
 12 23  1  0
 12 24  1  0
 14 25  1  0
 17 26  1  0
 17 27  1  0
M  END
>  <mol_id>  (88) 
2026-09-18-6fnk-s0-n100-r5-0088

>  <rmsd_to_ref>  (88) 
4.448979591839757

>  <pose_kind>  (88) 
conformer

$$$$
6fnk.A
     RDKit          3D

 27 29  0  0  0  0  0  0  0  0999 V2000
   -0.1471   16.7634   42.8266 C   0  0  0  0  0  0  0  0  0  0  0  0
   -1.4586   16.3877   42.5354 C   0  0  0  0  0  0  0  0  0  0  0  0
   -2.5193   17.1135   43.0575 C   0  0  0  0  0  0  0  0  0  0  0  0
   -2.2726   18.2224   43.8715 N   0  0  0  0  0  0  0  0  0  0  0  0
   -0.9523   18.5970   44.1639 C   0  0  0  0  0  0  0  0  0  0  0  0
    0.1140   17.8675   43.6415 C   0  0  0  0  0  0  0  0  0  0  0  0
    1.4289   18.2419   43.9366 C   0  0  0  0  0  0  0  0  0  0  0  0
    2.4626   17.4604   43.5948 N   0  0  0  0  0  0  0  0  0  0  0  0
    1.6666   19.3985   44.5634 N   0  0  0  0  0  0  0  0  0  0  0  0
    2.9163   19.7881   44.8717 C   0  0  0  0  0  0  0  0  0  0  0  0
    3.3909   20.8751   45.4990 N   0  0  0  0  0  0  0  0  0  0  0  0
    2.5892   21.9814   46.0303 C   0  0  0  0  0  0  0  0  0  0  0  0
    4.6200   20.8329   45.5676 N   0  0  0  0  0  0  0  0  0  0  0  0
    5.0190   19.7099   44.9481 C   0  0  0  0  0  0  0  0  0  0  0  0
    3.9481   19.0248   44.5252 C   0  0  0  0  0  0  0  0  0  0  0  0
    3.7196   17.8488   43.8787 C   0  0  0  0  0  0  0  0  0  0  0  0
    4.7474   17.0445   43.5139 N   0  0  0  0  0  0  0  0  0  0  0  0
    0.6901   16.1842   42.4101 H   0  0  0  0  0  0  0  0  0  0  0  0
   -1.6516   15.5165   41.8922 H   0  0  0  0  0  0  0  0  0  0  0  0
   -3.5539   16.8164   42.8310 H   0  0  0  0  0  0  0  0  0  0  0  0
   -0.7586   19.4683   44.8069 H   0  0  0  0  0  0  0  0  0  0  0  0
    2.8637   22.1620   47.0801 H   0  0  0  0  0  0  0  0  0  0  0  0
    2.7806   22.8896   45.4398 H   0  0  0  0  0  0  0  0  0  0  0  0
    1.5218   21.7229   45.9696 H   0  0  0  0  0  0  0  0  0  0  0  0
    6.0653   19.3999   44.8093 H   0  0  0  0  0  0  0  0  0  0  0  0
    5.7173   17.3223   43.7213 H   0  0  0  0  0  0  0  0  0  0  0  0
    4.5587   16.1554   43.0293 H   0  0  0  0  0  0  0  0  0  0  0  0
  1  2  2  0
  1  6  1  0
  2  3  1  0
  3  4  2  0
  4  5  1  0
  5  6  2  0
  6  7  1  0
  7  8  2  0
  7  9  1  0
  8 16  1  0
  9 10  2  0
 10 11  1  0
 10 15  1  0
 11 12  1  0
 11 13  1  0
 13 14  2  0
 14 15  1  0
 15 16  2  0
 16 17  1  0
  1 18  1  0
  2 19  1  0
  3 20  1  0
  5 21  1  0
 12 22  1  0
 12 23  1  0
 12 24  1  0
 14 25  1  0
 17 26  1  0
 17 27  1  0
M  END
>  <mol_id>  (89) 
2026-09-18-6fnk-s0-n100-r5-0089

>  <rmsd_to_ref>  (89) 
4.4948979591881955

>  <pose_kind>  (89) 
rigid

$$$$
6fnk.A
     RDKit          3D

 27 29  0  0  0  0  0  0  0  0999 V2000
    4.8447   16.9031   44.8699 C   0  0  0  0  0  0  0  0  0  0  0  0
    5.9086   17.1386   45.7066 C   0  0  0  0  0  0  0  0  0  0  0  0
    6.5908   18.3465   45.5511 C   0  0  0  0  0  0  0  0  0  0  0  0
    6.2304   19.2486   44.6247 N   0  0  0  0  0  0  0  0  0  0  0  0
    5.1891   19.0049   43.8143 C   0  0  0  0  0  0  0  0  0  0  0  0
    4.4718   17.8311   43.9148 C   0  0  0  0  0  0  0  0  0  0  0  0
    3.3455   17.5908   43.0230 C   0  0  0  0  0  0  0  0  0  0  0  0
    3.0362   18.5356   42.1162 N   0  0  0  0  0  0  0  0  0  0  0  0
    2.6409   16.4479   43.1152 N   0  0  0  0  0  0  0  0  0  0  0  0
    1.5900   16.2389   42.2731 C   0  0  0  0  0  0  0  0  0  0  0  0
    0.7220   15.2061   42.1410 N   0  0  0  0  0  0  0  0  0  0  0  0
    0.7468   14.0132   42.9452 C   0  0  0  0  0  0  0  0  0  0  0  0
   -0.1142   15.5235   41.1542 N   0  0  0  0  0  0  0  0  0  0  0  0
    0.2003   16.7392   40.6510 C   0  0  0  0  0  0  0  0  0  0  0  0
    1.2850   17.2220   41.3453 C   0  0  0  0  0  0  0  0  0  0  0  0
    2.0113   18.3890   41.2576 C   0  0  0  0  0  0  0  0  0  0  0  0
    1.6982   19.3847   40.3140 N   0  0  0  0  0  0  0  0  0  0  0  0
    4.2994   15.9543   44.9832 H   0  0  0  0  0  0  0  0  0  0  0  0
    6.2233   16.4170   46.4723 H   0  0  0  0  0  0  0  0  0  0  0  0
    7.4434   18.5458   46.2148 H   0  0  0  0  0  0  0  0  0  0  0  0
    4.8931   19.7343   43.0609 H   0  0  0  0  0  0  0  0  0  0  0  0
    0.0677   14.0852   43.8116 H   0  0  0  0  0  0  0  0  0  0  0  0
    1.8013   13.7428   43.2292 H   0  0  0  0  0  0  0  0  0  0  0  0
    0.3873   13.1430   42.3250 H   0  0  0  0  0  0  0  0  0  0  0  0
   -0.2774   17.2813   39.8511 H   0  0  0  0  0  0  0  0  0  0  0  0
    2.3559   20.1514   40.0838 H   0  0  0  0  0  0  0  0  0  0  0  0
    0.7779   19.3741   39.8138 H   0  0  0  0  0  0  0  0  0  0  0  0
  1  2  2  0
  1  6  1  0
  2  3  1  0
  3  4  2  0
  4  5  1  0
  5  6  2  0
  6  7  1  0
  7  8  2  0
  7  9  1  0
  8 16  1  0
  9 10  2  0
 10 11  1  0
 10 15  1  0
 11 12  1  0
 11 13  1  0
 13 14  2  0
 14 15  1  0
 15 16  2  0
 16 17  1  0
  1 18  1  0
  2 19  1  0
  3 20  1  0
  5 21  1  0
 12 22  1  0
 12 23  1  0
 12 24  1  0
 14 25  1  0
 17 26  1  0
 17 27  1  0
M  END
>  <mol_id>  (90) 
2026-09-18-6fnk-s0-n100-r5-0090

>  <rmsd_to_ref>  (90) 
4.540816326531121

>  <pose_kind>  (90) 
conformer

$$$$
6fnk.A
     RDKit          3D

 27 29  0  0  0  0  0  0  0  0999 V2000
   -0.6237   17.1956   38.7966 C   0  0  0  0  0  0  0  0  0  0  0  0
   -1.8145   17.1162   38.0744 C   0  0  0  0  0  0  0  0  0  0  0  0
   -2.8849   17.9316   38.4116 C   0  0  0  0  0  0  0  0  0  0  0  0
   -2.7677   18.8344   39.4721 N   0  0  0  0  0  0  0  0  0  0  0  0
   -1.5691   18.9109   40.1977 C   0  0  0  0  0  0  0  0  0  0  0  0
   -0.4937   18.0909   39.8610 C   0  0  0  0  0  0  0  0  0  0  0  0
    0.6989   18.1677   40.5876 C   0  0  0  0  0  0  0  0  0  0  0  0
    1.6804   17.2748   40.4001 N   0  0  0  0  0  0  0  0  0  0  0  0
    0.8722   19.1479   41.4800 N   0  0  0  0  0  0  0  0  0  0  0  0
    2.0013   19.2494   42.2036 C   0  0  0  0  0  0  0  0  0  0  0  0
    2.3888   20.1187   43.1493 N   0  0  0  0  0  0  0  0  0  0  0  0
    1.6072   21.2548   43.6469 C   0  0  0  0  0  0  0  0  0  0  0  0
    3.5190   19.8427   43.5538 N   0  0  0  0  0  0  0  0  0  0  0  0
    3.9469   18.7778   42.8559 C   0  0  0  0  0  0  0  0  0  0  0  0
    2.9848   18.3752   42.0150 C   0  0  0  0  0  0  0  0  0  0  0  0
    2.8238   17.3776   41.1027 C   0  0  0  0  0  0  0  0  0  0  0  0
    3.8042   16.4671   40.8874 N   0  0  0  0  0  0  0  0  0  0  0  0
    0.2218   16.5465   38.5250 H   0  0  0  0  0  0  0  0  0  0  0  0
   -1.9047   16.4075   37.2380 H   0  0  0  0  0  0  0  0  0  0  0  0
   -3.8254   17.8678   37.8447 H   0  0  0  0  0  0  0  0  0  0  0  0
   -1.4781   19.6196   41.0340 H   0  0  0  0  0  0  0  0  0  0  0  0
    1.5598   21.2142   44.7451 H   0  0  0  0  0  0  0  0  0  0  0  0
    2.0866   22.1944   43.3350 H   0  0  0  0  0  0  0  0  0  0  0  0
    0.5887   21.2081   43.2340 H   0  0  0  0  0  0  0  0  0  0  0  0
    4.9362   18.3081   42.9591 H   0  0  0  0  0  0  0  0  0  0  0  0
    4.6873   16.5270   41.4140 H   0  0  0  0  0  0  0  0  0  0  0  0
    3.6662   15.7152   40.1971 H   0  0  0  0  0  0  0  0  0  0  0  0
  1  2  2  0
  1  6  1  0
  2  3  1  0
  3  4  2  0
  4  5  1  0
  5  6  2  0
  6  7  1  0
  7  8  2  0
  7  9  1  0
  8 16  1  0
  9 10  2  0
 10 11  1  0
 10 15  1  0
 11 12  1  0
 11 13  1  0
 13 14  2  0
 14 15  1  0
 15 16  2  0
 16 17  1  0
  1 18  1  0
  2 19  1  0
  3 20  1  0
  5 21  1  0
 12 22  1  0
 12 23  1  0
 12 24  1  0
 14 25  1  0
 17 26  1  0
 17 27  1  0
M  END
>  <mol_id>  (91) 
2026-09-18-6fnk-s0-n100-r5-0091

>  <rmsd_to_ref>  (91) 
4.586734693879943

>  <pose_kind>  (91) 
rigid

$$$$
6fnk.A
     RDKit          3D

 27 29  0  0  0  0  0  0  0  0999 V2000
    3.3226   16.3013   43.9501 C   0  0  0  0  0  0  0  0  0  0  0  0
    3.7613   15.9262   45.2162 C   0  0  0  0  0  0  0  0  0  0  0  0
    4.5712   16.7459   45.9725 C   0  0  0  0  0  0  0  0  0  0  0  0
    4.9707   17.9538   45.5053 N   0  0  0  0  0  0  0  0  0  0  0  0
    4.5621   18.3446   44.2827 C   0  0  0  0  0  0  0  0  0  0  0  0
    3.7519   17.5448   43.5052 C   0  0  0  0  0  0  0  0  0  0  0  0
    3.3440   18.0232   42.1926 C   0  0  0  0  0  0  0  0  0  0  0  0
    3.7715   19.2312   41.7809 N   0  0  0  0  0  0  0  0  0  0  0  0
    2.5555   17.2906   41.3877 N   0  0  0  0  0  0  0  0  0  0  0  0
    2.1779   17.7442   40.1614 C   0  0  0  0  0  0  0  0  0  0  0  0
    1.4190   17.2361   39.1810 N   0  0  0  0  0  0  0  0  0  0  0  0
    0.7388   15.9425   39.1788 C   0  0  0  0  0  0  0  0  0  0  0  0
    1.3565   18.0875   38.1664 N   0  0  0  0  0  0  0  0  0  0  0  0
    2.0870   19.1929   38.4657 C   0  0  0  0  0  0  0  0  0  0  0  0
    2.6119   18.9785   39.7354 C   0  0  0  0  0  0  0  0  0  0  0  0
    3.4239   19.7311   40.5658 C   0  0  0  0  0  0  0  0  0  0  0  0
    3.8775   21.0089   40.1332 N   0  0  0  0  0  0  0  0  0  0  0  0
    2.6985   15.6544   43.3833 H   0  0  0  0  0  0  0  0  0  0  0  0
    3.4550   14.9606   45.6158 H   0  0  0  0  0  0  0  0  0  0  0  0
    4.8745   16.3853   46.9537 H   0  0  0  0  0  0  0  0  0  0  0  0
    4.8851   19.3260   43.9000 H   0  0  0  0  0  0  0  0  0  0  0  0
    0.5015   15.6177   38.1505 H   0  0  0  0  0  0  0  0  0  0  0  0
    1.3223   15.1939   39.7567 H   0  0  0  0  0  0  0  0  0  0  0  0
   -0.2292   16.0865   39.7101 H   0  0  0  0  0  0  0  0  0  0  0  0
    2.2272   20.0610   37.8372 H   0  0  0  0  0  0  0  0  0  0  0  0
    4.8293   21.3802   40.3476 H   0  0  0  0  0  0  0  0  0  0  0  0
    3.2378   21.6379   39.5623 H   0  0  0  0  0  0  0  0  0  0  0  0
  1  2  2  0
  1  6  1  0
  2  3  1  0
  3  4  2  0
  4  5  1  0
  5  6  2  0
  6  7  1  0
  7  8  2  0
  7  9  1  0
  8 16  1  0
  9 10  2  0
 10 11  1  0
 10 15  1  0
 11 12  1  0
 11 13  1  0
 13 14  2  0
 14 15  1  0
 15 16  2  0
 16 17  1  0
  1 18  1  0
  2 19  1  0
  3 20  1  0
  5 21  1  0
 12 22  1  0
 12 23  1  0
 12 24  1  0
 14 25  1  0
 17 26  1  0
 17 27  1  0
M  END
>  <mol_id>  (92) 
2026-09-18-6fnk-s0-n100-r5-0092

>  <rmsd_to_ref>  (92) 
4.632653061224968

>  <pose_kind>  (92) 
conformer

$$$$
6fnk.A
     RDKit          3D

 27 29  0  0  0  0  0  0  0  0999 V2000
   -0.3012   15.2737   45.3311 C   0  0  0  0  0  0  0  0  0  0  0  0
   -0.7041   14.8126   46.5844 C   0  0  0  0  0  0  0  0  0  0  0  0
   -1.2017   15.7042   47.5235 C   0  0  0  0  0  0  0  0  0  0  0  0
   -1.3022   17.0628   47.2114 N   0  0  0  0  0  0  0  0  0  0  0  0
   -0.8946   17.5239   45.9504 C   0  0  0  0  0  0  0  0  0  0  0  0
   -0.3928   16.6294   45.0068 C   0  0  0  0  0  0  0  0  0  0  0  0
    0.0148   17.0924   43.7516 C   0  0  0  0  0  0  0  0  0  0  0  0
    0.6600   16.2884   42.8952 N   0  0  0  0  0  0  0  0  0  0  0  0
   -0.2452   18.3530   43.3908 N   0  0  0  0  0  0  0  0  0  0  0  0
    0.1386   18.8367   42.1960 C   0  0  0  0  0  0  0  0  0  0  0  0
    0.0070   20.0463   41.6306 N   0  0  0  0  0  0  0  0  0  0  0  0
   -0.6449   21.2125   42.2339 C   0  0  0  0  0  0  0  0  0  0  0  0
    0.5077   20.0547   40.5053 N   0  0  0  0  0  0  0  0  0  0  0  0
    0.9718   18.8178   40.2625 C   0  0  0  0  0  0  0  0  0  0  0  0
    0.7681   18.0423   41.3358 C   0  0  0  0  0  0  0  0  0  0  0  0
    1.0309   16.7538   41.6881 C   0  0  0  0  0  0  0  0  0  0  0  0
    1.6738   15.9175   40.8374 N   0  0  0  0  0  0  0  0  0  0  0  0
    0.0928   14.5624   44.5903 H   0  0  0  0  0  0  0  0  0  0  0  0
   -0.6274   13.7426   46.8280 H   0  0  0  0  0  0  0  0  0  0  0  0
   -1.5170   15.3421   48.5132 H   0  0  0  0  0  0  0  0  0  0  0  0
   -0.9713   18.5937   45.7061 H   0  0  0  0  0  0  0  0  0  0  0  0
    0.0328   22.0776   42.1849 H   0  0  0  0  0  0  0  0  0  0  0  0
   -1.5704   21.4401   41.6848 H   0  0  0  0  0  0  0  0  0  0  0  0
   -0.8861   20.9949   43.2848 H   0  0  0  0  0  0  0  0  0  0  0  0
    1.4467   18.4915   39.3255 H   0  0  0  0  0  0  0  0  0  0  0  0
    1.9666   16.2529   39.9086 H   0  0  0  0  0  0  0  0  0  0  0  0
    1.8697   14.9465   41.1196 H   0  0  0  0  0  0  0  0  0  0  0  0
  1  2  2  0
  1  6  1  0
  2  3  1  0
  3  4  2  0
  4  5  1  0
  5  6  2  0
  6  7  1  0
  7  8  2  0
  7  9  1  0
  8 16  1  0
  9 10  2  0
 10 11  1  0
 10 15  1  0
 11 12  1  0
 11 13  1  0
 13 14  2  0
 14 15  1  0
 15 16  2  0
 16 17  1  0
  1 18  1  0
  2 19  1  0
  3 20  1  0
  5 21  1  0
 12 22  1  0
 12 23  1  0
 12 24  1  0
 14 25  1  0
 17 26  1  0
 17 27  1  0
M  END
>  <mol_id>  (93) 
2026-09-18-6fnk-s0-n100-r5-0093

>  <rmsd_to_ref>  (93) 
4.678571428577336

>  <pose_kind>  (93) 
rigid

$$$$
6fnk.A
     RDKit          3D

 27 29  0  0  0  0  0  0  0  0999 V2000
    0.5447   13.9853   45.0415 C   0  0  0  0  0  0  0  0  0  0  0  0
    0.4535   13.5614   46.3547 C   0  0  0  0  0  0  0  0  0  0  0  0
    0.3876   14.4793   47.3807 C   0  0  0  0  0  0  0  0  0  0  0  0
    0.4093   15.8218   47.1470 N   0  0  0  0  0  0  0  0  0  0  0  0
    0.4984   16.2679   45.8653 C   0  0  0  0  0  0  0  0  0  0  0  0
    0.5662   15.3497   44.8121 C   0  0  0  0  0  0  0  0  0  0  0  0
    0.6632   15.8132   43.4154 C   0  0  0  0  0  0  0  0  0  0  0  0
    0.7293   14.9458   42.3891 N   0  0  0  0  0  0  0  0  0  0  0  0
    0.6866   17.1386   43.1556 N   0  0  0  0  0  0  0  0  0  0  0  0
    0.7744   17.6151   41.8954 C   0  0  0  0  0  0  0  0  0  0  0  0
    0.8180   18.8384   41.3320 N   0  0  0  0  0  0  0  0  0  0  0  0
    0.7750   20.0936   42.0440 C   0  0  0  0  0  0  0  0  0  0  0  0
    0.9070   18.7202   40.0176 N   0  0  0  0  0  0  0  0  0  0  0  0
    0.9232   17.4162   39.6962 C   0  0  0  0  0  0  0  0  0  0  0  0
    0.8415   16.7042   40.8518 C   0  0  0  0  0  0  0  0  0  0  0  0
    0.8186   15.3297   41.1011 C   0  0  0  0  0  0  0  0  0  0  0  0
    0.8854   14.3905   40.0609 N   0  0  0  0  0  0  0  0  0  0  0  0
    0.5974   13.2603   44.2213 H   0  0  0  0  0  0  0  0  0  0  0  0
    0.4383   12.4865   46.5086 H   0  0  0  0  0  0  0  0  0  0  0  0
    0.3160   14.1345   48.4094 H   0  0  0  0  0  0  0  0  0  0  0  0
    0.5165   17.3401   45.6672 H   0  0  0  0  0  0  0  0  0  0  0  0
    0.2065   20.8082   41.4041 H   0  0  0  0  0  0  0  0  0  0  0  0
    1.8049   20.5474   42.1146 H   0  0  0  0  0  0  0  0  0  0  0  0
    0.2737   20.0428   43.0084 H   0  0  0  0  0  0  0  0  0  0  0  0
    0.9902   17.0481   38.6879 H   0  0  0  0  0  0  0  0  0  0  0  0
    1.7587   14.2822   39.4895 H   0  0  0  0  0  0  0  0  0  0  0  0
    0.0195   13.8040   39.8846 H   0  0  0  0  0  0  0  0  0  0  0  0
  1  2  2  0
  1  6  1  0
  2  3  1  0
  3  4  2  0
  4  5  1  0
  5  6  2  0
  6  7  1  0
  7  8  2  0
  7  9  1  0
  8 16  1  0
  9 10  2  0
 10 11  1  0
 10 15  1  0
 11 12  1  0
 11 13  1  0
 13 14  2  0
 14 15  1  0
 15 16  2  0
 16 17  1  0
  1 18  1  0
  2 19  1  0
  3 20  1  0
  5 21  1  0
 12 22  1  0
 12 23  1  0
 12 24  1  0
 14 25  1  0
 17 26  1  0
 17 27  1  0
M  END
>  <mol_id>  (94) 
2026-09-18-6fnk-s0-n100-r5-0094

>  <rmsd_to_ref>  (94) 
4.724489795921768

>  <pose_kind>  (94) 
conformer

$$$$
6fnk.A
     RDKit          3D

 27 29  0  0  0  0  0  0  0  0999 V2000
    1.7012   17.9263   44.7410 C   0  0  0  0  0  0  0  0  0  0  0  0
    2.0025   17.9982   46.1011 C   0  0  0  0  0  0  0  0  0  0  0  0
    0.9787   18.0530   47.0355 C   0  0  0  0  0  0  0  0  0  0  0  0
   -0.3535   18.0322   46.6133 N   0  0  0  0  0  0  0  0  0  0  0  0
   -0.6534   17.9614   45.2444 C   0  0  0  0  0  0  0  0  0  0  0  0
    0.3743   17.9082   44.3046 C   0  0  0  0  0  0  0  0  0  0  0  0
    0.0722   17.8400   42.9407 C   0  0  0  0  0  0  0  0  0  0  0  0
    1.0321   17.9646   42.0138 N   0  0  0  0  0  0  0  0  0  0  0  0
   -1.1901   17.6413   42.5481 N   0  0  0  0  0  0  0  0  0  0  0  0
   -1.5206   17.5787   41.2459 C   0  0  0  0  0  0  0  0  0  0  0  0
   -2.6967   17.4068   40.6234 N   0  0  0  0  0  0  0  0  0  0  0  0
   -3.9975   17.2268   41.2748 C   0  0  0  0  0  0  0  0  0  0  0  0
   -2.5437   17.4095   39.4012 N   0  0  0  0  0  0  0  0  0  0  0  0
   -1.2302   17.5542   39.1606 C   0  0  0  0  0  0  0  0  0  0  0  0
   -0.5729   17.6889   40.3202 C   0  0  0  0  0  0  0  0  0  0  0  0
    0.7178   17.8827   40.7077 C   0  0  0  0  0  0  0  0  0  0  0  0
    1.7085   18.0028   39.7910 N   0  0  0  0  0  0  0  0  0  0  0  0
    2.5170   17.8833   44.0043 H   0  0  0  0  0  0  0  0  0  0  0  0
    3.0513   18.0115   46.4325 H   0  0  0  0  0  0  0  0  0  0  0  0
    1.2151   18.1128   48.1082 H   0  0  0  0  0  0  0  0  0  0  0  0
   -1.7020   17.9478   44.9123 H   0  0  0  0  0  0  0  0  0  0  0  0
   -4.7191   17.9445   40.8574 H   0  0  0  0  0  0  0  0  0  0  0  0
   -4.3566   16.2019   41.0996 H   0  0  0  0  0  0  0  0  0  0  0  0
   -3.8930   17.3988   42.3562 H   0  0  0  0  0  0  0  0  0  0  0  0
   -0.7652   17.5610   38.1638 H   0  0  0  0  0  0  0  0  0  0  0  0
    1.4904   17.9433   38.7861 H   0  0  0  0  0  0  0  0  0  0  0  0
    2.6797   18.1537   40.0991 H   0  0  0  0  0  0  0  0  0  0  0  0
  1  2  2  0
  1  6  1  0
  2  3  1  0
  3  4  2  0
  4  5  1  0
  5  6  2  0
  6  7  1  0
  7  8  2  0
  7  9  1  0
  8 16  1  0
  9 10  2  0
 10 11  1  0
 10 15  1  0
 11 12  1  0
 11 13  1  0
 13 14  2  0
 14 15  1  0
 15 16  2  0
 16 17  1  0
  1 18  1  0
  2 19  1  0
  3 20  1  0
  5 21  1  0
 12 22  1  0
 12 23  1  0
 12 24  1  0
 14 25  1  0
 17 26  1  0
 17 27  1  0
M  END
>  <mol_id>  (95) 
2026-09-18-6fnk-s0-n100-r5-0095

>  <rmsd_to_ref>  (95) 
4.770408163270541

>  <pose_kind>  (95) 
rigid

$$$$
6fnk.A
     RDKit          3D

 27 29  0  0  0  0  0  0  0  0999 V2000
    1.1672   18.9268   41.1695 C   0  0  0  0  0  0  0  0  0  0  0  0
   -0.1313   18.9426   40.6991 C   0  0  0  0  0  0  0  0  0  0  0  0
   -1.0426   17.9928   41.1040 C   0  0  0  0  0  0  0  0  0  0  0  0
   -0.7208   16.9996   41.9774 N   0  0  0  0  0  0  0  0  0  0  0  0
    0.5442   16.9701   42.4465 C   0  0  0  0  0  0  0  0  0  0  0  0
    1.4932   17.9212   42.0539 C   0  0  0  0  0  0  0  0  0  0  0  0
    2.8689   17.8507   42.5935 C   0  0  0  0  0  0  0  0  0  0  0  0
    3.8091   18.7476   42.2392 N   0  0  0  0  0  0  0  0  0  0  0  0
    3.1828   16.8697   43.4548 N   0  0  0  0  0  0  0  0  0  0  0  0
    4.4171   16.7283   43.9987 C   0  0  0  0  0  0  0  0  0  0  0  0
    4.9808   15.8615   44.8609 N   0  0  0  0  0  0  0  0  0  0  0  0
    4.2488   14.7549   45.4491 C   0  0  0  0  0  0  0  0  0  0  0  0
    6.2401   16.1939   45.0511 N   0  0  0  0  0  0  0  0  0  0  0  0
    6.5251   17.2759   44.3239 C   0  0  0  0  0  0  0  0  0  0  0  0
    5.4006   17.6433   43.6458 C   0  0  0  0  0  0  0  0  0  0  0  0
    5.0685   18.6580   42.7523 C   0  0  0  0  0  0  0  0  0  0  0  0
    6.0622   19.6013   42.3814 N   0  0  0  0  0  0  0  0  0  0  0  0
    1.8698   19.6720   40.8474 H   0  0  0  0  0  0  0  0  0  0  0  0
   -0.3776   19.7401   40.0020 H   0  0  0  0  0  0  0  0  0  0  0  0
   -2.0503   18.0743   40.6859 H   0  0  0  0  0  0  0  0  0  0  0  0
    0.8137   16.1752   43.1498 H   0  0  0  0  0  0  0  0  0  0  0  0
    3.8038   15.1681   46.3800 H   0  0  0  0  0  0  0  0  0  0  0  0
    4.9520   13.9574   45.7388 H   0  0  0  0  0  0  0  0  0  0  0  0
    3.4977   14.3817   44.7323 H   0  0  0  0  0  0  0  0  0  0  0  0
    7.4734   17.7963   44.2605 H   0  0  0  0  0  0  0  0  0  0  0  0
    6.2495   20.4752   42.9421 H   0  0  0  0  0  0  0  0  0  0  0  0
    6.6650   19.4850   41.5325 H   0  0  0  0  0  0  0  0  0  0  0  0
  1  2  2  0
  1  6  1  0
  2  3  1  0
  3  4  2  0
  4  5  1  0
  5  6  2  0
  6  7  1  0
  7  8  2  0
  7  9  1  0
  8 16  1  0
  9 10  2  0
 10 11  1  0
 10 15  1  0
 11 12  1  0
 11 13  1  0
 13 14  2  0
 14 15  1  0
 15 16  2  0
 16 17  1  0
  1 18  1  0
  2 19  1  0
  3 20  1  0
  5 21  1  0
 12 22  1  0
 12 23  1  0
 12 24  1  0
 14 25  1  0
 17 26  1  0
 17 27  1  0
M  END
>  <mol_id>  (96) 
2026-09-18-6fnk-s0-n100-r5-0096

>  <rmsd_to_ref>  (96) 
4.816326530612526

>  <pose_kind>  (96) 
conformer

$$$$
6fnk.A
     RDKit          3D

 27 29  0  0  0  0  0  0  0  0999 V2000
   -1.1223   18.9155   41.7750 C   0  0  0  0  0  0  0  0  0  0  0  0
   -2.3829   18.5914   42.2767 C   0  0  0  0  0  0  0  0  0  0  0  0
   -2.5497   18.3602   43.6344 C   0  0  0  0  0  0  0  0  0  0  0  0
   -1.4552   18.4560   44.4983 N   0  0  0  0  0  0  0  0  0  0  0  0
   -0.1881   18.7806   43.9904 C   0  0  0  0  0  0  0  0  0  0  0  0
   -0.0190   19.0112   42.6264 C   0  0  0  0  0  0  0  0  0  0  0  0
    1.2456   19.3324   42.1228 C   0  0  0  0  0  0  0  0  0  0  0  0
    1.4700   19.3858   40.8026 N   0  0  0  0  0  0  0  0  0  0  0  0
    2.2494   19.5976   42.9650 N   0  0  0  0  0  0  0  0  0  0  0  0
    3.4811   19.9016   42.5185 C   0  0  0  0  0  0  0  0  0  0  0  0
    4.6260   20.1837   43.1587 N   0  0  0  0  0  0  0  0  0  0  0  0
    4.8096   20.2353   44.6122 C   0  0  0  0  0  0  0  0  0  0  0  0
    5.5286   20.4098   42.3516 N   0  0  0  0  0  0  0  0  0  0  0  0
    4.9999   20.3162   41.1204 C   0  0  0  0  0  0  0  0  0  0  0  0
    3.7091   19.9689   41.2105 C   0  0  0  0  0  0  0  0  0  0  0  0
    2.6927   19.7095   40.3427 C   0  0  0  0  0  0  0  0  0  0  0  0
    2.8906   19.7655   39.0033 N   0  0  0  0  0  0  0  0  0  0  0  0
   -0.9958   19.0976   40.6975 H   0  0  0  0  0  0  0  0  0  0  0  0
   -3.2442   18.5192   41.5963 H   0  0  0  0  0  0  0  0  0  0  0  0
   -3.5427   18.1016   44.0307 H   0  0  0  0  0  0  0  0  0  0  0  0
    0.6735   18.8532   44.6703 H   0  0  0  0  0  0  0  0  0  0  0  0
    5.6662   19.6063   44.8961 H   0  0  0  0  0  0  0  0  0  0  0  0
    4.9990   21.2739   44.9212 H   0  0  0  0  0  0  0  0  0  0  0  0
    3.9014   19.8644   45.1099 H   0  0  0  0  0  0  0  0  0  0  0  0
    5.5437   20.4971   40.1815 H   0  0  0  0  0  0  0  0  0  0  0  0
    3.8184   20.0112   38.6295 H   0  0  0  0  0  0  0  0  0  0  0  0
    2.1131   19.5623   38.3589 H   0  0  0  0  0  0  0  0  0  0  0  0
  1  2  2  0
  1  6  1  0
  2  3  1  0
  3  4  2  0
  4  5  1  0
  5  6  2  0
  6  7  1  0
  7  8  2  0
  7  9  1  0
  8 16  1  0
  9 10  2  0
 10 11  1  0
 10 15  1  0
 11 12  1  0
 11 13  1  0
 13 14  2  0
 14 15  1  0
 15 16  2  0
 16 17  1  0
  1 18  1  0
  2 19  1  0
  3 20  1  0
  5 21  1  0
 12 22  1  0
 12 23  1  0
 12 24  1  0
 14 25  1  0
 17 26  1  0
 17 27  1  0
M  END
>  <mol_id>  (97) 
2026-09-18-6fnk-s0-n100-r5-0097

>  <rmsd_to_ref>  (97) 
4.862244897964275

>  <pose_kind>  (97) 
rigid

$$$$
6fnk.A
     RDKit          3D

 27 29  0  0  0  0  0  0  0  0999 V2000
   -0.3859   14.1766   43.8887 C   0  0  0  0  0  0  0  0  0  0  0  0
   -0.7420   13.8740   45.1997 C   0  0  0  0  0  0  0  0  0  0  0  0
   -0.6946   14.8002   46.2026 C   0  0  0  0  0  0  0  0  0  0  0  0
   -0.2914   16.0679   45.9477 N   0  0  0  0  0  0  0  0  0  0  0  0
    0.0591   16.3950   44.6959 C   0  0  0  0  0  0  0  0  0  0  0  0
    0.0233   15.4771   43.6482 C   0  0  0  0  0  0  0  0  0  0  0  0
    0.4143   15.8793   42.3016 C   0  0  0  0  0  0  0  0  0  0  0  0
    0.3920   15.0123   41.2568 N   0  0  0  0  0  0  0  0  0  0  0  0
    0.8068   17.1321   42.0783 N   0  0  0  0  0  0  0  0  0  0  0  0
    1.1853   17.6084   40.8900 C   0  0  0  0  0  0  0  0  0  0  0  0
    1.6033   18.8250   40.4963 N   0  0  0  0  0  0  0  0  0  0  0  0
    1.7526   20.0094   41.3520 C   0  0  0  0  0  0  0  0  0  0  0  0
    1.8546   18.7610   39.2021 N   0  0  0  0  0  0  0  0  0  0  0  0
    1.6029   17.5023   38.7403 C   0  0  0  0  0  0  0  0  0  0  0  0
    1.1726   16.7505   39.8112 C   0  0  0  0  0  0  0  0  0  0  0  0
    0.7694   15.4463   40.0177 C   0  0  0  0  0  0  0  0  0  0  0  0
    0.7547   14.5570   38.9065 N   0  0  0  0  0  0  0  0  0  0  0  0
   -0.4334   13.4265   43.1203 H   0  0  0  0  0  0  0  0  0  0  0  0
   -1.0779   12.8665   45.4766 H   0  0  0  0  0  0  0  0  0  0  0  0
   -0.9655   14.5969   47.2358 H   0  0  0  0  0  0  0  0  0  0  0  0
    0.3859   17.4028   44.4632 H   0  0  0  0  0  0  0  0  0  0  0  0
    1.3898   19.7511   42.3687 H   0  0  0  0  0  0  0  0  0  0  0  0
    1.1396   20.8547   40.9831 H   0  0  0  0  0  0  0  0  0  0  0  0
    2.8268   20.2840   41.4780 H   0  0  0  0  0  0  0  0  0  0  0  0
    1.7080   17.1322   37.7426 H   0  0  0  0  0  0  0  0  0  0  0  0
    1.3513   13.7017   38.9612 H   0  0  0  0  0  0  0  0  0  0  0  0
    0.1610   14.7491   38.0481 H   0  0  0  0  0  0  0  0  0  0  0  0
  1  2  2  0
  1  6  1  0
  2  3  1  0
  3  4  2  0
  4  5  1  0
  5  6  2  0
  6  7  1  0
  7  8  2  0
  7  9  1  0
  8 16  1  0
  9 10  2  0
 10 11  1  0
 10 15  1  0
 11 12  1  0
 11 13  1  0
 13 14  2  0
 14 15  1  0
 15 16  2  0
 16 17  1  0
  1 18  1  0
  2 19  1  0
  3 20  1  0
  5 21  1  0
 12 22  1  0
 12 23  1  0
 12 24  1  0
 14 25  1  0
 17 26  1  0
 17 27  1  0
M  END
>  <mol_id>  (98) 
2026-09-18-6fnk-s0-n100-r5-0098

>  <rmsd_to_ref>  (98) 
4.90816326530617

>  <pose_kind>  (98) 
conformer

$$$$
6fnk.A
     RDKit          3D

 27 29  0  0  0  0  0  0  0  0999 V2000
    4.2942   18.4927   44.8620 C   0  0  0  0  0  0  0  0  0  0  0  0
    5.0809   18.8311   45.9632 C   0  0  0  0  0  0  0  0  0  0  0  0
    5.2931   17.9049   46.9738 C   0  0  0  0  0  0  0  0  0  0  0  0
    4.7216   16.6325   46.8856 N   0  0  0  0  0  0  0  0  0  0  0  0
    3.9295   16.2955   45.7775 C   0  0  0  0  0  0  0  0  0  0  0  0
    3.7140   17.2259   44.7626 C   0  0  0  0  0  0  0  0  0  0  0  0
    2.9221   16.8879   43.6604 C   0  0  0  0  0  0  0  0  0  0  0  0
    2.5565   17.8136   42.7630 N   0  0  0  0  0  0  0  0  0  0  0  0
    2.5252   15.6228   43.4893 N   0  0  0  0  0  0  0  0  0  0  0  0
    1.7561   15.2613   42.4470 C   0  0  0  0  0  0  0  0  0  0  0  0
    1.2318   14.0814   42.0822 N   0  0  0  0  0  0  0  0  0  0  0  0
    1.3964   12.8096   42.7923 C   0  0  0  0  0  0  0  0  0  0  0  0
    0.5835   14.1992   41.0415 N   0  0  0  0  0  0  0  0  0  0  0  0
    0.6807   15.4804   40.6501 C   0  0  0  0  0  0  0  0  0  0  0  0
    1.3993   16.1709   41.5455 C   0  0  0  0  0  0  0  0  0  0  0  0
    1.8046   17.4608   41.7039 C   0  0  0  0  0  0  0  0  0  0  0  0
    1.4563   18.4145   40.8063 N   0  0  0  0  0  0  0  0  0  0  0  0
    4.1290   19.2312   44.0636 H   0  0  0  0  0  0  0  0  0  0  0  0
    5.5326   19.8319   46.0301 H   0  0  0  0  0  0  0  0  0  0  0  0
    5.9108   18.1716   47.8440 H   0  0  0  0  0  0  0  0  0  0  0  0
    3.4777   15.2949   45.7099 H   0  0  0  0  0  0  0  0  0  0  0  0
    0.4090   12.3585   42.9702 H   0  0  0  0  0  0  0  0  0  0  0  0
    2.0074   12.1264   42.1841 H   0  0  0  0  0  0  0  0  0  0  0  0
    1.8962   12.9895   43.7556 H   0  0  0  0  0  0  0  0  0  0  0  0
    0.2380   15.8988   39.7341 H   0  0  0  0  0  0  0  0  0  0  0  0
    0.8813   18.1666   39.9885 H   0  0  0  0  0  0  0  0  0  0  0  0
    1.7667   19.3872   40.9419 H   0  0  0  0  0  0  0  0  0  0  0  0
  1  2  2  0
  1  6  1  0
  2  3  1  0
  3  4  2  0
  4  5  1  0
  5  6  2  0
  6  7  1  0
  7  8  2  0
  7  9  1  0
  8 16  1  0
  9 10  2  0
 10 11  1  0
 10 15  1  0
 11 12  1  0
 11 13  1  0
 13 14  2  0
 14 15  1  0
 15 16  2  0
 16 17  1  0
  1 18  1  0
  2 19  1  0
  3 20  1  0
  5 21  1  0
 12 22  1  0
 12 23  1  0
 12 24  1  0
 14 25  1  0
 17 26  1  0
 17 27  1  0
M  END
>  <mol_id>  (99) 
2026-09-18-6fnk-s0-n100-r5-0099

>  <rmsd_to_ref>  (99) 
4.954081632653221

>  <pose_kind>  (99) 
rigid

$$$$
6fnk.A
     RDKit          3D

 27 29  0  0  0  0  0  0  0  0999 V2000
    5.4189   19.9687   42.0747 C   0  0  0  0  0  0  0  0  0  0  0  0
    6.0757   20.9437   41.3257 C   0  0  0  0  0  0  0  0  0  0  0  0
    5.3885   21.5916   40.3032 C   0  0  0  0  0  0  0  0  0  0  0  0
    4.1024   21.3013   40.0168 N   0  0  0  0  0  0  0  0  0  0  0  0
    3.4670   20.3564   40.7431 C   0  0  0  0  0  0  0  0  0  0  0  0
    4.0963   19.6873   41.7616 C   0  0  0  0  0  0  0  0  0  0  0  0
    3.3575   18.6822   42.5048 C   0  0  0  0  0  0  0  0  0  0  0  0
    2.0641   18.4650   42.1359 N   0  0  0  0  0  0  0  0  0  0  0  0
    3.8991   17.9814   43.5167 N   0  0  0  0  0  0  0  0  0  0  0  0
    3.1643   17.0448   44.1876 C   0  0  0  0  0  0  0  0  0  0  0  0
    3.4574   16.2137   45.2244 N   0  0  0  0  0  0  0  0  0  0  0  0
    4.7288   16.1249   45.9144 C   0  0  0  0  0  0  0  0  0  0  0  0
    2.3655   15.4908   45.4972 N   0  0  0  0  0  0  0  0  0  0  0  0
    1.3626   15.8219   44.6702 C   0  0  0  0  0  0  0  0  0  0  0  0
    1.8342   16.8030   43.8282 C   0  0  0  0  0  0  0  0  0  0  0  0
    1.3097   17.5458   42.7789 C   0  0  0  0  0  0  0  0  0  0  0  0
   -0.0450   17.2818   42.4320 N   0  0  0  0  0  0  0  0  0  0  0  0
    5.9441   19.4684   42.8618 H   0  0  0  0  0  0  0  0  0  0  0  0
    7.1153   21.2117   41.5212 H   0  0  0  0  0  0  0  0  0  0  0  0
    5.9519   22.3496   39.7456 H   0  0  0  0  0  0  0  0  0  0  0  0
    2.4374   20.1654   40.4691 H   0  0  0  0  0  0  0  0  0  0  0  0
    4.7937   16.8741   46.7468 H   0  0  0  0  0  0  0  0  0  0  0  0
    4.7615   15.1227   46.4313 H   0  0  0  0  0  0  0  0  0  0  0  0
    5.5734   16.1466   45.2237 H   0  0  0  0  0  0  0  0  0  0  0  0
    0.3677   15.4349   44.6246 H   0  0  0  0  0  0  0  0  0  0  0  0
   -0.8337   17.8681   42.8014 H   0  0  0  0  0  0  0  0  0  0  0  0
   -0.1986   16.4641   41.7843 H   0  0  0  0  0  0  0  0  0  0  0  0
  1  2  2  0
  1  6  1  0
  2  3  1  0
  3  4  2  0
  4  5  1  0
  5  6  2  0
  6  7  1  0
  7  8  2  0
  7  9  1  0
  8 16  1  0
  9 10  2  0
 10 11  1  0
 10 15  1  0
 11 12  1  0
 11 13  1  0
 13 14  2  0
 14 15  1  0
 15 16  2  0
 16 17  1  0
  1 18  1  0
  2 19  1  0
  3 20  1  0
  5 21  1  0
 12 22  1  0
 12 23  1  0
 12 24  1  0
 14 25  1  0
 17 26  1  0
 17 27  1  0
M  END
>  <mol_id>  (100) 
2026-09-18-6fnk-s0-n100-r5-0100

>  <rmsd_to_ref>  (100) 
5.000000000000001

>  <pose_kind>  (100) 
conformer

$$$$
