3war.A
     RDKit          3D

 13 13  0  0  0  0  0  0  0  0999 V2000
    2.0001   18.6245   40.6926 N   0  0  0  0  0  0  0  0  0  0  0  0
    2.5782   18.5757   39.4013 C   0  0  0  0  0  0  0  0  0  0  0  0
    2.4967   19.7718   38.6000 C   0  0  0  0  0  0  0  0  0  0  0  0
    1.8538   20.9004   39.0765 C   0  0  0  0  0  0  0  0  0  0  0  0
    1.3289   20.9112   40.3502 C   0  0  0  0  0  0  0  0  0  0  0  0
    1.3818   19.7712   41.1205 C   0  0  0  0  0  0  0  0  0  0  0  0
    3.0116   19.7599   37.1684 C   0  0  0  0  0  0  0  0  0  0  0  0
    3.7306   18.7870   36.7954 O   0  0  0  0  0  0  0  0  0  0  0  0
    2.6655   20.7081   36.4973 O   0  0  0  0  0  0  0  0  0  0  0  0
    3.0681   17.6653   39.0256 H   0  0  0  0  0  0  0  0  0  0  0  0
    1.7616   21.7908   38.4372 H   0  0  0  0  0  0  0  0  0  0  0  0
    0.8693   21.8270   40.7502 H   0  0  0  0  0  0  0  0  0  0  0  0
    0.9112   19.7806   42.1147 H   0  0  0  0  0  0  0  0  0  0  0  0
  1  2  1  0
  1  6  2  0
  2  3  2  0
  3  4  1  0
  3  7  1  0
  4  5  2  0
  5  6  1  0
  7  8  1  0
  7  9  2  0
  2 10  1  0
  4 11  1  0
  5 12  1  0
  6 13  1  0
M  CHG  1   8  -1
M  END
>  <mol_id>  (1) 
2026-09-16-3war-s0-n100-0001

>  <rmsd_to_ref>  (1) 
0.0

>  <pose_kind>  (1) 
native

$$$$
3war.A
     RDKit          3D

 13 13  0  0  0  0  0  0  0  0999 V2000
    2.4277   18.8612   40.9130 N   0  0  0  0  0  0  0  0  0  0  0  0
    2.6427   18.7375   39.6096 C   0  0  0  0  0  0  0  0  0  0  0  0
    2.2952   19.8002   38.7934 C   0  0  0  0  0  0  0  0  0  0  0  0
    1.7458   20.9360   39.3455 C   0  0  0  0  0  0  0  0  0  0  0  0
    1.5425   21.0127   40.7138 C   0  0  0  0  0  0  0  0  0  0  0  0
    1.8958   19.9414   41.5135 C   0  0  0  0  0  0  0  0  0  0  0  0
    2.5015   19.7330   37.3688 C   0  0  0  0  0  0  0  0  0  0  0  0
    3.0383   18.6593   36.7065 O   0  0  0  0  0  0  0  0  0  0  0  0
    2.1629   20.7390   36.6724 O   0  0  0  0  0  0  0  0  0  0  0  0
    3.0798   17.8306   39.1817 H   0  0  0  0  0  0  0  0  0  0  0  0
    1.4708   21.7740   38.7091 H   0  0  0  0  0  0  0  0  0  0  0  0
    1.1186   21.8784   41.1768 H   0  0  0  0  0  0  0  0  0  0  0  0
    1.7665   19.9304   42.5866 H   0  0  0  0  0  0  0  0  0  0  0  0
  1  2  1  0
  1  6  2  0
  2  3  2  0
  3  4  1  0
  3  7  1  0
  4  5  2  0
  5  6  1  0
  7  8  1  0
  7  9  2  0
  2 10  1  0
  4 11  1  0
  5 12  1  0
  6 13  1  0
M  CHG  1   8  -1
M  END
>  <mol_id>  (2) 
2026-09-16-3war-s0-n100-0002

>  <rmsd_to_ref>  (2) 
0.5000000000005038

>  <pose_kind>  (2) 
conformer

$$$$
3war.A
     RDKit          3D

 13 13  0  0  0  0  0  0  0  0999 V2000
    1.3395   18.4638   40.0251 N   0  0  0  0  0  0  0  0  0  0  0  0
    2.0982   18.4848   38.8301 C   0  0  0  0  0  0  0  0  0  0  0  0
    2.4474   19.7783   38.2970 C   0  0  0  0  0  0  0  0  0  0  0  0
    2.0279   20.9386   38.9231 C   0  0  0  0  0  0  0  0  0  0  0  0
    1.3137   20.8701   40.0992 C   0  0  0  0  0  0  0  0  0  0  0  0
    0.9561   19.6429   40.6108 C   0  0  0  0  0  0  0  0  0  0  0  0
    3.1785   19.8759   36.9663 C   0  0  0  0  0  0  0  0  0  0  0  0
    3.6912   18.8243   36.4827 O   0  0  0  0  0  0  0  0  0  0  0  0
    3.1926   20.9843   36.4757 O   0  0  0  0  0  0  0  0  0  0  0  0
    2.4077   17.5552   38.3302 H   0  0  0  0  0  0  0  0  0  0  0  0
    2.2650   21.9175   38.4809 H   0  0  0  0  0  0  0  0  0  0  0  0
    1.0303   21.7924   40.6275 H   0  0  0  0  0  0  0  0  0  0  0  0
    0.3408   19.6070   41.5218 H   0  0  0  0  0  0  0  0  0  0  0  0
  1  2  1  0
  1  6  2  0
  2  3  2  0
  3  4  1  0
  3  7  1  0
  4  5  2  0
  5  6  1  0
  7  8  1  0
  7  9  2  0
  2 10  1  0
  4 11  1  0
  5 12  1  0
  6 13  1  0
M  CHG  1   8  -1
M  END
>  <mol_id>  (3) 
2026-09-16-3war-s0-n100-0003

>  <rmsd_to_ref>  (3) 
0.5459183673475069

>  <pose_kind>  (3) 
rigid

$$$$
3war.A
     RDKit          3D

 13 13  0  0  0  0  0  0  0  0999 V2000
    1.2704   18.7559   40.6735 N   0  0  0  0  0  0  0  0  0  0  0  0
    2.0498   18.5392   39.6219 C   0  0  0  0  0  0  0  0  0  0  0  0
    2.3081   19.6057   38.7780 C   0  0  0  0  0  0  0  0  0  0  0  0
    1.7595   20.8398   39.0473 C   0  0  0  0  0  0  0  0  0  0  0  0
    0.9520   21.0113   40.1600 C   0  0  0  0  0  0  0  0  0  0  0  0
    0.7050   19.9346   40.9917 C   0  0  0  0  0  0  0  0  0  0  0  0
    3.1463   19.4404   37.6175 C   0  0  0  0  0  0  0  0  0  0  0  0
    3.7461   18.2644   37.2476 O   0  0  0  0  0  0  0  0  0  0  0  0
    3.3466   20.4551   36.8813 O   0  0  0  0  0  0  0  0  0  0  0  0
    2.4803   17.5546   39.4175 H   0  0  0  0  0  0  0  0  0  0  0  0
    1.9590   21.6814   38.3877 H   0  0  0  0  0  0  0  0  0  0  0  0
    0.5095   21.9548   40.3999 H   0  0  0  0  0  0  0  0  0  0  0  0
    0.0861   19.9942   41.8758 H   0  0  0  0  0  0  0  0  0  0  0  0
  1  2  1  0
  1  6  2  0
  2  3  2  0
  3  4  1  0
  3  7  1  0
  4  5  2  0
  5  6  1  0
  7  8  1  0
  7  9  2  0
  2 10  1  0
  4 11  1  0
  5 12  1  0
  6 13  1  0
M  CHG  1   8  -1
M  END
>  <mol_id>  (4) 
2026-09-16-3war-s0-n100-0004

>  <rmsd_to_ref>  (4) 
0.5918367346971042

>  <pose_kind>  (4) 
conformer

$$$$
3war.A
     RDKit          3D

 13 13  0  0  0  0  0  0  0  0999 V2000
    2.1256   18.3332   40.6643 N   0  0  0  0  0  0  0  0  0  0  0  0
    2.6959   18.6813   39.4162 C   0  0  0  0  0  0  0  0  0  0  0  0
    2.3137   19.9518   38.8514 C   0  0  0  0  0  0  0  0  0  0  0  0
    1.4067   20.7706   39.5002 C   0  0  0  0  0  0  0  0  0  0  0  0
    0.8974   20.4031   40.7264 C   0  0  0  0  0  0  0  0  0  0  0  0
    1.2378   19.1848   41.2700 C   0  0  0  0  0  0  0  0  0  0  0  0
    2.8134   20.3465   37.4696 C   0  0  0  0  0  0  0  0  0  0  0  0
    3.7547   19.6742   36.9553 O   0  0  0  0  0  0  0  0  0  0  0  0
    2.2380   21.2907   36.9730 O   0  0  0  0  0  0  0  0  0  0  0  0
    3.3998   18.0119   38.9000 H   0  0  0  0  0  0  0  0  0  0  0  0
    1.0916   21.7169   39.0362 H   0  0  0  0  0  0  0  0  0  0  0  0
    0.2215   21.0804   41.2690 H   0  0  0  0  0  0  0  0  0  0  0  0
    0.7811   18.8838   42.2244 H   0  0  0  0  0  0  0  0  0  0  0  0
  1  2  1  0
  1  6  2  0
  2  3  2  0
  3  4  1  0
  3  7  1  0
  4  5  2  0
  5  6  1  0
  7  8  1  0
  7  9  2  0
  2 10  1  0
  4 11  1  0
  5 12  1  0
  6 13  1  0
M  CHG  1   8  -1
M  END
>  <mol_id>  (5) 
2026-09-16-3war-s0-n100-0005

>  <rmsd_to_ref>  (5) 
0.6377551020422293

>  <pose_kind>  (5) 
rigid

$$$$
3war.A
     RDKit          3D

 13 13  0  0  0  0  0  0  0  0999 V2000
    1.5927   18.8171   40.5994 N   0  0  0  0  0  0  0  0  0  0  0  0
    2.3447   18.4678   39.5636 C   0  0  0  0  0  0  0  0  0  0  0  0
    2.5604   19.4114   38.5740 C   0  0  0  0  0  0  0  0  0  0  0  0
    1.9994   20.6638   38.6886 C   0  0  0  0  0  0  0  0  0  0  0  0
    1.2218   20.9764   39.7919 C   0  0  0  0  0  0  0  0  0  0  0  0
    1.0172   20.0212   40.7705 C   0  0  0  0  0  0  0  0  0  0  0  0
    3.3671   19.0988   37.4215 C   0  0  0  0  0  0  0  0  0  0  0  0
    3.9755   17.8907   37.1976 O   0  0  0  0  0  0  0  0  0  0  0  0
    3.5289   20.0051   36.5474 O   0  0  0  0  0  0  0  0  0  0  0  0
    2.7855   17.4699   39.4827 H   0  0  0  0  0  0  0  0  0  0  0  0
    2.1654   21.4092   37.9141 H   0  0  0  0  0  0  0  0  0  0  0  0
    0.7707   21.9382   39.9140 H   0  0  0  0  0  0  0  0  0  0  0  0
    0.4233   20.1939   41.6570 H   0  0  0  0  0  0  0  0  0  0  0  0
  1  2  1  0
  1  6  2  0
  2  3  2  0
  3  4  1  0
  3  7  1  0
  4  5  2  0
  5  6  1  0
  7  8  1  0
  7  9  2  0
  2 10  1  0
  4 11  1  0
  5 12  1  0
  6 13  1  0
M  CHG  1   8  -1
M  END
>  <mol_id>  (6) 
2026-09-16-3war-s0-n100-0006

>  <rmsd_to_ref>  (6) 
0.6836734693904697

>  <pose_kind>  (6) 
conformer

$$$$
3war.A
     RDKit          3D

 13 13  0  0  0  0  0  0  0  0999 V2000
    2.9735   18.5081   40.7141 N   0  0  0  0  0  0  0  0  0  0  0  0
    3.0934   18.3690   39.3104 C   0  0  0  0  0  0  0  0  0  0  0  0
    2.5723   19.4402   38.4977 C   0  0  0  0  0  0  0  0  0  0  0  0
    1.9600   20.5361   39.0792 C   0  0  0  0  0  0  0  0  0  0  0  0
    1.8896   20.6418   40.4510 C   0  0  0  0  0  0  0  0  0  0  0  0
    2.3654   19.6188   41.2402 C   0  0  0  0  0  0  0  0  0  0  0  0
    2.5814   19.3129   36.9817 C   0  0  0  0  0  0  0  0  0  0  0  0
    3.2752   18.3920   36.4591 O   0  0  0  0  0  0  0  0  0  0  0  0
    1.8942   20.1249   36.4006 O   0  0  0  0  0  0  0  0  0  0  0  0
    3.5634   17.4826   38.8594 H   0  0  0  0  0  0  0  0  0  0  0  0
    1.5286   21.3246   38.4450 H   0  0  0  0  0  0  0  0  0  0  0  0
    1.4551   21.5400   40.9140 H   0  0  0  0  0  0  0  0  0  0  0  0
    2.2536   19.6952   42.3319 H   0  0  0  0  0  0  0  0  0  0  0  0
  1  2  1  0
  1  6  2  0
  2  3  2  0
  3  4  1  0
  3  7  1  0
  4  5  2  0
  5  6  1  0
  7  8  1  0
  7  9  2  0
  2 10  1  0
  4 11  1  0
  5 12  1  0
  6 13  1  0
M  CHG  1   8  -1
M  END
>  <mol_id>  (7) 
2026-09-16-3war-s0-n100-0007

>  <rmsd_to_ref>  (7) 
0.7295918367361827

>  <pose_kind>  (7) 
rigid

$$$$
3war.A
     RDKit          3D

 13 13  0  0  0  0  0  0  0  0999 V2000
    2.5477   18.7395   40.6464 N   0  0  0  0  0  0  0  0  0  0  0  0
    2.6678   18.7896   39.3260 C   0  0  0  0  0  0  0  0  0  0  0  0
    2.6558   20.0354   38.7226 C   0  0  0  0  0  0  0  0  0  0  0  0
    2.5220   21.1682   39.4942 C   0  0  0  0  0  0  0  0  0  0  0  0
    2.3999   21.0591   40.8699 C   0  0  0  0  0  0  0  0  0  0  0  0
    2.4140   19.8064   41.4552 C   0  0  0  0  0  0  0  0  0  0  0  0
    2.7819   20.1624   37.2927 C   0  0  0  0  0  0  0  0  0  0  0  0
    2.9203   19.1111   36.4237 O   0  0  0  0  0  0  0  0  0  0  0  0
    2.7640   21.3311   36.7973 O   0  0  0  0  0  0  0  0  0  0  0  0
    2.7736   17.8832   38.7227 H   0  0  0  0  0  0  0  0  0  0  0  0
    2.5119   22.1497   39.0255 H   0  0  0  0  0  0  0  0  0  0  0  0
    2.2944   21.9166   41.5000 H   0  0  0  0  0  0  0  0  0  0  0  0
    2.3237   19.6451   42.5202 H   0  0  0  0  0  0  0  0  0  0  0  0
  1  2  1  0
  1  6  2  0
  2  3  2  0
  3  4  1  0
  3  7  1  0
  4  5  2  0
  5  6  1  0
  7  8  1  0
  7  9  2  0
  2 10  1  0
  4 11  1  0
  5 12  1  0
  6 13  1  0
M  CHG  1   8  -1
M  END
>  <mol_id>  (8) 
2026-09-16-3war-s0-n100-0008

>  <rmsd_to_ref>  (8) 
0.7755102040824801

>  <pose_kind>  (8) 
conformer

$$$$
3war.A
     RDKit          3D

 13 13  0  0  0  0  0  0  0  0999 V2000
    2.7486   18.6959   40.7812 N   0  0  0  0  0  0  0  0  0  0  0  0
    3.3819   19.0620   39.5692 C   0  0  0  0  0  0  0  0  0  0  0  0
    2.8099   20.1647   38.8367 C   0  0  0  0  0  0  0  0  0  0  0  0
    1.6753   20.8080   39.2979 C   0  0  0  0  0  0  0  0  0  0  0  0
    1.1080   20.4350   40.4967 C   0  0  0  0  0  0  0  0  0  0  0  0
    1.6308   19.3719   41.1983 C   0  0  0  0  0  0  0  0  0  0  0  0
    3.3815   20.5494   37.4802 C   0  0  0  0  0  0  0  0  0  0  0  0
    4.5014   20.0669   37.1401 O   0  0  0  0  0  0  0  0  0  0  0  0
    2.6837   21.2973   36.8298 O   0  0  0  0  0  0  0  0  0  0  0  0
    4.2713   18.5288   39.2023 H   0  0  0  0  0  0  0  0  0  0  0  0
    1.2252   21.6189   38.7064 H   0  0  0  0  0  0  0  0  0  0  0  0
    0.2407   20.9843   40.8918 H   0  0  0  0  0  0  0  0  0  0  0  0
    1.1341   19.0535   42.1267 H   0  0  0  0  0  0  0  0  0  0  0  0
  1  2  1  0
  1  6  2  0
  2  3  2  0
  3  4  1  0
  3  7  1  0
  4  5  2  0
  5  6  1  0
  7  8  1  0
  7  9  2  0
  2 10  1  0
  4 11  1  0
  5 12  1  0
  6 13  1  0
M  CHG  1   8  -1
M  END
>  <mol_id>  (9) 
2026-09-16-3war-s0-n100-0009

>  <rmsd_to_ref>  (9) 
0.8214285714303413

>  <pose_kind>  (9) 
rigid

$$$$
3war.A
     RDKit          3D

 13 13  0  0  0  0  0  0  0  0999 V2000
    1.7474   19.6552   41.0654 N   0  0  0  0  0  0  0  0  0  0  0  0
    2.3375   19.1953   39.9698 C   0  0  0  0  0  0  0  0  0  0  0  0
    2.0267   19.8020   38.7649 C   0  0  0  0  0  0  0  0  0  0  0  0
    1.1301   20.8470   38.7362 C   0  0  0  0  0  0  0  0  0  0  0  0
    0.5422   21.2880   39.9107 C   0  0  0  0  0  0  0  0  0  0  0  0
    0.8648   20.6700   41.1048 C   0  0  0  0  0  0  0  0  0  0  0  0
    2.6312   19.3527   37.5364 C   0  0  0  0  0  0  0  0  0  0  0  0
    3.5344   18.3258   37.4395 O   0  0  0  0  0  0  0  0  0  0  0  0
    2.3067   19.9482   36.4632 O   0  0  0  0  0  0  0  0  0  0  0  0
    3.0483   18.3645   40.0041 H   0  0  0  0  0  0  0  0  0  0  0  0
    0.8821   21.3274   37.7925 H   0  0  0  0  0  0  0  0  0  0  0  0
   -0.1579   22.0962   39.9261 H   0  0  0  0  0  0  0  0  0  0  0  0
    0.4462   20.9601   42.0582 H   0  0  0  0  0  0  0  0  0  0  0  0
  1  2  1  0
  1  6  2  0
  2  3  2  0
  3  4  1  0
  3  7  1  0
  4  5  2  0
  5  6  1  0
  7  8  1  0
  7  9  2  0
  2 10  1  0
  4 11  1  0
  5 12  1  0
  6 13  1  0
M  CHG  1   8  -1
M  END
>  <mol_id>  (10) 
2026-09-16-3war-s0-n100-0010

>  <rmsd_to_ref>  (10) 
0.867346938778937

>  <pose_kind>  (10) 
conformer

$$$$
3war.A
     RDKit          3D

 13 13  0  0  0  0  0  0  0  0999 V2000
    1.0044   18.1723   40.4783 N   0  0  0  0  0  0  0  0  0  0  0  0
    2.0378   18.2098   39.5115 C   0  0  0  0  0  0  0  0  0  0  0  0
    2.4875   19.5107   39.0815 C   0  0  0  0  0  0  0  0  0  0  0  0
    1.9048   20.6617   39.5811 C   0  0  0  0  0  0  0  0  0  0  0  0
    0.9200   20.5777   40.5408 C   0  0  0  0  0  0  0  0  0  0  0  0
    0.4665   19.3430   40.9478 C   0  0  0  0  0  0  0  0  0  0  0  0
    3.5269   19.6247   37.9763 C   0  0  0  0  0  0  0  0  0  0  0  0
    4.1622   18.5833   37.6378 O   0  0  0  0  0  0  0  0  0  0  0  0
    3.6447   20.7346   37.5037 O   0  0  0  0  0  0  0  0  0  0  0  0
    2.4785   17.2871   39.1061 H   0  0  0  0  0  0  0  0  0  0  0  0
    2.2285   21.6459   39.2114 H   0  0  0  0  0  0  0  0  0  0  0  0
    0.4976   21.4934   40.9802 H   0  0  0  0  0  0  0  0  0  0  0  0
   -0.3568   19.2939   41.6757 H   0  0  0  0  0  0  0  0  0  0  0  0
  1  2  1  0
  1  6  2  0
  2  3  2  0
  3  4  1  0
  3  7  1  0
  4  5  2  0
  5  6  1  0
  7  8  1  0
  7  9  2  0
  2 10  1  0
  4 11  1  0
  5 12  1  0
  6 13  1  0
M  CHG  1   8  -1
M  END
>  <mol_id>  (11) 
2026-09-16-3war-s0-n100-0011

>  <rmsd_to_ref>  (11) 
0.9132653061230979

>  <pose_kind>  (11) 
rigid

$$$$
3war.A
     RDKit          3D

 13 13  0  0  0  0  0  0  0  0999 V2000
    2.6737   19.6898   41.0397 N   0  0  0  0  0  0  0  0  0  0  0  0
    2.8527   19.1220   39.8540 C   0  0  0  0  0  0  0  0  0  0  0  0
    2.6985   19.9132   38.7286 C   0  0  0  0  0  0  0  0  0  0  0  0
    2.3696   21.2434   38.8670 C   0  0  0  0  0  0  0  0  0  0  0  0
    2.1941   21.7859   40.1297 C   0  0  0  0  0  0  0  0  0  0  0  0
    2.3522   20.9805   41.2424 C   0  0  0  0  0  0  0  0  0  0  0  0
    2.8783   19.3610   37.4097 C   0  0  0  0  0  0  0  0  0  0  0  0
    3.2054   18.0558   37.1467 O   0  0  0  0  0  0  0  0  0  0  0  0
    2.7235   20.1359   36.4161 O   0  0  0  0  0  0  0  0  0  0  0  0
    3.1138   18.0643   39.7556 H   0  0  0  0  0  0  0  0  0  0  0  0
    2.2472   21.8698   37.9863 H   0  0  0  0  0  0  0  0  0  0  0  0
    1.9386   22.8141   40.2749 H   0  0  0  0  0  0  0  0  0  0  0  0
    2.2312   21.3345   42.2565 H   0  0  0  0  0  0  0  0  0  0  0  0
  1  2  1  0
  1  6  2  0
  2  3  2  0
  3  4  1  0
  3  7  1  0
  4  5  2  0
  5  6  1  0
  7  8  1  0
  7  9  2  0
  2 10  1  0
  4 11  1  0
  5 12  1  0
  6 13  1  0
M  CHG  1   8  -1
M  END
>  <mol_id>  (12) 
2026-09-16-3war-s0-n100-0012

>  <rmsd_to_ref>  (12) 
0.9591836734730502

>  <pose_kind>  (12) 
conformer

$$$$
3war.A
     RDKit          3D

 13 13  0  0  0  0  0  0  0  0999 V2000
    2.3639   19.4840   41.4553 N   0  0  0  0  0  0  0  0  0  0  0  0
    2.9786   18.8972   40.3231 C   0  0  0  0  0  0  0  0  0  0  0  0
    2.7362   19.5226   39.0466 C   0  0  0  0  0  0  0  0  0  0  0  0
    1.9138   20.6306   38.9462 C   0  0  0  0  0  0  0  0  0  0  0  0
    1.3579   21.1840   40.0788 C   0  0  0  0  0  0  0  0  0  0  0  0
    1.5643   20.5875   41.3024 C   0  0  0  0  0  0  0  0  0  0  0  0
    3.2868   18.8897   37.7774 C   0  0  0  0  0  0  0  0  0  0  0  0
    4.1574   17.9774   37.8884 O   0  0  0  0  0  0  0  0  0  0  0  0
    2.8176   19.3263   36.7485 O   0  0  0  0  0  0  0  0  0  0  0  0
    3.6134   18.0034   40.4132 H   0  0  0  0  0  0  0  0  0  0  0  0
    1.7034   21.0706   37.9602 H   0  0  0  0  0  0  0  0  0  0  0  0
    0.7516   22.0988   40.0058 H   0  0  0  0  0  0  0  0  0  0  0  0
    1.0702   21.0113   42.1891 H   0  0  0  0  0  0  0  0  0  0  0  0
  1  2  1  0
  1  6  2  0
  2  3  2  0
  3  4  1  0
  3  7  1  0
  4  5  2  0
  5  6  1  0
  7  8  1  0
  7  9  2  0
  2 10  1  0
  4 11  1  0
  5 12  1  0
  6 13  1  0
M  CHG  1   8  -1
M  END
>  <mol_id>  (13) 
2026-09-16-3war-s0-n100-0013

>  <rmsd_to_ref>  (13) 
1.0051020408203215

>  <pose_kind>  (13) 
rigid

$$$$
3war.A
     RDKit          3D

 13 13  0  0  0  0  0  0  0  0999 V2000
    3.3827   19.3582   40.6585 N   0  0  0  0  0  0  0  0  0  0  0  0
    3.3551   18.8959   39.4152 C   0  0  0  0  0  0  0  0  0  0  0  0
    2.8237   19.7140   38.4330 C   0  0  0  0  0  0  0  0  0  0  0  0
    2.3468   20.9622   38.7662 C   0  0  0  0  0  0  0  0  0  0  0  0
    2.3997   21.3959   40.0810 C   0  0  0  0  0  0  0  0  0  0  0  0
    2.9339   20.5651   41.0486 C   0  0  0  0  0  0  0  0  0  0  0  0
    2.7629   19.2747   37.0619 C   0  0  0  0  0  0  0  0  0  0  0  0
    3.2048   18.0578   36.6106 O   0  0  0  0  0  0  0  0  0  0  0  0
    2.2647   20.0691   36.2061 O   0  0  0  0  0  0  0  0  0  0  0  0
    3.7367   17.9026   39.1616 H   0  0  0  0  0  0  0  0  0  0  0  0
    1.9281   21.6092   37.9987 H   0  0  0  0  0  0  0  0  0  0  0  0
    2.0389   22.3583   40.3759 H   0  0  0  0  0  0  0  0  0  0  0  0
    3.0075   20.8362   42.0924 H   0  0  0  0  0  0  0  0  0  0  0  0
  1  2  1  0
  1  6  2  0
  2  3  2  0
  3  4  1  0
  3  7  1  0
  4  5  2  0
  5  6  1  0
  7  8  1  0
  7  9  2  0
  2 10  1  0
  4 11  1  0
  5 12  1  0
  6 13  1  0
M  CHG  1   8  -1
M  END
>  <mol_id>  (14) 
2026-09-16-3war-s0-n100-0014

>  <rmsd_to_ref>  (14) 
1.0510204081670007

>  <pose_kind>  (14) 
conformer

$$$$
3war.A
     RDKit          3D

 13 13  0  0  0  0  0  0  0  0999 V2000
    1.1986   19.4413   40.9420 N   0  0  0  0  0  0  0  0  0  0  0  0
    2.0807   18.9175   39.9665 C   0  0  0  0  0  0  0  0  0  0  0  0
    2.7872   19.8671   39.1429 C   0  0  0  0  0  0  0  0  0  0  0  0
    2.5798   21.2267   39.2934 C   0  0  0  0  0  0  0  0  0  0  0  0
    1.7317   21.6923   40.2742 C   0  0  0  0  0  0  0  0  0  0  0  0
    1.0353   20.7981   41.0560 C   0  0  0  0  0  0  0  0  0  0  0  0
    3.6772   19.3730   38.0122 C   0  0  0  0  0  0  0  0  0  0  0  0
    3.9827   18.1449   37.9793 O   0  0  0  0  0  0  0  0  0  0  0  0
    4.0118   20.2274   37.2201 O   0  0  0  0  0  0  0  0  0  0  0  0
    2.2210   17.8336   39.8423 H   0  0  0  0  0  0  0  0  0  0  0  0
    3.0929   21.9372   38.6288 H   0  0  0  0  0  0  0  0  0  0  0  0
    1.6114   22.7742   40.4322 H   0  0  0  0  0  0  0  0  0  0  0  0
    0.3226   21.1859   41.7987 H   0  0  0  0  0  0  0  0  0  0  0  0
  1  2  1  0
  1  6  2  0
  2  3  2  0
  3  4  1  0
  3  7  1  0
  4  5  2  0
  5  6  1  0
  7  8  1  0
  7  9  2  0
  2 10  1  0
  4 11  1  0
  5 12  1  0
  6 13  1  0
M  CHG  1   8  -1
M  END
>  <mol_id>  (15) 
2026-09-16-3war-s0-n100-0015

>  <rmsd_to_ref>  (15) 
1.0969387755140037

>  <pose_kind>  (15) 
rigid

$$$$
3war.A
     RDKit          3D

 13 13  0  0  0  0  0  0  0  0999 V2000
    3.4267   19.0056   40.5238 N   0  0  0  0  0  0  0  0  0  0  0  0
    3.2624   18.6174   39.2658 C   0  0  0  0  0  0  0  0  0  0  0  0
    2.7906   19.5499   38.3579 C   0  0  0  0  0  0  0  0  0  0  0  0
    2.5097   20.8314   38.7767 C   0  0  0  0  0  0  0  0  0  0  0  0
    2.6993   21.1841   40.1030 C   0  0  0  0  0  0  0  0  0  0  0  0
    3.1713   20.2395   40.9957 C   0  0  0  0  0  0  0  0  0  0  0  0
    2.5891   19.1956   36.9757 C   0  0  0  0  0  0  0  0  0  0  0  0
    2.8327   17.9561   36.4429 O   0  0  0  0  0  0  0  0  0  0  0  0
    2.1544   20.0936   36.1906 O   0  0  0  0  0  0  0  0  0  0  0  0
    3.4888   17.5967   38.9439 H   0  0  0  0  0  0  0  0  0  0  0  0
    2.1387   21.5682   38.0678 H   0  0  0  0  0  0  0  0  0  0  0  0
    2.4918   22.1693   40.4634 H   0  0  0  0  0  0  0  0  0  0  0  0
    3.3431   20.4428   42.0433 H   0  0  0  0  0  0  0  0  0  0  0  0
  1  2  1  0
  1  6  2  0
  2  3  2  0
  3  4  1  0
  3  7  1  0
  4  5  2  0
  5  6  1  0
  7  8  1  0
  7  9  2  0
  2 10  1  0
  4 11  1  0
  5 12  1  0
  6 13  1  0
M  CHG  1   8  -1
M  END
>  <mol_id>  (16) 
2026-09-16-3war-s0-n100-0016

>  <rmsd_to_ref>  (16) 
1.1428571428578715

>  <pose_kind>  (16) 
conformer

$$$$
3war.A
     RDKit          3D

 13 13  0  0  0  0  0  0  0  0999 V2000
    2.9210   18.0415   40.0222 N   0  0  0  0  0  0  0  0  0  0  0  0
    2.7253   18.1960   38.6286 C   0  0  0  0  0  0  0  0  0  0  0  0
    2.1757   19.4507   38.1781 C   0  0  0  0  0  0  0  0  0  0  0  0
    1.8339   20.4394   39.0835 C   0  0  0  0  0  0  0  0  0  0  0  0
    2.0669   20.2555   40.4288 C   0  0  0  0  0  0  0  0  0  0  0  0
    2.5734   19.0560   40.8766 C   0  0  0  0  0  0  0  0  0  0  0  0
    1.8503   19.6488   36.7052 C   0  0  0  0  0  0  0  0  0  0  0  0
    2.3043   18.8121   35.8706 O   0  0  0  0  0  0  0  0  0  0  0  0
    1.1575   20.6138   36.4644 O   0  0  0  0  0  0  0  0  0  0  0  0
    2.9814   17.3941   37.9205 H   0  0  0  0  0  0  0  0  0  0  0  0
    1.3753   21.3741   38.7286 H   0  0  0  0  0  0  0  0  0  0  0  0
    1.8493   21.0638   41.1425 H   0  0  0  0  0  0  0  0  0  0  0  0
    2.7037   18.9063   41.9586 H   0  0  0  0  0  0  0  0  0  0  0  0
  1  2  1  0
  1  6  2  0
  2  3  2  0
  3  4  1  0
  3  7  1  0
  4  5  2  0
  5  6  1  0
  7  8  1  0
  7  9  2  0
  2 10  1  0
  4 11  1  0
  5 12  1  0
  6 13  1  0
M  CHG  1   8  -1
M  END
>  <mol_id>  (17) 
2026-09-16-3war-s0-n100-0017

>  <rmsd_to_ref>  (17) 
1.1887755102092874

>  <pose_kind>  (17) 
rigid

$$$$
3war.A
     RDKit          3D

 13 13  0  0  0  0  0  0  0  0999 V2000
    1.5112   17.7903   39.4856 N   0  0  0  0  0  0  0  0  0  0  0  0
    2.2009   18.0201   38.3757 C   0  0  0  0  0  0  0  0  0  0  0  0
    2.8975   19.2127   38.2827 C   0  0  0  0  0  0  0  0  0  0  0  0
    2.8569   20.1120   39.3249 C   0  0  0  0  0  0  0  0  0  0  0  0
    2.1206   19.8219   40.4620 C   0  0  0  0  0  0  0  0  0  0  0  0
    1.4311   18.6257   40.5373 C   0  0  0  0  0  0  0  0  0  0  0  0
    3.6671   19.5263   37.1054 C   0  0  0  0  0  0  0  0  0  0  0  0
    3.7828   18.7132   36.0076 O   0  0  0  0  0  0  0  0  0  0  0  0
    4.2845   20.6352   37.0784 O   0  0  0  0  0  0  0  0  0  0  0  0
    2.2262   17.2986   37.5538 H   0  0  0  0  0  0  0  0  0  0  0  0
    3.4023   21.0506   39.2573 H   0  0  0  0  0  0  0  0  0  0  0  0
    2.0664   20.4962   41.2902 H   0  0  0  0  0  0  0  0  0  0  0  0
    0.8371   18.3328   41.3915 H   0  0  0  0  0  0  0  0  0  0  0  0
  1  2  1  0
  1  6  2  0
  2  3  2  0
  3  4  1  0
  3  7  1  0
  4  5  2  0
  5  6  1  0
  7  8  1  0
  7  9  2  0
  2 10  1  0
  4 11  1  0
  5 12  1  0
  6 13  1  0
M  CHG  1   8  -1
M  END
>  <mol_id>  (18) 
2026-09-16-3war-s0-n100-0018

>  <rmsd_to_ref>  (18) 
1.2346938775512135

>  <pose_kind>  (18) 
conformer

$$$$
3war.A
     RDKit          3D

 13 13  0  0  0  0  0  0  0  0999 V2000
    0.5851   18.3936   39.9052 N   0  0  0  0  0  0  0  0  0  0  0  0
    1.7935   18.6201   39.2035 C   0  0  0  0  0  0  0  0  0  0  0  0
    2.0031   19.9419   38.6666 C   0  0  0  0  0  0  0  0  0  0  0  0
    1.0427   20.9266   38.8154 C   0  0  0  0  0  0  0  0  0  0  0  0
   -0.1070   20.6688   39.5293 C   0  0  0  0  0  0  0  0  0  0  0  0
   -0.3305   19.4066   40.0318 C   0  0  0  0  0  0  0  0  0  0  0  0
    3.2345   20.2282   37.8203 C   0  0  0  0  0  0  0  0  0  0  0  0
    4.1743   19.3801   37.8187 O   0  0  0  0  0  0  0  0  0  0  0  0
    3.1932   21.2695   37.2011 O   0  0  0  0  0  0  0  0  0  0  0  0
    2.5401   17.8227   39.0736 H   0  0  0  0  0  0  0  0  0  0  0  0
    1.1975   21.9172   38.3629 H   0  0  0  0  0  0  0  0  0  0  0  0
   -0.8437   21.4683   39.6971 H   0  0  0  0  0  0  0  0  0  0  0  0
   -1.2774   19.2034   40.5535 H   0  0  0  0  0  0  0  0  0  0  0  0
  1  2  1  0
  1  6  2  0
  2  3  2  0
  3  4  1  0
  3  7  1  0
  4  5  2  0
  5  6  1  0
  7  8  1  0
  7  9  2  0
  2 10  1  0
  4 11  1  0
  5 12  1  0
  6 13  1  0
M  CHG  1   8  -1
M  END
>  <mol_id>  (19) 
2026-09-16-3war-s0-n100-0019

>  <rmsd_to_ref>  (19) 
1.2806122449011814

>  <pose_kind>  (19) 
rigid

$$$$
3war.A
     RDKit          3D

 13 13  0  0  0  0  0  0  0  0999 V2000
    2.8959   18.8429   40.8951 N   0  0  0  0  0  0  0  0  0  0  0  0
    2.7027   18.8732   39.5828 C   0  0  0  0  0  0  0  0  0  0  0  0
    2.8960   20.0777   38.9286 C   0  0  0  0  0  0  0  0  0  0  0  0
    3.2765   21.1914   39.6436 C   0  0  0  0  0  0  0  0  0  0  0  0
    3.4647   21.1044   41.0135 C   0  0  0  0  0  0  0  0  0  0  0  0
    3.2670   19.8929   41.6501 C   0  0  0  0  0  0  0  0  0  0  0  0
    2.7035   20.1814   37.5042 C   0  0  0  0  0  0  0  0  0  0  0  0
    2.3267   19.1456   36.6889 O   0  0  0  0  0  0  0  0  0  0  0  0
    2.8958   21.3124   36.9606 O   0  0  0  0  0  0  0  0  0  0  0  0
    2.4004   17.9823   39.0246 H   0  0  0  0  0  0  0  0  0  0  0  0
    3.4299   22.1405   39.1349 H   0  0  0  0  0  0  0  0  0  0  0  0
    3.7599   21.9482   41.6004 H   0  0  0  0  0  0  0  0  0  0  0  0
    3.3950   19.7508   42.7139 H   0  0  0  0  0  0  0  0  0  0  0  0
  1  2  1  0
  1  6  2  0
  2  3  2  0
  3  4  1  0
  3  7  1  0
  4  5  2  0
  5  6  1  0
  7  8  1  0
  7  9  2  0
  2 10  1  0
  4 11  1  0
  5 12  1  0
  6 13  1  0
M  CHG  1   8  -1
M  END
>  <mol_id>  (20) 
2026-09-16-3war-s0-n100-0020

>  <rmsd_to_ref>  (20) 
1.326530612247875

>  <pose_kind>  (20) 
conformer

$$$$
3war.A
     RDKit          3D

 13 13  0  0  0  0  0  0  0  0999 V2000
    2.9964   17.3734   39.9052 N   0  0  0  0  0  0  0  0  0  0  0  0
    3.0659   18.0331   38.6546 C   0  0  0  0  0  0  0  0  0  0  0  0
    2.4179   19.3173   38.5530 C   0  0  0  0  0  0  0  0  0  0  0  0
    1.7384   19.8545   39.6318 C   0  0  0  0  0  0  0  0  0  0  0  0
    1.7197   19.1891   40.8380 C   0  0  0  0  0  0  0  0  0  0  0  0
    2.3173   17.9534   40.9458 C   0  0  0  0  0  0  0  0  0  0  0  0
    2.3712   20.0373   37.2135 C   0  0  0  0  0  0  0  0  0  0  0  0
    3.1192   19.6218   36.2804 O   0  0  0  0  0  0  0  0  0  0  0  0
    1.5907   20.9633   37.1626 O   0  0  0  0  0  0  0  0  0  0  0  0
    3.5913   17.5858   37.7979 H   0  0  0  0  0  0  0  0  0  0  0  0
    1.2122   20.8147   39.5263 H   0  0  0  0  0  0  0  0  0  0  0  0
    1.2291   19.6432   41.7115 H   0  0  0  0  0  0  0  0  0  0  0  0
    2.2476   17.4121   41.9008 H   0  0  0  0  0  0  0  0  0  0  0  0
  1  2  1  0
  1  6  2  0
  2  3  2  0
  3  4  1  0
  3  7  1  0
  4  5  2  0
  5  6  1  0
  7  8  1  0
  7  9  2  0
  2 10  1  0
  4 11  1  0
  5 12  1  0
  6 13  1  0
M  CHG  1   8  -1
M  END
>  <mol_id>  (21) 
2026-09-16-3war-s0-n100-0021

>  <rmsd_to_ref>  (21) 
1.3724489795974857

>  <pose_kind>  (21) 
rigid

$$$$
3war.A
     RDKit          3D

 13 13  0  0  0  0  0  0  0  0999 V2000
    1.7065   19.5423   41.0326 N   0  0  0  0  0  0  0  0  0  0  0  0
    1.9860   18.6783   40.0653 C   0  0  0  0  0  0  0  0  0  0  0  0
    1.9611   19.1388   38.7601 C   0  0  0  0  0  0  0  0  0  0  0  0
    1.6529   20.4566   38.5052 C   0  0  0  0  0  0  0  0  0  0  0  0
    1.3689   21.3170   39.5533 C   0  0  0  0  0  0  0  0  0  0  0  0
    1.3985   20.8393   40.8506 C   0  0  0  0  0  0  0  0  0  0  0  0
    2.2547   18.2541   37.6611 C   0  0  0  0  0  0  0  0  0  0  0  0
    2.5738   16.9270   37.7897 O   0  0  0  0  0  0  0  0  0  0  0  0
    2.2161   18.7343   36.4865 O   0  0  0  0  0  0  0  0  0  0  0  0
    2.2295   17.6335   40.2791 H   0  0  0  0  0  0  0  0  0  0  0  0
    1.6319   20.8241   37.4817 H   0  0  0  0  0  0  0  0  0  0  0  0
    1.1256   22.3459   39.3928 H   0  0  0  0  0  0  0  0  0  0  0  0
    1.1882   21.4516   41.7161 H   0  0  0  0  0  0  0  0  0  0  0  0
  1  2  1  0
  1  6  2  0
  2  3  2  0
  3  4  1  0
  3  7  1  0
  4  5  2  0
  5  6  1  0
  7  8  1  0
  7  9  2  0
  2 10  1  0
  4 11  1  0
  5 12  1  0
  6 13  1  0
M  CHG  1   8  -1
M  END
>  <mol_id>  (22) 
2026-09-16-3war-s0-n100-0022

>  <rmsd_to_ref>  (22) 
1.4183673469417586

>  <pose_kind>  (22) 
conformer

$$$$
3war.A
     RDKit          3D

 13 13  0  0  0  0  0  0  0  0999 V2000
    3.5134   18.7648   40.6366 N   0  0  0  0  0  0  0  0  0  0  0  0
    3.1311   18.9759   39.2900 C   0  0  0  0  0  0  0  0  0  0  0  0
    2.6414   20.2875   38.9445 C   0  0  0  0  0  0  0  0  0  0  0  0
    2.5302   21.2770   39.9051 C   0  0  0  0  0  0  0  0  0  0  0  0
    2.9395   21.0346   41.1980 C   0  0  0  0  0  0  0  0  0  0  0  0
    3.3914   19.7820   41.5480 C   0  0  0  0  0  0  0  0  0  0  0  0
    2.1238   20.5559   37.5393 C   0  0  0  0  0  0  0  0  0  0  0  0
    2.3702   19.7056   36.6344 O   0  0  0  0  0  0  0  0  0  0  0  0
    1.4967   21.5861   37.4182 O   0  0  0  0  0  0  0  0  0  0  0  0
    3.2043   18.1746   38.5400 H   0  0  0  0  0  0  0  0  0  0  0  0
    2.1142   22.2591   39.6359 H   0  0  0  0  0  0  0  0  0  0  0  0
    2.9054   21.8387   41.9479 H   0  0  0  0  0  0  0  0  0  0  0  0
    3.6642   19.5904   42.5963 H   0  0  0  0  0  0  0  0  0  0  0  0
  1  2  1  0
  1  6  2  0
  2  3  2  0
  3  4  1  0
  3  7  1  0
  4  5  2  0
  5  6  1  0
  7  8  1  0
  7  9  2  0
  2 10  1  0
  4 11  1  0
  5 12  1  0
  6 13  1  0
M  CHG  1   8  -1
M  END
>  <mol_id>  (23) 
2026-09-16-3war-s0-n100-0023

>  <rmsd_to_ref>  (23) 
1.4642857142883767

>  <pose_kind>  (23) 
rigid

$$$$
3war.A
     RDKit          3D

 13 13  0  0  0  0  0  0  0  0999 V2000
    3.2559   20.5162   41.2857 N   0  0  0  0  0  0  0  0  0  0  0  0
    3.4043   19.6627   40.2809 C   0  0  0  0  0  0  0  0  0  0  0  0
    2.8390   19.9948   39.0617 C   0  0  0  0  0  0  0  0  0  0  0  0
    2.1506   21.1799   38.9268 C   0  0  0  0  0  0  0  0  0  0  0  0
    2.0254   22.0356   40.0092 C   0  0  0  0  0  0  0  0  0  0  0  0
    2.5967   21.6873   41.2193 C   0  0  0  0  0  0  0  0  0  0  0  0
    2.9620   19.1135   37.9283 C   0  0  0  0  0  0  0  0  0  0  0  0
    3.6211   17.9114   37.9407 O   0  0  0  0  0  0  0  0  0  0  0  0
    2.4223   19.4723   36.8367 O   0  0  0  0  0  0  0  0  0  0  0  0
    3.9532   18.7239   40.3992 H   0  0  0  0  0  0  0  0  0  0  0  0
    1.7043   21.4461   37.9713 H   0  0  0  0  0  0  0  0  0  0  0  0
    1.4982   22.9635   39.9410 H   0  0  0  0  0  0  0  0  0  0  0  0
    2.5396   22.3043   42.1049 H   0  0  0  0  0  0  0  0  0  0  0  0
  1  2  1  0
  1  6  2  0
  2  3  2  0
  3  4  1  0
  3  7  1  0
  4  5  2  0
  5  6  1  0
  7  8  1  0
  7  9  2  0
  2 10  1  0
  4 11  1  0
  5 12  1  0
  6 13  1  0
M  CHG  1   8  -1
M  END
>  <mol_id>  (24) 
2026-09-16-3war-s0-n100-0024

>  <rmsd_to_ref>  (24) 
1.5102040816335676

>  <pose_kind>  (24) 
conformer

$$$$
3war.A
     RDKit          3D

 13 13  0  0  0  0  0  0  0  0999 V2000
    0.6688   18.8166   41.1780 N   0  0  0  0  0  0  0  0  0  0  0  0
    1.2169   18.3424   39.9620 C   0  0  0  0  0  0  0  0  0  0  0  0
    2.4025   19.0028   39.4746 C   0  0  0  0  0  0  0  0  0  0  0  0
    2.9518   20.0698   40.1630 C   0  0  0  0  0  0  0  0  0  0  0  0
    2.4001   20.4802   41.3567 C   0  0  0  0  0  0  0  0  0  0  0  0
    1.2571   19.8724   41.8257 C   0  0  0  0  0  0  0  0  0  0  0  0
    2.9886   18.6082   38.1272 C   0  0  0  0  0  0  0  0  0  0  0  0
    2.5807   17.5405   37.5828 O   0  0  0  0  0  0  0  0  0  0  0  0
    3.8091   19.3830   37.6848 O   0  0  0  0  0  0  0  0  0  0  0  0
    0.7584   17.5067   39.4129 H   0  0  0  0  0  0  0  0  0  0  0  0
    3.8308   20.5914   39.7564 H   0  0  0  0  0  0  0  0  0  0  0  0
    2.8709   21.2903   41.9330 H   0  0  0  0  0  0  0  0  0  0  0  0
    0.7995   20.2471   42.7532 H   0  0  0  0  0  0  0  0  0  0  0  0
  1  2  1  0
  1  6  2  0
  2  3  2  0
  3  4  1  0
  3  7  1  0
  4  5  2  0
  5  6  1  0
  7  8  1  0
  7  9  2  0
  2 10  1  0
  4 11  1  0
  5 12  1  0
  6 13  1  0
M  CHG  1   8  -1
M  END
>  <mol_id>  (25) 
2026-09-16-3war-s0-n100-0025

>  <rmsd_to_ref>  (25) 
1.5561224489822343

>  <pose_kind>  (25) 
rigid

$$$$
3war.A
     RDKit          3D

 13 13  0  0  0  0  0  0  0  0999 V2000
    0.5692   18.2913   39.9093 N   0  0  0  0  0  0  0  0  0  0  0  0
    1.6912   17.8984   39.3202 C   0  0  0  0  0  0  0  0  0  0  0  0
    2.5725   18.8758   38.8910 C   0  0  0  0  0  0  0  0  0  0  0  0
    2.2670   20.2048   39.0832 C   0  0  0  0  0  0  0  0  0  0  0  0
    1.0807   20.5603   39.7044 C   0  0  0  0  0  0  0  0  0  0  0  0
    0.2126   19.5703   40.1266 C   0  0  0  0  0  0  0  0  0  0  0  0
    3.8095   18.5192   38.2435 C   0  0  0  0  0  0  0  0  0  0  0  0
    4.2212   17.2348   37.9977 O   0  0  0  0  0  0  0  0  0  0  0  0
    4.5770   19.4597   37.8720 O   0  0  0  0  0  0  0  0  0  0  0  0
    1.9238   16.8397   39.1727 H   0  0  0  0  0  0  0  0  0  0  0  0
    2.9557   20.9771   38.7480 H   0  0  0  0  0  0  0  0  0  0  0  0
    0.8110   21.5817   39.8702 H   0  0  0  0  0  0  0  0  0  0  0  0
   -0.7289   19.7728   40.6176 H   0  0  0  0  0  0  0  0  0  0  0  0
  1  2  1  0
  1  6  2  0
  2  3  2  0
  3  4  1  0
  3  7  1  0
  4  5  2  0
  5  6  1  0
  7  8  1  0
  7  9  2  0
  2 10  1  0
  4 11  1  0
  5 12  1  0
  6 13  1  0
M  CHG  1   8  -1
M  END
>  <mol_id>  (26) 
2026-09-16-3war-s0-n100-0026

>  <rmsd_to_ref>  (26) 
1.6020408163309565

>  <pose_kind>  (26) 
conformer

$$$$
3war.A
     RDKit          3D

 13 13  0  0  0  0  0  0  0  0999 V2000
    1.2538   19.3549   39.5655 N   0  0  0  0  0  0  0  0  0  0  0  0
    1.9854   18.6028   38.6151 C   0  0  0  0  0  0  0  0  0  0  0  0
    3.1520   19.2268   38.0414 C   0  0  0  0  0  0  0  0  0  0  0  0
    3.5111   20.5154   38.3945 C   0  0  0  0  0  0  0  0  0  0  0  0
    2.7846   21.2001   39.3440 C   0  0  0  0  0  0  0  0  0  0  0  0
    1.6573   20.6254   39.8870 C   0  0  0  0  0  0  0  0  0  0  0  0
    3.9291   18.5141   36.9448 C   0  0  0  0  0  0  0  0  0  0  0  0
    3.6928   17.2874   36.7395 O   0  0  0  0  0  0  0  0  0  0  0  0
    4.7186   19.2129   36.3467 O   0  0  0  0  0  0  0  0  0  0  0  0
    1.6775   17.5869   38.3269 H   0  0  0  0  0  0  0  0  0  0  0  0
    4.3782   20.9942   37.9162 H   0  0  0  0  0  0  0  0  0  0  0  0
    3.1039   22.2019   39.6671 H   0  0  0  0  0  0  0  0  0  0  0  0
    1.0590   21.2063   40.6043 H   0  0  0  0  0  0  0  0  0  0  0  0
  1  2  1  0
  1  6  2  0
  2  3  2  0
  3  4  1  0
  3  7  1  0
  4  5  2  0
  5  6  1  0
  7  8  1  0
  7  9  2  0
  2 10  1  0
  4 11  1  0
  5 12  1  0
  6 13  1  0
M  CHG  1   8  -1
M  END
>  <mol_id>  (27) 
2026-09-16-3war-s0-n100-0027

>  <rmsd_to_ref>  (27) 
1.6479591836758303

>  <pose_kind>  (27) 
rigid

$$$$
3war.A
     RDKit          3D

 13 13  0  0  0  0  0  0  0  0999 V2000
    3.5453   18.3389   40.9620 N   0  0  0  0  0  0  0  0  0  0  0  0
    2.9613   18.1220   39.7906 C   0  0  0  0  0  0  0  0  0  0  0  0
    2.2473   19.1626   39.2217 C   0  0  0  0  0  0  0  0  0  0  0  0
    2.1637   20.3724   39.8744 C   0  0  0  0  0  0  0  0  0  0  0  0
    2.7930   20.5453   41.0965 C   0  0  0  0  0  0  0  0  0  0  0  0
    3.5018   19.4947   41.6495 C   0  0  0  0  0  0  0  0  0  0  0  0
    1.5882   18.9955   37.9511 C   0  0  0  0  0  0  0  0  0  0  0  0
    1.6003   17.8422   37.2099 O   0  0  0  0  0  0  0  0  0  0  0  0
    0.9486   19.9859   37.4801 O   0  0  0  0  0  0  0  0  0  0  0  0
    3.0342   17.1569   39.2809 H   0  0  0  0  0  0  0  0  0  0  0  0
    1.6041   21.1935   39.4321 H   0  0  0  0  0  0  0  0  0  0  0  0
    2.7494   21.4703   41.6313 H   0  0  0  0  0  0  0  0  0  0  0  0
    4.0170   19.5569   42.5977 H   0  0  0  0  0  0  0  0  0  0  0  0
  1  2  1  0
  1  6  2  0
  2  3  2  0
  3  4  1  0
  3  7  1  0
  4  5  2  0
  5  6  1  0
  7  8  1  0
  7  9  2  0
  2 10  1  0
  4 11  1  0
  5 12  1  0
  6 13  1  0
M  CHG  1   8  -1
M  END
>  <mol_id>  (28) 
2026-09-16-3war-s0-n100-0028

>  <rmsd_to_ref>  (28) 
1.6938775510212667

>  <pose_kind>  (28) 
conformer

$$$$
3war.A
     RDKit          3D

 13 13  0  0  0  0  0  0  0  0999 V2000
    3.5822   18.1019   40.1406 N   0  0  0  0  0  0  0  0  0  0  0  0
    3.3094   18.7813   38.9290 C   0  0  0  0  0  0  0  0  0  0  0  0
    2.9516   20.1750   39.0241 C   0  0  0  0  0  0  0  0  0  0  0  0
    2.8565   20.7988   40.2553 C   0  0  0  0  0  0  0  0  0  0  0  0
    3.1572   20.1051   41.4069 C   0  0  0  0  0  0  0  0  0  0  0  0
    3.4819   18.7690   41.3345 C   0  0  0  0  0  0  0  0  0  0  0  0
    2.5527   20.9409   37.7714 C   0  0  0  0  0  0  0  0  0  0  0  0
    2.7898   20.4161   36.6440 O   0  0  0  0  0  0  0  0  0  0  0  0
    2.0204   22.0099   37.9788 O   0  0  0  0  0  0  0  0  0  0  0  0
    3.3678   18.2686   37.9575 H   0  0  0  0  0  0  0  0  0  0  0  0
    2.5401   21.8507   40.3148 H   0  0  0  0  0  0  0  0  0  0  0  0
    3.1380   20.6166   42.3806 H   0  0  0  0  0  0  0  0  0  0  0  0
    3.6675   18.2169   42.2676 H   0  0  0  0  0  0  0  0  0  0  0  0
  1  2  1  0
  1  6  2  0
  2  3  2  0
  3  4  1  0
  3  7  1  0
  4  5  2  0
  5  6  1  0
  7  8  1  0
  7  9  2  0
  2 10  1  0
  4 11  1  0
  5 12  1  0
  6 13  1  0
M  CHG  1   8  -1
M  END
>  <mol_id>  (29) 
2026-09-16-3war-s0-n100-0029

>  <rmsd_to_ref>  (29) 
1.7397959183709022

>  <pose_kind>  (29) 
rigid

$$$$
3war.A
     RDKit          3D

 13 13  0  0  0  0  0  0  0  0999 V2000
    2.2378   19.7017   40.0865 N   0  0  0  0  0  0  0  0  0  0  0  0
    2.0002   18.8960   39.0595 C   0  0  0  0  0  0  0  0  0  0  0  0
    2.0944   19.4282   37.7851 C   0  0  0  0  0  0  0  0  0  0  0  0
    2.4259   20.7546   37.6201 C   0  0  0  0  0  0  0  0  0  0  0  0
    2.6639   21.5522   38.7277 C   0  0  0  0  0  0  0  0  0  0  0  0
    2.5653   21.0034   39.9930 C   0  0  0  0  0  0  0  0  0  0  0  0
    1.8492   18.6092   36.6250 C   0  0  0  0  0  0  0  0  0  0  0  0
    1.5131   17.2806   36.6629 O   0  0  0  0  0  0  0  0  0  0  0  0
    1.9507   19.1536   35.4826 O   0  0  0  0  0  0  0  0  0  0  0  0
    1.7376   17.8437   39.2020 H   0  0  0  0  0  0  0  0  0  0  0  0
    2.5013   21.1782   36.6212 H   0  0  0  0  0  0  0  0  0  0  0  0
    2.9234   22.5857   38.6375 H   0  0  0  0  0  0  0  0  0  0  0  0
    2.7368   21.5642   40.9010 H   0  0  0  0  0  0  0  0  0  0  0  0
  1  2  1  0
  1  6  2  0
  2  3  2  0
  3  4  1  0
  3  7  1  0
  4  5  2  0
  5  6  1  0
  7  8  1  0
  7  9  2  0
  2 10  1  0
  4 11  1  0
  5 12  1  0
  6 13  1  0
M  CHG  1   8  -1
M  END
>  <mol_id>  (30) 
2026-09-16-3war-s0-n100-0030

>  <rmsd_to_ref>  (30) 
1.785714285715669

>  <pose_kind>  (30) 
conformer

$$$$
3war.A
     RDKit          3D

 13 13  0  0  0  0  0  0  0  0999 V2000
    1.0840   17.9685   40.0206 N   0  0  0  0  0  0  0  0  0  0  0  0
    2.1565   18.3994   39.2032 C   0  0  0  0  0  0  0  0  0  0  0  0
    2.9634   19.4871   39.6984 C   0  0  0  0  0  0  0  0  0  0  0  0
    2.6718   20.0906   40.9087 C   0  0  0  0  0  0  0  0  0  0  0  0
    1.6342   19.6203   41.6835 C   0  0  0  0  0  0  0  0  0  0  0  0
    0.8428   18.5952   41.2161 C   0  0  0  0  0  0  0  0  0  0  0  0
    4.0716   20.0633   38.8298 C   0  0  0  0  0  0  0  0  0  0  0  0
    4.4314   19.4145   37.8040 O   0  0  0  0  0  0  0  0  0  0  0  0
    4.5118   21.1270   39.2093 O   0  0  0  0  0  0  0  0  0  0  0  0
    2.3652   17.9252   38.2328 H   0  0  0  0  0  0  0  0  0  0  0  0
    3.2694   20.9475   41.2529 H   0  0  0  0  0  0  0  0  0  0  0  0
    1.4389   20.0622   42.6718 H   0  0  0  0  0  0  0  0  0  0  0  0
   -0.0137   18.2672   41.8235 H   0  0  0  0  0  0  0  0  0  0  0  0
  1  2  1  0
  1  6  2  0
  2  3  2  0
  3  4  1  0
  3  7  1  0
  4  5  2  0
  5  6  1  0
  7  8  1  0
  7  9  2  0
  2 10  1  0
  4 11  1  0
  5 12  1  0
  6 13  1  0
M  CHG  1   8  -1
M  END
>  <mol_id>  (31) 
2026-09-16-3war-s0-n100-0031

>  <rmsd_to_ref>  (31) 
1.831632653065115

>  <pose_kind>  (31) 
rigid

$$$$
3war.A
     RDKit          3D

 13 13  0  0  0  0  0  0  0  0999 V2000
   -0.2969   20.5966   40.0855 N   0  0  0  0  0  0  0  0  0  0  0  0
    0.2006   20.0694   38.9742 C   0  0  0  0  0  0  0  0  0  0  0  0
    1.4657   20.4689   38.5792 C   0  0  0  0  0  0  0  0  0  0  0  0
    2.1612   21.3857   39.3358 C   0  0  0  0  0  0  0  0  0  0  0  0
    1.5946   21.9051   40.4885 C   0  0  0  0  0  0  0  0  0  0  0  0
    0.3298   21.4944   40.8675 C   0  0  0  0  0  0  0  0  0  0  0  0
    2.0663   19.9361   37.3825 C   0  0  0  0  0  0  0  0  0  0  0  0
    1.4735   19.0213   36.5511 O   0  0  0  0  0  0  0  0  0  0  0  0
    3.2288   20.3406   37.0716 O   0  0  0  0  0  0  0  0  0  0  0  0
   -0.3607   19.3418   38.3807 H   0  0  0  0  0  0  0  0  0  0  0  0
    3.1556   21.7032   39.0303 H   0  0  0  0  0  0  0  0  0  0  0  0
    2.1052   22.6184   41.1001 H   0  0  0  0  0  0  0  0  0  0  0  0
   -0.1740   21.8563   41.7527 H   0  0  0  0  0  0  0  0  0  0  0  0
  1  2  1  0
  1  6  2  0
  2  3  2  0
  3  4  1  0
  3  7  1  0
  4  5  2  0
  5  6  1  0
  7  8  1  0
  7  9  2  0
  2 10  1  0
  4 11  1  0
  5 12  1  0
  6 13  1  0
M  CHG  1   8  -1
M  END
>  <mol_id>  (32) 
2026-09-16-3war-s0-n100-0032

>  <rmsd_to_ref>  (32) 
1.877551020408251

>  <pose_kind>  (32) 
conformer

$$$$
3war.A
     RDKit          3D

 13 13  0  0  0  0  0  0  0  0999 V2000
    2.3414   18.3044   41.3539 N   0  0  0  0  0  0  0  0  0  0  0  0
    1.6521   18.0940   40.1355 C   0  0  0  0  0  0  0  0  0  0  0  0
    1.6029   19.1988   39.2100 C   0  0  0  0  0  0  0  0  0  0  0  0
    2.1851   20.4133   39.5262 C   0  0  0  0  0  0  0  0  0  0  0  0
    2.8689   20.5643   40.7126 C   0  0  0  0  0  0  0  0  0  0  0  0
    2.9086   19.5252   41.6151 C   0  0  0  0  0  0  0  0  0  0  0  0
    0.7983   19.0738   37.9248 C   0  0  0  0  0  0  0  0  0  0  0  0
    0.4035   17.9242   37.5712 O   0  0  0  0  0  0  0  0  0  0  0  0
    0.5973   20.1212   37.3487 O   0  0  0  0  0  0  0  0  0  0  0  0
    1.1749   17.1301   39.9048 H   0  0  0  0  0  0  0  0  0  0  0  0
    2.1020   21.2601   38.8289 H   0  0  0  0  0  0  0  0  0  0  0  0
    3.3811   21.5113   40.9381 H   0  0  0  0  0  0  0  0  0  0  0  0
    3.4135   19.6798   42.5800 H   0  0  0  0  0  0  0  0  0  0  0  0
  1  2  1  0
  1  6  2  0
  2  3  2  0
  3  4  1  0
  3  7  1  0
  4  5  2  0
  5  6  1  0
  7  8  1  0
  7  9  2  0
  2 10  1  0
  4 11  1  0
  5 12  1  0
  6 13  1  0
M  CHG  1   8  -1
M  END
>  <mol_id>  (33) 
2026-09-16-3war-s0-n100-0033

>  <rmsd_to_ref>  (33) 
1.92346938775521

>  <pose_kind>  (33) 
rigid

$$$$
3war.A
     RDKit          3D

 13 13  0  0  0  0  0  0  0  0999 V2000
    1.7887   18.3960   40.3011 N   0  0  0  0  0  0  0  0  0  0  0  0
    3.0811   18.4463   40.0054 C   0  0  0  0  0  0  0  0  0  0  0  0
    3.4742   19.2678   38.9629 C   0  0  0  0  0  0  0  0  0  0  0  0
    2.5313   19.9973   38.2735 C   0  0  0  0  0  0  0  0  0  0  0  0
    1.1939   19.9077   38.6239 C   0  0  0  0  0  0  0  0  0  0  0  0
    0.8197   19.0819   39.6679 C   0  0  0  0  0  0  0  0  0  0  0  0
    4.8621   19.3698   38.5887 C   0  0  0  0  0  0  0  0  0  0  0  0
    5.8878   18.6949   39.1986 O   0  0  0  0  0  0  0  0  0  0  0  0
    5.1613   20.1396   37.6245 O   0  0  0  0  0  0  0  0  0  0  0  0
    3.8217   17.8625   40.5598 H   0  0  0  0  0  0  0  0  0  0  0  0
    2.8344   20.6444   37.4535 H   0  0  0  0  0  0  0  0  0  0  0  0
    0.4348   20.4593   38.1109 H   0  0  0  0  0  0  0  0  0  0  0  0
   -0.2032   18.9624   39.9961 H   0  0  0  0  0  0  0  0  0  0  0  0
  1  2  1  0
  1  6  2  0
  2  3  2  0
  3  4  1  0
  3  7  1  0
  4  5  2  0
  5  6  1  0
  7  8  1  0
  7  9  2  0
  2 10  1  0
  4 11  1  0
  5 12  1  0
  6 13  1  0
M  CHG  1   8  -1
M  END
>  <mol_id>  (34) 
2026-09-16-3war-s0-n100-0034

>  <rmsd_to_ref>  (34) 
1.9693877551026358

>  <pose_kind>  (34) 
conformer

$$$$
3war.A
     RDKit          3D

 13 13  0  0  0  0  0  0  0  0999 V2000
    1.7398   21.3709   40.4789 N   0  0  0  0  0  0  0  0  0  0  0  0
    2.8773   21.1704   39.6603 C   0  0  0  0  0  0  0  0  0  0  0  0
    2.6465   20.9915   38.2482 C   0  0  0  0  0  0  0  0  0  0  0  0
    1.3614   20.9910   37.7356 C   0  0  0  0  0  0  0  0  0  0  0  0
    0.2857   21.2166   38.5662 C   0  0  0  0  0  0  0  0  0  0  0  0
    0.4879   21.3701   39.9194 C   0  0  0  0  0  0  0  0  0  0  0  0
    3.8138   20.6763   37.3248 C   0  0  0  0  0  0  0  0  0  0  0  0
    4.9899   20.8315   37.7668 O   0  0  0  0  0  0  0  0  0  0  0  0
    3.4967   20.2851   36.2222 O   0  0  0  0  0  0  0  0  0  0  0  0
    3.8927   21.1518   40.0830 H   0  0  0  0  0  0  0  0  0  0  0  0
    1.1983   20.8099   36.6630 H   0  0  0  0  0  0  0  0  0  0  0  0
   -0.7309   21.2740   38.1498 H   0  0  0  0  0  0  0  0  0  0  0  0
   -0.3861   21.4966   40.5753 H   0  0  0  0  0  0  0  0  0  0  0  0
  1  2  1  0
  1  6  2  0
  2  3  2  0
  3  4  1  0
  3  7  1  0
  4  5  2  0
  5  6  1  0
  7  8  1  0
  7  9  2  0
  2 10  1  0
  4 11  1  0
  5 12  1  0
  6 13  1  0
M  CHG  1   8  -1
M  END
>  <mol_id>  (35) 
2026-09-16-3war-s0-n100-0035

>  <rmsd_to_ref>  (35) 
2.015306122450609

>  <pose_kind>  (35) 
rigid

$$$$
3war.A
     RDKit          3D

 13 13  0  0  0  0  0  0  0  0999 V2000
    2.8661   17.2974   38.6210 N   0  0  0  0  0  0  0  0  0  0  0  0
    3.2633   18.3537   37.9232 C   0  0  0  0  0  0  0  0  0  0  0  0
    2.4152   19.4463   37.8653 C   0  0  0  0  0  0  0  0  0  0  0  0
    1.2048   19.4085   38.5210 C   0  0  0  0  0  0  0  0  0  0  0  0
    0.8389   18.2796   39.2359 C   0  0  0  0  0  0  0  0  0  0  0  0
    1.6988   17.1977   39.2827 C   0  0  0  0  0  0  0  0  0  0  0  0
    2.7840   20.6265   37.1252 C   0  0  0  0  0  0  0  0  0  0  0  0
    3.9583   20.7809   36.4346 O   0  0  0  0  0  0  0  0  0  0  0  0
    1.9649   21.5963   37.1087 O   0  0  0  0  0  0  0  0  0  0  0  0
    4.2270   18.3729   37.4061 H   0  0  0  0  0  0  0  0  0  0  0  0
    0.5345   20.2641   38.4790 H   0  0  0  0  0  0  0  0  0  0  0  0
   -0.0927   18.2151   39.7570 H   0  0  0  0  0  0  0  0  0  0  0  0
    1.4803   16.2854   39.8196 H   0  0  0  0  0  0  0  0  0  0  0  0
  1  2  1  0
  1  6  2  0
  2  3  2  0
  3  4  1  0
  3  7  1  0
  4  5  2  0
  5  6  1  0
  7  8  1  0
  7  9  2  0
  2 10  1  0
  4 11  1  0
  5 12  1  0
  6 13  1  0
M  CHG  1   8  -1
M  END
>  <mol_id>  (36) 
2026-09-16-3war-s0-n100-0036

>  <rmsd_to_ref>  (36) 
2.061224489797364

>  <pose_kind>  (36) 
conformer

$$$$
3war.A
     RDKit          3D

 13 13  0  0  0  0  0  0  0  0999 V2000
    0.0401   19.0024   38.3082 N   0  0  0  0  0  0  0  0  0  0  0  0
    0.9359   19.7099   37.4710 C   0  0  0  0  0  0  0  0  0  0  0  0
    1.7899   20.6867   38.1004 C   0  0  0  0  0  0  0  0  0  0  0  0
    1.7054   20.9295   39.4598 C   0  0  0  0  0  0  0  0  0  0  0  0
    0.8373   20.1978   40.2401 C   0  0  0  0  0  0  0  0  0  0  0  0
    0.0018   19.2751   39.6516 C   0  0  0  0  0  0  0  0  0  0  0  0
    2.7079   21.5502   37.2480 C   0  0  0  0  0  0  0  0  0  0  0  0
    2.8939   21.2206   36.0400 O   0  0  0  0  0  0  0  0  0  0  0  0
    3.1811   22.5071   37.8222 O   0  0  0  0  0  0  0  0  0  0  0  0
    0.9788   19.5228   36.3879 H   0  0  0  0  0  0  0  0  0  0  0  0
    2.3325   21.7082   39.9184 H   0  0  0  0  0  0  0  0  0  0  0  0
    0.8116   20.3502   41.3292 H   0  0  0  0  0  0  0  0  0  0  0  0
   -0.7222   18.7375   40.2814 H   0  0  0  0  0  0  0  0  0  0  0  0
  1  2  1  0
  1  6  2  0
  2  3  2  0
  3  4  1  0
  3  7  1  0
  4  5  2  0
  5  6  1  0
  7  8  1  0
  7  9  2  0
  2 10  1  0
  4 11  1  0
  5 12  1  0
  6 13  1  0
M  CHG  1   8  -1
M  END
>  <mol_id>  (37) 
2026-09-16-3war-s0-n100-0037

>  <rmsd_to_ref>  (37) 
2.107142857146948

>  <pose_kind>  (37) 
rigid

$$$$
3war.A
     RDKit          3D

 13 13  0  0  0  0  0  0  0  0999 V2000
    0.3923   17.7021   37.7546 N   0  0  0  0  0  0  0  0  0  0  0  0
    1.3036   18.4171   37.1076 C   0  0  0  0  0  0  0  0  0  0  0  0
    1.8948   19.4723   37.7808 C   0  0  0  0  0  0  0  0  0  0  0  0
    1.5283   19.7467   39.0797 C   0  0  0  0  0  0  0  0  0  0  0  0
    0.5707   18.9677   39.7086 C   0  0  0  0  0  0  0  0  0  0  0  0
   -0.0091   17.9178   39.0205 C   0  0  0  0  0  0  0  0  0  0  0  0
    2.8921   20.2900   37.1378 C   0  0  0  0  0  0  0  0  0  0  0  0
    3.3369   20.1147   35.8529 O   0  0  0  0  0  0  0  0  0  0  0  0
    3.3983   21.2433   37.8062 O   0  0  0  0  0  0  0  0  0  0  0  0
    1.5872   18.1903   36.0757 H   0  0  0  0  0  0  0  0  0  0  0  0
    1.9895   20.5745   39.6135 H   0  0  0  0  0  0  0  0  0  0  0  0
    0.2617   19.1516   40.7157 H   0  0  0  0  0  0  0  0  0  0  0  0
   -0.7614   17.2691   39.4466 H   0  0  0  0  0  0  0  0  0  0  0  0
  1  2  1  0
  1  6  2  0
  2  3  2  0
  3  4  1  0
  3  7  1  0
  4  5  2  0
  5  6  1  0
  7  8  1  0
  7  9  2  0
  2 10  1  0
  4 11  1  0
  5 12  1  0
  6 13  1  0
M  CHG  1   8  -1
M  END
>  <mol_id>  (38) 
2026-09-16-3war-s0-n100-0038

>  <rmsd_to_ref>  (38) 
2.1530612244903167

>  <pose_kind>  (38) 
conformer

$$$$
3war.A
     RDKit          3D

 13 13  0  0  0  0  0  0  0  0999 V2000
    1.5271   16.8497   39.2603 N   0  0  0  0  0  0  0  0  0  0  0  0
    1.1769   17.6361   38.1365 C   0  0  0  0  0  0  0  0  0  0  0  0
    1.6860   18.9845   38.0944 C   0  0  0  0  0  0  0  0  0  0  0  0
    2.4587   19.4818   39.1287 C   0  0  0  0  0  0  0  0  0  0  0  0
    2.7970   18.6716   40.1904 C   0  0  0  0  0  0  0  0  0  0  0  0
    2.3031   17.3879   40.2545 C   0  0  0  0  0  0  0  0  0  0  0  0
    1.2709   19.9151   36.9646 C   0  0  0  0  0  0  0  0  0  0  0  0
    0.6989   19.4148   35.9522 O   0  0  0  0  0  0  0  0  0  0  0  0
    1.5269   21.0850   37.1516 O   0  0  0  0  0  0  0  0  0  0  0  0
    0.5441   17.2359   37.3306 H   0  0  0  0  0  0  0  0  0  0  0  0
    2.8037   20.5260   39.1034 H   0  0  0  0  0  0  0  0  0  0  0  0
    3.4591   19.0487   40.9837 H   0  0  0  0  0  0  0  0  0  0  0  0
    2.5395   16.7721   41.1348 H   0  0  0  0  0  0  0  0  0  0  0  0
  1  2  1  0
  1  6  2  0
  2  3  2  0
  3  4  1  0
  3  7  1  0
  4  5  2  0
  5  6  1  0
  7  8  1  0
  7  9  2  0
  2 10  1  0
  4 11  1  0
  5 12  1  0
  6 13  1  0
M  CHG  1   8  -1
M  END
>  <mol_id>  (39) 
2026-09-16-3war-s0-n100-0039

>  <rmsd_to_ref>  (39) 
2.1989795918382398

>  <pose_kind>  (39) 
rigid

$$$$
3war.A
     RDKit          3D

 13 13  0  0  0  0  0  0  0  0999 V2000
    0.9166   21.4986   39.9443 N   0  0  0  0  0  0  0  0  0  0  0  0
    2.0033   20.8398   39.5633 C   0  0  0  0  0  0  0  0  0  0  0  0
    2.1743   20.6025   38.2103 C   0  0  0  0  0  0  0  0  0  0  0  0
    1.2297   21.0481   37.3126 C   0  0  0  0  0  0  0  0  0  0  0  0
    0.1125   21.7316   37.7646 C   0  0  0  0  0  0  0  0  0  0  0  0
   -0.0415   21.9595   39.1197 C   0  0  0  0  0  0  0  0  0  0  0  0
    3.3318   19.8928   37.7274 C   0  0  0  0  0  0  0  0  0  0  0  0
    4.3359   19.4027   38.5219 O   0  0  0  0  0  0  0  0  0  0  0  0
    3.4333   19.7056   36.4759 O   0  0  0  0  0  0  0  0  0  0  0  0
    2.7474   20.4903   40.2850 H   0  0  0  0  0  0  0  0  0  0  0  0
    1.3588   20.8645   36.2484 H   0  0  0  0  0  0  0  0  0  0  0  0
   -0.6409   22.0920   37.0967 H   0  0  0  0  0  0  0  0  0  0  0  0
   -0.8859   22.4846   39.5436 H   0  0  0  0  0  0  0  0  0  0  0  0
  1  2  1  0
  1  6  2  0
  2  3  2  0
  3  4  1  0
  3  7  1  0
  4  5  2  0
  5  6  1  0
  7  8  1  0
  7  9  2  0
  2 10  1  0
  4 11  1  0
  5 12  1  0
  6 13  1  0
M  CHG  1   8  -1
M  END
>  <mol_id>  (40) 
2026-09-16-3war-s0-n100-0040

>  <rmsd_to_ref>  (40) 
2.24489795918765

>  <pose_kind>  (40) 
conformer

$$$$
3war.A
     RDKit          3D

 13 13  0  0  0  0  0  0  0  0999 V2000
    2.6945   17.5646   38.1158 N   0  0  0  0  0  0  0  0  0  0  0  0
    3.2776   18.6688   37.4490 C   0  0  0  0  0  0  0  0  0  0  0  0
    3.5432   19.8464   38.2378 C   0  0  0  0  0  0  0  0  0  0  0  0
    3.2111   19.8887   39.5802 C   0  0  0  0  0  0  0  0  0  0  0  0
    2.6696   18.7804   40.1937 C   0  0  0  0  0  0  0  0  0  0  0  0
    2.3923   17.6551   39.4503 C   0  0  0  0  0  0  0  0  0  0  0  0
    4.0796   21.1017   37.5662 C   0  0  0  0  0  0  0  0  0  0  0  0
    4.5235   21.0092   36.3842 O   0  0  0  0  0  0  0  0  0  0  0  0
    4.0201   22.1045   38.2446 O   0  0  0  0  0  0  0  0  0  0  0  0
    3.5176   18.6303   36.3762 H   0  0  0  0  0  0  0  0  0  0  0  0
    3.3797   20.8089   40.1587 H   0  0  0  0  0  0  0  0  0  0  0  0
    2.4595   18.7944   41.2734 H   0  0  0  0  0  0  0  0  0  0  0  0
    1.9113   16.7982   39.9445 H   0  0  0  0  0  0  0  0  0  0  0  0
  1  2  1  0
  1  6  2  0
  2  3  2  0
  3  4  1  0
  3  7  1  0
  4  5  2  0
  5  6  1  0
  7  8  1  0
  7  9  2  0
  2 10  1  0
  4 11  1  0
  5 12  1  0
  6 13  1  0
M  CHG  1   8  -1
M  END
>  <mol_id>  (41) 
2026-09-16-3war-s0-n100-0041

>  <rmsd_to_ref>  (41) 
2.290816326533832

>  <pose_kind>  (41) 
rigid

$$$$
3war.A
     RDKit          3D

 13 13  0  0  0  0  0  0  0  0999 V2000
    3.7382   19.4479   39.8402 N   0  0  0  0  0  0  0  0  0  0  0  0
    2.8791   19.5027   38.8306 C   0  0  0  0  0  0  0  0  0  0  0  0
    2.9364   20.6026   37.9920 C   0  0  0  0  0  0  0  0  0  0  0  0
    3.8660   21.5920   38.2235 C   0  0  0  0  0  0  0  0  0  0  0  0
    4.7402   21.4848   39.2931 C   0  0  0  0  0  0  0  0  0  0  0  0
    4.6683   20.3790   40.1201 C   0  0  0  0  0  0  0  0  0  0  0  0
    2.0329   20.7260   36.8762 C   0  0  0  0  0  0  0  0  0  0  0  0
    1.0685   19.8090   36.5462 O   0  0  0  0  0  0  0  0  0  0  0  0
    2.1336   21.7572   36.1427 O   0  0  0  0  0  0  0  0  0  0  0  0
    2.1447   18.7111   38.6559 H   0  0  0  0  0  0  0  0  0  0  0  0
    3.9157   22.4584   37.5679 H   0  0  0  0  0  0  0  0  0  0  0  0
    5.4744   22.2333   39.5029 H   0  0  0  0  0  0  0  0  0  0  0  0
    5.3167   20.2285   40.9718 H   0  0  0  0  0  0  0  0  0  0  0  0
  1  2  1  0
  1  6  2  0
  2  3  2  0
  3  4  1  0
  3  7  1  0
  4  5  2  0
  5  6  1  0
  7  8  1  0
  7  9  2  0
  2 10  1  0
  4 11  1  0
  5 12  1  0
  6 13  1  0
M  CHG  1   8  -1
M  END
>  <mol_id>  (42) 
2026-09-16-3war-s0-n100-0042

>  <rmsd_to_ref>  (42) 
2.3367346938793627

>  <pose_kind>  (42) 
conformer

$$$$
3war.A
     RDKit          3D

 13 13  0  0  0  0  0  0  0  0999 V2000
    2.1475   18.1278   39.4240 N   0  0  0  0  0  0  0  0  0  0  0  0
    2.5217   19.1592   38.5294 C   0  0  0  0  0  0  0  0  0  0  0  0
    1.5887   19.4890   37.4806 C   0  0  0  0  0  0  0  0  0  0  0  0
    0.3964   18.7990   37.3513 C   0  0  0  0  0  0  0  0  0  0  0  0
    0.0617   17.8204   38.2613 C   0  0  0  0  0  0  0  0  0  0  0  0
    0.9501   17.4808   39.2570 C   0  0  0  0  0  0  0  0  0  0  0  0
    1.9672   20.5201   36.4278 C   0  0  0  0  0  0  0  0  0  0  0  0
    2.9791   21.2512   36.6379 O   0  0  0  0  0  0  0  0  0  0  0  0
    1.2470   20.5373   35.4530 O   0  0  0  0  0  0  0  0  0  0  0  0
    3.4821   19.6861   38.6300 H   0  0  0  0  0  0  0  0  0  0  0  0
   -0.2855   19.0323   36.5203 H   0  0  0  0  0  0  0  0  0  0  0  0
   -0.9115   17.3123   38.1928 H   0  0  0  0  0  0  0  0  0  0  0  0
    0.6900   16.6612   39.9429 H   0  0  0  0  0  0  0  0  0  0  0  0
  1  2  1  0
  1  6  2  0
  2  3  2  0
  3  4  1  0
  3  7  1  0
  4  5  2  0
  5  6  1  0
  7  8  1  0
  7  9  2  0
  2 10  1  0
  4 11  1  0
  5 12  1  0
  6 13  1  0
M  CHG  1   8  -1
M  END
>  <mol_id>  (43) 
2026-09-16-3war-s0-n100-0043

>  <rmsd_to_ref>  (43) 
2.382653061225204

>  <pose_kind>  (43) 
rigid

$$$$
3war.A
     RDKit          3D

 13 13  0  0  0  0  0  0  0  0999 V2000
    1.5677   20.3577   39.0355 N   0  0  0  0  0  0  0  0  0  0  0  0
    2.1900   20.3796   37.8640 C   0  0  0  0  0  0  0  0  0  0  0  0
    1.7226   19.5396   36.8679 C   0  0  0  0  0  0  0  0  0  0  0  0
    0.6444   18.7191   37.1147 C   0  0  0  0  0  0  0  0  0  0  0  0
    0.0310   18.7359   38.3569 C   0  0  0  0  0  0  0  0  0  0  0  0
    0.5116   19.5814   39.3397 C   0  0  0  0  0  0  0  0  0  0  0  0
    2.3518   19.5127   35.5717 C   0  0  0  0  0  0  0  0  0  0  0  0
    3.4280   20.2807   35.2091 O   0  0  0  0  0  0  0  0  0  0  0  0
    1.8783   18.7216   34.6990 O   0  0  0  0  0  0  0  0  0  0  0  0
    3.0457   21.0355   37.6787 H   0  0  0  0  0  0  0  0  0  0  0  0
    0.2729   18.0570   36.3359 H   0  0  0  0  0  0  0  0  0  0  0  0
   -0.8079   18.1128   38.5839 H   0  0  0  0  0  0  0  0  0  0  0  0
    0.0840   19.6478   40.3302 H   0  0  0  0  0  0  0  0  0  0  0  0
  1  2  1  0
  1  6  2  0
  2  3  2  0
  3  4  1  0
  3  7  1  0
  4  5  2  0
  5  6  1  0
  7  8  1  0
  7  9  2  0
  2 10  1  0
  4 11  1  0
  5 12  1  0
  6 13  1  0
M  CHG  1   8  -1
M  END
>  <mol_id>  (44) 
2026-09-16-3war-s0-n100-0044

>  <rmsd_to_ref>  (44) 
2.4285714285716637

>  <pose_kind>  (44) 
conformer

$$$$
3war.A
     RDKit          3D

 13 13  0  0  0  0  0  0  0  0999 V2000
    3.7792   18.7317   39.0272 N   0  0  0  0  0  0  0  0  0  0  0  0
    2.9059   18.1081   38.1039 C   0  0  0  0  0  0  0  0  0  0  0  0
    1.6025   18.7001   37.9304 C   0  0  0  0  0  0  0  0  0  0  0  0
    1.2274   19.8126   38.6624 C   0  0  0  0  0  0  0  0  0  0  0  0
    2.1201   20.4023   39.5303 C   0  0  0  0  0  0  0  0  0  0  0  0
    3.3614   19.8380   39.7213 C   0  0  0  0  0  0  0  0  0  0  0  0
    0.5801   18.0272   37.0267 C   0  0  0  0  0  0  0  0  0  0  0  0
    0.9756   17.1102   36.2487 O   0  0  0  0  0  0  0  0  0  0  0  0
   -0.5533   18.4394   37.1485 O   0  0  0  0  0  0  0  0  0  0  0  0
    3.2082   17.2112   37.5434 H   0  0  0  0  0  0  0  0  0  0  0  0
    0.2145   20.2270   38.5512 H   0  0  0  0  0  0  0  0  0  0  0  0
    1.8422   21.3204   40.0687 H   0  0  0  0  0  0  0  0  0  0  0  0
    4.0423   20.2908   40.4571 H   0  0  0  0  0  0  0  0  0  0  0  0
  1  2  1  0
  1  6  2  0
  2  3  2  0
  3  4  1  0
  3  7  1  0
  4  5  2  0
  5  6  1  0
  7  8  1  0
  7  9  2  0
  2 10  1  0
  4 11  1  0
  5 12  1  0
  6 13  1  0
M  CHG  1   8  -1
M  END
>  <mol_id>  (45) 
2026-09-16-3war-s0-n100-0045

>  <rmsd_to_ref>  (45) 
2.4744897959189753

>  <pose_kind>  (45) 
rigid

$$$$
3war.A
     RDKit          3D

 13 13  0  0  0  0  0  0  0  0999 V2000
    1.9794   21.0543   39.1168 N   0  0  0  0  0  0  0  0  0  0  0  0
    2.5183   20.0495   38.4385 C   0  0  0  0  0  0  0  0  0  0  0  0
    3.8978   20.0091   38.3297 C   0  0  0  0  0  0  0  0  0  0  0  0
    4.6596   20.9944   38.9174 C   0  0  0  0  0  0  0  0  0  0  0  0
    4.0453   22.0219   39.6148 C   0  0  0  0  0  0  0  0  0  0  0  0
    2.6663   22.0458   39.7131 C   0  0  0  0  0  0  0  0  0  0  0  0
    4.5489   18.9459   37.6070 C   0  0  0  0  0  0  0  0  0  0  0  0
    3.8988   17.9131   36.9821 O   0  0  0  0  0  0  0  0  0  0  0  0
    5.8166   18.9628   37.5417 O   0  0  0  0  0  0  0  0  0  0  0  0
    1.9036   19.2720   37.9756 H   0  0  0  0  0  0  0  0  0  0  0  0
    5.7438   20.9679   38.8352 H   0  0  0  0  0  0  0  0  0  0  0  0
    4.6049   22.8033   40.0836 H   0  0  0  0  0  0  0  0  0  0  0  0
    2.1195   22.8149   40.2403 H   0  0  0  0  0  0  0  0  0  0  0  0
  1  2  1  0
  1  6  2  0
  2  3  2  0
  3  4  1  0
  3  7  1  0
  4  5  2  0
  5  6  1  0
  7  8  1  0
  7  9  2  0
  2 10  1  0
  4 11  1  0
  5 12  1  0
  6 13  1  0
M  CHG  1   8  -1
M  END
>  <mol_id>  (46) 
2026-09-16-3war-s0-n100-0046

>  <rmsd_to_ref>  (46) 
2.520408163267438

>  <pose_kind>  (46) 
conformer

$$$$
3war.A
     RDKit          3D

 13 13  0  0  0  0  0  0  0  0999 V2000
    1.2883   19.5569   39.1970 N   0  0  0  0  0  0  0  0  0  0  0  0
    1.2265   18.6549   38.1077 C   0  0  0  0  0  0  0  0  0  0  0  0
    2.4758   18.2871   37.4885 C   0  0  0  0  0  0  0  0  0  0  0  0
    3.6711   18.8228   37.9337 C   0  0  0  0  0  0  0  0  0  0  0  0
    3.6860   19.6765   39.0148 C   0  0  0  0  0  0  0  0  0  0  0  0
    2.5001   20.0523   39.6049 C   0  0  0  0  0  0  0  0  0  0  0  0
    2.4752   17.3981   36.2538 C   0  0  0  0  0  0  0  0  0  0  0  0
    1.4065   16.7918   35.9490 O   0  0  0  0  0  0  0  0  0  0  0  0
    3.5286   17.3613   35.6552 O   0  0  0  0  0  0  0  0  0  0  0  0
    0.2676   18.2523   37.7493 H   0  0  0  0  0  0  0  0  0  0  0  0
    4.6114   18.5665   37.4236 H   0  0  0  0  0  0  0  0  0  0  0  0
    4.6417   20.0566   39.4051 H   0  0  0  0  0  0  0  0  0  0  0  0
    2.5257   20.7759   40.4330 H   0  0  0  0  0  0  0  0  0  0  0  0
  1  2  1  0
  1  6  2  0
  2  3  2  0
  3  4  1  0
  3  7  1  0
  4  5  2  0
  5  6  1  0
  7  8  1  0
  7  9  2  0
  2 10  1  0
  4 11  1  0
  5 12  1  0
  6 13  1  0
M  CHG  1   8  -1
M  END
>  <mol_id>  (47) 
2026-09-16-3war-s0-n100-0047

>  <rmsd_to_ref>  (47) 
2.566326530612927

>  <pose_kind>  (47) 
rigid

$$$$
3war.A
     RDKit          3D

 13 13  0  0  0  0  0  0  0  0999 V2000
    1.8582   20.4087   41.4332 N   0  0  0  0  0  0  0  0  0  0  0  0
    1.0035   19.7900   40.6288 C   0  0  0  0  0  0  0  0  0  0  0  0
    0.9938   20.1535   39.2932 C   0  0  0  0  0  0  0  0  0  0  0  0
    1.8553   21.1292   38.8432 C   0  0  0  0  0  0  0  0  0  0  0  0
    2.7282   21.7438   39.7264 C   0  0  0  0  0  0  0  0  0  0  0  0
    2.7238   21.3678   41.0570 C   0  0  0  0  0  0  0  0  0  0  0  0
    0.0909   19.5220   38.3645 C   0  0  0  0  0  0  0  0  0  0  0  0
   -0.8094   18.5418   38.6935 O   0  0  0  0  0  0  0  0  0  0  0  0
    0.1284   19.8976   37.1524 O   0  0  0  0  0  0  0  0  0  0  0  0
    0.3235   19.0162   40.9969 H   0  0  0  0  0  0  0  0  0  0  0  0
    1.8521   21.4189   37.7949 H   0  0  0  0  0  0  0  0  0  0  0  0
    3.4106   22.5048   39.4125 H   0  0  0  0  0  0  0  0  0  0  0  0
    3.3755   21.8029   41.8015 H   0  0  0  0  0  0  0  0  0  0  0  0
  1  2  1  0
  1  6  2  0
  2  3  2  0
  3  4  1  0
  3  7  1  0
  4  5  2  0
  5  6  1  0
  7  8  1  0
  7  9  2  0
  2 10  1  0
  4 11  1  0
  5 12  1  0
  6 13  1  0
M  CHG  1   8  -1
M  END
>  <mol_id>  (48) 
2026-09-16-3war-s0-n100-0048

>  <rmsd_to_ref>  (48) 
2.6122448979607773

>  <pose_kind>  (48) 
conformer

$$$$
3war.A
     RDKit          3D

 13 13  0  0  0  0  0  0  0  0999 V2000
    3.6060   19.7541   41.1760 N   0  0  0  0  0  0  0  0  0  0  0  0
    3.2150   18.4779   40.7045 C   0  0  0  0  0  0  0  0  0  0  0  0
    2.5463   18.4263   39.4280 C   0  0  0  0  0  0  0  0  0  0  0  0
    2.2813   19.5854   38.7205 C   0  0  0  0  0  0  0  0  0  0  0  0
    2.7043   20.8035   39.2056 C   0  0  0  0  0  0  0  0  0  0  0  0
    3.3270   20.8715   40.4317 C   0  0  0  0  0  0  0  0  0  0  0  0
    2.0138   17.1002   38.9058 C   0  0  0  0  0  0  0  0  0  0  0  0
    2.3918   16.0341   39.4743 O   0  0  0  0  0  0  0  0  0  0  0  0
    1.2466   17.1943   37.9721 O   0  0  0  0  0  0  0  0  0  0  0  0
    3.4125   17.5655   41.2864 H   0  0  0  0  0  0  0  0  0  0  0  0
    1.7319   19.5343   37.7689 H   0  0  0  0  0  0  0  0  0  0  0  0
    2.5451   21.7181   38.6157 H   0  0  0  0  0  0  0  0  0  0  0  0
    3.6109   21.8574   40.8284 H   0  0  0  0  0  0  0  0  0  0  0  0
  1  2  1  0
  1  6  2  0
  2  3  2  0
  3  4  1  0
  3  7  1  0
  4  5  2  0
  5  6  1  0
  7  8  1  0
  7  9  2  0
  2 10  1  0
  4 11  1  0
  5 12  1  0
  6 13  1  0
M  CHG  1   8  -1
M  END
>  <mol_id>  (49) 
2026-09-16-3war-s0-n100-0049

>  <rmsd_to_ref>  (49) 
2.658163265309956

>  <pose_kind>  (49) 
rigid

$$$$
3war.A
     RDKit          3D

 13 13  0  0  0  0  0  0  0  0999 V2000
    3.2474   19.7837   39.6672 N   0  0  0  0  0  0  0  0  0  0  0  0
    3.0671   19.8765   38.3560 C   0  0  0  0  0  0  0  0  0  0  0  0
    4.1469   19.6033   37.5340 C   0  0  0  0  0  0  0  0  0  0  0  0
    5.3567   19.2490   38.0886 C   0  0  0  0  0  0  0  0  0  0  0  0
    5.4904   19.1670   39.4652 C   0  0  0  0  0  0  0  0  0  0  0  0
    4.4009   19.4435   40.2705 C   0  0  0  0  0  0  0  0  0  0  0  0
    4.0209   19.6850   36.1008 C   0  0  0  0  0  0  0  0  0  0  0  0
    2.8718   20.0260   35.4354 O   0  0  0  0  0  0  0  0  0  0  0  0
    5.0461   19.4231   35.3994 O   0  0  0  0  0  0  0  0  0  0  0  0
    2.1016   20.1588   37.9261 H   0  0  0  0  0  0  0  0  0  0  0  0
    6.2086   19.0332   37.4477 H   0  0  0  0  0  0  0  0  0  0  0  0
    6.4141   18.8952   39.9303 H   0  0  0  0  0  0  0  0  0  0  0  0
    4.4314   19.3998   41.3501 H   0  0  0  0  0  0  0  0  0  0  0  0
  1  2  1  0
  1  6  2  0
  2  3  2  0
  3  4  1  0
  3  7  1  0
  4  5  2  0
  5  6  1  0
  7  8  1  0
  7  9  2  0
  2 10  1  0
  4 11  1  0
  5 12  1  0
  6 13  1  0
M  CHG  1   8  -1
M  END
>  <mol_id>  (50) 
2026-09-16-3war-s0-n100-0050

>  <rmsd_to_ref>  (50) 
2.7040816326550288

>  <pose_kind>  (50) 
conformer

$$$$
3war.A
     RDKit          3D

 13 13  0  0  0  0  0  0  0  0999 V2000
    1.5664   20.8478   41.7587 N   0  0  0  0  0  0  0  0  0  0  0  0
    2.5939   20.0108   41.2608 C   0  0  0  0  0  0  0  0  0  0  0  0
    2.2137   19.0067   40.2982 C   0  0  0  0  0  0  0  0  0  0  0  0
    0.8938   18.8625   39.9097 C   0  0  0  0  0  0  0  0  0  0  0  0
   -0.0687   19.7174   40.4004 C   0  0  0  0  0  0  0  0  0  0  0  0
    0.2748   20.6688   41.3345 C   0  0  0  0  0  0  0  0  0  0  0  0
    3.2485   18.0118   39.7941 C   0  0  0  0  0  0  0  0  0  0  0  0
    4.4707   18.2434   40.0292 O   0  0  0  0  0  0  0  0  0  0  0  0
    2.7891   17.0571   39.2052 O   0  0  0  0  0  0  0  0  0  0  0  0
    3.6364   20.1216   41.5936 H   0  0  0  0  0  0  0  0  0  0  0  0
    0.6122   18.0639   39.2076 H   0  0  0  0  0  0  0  0  0  0  0  0
   -1.1077   19.6401   40.0474 H   0  0  0  0  0  0  0  0  0  0  0  0
   -0.5151   21.3082   41.7555 H   0  0  0  0  0  0  0  0  0  0  0  0
  1  2  1  0
  1  6  2  0
  2  3  2  0
  3  4  1  0
  3  7  1  0
  4  5  2  0
  5  6  1  0
  7  8  1  0
  7  9  2  0
  2 10  1  0
  4 11  1  0
  5 12  1  0
  6 13  1  0
M  CHG  1   8  -1
M  END
>  <mol_id>  (51) 
2026-09-16-3war-s0-n100-0051

>  <rmsd_to_ref>  (51) 
2.750000000002198

>  <pose_kind>  (51) 
rigid

$$$$
3war.A
     RDKit          3D

 13 13  0  0  0  0  0  0  0  0999 V2000
    2.9079   20.4755   38.7169 N   0  0  0  0  0  0  0  0  0  0  0  0
    2.5085   19.2673   38.3414 C   0  0  0  0  0  0  0  0  0  0  0  0
    1.2972   19.1636   37.6792 C   0  0  0  0  0  0  0  0  0  0  0  0
    0.5531   20.2959   37.4326 C   0  0  0  0  0  0  0  0  0  0  0  0
    1.0172   21.5339   37.8468 C   0  0  0  0  0  0  0  0  0  0  0  0
    2.2293   21.6182   38.5068 C   0  0  0  0  0  0  0  0  0  0  0  0
    0.8035   17.8819   37.2433 C   0  0  0  0  0  0  0  0  0  0  0  0
    1.4527   16.6891   37.4310 O   0  0  0  0  0  0  0  0  0  0  0  0
   -0.3137   17.8504   36.6411 O   0  0  0  0  0  0  0  0  0  0  0  0
    3.1076   18.3744   38.5425 H   0  0  0  0  0  0  0  0  0  0  0  0
   -0.3993   20.2205   36.9127 H   0  0  0  0  0  0  0  0  0  0  0  0
    0.4663   22.4337   37.6724 H   0  0  0  0  0  0  0  0  0  0  0  0
    2.6532   22.5483   38.8582 H   0  0  0  0  0  0  0  0  0  0  0  0
  1  2  1  0
  1  6  2  0
  2  3  2  0
  3  4  1  0
  3  7  1  0
  4  5  2  0
  5  6  1  0
  7  8  1  0
  7  9  2  0
  2 10  1  0
  4 11  1  0
  5 12  1  0
  6 13  1  0
M  CHG  1   8  -1
M  END
>  <mol_id>  (52) 
2026-09-16-3war-s0-n100-0052

>  <rmsd_to_ref>  (52) 
2.7959183673490173

>  <pose_kind>  (52) 
conformer

$$$$
3war.A
     RDKit          3D

 13 13  0  0  0  0  0  0  0  0999 V2000
   -0.5525   18.5859   40.1449 N   0  0  0  0  0  0  0  0  0  0  0  0
   -0.1151   19.7230   39.4239 C   0  0  0  0  0  0  0  0  0  0  0  0
    1.1171   20.3377   39.8521 C   0  0  0  0  0  0  0  0  0  0  0  0
    1.8148   19.8422   40.9391 C   0  0  0  0  0  0  0  0  0  0  0  0
    1.3654   18.7168   41.5945 C   0  0  0  0  0  0  0  0  0  0  0  0
    0.1809   18.1296   41.2099 C   0  0  0  0  0  0  0  0  0  0  0  0
    1.5958   21.6181   39.1841 C   0  0  0  0  0  0  0  0  0  0  0  0
    1.0445   21.9748   38.1017 O   0  0  0  0  0  0  0  0  0  0  0  0
    2.4808   22.1981   39.7754 O   0  0  0  0  0  0  0  0  0  0  0  0
   -0.6900   20.1203   38.5744 H   0  0  0  0  0  0  0  0  0  0  0  0
    2.7301   20.3477   41.2808 H   0  0  0  0  0  0  0  0  0  0  0  0
    1.9507   18.2889   42.4217 H   0  0  0  0  0  0  0  0  0  0  0  0
   -0.1905   17.2635   41.7774 H   0  0  0  0  0  0  0  0  0  0  0  0
  1  2  1  0
  1  6  2  0
  2  3  2  0
  3  4  1  0
  3  7  1  0
  4  5  2  0
  5  6  1  0
  7  8  1  0
  7  9  2  0
  2 10  1  0
  4 11  1  0
  5 12  1  0
  6 13  1  0
M  CHG  1   8  -1
M  END
>  <mol_id>  (53) 
2026-09-16-3war-s0-n100-0053

>  <rmsd_to_ref>  (53) 
2.841836734694491

>  <pose_kind>  (53) 
rigid

$$$$
3war.A
     RDKit          3D

 13 13  0  0  0  0  0  0  0  0999 V2000
    1.4946   18.2261   36.5747 N   0  0  0  0  0  0  0  0  0  0  0  0
    2.5336   18.9975   36.8676 C   0  0  0  0  0  0  0  0  0  0  0  0
    2.2848   20.2065   37.4943 C   0  0  0  0  0  0  0  0  0  0  0  0
    0.9900   20.5695   37.7915 C   0  0  0  0  0  0  0  0  0  0  0  0
   -0.0588   19.7258   37.4633 C   0  0  0  0  0  0  0  0  0  0  0  0
    0.2087   18.5222   36.8376 C   0  0  0  0  0  0  0  0  0  0  0  0
    3.3668   21.0928   37.8409 C   0  0  0  0  0  0  0  0  0  0  0  0
    4.6922   20.8412   37.5967 O   0  0  0  0  0  0  0  0  0  0  0  0
    3.0762   22.1876   38.4142 O   0  0  0  0  0  0  0  0  0  0  0  0
    3.5582   18.6992   36.6270 H   0  0  0  0  0  0  0  0  0  0  0  0
    0.7886   21.5182   38.2839 H   0  0  0  0  0  0  0  0  0  0  0  0
   -1.0762   19.9750   37.6788 H   0  0  0  0  0  0  0  0  0  0  0  0
   -0.5577   17.8153   36.5526 H   0  0  0  0  0  0  0  0  0  0  0  0
  1  2  1  0
  1  6  2  0
  2  3  2  0
  3  4  1  0
  3  7  1  0
  4  5  2  0
  5  6  1  0
  7  8  1  0
  7  9  2  0
  2 10  1  0
  4 11  1  0
  5 12  1  0
  6 13  1  0
M  CHG  1   8  -1
M  END
>  <mol_id>  (54) 
2026-09-16-3war-s0-n100-0054

>  <rmsd_to_ref>  (54) 
2.887755102042912

>  <pose_kind>  (54) 
conformer

$$$$
3war.A
     RDKit          3D

 13 13  0  0  0  0  0  0  0  0999 V2000
    2.5738   18.1246   37.0408 N   0  0  0  0  0  0  0  0  0  0  0  0
    2.9462   19.4903   37.0261 C   0  0  0  0  0  0  0  0  0  0  0  0
    2.0122   20.4315   37.5928 C   0  0  0  0  0  0  0  0  0  0  0  0
    0.7974   20.0051   38.0995 C   0  0  0  0  0  0  0  0  0  0  0  0
    0.4886   18.6627   38.1174 C   0  0  0  0  0  0  0  0  0  0  0  0
    1.3614   17.7535   37.5629 C   0  0  0  0  0  0  0  0  0  0  0  0
    2.3051   21.9228   37.5238 C   0  0  0  0  0  0  0  0  0  0  0  0
    3.4731   22.2927   37.2052 O   0  0  0  0  0  0  0  0  0  0  0  0
    1.3599   22.6375   37.7791 O   0  0  0  0  0  0  0  0  0  0  0  0
    3.9059   19.8191   36.6010 H   0  0  0  0  0  0  0  0  0  0  0  0
    0.0769   20.7395   38.4889 H   0  0  0  0  0  0  0  0  0  0  0  0
   -0.4516   18.3184   38.5729 H   0  0  0  0  0  0  0  0  0  0  0  0
    1.0758   16.6915   37.5378 H   0  0  0  0  0  0  0  0  0  0  0  0
  1  2  1  0
  1  6  2  0
  2  3  2  0
  3  4  1  0
  3  7  1  0
  4  5  2  0
  5  6  1  0
  7  8  1  0
  7  9  2  0
  2 10  1  0
  4 11  1  0
  5 12  1  0
  6 13  1  0
M  CHG  1   8  -1
M  END
>  <mol_id>  (55) 
2026-09-16-3war-s0-n100-0055

>  <rmsd_to_ref>  (55) 
2.9336734693906013

>  <pose_kind>  (55) 
rigid

$$$$
3war.A
     RDKit          3D

 13 13  0  0  0  0  0  0  0  0999 V2000
    0.8791   21.1960   38.0571 N   0  0  0  0  0  0  0  0  0  0  0  0
    2.1273   20.7805   38.2293 C   0  0  0  0  0  0  0  0  0  0  0  0
    2.8812   21.3907   39.2171 C   0  0  0  0  0  0  0  0  0  0  0  0
    2.3262   22.3937   39.9802 C   0  0  0  0  0  0  0  0  0  0  0  0
    1.0171   22.7893   39.7584 C   0  0  0  0  0  0  0  0  0  0  0  0
    0.2791   22.1686   38.7674 C   0  0  0  0  0  0  0  0  0  0  0  0
    4.2439   20.9884   39.4577 C   0  0  0  0  0  0  0  0  0  0  0  0
    4.9027   20.0056   38.7651 O   0  0  0  0  0  0  0  0  0  0  0  0
    4.8848   21.5848   40.3771 O   0  0  0  0  0  0  0  0  0  0  0  0
    2.5582   19.9828   37.6173 H   0  0  0  0  0  0  0  0  0  0  0  0
    2.9138   22.8766   40.7577 H   0  0  0  0  0  0  0  0  0  0  0  0
    0.5537   23.5642   40.3314 H   0  0  0  0  0  0  0  0  0  0  0  0
   -0.7458   22.4246   38.5386 H   0  0  0  0  0  0  0  0  0  0  0  0
  1  2  1  0
  1  6  2  0
  2  3  2  0
  3  4  1  0
  3  7  1  0
  4  5  2  0
  5  6  1  0
  7  8  1  0
  7  9  2  0
  2 10  1  0
  4 11  1  0
  5 12  1  0
  6 13  1  0
M  CHG  1   8  -1
M  END
>  <mol_id>  (56) 
2026-09-16-3war-s0-n100-0056

>  <rmsd_to_ref>  (56) 
2.9795918367375522

>  <pose_kind>  (56) 
conformer

$$$$
3war.A
     RDKit          3D

 13 13  0  0  0  0  0  0  0  0999 V2000
    0.2278   20.6480   39.0737 N   0  0  0  0  0  0  0  0  0  0  0  0
    1.4470   20.2352   39.6630 C   0  0  0  0  0  0  0  0  0  0  0  0
    2.5710   21.1304   39.5414 C   0  0  0  0  0  0  0  0  0  0  0  0
    2.4536   22.3241   38.8519 C   0  0  0  0  0  0  0  0  0  0  0  0
    1.2400   22.6974   38.3174 C   0  0  0  0  0  0  0  0  0  0  0  0
    0.1624   21.8452   38.4085 C   0  0  0  0  0  0  0  0  0  0  0  0
    3.9348   20.7081   40.0672 C   0  0  0  0  0  0  0  0  0  0  0  0
    4.0006   19.6969   40.8260 O   0  0  0  0  0  0  0  0  0  0  0  0
    4.8587   21.3959   39.6898 O   0  0  0  0  0  0  0  0  0  0  0  0
    1.5332   19.2738   40.1905 H   0  0  0  0  0  0  0  0  0  0  0  0
    3.3310   22.9763   38.7302 H   0  0  0  0  0  0  0  0  0  0  0  0
    1.1323   23.6725   37.8198 H   0  0  0  0  0  0  0  0  0  0  0  0
   -0.7849   22.1352   37.9304 H   0  0  0  0  0  0  0  0  0  0  0  0
  1  2  1  0
  1  6  2  0
  2  3  2  0
  3  4  1  0
  3  7  1  0
  4  5  2  0
  5  6  1  0
  7  8  1  0
  7  9  2  0
  2 10  1  0
  4 11  1  0
  5 12  1  0
  6 13  1  0
M  CHG  1   8  -1
M  END
>  <mol_id>  (57) 
2026-09-16-3war-s0-n100-0057

>  <rmsd_to_ref>  (57) 
3.0255102040818085

>  <pose_kind>  (57) 
rigid

$$$$
3war.A
     RDKit          3D

 13 13  0  0  0  0  0  0  0  0999 V2000
    2.5913   18.8726   37.2640 N   0  0  0  0  0  0  0  0  0  0  0  0
    3.7545   19.5079   37.2041 C   0  0  0  0  0  0  0  0  0  0  0  0
    4.3725   19.8389   38.3978 C   0  0  0  0  0  0  0  0  0  0  0  0
    3.7748   19.5062   39.5931 C   0  0  0  0  0  0  0  0  0  0  0  0
    2.5588   18.8423   39.5985 C   0  0  0  0  0  0  0  0  0  0  0  0
    1.9562   18.5198   38.3965 C   0  0  0  0  0  0  0  0  0  0  0  0
    5.6373   20.5294   38.4056 C   0  0  0  0  0  0  0  0  0  0  0  0
    6.3263   20.9115   37.2836 O   0  0  0  0  0  0  0  0  0  0  0  0
    6.1550   20.8060   39.5313 O   0  0  0  0  0  0  0  0  0  0  0  0
    4.2203   19.7674   36.2489 H   0  0  0  0  0  0  0  0  0  0  0  0
    4.2558   19.7638   40.5340 H   0  0  0  0  0  0  0  0  0  0  0  0
    2.0660   18.5684   40.5072 H   0  0  0  0  0  0  0  0  0  0  0  0
    1.0095   18.0034   38.3241 H   0  0  0  0  0  0  0  0  0  0  0  0
  1  2  1  0
  1  6  2  0
  2  3  2  0
  3  4  1  0
  3  7  1  0
  4  5  2  0
  5  6  1  0
  7  8  1  0
  7  9  2  0
  2 10  1  0
  4 11  1  0
  5 12  1  0
  6 13  1  0
M  CHG  1   8  -1
M  END
>  <mol_id>  (58) 
2026-09-16-3war-s0-n100-0058

>  <rmsd_to_ref>  (58) 
3.0714285714297676

>  <pose_kind>  (58) 
conformer

$$$$
3war.A
     RDKit          3D

 13 13  0  0  0  0  0  0  0  0999 V2000
    3.5573   21.4271   39.5741 N   0  0  0  0  0  0  0  0  0  0  0  0
    2.4389   21.3106   38.7141 C   0  0  0  0  0  0  0  0  0  0  0  0
    1.1476   21.1479   39.3349 C   0  0  0  0  0  0  0  0  0  0  0  0
    1.0275   21.0828   40.7117 C   0  0  0  0  0  0  0  0  0  0  0  0
    2.1405   21.2277   41.5105 C   0  0  0  0  0  0  0  0  0  0  0  0
    3.3828   21.3646   40.9328 C   0  0  0  0  0  0  0  0  0  0  0  0
   -0.0840   20.9209   38.4710 C   0  0  0  0  0  0  0  0  0  0  0  0
    0.0058   21.1354   37.2266 O   0  0  0  0  0  0  0  0  0  0  0  0
   -1.0620   20.5347   39.0740 O   0  0  0  0  0  0  0  0  0  0  0  0
    2.5501   21.3427   37.6202 H   0  0  0  0  0  0  0  0  0  0  0  0
    0.0414   20.9148   41.1693 H   0  0  0  0  0  0  0  0  0  0  0  0
    2.0371   21.2341   42.6056 H   0  0  0  0  0  0  0  0  0  0  0  0
    4.2668   21.4260   41.5844 H   0  0  0  0  0  0  0  0  0  0  0  0
  1  2  1  0
  1  6  2  0
  2  3  2  0
  3  4  1  0
  3  7  1  0
  4  5  2  0
  5  6  1  0
  7  8  1  0
  7  9  2  0
  2 10  1  0
  4 11  1  0
  5 12  1  0
  6 13  1  0
M  CHG  1   8  -1
M  END
>  <mol_id>  (59) 
2026-09-16-3war-s0-n100-0059

>  <rmsd_to_ref>  (59) 
3.117346938778757

>  <pose_kind>  (59) 
rigid

$$$$
3war.A
     RDKit          3D

 13 13  0  0  0  0  0  0  0  0999 V2000
    1.0265   20.0567   37.6983 N   0  0  0  0  0  0  0  0  0  0  0  0
    1.2860   18.7580   37.6186 C   0  0  0  0  0  0  0  0  0  0  0  0
    2.6102   18.3685   37.5140 C   0  0  0  0  0  0  0  0  0  0  0  0
    3.6044   19.3214   37.4959 C   0  0  0  0  0  0  0  0  0  0  0  0
    3.2779   20.6651   37.5821 C   0  0  0  0  0  0  0  0  0  0  0  0
    1.9497   21.0354   37.6860 C   0  0  0  0  0  0  0  0  0  0  0  0
    2.9630   16.9742   37.4236 C   0  0  0  0  0  0  0  0  0  0  0  0
    2.0647   15.9386   37.4316 O   0  0  0  0  0  0  0  0  0  0  0  0
    4.1941   16.6788   37.3297 O   0  0  0  0  0  0  0  0  0  0  0  0
    0.4883   18.0095   37.6339 H   0  0  0  0  0  0  0  0  0  0  0  0
    4.6466   19.0212   37.4139 H   0  0  0  0  0  0  0  0  0  0  0  0
    4.0231   21.4319   37.5711 H   0  0  0  0  0  0  0  0  0  0  0  0
    1.6212   22.0628   37.7570 H   0  0  0  0  0  0  0  0  0  0  0  0
  1  2  1  0
  1  6  2  0
  2  3  2  0
  3  4  1  0
  3  7  1  0
  4  5  2  0
  5  6  1  0
  7  8  1  0
  7  9  2  0
  2 10  1  0
  4 11  1  0
  5 12  1  0
  6 13  1  0
M  CHG  1   8  -1
M  END
>  <mol_id>  (60) 
2026-09-16-3war-s0-n100-0060

>  <rmsd_to_ref>  (60) 
3.1632653061257487

>  <pose_kind>  (60) 
conformer

$$$$
3war.A
     RDKit          3D

 13 13  0  0  0  0  0  0  0  0999 V2000
    1.7166   19.5511   37.0916 N   0  0  0  0  0  0  0  0  0  0  0  0
    2.1806   20.8609   36.8209 C   0  0  0  0  0  0  0  0  0  0  0  0
    3.2110   21.3837   37.6837 C   0  0  0  0  0  0  0  0  0  0  0  0
    3.6946   20.6356   38.7423 C   0  0  0  0  0  0  0  0  0  0  0  0
    3.2325   19.3547   38.9518 C   0  0  0  0  0  0  0  0  0  0  0  0
    2.2354   18.8483   38.1486 C   0  0  0  0  0  0  0  0  0  0  0  0
    3.6877   22.8180   37.5097 C   0  0  0  0  0  0  0  0  0  0  0  0
    3.3597   23.4376   36.4556 O   0  0  0  0  0  0  0  0  0  0  0  0
    4.3488   23.2476   38.4304 O   0  0  0  0  0  0  0  0  0  0  0  0
    1.7729   21.4539   35.9889 H   0  0  0  0  0  0  0  0  0  0  0  0
    4.4494   21.0643   39.4179 H   0  0  0  0  0  0  0  0  0  0  0  0
    3.6586   18.7390   39.7576 H   0  0  0  0  0  0  0  0  0  0  0  0
    1.8409   17.8440   38.3625 H   0  0  0  0  0  0  0  0  0  0  0  0
  1  2  1  0
  1  6  2  0
  2  3  2  0
  3  4  1  0
  3  7  1  0
  4  5  2  0
  5  6  1  0
  7  8  1  0
  7  9  2  0
  2 10  1  0
  4 11  1  0
  5 12  1  0
  6 13  1  0
M  CHG  1   8  -1
M  END
>  <mol_id>  (61) 
2026-09-16-3war-s0-n100-0061

>  <rmsd_to_ref>  (61) 
3.209183673471126

>  <pose_kind>  (61) 
rigid

$$$$
3war.A
     RDKit          3D

 13 13  0  0  0  0  0  0  0  0999 V2000
    4.0042   17.2724   36.9078 N   0  0  0  0  0  0  0  0  0  0  0  0
    3.3697   18.4104   36.6574 C   0  0  0  0  0  0  0  0  0  0  0  0
    3.0452   19.2197   37.7327 C   0  0  0  0  0  0  0  0  0  0  0  0
    3.3831   18.8294   39.0094 C   0  0  0  0  0  0  0  0  0  0  0  0
    4.0458   17.6301   39.2148 C   0  0  0  0  0  0  0  0  0  0  0  0
    4.3618   16.8347   38.1288 C   0  0  0  0  0  0  0  0  0  0  0  0
    2.3561   20.4693   37.5324 C   0  0  0  0  0  0  0  0  0  0  0  0
    1.9692   20.9620   36.3129 O   0  0  0  0  0  0  0  0  0  0  0  0
    2.0855   21.1682   38.5571 O   0  0  0  0  0  0  0  0  0  0  0  0
    3.1061   18.7107   35.6391 H   0  0  0  0  0  0  0  0  0  0  0  0
    3.1307   19.4612   39.8580 H   0  0  0  0  0  0  0  0  0  0  0  0
    4.3236   17.2955   40.1917 H   0  0  0  0  0  0  0  0  0  0  0  0
    4.8770   15.8882   38.2131 H   0  0  0  0  0  0  0  0  0  0  0  0
  1  2  1  0
  1  6  2  0
  2  3  2  0
  3  4  1  0
  3  7  1  0
  4  5  2  0
  5  6  1  0
  7  8  1  0
  7  9  2  0
  2 10  1  0
  4 11  1  0
  5 12  1  0
  6 13  1  0
M  CHG  1   8  -1
M  END
>  <mol_id>  (62) 
2026-09-16-3war-s0-n100-0062

>  <rmsd_to_ref>  (62) 
3.255102040818503

>  <pose_kind>  (62) 
conformer

$$$$
3war.A
     RDKit          3D

 13 13  0  0  0  0  0  0  0  0999 V2000
    2.1450   20.0722   39.4211 N   0  0  0  0  0  0  0  0  0  0  0  0
    1.4942   18.8227   39.2826 C   0  0  0  0  0  0  0  0  0  0  0  0
    1.5927   18.1698   38.0007 C   0  0  0  0  0  0  0  0  0  0  0  0
    2.2739   18.7649   36.9538 C   0  0  0  0  0  0  0  0  0  0  0  0
    2.9150   19.9697   37.1422 C   0  0  0  0  0  0  0  0  0  0  0  0
    2.8144   20.6148   38.3544 C   0  0  0  0  0  0  0  0  0  0  0  0
    0.8384   16.8720   37.7526 C   0  0  0  0  0  0  0  0  0  0  0  0
    0.3515   16.2592   38.7476 O   0  0  0  0  0  0  0  0  0  0  0  0
    0.7648   16.5430   36.5883 O   0  0  0  0  0  0  0  0  0  0  0  0
    0.9376   18.3697   40.1163 H   0  0  0  0  0  0  0  0  0  0  0  0
    2.3037   18.2753   35.9693 H   0  0  0  0  0  0  0  0  0  0  0  0
    3.5050   20.4145   36.3273 H   0  0  0  0  0  0  0  0  0  0  0  0
    3.2879   21.6008   38.4714 H   0  0  0  0  0  0  0  0  0  0  0  0
  1  2  1  0
  1  6  2  0
  2  3  2  0
  3  4  1  0
  3  7  1  0
  4  5  2  0
  5  6  1  0
  7  8  1  0
  7  9  2  0
  2 10  1  0
  4 11  1  0
  5 12  1  0
  6 13  1  0
M  CHG  1   8  -1
M  END
>  <mol_id>  (63) 
2026-09-16-3war-s0-n100-0063

>  <rmsd_to_ref>  (63) 
3.301020408165824

>  <pose_kind>  (63) 
rigid

$$$$
3war.A
     RDKit          3D

 13 13  0  0  0  0  0  0  0  0999 V2000
    0.4611   21.1686   37.2987 N   0  0  0  0  0  0  0  0  0  0  0  0
    1.4086   20.2932   36.9889 C   0  0  0  0  0  0  0  0  0  0  0  0
    1.0834   18.9482   37.0264 C   0  0  0  0  0  0  0  0  0  0  0  0
   -0.1910   18.5618   37.3777 C   0  0  0  0  0  0  0  0  0  0  0  0
   -1.1430   19.5181   37.6921 C   0  0  0  0  0  0  0  0  0  0  0  0
   -0.8000   20.8569   37.6492 C   0  0  0  0  0  0  0  0  0  0  0  0
    2.0644   17.9438   36.7016 C   0  0  0  0  0  0  0  0  0  0  0  0
    3.3604   18.2054   36.3389 O   0  0  0  0  0  0  0  0  0  0  0  0
    1.7068   16.7268   36.7538 O   0  0  0  0  0  0  0  0  0  0  0  0
    2.4178   20.6111   36.7112 H   0  0  0  0  0  0  0  0  0  0  0  0
   -0.4522   17.5065   37.4089 H   0  0  0  0  0  0  0  0  0  0  0  0
   -2.1417   19.2548   37.9691 H   0  0  0  0  0  0  0  0  0  0  0  0
   -1.4893   21.6565   37.8814 H   0  0  0  0  0  0  0  0  0  0  0  0
  1  2  1  0
  1  6  2  0
  2  3  2  0
  3  4  1  0
  3  7  1  0
  4  5  2  0
  5  6  1  0
  7  8  1  0
  7  9  2  0
  2 10  1  0
  4 11  1  0
  5 12  1  0
  6 13  1  0
M  CHG  1   8  -1
M  END
>  <mol_id>  (64) 
2026-09-16-3war-s0-n100-0064

>  <rmsd_to_ref>  (64) 
3.3469387755107096

>  <pose_kind>  (64) 
conformer

$$$$
3war.A
     RDKit          3D

 13 13  0  0  0  0  0  0  0  0999 V2000
    2.3084   20.6393   40.6542 N   0  0  0  0  0  0  0  0  0  0  0  0
    1.3515   21.2860   39.8356 C   0  0  0  0  0  0  0  0  0  0  0  0
    0.1561   20.5466   39.5136 C   0  0  0  0  0  0  0  0  0  0  0  0
   -0.0200   19.2524   39.9699 C   0  0  0  0  0  0  0  0  0  0  0  0
    0.9260   18.6724   40.7864 C   0  0  0  0  0  0  0  0  0  0  0  0
    2.0814   19.3581   41.0873 C   0  0  0  0  0  0  0  0  0  0  0  0
   -0.8693   21.1436   38.5613 C   0  0  0  0  0  0  0  0  0  0  0  0
   -0.7807   22.3736   38.2753 O   0  0  0  0  0  0  0  0  0  0  0  0
   -1.6937   20.3577   38.1465 O   0  0  0  0  0  0  0  0  0  0  0  0
    1.5127   22.3078   39.4615 H   0  0  0  0  0  0  0  0  0  0  0  0
   -0.9170   18.6854   39.6802 H   0  0  0  0  0  0  0  0  0  0  0  0
    0.7589   17.6655   41.1964 H   0  0  0  0  0  0  0  0  0  0  0  0
    2.8500   18.8605   41.6970 H   0  0  0  0  0  0  0  0  0  0  0  0
  1  2  1  0
  1  6  2  0
  2  3  2  0
  3  4  1  0
  3  7  1  0
  4  5  2  0
  5  6  1  0
  7  8  1  0
  7  9  2  0
  2 10  1  0
  4 11  1  0
  5 12  1  0
  6 13  1  0
M  CHG  1   8  -1
M  END
>  <mol_id>  (65) 
2026-09-16-3war-s0-n100-0065

>  <rmsd_to_ref>  (65) 
3.3928571428598473

>  <pose_kind>  (65) 
rigid

$$$$
3war.A
     RDKit          3D

 13 13  0  0  0  0  0  0  0  0999 V2000
    1.6815   19.1982   38.7498 N   0  0  0  0  0  0  0  0  0  0  0  0
    1.6163   20.5190   38.6417 C   0  0  0  0  0  0  0  0  0  0  0  0
    0.8627   21.0464   37.6072 C   0  0  0  0  0  0  0  0  0  0  0  0
    0.2131   20.2023   36.7342 C   0  0  0  0  0  0  0  0  0  0  0  0
    0.3148   18.8297   36.8928 C   0  0  0  0  0  0  0  0  0  0  0  0
    1.0720   18.3208   37.9319 C   0  0  0  0  0  0  0  0  0  0  0  0
    0.7490   22.4722   37.4314 C   0  0  0  0  0  0  0  0  0  0  0  0
    1.3477   23.4090   38.2337 O   0  0  0  0  0  0  0  0  0  0  0  0
    0.0440   22.8962   36.4645 O   0  0  0  0  0  0  0  0  0  0  0  0
    2.1364   21.1803   39.3408 H   0  0  0  0  0  0  0  0  0  0  0  0
   -0.3803   20.6111   35.9196 H   0  0  0  0  0  0  0  0  0  0  0  0
   -0.1757   18.1446   36.2344 H   0  0  0  0  0  0  0  0  0  0  0  0
    1.1962   17.2631   38.1165 H   0  0  0  0  0  0  0  0  0  0  0  0
  1  2  1  0
  1  6  2  0
  2  3  2  0
  3  4  1  0
  3  7  1  0
  4  5  2  0
  5  6  1  0
  7  8  1  0
  7  9  2  0
  2 10  1  0
  4 11  1  0
  5 12  1  0
  6 13  1  0
M  CHG  1   8  -1
M  END
>  <mol_id>  (66) 
2026-09-16-3war-s0-n100-0066

>  <rmsd_to_ref>  (66) 
3.4387755102043025

>  <pose_kind>  (66) 
conformer

$$$$
3war.A
     RDKit          3D

 13 13  0  0  0  0  0  0  0  0999 V2000
    2.4479   20.0080   36.7345 N   0  0  0  0  0  0  0  0  0  0  0  0
    3.1473   21.0930   37.3158 C   0  0  0  0  0  0  0  0  0  0  0  0
    2.5847   21.6720   38.5106 C   0  0  0  0  0  0  0  0  0  0  0  0
    1.3979   21.1944   39.0373 C   0  0  0  0  0  0  0  0  0  0  0  0
    0.7655   20.1188   38.4532 C   0  0  0  0  0  0  0  0  0  0  0  0
    1.2797   19.5671   37.3013 C   0  0  0  0  0  0  0  0  0  0  0  0
    3.2316   22.9004   39.1329 C   0  0  0  0  0  0  0  0  0  0  0  0
    4.3894   23.2333   38.7439 O   0  0  0  0  0  0  0  0  0  0  0  0
    2.5515   23.4668   39.9611 O   0  0  0  0  0  0  0  0  0  0  0  0
    4.0791   21.4774   36.8753 H   0  0  0  0  0  0  0  0  0  0  0  0
    0.9584   21.6743   39.9242 H   0  0  0  0  0  0  0  0  0  0  0  0
   -0.1466   19.7023   38.9054 H   0  0  0  0  0  0  0  0  0  0  0  0
    0.7339   18.7432   36.8183 H   0  0  0  0  0  0  0  0  0  0  0  0
  1  2  1  0
  1  6  2  0
  2  3  2  0
  3  4  1  0
  3  7  1  0
  4  5  2  0
  5  6  1  0
  7  8  1  0
  7  9  2  0
  2 10  1  0
  4 11  1  0
  5 12  1  0
  6 13  1  0
M  CHG  1   8  -1
M  END
>  <mol_id>  (67) 
2026-09-16-3war-s0-n100-0067

>  <rmsd_to_ref>  (67) 
3.4846938775528997

>  <pose_kind>  (67) 
rigid

$$$$
3war.A
     RDKit          3D

 13 13  0  0  0  0  0  0  0  0999 V2000
    0.6197   22.5557   40.5466 N   0  0  0  0  0  0  0  0  0  0  0  0
    1.4537   21.6995   41.1225 C   0  0  0  0  0  0  0  0  0  0  0  0
    1.9134   20.6360   40.3650 C   0  0  0  0  0  0  0  0  0  0  0  0
    1.5006   20.4974   39.0585 C   0  0  0  0  0  0  0  0  0  0  0  0
    0.6279   21.4208   38.5060 C   0  0  0  0  0  0  0  0  0  0  0  0
    0.1792   22.4768   39.2777 C   0  0  0  0  0  0  0  0  0  0  0  0
    2.8213   19.6688   40.9280 C   0  0  0  0  0  0  0  0  0  0  0  0
    3.3006   19.7014   42.2120 O   0  0  0  0  0  0  0  0  0  0  0  0
    3.2080   18.7153   40.1843 O   0  0  0  0  0  0  0  0  0  0  0  0
    1.7752   21.8192   42.1613 H   0  0  0  0  0  0  0  0  0  0  0  0
    1.8585   19.6637   38.4586 H   0  0  0  0  0  0  0  0  0  0  0  0
    0.2865   21.3448   37.4954 H   0  0  0  0  0  0  0  0  0  0  0  0
   -0.5012   23.2338   38.9141 H   0  0  0  0  0  0  0  0  0  0  0  0
  1  2  1  0
  1  6  2  0
  2  3  2  0
  3  4  1  0
  3  7  1  0
  4  5  2  0
  5  6  1  0
  7  8  1  0
  7  9  2  0
  2 10  1  0
  4 11  1  0
  5 12  1  0
  6 13  1  0
M  CHG  1   8  -1
M  END
>  <mol_id>  (68) 
2026-09-16-3war-s0-n100-0068

>  <rmsd_to_ref>  (68) 
3.5306122449000803

>  <pose_kind>  (68) 
conformer

$$$$
3war.A
     RDKit          3D

 13 13  0  0  0  0  0  0  0  0999 V2000
    2.9802   17.5735   41.8910 N   0  0  0  0  0  0  0  0  0  0  0  0
    3.3197   18.9333   42.0902 C   0  0  0  0  0  0  0  0  0  0  0  0
    3.4059   19.7670   40.9168 C   0  0  0  0  0  0  0  0  0  0  0  0
    3.1906   19.2391   39.6562 C   0  0  0  0  0  0  0  0  0  0  0  0
    2.8362   17.9157   39.5122 C   0  0  0  0  0  0  0  0  0  0  0  0
    2.7683   17.1021   40.6209 C   0  0  0  0  0  0  0  0  0  0  0  0
    3.8591   21.2134   41.0481 C   0  0  0  0  0  0  0  0  0  0  0  0
    3.9025   21.7281   42.2039 O   0  0  0  0  0  0  0  0  0  0  0  0
    4.1541   21.7492   40.0016 O   0  0  0  0  0  0  0  0  0  0  0  0
    3.5094   19.3363   43.0960 H   0  0  0  0  0  0  0  0  0  0  0  0
    3.3026   19.8773   38.7673 H   0  0  0  0  0  0  0  0  0  0  0  0
    2.6083   17.5105   38.5152 H   0  0  0  0  0  0  0  0  0  0  0  0
    2.5358   16.0359   40.4829 H   0  0  0  0  0  0  0  0  0  0  0  0
  1  2  1  0
  1  6  2  0
  2  3  2  0
  3  4  1  0
  3  7  1  0
  4  5  2  0
  5  6  1  0
  7  8  1  0
  7  9  2  0
  2 10  1  0
  4 11  1  0
  5 12  1  0
  6 13  1  0
M  CHG  1   8  -1
M  END
>  <mol_id>  (69) 
2026-09-16-3war-s0-n100-0069

>  <rmsd_to_ref>  (69) 
3.57653061224502

>  <pose_kind>  (69) 
rigid

$$$$
3war.A
     RDKit          3D

 13 13  0  0  0  0  0  0  0  0999 V2000
   -0.6565   23.0366   38.1865 N   0  0  0  0  0  0  0  0  0  0  0  0
    0.5777   23.2824   37.7663 C   0  0  0  0  0  0  0  0  0  0  0  0
    1.4501   22.2127   37.6619 C   0  0  0  0  0  0  0  0  0  0  0  0
    1.0219   20.9458   37.9909 C   0  0  0  0  0  0  0  0  0  0  0  0
   -0.2784   20.7448   38.4247 C   0  0  0  0  0  0  0  0  0  0  0  0
   -1.1358   21.8252   38.5228 C   0  0  0  0  0  0  0  0  0  0  0  0
    2.8051   22.4085   37.2120 C   0  0  0  0  0  0  0  0  0  0  0  0
    3.3439   23.6183   36.8576 O   0  0  0  0  0  0  0  0  0  0  0  0
    3.5581   21.3892   37.1368 O   0  0  0  0  0  0  0  0  0  0  0  0
    0.9073   24.2929   37.5075 H   0  0  0  0  0  0  0  0  0  0  0  0
    1.7030   20.1016   37.9108 H   0  0  0  0  0  0  0  0  0  0  0  0
   -0.6451   19.7755   38.6885 H   0  0  0  0  0  0  0  0  0  0  0  0
   -2.1618   21.7438   38.8531 H   0  0  0  0  0  0  0  0  0  0  0  0
  1  2  1  0
  1  6  2  0
  2  3  2  0
  3  4  1  0
  3  7  1  0
  4  5  2  0
  5  6  1  0
  7  8  1  0
  7  9  2  0
  2 10  1  0
  4 11  1  0
  5 12  1  0
  6 13  1  0
M  CHG  1   8  -1
M  END
>  <mol_id>  (70) 
2026-09-16-3war-s0-n100-0070

>  <rmsd_to_ref>  (70) 
3.6224489795925994

>  <pose_kind>  (70) 
conformer

$$$$
3war.A
     RDKit          3D

 13 13  0  0  0  0  0  0  0  0999 V2000
    2.6728   16.8764   38.6510 N   0  0  0  0  0  0  0  0  0  0  0  0
    2.6713   18.2736   38.8791 C   0  0  0  0  0  0  0  0  0  0  0  0
    3.3260   18.7443   40.0746 C   0  0  0  0  0  0  0  0  0  0  0  0
    3.9014   17.8540   40.9636 C   0  0  0  0  0  0  0  0  0  0  0  0
    3.9024   16.5043   40.6873 C   0  0  0  0  0  0  0  0  0  0  0  0
    3.2649   16.0374   39.5597 C   0  0  0  0  0  0  0  0  0  0  0  0
    3.2792   20.2227   40.4307 C   0  0  0  0  0  0  0  0  0  0  0  0
    2.8930   21.0427   39.5469 O   0  0  0  0  0  0  0  0  0  0  0  0
    3.6177   20.4818   41.5654 O   0  0  0  0  0  0  0  0  0  0  0  0
    2.1918   18.9697   38.1752 H   0  0  0  0  0  0  0  0  0  0  0  0
    4.3589   18.2244   41.8928 H   0  0  0  0  0  0  0  0  0  0  0  0
    4.4105   15.8024   41.3649 H   0  0  0  0  0  0  0  0  0  0  0  0
    3.2294   14.9525   39.3815 H   0  0  0  0  0  0  0  0  0  0  0  0
  1  2  1  0
  1  6  2  0
  2  3  2  0
  3  4  1  0
  3  7  1  0
  4  5  2  0
  5  6  1  0
  7  8  1  0
  7  9  2  0
  2 10  1  0
  4 11  1  0
  5 12  1  0
  6 13  1  0
M  CHG  1   8  -1
M  END
>  <mol_id>  (71) 
2026-09-16-3war-s0-n100-0071

>  <rmsd_to_ref>  (71) 
3.668367346940574

>  <pose_kind>  (71) 
rigid

$$$$
3war.A
     RDKit          3D

 13 13  0  0  0  0  0  0  0  0999 V2000
    3.4690   19.2148   42.6186 N   0  0  0  0  0  0  0  0  0  0  0  0
    3.3786   20.5088   42.3400 C   0  0  0  0  0  0  0  0  0  0  0  0
    3.5000   20.8951   41.0163 C   0  0  0  0  0  0  0  0  0  0  0  0
    3.7073   19.9440   40.0421 C   0  0  0  0  0  0  0  0  0  0  0  0
    3.7939   18.6052   40.3881 C   0  0  0  0  0  0  0  0  0  0  0  0
    3.6703   18.2379   41.7154 C   0  0  0  0  0  0  0  0  0  0  0  0
    3.4118   22.2843   40.6433 C   0  0  0  0  0  0  0  0  0  0  0  0
    3.2081   23.3178   41.5208 O   0  0  0  0  0  0  0  0  0  0  0  0
    3.5308   22.5769   39.4138 O   0  0  0  0  0  0  0  0  0  0  0  0
    3.2137   21.2559   43.1219 H   0  0  0  0  0  0  0  0  0  0  0  0
    3.8034   20.2417   39.0004 H   0  0  0  0  0  0  0  0  0  0  0  0
    3.9542   17.8399   39.6587 H   0  0  0  0  0  0  0  0  0  0  0  0
    3.7271   17.2145   42.0584 H   0  0  0  0  0  0  0  0  0  0  0  0
  1  2  1  0
  1  6  2  0
  2  3  2  0
  3  4  1  0
  3  7  1  0
  4  5  2  0
  5  6  1  0
  7  8  1  0
  7  9  2  0
  2 10  1  0
  4 11  1  0
  5 12  1  0
  6 13  1  0
M  CHG  1   8  -1
M  END
>  <mol_id>  (72) 
2026-09-16-3war-s0-n100-0072

>  <rmsd_to_ref>  (72) 
3.714285714287407

>  <pose_kind>  (72) 
conformer

$$$$
3war.A
     RDKit          3D

 13 13  0  0  0  0  0  0  0  0999 V2000
    2.0859   19.9643   38.0469 N   0  0  0  0  0  0  0  0  0  0  0  0
    1.7161   21.3220   38.2020 C   0  0  0  0  0  0  0  0  0  0  0  0
    2.6952   22.2066   38.7835 C   0  0  0  0  0  0  0  0  0  0  0  0
    3.9273   21.7280   39.1922 C   0  0  0  0  0  0  0  0  0  0  0  0
    4.2540   20.4039   38.9971 C   0  0  0  0  0  0  0  0  0  0  0  0
    3.3233   19.5425   38.4608 C   0  0  0  0  0  0  0  0  0  0  0  0
    2.3311   23.6563   39.0671 C   0  0  0  0  0  0  0  0  0  0  0  0
    1.2715   24.1222   38.5544 O   0  0  0  0  0  0  0  0  0  0  0  0
    3.1096   24.2429   39.7876 O   0  0  0  0  0  0  0  0  0  0  0  0
    0.7253   21.6861   37.8925 H   0  0  0  0  0  0  0  0  0  0  0  0
    4.6473   22.4059   39.6738 H   0  0  0  0  0  0  0  0  0  0  0  0
    5.2545   20.0363   39.2687 H   0  0  0  0  0  0  0  0  0  0  0  0
    3.5816   18.4780   38.3607 H   0  0  0  0  0  0  0  0  0  0  0  0
  1  2  1  0
  1  6  2  0
  2  3  2  0
  3  4  1  0
  3  7  1  0
  4  5  2  0
  5  6  1  0
  7  8  1  0
  7  9  2  0
  2 10  1  0
  4 11  1  0
  5 12  1  0
  6 13  1  0
M  CHG  1   8  -1
M  END
>  <mol_id>  (73) 
2026-09-16-3war-s0-n100-0073

>  <rmsd_to_ref>  (73) 
3.76020408163456

>  <pose_kind>  (73) 
rigid

$$$$
3war.A
     RDKit          3D

 13 13  0  0  0  0  0  0  0  0999 V2000
    2.2831   16.6233   36.4693 N   0  0  0  0  0  0  0  0  0  0  0  0
    1.2946   17.4834   36.6777 C   0  0  0  0  0  0  0  0  0  0  0  0
    1.5622   18.6015   37.4488 C   0  0  0  0  0  0  0  0  0  0  0  0
    2.8236   18.7878   37.9692 C   0  0  0  0  0  0  0  0  0  0  0  0
    3.8201   17.8579   37.7206 C   0  0  0  0  0  0  0  0  0  0  0  0
    3.5344   16.7472   36.9482 C   0  0  0  0  0  0  0  0  0  0  0  0
    0.5346   19.5760   37.7147 C   0  0  0  0  0  0  0  0  0  0  0  0
   -0.7539   19.4992   37.2526 O   0  0  0  0  0  0  0  0  0  0  0  0
    0.8401   20.5805   38.4284 O   0  0  0  0  0  0  0  0  0  0  0  0
    0.2962   17.3254   36.2594 H   0  0  0  0  0  0  0  0  0  0  0  0
    3.0396   19.6644   38.5758 H   0  0  0  0  0  0  0  0  0  0  0  0
    4.8103   17.9701   38.1083 H   0  0  0  0  0  0  0  0  0  0  0  0
    4.2606   15.9818   36.7133 H   0  0  0  0  0  0  0  0  0  0  0  0
  1  2  1  0
  1  6  2  0
  2  3  2  0
  3  4  1  0
  3  7  1  0
  4  5  2  0
  5  6  1  0
  7  8  1  0
  7  9  2  0
  2 10  1  0
  4 11  1  0
  5 12  1  0
  6 13  1  0
M  CHG  1   8  -1
M  END
>  <mol_id>  (74) 
2026-09-16-3war-s0-n100-0074

>  <rmsd_to_ref>  (74) 
3.806122448982704

>  <pose_kind>  (74) 
conformer

$$$$
3war.A
     RDKit          3D

 13 13  0  0  0  0  0  0  0  0999 V2000
    2.9476   17.2399   36.9756 N   0  0  0  0  0  0  0  0  0  0  0  0
    2.4640   18.4987   37.4066 C   0  0  0  0  0  0  0  0  0  0  0  0
    1.2435   18.5051   38.1745 C   0  0  0  0  0  0  0  0  0  0  0  0
    0.5720   17.3263   38.4458 C   0  0  0  0  0  0  0  0  0  0  0  0
    1.0940   16.1214   38.0291 C   0  0  0  0  0  0  0  0  0  0  0  0
    2.2483   16.1000   37.2787 C   0  0  0  0  0  0  0  0  0  0  0  0
    0.6165   19.8283   38.5876 C   0  0  0  0  0  0  0  0  0  0  0  0
    1.3074   20.8831   38.4743 O   0  0  0  0  0  0  0  0  0  0  0  0
   -0.5240   19.7453   38.9894 O   0  0  0  0  0  0  0  0  0  0  0  0
    2.9960   19.4310   37.1662 H   0  0  0  0  0  0  0  0  0  0  0  0
   -0.3806   17.3512   38.9954 H   0  0  0  0  0  0  0  0  0  0  0  0
    0.5907   15.1801   38.2949 H   0  0  0  0  0  0  0  0  0  0  0  0
    2.6227   15.1340   36.9092 H   0  0  0  0  0  0  0  0  0  0  0  0
  1  2  1  0
  1  6  2  0
  2  3  2  0
  3  4  1  0
  3  7  1  0
  4  5  2  0
  5  6  1  0
  7  8  1  0
  7  9  2  0
  2 10  1  0
  4 11  1  0
  5 12  1  0
  6 13  1  0
M  CHG  1   8  -1
M  END
>  <mol_id>  (75) 
2026-09-16-3war-s0-n100-0075

>  <rmsd_to_ref>  (75) 
3.852040816327705

>  <pose_kind>  (75) 
rigid

$$$$
3war.A
     RDKit          3D

 13 13  0  0  0  0  0  0  0  0999 V2000
    1.2177   18.3026   36.5917 N   0  0  0  0  0  0  0  0  0  0  0  0
    0.3445   19.2511   36.9050 C   0  0  0  0  0  0  0  0  0  0  0  0
    0.2803   19.6599   38.2259 C   0  0  0  0  0  0  0  0  0  0  0  0
    1.1087   19.0822   39.1621 C   0  0  0  0  0  0  0  0  0  0  0  0
    2.0030   18.0950   38.7809 C   0  0  0  0  0  0  0  0  0  0  0  0
    2.0531   17.6994   37.4569 C   0  0  0  0  0  0  0  0  0  0  0  0
   -0.6454   20.6857   38.6353 C   0  0  0  0  0  0  0  0  0  0  0  0
   -1.5170   21.3318   37.7972 O   0  0  0  0  0  0  0  0  0  0  0  0
   -0.6582   21.0184   39.8604 O   0  0  0  0  0  0  0  0  0  0  0  0
   -0.3090   19.7032   36.1531 H   0  0  0  0  0  0  0  0  0  0  0  0
    1.0627   19.3995   40.2015 H   0  0  0  0  0  0  0  0  0  0  0  0
    2.6610   17.6247   39.4803 H   0  0  0  0  0  0  0  0  0  0  0  0
    2.7243   16.9367   37.0878 H   0  0  0  0  0  0  0  0  0  0  0  0
  1  2  1  0
  1  6  2  0
  2  3  2  0
  3  4  1  0
  3  7  1  0
  4  5  2  0
  5  6  1  0
  7  8  1  0
  7  9  2  0
  2 10  1  0
  4 11  1  0
  5 12  1  0
  6 13  1  0
M  CHG  1   8  -1
M  END
>  <mol_id>  (76) 
2026-09-16-3war-s0-n100-0076

>  <rmsd_to_ref>  (76) 
3.897959183676141

>  <pose_kind>  (76) 
conformer

$$$$
3war.A
     RDKit          3D

 13 13  0  0  0  0  0  0  0  0999 V2000
    0.6255   22.1300   37.4576 N   0  0  0  0  0  0  0  0  0  0  0  0
    1.0487   21.2965   38.5207 C   0  0  0  0  0  0  0  0  0  0  0  0
    2.1338   21.7773   39.3397 C   0  0  0  0  0  0  0  0  0  0  0  0
    2.7421   22.9898   39.0680 C   0  0  0  0  0  0  0  0  0  0  0  0
    2.2793   23.7804   38.0391 C   0  0  0  0  0  0  0  0  0  0  0  0
    1.2568   23.3270   37.2361 C   0  0  0  0  0  0  0  0  0  0  0  0
    2.7021   20.8917   40.4386 C   0  0  0  0  0  0  0  0  0  0  0  0
    2.0486   19.8629   40.7809 O   0  0  0  0  0  0  0  0  0  0  0  0
    3.7647   21.2620   40.8893 O   0  0  0  0  0  0  0  0  0  0  0  0
    0.5708   20.3247   38.7135 H   0  0  0  0  0  0  0  0  0  0  0  0
    3.5970   23.3232   39.6746 H   0  0  0  0  0  0  0  0  0  0  0  0
    2.7248   24.7699   37.8597 H   0  0  0  0  0  0  0  0  0  0  0  0
    0.9348   23.9472   36.3866 H   0  0  0  0  0  0  0  0  0  0  0  0
  1  2  1  0
  1  6  2  0
  2  3  2  0
  3  4  1  0
  3  7  1  0
  4  5  2  0
  5  6  1  0
  7  8  1  0
  7  9  2  0
  2 10  1  0
  4 11  1  0
  5 12  1  0
  6 13  1  0
M  CHG  1   8  -1
M  END
>  <mol_id>  (77) 
2026-09-16-3war-s0-n100-0077

>  <rmsd_to_ref>  (77) 
3.9438775510205026

>  <pose_kind>  (77) 
rigid

$$$$
3war.A
     RDKit          3D

 13 13  0  0  0  0  0  0  0  0999 V2000
    1.6385   19.8473   39.2341 N   0  0  0  0  0  0  0  0  0  0  0  0
    0.3850   19.4143   39.1945 C   0  0  0  0  0  0  0  0  0  0  0  0
    0.0631   18.4517   38.2532 C   0  0  0  0  0  0  0  0  0  0  0  0
    1.0340   17.9780   37.3991 C   0  0  0  0  0  0  0  0  0  0  0  0
    2.3284   18.4648   37.4834 C   0  0  0  0  0  0  0  0  0  0  0  0
    2.6316   19.4262   38.4298 C   0  0  0  0  0  0  0  0  0  0  0  0
   -1.2795   17.9372   38.1554 C   0  0  0  0  0  0  0  0  0  0  0  0
   -2.3269   18.3303   38.9479 O   0  0  0  0  0  0  0  0  0  0  0  0
   -1.5139   17.0557   37.2724 O   0  0  0  0  0  0  0  0  0  0  0  0
   -0.3784   19.7975   39.8779 H   0  0  0  0  0  0  0  0  0  0  0  0
    0.7868   17.2217   36.6576 H   0  0  0  0  0  0  0  0  0  0  0  0
    3.1074   18.1203   36.8369 H   0  0  0  0  0  0  0  0  0  0  0  0
    3.6178   19.8511   38.5530 H   0  0  0  0  0  0  0  0  0  0  0  0
  1  2  1  0
  1  6  2  0
  2  3  2  0
  3  4  1  0
  3  7  1  0
  4  5  2  0
  5  6  1  0
  7  8  1  0
  7  9  2  0
  2 10  1  0
  4 11  1  0
  5 12  1  0
  6 13  1  0
M  CHG  1   8  -1
M  END
>  <mol_id>  (78) 
2026-09-16-3war-s0-n100-0078

>  <rmsd_to_ref>  (78) 
3.989795918369861

>  <pose_kind>  (78) 
conformer

$$$$
3war.A
     RDKit          3D

 13 13  0  0  0  0  0  0  0  0999 V2000
    3.2545   17.1044   37.3132 N   0  0  0  0  0  0  0  0  0  0  0  0
    3.8548   16.7827   38.5542 C   0  0  0  0  0  0  0  0  0  0  0  0
    3.4658   17.5729   39.6960 C   0  0  0  0  0  0  0  0  0  0  0  0
    2.5650   18.6143   39.5621 C   0  0  0  0  0  0  0  0  0  0  0  0
    1.9855   18.8744   38.3396 C   0  0  0  0  0  0  0  0  0  0  0  0
    2.3606   18.1413   37.2361 C   0  0  0  0  0  0  0  0  0  0  0  0
    4.1419   17.3447   41.0397 C   0  0  0  0  0  0  0  0  0  0  0  0
    4.8418   16.3008   41.1919 O   0  0  0  0  0  0  0  0  0  0  0  0
    3.9479   18.2164   41.8593 O   0  0  0  0  0  0  0  0  0  0  0  0
    4.5859   15.9657   38.6437 H   0  0  0  0  0  0  0  0  0  0  0  0
    2.3110   19.2359   40.4334 H   0  0  0  0  0  0  0  0  0  0  0  0
    1.2260   19.6645   38.2455 H   0  0  0  0  0  0  0  0  0  0  0  0
    1.9276   18.3966   36.2576 H   0  0  0  0  0  0  0  0  0  0  0  0
  1  2  1  0
  1  6  2  0
  2  3  2  0
  3  4  1  0
  3  7  1  0
  4  5  2  0
  5  6  1  0
  7  8  1  0
  7  9  2  0
  2 10  1  0
  4 11  1  0
  5 12  1  0
  6 13  1  0
M  CHG  1   8  -1
M  END
>  <mol_id>  (79) 
2026-09-16-3war-s0-n100-0079

>  <rmsd_to_ref>  (79) 
4.035714285714853

>  <pose_kind>  (79) 
rigid

$$$$
3war.A
     RDKit          3D

 13 13  0  0  0  0  0  0  0  0999 V2000
   -0.4421   19.7109   37.5542 N   0  0  0  0  0  0  0  0  0  0  0  0
    0.5163   19.3361   38.3917 C   0  0  0  0  0  0  0  0  0  0  0  0
    0.7998   17.9845   38.4865 C   0  0  0  0  0  0  0  0  0  0  0  0
    0.0929   17.0818   37.7236 C   0  0  0  0  0  0  0  0  0  0  0  0
   -0.8985   17.5273   36.8644 C   0  0  0  0  0  0  0  0  0  0  0  0
   -1.1679   18.8811   36.7828 C   0  0  0  0  0  0  0  0  0  0  0  0
    1.8285   17.5083   39.3763 C   0  0  0  0  0  0  0  0  0  0  0  0
    2.5963   18.3082   40.1827 O   0  0  0  0  0  0  0  0  0  0  0  0
    2.0428   16.2578   39.4199 O   0  0  0  0  0  0  0  0  0  0  0  0
    1.0717   20.0618   38.9931 H   0  0  0  0  0  0  0  0  0  0  0  0
    0.3113   16.0186   37.7940 H   0  0  0  0  0  0  0  0  0  0  0  0
   -1.4672   16.8554   36.2573 H   0  0  0  0  0  0  0  0  0  0  0  0
   -1.9256   19.3001   36.1358 H   0  0  0  0  0  0  0  0  0  0  0  0
  1  2  1  0
  1  6  2  0
  2  3  2  0
  3  4  1  0
  3  7  1  0
  4  5  2  0
  5  6  1  0
  7  8  1  0
  7  9  2  0
  2 10  1  0
  4 11  1  0
  5 12  1  0
  6 13  1  0
M  CHG  1   8  -1
M  END
>  <mol_id>  (80) 
2026-09-16-3war-s0-n100-0080

>  <rmsd_to_ref>  (80) 
4.081632653063207

>  <pose_kind>  (80) 
conformer

$$$$
3war.A
     RDKit          3D

 13 13  0  0  0  0  0  0  0  0999 V2000
    4.6103   19.6773   43.0575 N   0  0  0  0  0  0  0  0  0  0  0  0
    3.3940   20.2948   42.6788 C   0  0  0  0  0  0  0  0  0  0  0  0
    2.6272   19.6524   41.6402 C   0  0  0  0  0  0  0  0  0  0  0  0
    3.0879   18.4986   41.0312 C   0  0  0  0  0  0  0  0  0  0  0  0
    4.2646   17.9179   41.4508 C   0  0  0  0  0  0  0  0  0  0  0  0
    5.0176   18.5292   42.4280 C   0  0  0  0  0  0  0  0  0  0  0  0
    1.3595   20.3118   41.1178 C   0  0  0  0  0  0  0  0  0  0  0  0
    0.8654   21.2729   41.7771 O   0  0  0  0  0  0  0  0  0  0  0  0
    0.9353   19.8456   40.0824 O   0  0  0  0  0  0  0  0  0  0  0  0
    3.0489   21.2239   43.1560 H   0  0  0  0  0  0  0  0  0  0  0  0
    2.5134   18.0441   40.2106 H   0  0  0  0  0  0  0  0  0  0  0  0
    4.6012   16.9695   41.0068 H   0  0  0  0  0  0  0  0  0  0  0  0
    5.9804   18.0806   42.7140 H   0  0  0  0  0  0  0  0  0  0  0  0
  1  2  1  0
  1  6  2  0
  2  3  2  0
  3  4  1  0
  3  7  1  0
  4  5  2  0
  5  6  1  0
  7  8  1  0
  7  9  2  0
  2 10  1  0
  4 11  1  0
  5 12  1  0
  6 13  1  0
M  CHG  1   8  -1
M  END
>  <mol_id>  (81) 
2026-09-16-3war-s0-n100-0081

>  <rmsd_to_ref>  (81) 
4.127551020408788

>  <pose_kind>  (81) 
rigid

$$$$
3war.A
     RDKit          3D

 13 13  0  0  0  0  0  0  0  0999 V2000
    3.1663   18.5288   36.5940 N   0  0  0  0  0  0  0  0  0  0  0  0
    2.5307   19.6273   36.9807 C   0  0  0  0  0  0  0  0  0  0  0  0
    2.9248   20.8320   36.4240 C   0  0  0  0  0  0  0  0  0  0  0  0
    3.9466   20.8576   35.5010 C   0  0  0  0  0  0  0  0  0  0  0  0
    4.5769   19.6802   35.1323 C   0  0  0  0  0  0  0  0  0  0  0  0
    4.1699   18.4863   35.6989 C   0  0  0  0  0  0  0  0  0  0  0  0
    2.2773   22.0635   36.7990 C   0  0  0  0  0  0  0  0  0  0  0  0
    1.2521   22.1637   37.7038 O   0  0  0  0  0  0  0  0  0  0  0  0
    2.6825   23.1363   36.2544 O   0  0  0  0  0  0  0  0  0  0  0  0
    1.7203   19.5955   37.7147 H   0  0  0  0  0  0  0  0  0  0  0  0
    4.2604   21.8011   35.0603 H   0  0  0  0  0  0  0  0  0  0  0  0
    5.3735   19.6623   34.4192 H   0  0  0  0  0  0  0  0  0  0  0  0
    4.6148   17.5307   35.4595 H   0  0  0  0  0  0  0  0  0  0  0  0
  1  2  1  0
  1  6  2  0
  2  3  2  0
  3  4  1  0
  3  7  1  0
  4  5  2  0
  5  6  1  0
  7  8  1  0
  7  9  2  0
  2 10  1  0
  4 11  1  0
  5 12  1  0
  6 13  1  0
M  CHG  1   8  -1
M  END
>  <mol_id>  (82) 
2026-09-16-3war-s0-n100-0082

>  <rmsd_to_ref>  (82) 
4.173469387755337

>  <pose_kind>  (82) 
conformer

$$$$
3war.A
     RDKit          3D

 13 13  0  0  0  0  0  0  0  0999 V2000
    3.1563   17.6564   40.5090 N   0  0  0  0  0  0  0  0  0  0  0  0
    2.8068   18.9025   41.0828 C   0  0  0  0  0  0  0  0  0  0  0  0
    3.8284   19.9197   41.1155 C   0  0  0  0  0  0  0  0  0  0  0  0
    5.0977   19.6637   40.6284 C   0  0  0  0  0  0  0  0  0  0  0  0
    5.3852   18.4449   40.0542 C   0  0  0  0  0  0  0  0  0  0  0  0
    4.4265   17.4569   40.0326 C   0  0  0  0  0  0  0  0  0  0  0  0
    3.5514   21.2483   41.8032 C   0  0  0  0  0  0  0  0  0  0  0  0
    2.3550   21.5323   42.1042 O   0  0  0  0  0  0  0  0  0  0  0  0
    4.5347   21.9253   42.0127 O   0  0  0  0  0  0  0  0  0  0  0  0
    1.8001   19.0867   41.4861 H   0  0  0  0  0  0  0  0  0  0  0  0
    5.8789   20.4349   40.6996 H   0  0  0  0  0  0  0  0  0  0  0  0
    6.3768   18.2617   39.6147 H   0  0  0  0  0  0  0  0  0  0  0  0
    4.6889   16.4722   39.6183 H   0  0  0  0  0  0  0  0  0  0  0  0
  1  2  1  0
  1  6  2  0
  2  3  2  0
  3  4  1  0
  3  7  1  0
  4  5  2  0
  5  6  1  0
  7  8  1  0
  7  9  2  0
  2 10  1  0
  4 11  1  0
  5 12  1  0
  6 13  1  0
M  CHG  1   8  -1
M  END
>  <mol_id>  (83) 
2026-09-16-3war-s0-n100-0083

>  <rmsd_to_ref>  (83) 
4.21938775510281

>  <pose_kind>  (83) 
rigid

$$$$
3war.A
     RDKit          3D

 13 13  0  0  0  0  0  0  0  0999 V2000
    2.9367   21.0864   38.7561 N   0  0  0  0  0  0  0  0  0  0  0  0
    1.8248   21.6867   39.1605 C   0  0  0  0  0  0  0  0  0  0  0  0
    1.0487   22.3210   38.2058 C   0  0  0  0  0  0  0  0  0  0  0  0
    1.4440   22.3124   36.8866 C   0  0  0  0  0  0  0  0  0  0  0  0
    2.6150   21.6701   36.5183 C   0  0  0  0  0  0  0  0  0  0  0  0
    3.3775   21.0418   37.4857 C   0  0  0  0  0  0  0  0  0  0  0  0
   -0.1714   22.9926   38.5759 C   0  0  0  0  0  0  0  0  0  0  0  0
   -0.6657   23.0684   39.8524 O   0  0  0  0  0  0  0  0  0  0  0  0
   -0.8405   23.5564   37.6560 O   0  0  0  0  0  0  0  0  0  0  0  0
    1.5203   21.6874   40.2112 H   0  0  0  0  0  0  0  0  0  0  0  0
    0.8382   22.8092   36.1321 H   0  0  0  0  0  0  0  0  0  0  0  0
    2.9525   21.6432   35.5040 H   0  0  0  0  0  0  0  0  0  0  0  0
    4.3009   20.5220   37.2722 H   0  0  0  0  0  0  0  0  0  0  0  0
  1  2  1  0
  1  6  2  0
  2  3  2  0
  3  4  1  0
  3  7  1  0
  4  5  2  0
  5  6  1  0
  7  8  1  0
  7  9  2  0
  2 10  1  0
  4 11  1  0
  5 12  1  0
  6 13  1  0
M  CHG  1   8  -1
M  END
>  <mol_id>  (84) 
2026-09-16-3war-s0-n100-0084

>  <rmsd_to_ref>  (84) 
4.2653061224507

>  <pose_kind>  (84) 
conformer

$$$$
3war.A
     RDKit          3D

 13 13  0  0  0  0  0  0  0  0999 V2000
   -1.0303   19.7638   35.9910 N   0  0  0  0  0  0  0  0  0  0  0  0
   -0.4722   20.7701   36.8157 C   0  0  0  0  0  0  0  0  0  0  0  0
    0.9593   20.9380   36.7688 C   0  0  0  0  0  0  0  0  0  0  0  0
    1.7414   20.1245   35.9685 C   0  0  0  0  0  0  0  0  0  0  0  0
    1.1522   19.1756   35.1619 C   0  0  0  0  0  0  0  0  0  0  0  0
   -0.2112   18.9901   35.2094 C   0  0  0  0  0  0  0  0  0  0  0  0
    1.6349   21.9345   37.6990 C   0  0  0  0  0  0  0  0  0  0  0  0
    0.9111   22.7757   38.3081 O   0  0  0  0  0  0  0  0  0  0  0  0
    2.8389   21.8182   37.7782 O   0  0  0  0  0  0  0  0  0  0  0  0
   -1.1028   21.3964   37.4638 H   0  0  0  0  0  0  0  0  0  0  0  0
    2.8358   20.2355   35.9761 H   0  0  0  0  0  0  0  0  0  0  0  0
    1.7687   18.5686   34.4827 H   0  0  0  0  0  0  0  0  0  0  0  0
   -0.6596   18.1927   34.5985 H   0  0  0  0  0  0  0  0  0  0  0  0
  1  2  1  0
  1  6  2  0
  2  3  2  0
  3  4  1  0
  3  7  1  0
  4  5  2  0
  5  6  1  0
  7  8  1  0
  7  9  2  0
  2 10  1  0
  4 11  1  0
  5 12  1  0
  6 13  1  0
M  CHG  1   8  -1
M  END
>  <mol_id>  (85) 
2026-09-16-3war-s0-n100-0085

>  <rmsd_to_ref>  (85) 
4.311224489796712

>  <pose_kind>  (85) 
rigid

$$$$
3war.A
     RDKit          3D

 13 13  0  0  0  0  0  0  0  0999 V2000
    2.5488   16.0890   36.2933 N   0  0  0  0  0  0  0  0  0  0  0  0
    2.1694   17.0536   37.1215 C   0  0  0  0  0  0  0  0  0  0  0  0
    2.2307   18.3589   36.6648 C   0  0  0  0  0  0  0  0  0  0  0  0
    2.6753   18.6167   35.3871 C   0  0  0  0  0  0  0  0  0  0  0  0
    3.0597   17.5714   34.5631 C   0  0  0  0  0  0  0  0  0  0  0  0
    2.9918   16.2739   35.0364 C   0  0  0  0  0  0  0  0  0  0  0  0
    1.8338   19.4550   37.5119 C   0  0  0  0  0  0  0  0  0  0  0  0
    1.3760   19.3234   38.7976 O   0  0  0  0  0  0  0  0  0  0  0  0
    1.9120   20.6299   37.0373 O   0  0  0  0  0  0  0  0  0  0  0  0
    1.8178   16.8374   38.1346 H   0  0  0  0  0  0  0  0  0  0  0  0
    2.7255   19.6404   35.0230 H   0  0  0  0  0  0  0  0  0  0  0  0
    3.4099   17.7342   33.5659 H   0  0  0  0  0  0  0  0  0  0  0  0
    3.2747   15.4104   34.4510 H   0  0  0  0  0  0  0  0  0  0  0  0
  1  2  1  0
  1  6  2  0
  2  3  2  0
  3  4  1  0
  3  7  1  0
  4  5  2  0
  5  6  1  0
  7  8  1  0
  7  9  2  0
  2 10  1  0
  4 11  1  0
  5 12  1  0
  6 13  1  0
M  CHG  1   8  -1
M  END
>  <mol_id>  (86) 
2026-09-16-3war-s0-n100-0086

>  <rmsd_to_ref>  (86) 
4.357142857144494

>  <pose_kind>  (86) 
conformer

$$$$
3war.A
     RDKit          3D

 13 13  0  0  0  0  0  0  0  0999 V2000
    2.3115   21.3194   40.8030 N   0  0  0  0  0  0  0  0  0  0  0  0
    1.3284   20.6834   41.5986 C   0  0  0  0  0  0  0  0  0  0  0  0
    0.8857   19.3778   41.1758 C   0  0  0  0  0  0  0  0  0  0  0  0
    1.3895   18.7979   40.0251 C   0  0  0  0  0  0  0  0  0  0  0  0
    2.3649   19.4422   39.2962 C   0  0  0  0  0  0  0  0  0  0  0  0
    2.7844   20.6974   39.6761 C   0  0  0  0  0  0  0  0  0  0  0  0
   -0.2362   18.6787   41.9291 C   0  0  0  0  0  0  0  0  0  0  0  0
   -0.5802   19.1371   43.0579 O   0  0  0  0  0  0  0  0  0  0  0  0
   -0.7155   17.7252   41.3543 O   0  0  0  0  0  0  0  0  0  0  0  0
    0.9202   21.1641   42.4999 H   0  0  0  0  0  0  0  0  0  0  0  0
    1.0104   17.8207   39.6916 H   0  0  0  0  0  0  0  0  0  0  0  0
    2.8070   18.9558   38.4142 H   0  0  0  0  0  0  0  0  0  0  0  0
    3.5254   21.2200   39.0533 H   0  0  0  0  0  0  0  0  0  0  0  0
  1  2  1  0
  1  6  2  0
  2  3  2  0
  3  4  1  0
  3  7  1  0
  4  5  2  0
  5  6  1  0
  7  8  1  0
  7  9  2  0
  2 10  1  0
  4 11  1  0
  5 12  1  0
  6 13  1  0
M  CHG  1   8  -1
M  END
>  <mol_id>  (87) 
2026-09-16-3war-s0-n100-0087

>  <rmsd_to_ref>  (87) 
4.4030612244918625

>  <pose_kind>  (87) 
rigid

$$$$
3war.A
     RDKit          3D

 13 13  0  0  0  0  0  0  0  0999 V2000
    4.2751   17.2291   36.2247 N   0  0  0  0  0  0  0  0  0  0  0  0
    3.2197   17.1661   37.0262 C   0  0  0  0  0  0  0  0  0  0  0  0
    3.3743   17.5942   38.3335 C   0  0  0  0  0  0  0  0  0  0  0  0
    4.5963   18.0652   38.7594 C   0  0  0  0  0  0  0  0  0  0  0  0
    5.6663   18.1096   37.8804 C   0  0  0  0  0  0  0  0  0  0  0  0
    5.4933   17.6778   36.5783 C   0  0  0  0  0  0  0  0  0  0  0  0
    2.2692   17.5531   39.2576 C   0  0  0  0  0  0  0  0  0  0  0  0
    1.0098   17.1065   38.9507 O   0  0  0  0  0  0  0  0  0  0  0  0
    2.4721   17.9591   40.4432 O   0  0  0  0  0  0  0  0  0  0  0  0
    2.2535   16.7901   36.6774 H   0  0  0  0  0  0  0  0  0  0  0  0
    4.7236   18.4029   39.7854 H   0  0  0  0  0  0  0  0  0  0  0  0
    6.6291   18.4690   38.1763 H   0  0  0  0  0  0  0  0  0  0  0  0
    6.2816   17.6834   35.8388 H   0  0  0  0  0  0  0  0  0  0  0  0
  1  2  1  0
  1  6  2  0
  2  3  2  0
  3  4  1  0
  3  7  1  0
  4  5  2  0
  5  6  1  0
  7  8  1  0
  7  9  2  0
  2 10  1  0
  4 11  1  0
  5 12  1  0
  6 13  1  0
M  CHG  1   8  -1
M  END
>  <mol_id>  (88) 
2026-09-16-3war-s0-n100-0088

>  <rmsd_to_ref>  (88) 
4.448979591838045

>  <pose_kind>  (88) 
conformer

$$$$
3war.A
     RDKit          3D

 13 13  0  0  0  0  0  0  0  0999 V2000
    2.5407   22.2807   37.6215 N   0  0  0  0  0  0  0  0  0  0  0  0
    3.2832   22.8384   38.6901 C   0  0  0  0  0  0  0  0  0  0  0  0
    4.4152   22.0833   39.1673 C   0  0  0  0  0  0  0  0  0  0  0  0
    4.7318   20.8560   38.6127 C   0  0  0  0  0  0  0  0  0  0  0  0
    3.9969   20.3645   37.5561 C   0  0  0  0  0  0  0  0  0  0  0  0
    2.9018   21.0643   37.1016 C   0  0  0  0  0  0  0  0  0  0  0  0
    5.1991   22.5766   40.3743 C   0  0  0  0  0  0  0  0  0  0  0  0
    5.0054   23.7620   40.7744 O   0  0  0  0  0  0  0  0  0  0  0  0
    5.9511   21.7588   40.8591 O   0  0  0  0  0  0  0  0  0  0  0  0
    3.0086   23.8054   39.1368 H   0  0  0  0  0  0  0  0  0  0  0  0
    5.5718   20.2715   39.0162 H   0  0  0  0  0  0  0  0  0  0  0  0
    4.2840   19.4166   37.0775 H   0  0  0  0  0  0  0  0  0  0  0  0
    2.2948   20.6323   36.2923 H   0  0  0  0  0  0  0  0  0  0  0  0
  1  2  1  0
  1  6  2  0
  2  3  2  0
  3  4  1  0
  3  7  1  0
  4  5  2  0
  5  6  1  0
  7  8  1  0
  7  9  2  0
  2 10  1  0
  4 11  1  0
  5 12  1  0
  6 13  1  0
M  CHG  1   8  -1
M  END
>  <mol_id>  (89) 
2026-09-16-3war-s0-n100-0089

>  <rmsd_to_ref>  (89) 
4.4948979591838265

>  <pose_kind>  (89) 
rigid

$$$$
3war.A
     RDKit          3D

 13 13  0  0  0  0  0  0  0  0999 V2000
    5.8435   19.9069   38.1714 N   0  0  0  0  0  0  0  0  0  0  0  0
    5.5949   19.5585   39.4272 C   0  0  0  0  0  0  0  0  0  0  0  0
    4.8971   20.4533   40.2202 C   0  0  0  0  0  0  0  0  0  0  0  0
    4.4873   21.6584   39.6945 C   0  0  0  0  0  0  0  0  0  0  0  0
    4.7736   21.9723   38.3758 C   0  0  0  0  0  0  0  0  0  0  0  0
    5.4716   21.0663   37.5987 C   0  0  0  0  0  0  0  0  0  0  0  0
    4.5930   20.1388   41.5933 C   0  0  0  0  0  0  0  0  0  0  0  0
    4.9473   18.9750   42.2255 O   0  0  0  0  0  0  0  0  0  0  0  0
    3.9505   20.9991   42.2705 O   0  0  0  0  0  0  0  0  0  0  0  0
    5.9251   18.5985   39.8346 H   0  0  0  0  0  0  0  0  0  0  0  0
    3.9387   22.3653   40.3129 H   0  0  0  0  0  0  0  0  0  0  0  0
    4.4713   22.8982   37.9344 H   0  0  0  0  0  0  0  0  0  0  0  0
    5.7299   21.2430   36.5641 H   0  0  0  0  0  0  0  0  0  0  0  0
  1  2  1  0
  1  6  2  0
  2  3  2  0
  3  4  1  0
  3  7  1  0
  4  5  2  0
  5  6  1  0
  7  8  1  0
  7  9  2  0
  2 10  1  0
  4 11  1  0
  5 12  1  0
  6 13  1  0
M  CHG  1   8  -1
M  END
>  <mol_id>  (90) 
2026-09-16-3war-s0-n100-0090

>  <rmsd_to_ref>  (90) 
4.5408163265313

>  <pose_kind>  (90) 
conformer

$$$$
3war.A
     RDKit          3D

 13 13  0  0  0  0  0  0  0  0999 V2000
    4.7043   18.7218   35.7610 N   0  0  0  0  0  0  0  0  0  0  0  0
    3.9552   19.1568   36.8808 C   0  0  0  0  0  0  0  0  0  0  0  0
    4.6877   19.7622   37.9654 C   0  0  0  0  0  0  0  0  0  0  0  0
    6.0650   19.8802   37.9103 C   0  0  0  0  0  0  0  0  0  0  0  0
    6.7500   19.4672   36.7886 C   0  0  0  0  0  0  0  0  0  0  0  0
    6.0675   18.8699   35.7528 C   0  0  0  0  0  0  0  0  0  0  0  0
    3.9588   20.1648   39.2387 C   0  0  0  0  0  0  0  0  0  0  0  0
    2.6934   20.1989   39.2228 O   0  0  0  0  0  0  0  0  0  0  0  0
    4.6814   20.4129   40.1797 O   0  0  0  0  0  0  0  0  0  0  0  0
    2.8624   19.0381   36.9217 H   0  0  0  0  0  0  0  0  0  0  0  0
    6.6142   20.3045   38.7637 H   0  0  0  0  0  0  0  0  0  0  0  0
    7.8381   19.6142   36.7208 H   0  0  0  0  0  0  0  0  0  0  0  0
    6.6361   18.4981   34.8876 H   0  0  0  0  0  0  0  0  0  0  0  0
  1  2  1  0
  1  6  2  0
  2  3  2  0
  3  4  1  0
  3  7  1  0
  4  5  2  0
  5  6  1  0
  7  8  1  0
  7  9  2  0
  2 10  1  0
  4 11  1  0
  5 12  1  0
  6 13  1  0
M  CHG  1   8  -1
M  END
>  <mol_id>  (91) 
2026-09-16-3war-s0-n100-0091

>  <rmsd_to_ref>  (91) 
4.5867346938792055

>  <pose_kind>  (91) 
rigid

$$$$
3war.A
     RDKit          3D

 13 13  0  0  0  0  0  0  0  0999 V2000
    1.4535   21.4972   38.2948 N   0  0  0  0  0  0  0  0  0  0  0  0
    0.2371   21.6891   38.7887 C   0  0  0  0  0  0  0  0  0  0  0  0
   -0.7217   20.7222   38.5395 C   0  0  0  0  0  0  0  0  0  0  0  0
   -0.3937   19.6079   37.7996 C   0  0  0  0  0  0  0  0  0  0  0  0
    0.8924   19.4572   37.3071 C   0  0  0  0  0  0  0  0  0  0  0  0
    1.8371   20.4332   37.5660 C   0  0  0  0  0  0  0  0  0  0  0  0
   -2.0630   20.8672   39.0460 C   0  0  0  0  0  0  0  0  0  0  0  0
   -2.5063   21.9286   39.7921 O   0  0  0  0  0  0  0  0  0  0  0  0
   -2.8982   19.9476   38.7847 O   0  0  0  0  0  0  0  0  0  0  0  0
   -0.0125   22.5781   39.3752 H   0  0  0  0  0  0  0  0  0  0  0  0
   -1.1430   18.8450   37.6006 H   0  0  0  0  0  0  0  0  0  0  0  0
    1.1825   18.6055   36.7292 H   0  0  0  0  0  0  0  0  0  0  0  0
    2.8580   20.3827   37.2147 H   0  0  0  0  0  0  0  0  0  0  0  0
  1  2  1  0
  1  6  2  0
  2  3  2  0
  3  4  1  0
  3  7  1  0
  4  5  2  0
  5  6  1  0
  7  8  1  0
  7  9  2  0
  2 10  1  0
  4 11  1  0
  5 12  1  0
  6 13  1  0
M  CHG  1   8  -1
M  END
>  <mol_id>  (92) 
2026-09-16-3war-s0-n100-0092

>  <rmsd_to_ref>  (92) 
4.6326530612245085

>  <pose_kind>  (92) 
conformer

$$$$
3war.A
     RDKit          3D

 13 13  0  0  0  0  0  0  0  0999 V2000
    3.6926   19.6584   39.2222 N   0  0  0  0  0  0  0  0  0  0  0  0
    3.0932   20.1314   40.4143 C   0  0  0  0  0  0  0  0  0  0  0  0
    3.2402   19.3132   41.5925 C   0  0  0  0  0  0  0  0  0  0  0  0
    3.9168   18.1077   41.5369 C   0  0  0  0  0  0  0  0  0  0  0  0
    4.5073   17.6998   40.3610 C   0  0  0  0  0  0  0  0  0  0  0  0
    4.3598   18.4604   39.2228 C   0  0  0  0  0  0  0  0  0  0  0  0
    2.5413   19.7130   42.8833 C   0  0  0  0  0  0  0  0  0  0  0  0
    2.0604   20.8808   42.9707 O   0  0  0  0  0  0  0  0  0  0  0  0
    2.5016   18.8448   43.7283 O   0  0  0  0  0  0  0  0  0  0  0  0
    2.5395   21.0816   40.4406 H   0  0  0  0  0  0  0  0  0  0  0  0
    3.9834   17.4737   42.4334 H   0  0  0  0  0  0  0  0  0  0  0  0
    5.0944   16.7700   40.3314 H   0  0  0  0  0  0  0  0  0  0  0  0
    4.7926   18.0940   38.2803 H   0  0  0  0  0  0  0  0  0  0  0  0
  1  2  1  0
  1  6  2  0
  2  3  2  0
  3  4  1  0
  3  7  1  0
  4  5  2  0
  5  6  1  0
  7  8  1  0
  7  9  2  0
  2 10  1  0
  4 11  1  0
  5 12  1  0
  6 13  1  0
M  CHG  1   8  -1
M  END
>  <mol_id>  (93) 
2026-09-16-3war-s0-n100-0093

>  <rmsd_to_ref>  (93) 
4.678571428573114

>  <pose_kind>  (93) 
rigid

$$$$
3war.A
     RDKit          3D

 13 13  0  0  0  0  0  0  0  0999 V2000
    3.7780   17.5873   39.0653 N   0  0  0  0  0  0  0  0  0  0  0  0
    3.2212   17.5644   40.2693 C   0  0  0  0  0  0  0  0  0  0  0  0
    3.7751   18.3654   41.2531 C   0  0  0  0  0  0  0  0  0  0  0  0
    4.8687   19.1500   40.9615 C   0  0  0  0  0  0  0  0  0  0  0  0
    5.4112   19.1361   39.6868 C   0  0  0  0  0  0  0  0  0  0  0  0
    4.8447   18.3297   38.7168 C   0  0  0  0  0  0  0  0  0  0  0  0
    3.2202   18.3889   42.5828 C   0  0  0  0  0  0  0  0  0  0  0  0
    2.1369   17.6543   42.9909 O   0  0  0  0  0  0  0  0  0  0  0  0
    3.7714   19.1433   43.4423 O   0  0  0  0  0  0  0  0  0  0  0  0
    2.3525   16.9373   40.4901 H   0  0  0  0  0  0  0  0  0  0  0  0
    5.3081   19.7813   41.7305 H   0  0  0  0  0  0  0  0  0  0  0  0
    6.2597   19.7319   39.4247 H   0  0  0  0  0  0  0  0  0  0  0  0
    5.2139   18.2680   37.7028 H   0  0  0  0  0  0  0  0  0  0  0  0
  1  2  1  0
  1  6  2  0
  2  3  2  0
  3  4  1  0
  3  7  1  0
  4  5  2  0
  5  6  1  0
  7  8  1  0
  7  9  2  0
  2 10  1  0
  4 11  1  0
  5 12  1  0
  6 13  1  0
M  CHG  1   8  -1
M  END
>  <mol_id>  (94) 
2026-09-16-3war-s0-n100-0094

>  <rmsd_to_ref>  (94) 
4.724489795918522

>  <pose_kind>  (94) 
conformer

$$$$
3war.A
     RDKit          3D

 13 13  0  0  0  0  0  0  0  0999 V2000
    6.2172   20.9009   39.4180 N   0  0  0  0  0  0  0  0  0  0  0  0
    5.3985   20.7854   40.5671 C   0  0  0  0  0  0  0  0  0  0  0  0
    4.6023   19.5893   40.6883 C   0  0  0  0  0  0  0  0  0  0  0  0
    4.6278   18.6193   39.7022 C   0  0  0  0  0  0  0  0  0  0  0  0
    5.4602   18.7616   38.6137 C   0  0  0  0  0  0  0  0  0  0  0  0
    6.2122   19.9064   38.4739 C   0  0  0  0  0  0  0  0  0  0  0  0
    3.6289   19.4428   41.8483 C   0  0  0  0  0  0  0  0  0  0  0  0
    3.7225   20.2507   42.8185 O   0  0  0  0  0  0  0  0  0  0  0  0
    2.8248   18.5442   41.7249 O   0  0  0  0  0  0  0  0  0  0  0  0
    5.3710   21.5736   41.3340 H   0  0  0  0  0  0  0  0  0  0  0  0
    3.9822   17.7327   39.7874 H   0  0  0  0  0  0  0  0  0  0  0  0
    5.5237   17.9637   37.8591 H   0  0  0  0  0  0  0  0  0  0  0  0
    6.8312   20.0276   37.5727 H   0  0  0  0  0  0  0  0  0  0  0  0
  1  2  1  0
  1  6  2  0
  2  3  2  0
  3  4  1  0
  3  7  1  0
  4  5  2  0
  5  6  1  0
  7  8  1  0
  7  9  2  0
  2 10  1  0
  4 11  1  0
  5 12  1  0
  6 13  1  0
M  CHG  1   8  -1
M  END
>  <mol_id>  (95) 
2026-09-16-3war-s0-n100-0095

>  <rmsd_to_ref>  (95) 
4.770408163266444

>  <pose_kind>  (95) 
rigid

$$$$
