6fnk.A
     RDKit          3D

 27 29  0  0  0  0  0  0  0  0999 V2000
    2.9034   16.1161   40.7342 C   0  0  0  0  0  0  0  0  0  0  0  0
    3.3991   14.8730   40.3406 C   0  0  0  0  0  0  0  0  0  0  0  0
    3.2111   13.7637   41.1521 C   0  0  0  0  0  0  0  0  0  0  0  0
    2.5220   13.8922   42.3612 N   0  0  0  0  0  0  0  0  0  0  0  0
    2.0259   15.1442   42.7552 C   0  0  0  0  0  0  0  0  0  0  0  0
    2.2158   16.2597   41.9417 C   0  0  0  0  0  0  0  0  0  0  0  0
    1.7222   17.5068   42.3382 C   0  0  0  0  0  0  0  0  0  0  0  0
    2.0408   18.6212   41.6654 N   0  0  0  0  0  0  0  0  0  0  0  0
    0.9145   17.5957   43.3997 N   0  0  0  0  0  0  0  0  0  0  0  0
    0.4272   18.7780   43.8163 C   0  0  0  0  0  0  0  0  0  0  0  0
   -0.3708   19.1111   44.8422 N   0  0  0  0  0  0  0  0  0  0  0  0
   -0.9468   18.1844   45.8212 C   0  0  0  0  0  0  0  0  0  0  0  0
   -0.5738   20.3259   44.8557 N   0  0  0  0  0  0  0  0  0  0  0  0
    0.0681   20.8526   43.7999 C   0  0  0  0  0  0  0  0  0  0  0  0
    0.7283   19.8866   43.1473 C   0  0  0  0  0  0  0  0  0  0  0  0
    1.5428   19.8079   42.0593 C   0  0  0  0  0  0  0  0  0  0  0  0
    1.8732   20.9182   41.3561 N   0  0  0  0  0  0  0  0  0  0  0  0
    3.0555   16.9924   40.0870 H   0  0  0  0  0  0  0  0  0  0  0  0
    3.9387   14.7724   39.3873 H   0  0  0  0  0  0  0  0  0  0  0  0
    3.6041   12.7836   40.8441 H   0  0  0  0  0  0  0  0  0  0  0  0
    1.4860   15.2454   43.7082 H   0  0  0  0  0  0  0  0  0  0  0  0
   -0.7252   18.5408   46.8380 H   0  0  0  0  0  0  0  0  0  0  0  0
   -2.0365   18.1326   45.6801 H   0  0  0  0  0  0  0  0  0  0  0  0
   -0.5109   17.1844   45.6801 H   0  0  0  0  0  0  0  0  0  0  0  0
    0.0539   21.9149   43.5146 H   0  0  0  0  0  0  0  0  0  0  0  0
    1.5034   21.8366   41.6400 H   0  0  0  0  0  0  0  0  0  0  0  0
    2.4942   20.8437   40.5377 H   0  0  0  0  0  0  0  0  0  0  0  0
  1  2  2  0
  1  6  1  0
  2  3  1  0
  3  4  2  0
  4  5  1  0
  5  6  2  0
  6  7  1  0
  7  8  2  0
  7  9  1  0
  8 16  1  0
  9 10  2  0
 10 11  1  0
 10 15  1  0
 11 12  1  0
 11 13  1  0
 13 14  2  0
 14 15  1  0
 15 16  2  0
 16 17  1  0
  1 18  1  0
  2 19  1  0
  3 20  1  0
  5 21  1  0
 12 22  1  0
 12 23  1  0
 12 24  1  0
 14 25  1  0
 17 26  1  0
 17 27  1  0
M  END
>  <mol_id>  (1) 
2026-09-18-6fnk-s0-n100-r6-0001

>  <rmsd_to_ref>  (1) 
0.0

>  <pose_kind>  (1) 
native

$$$$
6fnk.A
     RDKit          3D

 27 29  0  0  0  0  0  0  0  0999 V2000
    3.5239   16.5298   41.0148 C   0  0  0  0  0  0  0  0  0  0  0  0
    4.0851   15.3457   40.5510 C   0  0  0  0  0  0  0  0  0  0  0  0
    3.6228   14.1379   41.0391 C   0  0  0  0  0  0  0  0  0  0  0  0
    2.6302   14.1115   41.9623 N   0  0  0  0  0  0  0  0  0  0  0  0
    2.0732   15.2476   42.4246 C   0  0  0  0  0  0  0  0  0  0  0  0
    2.5152   16.4756   41.9545 C   0  0  0  0  0  0  0  0  0  0  0  0
    1.9245   17.7246   42.4425 C   0  0  0  0  0  0  0  0  0  0  0  0
    2.3418   18.9242   41.9968 N   0  0  0  0  0  0  0  0  0  0  0  0
    0.9322   17.6545   43.3676 N   0  0  0  0  0  0  0  0  0  0  0  0
    0.3504   18.7823   43.8532 C   0  0  0  0  0  0  0  0  0  0  0  0
   -0.6301   18.9805   44.7544 N   0  0  0  0  0  0  0  0  0  0  0  0
   -1.3740   17.9778   45.4939 C   0  0  0  0  0  0  0  0  0  0  0  0
   -0.8447   20.2785   44.8907 N   0  0  0  0  0  0  0  0  0  0  0  0
    0.0002   20.9631   44.0727 C   0  0  0  0  0  0  0  0  0  0  0  0
    0.7668   20.0220   43.4064 C   0  0  0  0  0  0  0  0  0  0  0  0
    1.7803   20.0730   42.4625 C   0  0  0  0  0  0  0  0  0  0  0  0
    2.2209   21.3423   41.9917 N   0  0  0  0  0  0  0  0  0  0  0  0
    3.9034   17.4694   40.6168 H   0  0  0  0  0  0  0  0  0  0  0  0
    4.8836   15.3904   39.8071 H   0  0  0  0  0  0  0  0  0  0  0  0
    4.0226   13.2063   40.7129 H   0  0  0  0  0  0  0  0  0  0  0  0
    1.2791   15.1963   43.1647 H   0  0  0  0  0  0  0  0  0  0  0  0
   -2.4706   18.1730   45.3343 H   0  0  0  0  0  0  0  0  0  0  0  0
   -1.1892   18.0616   46.5876 H   0  0  0  0  0  0  0  0  0  0  0  0
   -1.0939   16.9518   45.1999 H   0  0  0  0  0  0  0  0  0  0  0  0
    0.0771   22.0374   43.9492 H   0  0  0  0  0  0  0  0  0  0  0  0
    1.9122   21.6698   41.0466 H   0  0  0  0  0  0  0  0  0  0  0  0
    2.8440   21.9765   42.5421 H   0  0  0  0  0  0  0  0  0  0  0  0
  1  2  2  0
  1  6  1  0
  2  3  1  0
  3  4  2  0
  4  5  1  0
  5  6  2  0
  6  7  1  0
  7  8  2  0
  7  9  1  0
  8 16  1  0
  9 10  2  0
 10 11  1  0
 10 15  1  0
 11 12  1  0
 11 13  1  0
 13 14  2  0
 14 15  1  0
 15 16  2  0
 16 17  1  0
  1 18  1  0
  2 19  1  0
  3 20  1  0
  5 21  1  0
 12 22  1  0
 12 23  1  0
 12 24  1  0
 14 25  1  0
 17 26  1  0
 17 27  1  0
M  END
>  <mol_id>  (2) 
2026-09-18-6fnk-s0-n100-r6-0002

>  <rmsd_to_ref>  (2) 
0.500000000003063

>  <pose_kind>  (2) 
conformer

$$$$
6fnk.A
     RDKit          3D

 27 29  0  0  0  0  0  0  0  0999 V2000
    2.9421   16.4194   40.3583 C   0  0  0  0  0  0  0  0  0  0  0  0
    3.4926   15.2872   39.7576 C   0  0  0  0  0  0  0  0  0  0  0  0
    3.3963   14.0538   40.3852 C   0  0  0  0  0  0  0  0  0  0  0  0
    2.7446   13.9465   41.6169 N   0  0  0  0  0  0  0  0  0  0  0  0
    2.1932   15.0874   42.2195 C   0  0  0  0  0  0  0  0  0  0  0  0
    2.2909   16.3273   41.5908 C   0  0  0  0  0  0  0  0  0  0  0  0
    1.7424   17.4631   42.1951 C   0  0  0  0  0  0  0  0  0  0  0  0
    1.9736   18.6875   41.7017 N   0  0  0  0  0  0  0  0  0  0  0  0
    0.9693   17.3329   43.2778 N   0  0  0  0  0  0  0  0  0  0  0  0
    0.4314   18.4021   43.8913 C   0  0  0  0  0  0  0  0  0  0  0  0
   -0.3471   18.5188   44.9779 N   0  0  0  0  0  0  0  0  0  0  0  0
   -0.8348   17.4150   45.8103 C   0  0  0  0  0  0  0  0  0  0  0  0
   -0.6175   19.7013   45.1915 N   0  0  0  0  0  0  0  0  0  0  0  0
   -0.0442   20.4271   44.2174 C   0  0  0  0  0  0  0  0  0  0  0  0
    0.6456   19.6191   43.4012 C   0  0  0  0  0  0  0  0  0  0  0  0
    1.4240   19.7640   42.2937 C   0  0  0  0  0  0  0  0  0  0  0  0
    1.6661   20.9899   41.7694 N   0  0  0  0  0  0  0  0  0  0  0  0
    3.0215   17.3949   39.8564 H   0  0  0  0  0  0  0  0  0  0  0  0
    4.0027   15.3723   38.7867 H   0  0  0  0  0  0  0  0  0  0  0  0
    3.8326   13.1608   39.9138 H   0  0  0  0  0  0  0  0  0  0  0  0
    1.6827   15.0029   43.1902 H   0  0  0  0  0  0  0  0  0  0  0  0
   -0.5975   17.6185   46.8650 H   0  0  0  0  0  0  0  0  0  0  0  0
   -1.9242   17.3196   45.6913 H   0  0  0  0  0  0  0  0  0  0  0  0
   -0.3486   16.4786   45.4992 H   0  0  0  0  0  0  0  0  0  0  0  0
   -0.1283   21.5183   44.1067 H   0  0  0  0  0  0  0  0  0  0  0  0
    1.2556   21.8273   42.2065 H   0  0  0  0  0  0  0  0  0  0  0  0
    2.2608   21.0842   40.9337 H   0  0  0  0  0  0  0  0  0  0  0  0
  1  2  2  0
  1  6  1  0
  2  3  1  0
  3  4  2  0
  4  5  1  0
  5  6  2  0
  6  7  1  0
  7  8  2  0
  7  9  1  0
  8 16  1  0
  9 10  2  0
 10 11  1  0
 10 15  1  0
 11 12  1  0
 11 13  1  0
 13 14  2  0
 14 15  1  0
 15 16  2  0
 16 17  1  0
  1 18  1  0
  2 19  1  0
  3 20  1  0
  5 21  1  0
 12 22  1  0
 12 23  1  0
 12 24  1  0
 14 25  1  0
 17 26  1  0
 17 27  1  0
M  END
>  <mol_id>  (3) 
2026-09-18-6fnk-s0-n100-r6-0003

>  <rmsd_to_ref>  (3) 
0.5459183673522725

>  <pose_kind>  (3) 
rigid

$$$$
6fnk.A
     RDKit          3D

 27 29  0  0  0  0  0  0  0  0999 V2000
    3.5471   16.6588   40.8568 C   0  0  0  0  0  0  0  0  0  0  0  0
    4.2636   15.5362   40.4744 C   0  0  0  0  0  0  0  0  0  0  0  0
    4.0549   14.3463   41.1645 C   0  0  0  0  0  0  0  0  0  0  0  0
    3.1827   14.2607   42.1842 N   0  0  0  0  0  0  0  0  0  0  0  0
    2.4880   15.3505   42.5544 C   0  0  0  0  0  0  0  0  0  0  0  0
    2.6533   16.5724   41.9012 C   0  0  0  0  0  0  0  0  0  0  0  0
    1.8914   17.7459   42.3154 C   0  0  0  0  0  0  0  0  0  0  0  0
    2.0090   18.9484   41.7237 N   0  0  0  0  0  0  0  0  0  0  0  0
    1.0269   17.6350   43.3358 N   0  0  0  0  0  0  0  0  0  0  0  0
    0.2840   18.6585   43.7859 C   0  0  0  0  0  0  0  0  0  0  0  0
   -0.6281   18.7944   44.7660 N   0  0  0  0  0  0  0  0  0  0  0  0
   -1.0781   17.7509   45.6733 C   0  0  0  0  0  0  0  0  0  0  0  0
   -1.0556   20.0290   44.7786 N   0  0  0  0  0  0  0  0  0  0  0  0
   -0.4477   20.7559   43.8135 C   0  0  0  0  0  0  0  0  0  0  0  0
    0.4120   19.8857   43.1728 C   0  0  0  0  0  0  0  0  0  0  0  0
    1.2952   20.0250   42.1205 C   0  0  0  0  0  0  0  0  0  0  0  0
    1.4520   21.2762   41.4657 N   0  0  0  0  0  0  0  0  0  0  0  0
    3.7090   17.5862   40.3198 H   0  0  0  0  0  0  0  0  0  0  0  0
    4.9754   15.6019   39.6439 H   0  0  0  0  0  0  0  0  0  0  0  0
    4.6019   13.4447   40.8896 H   0  0  0  0  0  0  0  0  0  0  0  0
    1.7819   15.2592   43.3881 H   0  0  0  0  0  0  0  0  0  0  0  0
   -0.4994   16.8135   45.5376 H   0  0  0  0  0  0  0  0  0  0  0  0
   -2.1371   17.4973   45.5489 H   0  0  0  0  0  0  0  0  0  0  0  0
   -0.9162   18.0317   46.7444 H   0  0  0  0  0  0  0  0  0  0  0  0
   -0.5984   21.8052   43.5838 H   0  0  0  0  0  0  0  0  0  0  0  0
    1.8733   22.0816   42.0086 H   0  0  0  0  0  0  0  0  0  0  0  0
    1.1557   21.4026   40.4595 H   0  0  0  0  0  0  0  0  0  0  0  0
  1  2  2  0
  1  6  1  0
  2  3  1  0
  3  4  2  0
  4  5  1  0
  5  6  2  0
  6  7  1  0
  7  8  2  0
  7  9  1  0
  8 16  1  0
  9 10  2  0
 10 11  1  0
 10 15  1  0
 11 12  1  0
 11 13  1  0
 13 14  2  0
 14 15  1  0
 15 16  2  0
 16 17  1  0
  1 18  1  0
  2 19  1  0
  3 20  1  0
  5 21  1  0
 12 22  1  0
 12 23  1  0
 12 24  1  0
 14 25  1  0
 17 26  1  0
 17 27  1  0
M  END
>  <mol_id>  (4) 
2026-09-18-6fnk-s0-n100-r6-0004

>  <rmsd_to_ref>  (4) 
0.5918367346990085

>  <pose_kind>  (4) 
conformer

$$$$
6fnk.A
     RDKit          3D

 27 29  0  0  0  0  0  0  0  0999 V2000
    3.0310   16.4423   40.3204 C   0  0  0  0  0  0  0  0  0  0  0  0
    3.4332   15.2574   39.7038 C   0  0  0  0  0  0  0  0  0  0  0  0
    2.9764   14.0379   40.1820 C   0  0  0  0  0  0  0  0  0  0  0  0
    2.1108   13.9982   41.2785 N   0  0  0  0  0  0  0  0  0  0  0  0
    1.7091   15.1916   41.8976 C   0  0  0  0  0  0  0  0  0  0  0  0
    2.1689   16.4172   41.4194 C   0  0  0  0  0  0  0  0  0  0  0  0
    1.7686   17.6049   42.0400 C   0  0  0  0  0  0  0  0  0  0  0  0
    2.3300   18.7775   41.7141 N   0  0  0  0  0  0  0  0  0  0  0  0
    0.8075   17.5791   42.9688 N   0  0  0  0  0  0  0  0  0  0  0  0
    0.4022   18.6990   43.5936 C   0  0  0  0  0  0  0  0  0  0  0  0
   -0.5138   18.9144   44.5500 N   0  0  0  0  0  0  0  0  0  0  0  0
   -1.3567   17.8941   45.1805 C   0  0  0  0  0  0  0  0  0  0  0  0
   -0.5681   20.1114   44.8353 N   0  0  0  0  0  0  0  0  0  0  0  0
    0.3041   20.7540   44.0414 C   0  0  0  0  0  0  0  0  0  0  0  0
    0.9451   19.8679   43.2675 C   0  0  0  0  0  0  0  0  0  0  0  0
    1.9186   19.9084   42.3168 C   0  0  0  0  0  0  0  0  0  0  0  0
    2.4962   21.0820   41.9623 N   0  0  0  0  0  0  0  0  0  0  0  0
    3.3964   17.4065   39.9373 H   0  0  0  0  0  0  0  0  0  0  0  0
    4.1122   15.2901   38.8390 H   0  0  0  0  0  0  0  0  0  0  0  0
    3.2953   13.1028   39.6984 H   0  0  0  0  0  0  0  0  0  0  0  0
    1.0299   15.1597   42.7623 H   0  0  0  0  0  0  0  0  0  0  0  0
   -1.2715   17.9729   46.2744 H   0  0  0  0  0  0  0  0  0  0  0  0
   -2.4042   18.0484   44.8823 H   0  0  0  0  0  0  0  0  0  0  0  0
   -1.0269   16.8955   44.8579 H   0  0  0  0  0  0  0  0  0  0  0  0
    0.4673   21.8418   44.0285 H   0  0  0  0  0  0  0  0  0  0  0  0
    2.1966   21.9595   42.4108 H   0  0  0  0  0  0  0  0  0  0  0  0
    3.2347   21.0964   41.2445 H   0  0  0  0  0  0  0  0  0  0  0  0
  1  2  2  0
  1  6  1  0
  2  3  1  0
  3  4  2  0
  4  5  1  0
  5  6  2  0
  6  7  1  0
  7  8  2  0
  7  9  1  0
  8 16  1  0
  9 10  2  0
 10 11  1  0
 10 15  1  0
 11 12  1  0
 11 13  1  0
 13 14  2  0
 14 15  1  0
 15 16  2  0
 16 17  1  0
  1 18  1  0
  2 19  1  0
  3 20  1  0
  5 21  1  0
 12 22  1  0
 12 23  1  0
 12 24  1  0
 14 25  1  0
 17 26  1  0
 17 27  1  0
M  END
>  <mol_id>  (5) 
2026-09-18-6fnk-s0-n100-r6-0005

>  <rmsd_to_ref>  (5) 
0.637755102041588

>  <pose_kind>  (5) 
rigid

$$$$
6fnk.A
     RDKit          3D

 27 29  0  0  0  0  0  0  0  0999 V2000
    3.6745   16.7289   41.0209 C   0  0  0  0  0  0  0  0  0  0  0  0
    4.4340   15.6436   40.6333 C   0  0  0  0  0  0  0  0  0  0  0  0
    4.2584   14.4168   41.2739 C   0  0  0  0  0  0  0  0  0  0  0  0
    3.3614   14.2580   42.2687 N   0  0  0  0  0  0  0  0  0  0  0  0
    2.6103   15.3015   42.6632 C   0  0  0  0  0  0  0  0  0  0  0  0
    2.7563   16.5462   42.0468 C   0  0  0  0  0  0  0  0  0  0  0  0
    1.9463   17.6998   42.4616 C   0  0  0  0  0  0  0  0  0  0  0  0
    2.0868   18.9008   41.8673 N   0  0  0  0  0  0  0  0  0  0  0  0
    1.0459   17.5404   43.4602 N   0  0  0  0  0  0  0  0  0  0  0  0
    0.2845   18.5716   43.8699 C   0  0  0  0  0  0  0  0  0  0  0  0
   -0.6806   18.7297   44.8175 N   0  0  0  0  0  0  0  0  0  0  0  0
   -1.1668   17.6836   45.7146 C   0  0  0  0  0  0  0  0  0  0  0  0
   -1.1043   20.0037   44.7845 N   0  0  0  0  0  0  0  0  0  0  0  0
   -0.4471   20.6805   43.8468 C   0  0  0  0  0  0  0  0  0  0  0  0
    0.4253   19.8038   43.2636 C   0  0  0  0  0  0  0  0  0  0  0  0
    1.3418   19.9720   42.2450 C   0  0  0  0  0  0  0  0  0  0  0  0
    1.5455   21.1889   41.5790 N   0  0  0  0  0  0  0  0  0  0  0  0
    3.7995   17.7017   40.5278 H   0  0  0  0  0  0  0  0  0  0  0  0
    5.1571   15.7740   39.8304 H   0  0  0  0  0  0  0  0  0  0  0  0
    4.8829   13.5859   40.9322 H   0  0  0  0  0  0  0  0  0  0  0  0
    1.9014   15.1587   43.4558 H   0  0  0  0  0  0  0  0  0  0  0  0
   -1.7793   18.1766   46.5034 H   0  0  0  0  0  0  0  0  0  0  0  0
   -1.8916   17.0135   45.1706 H   0  0  0  0  0  0  0  0  0  0  0  0
   -0.3653   17.1056   46.1910 H   0  0  0  0  0  0  0  0  0  0  0  0
   -0.5445   21.7180   43.5615 H   0  0  0  0  0  0  0  0  0  0  0  0
    0.8988   21.6079   40.8709 H   0  0  0  0  0  0  0  0  0  0  0  0
    2.4136   21.7282   41.8032 H   0  0  0  0  0  0  0  0  0  0  0  0
  1  2  2  0
  1  6  1  0
  2  3  1  0
  3  4  2  0
  4  5  1  0
  5  6  2  0
  6  7  1  0
  7  8  2  0
  7  9  1  0
  8 16  1  0
  9 10  2  0
 10 11  1  0
 10 15  1  0
 11 12  1  0
 11 13  1  0
 13 14  2  0
 14 15  1  0
 15 16  2  0
 16 17  1  0
  1 18  1  0
  2 19  1  0
  3 20  1  0
  5 21  1  0
 12 22  1  0
 12 23  1  0
 12 24  1  0
 14 25  1  0
 17 26  1  0
 17 27  1  0
M  END
>  <mol_id>  (6) 
2026-09-18-6fnk-s0-n100-r6-0006

>  <rmsd_to_ref>  (6) 
0.683673469394863

>  <pose_kind>  (6) 
conformer

$$$$
6fnk.A
     RDKit          3D

 27 29  0  0  0  0  0  0  0  0999 V2000
    3.0621   16.6636   40.4094 C   0  0  0  0  0  0  0  0  0  0  0  0
    3.7769   15.5990   39.8603 C   0  0  0  0  0  0  0  0  0  0  0  0
    3.7809   14.3660   40.4960 C   0  0  0  0  0  0  0  0  0  0  0  0
    3.0657   14.1909   41.6839 N   0  0  0  0  0  0  0  0  0  0  0  0
    2.3489   15.2641   42.2347 C   0  0  0  0  0  0  0  0  0  0  0  0
    2.3457   16.5037   41.5980 C   0  0  0  0  0  0  0  0  0  0  0  0
    1.6322   17.5722   42.1506 C   0  0  0  0  0  0  0  0  0  0  0  0
    1.7542   18.8124   41.6578 N   0  0  0  0  0  0  0  0  0  0  0  0
    0.8091   17.3597   43.1824 N   0  0  0  0  0  0  0  0  0  0  0  0
    0.1132   18.3632   43.7458 C   0  0  0  0  0  0  0  0  0  0  0  0
   -0.7437   18.3953   44.7778 N   0  0  0  0  0  0  0  0  0  0  0  0
   -1.1561   17.2472   45.5907 C   0  0  0  0  0  0  0  0  0  0  0  0
   -1.1610   19.5401   44.9582 N   0  0  0  0  0  0  0  0  0  0  0  0
   -0.6112   20.3218   44.0144 C   0  0  0  0  0  0  0  0  0  0  0  0
    0.2189   19.5942   43.2552 C   0  0  0  0  0  0  0  0  0  0  0  0
    1.0472   19.8217   42.1990 C   0  0  0  0  0  0  0  0  0  0  0  0
    1.1818   21.0646   41.6760 N   0  0  0  0  0  0  0  0  0  0  0  0
    3.0627   17.6392   39.9013 H   0  0  0  0  0  0  0  0  0  0  0  0
    4.3371   15.7371   38.9237 H   0  0  0  0  0  0  0  0  0  0  0  0
    4.3466   13.5266   40.0654 H   0  0  0  0  0  0  0  0  0  0  0  0
    1.7882   15.1266   43.1711 H   0  0  0  0  0  0  0  0  0  0  0  0
   -1.0140   17.4821   46.6559 H   0  0  0  0  0  0  0  0  0  0  0  0
   -2.2172   17.0268   45.4022 H   0  0  0  0  0  0  0  0  0  0  0  0
   -0.5466   16.3712   45.3239 H   0  0  0  0  0  0  0  0  0  0  0  0
   -0.8119   21.3956   43.8846 H   0  0  0  0  0  0  0  0  0  0  0  0
    0.6503   21.8515   42.0747 H   0  0  0  0  0  0  0  0  0  0  0  0
    1.8158   21.2223   40.8796 H   0  0  0  0  0  0  0  0  0  0  0  0
  1  2  2  0
  1  6  1  0
  2  3  1  0
  3  4  2  0
  4  5  1  0
  5  6  2  0
  6  7  1  0
  7  8  2  0
  7  9  1  0
  8 16  1  0
  9 10  2  0
 10 11  1  0
 10 15  1  0
 11 12  1  0
 11 13  1  0
 13 14  2  0
 14 15  1  0
 15 16  2  0
 16 17  1  0
  1 18  1  0
  2 19  1  0
  3 20  1  0
  5 21  1  0
 12 22  1  0
 12 23  1  0
 12 24  1  0
 14 25  1  0
 17 26  1  0
 17 27  1  0
M  END
>  <mol_id>  (7) 
2026-09-18-6fnk-s0-n100-r6-0007

>  <rmsd_to_ref>  (7) 
0.7295918367395342

>  <pose_kind>  (7) 
rigid

$$$$
6fnk.A
     RDKit          3D

 27 29  0  0  0  0  0  0  0  0999 V2000
    2.8910   16.0488   40.4656 C   0  0  0  0  0  0  0  0  0  0  0  0
    3.0205   14.7763   39.9224 C   0  0  0  0  0  0  0  0  0  0  0  0
    2.4020   13.6888   40.5145 C   0  0  0  0  0  0  0  0  0  0  0  0
    1.6540   13.8125   41.6323 N   0  0  0  0  0  0  0  0  0  0  0  0
    1.5158   15.0348   42.1740 C   0  0  0  0  0  0  0  0  0  0  0  0
    2.1174   16.1611   41.6174 C   0  0  0  0  0  0  0  0  0  0  0  0
    1.9402   17.4795   42.2423 C   0  0  0  0  0  0  0  0  0  0  0  0
    2.4949   18.5942   41.7504 N   0  0  0  0  0  0  0  0  0  0  0  0
    1.1964   17.5795   43.3475 N   0  0  0  0  0  0  0  0  0  0  0  0
    0.9732   18.7379   43.9943 C   0  0  0  0  0  0  0  0  0  0  0  0
    0.2706   19.0461   45.0981 N   0  0  0  0  0  0  0  0  0  0  0  0
   -0.4555   18.0410   45.8688 C   0  0  0  0  0  0  0  0  0  0  0  0
    0.3695   20.3479   45.3185 N   0  0  0  0  0  0  0  0  0  0  0  0
    1.1470   20.9123   44.3503 C   0  0  0  0  0  0  0  0  0  0  0  0
    1.5314   19.8840   43.5061 C   0  0  0  0  0  0  0  0  0  0  0  0
    2.3076   19.8017   42.3591 C   0  0  0  0  0  0  0  0  0  0  0  0
    2.8798   20.9858   41.8611 N   0  0  0  0  0  0  0  0  0  0  0  0
    3.3744   16.9005   40.0034 H   0  0  0  0  0  0  0  0  0  0  0  0
    3.6101   14.6049   39.0206 H   0  0  0  0  0  0  0  0  0  0  0  0
    2.5032   12.7117   40.0948 H   0  0  0  0  0  0  0  0  0  0  0  0
    0.9247   15.1736   43.0688 H   0  0  0  0  0  0  0  0  0  0  0  0
    0.3206   17.3260   46.2560 H   0  0  0  0  0  0  0  0  0  0  0  0
   -1.0136   18.5315   46.6972 H   0  0  0  0  0  0  0  0  0  0  0  0
   -1.1119   17.4346   45.2157 H   0  0  0  0  0  0  0  0  0  0  0  0
    1.4162   21.9543   44.2514 H   0  0  0  0  0  0  0  0  0  0  0  0
    2.2324   21.7295   41.5202 H   0  0  0  0  0  0  0  0  0  0  0  0
    3.8923   21.1826   41.8041 H   0  0  0  0  0  0  0  0  0  0  0  0
  1  2  2  0
  1  6  1  0
  2  3  1  0
  3  4  2  0
  4  5  1  0
  5  6  2  0
  6  7  1  0
  7  8  2  0
  7  9  1  0
  8 16  1  0
  9 10  2  0
 10 11  1  0
 10 15  1  0
 11 12  1  0
 11 13  1  0
 13 14  2  0
 14 15  1  0
 15 16  2  0
 16 17  1  0
  1 18  1  0
  2 19  1  0
  3 20  1  0
  5 21  1  0
 12 22  1  0
 12 23  1  0
 12 24  1  0
 14 25  1  0
 17 26  1  0
 17 27  1  0
M  END
>  <mol_id>  (8) 
2026-09-18-6fnk-s0-n100-r6-0008

>  <rmsd_to_ref>  (8) 
0.7755102040864108

>  <pose_kind>  (8) 
conformer

$$$$
6fnk.A
     RDKit          3D

 27 29  0  0  0  0  0  0  0  0999 V2000
    2.2653   16.2695   39.9647 C   0  0  0  0  0  0  0  0  0  0  0  0
    2.5617   15.0526   39.3504 C   0  0  0  0  0  0  0  0  0  0  0  0
    2.5982   13.8876   40.1027 C   0  0  0  0  0  0  0  0  0  0  0  0
    2.3343   13.9340   41.4744 N   0  0  0  0  0  0  0  0  0  0  0  0
    2.0380   15.1598   42.0898 C   0  0  0  0  0  0  0  0  0  0  0  0
    2.0029   16.3310   41.3354 C   0  0  0  0  0  0  0  0  0  0  0  0
    1.7096   17.5517   41.9520 C   0  0  0  0  0  0  0  0  0  0  0  0
    1.8410   18.7091   41.2894 N   0  0  0  0  0  0  0  0  0  0  0  0
    1.2849   17.5716   43.2194 N   0  0  0  0  0  0  0  0  0  0  0  0
    1.0015   18.7260   43.8486 C   0  0  0  0  0  0  0  0  0  0  0  0
    0.5842   18.9920   45.0957 N   0  0  0  0  0  0  0  0  0  0  0  0
    0.3134   18.0023   46.1427 C   0  0  0  0  0  0  0  0  0  0  0  0
    0.4433   20.2052   45.2553 N   0  0  0  0  0  0  0  0  0  0  0  0
    0.7366   20.8011   44.0878 C   0  0  0  0  0  0  0  0  0  0  0  0
    1.1173   19.8777   43.1948 C   0  0  0  0  0  0  0  0  0  0  0  0
    1.5404   19.8698   41.9009 C   0  0  0  0  0  0  0  0  0  0  0  0
    1.6732   21.0253   41.2055 N   0  0  0  0  0  0  0  0  0  0  0  0
    2.2379   17.1902   39.3634 H   0  0  0  0  0  0  0  0  0  0  0  0
    2.7662   15.0168   38.2702 H   0  0  0  0  0  0  0  0  0  0  0  0
    2.8347   12.9280   39.6199 H   0  0  0  0  0  0  0  0  0  0  0  0
    1.8331   15.1962   43.1699 H   0  0  0  0  0  0  0  0  0  0  0  0
    0.8601   18.2767   47.0569 H   0  0  0  0  0  0  0  0  0  0  0  0
   -0.7658   17.9781   46.3541 H   0  0  0  0  0  0  0  0  0  0  0  0
    0.6428   17.0094   45.8026 H   0  0  0  0  0  0  0  0  0  0  0  0
    0.6738   21.8821   43.8943 H   0  0  0  0  0  0  0  0  0  0  0  0
    1.4486   21.9250   41.6540 H   0  0  0  0  0  0  0  0  0  0  0  0
    1.9987   21.0040   40.2285 H   0  0  0  0  0  0  0  0  0  0  0  0
  1  2  2  0
  1  6  1  0
  2  3  1  0
  3  4  2  0
  4  5  1  0
  5  6  2  0
  6  7  1  0
  7  8  2  0
  7  9  1  0
  8 16  1  0
  9 10  2  0
 10 11  1  0
 10 15  1  0
 11 12  1  0
 11 13  1  0
 13 14  2  0
 14 15  1  0
 15 16  2  0
 16 17  1  0
  1 18  1  0
  2 19  1  0
  3 20  1  0
  5 21  1  0
 12 22  1  0
 12 23  1  0
 12 24  1  0
 14 25  1  0
 17 26  1  0
 17 27  1  0
M  END
>  <mol_id>  (9) 
2026-09-18-6fnk-s0-n100-r6-0009

>  <rmsd_to_ref>  (9) 
0.8214285714321666

>  <pose_kind>  (9) 
rigid

$$$$
6fnk.A
     RDKit          3D

 27 29  0  0  0  0  0  0  0  0999 V2000
    2.9497   16.5347   40.4539 C   0  0  0  0  0  0  0  0  0  0  0  0
    3.4828   15.4628   39.7313 C   0  0  0  0  0  0  0  0  0  0  0  0
    3.1173   14.1754   40.0739 C   0  0  0  0  0  0  0  0  0  0  0  0
    2.2514   13.9414   41.0986 N   0  0  0  0  0  0  0  0  0  0  0  0
    1.7228   14.9694   41.8126 C   0  0  0  0  0  0  0  0  0  0  0  0
    2.0625   16.2776   41.5025 C   0  0  0  0  0  0  0  0  0  0  0  0
    1.5171   17.4074   42.2443 C   0  0  0  0  0  0  0  0  0  0  0  0
    1.8501   18.6658   41.9385 N   0  0  0  0  0  0  0  0  0  0  0  0
    0.6548   17.1402   43.2621 N   0  0  0  0  0  0  0  0  0  0  0  0
    0.1144   18.1491   43.9889 C   0  0  0  0  0  0  0  0  0  0  0  0
   -0.7486   18.1957   45.0311 N   0  0  0  0  0  0  0  0  0  0  0  0
   -1.3423   17.0100   45.6562 C   0  0  0  0  0  0  0  0  0  0  0  0
   -0.9525   19.4562   45.3718 N   0  0  0  0  0  0  0  0  0  0  0  0
   -0.2217   20.2654   44.5533 C   0  0  0  0  0  0  0  0  0  0  0  0
    0.4630   19.4563   43.6680 C   0  0  0  0  0  0  0  0  0  0  0  0
    1.3514   19.7124   42.6179 C   0  0  0  0  0  0  0  0  0  0  0  0
    1.6966   21.0632   42.3045 N   0  0  0  0  0  0  0  0  0  0  0  0
    3.2202   17.5644   40.2061 H   0  0  0  0  0  0  0  0  0  0  0  0
    4.1642   15.6943   38.9284 H   0  0  0  0  0  0  0  0  0  0  0  0
    3.5315   13.3491   39.5130 H   0  0  0  0  0  0  0  0  0  0  0  0
    1.0376   14.7478   42.6207 H   0  0  0  0  0  0  0  0  0  0  0  0
   -2.1892   16.6291   45.0388 H   0  0  0  0  0  0  0  0  0  0  0  0
   -0.6017   16.2117   45.7787 H   0  0  0  0  0  0  0  0  0  0  0  0
   -1.7858   17.3337   46.6268 H   0  0  0  0  0  0  0  0  0  0  0  0
   -0.1822   21.3486   44.5876 H   0  0  0  0  0  0  0  0  0  0  0  0
    2.4164   21.5000   42.9280 H   0  0  0  0  0  0  0  0  0  0  0  0
    1.2517   21.5744   41.4999 H   0  0  0  0  0  0  0  0  0  0  0  0
  1  2  2  0
  1  6  1  0
  2  3  1  0
  3  4  2  0
  4  5  1  0
  5  6  2  0
  6  7  1  0
  7  8  2  0
  7  9  1  0
  8 16  1  0
  9 10  2  0
 10 11  1  0
 10 15  1  0
 11 12  1  0
 11 13  1  0
 13 14  2  0
 14 15  1  0
 15 16  2  0
 16 17  1  0
  1 18  1  0
  2 19  1  0
  3 20  1  0
  5 21  1  0
 12 22  1  0
 12 23  1  0
 12 24  1  0
 14 25  1  0
 17 26  1  0
 17 27  1  0
M  END
>  <mol_id>  (10) 
2026-09-18-6fnk-s0-n100-r6-0010

>  <rmsd_to_ref>  (10) 
0.8673469387808599

>  <pose_kind>  (10) 
conformer

$$$$
6fnk.A
     RDKit          3D

 27 29  0  0  0  0  0  0  0  0999 V2000
    3.7276   16.8788   40.9214 C   0  0  0  0  0  0  0  0  0  0  0  0
    4.4570   15.8363   40.3495 C   0  0  0  0  0  0  0  0  0  0  0  0
    4.2907   14.5391   40.8122 C   0  0  0  0  0  0  0  0  0  0  0  0
    3.3899   14.2778   41.8483 N   0  0  0  0  0  0  0  0  0  0  0  0
    2.6588   15.3287   42.4227 C   0  0  0  0  0  0  0  0  0  0  0  0
    2.8263   16.6325   41.9599 C   0  0  0  0  0  0  0  0  0  0  0  0
    2.0979   17.6783   42.5360 C   0  0  0  0  0  0  0  0  0  0  0  0
    2.3664   18.9558   42.2329 N   0  0  0  0  0  0  0  0  0  0  0  0
    1.1129   17.4070   43.3982 N   0  0  0  0  0  0  0  0  0  0  0  0
    0.3964   18.3858   43.9790 C   0  0  0  0  0  0  0  0  0  0  0  0
   -0.6078   18.3592   44.8684 N   0  0  0  0  0  0  0  0  0  0  0  0
   -1.2074   17.1567   45.4545 C   0  0  0  0  0  0  0  0  0  0  0  0
   -0.9816   19.5026   45.1332 N   0  0  0  0  0  0  0  0  0  0  0  0
   -0.2472   20.3477   44.3912 C   0  0  0  0  0  0  0  0  0  0  0  0
    0.6480   19.6551   43.6744 C   0  0  0  0  0  0  0  0  0  0  0  0
    1.6428   19.9439   42.7910 C   0  0  0  0  0  0  0  0  0  0  0  0
    1.9287   21.2266   42.4604 N   0  0  0  0  0  0  0  0  0  0  0  0
    3.8635   17.9055   40.5507 H   0  0  0  0  0  0  0  0  0  0  0  0
    5.1635   16.0427   39.5320 H   0  0  0  0  0  0  0  0  0  0  0  0
    4.8676   13.7167   40.3640 H   0  0  0  0  0  0  0  0  0  0  0  0
    1.9518   15.1230   43.2400 H   0  0  0  0  0  0  0  0  0  0  0  0
   -1.2201   17.2501   46.5504 H   0  0  0  0  0  0  0  0  0  0  0  0
   -2.2369   17.0426   45.0843 H   0  0  0  0  0  0  0  0  0  0  0  0
   -0.6151   16.2750   45.1685 H   0  0  0  0  0  0  0  0  0  0  0  0
   -0.3631   21.4415   44.3746 H   0  0  0  0  0  0  0  0  0  0  0  0
    1.3875   21.9983   42.8757 H   0  0  0  0  0  0  0  0  0  0  0  0
    2.6872   21.4299   41.7939 H   0  0  0  0  0  0  0  0  0  0  0  0
  1  2  2  0
  1  6  1  0
  2  3  1  0
  3  4  2  0
  4  5  1  0
  5  6  2  0
  6  7  1  0
  7  8  2  0
  7  9  1  0
  8 16  1  0
  9 10  2  0
 10 11  1  0
 10 15  1  0
 11 12  1  0
 11 13  1  0
 13 14  2  0
 14 15  1  0
 15 16  2  0
 16 17  1  0
  1 18  1  0
  2 19  1  0
  3 20  1  0
  5 21  1  0
 12 22  1  0
 12 23  1  0
 12 24  1  0
 14 25  1  0
 17 26  1  0
 17 27  1  0
M  END
>  <mol_id>  (11) 
2026-09-18-6fnk-s0-n100-r6-0011

>  <rmsd_to_ref>  (11) 
0.913265306123201

>  <pose_kind>  (11) 
rigid

$$$$
6fnk.A
     RDKit          3D

 27 29  0  0  0  0  0  0  0  0999 V2000
    3.2953   16.9398   40.9216 C   0  0  0  0  0  0  0  0  0  0  0  0
    3.9881   15.8365   40.4320 C   0  0  0  0  0  0  0  0  0  0  0  0
    3.6843   14.5579   40.8045 C   0  0  0  0  0  0  0  0  0  0  0  0
    2.6788   14.3187   41.6799 N   0  0  0  0  0  0  0  0  0  0  0  0
    1.9897   15.3578   42.1721 C   0  0  0  0  0  0  0  0  0  0  0  0
    2.2714   16.6749   41.8150 C   0  0  0  0  0  0  0  0  0  0  0  0
    1.4939   17.7738   42.3769 C   0  0  0  0  0  0  0  0  0  0  0  0
    1.7400   19.0691   42.0520 N   0  0  0  0  0  0  0  0  0  0  0  0
    0.5106   17.5108   43.2356 N   0  0  0  0  0  0  0  0  0  0  0  0
   -0.2629   18.4350   43.8098 C   0  0  0  0  0  0  0  0  0  0  0  0
   -1.2819   18.3437   44.6834 N   0  0  0  0  0  0  0  0  0  0  0  0
   -1.8252   17.1049   45.2556 C   0  0  0  0  0  0  0  0  0  0  0  0
   -1.7046   19.5691   44.9327 N   0  0  0  0  0  0  0  0  0  0  0  0
   -0.9652   20.4702   44.2241 C   0  0  0  0  0  0  0  0  0  0  0  0
   -0.0357   19.7583   43.4984 C   0  0  0  0  0  0  0  0  0  0  0  0
    0.9786   20.0563   42.6103 C   0  0  0  0  0  0  0  0  0  0  0  0
    1.2166   21.4215   42.2860 N   0  0  0  0  0  0  0  0  0  0  0  0
    3.5573   17.9346   40.6101 H   0  0  0  0  0  0  0  0  0  0  0  0
    4.8142   15.9577   39.7195 H   0  0  0  0  0  0  0  0  0  0  0  0
    4.2049   13.6752   40.4413 H   0  0  0  0  0  0  0  0  0  0  0  0
    1.1795   15.1955   42.8748 H   0  0  0  0  0  0  0  0  0  0  0  0
   -1.3000   16.2466   44.7870 H   0  0  0  0  0  0  0  0  0  0  0  0
   -2.9050   16.9971   45.0351 H   0  0  0  0  0  0  0  0  0  0  0  0
   -1.6030   17.0325   46.3468 H   0  0  0  0  0  0  0  0  0  0  0  0
   -1.0599   21.5352   44.2092 H   0  0  0  0  0  0  0  0  0  0  0  0
    2.1611   21.8134   42.4980 H   0  0  0  0  0  0  0  0  0  0  0  0
    0.4659   22.0273   41.8438 H   0  0  0  0  0  0  0  0  0  0  0  0
  1  2  2  0
  1  6  1  0
  2  3  1  0
  3  4  2  0
  4  5  1  0
  5  6  2  0
  6  7  1  0
  7  8  2  0
  7  9  1  0
  8 16  1  0
  9 10  2  0
 10 11  1  0
 10 15  1  0
 11 12  1  0
 11 13  1  0
 13 14  2  0
 14 15  1  0
 15 16  2  0
 16 17  1  0
  1 18  1  0
  2 19  1  0
  3 20  1  0
  5 21  1  0
 12 22  1  0
 12 23  1  0
 12 24  1  0
 14 25  1  0
 17 26  1  0
 17 27  1  0
M  END
>  <mol_id>  (12) 
2026-09-18-6fnk-s0-n100-r6-0012

>  <rmsd_to_ref>  (12) 
0.9591836734704172

>  <pose_kind>  (12) 
conformer

$$$$
6fnk.A
     RDKit          3D

 27 29  0  0  0  0  0  0  0  0999 V2000
    3.2464   15.8520   41.3099 C   0  0  0  0  0  0  0  0  0  0  0  0
    3.7845   14.5650   41.3095 C   0  0  0  0  0  0  0  0  0  0  0  0
    3.2896   13.6069   42.1822 C   0  0  0  0  0  0  0  0  0  0  0  0
    2.2500   13.9313   43.0581 N   0  0  0  0  0  0  0  0  0  0  0  0
    1.7118   15.2272   43.0574 C   0  0  0  0  0  0  0  0  0  0  0  0
    2.2095   16.1910   42.1824 C   0  0  0  0  0  0  0  0  0  0  0  0
    1.6726   17.4825   42.1855 C   0  0  0  0  0  0  0  0  0  0  0  0
    2.2457   18.4702   41.4840 N   0  0  0  0  0  0  0  0  0  0  0  0
    0.5675   17.7418   42.8915 N   0  0  0  0  0  0  0  0  0  0  0  0
    0.0270   18.9729   42.9260 C   0  0  0  0  0  0  0  0  0  0  0  0
   -1.0459   19.4670   43.5624 N   0  0  0  0  0  0  0  0  0  0  0  0
   -1.9532   18.7136   44.4331 C   0  0  0  0  0  0  0  0  0  0  0  0
   -1.1848   20.6646   43.3106 N   0  0  0  0  0  0  0  0  0  0  0  0
   -0.2090   21.0115   42.4551 C   0  0  0  0  0  0  0  0  0  0  0  0
    0.5820   19.9553   42.2232 C   0  0  0  0  0  0  0  0  0  0  0  0
    1.7027   19.7016   41.4931 C   0  0  0  0  0  0  0  0  0  0  0  0
    2.2967   20.6803   40.7679 N   0  0  0  0  0  0  0  0  0  0  0  0
    3.6428   16.6078   40.6159 H   0  0  0  0  0  0  0  0  0  0  0  0
    4.6007   14.3099   40.6175 H   0  0  0  0  0  0  0  0  0  0  0  0
    3.7151   12.5926   42.1848 H   0  0  0  0  0  0  0  0  0  0  0  0
    0.8954   15.4828   43.7488 H   0  0  0  0  0  0  0  0  0  0  0  0
   -2.0597   19.2387   45.3938 H   0  0  0  0  0  0  0  0  0  0  0  0
   -2.9381   18.6285   43.9506 H   0  0  0  0  0  0  0  0  0  0  0  0
   -1.5427   17.7082   44.6083 H   0  0  0  0  0  0  0  0  0  0  0  0
   -0.0792   22.0101   42.0126 H   0  0  0  0  0  0  0  0  0  0  0  0
    1.8980   21.6300   40.7606 H   0  0  0  0  0  0  0  0  0  0  0  0
    3.1468   20.4744   40.2241 H   0  0  0  0  0  0  0  0  0  0  0  0
  1  2  2  0
  1  6  1  0
  2  3  1  0
  3  4  2  0
  4  5  1  0
  5  6  2  0
  6  7  1  0
  7  8  2  0
  7  9  1  0
  8 16  1  0
  9 10  2  0
 10 11  1  0
 10 15  1  0
 11 12  1  0
 11 13  1  0
 13 14  2  0
 14 15  1  0
 15 16  2  0
 16 17  1  0
  1 18  1  0
  2 19  1  0
  3 20  1  0
  5 21  1  0
 12 22  1  0
 12 23  1  0
 12 24  1  0
 14 25  1  0
 17 26  1  0
 17 27  1  0
M  END
>  <mol_id>  (13) 
2026-09-18-6fnk-s0-n100-r6-0013

>  <rmsd_to_ref>  (13) 
1.0051020408218836

>  <pose_kind>  (13) 
rigid

$$$$
6fnk.A
     RDKit          3D

 27 29  0  0  0  0  0  0  0  0999 V2000
    3.1300   15.1666   41.4773 C   0  0  0  0  0  0  0  0  0  0  0  0
    3.4921   13.8275   41.5010 C   0  0  0  0  0  0  0  0  0  0  0  0
    2.9530   13.0432   42.5241 C   0  0  0  0  0  0  0  0  0  0  0  0
    2.1311   13.5728   43.4263 N   0  0  0  0  0  0  0  0  0  0  0  0
    1.7877   14.8740   43.3919 C   0  0  0  0  0  0  0  0  0  0  0  0
    2.2847   15.7179   42.4027 C   0  0  0  0  0  0  0  0  0  0  0  0
    1.9090   17.1251   42.3712 C   0  0  0  0  0  0  0  0  0  0  0  0
    2.3685   17.9679   41.4329 N   0  0  0  0  0  0  0  0  0  0  0  0
    1.0737   17.6013   43.3119 N   0  0  0  0  0  0  0  0  0  0  0  0
    0.6834   18.8905   43.3449 C   0  0  0  0  0  0  0  0  0  0  0  0
   -0.1354   19.6034   44.1732 N   0  0  0  0  0  0  0  0  0  0  0  0
   -0.8438   19.0695   45.3283 C   0  0  0  0  0  0  0  0  0  0  0  0
   -0.1546   20.8663   43.7178 N   0  0  0  0  0  0  0  0  0  0  0  0
    0.6125   20.9988   42.6369 C   0  0  0  0  0  0  0  0  0  0  0  0
    1.1588   19.7526   42.3778 C   0  0  0  0  0  0  0  0  0  0  0  0
    2.0208   19.2842   41.3984 C   0  0  0  0  0  0  0  0  0  0  0  0
    2.5073   20.1613   40.4106 N   0  0  0  0  0  0  0  0  0  0  0  0
    3.5576   15.7709   40.6726 H   0  0  0  0  0  0  0  0  0  0  0  0
    4.1645   13.4006   40.7604 H   0  0  0  0  0  0  0  0  0  0  0  0
    3.2495   11.9877   42.5279 H   0  0  0  0  0  0  0  0  0  0  0  0
    1.1196   15.3092   44.1236 H   0  0  0  0  0  0  0  0  0  0  0  0
   -1.8123   18.5967   45.0017 H   0  0  0  0  0  0  0  0  0  0  0  0
   -0.2285   18.3233   45.8398 H   0  0  0  0  0  0  0  0  0  0  0  0
   -1.1383   19.9371   45.9518 H   0  0  0  0  0  0  0  0  0  0  0  0
    0.8193   21.8669   42.0283 H   0  0  0  0  0  0  0  0  0  0  0  0
    3.4250   20.6410   40.4595 H   0  0  0  0  0  0  0  0  0  0  0  0
    1.9327   20.3759   39.5420 H   0  0  0  0  0  0  0  0  0  0  0  0
  1  2  2  0
  1  6  1  0
  2  3  1  0
  3  4  2  0
  4  5  1  0
  5  6  2  0
  6  7  1  0
  7  8  2  0
  7  9  1  0
  8 16  1  0
  9 10  2  0
 10 11  1  0
 10 15  1  0
 11 12  1  0
 11 13  1  0
 13 14  2  0
 14 15  1  0
 15 16  2  0
 16 17  1  0
  1 18  1  0
  2 19  1  0
  3 20  1  0
  5 21  1  0
 12 22  1  0
 12 23  1  0
 12 24  1  0
 14 25  1  0
 17 26  1  0
 17 27  1  0
M  END
>  <mol_id>  (14) 
2026-09-18-6fnk-s0-n100-r6-0014

>  <rmsd_to_ref>  (14) 
1.0510204081679089

>  <pose_kind>  (14) 
conformer

$$$$
6fnk.A
     RDKit          3D

 27 29  0  0  0  0  0  0  0  0999 V2000
    2.9134   16.1727   40.9379 C   0  0  0  0  0  0  0  0  0  0  0  0
    3.0791   15.0084   40.1876 C   0  0  0  0  0  0  0  0  0  0  0  0
    2.3668   13.8646   40.5172 C   0  0  0  0  0  0  0  0  0  0  0  0
    1.4812   13.8812   41.5983 N   0  0  0  0  0  0  0  0  0  0  0  0
    1.3178   15.0533   42.3522 C   0  0  0  0  0  0  0  0  0  0  0  0
    2.0343   16.2025   42.0231 C   0  0  0  0  0  0  0  0  0  0  0  0
    1.8711   17.3687   42.7778 C   0  0  0  0  0  0  0  0  0  0  0  0
    2.6716   18.4277   42.5942 N   0  0  0  0  0  0  0  0  0  0  0  0
    0.8998   17.4379   43.6937 N   0  0  0  0  0  0  0  0  0  0  0  0
    0.7174   18.5387   44.4445 C   0  0  0  0  0  0  0  0  0  0  0  0
   -0.1607   18.8297   45.4163 N   0  0  0  0  0  0  0  0  0  0  0  0
   -1.2137   17.9425   45.9193 C   0  0  0  0  0  0  0  0  0  0  0  0
    0.0257   19.9710   45.8404 N   0  0  0  0  0  0  0  0  0  0  0  0
    1.0339   20.5040   45.1307 C   0  0  0  0  0  0  0  0  0  0  0  0
    1.4992   19.5980   44.2602 C   0  0  0  0  0  0  0  0  0  0  0  0
    2.4863   19.5430   43.3243 C   0  0  0  0  0  0  0  0  0  0  0  0
    3.3037   20.6029   43.1125 N   0  0  0  0  0  0  0  0  0  0  0  0
    3.4809   17.0768   40.6722 H   0  0  0  0  0  0  0  0  0  0  0  0
    3.7741   14.9974   39.3350 H   0  0  0  0  0  0  0  0  0  0  0  0
    2.4988   12.9451   39.9281 H   0  0  0  0  0  0  0  0  0  0  0  0
    0.6228   15.0652   43.2047 H   0  0  0  0  0  0  0  0  0  0  0  0
   -1.1447   17.8760   47.0152 H   0  0  0  0  0  0  0  0  0  0  0  0
   -2.1979   18.3449   45.6376 H   0  0  0  0  0  0  0  0  0  0  0  0
   -1.0886   16.9406   45.4827 H   0  0  0  0  0  0  0  0  0  0  0  0
    1.4187   21.5279   45.2464 H   0  0  0  0  0  0  0  0  0  0  0  0
    3.1797   21.4665   43.6600 H   0  0  0  0  0  0  0  0  0  0  0  0
    4.0491   20.5449   42.4040 H   0  0  0  0  0  0  0  0  0  0  0  0
  1  2  2  0
  1  6  1  0
  2  3  1  0
  3  4  2  0
  4  5  1  0
  5  6  2  0
  6  7  1  0
  7  8  2  0
  7  9  1  0
  8 16  1  0
  9 10  2  0
 10 11  1  0
 10 15  1  0
 11 12  1  0
 11 13  1  0
 13 14  2  0
 14 15  1  0
 15 16  2  0
 16 17  1  0
  1 18  1  0
  2 19  1  0
  3 20  1  0
  5 21  1  0
 12 22  1  0
 12 23  1  0
 12 24  1  0
 14 25  1  0
 17 26  1  0
 17 27  1  0
M  END
>  <mol_id>  (15) 
2026-09-18-6fnk-s0-n100-r6-0015

>  <rmsd_to_ref>  (15) 
1.096938775512396

>  <pose_kind>  (15) 
rigid

$$$$
6fnk.A
     RDKit          3D

 27 29  0  0  0  0  0  0  0  0999 V2000
    3.5880   15.7502   41.6201 C   0  0  0  0  0  0  0  0  0  0  0  0
    4.4125   14.6243   41.6356 C   0  0  0  0  0  0  0  0  0  0  0  0
    4.4507   13.8310   42.7644 C   0  0  0  0  0  0  0  0  0  0  0  0
    3.7233   14.0887   43.8706 N   0  0  0  0  0  0  0  0  0  0  0  0
    2.9117   15.1829   43.8766 C   0  0  0  0  0  0  0  0  0  0  0  0
    2.8476   16.0043   42.7584 C   0  0  0  0  0  0  0  0  0  0  0  0
    1.9770   17.1926   42.7428 C   0  0  0  0  0  0  0  0  0  0  0  0
    1.8957   18.0058   41.6726 N   0  0  0  0  0  0  0  0  0  0  0  0
    1.2256   17.4916   43.8352 N   0  0  0  0  0  0  0  0  0  0  0  0
    0.4170   18.5543   43.8831 C   0  0  0  0  0  0  0  0  0  0  0  0
   -0.4268   19.0917   44.8031 N   0  0  0  0  0  0  0  0  0  0  0  0
   -0.6513   18.5298   46.1209 C   0  0  0  0  0  0  0  0  0  0  0  0
   -0.9706   20.1788   44.2686 N   0  0  0  0  0  0  0  0  0  0  0  0
   -0.5148   20.3827   43.0195 C   0  0  0  0  0  0  0  0  0  0  0  0
    0.3625   19.3716   42.7515 C   0  0  0  0  0  0  0  0  0  0  0  0
    1.1106   19.0986   41.6263 C   0  0  0  0  0  0  0  0  0  0  0  0
    1.0872   19.9003   40.4542 N   0  0  0  0  0  0  0  0  0  0  0  0
    3.5502   16.3788   40.7413 H   0  0  0  0  0  0  0  0  0  0  0  0
    5.0104   14.3893   40.7617 H   0  0  0  0  0  0  0  0  0  0  0  0
    5.0880   12.9534   42.7878 H   0  0  0  0  0  0  0  0  0  0  0  0
    2.3183   15.4109   44.7520 H   0  0  0  0  0  0  0  0  0  0  0  0
   -1.4395   19.1491   46.6072 H   0  0  0  0  0  0  0  0  0  0  0  0
    0.2799   18.4879   46.7254 H   0  0  0  0  0  0  0  0  0  0  0  0
   -1.0741   17.5016   46.0610 H   0  0  0  0  0  0  0  0  0  0  0  0
   -0.7842   21.1964   42.3356 H   0  0  0  0  0  0  0  0  0  0  0  0
    0.9943   20.9454   40.5720 H   0  0  0  0  0  0  0  0  0  0  0  0
    1.1576   19.5018   39.4843 H   0  0  0  0  0  0  0  0  0  0  0  0
  1  2  2  0
  1  6  1  0
  2  3  1  0
  3  4  2  0
  4  5  1  0
  5  6  2  0
  6  7  1  0
  7  8  2  0
  7  9  1  0
  8 16  1  0
  9 10  2  0
 10 11  1  0
 10 15  1  0
 11 12  1  0
 11 13  1  0
 13 14  2  0
 14 15  1  0
 15 16  2  0
 16 17  1  0
  1 18  1  0
  2 19  1  0
  3 20  1  0
  5 21  1  0
 12 22  1  0
 12 23  1  0
 12 24  1  0
 14 25  1  0
 17 26  1  0
 17 27  1  0
M  END
>  <mol_id>  (16) 
2026-09-18-6fnk-s0-n100-r6-0016

>  <rmsd_to_ref>  (16) 
1.1428571428594454

>  <pose_kind>  (16) 
conformer

$$$$
6fnk.A
     RDKit          3D

 27 29  0  0  0  0  0  0  0  0999 V2000
    3.1213   15.2305   41.9890 C   0  0  0  0  0  0  0  0  0  0  0  0
    3.4033   13.8644   41.9921 C   0  0  0  0  0  0  0  0  0  0  0  0
    2.7206   13.0181   42.8536 C   0  0  0  0  0  0  0  0  0  0  0  0
    1.7485   13.5347   43.7147 N   0  0  0  0  0  0  0  0  0  0  0  0
    1.4682   14.9096   43.7104 C   0  0  0  0  0  0  0  0  0  0  0  0
    2.1547   15.7610   42.8468 C   0  0  0  0  0  0  0  0  0  0  0  0
    1.8747   17.1313   42.8464 C   0  0  0  0  0  0  0  0  0  0  0  0
    2.6371   17.9917   42.1575 N   0  0  0  0  0  0  0  0  0  0  0  0
    0.8286   17.5968   43.5363 N   0  0  0  0  0  0  0  0  0  0  0  0
    0.5330   18.9085   43.5670 C   0  0  0  0  0  0  0  0  0  0  0  0
   -0.4355   19.5982   44.1887 N   0  0  0  0  0  0  0  0  0  0  0  0
   -1.4838   19.0316   45.0426 C   0  0  0  0  0  0  0  0  0  0  0  0
   -0.3388   20.8005   43.9392 N   0  0  0  0  0  0  0  0  0  0  0  0
    0.6986   20.9549   43.1002 C   0  0  0  0  0  0  0  0  0  0  0  0
    1.2766   19.7671   42.8765 C   0  0  0  0  0  0  0  0  0  0  0  0
    2.3396   19.3043   42.1628 C   0  0  0  0  0  0  0  0  0  0  0  0
    3.1211   20.1517   41.4504 N   0  0  0  0  0  0  0  0  0  0  0  0
    3.6658   15.8971   41.3040 H   0  0  0  0  0  0  0  0  0  0  0  0
    4.1664   13.4584   41.3119 H   0  0  0  0  0  0  0  0  0  0  0  0
    2.9442   11.9411   42.8590 H   0  0  0  0  0  0  0  0  0  0  0  0
    0.7049   15.3162   44.3902 H   0  0  0  0  0  0  0  0  0  0  0  0
   -1.5030   19.5667   46.0035 H   0  0  0  0  0  0  0  0  0  0  0  0
   -2.4590   19.1368   44.5448 H   0  0  0  0  0  0  0  0  0  0  0  0
   -1.2759   17.9662   45.2204 H   0  0  0  0  0  0  0  0  0  0  0  0
    1.0240   21.9106   42.6634 H   0  0  0  0  0  0  0  0  0  0  0  0
    2.9115   21.1601   41.4405 H   0  0  0  0  0  0  0  0  0  0  0  0
    3.9246   19.7874   40.9189 H   0  0  0  0  0  0  0  0  0  0  0  0
  1  2  2  0
  1  6  1  0
  2  3  1  0
  3  4  2  0
  4  5  1  0
  5  6  2  0
  6  7  1  0
  7  8  2  0
  7  9  1  0
  8 16  1  0
  9 10  2  0
 10 11  1  0
 10 15  1  0
 11 12  1  0
 11 13  1  0
 13 14  2  0
 14 15  1  0
 15 16  2  0
 16 17  1  0
  1 18  1  0
  2 19  1  0
  3 20  1  0
  5 21  1  0
 12 22  1  0
 12 23  1  0
 12 24  1  0
 14 25  1  0
 17 26  1  0
 17 27  1  0
M  END
>  <mol_id>  (17) 
2026-09-18-6fnk-s0-n100-r6-0017

>  <rmsd_to_ref>  (17) 
1.1887755102097026

>  <pose_kind>  (17) 
rigid

$$$$
6fnk.A
     RDKit          3D

 27 29  0  0  0  0  0  0  0  0999 V2000
    2.1877   15.1258   42.2860 C   0  0  0  0  0  0  0  0  0  0  0  0
    2.8526   14.0267   41.7427 C   0  0  0  0  0  0  0  0  0  0  0  0
    3.6924   14.2533   40.6602 C   0  0  0  0  0  0  0  0  0  0  0  0
    3.8808   15.4755   40.1299 N   0  0  0  0  0  0  0  0  0  0  0  0
    3.2404   16.5351   40.6531 C   0  0  0  0  0  0  0  0  0  0  0  0
    2.3878   16.3785   41.7339 C   0  0  0  0  0  0  0  0  0  0  0  0
    1.7189   17.5609   42.2618 C   0  0  0  0  0  0  0  0  0  0  0  0
    1.9668   18.7427   41.6688 N   0  0  0  0  0  0  0  0  0  0  0  0
    0.8789   17.4720   43.3108 N   0  0  0  0  0  0  0  0  0  0  0  0
    0.2605   18.5583   43.8003 C   0  0  0  0  0  0  0  0  0  0  0  0
   -0.6173   18.7835   44.8184 N   0  0  0  0  0  0  0  0  0  0  0  0
   -1.0968   17.7151   45.6668 C   0  0  0  0  0  0  0  0  0  0  0  0
   -0.9129   20.0777   44.8624 N   0  0  0  0  0  0  0  0  0  0  0  0
   -0.2427   20.7111   43.8875 C   0  0  0  0  0  0  0  0  0  0  0  0
    0.5049   19.7764   43.2027 C   0  0  0  0  0  0  0  0  0  0  0  0
    1.3675   19.8573   42.1281 C   0  0  0  0  0  0  0  0  0  0  0  0
    1.6427   21.1057   41.4853 N   0  0  0  0  0  0  0  0  0  0  0  0
    1.5273   14.9824   43.1288 H   0  0  0  0  0  0  0  0  0  0  0  0
    2.7353   13.0271   42.1313 H   0  0  0  0  0  0  0  0  0  0  0  0
    4.2018   13.4049   40.2454 H   0  0  0  0  0  0  0  0  0  0  0  0
    3.4260   17.4971   40.1900 H   0  0  0  0  0  0  0  0  0  0  0  0
   -1.8891   17.1335   45.1523 H   0  0  0  0  0  0  0  0  0  0  0  0
   -0.2934   17.0923   46.0707 H   0  0  0  0  0  0  0  0  0  0  0  0
   -1.6252   18.2162   46.5289 H   0  0  0  0  0  0  0  0  0  0  0  0
   -0.2480   21.7565   43.6374 H   0  0  0  0  0  0  0  0  0  0  0  0
    1.9670   21.9406   42.0565 H   0  0  0  0  0  0  0  0  0  0  0  0
    1.5128   21.1587   40.4467 H   0  0  0  0  0  0  0  0  0  0  0  0
  1  2  2  0
  1  6  1  0
  2  3  1  0
  3  4  2  0
  4  5  1  0
  5  6  2  0
  6  7  1  0
  7  8  2  0
  7  9  1  0
  8 16  1  0
  9 10  2  0
 10 11  1  0
 10 15  1  0
 11 12  1  0
 11 13  1  0
 13 14  2  0
 14 15  1  0
 15 16  2  0
 16 17  1  0
  1 18  1  0
  2 19  1  0
  3 20  1  0
  5 21  1  0
 12 22  1  0
 12 23  1  0
 12 24  1  0
 14 25  1  0
 17 26  1  0
 17 27  1  0
M  END
>  <mol_id>  (18) 
2026-09-18-6fnk-s0-n100-r6-0018

>  <rmsd_to_ref>  (18) 
1.2346938775516763

>  <pose_kind>  (18) 
conformer

$$$$
6fnk.A
     RDKit          3D

 27 29  0  0  0  0  0  0  0  0999 V2000
    3.1363   15.1583   42.0206 C   0  0  0  0  0  0  0  0  0  0  0  0
    3.5273   13.8213   42.0943 C   0  0  0  0  0  0  0  0  0  0  0  0
    2.8481   12.9459   42.9291 C   0  0  0  0  0  0  0  0  0  0  0  0
    1.7706   13.4038   43.6925 N   0  0  0  0  0  0  0  0  0  0  0  0
    1.3807   14.7496   43.6174 C   0  0  0  0  0  0  0  0  0  0  0  0
    2.0634   15.6303   42.7805 C   0  0  0  0  0  0  0  0  0  0  0  0
    1.6738   16.9717   42.7096 C   0  0  0  0  0  0  0  0  0  0  0  0
    2.4170   17.8728   42.0524 N   0  0  0  0  0  0  0  0  0  0  0  0
    0.5408   17.3675   43.2984 N   0  0  0  0  0  0  0  0  0  0  0  0
    0.1379   18.6500   43.2593 C   0  0  0  0  0  0  0  0  0  0  0  0
   -0.9307   19.2737   43.7782 N   0  0  0  0  0  0  0  0  0  0  0  0
   -1.9951   18.6461   44.5669 C   0  0  0  0  0  0  0  0  0  0  0  0
   -0.9122   20.4722   43.4946 N   0  0  0  0  0  0  0  0  0  0  0  0
    0.1739   20.6888   42.7345 C   0  0  0  0  0  0  0  0  0  0  0  0
    0.8628   19.5478   42.5991 C   0  0  0  0  0  0  0  0  0  0  0  0
    2.0142   19.1553   41.9878 C   0  0  0  0  0  0  0  0  0  0  0  0
    2.7794   20.0445   41.3093 N   0  0  0  0  0  0  0  0  0  0  0  0
    3.6785   15.8481   41.3572 H   0  0  0  0  0  0  0  0  0  0  0  0
    4.3735   13.4613   41.4908 H   0  0  0  0  0  0  0  0  0  0  0  0
    3.1574   11.8921   42.9903 H   0  0  0  0  0  0  0  0  0  0  0  0
    0.5343   15.1102   44.2204 H   0  0  0  0  0  0  0  0  0  0  0  0
   -2.1356   19.2052   45.5037 H   0  0  0  0  0  0  0  0  0  0  0  0
   -2.9321   18.6547   43.9907 H   0  0  0  0  0  0  0  0  0  0  0  0
   -1.7163   17.6074   44.7981 H   0  0  0  0  0  0  0  0  0  0  0  0
    0.4547   21.6554   42.2909 H   0  0  0  0  0  0  0  0  0  0  0  0
    2.4900   21.0310   41.2471 H   0  0  0  0  0  0  0  0  0  0  0  0
    3.6503   19.7337   40.8556 H   0  0  0  0  0  0  0  0  0  0  0  0
  1  2  2  0
  1  6  1  0
  2  3  1  0
  3  4  2  0
  4  5  1  0
  5  6  2  0
  6  7  1  0
  7  8  2  0
  7  9  1  0
  8 16  1  0
  9 10  2  0
 10 11  1  0
 10 15  1  0
 11 12  1  0
 11 13  1  0
 13 14  2  0
 14 15  1  0
 15 16  2  0
 16 17  1  0
  1 18  1  0
  2 19  1  0
  3 20  1  0
  5 21  1  0
 12 22  1  0
 12 23  1  0
 12 24  1  0
 14 25  1  0
 17 26  1  0
 17 27  1  0
M  END
>  <mol_id>  (19) 
2026-09-18-6fnk-s0-n100-r6-0019

>  <rmsd_to_ref>  (19) 
1.2806122449038615

>  <pose_kind>  (19) 
rigid

$$$$
6fnk.A
     RDKit          3D

 27 29  0  0  0  0  0  0  0  0999 V2000
    2.2004   16.2689   40.0974 C   0  0  0  0  0  0  0  0  0  0  0  0
    2.3764   15.2324   39.2086 C   0  0  0  0  0  0  0  0  0  0  0  0
    2.1024   13.9451   39.6294 C   0  0  0  0  0  0  0  0  0  0  0  0
    1.6662   13.6960   40.8967 N   0  0  0  0  0  0  0  0  0  0  0  0
    1.4946   14.7200   41.7677 C   0  0  0  0  0  0  0  0  0  0  0  0
    1.7558   16.0251   41.3924 C   0  0  0  0  0  0  0  0  0  0  0  0
    1.5789   17.1553   42.3149 C   0  0  0  0  0  0  0  0  0  0  0  0
    1.8470   18.4082   41.9009 N   0  0  0  0  0  0  0  0  0  0  0  0
    1.1536   16.9358   43.5585 N   0  0  0  0  0  0  0  0  0  0  0  0
    0.9752   17.9361   44.4424 C   0  0  0  0  0  0  0  0  0  0  0  0
    0.5786   18.0625   45.7120 N   0  0  0  0  0  0  0  0  0  0  0  0
    0.1841   16.9617   46.5674 C   0  0  0  0  0  0  0  0  0  0  0  0
    0.5927   19.3382   46.0915 N   0  0  0  0  0  0  0  0  0  0  0  0
    1.0068   20.0656   45.0513 C   0  0  0  0  0  0  0  0  0  0  0  0
    1.2576   19.2167   43.9935 C   0  0  0  0  0  0  0  0  0  0  0  0
    1.6992   19.4773   42.7131 C   0  0  0  0  0  0  0  0  0  0  0  0
    1.9927   20.7721   42.2343 N   0  0  0  0  0  0  0  0  0  0  0  0
    2.3954   17.3065   39.8381 H   0  0  0  0  0  0  0  0  0  0  0  0
    2.7242   15.4762   38.2135 H   0  0  0  0  0  0  0  0  0  0  0  0
    2.2465   13.1290   38.9128 H   0  0  0  0  0  0  0  0  0  0  0  0
    1.1475   14.4992   42.7686 H   0  0  0  0  0  0  0  0  0  0  0  0
   -0.3292   16.1640   45.9910 H   0  0  0  0  0  0  0  0  0  0  0  0
    1.0596   16.5523   47.0960 H   0  0  0  0  0  0  0  0  0  0  0  0
   -0.4773   17.3563   47.3864 H   0  0  0  0  0  0  0  0  0  0  0  0
    1.1166   21.1480   45.0708 H   0  0  0  0  0  0  0  0  0  0  0  0
    1.2208   21.4511   42.0172 H   0  0  0  0  0  0  0  0  0  0  0  0
    2.9584   21.1274   42.0706 H   0  0  0  0  0  0  0  0  0  0  0  0
  1  2  2  0
  1  6  1  0
  2  3  1  0
  3  4  2  0
  4  5  1  0
  5  6  2  0
  6  7  1  0
  7  8  2  0
  7  9  1  0
  8 16  1  0
  9 10  2  0
 10 11  1  0
 10 15  1  0
 11 12  1  0
 11 13  1  0
 13 14  2  0
 14 15  1  0
 15 16  2  0
 16 17  1  0
  1 18  1  0
  2 19  1  0
  3 20  1  0
  5 21  1  0
 12 22  1  0
 12 23  1  0
 12 24  1  0
 14 25  1  0
 17 26  1  0
 17 27  1  0
M  END
>  <mol_id>  (20) 
2026-09-18-6fnk-s0-n100-r6-0020

>  <rmsd_to_ref>  (20) 
1.3265306122515343

>  <pose_kind>  (20) 
conformer

$$$$
6fnk.A
     RDKit          3D

 27 29  0  0  0  0  0  0  0  0999 V2000
    2.3384   15.4295   41.6230 C   0  0  0  0  0  0  0  0  0  0  0  0
    2.5261   14.0480   41.6694 C   0  0  0  0  0  0  0  0  0  0  0  0
    2.4014   13.3721   42.8744 C   0  0  0  0  0  0  0  0  0  0  0  0
    2.0841   14.0755   44.0396 N   0  0  0  0  0  0  0  0  0  0  0  0
    1.8974   15.4653   43.9901 C   0  0  0  0  0  0  0  0  0  0  0  0
    2.0243   16.1457   42.7805 C   0  0  0  0  0  0  0  0  0  0  0  0
    1.8400   17.5314   42.7347 C   0  0  0  0  0  0  0  0  0  0  0  0
    2.1267   18.2299   41.6275 N   0  0  0  0  0  0  0  0  0  0  0  0
    1.3647   18.1750   43.8057 N   0  0  0  0  0  0  0  0  0  0  0  0
    1.1823   19.5075   43.8025 C   0  0  0  0  0  0  0  0  0  0  0  0
    0.7423   20.3577   44.7426 N   0  0  0  0  0  0  0  0  0  0  0  0
    0.3187   19.9974   46.0990 C   0  0  0  0  0  0  0  0  0  0  0  0
    0.7286   21.5111   44.3106 N   0  0  0  0  0  0  0  0  0  0  0  0
    1.1366   21.4664   43.0317 C   0  0  0  0  0  0  0  0  0  0  0  0
    1.4526   20.2062   42.7043 C   0  0  0  0  0  0  0  0  0  0  0  0
    1.9287   19.5609   41.6042 C   0  0  0  0  0  0  0  0  0  0  0  0
    2.2180   20.2423   40.4691 N   0  0  0  0  0  0  0  0  0  0  0  0
    2.4387   15.9605   40.6649 H   0  0  0  0  0  0  0  0  0  0  0  0
    2.7728   13.4950   40.7511 H   0  0  0  0  0  0  0  0  0  0  0  0
    2.5521   12.2831   42.9127 H   0  0  0  0  0  0  0  0  0  0  0  0
    1.6504   16.0189   44.9080 H   0  0  0  0  0  0  0  0  0  0  0  0
    0.8515   20.6253   46.8284 H   0  0  0  0  0  0  0  0  0  0  0  0
   -0.7649   20.1578   46.1995 H   0  0  0  0  0  0  0  0  0  0  0  0
    0.5517   18.9389   46.2869 H   0  0  0  0  0  0  0  0  0  0  0  0
    1.2014   22.3321   42.3563 H   0  0  0  0  0  0  0  0  0  0  0  0
    2.0741   21.2614   40.4293 H   0  0  0  0  0  0  0  0  0  0  0  0
    2.5819   19.7410   39.6461 H   0  0  0  0  0  0  0  0  0  0  0  0
  1  2  2  0
  1  6  1  0
  2  3  1  0
  3  4  2  0
  4  5  1  0
  5  6  2  0
  6  7  1  0
  7  8  2  0
  7  9  1  0
  8 16  1  0
  9 10  2  0
 10 11  1  0
 10 15  1  0
 11 12  1  0
 11 13  1  0
 13 14  2  0
 14 15  1  0
 15 16  2  0
 16 17  1  0
  1 18  1  0
  2 19  1  0
  3 20  1  0
  5 21  1  0
 12 22  1  0
 12 23  1  0
 12 24  1  0
 14 25  1  0
 17 26  1  0
 17 27  1  0
M  END
>  <mol_id>  (21) 
2026-09-18-6fnk-s0-n100-r6-0021

>  <rmsd_to_ref>  (21) 
1.372448979598713

>  <pose_kind>  (21) 
rigid

$$$$
6fnk.A
     RDKit          3D

 27 29  0  0  0  0  0  0  0  0999 V2000
    2.0078   15.2931   43.3023 C   0  0  0  0  0  0  0  0  0  0  0  0
    2.4632   13.9943   43.0817 C   0  0  0  0  0  0  0  0  0  0  0  0
    3.2191   13.6582   41.9819 C   0  0  0  0  0  0  0  0  0  0  0  0
    3.5540   14.5897   41.0587 N   0  0  0  0  0  0  0  0  0  0  0  0
    3.1288   15.8672   41.2386 C   0  0  0  0  0  0  0  0  0  0  0  0
    2.3712   16.2203   42.3345 C   0  0  0  0  0  0  0  0  0  0  0  0
    1.9540   17.6133   42.4546 C   0  0  0  0  0  0  0  0  0  0  0  0
    2.3185   18.4866   41.5067 N   0  0  0  0  0  0  0  0  0  0  0  0
    1.2111   18.0489   43.4932 N   0  0  0  0  0  0  0  0  0  0  0  0
    0.8185   19.3194   43.6226 C   0  0  0  0  0  0  0  0  0  0  0  0
    0.0923   19.9776   44.5443 N   0  0  0  0  0  0  0  0  0  0  0  0
   -0.5081   19.4508   45.7380 C   0  0  0  0  0  0  0  0  0  0  0  0
    0.0091   21.2384   44.1719 N   0  0  0  0  0  0  0  0  0  0  0  0
    0.6774   21.4376   42.9991 C   0  0  0  0  0  0  0  0  0  0  0  0
    1.2030   20.2056   42.6368 C   0  0  0  0  0  0  0  0  0  0  0  0
    1.9627   19.7998   41.5586 C   0  0  0  0  0  0  0  0  0  0  0  0
    2.3603   20.7140   40.5400 N   0  0  0  0  0  0  0  0  0  0  0  0
    1.4152   15.5613   44.1629 H   0  0  0  0  0  0  0  0  0  0  0  0
    2.1929   13.2565   43.8210 H   0  0  0  0  0  0  0  0  0  0  0  0
    3.5764   12.6609   41.7999 H   0  0  0  0  0  0  0  0  0  0  0  0
    3.4018   16.6045   40.4950 H   0  0  0  0  0  0  0  0  0  0  0  0
    0.1277   19.6967   46.6033 H   0  0  0  0  0  0  0  0  0  0  0  0
   -0.5198   18.3445   45.6529 H   0  0  0  0  0  0  0  0  0  0  0  0
   -1.5379   19.8507   45.9109 H   0  0  0  0  0  0  0  0  0  0  0  0
    0.7839   22.3691   42.4494 H   0  0  0  0  0  0  0  0  0  0  0  0
    3.3999   20.8882   40.4663 H   0  0  0  0  0  0  0  0  0  0  0  0
    1.6805   21.1686   39.9240 H   0  0  0  0  0  0  0  0  0  0  0  0
  1  2  2  0
  1  6  1  0
  2  3  1  0
  3  4  2  0
  4  5  1  0
  5  6  2  0
  6  7  1  0
  7  8  2  0
  7  9  1  0
  8 16  1  0
  9 10  2  0
 10 11  1  0
 10 15  1  0
 11 12  1  0
 11 13  1  0
 13 14  2  0
 14 15  1  0
 15 16  2  0
 16 17  1  0
  1 18  1  0
  2 19  1  0
  3 20  1  0
  5 21  1  0
 12 22  1  0
 12 23  1  0
 12 24  1  0
 14 25  1  0
 17 26  1  0
 17 27  1  0
M  END
>  <mol_id>  (22) 
2026-09-18-6fnk-s0-n100-r6-0022

>  <rmsd_to_ref>  (22) 
1.4183673469412412

>  <pose_kind>  (22) 
conformer

$$$$
6fnk.A
     RDKit          3D

 27 29  0  0  0  0  0  0  0  0999 V2000
    2.3596   17.6727   40.0562 C   0  0  0  0  0  0  0  0  0  0  0  0
    2.9127   16.7814   39.1366 C   0  0  0  0  0  0  0  0  0  0  0  0
    3.0962   15.4513   39.4852 C   0  0  0  0  0  0  0  0  0  0  0  0
    2.7234   15.0051   40.7561 N   0  0  0  0  0  0  0  0  0  0  0  0
    2.1688   15.9043   41.6795 C   0  0  0  0  0  0  0  0  0  0  0  0
    1.9857   17.2412   41.3311 C   0  0  0  0  0  0  0  0  0  0  0  0
    1.4348   18.1356   42.2545 C   0  0  0  0  0  0  0  0  0  0  0  0
    1.4105   19.4530   42.0097 N   0  0  0  0  0  0  0  0  0  0  0  0
    0.9169   17.6763   43.3981 N   0  0  0  0  0  0  0  0  0  0  0  0
    0.3864   18.5061   44.3139 C   0  0  0  0  0  0  0  0  0  0  0  0
   -0.1662   18.2841   45.5163 N   0  0  0  0  0  0  0  0  0  0  0  0
   -0.3378   16.9768   46.1569 C   0  0  0  0  0  0  0  0  0  0  0  0
   -0.5309   19.3439   46.0271 N   0  0  0  0  0  0  0  0  0  0  0  0
   -0.2583   20.3265   45.1528 C   0  0  0  0  0  0  0  0  0  0  0  0
    0.3471   19.8130   44.0736 C   0  0  0  0  0  0  0  0  0  0  0  0
    0.8634   20.2921   42.9086 C   0  0  0  0  0  0  0  0  0  0  0  0
    0.8433   21.6187   42.6326 N   0  0  0  0  0  0  0  0  0  0  0  0
    2.2165   18.7264   39.7745 H   0  0  0  0  0  0  0  0  0  0  0  0
    3.2030   17.1331   38.1355 H   0  0  0  0  0  0  0  0  0  0  0  0
    3.5350   14.7483   38.7619 H   0  0  0  0  0  0  0  0  0  0  0  0
    1.8780   15.5533   42.6807 H   0  0  0  0  0  0  0  0  0  0  0  0
    0.0797   17.0093   47.1741 H   0  0  0  0  0  0  0  0  0  0  0  0
   -1.4088   16.7312   46.2079 H   0  0  0  0  0  0  0  0  0  0  0  0
    0.1869   16.2089   45.5695 H   0  0  0  0  0  0  0  0  0  0  0  0
   -0.4959   21.3904   45.3003 H   0  0  0  0  0  0  0  0  0  0  0  0
    0.4295   22.2788   43.3064 H   0  0  0  0  0  0  0  0  0  0  0  0
    1.2418   21.9670   41.7490 H   0  0  0  0  0  0  0  0  0  0  0  0
  1  2  2  0
  1  6  1  0
  2  3  1  0
  3  4  2  0
  4  5  1  0
  5  6  2  0
  6  7  1  0
  7  8  2  0
  7  9  1  0
  8 16  1  0
  9 10  2  0
 10 11  1  0
 10 15  1  0
 11 12  1  0
 11 13  1  0
 13 14  2  0
 14 15  1  0
 15 16  2  0
 16 17  1  0
  1 18  1  0
  2 19  1  0
  3 20  1  0
  5 21  1  0
 12 22  1  0
 12 23  1  0
 12 24  1  0
 14 25  1  0
 17 26  1  0
 17 27  1  0
M  END
>  <mol_id>  (23) 
2026-09-18-6fnk-s0-n100-r6-0023

>  <rmsd_to_ref>  (23) 
1.4642857142881234

>  <pose_kind>  (23) 
rigid

$$$$
6fnk.A
     RDKit          3D

 27 29  0  0  0  0  0  0  0  0999 V2000
    3.3928   17.7865   40.5468 C   0  0  0  0  0  0  0  0  0  0  0  0
    4.2125   16.9755   39.7605 C   0  0  0  0  0  0  0  0  0  0  0  0
    4.3965   15.6548   40.1162 C   0  0  0  0  0  0  0  0  0  0  0  0
    3.8184   15.0964   41.1994 N   0  0  0  0  0  0  0  0  0  0  0  0
    3.0144   15.8704   41.9807 C   0  0  0  0  0  0  0  0  0  0  0  0
    2.8060   17.2040   41.6535 C   0  0  0  0  0  0  0  0  0  0  0  0
    1.9406   18.0594   42.4840 C   0  0  0  0  0  0  0  0  0  0  0  0
    1.7214   19.3550   42.1901 N   0  0  0  0  0  0  0  0  0  0  0  0
    1.3369   17.5396   43.5853 N   0  0  0  0  0  0  0  0  0  0  0  0
    0.5412   18.2631   44.3784 C   0  0  0  0  0  0  0  0  0  0  0  0
   -0.1764   18.0283   45.5084 N   0  0  0  0  0  0  0  0  0  0  0  0
   -0.2284   16.7454   46.1822 C   0  0  0  0  0  0  0  0  0  0  0  0
   -0.7849   19.1596   45.8448 N   0  0  0  0  0  0  0  0  0  0  0  0
   -0.4947   20.1420   44.9728 C   0  0  0  0  0  0  0  0  0  0  0  0
    0.3406   19.6028   44.0373 C   0  0  0  0  0  0  0  0  0  0  0  0
    0.9368   20.1630   42.9278 C   0  0  0  0  0  0  0  0  0  0  0  0
    0.7618   21.5188   42.5428 N   0  0  0  0  0  0  0  0  0  0  0  0
    3.2415   18.8226   40.2776 H   0  0  0  0  0  0  0  0  0  0  0  0
    4.6922   17.3944   38.8825 H   0  0  0  0  0  0  0  0  0  0  0  0
    5.0315   15.0151   39.5125 H   0  0  0  0  0  0  0  0  0  0  0  0
    2.5392   15.4456   42.8549 H   0  0  0  0  0  0  0  0  0  0  0  0
   -0.9471   16.8519   47.0269 H   0  0  0  0  0  0  0  0  0  0  0  0
    0.7732   16.4087   46.5253 H   0  0  0  0  0  0  0  0  0  0  0  0
   -0.6554   15.9547   45.5249 H   0  0  0  0  0  0  0  0  0  0  0  0
   -0.8503   21.1790   44.9937 H   0  0  0  0  0  0  0  0  0  0  0  0
    0.6849   22.2437   43.3067 H   0  0  0  0  0  0  0  0  0  0  0  0
    0.7062   21.8285   41.5400 H   0  0  0  0  0  0  0  0  0  0  0  0
  1  2  2  0
  1  6  1  0
  2  3  1  0
  3  4  2  0
  4  5  1  0
  5  6  2  0
  6  7  1  0
  7  8  2  0
  7  9  1  0
  8 16  1  0
  9 10  2  0
 10 11  1  0
 10 15  1  0
 11 12  1  0
 11 13  1  0
 13 14  2  0
 14 15  1  0
 15 16  2  0
 16 17  1  0
  1 18  1  0
  2 19  1  0
  3 20  1  0
  5 21  1  0
 12 22  1  0
 12 23  1  0
 12 24  1  0
 14 25  1  0
 17 26  1  0
 17 27  1  0
M  END
>  <mol_id>  (24) 
2026-09-18-6fnk-s0-n100-r6-0024

>  <rmsd_to_ref>  (24) 
1.510204081640398

>  <pose_kind>  (24) 
conformer

$$$$
6fnk.A
     RDKit          3D

 27 29  0  0  0  0  0  0  0  0999 V2000
    3.1499   15.2461   42.5372 C   0  0  0  0  0  0  0  0  0  0  0  0
    3.5571   13.9407   42.8130 C   0  0  0  0  0  0  0  0  0  0  0  0
    2.9849   13.2448   43.8679 C   0  0  0  0  0  0  0  0  0  0  0  0
    1.9986   13.8511   44.6507 N   0  0  0  0  0  0  0  0  0  0  0  0
    1.5921   15.1649   44.3718 C   0  0  0  0  0  0  0  0  0  0  0  0
    2.1675   15.8657   43.3135 C   0  0  0  0  0  0  0  0  0  0  0  0
    1.7621   17.1759   43.0395 C   0  0  0  0  0  0  0  0  0  0  0  0
    2.4180   17.9290   42.1459 N   0  0  0  0  0  0  0  0  0  0  0  0
    0.7010   17.6895   43.6698 N   0  0  0  0  0  0  0  0  0  0  0  0
    0.2864   18.9479   43.4392 C   0  0  0  0  0  0  0  0  0  0  0  0
   -0.7205   19.6717   43.9517 N   0  0  0  0  0  0  0  0  0  0  0  0
   -1.6826   19.2159   44.9595 C   0  0  0  0  0  0  0  0  0  0  0  0
   -0.7439   20.7964   43.4501 N   0  0  0  0  0  0  0  0  0  0  0  0
    0.2461   20.8533   42.5441 C   0  0  0  0  0  0  0  0  0  0  0  0
    0.9238   19.6976   42.5454 C   0  0  0  0  0  0  0  0  0  0  0  0
    2.0005   19.1828   41.8904 C   0  0  0  0  0  0  0  0  0  0  0  0
    2.6759   19.9200   40.9757 N   0  0  0  0  0  0  0  0  0  0  0  0
    3.6071   15.7934   41.6997 H   0  0  0  0  0  0  0  0  0  0  0  0
    4.3314   13.4635   42.1943 H   0  0  0  0  0  0  0  0  0  0  0  0
    3.3074   12.2165   44.0881 H   0  0  0  0  0  0  0  0  0  0  0  0
    0.8177   15.6427   44.9899 H   0  0  0  0  0  0  0  0  0  0  0  0
   -1.7191   19.9410   45.7859 H   0  0  0  0  0  0  0  0  0  0  0  0
   -2.6795   19.1304   44.5025 H   0  0  0  0  0  0  0  0  0  0  0  0
   -1.3711   18.2344   45.3464 H   0  0  0  0  0  0  0  0  0  0  0  0
    0.4668   21.7169   41.8995 H   0  0  0  0  0  0  0  0  0  0  0  0
    2.3737   20.8818   40.7647 H   0  0  0  0  0  0  0  0  0  0  0  0
    3.4915   19.5186   40.4913 H   0  0  0  0  0  0  0  0  0  0  0  0
  1  2  2  0
  1  6  1  0
  2  3  1  0
  3  4  2  0
  4  5  1  0
  5  6  2  0
  6  7  1  0
  7  8  2  0
  7  9  1  0
  8 16  1  0
  9 10  2  0
 10 11  1  0
 10 15  1  0
 11 12  1  0
 11 13  1  0
 13 14  2  0
 14 15  1  0
 15 16  2  0
 16 17  1  0
  1 18  1  0
  2 19  1  0
  3 20  1  0
  5 21  1  0
 12 22  1  0
 12 23  1  0
 12 24  1  0
 14 25  1  0
 17 26  1  0
 17 27  1  0
M  END
>  <mol_id>  (25) 
2026-09-18-6fnk-s0-n100-r6-0025

>  <rmsd_to_ref>  (25) 
1.5561224489835068

>  <pose_kind>  (25) 
rigid

$$$$
6fnk.A
     RDKit          3D

 27 29  0  0  0  0  0  0  0  0999 V2000
    1.7116   16.2338   40.2973 C   0  0  0  0  0  0  0  0  0  0  0  0
    1.6784   14.9083   39.9026 C   0  0  0  0  0  0  0  0  0  0  0  0
    1.7276   13.8800   40.8385 C   0  0  0  0  0  0  0  0  0  0  0  0
    1.8093   14.1366   42.1620 N   0  0  0  0  0  0  0  0  0  0  0  0
    1.8428   15.4198   42.5661 C   0  0  0  0  0  0  0  0  0  0  0  0
    1.7960   16.4802   41.6679 C   0  0  0  0  0  0  0  0  0  0  0  0
    1.8342   17.8801   42.1368 C   0  0  0  0  0  0  0  0  0  0  0  0
    1.7876   18.8886   41.2461 N   0  0  0  0  0  0  0  0  0  0  0  0
    1.9158   18.0925   43.4634 N   0  0  0  0  0  0  0  0  0  0  0  0
    1.9519   19.3613   43.9127 C   0  0  0  0  0  0  0  0  0  0  0  0
    2.0315   19.8702   45.1728 N   0  0  0  0  0  0  0  0  0  0  0  0
    2.1002   19.0705   46.4048 C   0  0  0  0  0  0  0  0  0  0  0  0
    2.0352   21.1887   45.0785 N   0  0  0  0  0  0  0  0  0  0  0  0
    1.9606   21.5752   43.7963 C   0  0  0  0  0  0  0  0  0  0  0  0
    1.9067   20.4246   43.0388 C   0  0  0  0  0  0  0  0  0  0  0  0
    1.8233   20.1589   41.6882 C   0  0  0  0  0  0  0  0  0  0  0  0
    1.7750   21.2237   40.7634 N   0  0  0  0  0  0  0  0  0  0  0  0
    1.6740   17.0434   39.5806 H   0  0  0  0  0  0  0  0  0  0  0  0
    1.6125   14.6746   38.8391 H   0  0  0  0  0  0  0  0  0  0  0  0
    1.6959   12.8785   40.4318 H   0  0  0  0  0  0  0  0  0  0  0  0
    1.9091   15.6077   43.6439 H   0  0  0  0  0  0  0  0  0  0  0  0
    1.0725   18.7387   46.6591 H   0  0  0  0  0  0  0  0  0  0  0  0
    2.6514   18.1216   46.1531 H   0  0  0  0  0  0  0  0  0  0  0  0
    2.6182   19.6207   47.2061 H   0  0  0  0  0  0  0  0  0  0  0  0
    1.9425   22.5890   43.3773 H   0  0  0  0  0  0  0  0  0  0  0  0
    2.4477   21.3139   39.9730 H   0  0  0  0  0  0  0  0  0  0  0  0
    1.0378   21.9609   40.8637 H   0  0  0  0  0  0  0  0  0  0  0  0
  1  2  2  0
  1  6  1  0
  2  3  1  0
  3  4  2  0
  4  5  1  0
  5  6  2  0
  6  7  1  0
  7  8  2  0
  7  9  1  0
  8 16  1  0
  9 10  2  0
 10 11  1  0
 10 15  1  0
 11 12  1  0
 11 13  1  0
 13 14  2  0
 14 15  1  0
 15 16  2  0
 16 17  1  0
  1 18  1  0
  2 19  1  0
  3 20  1  0
  5 21  1  0
 12 22  1  0
 12 23  1  0
 12 24  1  0
 14 25  1  0
 17 26  1  0
 17 27  1  0
M  END
>  <mol_id>  (26) 
2026-09-18-6fnk-s0-n100-r6-0026

>  <rmsd_to_ref>  (26) 
1.6020408163295081

>  <pose_kind>  (26) 
conformer

$$$$
6fnk.A
     RDKit          3D

 27 29  0  0  0  0  0  0  0  0999 V2000
    3.5381   15.0869   42.2822 C   0  0  0  0  0  0  0  0  0  0  0  0
    4.0470   13.8280   42.6020 C   0  0  0  0  0  0  0  0  0  0  0  0
    3.4632   13.0818   43.6153 C   0  0  0  0  0  0  0  0  0  0  0  0
    2.3637   13.5906   44.3120 N   0  0  0  0  0  0  0  0  0  0  0  0
    1.8550   14.8578   43.9891 C   0  0  0  0  0  0  0  0  0  0  0  0
    2.4418   15.6092   42.9726 C   0  0  0  0  0  0  0  0  0  0  0  0
    1.9340   16.8730   42.6546 C   0  0  0  0  0  0  0  0  0  0  0  0
    2.5825   17.6847   41.8081 N   0  0  0  0  0  0  0  0  0  0  0  0
    0.7814   17.2819   43.1944 N   0  0  0  0  0  0  0  0  0  0  0  0
    0.2661   18.4934   42.9195 C   0  0  0  0  0  0  0  0  0  0  0  0
   -0.8437   19.1165   43.3439 N   0  0  0  0  0  0  0  0  0  0  0  0
   -1.8339   18.5712   44.2772 C   0  0  0  0  0  0  0  0  0  0  0  0
   -0.9364   20.2325   42.8309 N   0  0  0  0  0  0  0  0  0  0  0  0
    0.1122   20.3839   42.0053 C   0  0  0  0  0  0  0  0  0  0  0  0
    0.8967   19.2998   42.0713 C   0  0  0  0  0  0  0  0  0  0  0  0
    2.0669   18.8912   41.5082 C   0  0  0  0  0  0  0  0  0  0  0  0
    2.7379   19.6889   40.6423 N   0  0  0  0  0  0  0  0  0  0  0  0
    4.0050   15.6744   41.4779 H   0  0  0  0  0  0  0  0  0  0  0  0
    4.9106   13.4273   42.0510 H   0  0  0  0  0  0  0  0  0  0  0  0
    3.8655   12.0903   43.8703 H   0  0  0  0  0  0  0  0  0  0  0  0
    0.9912   15.2590   44.5395 H   0  0  0  0  0  0  0  0  0  0  0  0
   -2.0061   19.2909   45.0910 H   0  0  0  0  0  0  0  0  0  0  0  0
   -2.7784   18.3878   43.7440 H   0  0  0  0  0  0  0  0  0  0  0  0
   -1.4603   17.6256   44.6970 H   0  0  0  0  0  0  0  0  0  0  0  0
    0.2984   21.2635   41.3716 H   0  0  0  0  0  0  0  0  0  0  0  0
    2.3614   20.6162   40.3988 H   0  0  0  0  0  0  0  0  0  0  0  0
    3.6244   19.3680   40.2277 H   0  0  0  0  0  0  0  0  0  0  0  0
  1  2  2  0
  1  6  1  0
  2  3  1  0
  3  4  2  0
  4  5  1  0
  5  6  2  0
  6  7  1  0
  7  8  2  0
  7  9  1  0
  8 16  1  0
  9 10  2  0
 10 11  1  0
 10 15  1  0
 11 12  1  0
 11 13  1  0
 13 14  2  0
 14 15  1  0
 15 16  2  0
 16 17  1  0
  1 18  1  0
  2 19  1  0
  3 20  1  0
  5 21  1  0
 12 22  1  0
 12 23  1  0
 12 24  1  0
 14 25  1  0
 17 26  1  0
 17 27  1  0
M  END
>  <mol_id>  (27) 
2026-09-18-6fnk-s0-n100-r6-0027

>  <rmsd_to_ref>  (27) 
1.6479591836739118

>  <pose_kind>  (27) 
rigid

$$$$
6fnk.A
     RDKit          3D

 27 29  0  0  0  0  0  0  0  0999 V2000
    1.1271   14.8569   41.1442 C   0  0  0  0  0  0  0  0  0  0  0  0
    1.6246   13.5786   41.0769 C   0  0  0  0  0  0  0  0  0  0  0  0
    2.1949   12.9718   42.1934 C   0  0  0  0  0  0  0  0  0  0  0  0
    2.2701   13.6388   43.3799 N   0  0  0  0  0  0  0  0  0  0  0  0
    1.7856   14.9004   43.4687 C   0  0  0  0  0  0  0  0  0  0  0  0
    1.2136   15.5255   42.3716 C   0  0  0  0  0  0  0  0  0  0  0  0
    0.6816   16.8860   42.4348 C   0  0  0  0  0  0  0  0  0  0  0  0
    0.1215   17.4845   41.3415 N   0  0  0  0  0  0  0  0  0  0  0  0
    0.7573   17.5452   43.6121 N   0  0  0  0  0  0  0  0  0  0  0  0
    0.2833   18.8007   43.7285 C   0  0  0  0  0  0  0  0  0  0  0  0
    0.1967   19.7185   44.7076 N   0  0  0  0  0  0  0  0  0  0  0  0
    0.6670   19.5339   46.0680 C   0  0  0  0  0  0  0  0  0  0  0  0
   -0.3795   20.8260   44.2670 N   0  0  0  0  0  0  0  0  0  0  0  0
   -0.6871   20.6524   42.9676 C   0  0  0  0  0  0  0  0  0  0  0  0
   -0.2775   19.3839   42.6115 C   0  0  0  0  0  0  0  0  0  0  0  0
   -0.3593   18.7261   41.4153 C   0  0  0  0  0  0  0  0  0  0  0  0
   -0.9370   19.3158   40.2492 N   0  0  0  0  0  0  0  0  0  0  0  0
    0.6736   15.3504   40.2712 H   0  0  0  0  0  0  0  0  0  0  0  0
    1.5869   13.0089   40.1548 H   0  0  0  0  0  0  0  0  0  0  0  0
    2.5869   11.9699   42.1479 H   0  0  0  0  0  0  0  0  0  0  0  0
    1.8258   15.4720   44.4021 H   0  0  0  0  0  0  0  0  0  0  0  0
   -0.2174   19.4433   46.7363 H   0  0  0  0  0  0  0  0  0  0  0  0
    1.2834   20.4216   46.3765 H   0  0  0  0  0  0  0  0  0  0  0  0
    1.3384   18.6732   46.1381 H   0  0  0  0  0  0  0  0  0  0  0  0
   -1.1682   21.3857   42.3335 H   0  0  0  0  0  0  0  0  0  0  0  0
   -1.5016   18.6741   39.6167 H   0  0  0  0  0  0  0  0  0  0  0  0
   -0.8153   20.3393   40.0168 H   0  0  0  0  0  0  0  0  0  0  0  0
  1  2  2  0
  1  6  1  0
  2  3  1  0
  3  4  2  0
  4  5  1  0
  5  6  2  0
  6  7  1  0
  7  8  2  0
  7  9  1  0
  8 16  1  0
  9 10  2  0
 10 11  1  0
 10 15  1  0
 11 12  1  0
 11 13  1  0
 13 14  2  0
 14 15  1  0
 15 16  2  0
 16 17  1  0
  1 18  1  0
  2 19  1  0
  3 20  1  0
  5 21  1  0
 12 22  1  0
 12 23  1  0
 12 24  1  0
 14 25  1  0
 17 26  1  0
 17 27  1  0
M  END
>  <mol_id>  (28) 
2026-09-18-6fnk-s0-n100-r6-0028

>  <rmsd_to_ref>  (28) 
1.6938775510232362

>  <pose_kind>  (28) 
conformer

$$$$
6fnk.A
     RDKit          3D

 27 29  0  0  0  0  0  0  0  0999 V2000
    1.5635   17.4984   39.9191 C   0  0  0  0  0  0  0  0  0  0  0  0
    1.7239   16.4676   38.9930 C   0  0  0  0  0  0  0  0  0  0  0  0
    2.0274   15.1860   39.4285 C   0  0  0  0  0  0  0  0  0  0  0  0
    2.1685   14.9283   40.7949 N   0  0  0  0  0  0  0  0  0  0  0  0
    2.0081   15.9675   41.7240 C   0  0  0  0  0  0  0  0  0  0  0  0
    1.7051   17.2558   41.2875 C   0  0  0  0  0  0  0  0  0  0  0  0
    1.5481   18.2901   42.2158 C   0  0  0  0  0  0  0  0  0  0  0  0
    1.4315   19.5642   41.8169 N   0  0  0  0  0  0  0  0  0  0  0  0
    1.5065   18.0106   43.5224 N   0  0  0  0  0  0  0  0  0  0  0  0
    1.3656   18.9789   44.4452 C   0  0  0  0  0  0  0  0  0  0  0  0
    1.3143   18.9439   45.7855 N   0  0  0  0  0  0  0  0  0  0  0  0
    1.4010   17.7414   46.6194 C   0  0  0  0  0  0  0  0  0  0  0  0
    1.1717   20.0787   46.2427 N   0  0  0  0  0  0  0  0  0  0  0  0
    1.0891   20.9241   45.2022 C   0  0  0  0  0  0  0  0  0  0  0  0
    1.2368   20.2439   44.0574 C   0  0  0  0  0  0  0  0  0  0  0  0
    1.2687   20.5403   42.7291 C   0  0  0  0  0  0  0  0  0  0  0  0
    1.1440   21.8192   42.2987 N   0  0  0  0  0  0  0  0  0  0  0  0
    1.3231   18.5128   39.5682 H   0  0  0  0  0  0  0  0  0  0  0  0
    1.6097   16.6709   37.9180 H   0  0  0  0  0  0  0  0  0  0  0  0
    2.1570   14.3730   38.6989 H   0  0  0  0  0  0  0  0  0  0  0  0
    2.1219   15.7649   42.7992 H   0  0  0  0  0  0  0  0  0  0  0  0
    2.1754   17.8831   47.3877 H   0  0  0  0  0  0  0  0  0  0  0  0
    0.4308   17.5615   47.1054 H   0  0  0  0  0  0  0  0  0  0  0  0
    1.6621   16.8773   45.9907 H   0  0  0  0  0  0  0  0  0  0  0  0
    0.9253   22.0091   45.2784 H   0  0  0  0  0  0  0  0  0  0  0  0
    1.0185   22.5819   42.9796 H   0  0  0  0  0  0  0  0  0  0  0  0
    1.1746   22.0287   41.2907 H   0  0  0  0  0  0  0  0  0  0  0  0
  1  2  2  0
  1  6  1  0
  2  3  1  0
  3  4  2  0
  4  5  1  0
  5  6  2  0
  6  7  1  0
  7  8  2  0
  7  9  1  0
  8 16  1  0
  9 10  2  0
 10 11  1  0
 10 15  1  0
 11 12  1  0
 11 13  1  0
 13 14  2  0
 14 15  1  0
 15 16  2  0
 16 17  1  0
  1 18  1  0
  2 19  1  0
  3 20  1  0
  5 21  1  0
 12 22  1  0
 12 23  1  0
 12 24  1  0
 14 25  1  0
 17 26  1  0
 17 27  1  0
M  END
>  <mol_id>  (29) 
2026-09-18-6fnk-s0-n100-r6-0029

>  <rmsd_to_ref>  (29) 
1.7397959183690173

>  <pose_kind>  (29) 
rigid

$$$$
6fnk.A
     RDKit          3D

 27 29  0  0  0  0  0  0  0  0999 V2000
    0.9817   15.7778   41.6558 C   0  0  0  0  0  0  0  0  0  0  0  0
    1.0272   14.6922   40.7815 C   0  0  0  0  0  0  0  0  0  0  0  0
    1.8633   14.7900   39.6771 C   0  0  0  0  0  0  0  0  0  0  0  0
    2.6157   15.8777   39.4293 N   0  0  0  0  0  0  0  0  0  0  0  0
    2.5723   16.9243   40.2716 C   0  0  0  0  0  0  0  0  0  0  0  0
    1.7589   16.8917   41.3927 C   0  0  0  0  0  0  0  0  0  0  0  0
    1.7500   18.0537   42.2724 C   0  0  0  0  0  0  0  0  0  0  0  0
    2.5344   19.0969   41.9465 N   0  0  0  0  0  0  0  0  0  0  0  0
    0.9800   18.0811   43.3771 N   0  0  0  0  0  0  0  0  0  0  0  0
    0.9686   19.1492   44.1902 C   0  0  0  0  0  0  0  0  0  0  0  0
    0.3174   19.4672   45.3446 N   0  0  0  0  0  0  0  0  0  0  0  0
   -0.6128   18.5570   45.9751 C   0  0  0  0  0  0  0  0  0  0  0  0
    0.6855   20.6827   45.7334 N   0  0  0  0  0  0  0  0  0  0  0  0
    1.5710   21.1726   44.8521 C   0  0  0  0  0  0  0  0  0  0  0  0
    1.7674   20.2258   43.8690 C   0  0  0  0  0  0  0  0  0  0  0  0
    2.5531   20.1882   42.7346 C   0  0  0  0  0  0  0  0  0  0  0  0
    3.3933   21.2885   42.3727 N   0  0  0  0  0  0  0  0  0  0  0  0
    0.3409   15.7325   42.5244 H   0  0  0  0  0  0  0  0  0  0  0  0
    0.4437   13.7979   40.9356 H   0  0  0  0  0  0  0  0  0  0  0  0
    1.8952   13.9525   39.0071 H   0  0  0  0  0  0  0  0  0  0  0  0
    3.1968   17.7755   40.0274 H   0  0  0  0  0  0  0  0  0  0  0  0
   -1.5916   18.5753   45.4532 H   0  0  0  0  0  0  0  0  0  0  0  0
   -0.2082   17.5492   46.1049 H   0  0  0  0  0  0  0  0  0  0  0  0
   -0.8259   18.9883   46.9960 H   0  0  0  0  0  0  0  0  0  0  0  0
    2.0706   22.1244   44.8590 H   0  0  0  0  0  0  0  0  0  0  0  0
    4.0855   21.6853   43.0740 H   0  0  0  0  0  0  0  0  0  0  0  0
    3.2971   21.6778   41.4044 H   0  0  0  0  0  0  0  0  0  0  0  0
  1  2  2  0
  1  6  1  0
  2  3  1  0
  3  4  2  0
  4  5  1  0
  5  6  2  0
  6  7  1  0
  7  8  2  0
  7  9  1  0
  8 16  1  0
  9 10  2  0
 10 11  1  0
 10 15  1  0
 11 12  1  0
 11 13  1  0
 13 14  2  0
 14 15  1  0
 15 16  2  0
 16 17  1  0
  1 18  1  0
  2 19  1  0
  3 20  1  0
  5 21  1  0
 12 22  1  0
 12 23  1  0
 12 24  1  0
 14 25  1  0
 17 26  1  0
 17 27  1  0
M  END
>  <mol_id>  (30) 
2026-09-18-6fnk-s0-n100-r6-0030

>  <rmsd_to_ref>  (30) 
1.785714285714551

>  <pose_kind>  (30) 
conformer

$$$$
6fnk.A
     RDKit          3D

 27 29  0  0  0  0  0  0  0  0999 V2000
    2.4933   17.1540   40.1418 C   0  0  0  0  0  0  0  0  0  0  0  0
    2.7259   16.2959   39.0669 C   0  0  0  0  0  0  0  0  0  0  0  0
    2.6951   14.9222   39.2578 C   0  0  0  0  0  0  0  0  0  0  0  0
    2.4272   14.3996   40.5261 N   0  0  0  0  0  0  0  0  0  0  0  0
    2.1952   15.2653   41.6057 C   0  0  0  0  0  0  0  0  0  0  0  0
    2.2278   16.6455   41.4156 C   0  0  0  0  0  0  0  0  0  0  0  0
    1.9984   17.5058   42.4941 C   0  0  0  0  0  0  0  0  0  0  0  0
    2.1961   18.8263   42.3783 N   0  0  0  0  0  0  0  0  0  0  0  0
    1.5691   17.0117   43.6597 N   0  0  0  0  0  0  0  0  0  0  0  0
    1.3459   17.8062   44.7216 C   0  0  0  0  0  0  0  0  0  0  0  0
    0.9374   17.5429   45.9723 N   0  0  0  0  0  0  0  0  0  0  0  0
    0.6078   16.2195   46.5098 C   0  0  0  0  0  0  0  0  0  0  0  0
    0.8622   18.5813   46.6304 N   0  0  0  0  0  0  0  0  0  0  0  0
    1.1934   19.5978   45.8172 C   0  0  0  0  0  0  0  0  0  0  0  0
    1.5276   19.1185   44.6116 C   0  0  0  0  0  0  0  0  0  0  0  0
    1.9562   19.6349   43.4271 C   0  0  0  0  0  0  0  0  0  0  0  0
    2.1553   20.9673   43.2807 N   0  0  0  0  0  0  0  0  0  0  0  0
    2.5192   18.2424   39.9848 H   0  0  0  0  0  0  0  0  0  0  0  0
    2.9337   16.7082   38.0685 H   0  0  0  0  0  0  0  0  0  0  0  0
    2.8813   14.2446   38.4115 H   0  0  0  0  0  0  0  0  0  0  0  0
    1.9871   14.8536   42.6044 H   0  0  0  0  0  0  0  0  0  0  0  0
    1.1640   16.0544   47.4443 H   0  0  0  0  0  0  0  0  0  0  0  0
   -0.4722   16.1642   46.7112 H   0  0  0  0  0  0  0  0  0  0  0  0
    0.8842   15.4470   45.7772 H   0  0  0  0  0  0  0  0  0  0  0  0
    1.1906   20.6613   46.0982 H   0  0  0  0  0  0  0  0  0  0  0  0
    1.9779   21.6044   44.0703 H   0  0  0  0  0  0  0  0  0  0  0  0
    2.4841   21.3429   42.3797 H   0  0  0  0  0  0  0  0  0  0  0  0
  1  2  2  0
  1  6  1  0
  2  3  1  0
  3  4  2  0
  4  5  1  0
  5  6  2  0
  6  7  1  0
  7  8  2  0
  7  9  1  0
  8 16  1  0
  9 10  2  0
 10 11  1  0
 10 15  1  0
 11 12  1  0
 11 13  1  0
 13 14  2  0
 14 15  1  0
 15 16  2  0
 16 17  1  0
  1 18  1  0
  2 19  1  0
  3 20  1  0
  5 21  1  0
 12 22  1  0
 12 23  1  0
 12 24  1  0
 14 25  1  0
 17 26  1  0
 17 27  1  0
M  END
>  <mol_id>  (31) 
2026-09-18-6fnk-s0-n100-r6-0031

>  <rmsd_to_ref>  (31) 
1.831632653065585

>  <pose_kind>  (31) 
rigid

$$$$
6fnk.A
     RDKit          3D

 27 29  0  0  0  0  0  0  0  0999 V2000
    3.4621   18.1420   40.4677 C   0  0  0  0  0  0  0  0  0  0  0  0
    3.9888   17.4176   39.4266 C   0  0  0  0  0  0  0  0  0  0  0  0
    3.6809   16.0690   39.2638 C   0  0  0  0  0  0  0  0  0  0  0  0
    2.8468   15.4397   40.1394 N   0  0  0  0  0  0  0  0  0  0  0  0
    2.3161   16.1351   41.1734 C   0  0  0  0  0  0  0  0  0  0  0  0
    2.6075   17.4779   41.3563 C   0  0  0  0  0  0  0  0  0  0  0  0
    2.0510   18.2563   42.4620 C   0  0  0  0  0  0  0  0  0  0  0  0
    2.3508   19.5794   42.6248 N   0  0  0  0  0  0  0  0  0  0  0  0
    1.2243   17.6303   43.3287 N   0  0  0  0  0  0  0  0  0  0  0  0
    0.6826   18.2978   44.3658 C   0  0  0  0  0  0  0  0  0  0  0  0
   -0.1477   18.0036   45.3819 N   0  0  0  0  0  0  0  0  0  0  0  0
   -0.7372   16.7005   45.6270 C   0  0  0  0  0  0  0  0  0  0  0  0
   -0.3616   19.0678   46.1400 N   0  0  0  0  0  0  0  0  0  0  0  0
    0.3367   20.0981   45.6262 C   0  0  0  0  0  0  0  0  0  0  0  0
    0.9999   19.6323   44.5095 C   0  0  0  0  0  0  0  0  0  0  0  0
    1.8352   20.2757   43.6385 C   0  0  0  0  0  0  0  0  0  0  0  0
    2.1738   21.6572   43.7733 N   0  0  0  0  0  0  0  0  0  0  0  0
    3.6954   19.2081   40.6102 H   0  0  0  0  0  0  0  0  0  0  0  0
    4.6568   17.8752   38.7052 H   0  0  0  0  0  0  0  0  0  0  0  0
    4.0902   15.4949   38.4499 H   0  0  0  0  0  0  0  0  0  0  0  0
    1.6418   15.6689   41.8997 H   0  0  0  0  0  0  0  0  0  0  0  0
   -1.8232   16.7565   45.3933 H   0  0  0  0  0  0  0  0  0  0  0  0
   -0.5977   16.4217   46.7068 H   0  0  0  0  0  0  0  0  0  0  0  0
   -0.2224   15.9228   45.0554 H   0  0  0  0  0  0  0  0  0  0  0  0
    0.3614   21.1022   46.0293 H   0  0  0  0  0  0  0  0  0  0  0  0
    2.2719   22.2169   42.8746 H   0  0  0  0  0  0  0  0  0  0  0  0
    2.3219   22.1111   44.7159 H   0  0  0  0  0  0  0  0  0  0  0  0
  1  2  2  0
  1  6  1  0
  2  3  1  0
  3  4  2  0
  4  5  1  0
  5  6  2  0
  6  7  1  0
  7  8  2  0
  7  9  1  0
  8 16  1  0
  9 10  2  0
 10 11  1  0
 10 15  1  0
 11 12  1  0
 11 13  1  0
 13 14  2  0
 14 15  1  0
 15 16  2  0
 16 17  1  0
  1 18  1  0
  2 19  1  0
  3 20  1  0
  5 21  1  0
 12 22  1  0
 12 23  1  0
 12 24  1  0
 14 25  1  0
 17 26  1  0
 17 27  1  0
M  END
>  <mol_id>  (32) 
2026-09-18-6fnk-s0-n100-r6-0032

>  <rmsd_to_ref>  (32) 
1.877551020410864

>  <pose_kind>  (32) 
conformer

$$$$
6fnk.A
     RDKit          3D

 27 29  0  0  0  0  0  0  0  0999 V2000
    0.6410   16.9082   39.9230 C   0  0  0  0  0  0  0  0  0  0  0  0
    0.9250   15.9497   38.9501 C   0  0  0  0  0  0  0  0  0  0  0  0
    1.5006   14.7415   39.3151 C   0  0  0  0  0  0  0  0  0  0  0  0
    1.7917   14.4845   40.6577 N   0  0  0  0  0  0  0  0  0  0  0  0
    1.5063   15.4511   41.6339 C   0  0  0  0  0  0  0  0  0  0  0  0
    0.9298   16.6661   41.2681 C   0  0  0  0  0  0  0  0  0  0  0  0
    0.6486   17.6286   42.2431 C   0  0  0  0  0  0  0  0  0  0  0  0
    0.2601   18.8648   41.9012 N   0  0  0  0  0  0  0  0  0  0  0  0
    0.7606   17.3162   43.5381 N   0  0  0  0  0  0  0  0  0  0  0  0
    0.5073   18.2172   44.5040 C   0  0  0  0  0  0  0  0  0  0  0  0
    0.5655   18.1419   45.8423 N   0  0  0  0  0  0  0  0  0  0  0  0
    0.9441   16.9601   46.6226 C   0  0  0  0  0  0  0  0  0  0  0  0
    0.2433   19.2167   46.3505 N   0  0  0  0  0  0  0  0  0  0  0  0
   -0.0784   20.0539   45.3506 C   0  0  0  0  0  0  0  0  0  0  0  0
    0.1095   19.4419   44.1737 C   0  0  0  0  0  0  0  0  0  0  0  0
   -0.0169   19.7695   42.8584 C   0  0  0  0  0  0  0  0  0  0  0  0
   -0.4166   21.0096   42.4858 N   0  0  0  0  0  0  0  0  0  0  0  0
    0.1848   17.8647   39.6279 H   0  0  0  0  0  0  0  0  0  0  0  0
    0.6927   16.1519   37.8940 H   0  0  0  0  0  0  0  0  0  0  0  0
    1.7278   13.9862   38.5484 H   0  0  0  0  0  0  0  0  0  0  0  0
    1.7381   15.2496   42.6901 H   0  0  0  0  0  0  0  0  0  0  0  0
    1.7330   17.2313   47.3396 H   0  0  0  0  0  0  0  0  0  0  0  0
    0.0660   16.5843   47.1684 H   0  0  0  0  0  0  0  0  0  0  0  0
    1.3173   16.1777   45.9454 H   0  0  0  0  0  0  0  0  0  0  0  0
   -0.4407   21.0846   45.4785 H   0  0  0  0  0  0  0  0  0  0  0  0
   -0.6337   21.7175   43.2018 H   0  0  0  0  0  0  0  0  0  0  0  0
   -0.5032   21.2443   41.4867 H   0  0  0  0  0  0  0  0  0  0  0  0
  1  2  2  0
  1  6  1  0
  2  3  1  0
  3  4  2  0
  4  5  1  0
  5  6  2  0
  6  7  1  0
  7  8  2  0
  7  9  1  0
  8 16  1  0
  9 10  2  0
 10 11  1  0
 10 15  1  0
 11 12  1  0
 11 13  1  0
 13 14  2  0
 14 15  1  0
 15 16  2  0
 16 17  1  0
  1 18  1  0
  2 19  1  0
  3 20  1  0
  5 21  1  0
 12 22  1  0
 12 23  1  0
 12 24  1  0
 14 25  1  0
 17 26  1  0
 17 27  1  0
M  END
>  <mol_id>  (33) 
2026-09-18-6fnk-s0-n100-r6-0033

>  <rmsd_to_ref>  (33) 
1.923469387757047

>  <pose_kind>  (33) 
rigid

$$$$
6fnk.A
     RDKit          3D

 27 29  0  0  0  0  0  0  0  0999 V2000
    3.6473   17.4613   40.8943 C   0  0  0  0  0  0  0  0  0  0  0  0
    4.7762   16.7551   40.5048 C   0  0  0  0  0  0  0  0  0  0  0  0
    4.8553   15.4122   40.8469 C   0  0  0  0  0  0  0  0  0  0  0  0
    3.8693   14.7965   41.5391 N   0  0  0  0  0  0  0  0  0  0  0  0
    2.7839   15.4999   41.9066 C   0  0  0  0  0  0  0  0  0  0  0  0
    2.6275   16.8365   41.6068 C   0  0  0  0  0  0  0  0  0  0  0  0
    1.4450   17.5956   42.0092 C   0  0  0  0  0  0  0  0  0  0  0  0
    1.2921   18.9091   41.7142 N   0  0  0  0  0  0  0  0  0  0  0  0
    0.4881   16.9333   42.6995 N   0  0  0  0  0  0  0  0  0  0  0  0
   -0.6485   17.5187   43.1274 C   0  0  0  0  0  0  0  0  0  0  0  0
   -1.7394   17.1227   43.8118 N   0  0  0  0  0  0  0  0  0  0  0  0
   -1.9705   15.7768   44.3171 C   0  0  0  0  0  0  0  0  0  0  0  0
   -2.5807   18.1570   43.9569 N   0  0  0  0  0  0  0  0  0  0  0  0
   -2.0543   19.2625   43.3656 C   0  0  0  0  0  0  0  0  0  0  0  0
   -0.8226   18.8724   42.8320 C   0  0  0  0  0  0  0  0  0  0  0  0
    0.1639   19.5505   42.1219 C   0  0  0  0  0  0  0  0  0  0  0  0
   -0.0176   20.9333   41.8221 N   0  0  0  0  0  0  0  0  0  0  0  0
    3.5973   18.5157   40.6194 H   0  0  0  0  0  0  0  0  0  0  0  0
    5.5824   17.2447   39.9428 H   0  0  0  0  0  0  0  0  0  0  0  0
    5.7381   14.8467   40.5461 H   0  0  0  0  0  0  0  0  0  0  0  0
    1.9735   15.0382   42.4628 H   0  0  0  0  0  0  0  0  0  0  0  0
   -0.9689   15.2762   44.4333 H   0  0  0  0  0  0  0  0  0  0  0  0
   -2.5283   15.1404   43.5913 H   0  0  0  0  0  0  0  0  0  0  0  0
   -2.4311   15.7459   45.3112 H   0  0  0  0  0  0  0  0  0  0  0  0
   -2.4971   20.2541   43.3144 H   0  0  0  0  0  0  0  0  0  0  0  0
   -0.4100   21.2591   40.9062 H   0  0  0  0  0  0  0  0  0  0  0  0
    0.2284   21.7006   42.4942 H   0  0  0  0  0  0  0  0  0  0  0  0
  1  2  2  0
  1  6  1  0
  2  3  1  0
  3  4  2  0
  4  5  1  0
  5  6  2  0
  6  7  1  0
  7  8  2  0
  7  9  1  0
  8 16  1  0
  9 10  2  0
 10 11  1  0
 10 15  1  0
 11 12  1  0
 11 13  1  0
 13 14  2  0
 14 15  1  0
 15 16  2  0
 16 17  1  0
  1 18  1  0
  2 19  1  0
  3 20  1  0
  5 21  1  0
 12 22  1  0
 12 23  1  0
 12 24  1  0
 14 25  1  0
 17 26  1  0
 17 27  1  0
M  END
>  <mol_id>  (34) 
2026-09-18-6fnk-s0-n100-r6-0034

>  <rmsd_to_ref>  (34) 
1.969387755109737

>  <pose_kind>  (34) 
conformer

$$$$
6fnk.A
     RDKit          3D

 27 29  0  0  0  0  0  0  0  0999 V2000
    2.8241   17.9711   40.2115 C   0  0  0  0  0  0  0  0  0  0  0  0
    3.4800   17.2771   39.1945 C   0  0  0  0  0  0  0  0  0  0  0  0
    4.0451   16.0373   39.4548 C   0  0  0  0  0  0  0  0  0  0  0  0
    3.9535   15.4832   40.7346 N   0  0  0  0  0  0  0  0  0  0  0  0
    3.2945   16.1843   41.7560 C   0  0  0  0  0  0  0  0  0  0  0  0
    2.7280   17.4308   41.4962 C   0  0  0  0  0  0  0  0  0  0  0  0
    2.0739   18.1283   42.5169 C   0  0  0  0  0  0  0  0  0  0  0  0
    1.6767   19.3963   42.3420 N   0  0  0  0  0  0  0  0  0  0  0  0
    1.8318   17.5255   43.6852 N   0  0  0  0  0  0  0  0  0  0  0  0
    1.2133   18.1663   44.6930 C   0  0  0  0  0  0  0  0  0  0  0  0
    0.8827   17.7819   45.9353 N   0  0  0  0  0  0  0  0  0  0  0  0
    1.1357   16.4638   46.5248 C   0  0  0  0  0  0  0  0  0  0  0  0
    0.3152   18.6963   46.5345 N   0  0  0  0  0  0  0  0  0  0  0  0
    0.2167   19.7328   45.6859 C   0  0  0  0  0  0  0  0  0  0  0  0
    0.8050   19.4200   44.5237 C   0  0  0  0  0  0  0  0  0  0  0  0
    1.0378   20.0419   43.3352 C   0  0  0  0  0  0  0  0  0  0  0  0
    0.6387   21.3205   43.1294 N   0  0  0  0  0  0  0  0  0  0  0  0
    2.3780   18.9540   39.9997 H   0  0  0  0  0  0  0  0  0  0  0  0
    3.5489   17.7128   38.1869 H   0  0  0  0  0  0  0  0  0  0  0  0
    4.5651   15.4905   38.6543 H   0  0  0  0  0  0  0  0  0  0  0  0
    3.2250   15.7491   42.7638 H   0  0  0  0  0  0  0  0  0  0  0  0
    1.6461   16.5863   47.4915 H   0  0  0  0  0  0  0  0  0  0  0  0
    0.1801   15.9412   46.6783 H   0  0  0  0  0  0  0  0  0  0  0  0
    1.7710   15.8748   45.8469 H   0  0  0  0  0  0  0  0  0  0  0  0
   -0.2725   20.6920   45.9110 H   0  0  0  0  0  0  0  0  0  0  0  0
    0.1481   21.8333   43.8758 H   0  0  0  0  0  0  0  0  0  0  0  0
    0.8258   21.7794   42.2264 H   0  0  0  0  0  0  0  0  0  0  0  0
  1  2  2  0
  1  6  1  0
  2  3  1  0
  3  4  2  0
  4  5  1  0
  5  6  2  0
  6  7  1  0
  7  8  2  0
  7  9  1  0
  8 16  1  0
  9 10  2  0
 10 11  1  0
 10 15  1  0
 11 12  1  0
 11 13  1  0
 13 14  2  0
 14 15  1  0
 15 16  2  0
 16 17  1  0
  1 18  1  0
  2 19  1  0
  3 20  1  0
  5 21  1  0
 12 22  1  0
 12 23  1  0
 12 24  1  0
 14 25  1  0
 17 26  1  0
 17 27  1  0
M  END
>  <mol_id>  (35) 
2026-09-18-6fnk-s0-n100-r6-0035

>  <rmsd_to_ref>  (35) 
2.0153061224490902

>  <pose_kind>  (35) 
rigid

$$$$
6fnk.A
     RDKit          3D

 27 29  0  0  0  0  0  0  0  0999 V2000
    1.6065   15.0714   44.5364 C   0  0  0  0  0  0  0  0  0  0  0  0
    1.9123   13.7569   44.7895 C   0  0  0  0  0  0  0  0  0  0  0  0
    2.4753   12.9057   43.8624 C   0  0  0  0  0  0  0  0  0  0  0  0
    2.7379   13.4081   42.6312 N   0  0  0  0  0  0  0  0  0  0  0  0
    2.4462   14.7071   42.3499 C   0  0  0  0  0  0  0  0  0  0  0  0
    1.8888   15.5480   43.2692 C   0  0  0  0  0  0  0  0  0  0  0  0
    1.5852   16.9375   42.9429 C   0  0  0  0  0  0  0  0  0  0  0  0
    1.8518   17.4198   41.7175 N   0  0  0  0  0  0  0  0  0  0  0  0
    1.0371   17.7496   43.8602 N   0  0  0  0  0  0  0  0  0  0  0  0
    0.7425   19.0358   43.5984 C   0  0  0  0  0  0  0  0  0  0  0  0
    0.1995   20.0198   44.3480 N   0  0  0  0  0  0  0  0  0  0  0  0
   -0.2317   19.9251   45.7211 C   0  0  0  0  0  0  0  0  0  0  0  0
    0.1402   21.0887   43.5760 N   0  0  0  0  0  0  0  0  0  0  0  0
    0.6262   20.8343   42.3491 C   0  0  0  0  0  0  0  0  0  0  0  0
    1.0219   19.5117   42.3407 C   0  0  0  0  0  0  0  0  0  0  0  0
    1.5886   18.6948   41.3719 C   0  0  0  0  0  0  0  0  0  0  0  0
    1.8663   19.2198   40.0753 N   0  0  0  0  0  0  0  0  0  0  0  0
    1.1578   15.7302   45.2925 H   0  0  0  0  0  0  0  0  0  0  0  0
    1.6900   13.3829   45.7859 H   0  0  0  0  0  0  0  0  0  0  0  0
    2.7080   11.8682   44.0881 H   0  0  0  0  0  0  0  0  0  0  0  0
    2.6746   15.0489   41.3636 H   0  0  0  0  0  0  0  0  0  0  0  0
   -1.3076   19.6530   45.7401 H   0  0  0  0  0  0  0  0  0  0  0  0
    0.3526   19.1277   46.2571 H   0  0  0  0  0  0  0  0  0  0  0  0
   -0.0208   20.8679   46.2757 H   0  0  0  0  0  0  0  0  0  0  0  0
    0.6859   21.5490   41.5357 H   0  0  0  0  0  0  0  0  0  0  0  0
    1.5643   18.7449   39.1964 H   0  0  0  0  0  0  0  0  0  0  0  0
    2.3987   20.1270   39.9561 H   0  0  0  0  0  0  0  0  0  0  0  0
  1  2  2  0
  1  6  1  0
  2  3  1  0
  3  4  2  0
  4  5  1  0
  5  6  2  0
  6  7  1  0
  7  8  2  0
  7  9  1  0
  8 16  1  0
  9 10  2  0
 10 11  1  0
 10 15  1  0
 11 12  1  0
 11 13  1  0
 13 14  2  0
 14 15  1  0
 15 16  2  0
 16 17  1  0
  1 18  1  0
  2 19  1  0
  3 20  1  0
  5 21  1  0
 12 22  1  0
 12 23  1  0
 12 24  1  0
 14 25  1  0
 17 26  1  0
 17 27  1  0
M  END
>  <mol_id>  (36) 
2026-09-18-6fnk-s0-n100-r6-0036

>  <rmsd_to_ref>  (36) 
2.0612244897988146

>  <pose_kind>  (36) 
conformer

$$$$
6fnk.A
     RDKit          3D

 27 29  0  0  0  0  0  0  0  0999 V2000
    4.3230   16.3417   42.1902 C   0  0  0  0  0  0  0  0  0  0  0  0
    5.3664   15.4179   42.2518 C   0  0  0  0  0  0  0  0  0  0  0  0
    5.1200   14.1222   42.6819 C   0  0  0  0  0  0  0  0  0  0  0  0
    3.8260   13.7430   43.0494 N   0  0  0  0  0  0  0  0  0  0  0  0
    2.7788   14.6749   42.9878 C   0  0  0  0  0  0  0  0  0  0  0  0
    3.0254   15.9773   42.5577 C   0  0  0  0  0  0  0  0  0  0  0  0
    1.9800   16.9046   42.4997 C   0  0  0  0  0  0  0  0  0  0  0  0
    2.2196   18.2012   42.2600 N   0  0  0  0  0  0  0  0  0  0  0  0
    0.7192   16.4978   42.6785 N   0  0  0  0  0  0  0  0  0  0  0  0
   -0.3113   17.3611   42.6386 C   0  0  0  0  0  0  0  0  0  0  0  0
   -1.6325   17.1932   42.8014 N   0  0  0  0  0  0  0  0  0  0  0  0
   -2.3117   15.9237   43.0768 C   0  0  0  0  0  0  0  0  0  0  0  0
   -2.2234   18.2669   42.6782 N   0  0  0  0  0  0  0  0  0  0  0  0
   -1.3028   19.2020   42.3915 C   0  0  0  0  0  0  0  0  0  0  0  0
   -0.0835   18.6468   42.3892 C   0  0  0  0  0  0  0  0  0  0  0  0
    1.1953   19.0719   42.1965 C   0  0  0  0  0  0  0  0  0  0  0  0
    1.4642   20.3759   41.9437 N   0  0  0  0  0  0  0  0  0  0  0  0
    4.5240   17.3678   41.8487 H   0  0  0  0  0  0  0  0  0  0  0  0
    6.3839   15.7166   41.9596 H   0  0  0  0  0  0  0  0  0  0  0  0
    5.9426   13.3937   42.7337 H   0  0  0  0  0  0  0  0  0  0  0  0
    1.7609   14.3767   43.2797 H   0  0  0  0  0  0  0  0  0  0  0  0
   -2.9638   16.0397   43.9550 H   0  0  0  0  0  0  0  0  0  0  0  0
   -2.9180   15.6356   42.2054 H   0  0  0  0  0  0  0  0  0  0  0  0
   -1.5629   15.1430   43.2766 H   0  0  0  0  0  0  0  0  0  0  0  0
   -1.5173   20.2618   42.1896 H   0  0  0  0  0  0  0  0  0  0  0  0
    0.6954   21.0593   41.8907 H   0  0  0  0  0  0  0  0  0  0  0  0
    2.4373   20.6835   41.8045 H   0  0  0  0  0  0  0  0  0  0  0  0
  1  2  2  0
  1  6  1  0
  2  3  1  0
  3  4  2  0
  4  5  1  0
  5  6  2  0
  6  7  1  0
  7  8  2  0
  7  9  1  0
  8 16  1  0
  9 10  2  0
 10 11  1  0
 10 15  1  0
 11 12  1  0
 11 13  1  0
 13 14  2  0
 14 15  1  0
 15 16  2  0
 16 17  1  0
  1 18  1  0
  2 19  1  0
  3 20  1  0
  5 21  1  0
 12 22  1  0
 12 23  1  0
 12 24  1  0
 14 25  1  0
 17 26  1  0
 17 27  1  0
M  END
>  <mol_id>  (37) 
2026-09-18-6fnk-s0-n100-r6-0037

>  <rmsd_to_ref>  (37) 
2.1071428571478124

>  <pose_kind>  (37) 
rigid

$$$$
6fnk.A
     RDKit          3D

 27 29  0  0  0  0  0  0  0  0999 V2000
    2.3230   15.6401   43.3753 C   0  0  0  0  0  0  0  0  0  0  0  0
    3.0930   14.5148   43.6869 C   0  0  0  0  0  0  0  0  0  0  0  0
    4.2707   14.2459   42.9928 C   0  0  0  0  0  0  0  0  0  0  0  0
    4.7153   15.0441   42.0056 N   0  0  0  0  0  0  0  0  0  0  0  0
    3.9864   16.1314   41.6928 C   0  0  0  0  0  0  0  0  0  0  0  0
    2.8140   16.4331   42.3564 C   0  0  0  0  0  0  0  0  0  0  0  0
    2.0729   17.6318   41.9633 C   0  0  0  0  0  0  0  0  0  0  0  0
    2.5382   18.4149   40.9722 N   0  0  0  0  0  0  0  0  0  0  0  0
    0.9254   17.9637   42.5833 N   0  0  0  0  0  0  0  0  0  0  0  0
    0.2206   19.0692   42.2372 C   0  0  0  0  0  0  0  0  0  0  0  0
   -0.9226   19.6391   42.6620 N   0  0  0  0  0  0  0  0  0  0  0  0
   -1.7623   19.1040   43.7428 C   0  0  0  0  0  0  0  0  0  0  0  0
   -1.1531   20.7308   41.9603 N   0  0  0  0  0  0  0  0  0  0  0  0
   -0.1921   20.9459   41.0437 C   0  0  0  0  0  0  0  0  0  0  0  0
    0.7005   19.8852   41.2084 C   0  0  0  0  0  0  0  0  0  0  0  0
    1.8868   19.5341   40.5738 C   0  0  0  0  0  0  0  0  0  0  0  0
    2.3968   20.3588   39.5146 N   0  0  0  0  0  0  0  0  0  0  0  0
    1.4131   15.8673   43.8958 H   0  0  0  0  0  0  0  0  0  0  0  0
    2.7410   13.8574   44.4890 H   0  0  0  0  0  0  0  0  0  0  0  0
    4.8097   13.3686   43.2832 H   0  0  0  0  0  0  0  0  0  0  0  0
    4.3790   16.7607   40.8821 H   0  0  0  0  0  0  0  0  0  0  0  0
   -2.4623   18.3749   43.3043 H   0  0  0  0  0  0  0  0  0  0  0  0
   -1.1352   18.5963   44.5083 H   0  0  0  0  0  0  0  0  0  0  0  0
   -2.3061   19.9763   44.1836 H   0  0  0  0  0  0  0  0  0  0  0  0
   -0.1144   21.7545   40.3318 H   0  0  0  0  0  0  0  0  0  0  0  0
    2.9869   19.9103   38.7761 H   0  0  0  0  0  0  0  0  0  0  0  0
    2.1566   21.3805   39.5238 H   0  0  0  0  0  0  0  0  0  0  0  0
  1  2  2  0
  1  6  1  0
  2  3  1  0
  3  4  2  0
  4  5  1  0
  5  6  2  0
  6  7  1  0
  7  8  2  0
  7  9  1  0
  8 16  1  0
  9 10  2  0
 10 11  1  0
 10 15  1  0
 11 12  1  0
 11 13  1  0
 13 14  2  0
 14 15  1  0
 15 16  2  0
 16 17  1  0
  1 18  1  0
  2 19  1  0
  3 20  1  0
  5 21  1  0
 12 22  1  0
 12 23  1  0
 12 24  1  0
 14 25  1  0
 17 26  1  0
 17 27  1  0
M  END
>  <mol_id>  (38) 
2026-09-18-6fnk-s0-n100-r6-0038

>  <rmsd_to_ref>  (38) 
2.1530612244919363

>  <pose_kind>  (38) 
conformer

$$$$
6fnk.A
     RDKit          3D

 27 29  0  0  0  0  0  0  0  0999 V2000
    3.4280   16.0392   42.0818 C   0  0  0  0  0  0  0  0  0  0  0  0
    4.6424   15.3742   42.2519 C   0  0  0  0  0  0  0  0  0  0  0  0
    5.0785   15.0435   43.5266 C   0  0  0  0  0  0  0  0  0  0  0  0
    4.2988   15.3736   44.6386 N   0  0  0  0  0  0  0  0  0  0  0  0
    3.0785   16.0439   44.4644 C   0  0  0  0  0  0  0  0  0  0  0  0
    2.6402   16.3783   43.1845 C   0  0  0  0  0  0  0  0  0  0  0  0
    1.4245   17.0485   43.0142 C   0  0  0  0  0  0  0  0  0  0  0  0
    1.0657   17.5348   41.8180 N   0  0  0  0  0  0  0  0  0  0  0  0
    0.5996   17.2047   44.0545 N   0  0  0  0  0  0  0  0  0  0  0  0
   -0.5735   17.8509   43.9317 C   0  0  0  0  0  0  0  0  0  0  0  0
   -1.5390   18.1392   44.8178 N   0  0  0  0  0  0  0  0  0  0  0  0
   -1.5384   17.7804   46.2391 C   0  0  0  0  0  0  0  0  0  0  0  0
   -2.4576   18.7524   44.2725 N   0  0  0  0  0  0  0  0  0  0  0  0
   -2.1462   18.8693   42.9711 C   0  0  0  0  0  0  0  0  0  0  0  0
   -0.9427   18.3254   42.7461 C   0  0  0  0  0  0  0  0  0  0  0  0
   -0.1152   18.1649   41.6770 C   0  0  0  0  0  0  0  0  0  0  0  0
   -0.4581   18.6391   40.4547 N   0  0  0  0  0  0  0  0  0  0  0  0
    3.0871   16.2993   41.0688 H   0  0  0  0  0  0  0  0  0  0  0  0
    5.2538   15.1123   41.3758 H   0  0  0  0  0  0  0  0  0  0  0  0
    6.0374   14.5218   43.6621 H   0  0  0  0  0  0  0  0  0  0  0  0
    2.4664   16.3059   45.3401 H   0  0  0  0  0  0  0  0  0  0  0  0
   -1.7357   18.6778   46.8439 H   0  0  0  0  0  0  0  0  0  0  0  0
   -2.3212   17.0312   46.4285 H   0  0  0  0  0  0  0  0  0  0  0  0
   -0.5578   17.3630   46.5115 H   0  0  0  0  0  0  0  0  0  0  0  0
   -2.7823   19.3398   42.2068 H   0  0  0  0  0  0  0  0  0  0  0  0
   -1.3571   19.1245   40.3243 H   0  0  0  0  0  0  0  0  0  0  0  0
    0.1803   18.5141   39.6562 H   0  0  0  0  0  0  0  0  0  0  0  0
  1  2  2  0
  1  6  1  0
  2  3  1  0
  3  4  2  0
  4  5  1  0
  5  6  2  0
  6  7  1  0
  7  8  2  0
  7  9  1  0
  8 16  1  0
  9 10  2  0
 10 11  1  0
 10 15  1  0
 11 12  1  0
 11 13  1  0
 13 14  2  0
 14 15  1  0
 15 16  2  0
 16 17  1  0
  1 18  1  0
  2 19  1  0
  3 20  1  0
  5 21  1  0
 12 22  1  0
 12 23  1  0
 12 24  1  0
 14 25  1  0
 17 26  1  0
 17 27  1  0
M  END
>  <mol_id>  (39) 
2026-09-18-6fnk-s0-n100-r6-0039

>  <rmsd_to_ref>  (39) 
2.1989795918401485

>  <pose_kind>  (39) 
rigid

$$$$
6fnk.A
     RDKit          3D

 27 29  0  0  0  0  0  0  0  0999 V2000
    1.6327   16.0115   41.5739 C   0  0  0  0  0  0  0  0  0  0  0  0
    1.1364   14.7947   41.0913 C   0  0  0  0  0  0  0  0  0  0  0  0
   -0.1655   14.4152   41.3957 C   0  0  0  0  0  0  0  0  0  0  0  0
   -0.9792   15.1747   42.1425 N   0  0  0  0  0  0  0  0  0  0  0  0
   -0.5321   16.3490   42.6208 C   0  0  0  0  0  0  0  0  0  0  0  0
    0.7614   16.7606   42.3377 C   0  0  0  0  0  0  0  0  0  0  0  0
    1.2389   18.0476   42.8670 C   0  0  0  0  0  0  0  0  0  0  0  0
    2.5013   18.4874   42.6120 N   0  0  0  0  0  0  0  0  0  0  0  0
    0.4121   18.8111   43.6213 N   0  0  0  0  0  0  0  0  0  0  0  0
    0.7894   19.9982   44.1345 C   0  0  0  0  0  0  0  0  0  0  0  0
    0.1532   20.9088   44.8953 N   0  0  0  0  0  0  0  0  0  0  0  0
   -1.1971   20.8661   45.4069 C   0  0  0  0  0  0  0  0  0  0  0  0
    1.0168   21.9038   45.1085 N   0  0  0  0  0  0  0  0  0  0  0  0
    2.1974   21.6410   44.4935 C   0  0  0  0  0  0  0  0  0  0  0  0
    2.0754   20.4194   43.8597 C   0  0  0  0  0  0  0  0  0  0  0  0
    2.9449   19.6652   43.0938 C   0  0  0  0  0  0  0  0  0  0  0  0
    4.2701   20.1026   42.8124 N   0  0  0  0  0  0  0  0  0  0  0  0
    2.6438   16.3141   41.3420 H   0  0  0  0  0  0  0  0  0  0  0  0
    1.7992   14.1900   40.4908 H   0  0  0  0  0  0  0  0  0  0  0  0
   -0.5573   13.4849   41.0316 H   0  0  0  0  0  0  0  0  0  0  0  0
   -1.2052   16.9598   43.2288 H   0  0  0  0  0  0  0  0  0  0  0  0
   -1.6595   19.8884   45.1567 H   0  0  0  0  0  0  0  0  0  0  0  0
   -1.7584   21.6840   44.9165 H   0  0  0  0  0  0  0  0  0  0  0  0
   -1.2342   21.0049   46.4950 H   0  0  0  0  0  0  0  0  0  0  0  0
    3.0919   22.2557   44.4821 H   0  0  0  0  0  0  0  0  0  0  0  0
    4.3894   21.0174   42.2906 H   0  0  0  0  0  0  0  0  0  0  0  0
    5.0794   19.5273   43.1183 H   0  0  0  0  0  0  0  0  0  0  0  0
  1  2  2  0
  1  6  1  0
  2  3  1  0
  3  4  2  0
  4  5  1  0
  5  6  2  0
  6  7  1  0
  7  8  2  0
  7  9  1  0
  8 16  1  0
  9 10  2  0
 10 11  1  0
 10 15  1  0
 11 12  1  0
 11 13  1  0
 13 14  2  0
 14 15  1  0
 15 16  2  0
 16 17  1  0
  1 18  1  0
  2 19  1  0
  3 20  1  0
  5 21  1  0
 12 22  1  0
 12 23  1  0
 12 24  1  0
 14 25  1  0
 17 26  1  0
 17 27  1  0
M  END
>  <mol_id>  (40) 
2026-09-18-6fnk-s0-n100-r6-0040

>  <rmsd_to_ref>  (40) 
2.244897959187738

>  <pose_kind>  (40) 
conformer

$$$$
6fnk.A
     RDKit          3D

 27 29  0  0  0  0  0  0  0  0999 V2000
    4.8409   17.8168   42.3276 C   0  0  0  0  0  0  0  0  0  0  0  0
    6.0407   17.1346   42.5300 C   0  0  0  0  0  0  0  0  0  0  0  0
    6.1172   16.1380   43.4920 C   0  0  0  0  0  0  0  0  0  0  0  0
    4.9911   15.8162   44.2546 N   0  0  0  0  0  0  0  0  0  0  0  0
    3.7860   16.5052   44.0498 C   0  0  0  0  0  0  0  0  0  0  0  0
    3.7085   17.5079   43.0850 C   0  0  0  0  0  0  0  0  0  0  0  0
    2.5066   18.1945   42.8848 C   0  0  0  0  0  0  0  0  0  0  0  0
    2.4519   19.2743   42.0928 N   0  0  0  0  0  0  0  0  0  0  0  0
    1.3898   17.7695   43.4840 N   0  0  0  0  0  0  0  0  0  0  0  0
    0.2175   18.4086   43.3226 C   0  0  0  0  0  0  0  0  0  0  0  0
   -1.0066   18.1831   43.8237 N   0  0  0  0  0  0  0  0  0  0  0  0
   -1.3780   17.0944   44.7323 C   0  0  0  0  0  0  0  0  0  0  0  0
   -1.8060   19.0225   43.4070 N   0  0  0  0  0  0  0  0  0  0  0  0
   -1.1375   19.8345   42.5716 C   0  0  0  0  0  0  0  0  0  0  0  0
    0.1519   19.4731   42.5290 C   0  0  0  0  0  0  0  0  0  0  0  0
    1.2806   19.9104   41.9061 C   0  0  0  0  0  0  0  0  0  0  0  0
    1.2509   20.9942   41.0932 N   0  0  0  0  0  0  0  0  0  0  0  0
    4.7860   18.6063   41.5636 H   0  0  0  0  0  0  0  0  0  0  0  0
    6.9256   17.3867   41.9272 H   0  0  0  0  0  0  0  0  0  0  0  0
    7.0636   15.6014   43.6545 H   0  0  0  0  0  0  0  0  0  0  0  0
    2.9007   16.2535   44.6521 H   0  0  0  0  0  0  0  0  0  0  0  0
   -1.9012   17.5089   45.6067 H   0  0  0  0  0  0  0  0  0  0  0  0
   -2.0406   16.3896   44.2086 H   0  0  0  0  0  0  0  0  0  0  0  0
   -0.4709   16.5676   45.0635 H   0  0  0  0  0  0  0  0  0  0  0  0
   -1.5809   20.6690   42.0085 H   0  0  0  0  0  0  0  0  0  0  0  0
    0.3652   21.4961   40.9362 H   0  0  0  0  0  0  0  0  0  0  0  0
    2.1139   21.3161   40.6322 H   0  0  0  0  0  0  0  0  0  0  0  0
  1  2  2  0
  1  6  1  0
  2  3  1  0
  3  4  2  0
  4  5  1  0
  5  6  2  0
  6  7  1  0
  7  8  2  0
  7  9  1  0
  8 16  1  0
  9 10  2  0
 10 11  1  0
 10 15  1  0
 11 12  1  0
 11 13  1  0
 13 14  2  0
 14 15  1  0
 15 16  2  0
 16 17  1  0
  1 18  1  0
  2 19  1  0
  3 20  1  0
  5 21  1  0
 12 22  1  0
 12 23  1  0
 12 24  1  0
 14 25  1  0
 17 26  1  0
 17 27  1  0
M  END
>  <mol_id>  (41) 
2026-09-18-6fnk-s0-n100-r6-0041

>  <rmsd_to_ref>  (41) 
2.2908163265329304

>  <pose_kind>  (41) 
rigid

$$$$
6fnk.A
     RDKit          3D

 27 29  0  0  0  0  0  0  0  0999 V2000
    2.3777   14.3690   41.6552 C   0  0  0  0  0  0  0  0  0  0  0  0
    2.6572   13.1102   42.1626 C   0  0  0  0  0  0  0  0  0  0  0  0
    2.6000   12.9367   43.5490 C   0  0  0  0  0  0  0  0  0  0  0  0
    2.2813   13.9752   44.3427 N   0  0  0  0  0  0  0  0  0  0  0  0
    2.0088   15.1999   43.8552 C   0  0  0  0  0  0  0  0  0  0  0  0
    2.0520   15.4222   42.4932 C   0  0  0  0  0  0  0  0  0  0  0  0
    1.7627   16.7374   41.9253 C   0  0  0  0  0  0  0  0  0  0  0  0
    1.8091   16.9429   40.5763 N   0  0  0  0  0  0  0  0  0  0  0  0
    1.4493   17.7416   42.7635 N   0  0  0  0  0  0  0  0  0  0  0  0
    1.1743   18.9651   42.3148 C   0  0  0  0  0  0  0  0  0  0  0  0
    0.8385   20.1175   42.9490 N   0  0  0  0  0  0  0  0  0  0  0  0
    0.7106   20.2104   44.3866 C   0  0  0  0  0  0  0  0  0  0  0  0
    0.6688   21.0593   42.0282 N   0  0  0  0  0  0  0  0  0  0  0  0
    0.8898   20.5348   40.8025 C   0  0  0  0  0  0  0  0  0  0  0  0
    1.2104   19.2199   40.9392 C   0  0  0  0  0  0  0  0  0  0  0  0
    1.5326   18.1857   40.0840 C   0  0  0  0  0  0  0  0  0  0  0  0
    1.5723   18.4288   38.6970 N   0  0  0  0  0  0  0  0  0  0  0  0
    2.4224   14.4981   40.5935 H   0  0  0  0  0  0  0  0  0  0  0  0
    2.9099   12.2842   41.5431 H   0  0  0  0  0  0  0  0  0  0  0  0
    2.8157   11.9696   43.9267 H   0  0  0  0  0  0  0  0  0  0  0  0
    1.7607   15.9871   44.5466 H   0  0  0  0  0  0  0  0  0  0  0  0
    1.1027   21.2067   44.6842 H   0  0  0  0  0  0  0  0  0  0  0  0
    1.3139   19.4444   44.8838 H   0  0  0  0  0  0  0  0  0  0  0  0
   -0.3530   20.2124   44.7254 H   0  0  0  0  0  0  0  0  0  0  0  0
    0.8300   21.0516   39.8380 H   0  0  0  0  0  0  0  0  0  0  0  0
    0.8990   19.1254   38.3024 H   0  0  0  0  0  0  0  0  0  0  0  0
    2.2676   17.9148   38.0865 H   0  0  0  0  0  0  0  0  0  0  0  0
  1  2  2  0
  1  6  1  0
  2  3  1  0
  3  4  2  0
  4  5  1  0
  5  6  2  0
  6  7  1  0
  7  8  2  0
  7  9  1  0
  8 16  1  0
  9 10  2  0
 10 11  1  0
 10 15  1  0
 11 12  1  0
 11 13  1  0
 13 14  2  0
 14 15  1  0
 15 16  2  0
 16 17  1  0
  1 18  1  0
  2 19  1  0
  3 20  1  0
  5 21  1  0
 12 22  1  0
 12 23  1  0
 12 24  1  0
 14 25  1  0
 17 26  1  0
 17 27  1  0
M  END
>  <mol_id>  (42) 
2026-09-18-6fnk-s0-n100-r6-0042

>  <rmsd_to_ref>  (42) 
2.3367346938839093

>  <pose_kind>  (42) 
conformer

$$$$
6fnk.A
     RDKit          3D

 27 29  0  0  0  0  0  0  0  0999 V2000
    4.2932   17.9266   42.4118 C   0  0  0  0  0  0  0  0  0  0  0  0
    5.2149   17.2747   41.5924 C   0  0  0  0  0  0  0  0  0  0  0  0
    4.9171   16.0230   41.0739 C   0  0  0  0  0  0  0  0  0  0  0  0
    3.6924   15.4181   41.3702 N   0  0  0  0  0  0  0  0  0  0  0  0
    2.7680   16.0756   42.1960 C   0  0  0  0  0  0  0  0  0  0  0  0
    3.0668   17.3323   42.7189 C   0  0  0  0  0  0  0  0  0  0  0  0
    2.1443   17.9842   43.5437 C   0  0  0  0  0  0  0  0  0  0  0  0
    2.4750   19.1062   44.1977 N   0  0  0  0  0  0  0  0  0  0  0  0
    0.9098   17.4901   43.6815 N   0  0  0  0  0  0  0  0  0  0  0  0
   -0.0018   18.0839   44.4723 C   0  0  0  0  0  0  0  0  0  0  0  0
   -1.2711   17.7711   44.7742 N   0  0  0  0  0  0  0  0  0  0  0  0
   -2.0185   16.6179   44.2638 C   0  0  0  0  0  0  0  0  0  0  0  0
   -1.7488   18.6013   45.5486 N   0  0  0  0  0  0  0  0  0  0  0  0
   -0.8072   19.5331   45.7700 C   0  0  0  0  0  0  0  0  0  0  0  0
    0.3141   19.2039   45.1149 C   0  0  0  0  0  0  0  0  0  0  0  0
    1.5654   19.7219   44.9756 C   0  0  0  0  0  0  0  0  0  0  0  0
    1.9226   20.8599   45.6187 N   0  0  0  0  0  0  0  0  0  0  0  0
    4.5346   18.9190   42.8204 H   0  0  0  0  0  0  0  0  0  0  0  0
    6.1772   17.7530   41.3575 H   0  0  0  0  0  0  0  0  0  0  0  0
    5.6444   15.5067   40.4301 H   0  0  0  0  0  0  0  0  0  0  0  0
    1.8053   15.5980   42.4311 H   0  0  0  0  0  0  0  0  0  0  0  0
   -2.4575   16.0633   45.1063 H   0  0  0  0  0  0  0  0  0  0  0  0
   -2.8206   16.9669   43.5968 H   0  0  0  0  0  0  0  0  0  0  0  0
   -1.3382   15.9581   43.7052 H   0  0  0  0  0  0  0  0  0  0  0  0
   -0.9368   20.4297   46.3940 H   0  0  0  0  0  0  0  0  0  0  0  0
    1.2423   21.3474   46.2191 H   0  0  0  0  0  0  0  0  0  0  0  0
    2.8744   21.2374   45.5072 H   0  0  0  0  0  0  0  0  0  0  0  0
  1  2  2  0
  1  6  1  0
  2  3  1  0
  3  4  2  0
  4  5  1  0
  5  6  2  0
  6  7  1  0
  7  8  2  0
  7  9  1  0
  8 16  1  0
  9 10  2  0
 10 11  1  0
 10 15  1  0
 11 12  1  0
 11 13  1  0
 13 14  2  0
 14 15  1  0
 15 16  2  0
 16 17  1  0
  1 18  1  0
  2 19  1  0
  3 20  1  0
  5 21  1  0
 12 22  1  0
 12 23  1  0
 12 24  1  0
 14 25  1  0
 17 26  1  0
 17 27  1  0
M  END
>  <mol_id>  (43) 
2026-09-18-6fnk-s0-n100-r6-0043

>  <rmsd_to_ref>  (43) 
2.3826530612290546

>  <pose_kind>  (43) 
rigid

$$$$
6fnk.A
     RDKit          3D

 27 29  0  0  0  0  0  0  0  0999 V2000
    3.6673   17.7130   41.0014 C   0  0  0  0  0  0  0  0  0  0  0  0
    4.5179   16.9103   40.2455 C   0  0  0  0  0  0  0  0  0  0  0  0
    3.9667   15.9132   39.4642 C   0  0  0  0  0  0  0  0  0  0  0  0
    2.6479   15.6819   39.3997 N   0  0  0  0  0  0  0  0  0  0  0  0
    1.8324   16.4525   40.1252 C   0  0  0  0  0  0  0  0  0  0  0  0
    2.3203   17.4778   40.9364 C   0  0  0  0  0  0  0  0  0  0  0  0
    1.3981   18.2980   41.7140 C   0  0  0  0  0  0  0  0  0  0  0  0
    1.8732   19.2989   42.5060 N   0  0  0  0  0  0  0  0  0  0  0  0
    0.0699   18.0553   41.6409 N   0  0  0  0  0  0  0  0  0  0  0  0
   -0.8310   18.7805   42.3368 C   0  0  0  0  0  0  0  0  0  0  0  0
   -2.1738   18.7261   42.4229 N   0  0  0  0  0  0  0  0  0  0  0  0
   -3.0820   17.8226   41.7550 C   0  0  0  0  0  0  0  0  0  0  0  0
   -2.5460   19.6803   43.2589 N   0  0  0  0  0  0  0  0  0  0  0  0
   -1.4778   20.3555   43.7198 C   0  0  0  0  0  0  0  0  0  0  0  0
   -0.3377   19.7921   43.1360 C   0  0  0  0  0  0  0  0  0  0  0  0
    1.0160   20.0561   43.2244 C   0  0  0  0  0  0  0  0  0  0  0  0
    1.4742   21.1113   44.0635 N   0  0  0  0  0  0  0  0  0  0  0  0
    4.0722   18.5010   41.6220 H   0  0  0  0  0  0  0  0  0  0  0  0
    5.5654   17.1110   40.3111 H   0  0  0  0  0  0  0  0  0  0  0  0
    4.6069   15.2791   38.8702 H   0  0  0  0  0  0  0  0  0  0  0  0
    0.7538   16.2780   40.0847 H   0  0  0  0  0  0  0  0  0  0  0  0
   -2.5325   16.9503   41.3160 H   0  0  0  0  0  0  0  0  0  0  0  0
   -3.6977   18.3239   40.9727 H   0  0  0  0  0  0  0  0  0  0  0  0
   -3.7123   17.3700   42.5578 H   0  0  0  0  0  0  0  0  0  0  0  0
   -1.4432   21.1948   44.4196 H   0  0  0  0  0  0  0  0  0  0  0  0
    1.5375   22.0890   43.6540 H   0  0  0  0  0  0  0  0  0  0  0  0
    1.7405   20.9140   45.0632 H   0  0  0  0  0  0  0  0  0  0  0  0
  1  2  2  0
  1  6  1  0
  2  3  1  0
  3  4  2  0
  4  5  1  0
  5  6  2  0
  6  7  1  0
  7  8  2  0
  7  9  1  0
  8 16  1  0
  9 10  2  0
 10 11  1  0
 10 15  1  0
 11 12  1  0
 11 13  1  0
 13 14  2  0
 14 15  1  0
 15 16  2  0
 16 17  1  0
  1 18  1  0
  2 19  1  0
  3 20  1  0
  5 21  1  0
 12 22  1  0
 12 23  1  0
 12 24  1  0
 14 25  1  0
 17 26  1  0
 17 27  1  0
M  END
>  <mol_id>  (44) 
2026-09-18-6fnk-s0-n100-r6-0044

>  <rmsd_to_ref>  (44) 
2.4285714285760274

>  <pose_kind>  (44) 
conformer

$$$$
6fnk.A
     RDKit          3D

 27 29  0  0  0  0  0  0  0  0999 V2000
    1.3516   17.8888   39.2002 C   0  0  0  0  0  0  0  0  0  0  0  0
    1.8238   17.3238   38.0154 C   0  0  0  0  0  0  0  0  0  0  0  0
    2.3780   16.0521   38.0271 C   0  0  0  0  0  0  0  0  0  0  0  0
    2.4590   15.3370   39.2252 N   0  0  0  0  0  0  0  0  0  0  0  0
    1.9845   15.9086   40.4156 C   0  0  0  0  0  0  0  0  0  0  0  0
    1.4293   17.1868   40.4055 C   0  0  0  0  0  0  0  0  0  0  0  0
    0.9594   17.7548   41.5940 C   0  0  0  0  0  0  0  0  0  0  0  0
    0.5850   19.0407   41.6440 N   0  0  0  0  0  0  0  0  0  0  0  0
    0.8734   17.0083   42.6996 N   0  0  0  0  0  0  0  0  0  0  0  0
    0.4348   17.5213   43.8629 C   0  0  0  0  0  0  0  0  0  0  0  0
    0.2799   16.9829   45.0821 N   0  0  0  0  0  0  0  0  0  0  0  0
    0.5720   15.5954   45.4542 C   0  0  0  0  0  0  0  0  0  0  0  0
   -0.1596   17.8197   45.8719 N   0  0  0  0  0  0  0  0  0  0  0  0
   -0.3475   18.9596   45.1867 C   0  0  0  0  0  0  0  0  0  0  0  0
    0.0498   18.7925   43.9182 C   0  0  0  0  0  0  0  0  0  0  0  0
    0.1243   19.5607   42.7967 C   0  0  0  0  0  0  0  0  0  0  0  0
   -0.2564   20.8611   42.8180 N   0  0  0  0  0  0  0  0  0  0  0  0
    0.9133   18.8976   39.1852 H   0  0  0  0  0  0  0  0  0  0  0  0
    1.7569   17.8863   37.0725 H   0  0  0  0  0  0  0  0  0  0  0  0
    2.7534   15.6068   37.0940 H   0  0  0  0  0  0  0  0  0  0  0  0
    2.0509   15.3465   41.3589 H   0  0  0  0  0  0  0  0  0  0  0  0
    1.2248   15.5828   46.3395 H   0  0  0  0  0  0  0  0  0  0  0  0
   -0.3677   15.0718   45.6840 H   0  0  0  0  0  0  0  0  0  0  0  0
    1.0781   15.0904   44.6182 H   0  0  0  0  0  0  0  0  0  0  0  0
   -0.7639   19.8885   45.6035 H   0  0  0  0  0  0  0  0  0  0  0  0
   -0.6120   21.2794   43.6894 H   0  0  0  0  0  0  0  0  0  0  0  0
   -0.1901   21.4311   41.9627 H   0  0  0  0  0  0  0  0  0  0  0  0
  1  2  2  0
  1  6  1  0
  2  3  1  0
  3  4  2  0
  4  5  1  0
  5  6  2  0
  6  7  1  0
  7  8  2  0
  7  9  1  0
  8 16  1  0
  9 10  2  0
 10 11  1  0
 10 15  1  0
 11 12  1  0
 11 13  1  0
 13 14  2  0
 14 15  1  0
 15 16  2  0
 16 17  1  0
  1 18  1  0
  2 19  1  0
  3 20  1  0
  5 21  1  0
 12 22  1  0
 12 23  1  0
 12 24  1  0
 14 25  1  0
 17 26  1  0
 17 27  1  0
M  END
>  <mol_id>  (45) 
2026-09-18-6fnk-s0-n100-r6-0045

>  <rmsd_to_ref>  (45) 
2.474489795923956

>  <pose_kind>  (45) 
rigid

$$$$
6fnk.A
     RDKit          3D

 27 29  0  0  0  0  0  0  0  0999 V2000
    3.4254   15.2885   43.4324 C   0  0  0  0  0  0  0  0  0  0  0  0
    3.8404   14.2449   42.6281 C   0  0  0  0  0  0  0  0  0  0  0  0
    2.9961   13.7424   41.6694 C   0  0  0  0  0  0  0  0  0  0  0  0
    1.7506   14.2119   41.4519 N   0  0  0  0  0  0  0  0  0  0  0  0
    1.3153   15.2406   42.2304 C   0  0  0  0  0  0  0  0  0  0  0  0
    2.1436   15.7818   43.2185 C   0  0  0  0  0  0  0  0  0  0  0  0
    1.6790   16.8822   44.0518 C   0  0  0  0  0  0  0  0  0  0  0  0
    2.4759   17.4195   45.0189 N   0  0  0  0  0  0  0  0  0  0  0  0
    0.4263   17.3716   43.8499 N   0  0  0  0  0  0  0  0  0  0  0  0
   -0.0736   18.3930   44.5858 C   0  0  0  0  0  0  0  0  0  0  0  0
   -1.2359   19.0698   44.6186 N   0  0  0  0  0  0  0  0  0  0  0  0
   -2.3725   18.8041   43.7340 C   0  0  0  0  0  0  0  0  0  0  0  0
   -1.1798   19.9846   45.5534 N   0  0  0  0  0  0  0  0  0  0  0  0
    0.0171   19.9374   46.1617 C   0  0  0  0  0  0  0  0  0  0  0  0
    0.7310   18.9435   45.5701 C   0  0  0  0  0  0  0  0  0  0  0  0
    2.0076   18.4505   45.7816 C   0  0  0  0  0  0  0  0  0  0  0  0
    2.8526   18.9973   46.7843 N   0  0  0  0  0  0  0  0  0  0  0  0
    4.0510   15.7118   44.1931 H   0  0  0  0  0  0  0  0  0  0  0  0
    4.8463   13.8622   42.8003 H   0  0  0  0  0  0  0  0  0  0  0  0
    3.3274   12.9105   41.0286 H   0  0  0  0  0  0  0  0  0  0  0  0
    0.3157   15.6671   42.1049 H   0  0  0  0  0  0  0  0  0  0  0  0
   -2.3363   19.5789   42.9374 H   0  0  0  0  0  0  0  0  0  0  0  0
   -2.3209   17.7702   43.3524 H   0  0  0  0  0  0  0  0  0  0  0  0
   -3.3108   18.9221   44.3495 H   0  0  0  0  0  0  0  0  0  0  0  0
    0.3983   20.5474   46.9732 H   0  0  0  0  0  0  0  0  0  0  0  0
    2.4850   19.6547   47.4945 H   0  0  0  0  0  0  0  0  0  0  0  0
    3.8499   18.7495   46.8242 H   0  0  0  0  0  0  0  0  0  0  0  0
  1  2  2  0
  1  6  1  0
  2  3  1  0
  3  4  2  0
  4  5  1  0
  5  6  2  0
  6  7  1  0
  7  8  2  0
  7  9  1  0
  8 16  1  0
  9 10  2  0
 10 11  1  0
 10 15  1  0
 11 12  1  0
 11 13  1  0
 13 14  2  0
 14 15  1  0
 15 16  2  0
 16 17  1  0
  1 18  1  0
  2 19  1  0
  3 20  1  0
  5 21  1  0
 12 22  1  0
 12 23  1  0
 12 24  1  0
 14 25  1  0
 17 26  1  0
 17 27  1  0
M  END
>  <mol_id>  (46) 
2026-09-18-6fnk-s0-n100-r6-0046

>  <rmsd_to_ref>  (46) 
2.5204081632683097

>  <pose_kind>  (46) 
conformer

$$$$
6fnk.A
     RDKit          3D

 27 29  0  0  0  0  0  0  0  0999 V2000
    1.4692   15.5776   41.2679 C   0  0  0  0  0  0  0  0  0  0  0  0
    0.7737   14.3890   41.0451 C   0  0  0  0  0  0  0  0  0  0  0  0
    0.0046   13.8360   42.0585 C   0  0  0  0  0  0  0  0  0  0  0  0
   -0.0756   14.4724   43.3002 N   0  0  0  0  0  0  0  0  0  0  0  0
    0.6264   15.6669   43.5219 C   0  0  0  0  0  0  0  0  0  0  0  0
    1.4009   16.2224   42.5052 C   0  0  0  0  0  0  0  0  0  0  0  0
    2.1013   17.4120   42.7299 C   0  0  0  0  0  0  0  0  0  0  0  0
    2.9868   17.8715   41.8350 N   0  0  0  0  0  0  0  0  0  0  0  0
    1.8849   18.1102   43.8491 N   0  0  0  0  0  0  0  0  0  0  0  0
    2.5455   19.2536   44.1042 C   0  0  0  0  0  0  0  0  0  0  0  0
    2.5091   20.1009   45.1439 N   0  0  0  0  0  0  0  0  0  0  0  0
    1.6663   19.9659   46.3357 C   0  0  0  0  0  0  0  0  0  0  0  0
    3.2869   21.0391   44.9649 N   0  0  0  0  0  0  0  0  0  0  0  0
    3.8575   20.8643   43.7615 C   0  0  0  0  0  0  0  0  0  0  0  0
    3.4164   19.7228   43.2162 C   0  0  0  0  0  0  0  0  0  0  0  0
    3.6390   19.0254   42.0685 C   0  0  0  0  0  0  0  0  0  0  0  0
    4.5223   19.4726   41.1432 N   0  0  0  0  0  0  0  0  0  0  0  0
    2.0778   16.0115   40.4608 H   0  0  0  0  0  0  0  0  0  0  0  0
    0.8351   13.8906   40.0664 H   0  0  0  0  0  0  0  0  0  0  0  0
   -0.5419   12.8973   41.8848 H   0  0  0  0  0  0  0  0  0  0  0  0
    0.5652   16.1660   44.5003 H   0  0  0  0  0  0  0  0  0  0  0  0
    2.2906   20.0486   47.2376 H   0  0  0  0  0  0  0  0  0  0  0  0
    0.9077   20.7625   46.3405 H   0  0  0  0  0  0  0  0  0  0  0  0
    1.1681   18.9853   46.3233 H   0  0  0  0  0  0  0  0  0  0  0  0
    4.5770   21.5532   43.2950 H   0  0  0  0  0  0  0  0  0  0  0  0
    5.0324   20.3533   41.3015 H   0  0  0  0  0  0  0  0  0  0  0  0
    4.6836   18.9318   40.2815 H   0  0  0  0  0  0  0  0  0  0  0  0
  1  2  2  0
  1  6  1  0
  2  3  1  0
  3  4  2  0
  4  5  1  0
  5  6  2  0
  6  7  1  0
  7  8  2  0
  7  9  1  0
  8 16  1  0
  9 10  2  0
 10 11  1  0
 10 15  1  0
 11 12  1  0
 11 13  1  0
 13 14  2  0
 14 15  1  0
 15 16  2  0
 16 17  1  0
  1 18  1  0
  2 19  1  0
  3 20  1  0
  5 21  1  0
 12 22  1  0
 12 23  1  0
 12 24  1  0
 14 25  1  0
 17 26  1  0
 17 27  1  0
M  END
>  <mol_id>  (47) 
2026-09-18-6fnk-s0-n100-r6-0047

>  <rmsd_to_ref>  (47) 
2.56632653061471

>  <pose_kind>  (47) 
rigid

$$$$
6fnk.A
     RDKit          3D

 27 29  0  0  0  0  0  0  0  0999 V2000
    1.2127   15.3245   41.8409 C   0  0  0  0  0  0  0  0  0  0  0  0
    0.9649   14.0065   41.5021 C   0  0  0  0  0  0  0  0  0  0  0  0
   -0.3281   13.6563   41.1693 C   0  0  0  0  0  0  0  0  0  0  0  0
   -1.3317   14.5676   41.1710 N   0  0  0  0  0  0  0  0  0  0  0  0
   -1.0882   15.8493   41.5009 C   0  0  0  0  0  0  0  0  0  0  0  0
    0.1933   16.2606   41.8449 C   0  0  0  0  0  0  0  0  0  0  0  0
    0.4775   17.6450   42.2054 C   0  0  0  0  0  0  0  0  0  0  0  0
    1.7158   18.0490   42.5392 N   0  0  0  0  0  0  0  0  0  0  0  0
   -0.5270   18.5379   42.2029 N   0  0  0  0  0  0  0  0  0  0  0  0
   -0.3272   19.8367   42.5279 C   0  0  0  0  0  0  0  0  0  0  0  0
   -1.1045   20.9322   42.6149 N   0  0  0  0  0  0  0  0  0  0  0  0
   -2.5287   20.9822   42.3441 C   0  0  0  0  0  0  0  0  0  0  0  0
   -0.3753   21.9733   42.9880 N   0  0  0  0  0  0  0  0  0  0  0  0
    0.9155   21.5874   43.1586 C   0  0  0  0  0  0  0  0  0  0  0  0
    0.9667   20.2333   42.8711 C   0  0  0  0  0  0  0  0  0  0  0  0
    2.0062   19.3273   42.8777 C   0  0  0  0  0  0  0  0  0  0  0  0
    3.3338   19.7041   43.2232 N   0  0  0  0  0  0  0  0  0  0  0  0
    2.2402   15.5997   42.1047 H   0  0  0  0  0  0  0  0  0  0  0  0
    1.7513   13.2490   41.4913 H   0  0  0  0  0  0  0  0  0  0  0  0
   -0.4912   12.6166   40.9086 H   0  0  0  0  0  0  0  0  0  0  0  0
   -1.9205   16.5557   41.4914 H   0  0  0  0  0  0  0  0  0  0  0  0
   -2.6669   21.6396   41.4516 H   0  0  0  0  0  0  0  0  0  0  0  0
   -2.9153   19.9710   42.2080 H   0  0  0  0  0  0  0  0  0  0  0  0
   -3.0867   21.5207   43.1629 H   0  0  0  0  0  0  0  0  0  0  0  0
    1.7522   22.2280   43.4650 H   0  0  0  0  0  0  0  0  0  0  0  0
    4.1049   19.1659   42.7708 H   0  0  0  0  0  0  0  0  0  0  0  0
    3.4914   20.4830   43.8976 H   0  0  0  0  0  0  0  0  0  0  0  0
  1  2  2  0
  1  6  1  0
  2  3  1  0
  3  4  2  0
  4  5  1  0
  5  6  2  0
  6  7  1  0
  7  8  2  0
  7  9  1  0
  8 16  1  0
  9 10  2  0
 10 11  1  0
 10 15  1  0
 11 12  1  0
 11 13  1  0
 13 14  2  0
 14 15  1  0
 15 16  2  0
 16 17  1  0
  1 18  1  0
  2 19  1  0
  3 20  1  0
  5 21  1  0
 12 22  1  0
 12 23  1  0
 12 24  1  0
 14 25  1  0
 17 26  1  0
 17 27  1  0
M  END
>  <mol_id>  (48) 
2026-09-18-6fnk-s0-n100-r6-0048

>  <rmsd_to_ref>  (48) 
2.6122448979608244

>  <pose_kind>  (48) 
conformer

$$$$
6fnk.A
     RDKit          3D

 27 29  0  0  0  0  0  0  0  0999 V2000
    2.3791   18.3662   39.1129 C   0  0  0  0  0  0  0  0  0  0  0  0
    2.8413   17.9011   37.8817 C   0  0  0  0  0  0  0  0  0  0  0  0
    3.3175   16.6033   37.7659 C   0  0  0  0  0  0  0  0  0  0  0  0
    3.3299   15.7622   38.8820 N   0  0  0  0  0  0  0  0  0  0  0  0
    2.8658   16.2334   40.1195 C   0  0  0  0  0  0  0  0  0  0  0  0
    2.3890   17.5376   40.2375 C   0  0  0  0  0  0  0  0  0  0  0  0
    1.9292   18.0052   41.4728 C   0  0  0  0  0  0  0  0  0  0  0  0
    1.6319   19.2994   41.6541 N   0  0  0  0  0  0  0  0  0  0  0  0
    1.7751   17.1530   42.4912 N   0  0  0  0  0  0  0  0  0  0  0  0
    1.3437   17.5667   43.6961 C   0  0  0  0  0  0  0  0  0  0  0  0
    1.1310   16.9135   44.8486 N   0  0  0  0  0  0  0  0  0  0  0  0
    1.3311   15.4790   45.0749 C   0  0  0  0  0  0  0  0  0  0  0  0
    0.7261   17.6880   45.7165 N   0  0  0  0  0  0  0  0  0  0  0  0
    0.6218   18.9033   45.1540 C   0  0  0  0  0  0  0  0  0  0  0  0
    1.0349   18.8465   43.8808 C   0  0  0  0  0  0  0  0  0  0  0  0
    1.1791   19.7225   42.8488 C   0  0  0  0  0  0  0  0  0  0  0  0
    0.8772   21.0346   43.0029 N   0  0  0  0  0  0  0  0  0  0  0  0
    2.0028   19.3963   39.1991 H   0  0  0  0  0  0  0  0  0  0  0  0
    2.8283   18.5629   37.0032 H   0  0  0  0  0  0  0  0  0  0  0  0
    3.6850   16.2364   36.7962 H   0  0  0  0  0  0  0  0  0  0  0  0
    2.8783   15.5720   40.9984 H   0  0  0  0  0  0  0  0  0  0  0  0
    1.9631   15.3326   45.9632 H   0  0  0  0  0  0  0  0  0  0  0  0
    0.3569   14.9935   45.2339 H   0  0  0  0  0  0  0  0  0  0  0  0
    1.8234   15.0345   44.1973 H   0  0  0  0  0  0  0  0  0  0  0  0
    0.2534   19.8071   45.6613 H   0  0  0  0  0  0  0  0  0  0  0  0
    0.5291   21.3800   43.9087 H   0  0  0  0  0  0  0  0  0  0  0  0
    0.9957   21.6864   42.2143 H   0  0  0  0  0  0  0  0  0  0  0  0
  1  2  2  0
  1  6  1  0
  2  3  1  0
  3  4  2  0
  4  5  1  0
  5  6  2  0
  6  7  1  0
  7  8  2  0
  7  9  1  0
  8 16  1  0
  9 10  2  0
 10 11  1  0
 10 15  1  0
 11 12  1  0
 11 13  1  0
 13 14  2  0
 14 15  1  0
 15 16  2  0
 16 17  1  0
  1 18  1  0
  2 19  1  0
  3 20  1  0
  5 21  1  0
 12 22  1  0
 12 23  1  0
 12 24  1  0
 14 25  1  0
 17 26  1  0
 17 27  1  0
M  END
>  <mol_id>  (49) 
2026-09-18-6fnk-s0-n100-r6-0049

>  <rmsd_to_ref>  (49) 
2.658163265307264

>  <pose_kind>  (49) 
rigid

$$$$
6fnk.A
     RDKit          3D

 27 29  0  0  0  0  0  0  0  0999 V2000
    4.8315   18.2065   41.6645 C   0  0  0  0  0  0  0  0  0  0  0  0
    6.0366   17.8193   41.0825 C   0  0  0  0  0  0  0  0  0  0  0  0
    6.3455   16.4691   40.9104 C   0  0  0  0  0  0  0  0  0  0  0  0
    5.4552   15.5483   41.3183 N   0  0  0  0  0  0  0  0  0  0  0  0
    4.2811   15.8551   41.8841 C   0  0  0  0  0  0  0  0  0  0  0  0
    3.9554   17.1916   42.0640 C   0  0  0  0  0  0  0  0  0  0  0  0
    2.6960   17.6048   42.6724 C   0  0  0  0  0  0  0  0  0  0  0  0
    2.3674   18.8926   42.8527 N   0  0  0  0  0  0  0  0  0  0  0  0
    1.8064   16.6772   43.0798 N   0  0  0  0  0  0  0  0  0  0  0  0
    0.6319   16.9981   43.6461 C   0  0  0  0  0  0  0  0  0  0  0  0
   -0.4103   16.2965   44.1305 N   0  0  0  0  0  0  0  0  0  0  0  0
   -0.5316   14.8441   44.1618 C   0  0  0  0  0  0  0  0  0  0  0  0
   -1.3474   17.1316   44.5928 N   0  0  0  0  0  0  0  0  0  0  0  0
   -0.9226   18.4091   44.4135 C   0  0  0  0  0  0  0  0  0  0  0  0
    0.3176   18.3425   43.8206 C   0  0  0  0  0  0  0  0  0  0  0  0
    1.2207   19.3123   43.4075 C   0  0  0  0  0  0  0  0  0  0  0  0
    0.9567   20.6945   43.5587 N   0  0  0  0  0  0  0  0  0  0  0  0
    4.5707   19.2488   41.8080 H   0  0  0  0  0  0  0  0  0  0  0  0
    6.7005   18.6107   40.7802 H   0  0  0  0  0  0  0  0  0  0  0  0
    7.2968   16.1841   40.4514 H   0  0  0  0  0  0  0  0  0  0  0  0
    3.5992   15.0878   42.1954 H   0  0  0  0  0  0  0  0  0  0  0  0
    0.4836   14.4390   44.2625 H   0  0  0  0  0  0  0  0  0  0  0  0
   -1.0636   14.4592   43.2526 H   0  0  0  0  0  0  0  0  0  0  0  0
   -1.1139   14.5164   45.0515 H   0  0  0  0  0  0  0  0  0  0  0  0
   -1.4058   19.3318   44.6609 H   0  0  0  0  0  0  0  0  0  0  0  0
    1.7002   21.2721   44.0506 H   0  0  0  0  0  0  0  0  0  0  0  0
    0.0731   21.1591   43.2105 H   0  0  0  0  0  0  0  0  0  0  0  0
  1  2  2  0
  1  6  1  0
  2  3  1  0
  3  4  2  0
  4  5  1  0
  5  6  2  0
  6  7  1  0
  7  8  2  0
  7  9  1  0
  8 16  1  0
  9 10  2  0
 10 11  1  0
 10 15  1  0
 11 12  1  0
 11 13  1  0
 13 14  2  0
 14 15  1  0
 15 16  2  0
 16 17  1  0
  1 18  1  0
  2 19  1  0
  3 20  1  0
  5 21  1  0
 12 22  1  0
 12 23  1  0
 12 24  1  0
 14 25  1  0
 17 26  1  0
 17 27  1  0
M  END
>  <mol_id>  (50) 
2026-09-18-6fnk-s0-n100-r6-0050

>  <rmsd_to_ref>  (50) 
2.7040816326570125

>  <pose_kind>  (50) 
conformer

$$$$
6fnk.A
     RDKit          3D

 27 29  0  0  0  0  0  0  0  0999 V2000
    0.3810   14.5215   42.0866 C   0  0  0  0  0  0  0  0  0  0  0  0
    0.3218   13.2566   42.6717 C   0  0  0  0  0  0  0  0  0  0  0  0
    0.3590   13.1297   44.0527 C   0  0  0  0  0  0  0  0  0  0  0  0
    0.4518   14.2696   44.8560 N   0  0  0  0  0  0  0  0  0  0  0  0
    0.5128   15.5405   44.2645 C   0  0  0  0  0  0  0  0  0  0  0  0
    0.4774   15.6691   42.8773 C   0  0  0  0  0  0  0  0  0  0  0  0
    0.5407   16.9371   42.2905 C   0  0  0  0  0  0  0  0  0  0  0  0
    0.6851   17.0785   40.9657 N   0  0  0  0  0  0  0  0  0  0  0  0
    0.4500   18.0295   43.0557 N   0  0  0  0  0  0  0  0  0  0  0  0
    0.5154   19.2653   42.5289 C   0  0  0  0  0  0  0  0  0  0  0  0
    0.4653   20.4847   43.0863 N   0  0  0  0  0  0  0  0  0  0  0  0
    0.3087   20.7727   44.5151 C   0  0  0  0  0  0  0  0  0  0  0  0
    0.5606   21.3589   42.2238 N   0  0  0  0  0  0  0  0  0  0  0  0
    0.6471   20.7419   41.0338 C   0  0  0  0  0  0  0  0  0  0  0  0
    0.6461   19.4144   41.2144 C   0  0  0  0  0  0  0  0  0  0  0  0
    0.7307   18.3095   40.4236 C   0  0  0  0  0  0  0  0  0  0  0  0
    0.8680   18.4246   39.0803 N   0  0  0  0  0  0  0  0  0  0  0  0
    0.3514   14.6164   40.9911 H   0  0  0  0  0  0  0  0  0  0  0  0
    0.2457   12.3604   42.0386 H   0  0  0  0  0  0  0  0  0  0  0  0
    0.3154   12.1326   44.5151 H   0  0  0  0  0  0  0  0  0  0  0  0
    0.5886   16.4372   44.8971 H   0  0  0  0  0  0  0  0  0  0  0  0
    1.0999   21.4651   44.8385 H   0  0  0  0  0  0  0  0  0  0  0  0
   -0.6751   21.2322   44.6909 H   0  0  0  0  0  0  0  0  0  0  0  0
    0.3839   19.8367   45.0882 H   0  0  0  0  0  0  0  0  0  0  0  0
    0.7093   21.2491   40.0597 H   0  0  0  0  0  0  0  0  0  0  0  0
    0.9051   19.3570   38.6444 H   0  0  0  0  0  0  0  0  0  0  0  0
    0.9353   17.5795   38.4953 H   0  0  0  0  0  0  0  0  0  0  0  0
  1  2  2  0
  1  6  1  0
  2  3  1  0
  3  4  2  0
  4  5  1  0
  5  6  2  0
  6  7  1  0
  7  8  2  0
  7  9  1  0
  8 16  1  0
  9 10  2  0
 10 11  1  0
 10 15  1  0
 11 12  1  0
 11 13  1  0
 13 14  2  0
 14 15  1  0
 15 16  2  0
 16 17  1  0
  1 18  1  0
  2 19  1  0
  3 20  1  0
  5 21  1  0
 12 22  1  0
 12 23  1  0
 12 24  1  0
 14 25  1  0
 17 26  1  0
 17 27  1  0
M  END
>  <mol_id>  (51) 
2026-09-18-6fnk-s0-n100-r6-0051

>  <rmsd_to_ref>  (51) 
2.7500000000037335

>  <pose_kind>  (51) 
rigid

$$$$
6fnk.A
     RDKit          3D

 27 29  0  0  0  0  0  0  0  0999 V2000
    1.7581   15.1440   43.5856 C   0  0  0  0  0  0  0  0  0  0  0  0
    1.9456   13.9805   44.2907 C   0  0  0  0  0  0  0  0  0  0  0  0
    1.8382   13.9588   45.6792 C   0  0  0  0  0  0  0  0  0  0  0  0
    1.5434   15.0978   46.3678 N   0  0  0  0  0  0  0  0  0  0  0  0
    1.3545   16.2564   45.6923 C   0  0  0  0  0  0  0  0  0  0  0  0
    1.4561   16.3033   44.3107 C   0  0  0  0  0  0  0  0  0  0  0  0
    1.2579   17.5378   43.5524 C   0  0  0  0  0  0  0  0  0  0  0  0
    1.3625   17.5629   42.1903 N   0  0  0  0  0  0  0  0  0  0  0  0
    0.9657   18.6657   44.2372 N   0  0  0  0  0  0  0  0  0  0  0  0
    0.7729   19.8317   43.5908 C   0  0  0  0  0  0  0  0  0  0  0  0
    0.4791   21.0970   43.9386 N   0  0  0  0  0  0  0  0  0  0  0  0
    0.2718   21.5620   45.2975 C   0  0  0  0  0  0  0  0  0  0  0  0
    0.4019   21.8746   42.8698 N   0  0  0  0  0  0  0  0  0  0  0  0
    0.6481   21.1205   41.7817 C   0  0  0  0  0  0  0  0  0  0  0  0
    0.8837   19.8322   42.2161 C   0  0  0  0  0  0  0  0  0  0  0  0
    1.1789   18.6969   41.5131 C   0  0  0  0  0  0  0  0  0  0  0  0
    1.2972   18.6806   40.0893 N   0  0  0  0  0  0  0  0  0  0  0  0
    1.8395   15.1779   42.4886 H   0  0  0  0  0  0  0  0  0  0  0  0
    2.1818   13.0499   43.7864 H   0  0  0  0  0  0  0  0  0  0  0  0
    1.9840   13.0502   46.2386 H   0  0  0  0  0  0  0  0  0  0  0  0
    1.1162   17.1941   46.2058 H   0  0  0  0  0  0  0  0  0  0  0  0
   -0.8094   21.7861   45.4312 H   0  0  0  0  0  0  0  0  0  0  0  0
    0.8745   22.4944   45.4720 H   0  0  0  0  0  0  0  0  0  0  0  0
    0.6442   20.8331   46.0231 H   0  0  0  0  0  0  0  0  0  0  0  0
    0.6556   21.4771   40.7599 H   0  0  0  0  0  0  0  0  0  0  0  0
    0.9316   17.8174   39.5875 H   0  0  0  0  0  0  0  0  0  0  0  0
    1.7257   19.4823   39.5509 H   0  0  0  0  0  0  0  0  0  0  0  0
  1  2  2  0
  1  6  1  0
  2  3  1  0
  3  4  2  0
  4  5  1  0
  5  6  2  0
  6  7  1  0
  7  8  2  0
  7  9  1  0
  8 16  1  0
  9 10  2  0
 10 11  1  0
 10 15  1  0
 11 12  1  0
 11 13  1  0
 13 14  2  0
 14 15  1  0
 15 16  2  0
 16 17  1  0
  1 18  1  0
  2 19  1  0
  3 20  1  0
  5 21  1  0
 12 22  1  0
 12 23  1  0
 12 24  1  0
 14 25  1  0
 17 26  1  0
 17 27  1  0
M  END
>  <mol_id>  (52) 
2026-09-18-6fnk-s0-n100-r6-0052

>  <rmsd_to_ref>  (52) 
2.795918367349253

>  <pose_kind>  (52) 
conformer

$$$$
6fnk.A
     RDKit          3D

 27 29  0  0  0  0  0  0  0  0999 V2000
    2.8511   14.5870   41.4055 C   0  0  0  0  0  0  0  0  0  0  0  0
    2.2416   13.4576   40.8588 C   0  0  0  0  0  0  0  0  0  0  0  0
    0.8609   13.3289   40.8964 C   0  0  0  0  0  0  0  0  0  0  0  0
    0.0820   14.3327   41.4786 N   0  0  0  0  0  0  0  0  0  0  0  0
    0.6980   15.4669   42.0290 C   0  0  0  0  0  0  0  0  0  0  0  0
    2.0851   15.5964   41.9936 C   0  0  0  0  0  0  0  0  0  0  0  0
    2.6964   16.7270   42.5451 C   0  0  0  0  0  0  0  0  0  0  0  0
    4.0280   16.7948   42.6813 N   0  0  0  0  0  0  0  0  0  0  0  0
    1.9482   17.7624   42.9389 N   0  0  0  0  0  0  0  0  0  0  0  0
    2.4991   18.8628   43.4817 C   0  0  0  0  0  0  0  0  0  0  0  0
    1.9623   19.9972   43.9561 N   0  0  0  0  0  0  0  0  0  0  0  0
    0.5341   20.3264   43.9882 C   0  0  0  0  0  0  0  0  0  0  0  0
    2.8432   20.7547   44.3651 N   0  0  0  0  0  0  0  0  0  0  0  0
    4.0243   20.1543   44.1444 C   0  0  0  0  0  0  0  0  0  0  0  0
    3.8199   18.9433   43.6090 C   0  0  0  0  0  0  0  0  0  0  0  0
    4.5933   17.8989   43.2034 C   0  0  0  0  0  0  0  0  0  0  0  0
    5.9425   17.9456   43.3217 N   0  0  0  0  0  0  0  0  0  0  0  0
    3.9464   14.6838   41.3732 H   0  0  0  0  0  0  0  0  0  0  0  0
    2.8555   12.6695   40.3982 H   0  0  0  0  0  0  0  0  0  0  0  0
    0.3794   12.4373   40.4683 H   0  0  0  0  0  0  0  0  0  0  0  0
    0.0847   16.2555   42.4895 H   0  0  0  0  0  0  0  0  0  0  0  0
    0.2519   20.6358   45.0054 H   0  0  0  0  0  0  0  0  0  0  0  0
    0.3314   21.1481   43.2855 H   0  0  0  0  0  0  0  0  0  0  0  0
   -0.0525   19.4424   43.6978 H   0  0  0  0  0  0  0  0  0  0  0  0
    5.0089   20.5902   44.3690 H   0  0  0  0  0  0  0  0  0  0  0  0
    6.3961   18.7808   43.7185 H   0  0  0  0  0  0  0  0  0  0  0  0
    6.5144   17.1458   43.0147 H   0  0  0  0  0  0  0  0  0  0  0  0
  1  2  2  0
  1  6  1  0
  2  3  1  0
  3  4  2  0
  4  5  1  0
  5  6  2  0
  6  7  1  0
  7  8  2  0
  7  9  1  0
  8 16  1  0
  9 10  2  0
 10 11  1  0
 10 15  1  0
 11 12  1  0
 11 13  1  0
 13 14  2  0
 14 15  1  0
 15 16  2  0
 16 17  1  0
  1 18  1  0
  2 19  1  0
  3 20  1  0
  5 21  1  0
 12 22  1  0
 12 23  1  0
 12 24  1  0
 14 25  1  0
 17 26  1  0
 17 27  1  0
M  END
>  <mol_id>  (53) 
2026-09-18-6fnk-s0-n100-r6-0053

>  <rmsd_to_ref>  (53) 
2.841836734695856

>  <pose_kind>  (53) 
rigid

$$$$
6fnk.A
     RDKit          3D

 27 29  0  0  0  0  0  0  0  0999 V2000
    4.1314   15.9414   43.4136 C   0  0  0  0  0  0  0  0  0  0  0  0
    5.0700   15.2513   44.1629 C   0  0  0  0  0  0  0  0  0  0  0  0
    4.6381   14.5328   45.2663 C   0  0  0  0  0  0  0  0  0  0  0  0
    3.3251   14.5166   45.5902 N   0  0  0  0  0  0  0  0  0  0  0  0
    2.4012   15.1818   44.8723 C   0  0  0  0  0  0  0  0  0  0  0  0
    2.7970   15.9068   43.7682 C   0  0  0  0  0  0  0  0  0  0  0  0
    1.8324   16.6439   42.9590 C   0  0  0  0  0  0  0  0  0  0  0  0
    2.1889   17.3594   41.8770 N   0  0  0  0  0  0  0  0  0  0  0  0
    0.5244   16.6332   43.2742 N   0  0  0  0  0  0  0  0  0  0  0  0
   -0.4270   17.2787   42.5901 C   0  0  0  0  0  0  0  0  0  0  0  0
   -1.7634   17.4317   42.6828 N   0  0  0  0  0  0  0  0  0  0  0  0
   -2.6002   16.8393   43.7030 C   0  0  0  0  0  0  0  0  0  0  0  0
   -2.1994   18.2002   41.7086 N   0  0  0  0  0  0  0  0  0  0  0  0
   -1.1574   18.5666   40.9572 C   0  0  0  0  0  0  0  0  0  0  0  0
   -0.0129   18.0050   41.4797 C   0  0  0  0  0  0  0  0  0  0  0  0
    1.3334   18.0415   41.1198 C   0  0  0  0  0  0  0  0  0  0  0  0
    1.7454   18.7892   39.9800 N   0  0  0  0  0  0  0  0  0  0  0  0
    4.4774   16.5067   42.5441 H   0  0  0  0  0  0  0  0  0  0  0  0
    6.1307   15.2499   43.9215 H   0  0  0  0  0  0  0  0  0  0  0  0
    5.3119   13.9685   45.9005 H   0  0  0  0  0  0  0  0  0  0  0  0
    1.3501   15.1486   45.1598 H   0  0  0  0  0  0  0  0  0  0  0  0
   -3.6090   17.2974   43.6966 H   0  0  0  0  0  0  0  0  0  0  0  0
   -2.1755   16.9804   44.7235 H   0  0  0  0  0  0  0  0  0  0  0  0
   -2.7296   15.7661   43.4511 H   0  0  0  0  0  0  0  0  0  0  0  0
   -1.2037   19.1921   40.0934 H   0  0  0  0  0  0  0  0  0  0  0  0
    2.0359   19.7918   40.0204 H   0  0  0  0  0  0  0  0  0  0  0  0
    1.7533   18.2953   39.0551 H   0  0  0  0  0  0  0  0  0  0  0  0
  1  2  2  0
  1  6  1  0
  2  3  1  0
  3  4  2  0
  4  5  1  0
  5  6  2  0
  6  7  1  0
  7  8  2  0
  7  9  1  0
  8 16  1  0
  9 10  2  0
 10 11  1  0
 10 15  1  0
 11 12  1  0
 11 13  1  0
 13 14  2  0
 14 15  1  0
 15 16  2  0
 16 17  1  0
  1 18  1  0
  2 19  1  0
  3 20  1  0
  5 21  1  0
 12 22  1  0
 12 23  1  0
 12 24  1  0
 14 25  1  0
 17 26  1  0
 17 27  1  0
M  END
>  <mol_id>  (54) 
2026-09-18-6fnk-s0-n100-r6-0054

>  <rmsd_to_ref>  (54) 
2.887755102043747

>  <pose_kind>  (54) 
conformer

$$$$
6fnk.A
     RDKit          3D

 27 29  0  0  0  0  0  0  0  0999 V2000
    0.6242   17.5987   40.6708 C   0  0  0  0  0  0  0  0  0  0  0  0
   -0.2121   16.7643   39.9291 C   0  0  0  0  0  0  0  0  0  0  0  0
   -1.0680   15.8867   40.5785 C   0  0  0  0  0  0  0  0  0  0  0  0
   -1.0941   15.8425   41.9751 N   0  0  0  0  0  0  0  0  0  0  0  0
   -0.2506   16.6819   42.7186 C   0  0  0  0  0  0  0  0  0  0  0  0
    0.6110   17.5626   42.0673 C   0  0  0  0  0  0  0  0  0  0  0  0
    1.4523   18.3964   42.8110 C   0  0  0  0  0  0  0  0  0  0  0  0
    2.4090   19.1212   42.2147 N   0  0  0  0  0  0  0  0  0  0  0  0
    1.3017   18.4820   44.1365 N   0  0  0  0  0  0  0  0  0  0  0  0
    2.0968   19.2660   44.8861 C   0  0  0  0  0  0  0  0  0  0  0  0
    2.1455   19.4973   46.2068 N   0  0  0  0  0  0  0  0  0  0  0  0
    1.2659   18.9035   47.2180 C   0  0  0  0  0  0  0  0  0  0  0  0
    3.0405   20.3007   46.4727 N   0  0  0  0  0  0  0  0  0  0  0  0
    3.6109   20.6656   45.3126 C   0  0  0  0  0  0  0  0  0  0  0  0
    3.0401   19.9976   44.3012 C   0  0  0  0  0  0  0  0  0  0  0  0
    3.1976   19.9259   42.9509 C   0  0  0  0  0  0  0  0  0  0  0  0
    4.1513   20.6550   42.3222 N   0  0  0  0  0  0  0  0  0  0  0  0
    1.3011   18.2925   40.1508 H   0  0  0  0  0  0  0  0  0  0  0  0
   -0.1928   16.8021   38.8299 H   0  0  0  0  0  0  0  0  0  0  0  0
   -1.7257   15.2261   39.9945 H   0  0  0  0  0  0  0  0  0  0  0  0
   -0.2696   16.6448   43.8178 H   0  0  0  0  0  0  0  0  0  0  0  0
    1.8752   18.4596   48.0191 H   0  0  0  0  0  0  0  0  0  0  0  0
    0.6152   19.6829   47.6413 H   0  0  0  0  0  0  0  0  0  0  0  0
    0.6470   18.1222   46.7525 H   0  0  0  0  0  0  0  0  0  0  0  0
    4.4228   21.4005   45.2089 H   0  0  0  0  0  0  0  0  0  0  0  0
    4.7659   21.2773   42.8662 H   0  0  0  0  0  0  0  0  0  0  0  0
    4.2616   20.5869   41.3004 H   0  0  0  0  0  0  0  0  0  0  0  0
  1  2  2  0
  1  6  1  0
  2  3  1  0
  3  4  2  0
  4  5  1  0
  5  6  2  0
  6  7  1  0
  7  8  2  0
  7  9  1  0
  8 16  1  0
  9 10  2  0
 10 11  1  0
 10 15  1  0
 11 12  1  0
 11 13  1  0
 13 14  2  0
 14 15  1  0
 15 16  2  0
 16 17  1  0
  1 18  1  0
  2 19  1  0
  3 20  1  0
  5 21  1  0
 12 22  1  0
 12 23  1  0
 12 24  1  0
 14 25  1  0
 17 26  1  0
 17 27  1  0
M  END
>  <mol_id>  (55) 
2026-09-18-6fnk-s0-n100-r6-0055

>  <rmsd_to_ref>  (55) 
2.93367346939277

>  <pose_kind>  (55) 
rigid

$$$$
6fnk.A
     RDKit          3D

 27 29  0  0  0  0  0  0  0  0999 V2000
    2.3870   16.2444   44.8073 C   0  0  0  0  0  0  0  0  0  0  0  0
    2.4233   14.8863   45.1357 C   0  0  0  0  0  0  0  0  0  0  0  0
    1.2931   14.1195   44.8731 C   0  0  0  0  0  0  0  0  0  0  0  0
    0.1849   14.6548   44.3178 N   0  0  0  0  0  0  0  0  0  0  0  0
    0.1348   15.9791   43.9919 C   0  0  0  0  0  0  0  0  0  0  0  0
    1.2411   16.7655   44.2406 C   0  0  0  0  0  0  0  0  0  0  0  0
    1.2290   18.1944   43.9052 C   0  0  0  0  0  0  0  0  0  0  0  0
    2.3034   18.9854   44.1404 N   0  0  0  0  0  0  0  0  0  0  0  0
    0.1034   18.7239   43.3445 N   0  0  0  0  0  0  0  0  0  0  0  0
    0.0482   20.0267   43.0214 C   0  0  0  0  0  0  0  0  0  0  0  0
   -0.9259   20.8033   42.4625 N   0  0  0  0  0  0  0  0  0  0  0  0
   -2.2590   20.3353   42.0518 C   0  0  0  0  0  0  0  0  0  0  0  0
   -0.4788   22.0308   42.3525 N   0  0  0  0  0  0  0  0  0  0  0  0
    0.7912   22.1304   42.8239 C   0  0  0  0  0  0  0  0  0  0  0  0
    1.1251   20.8737   43.2447 C   0  0  0  0  0  0  0  0  0  0  0  0
    2.2693   20.3101   43.8206 C   0  0  0  0  0  0  0  0  0  0  0  0
    3.4121   21.1197   44.0781 N   0  0  0  0  0  0  0  0  0  0  0  0
    3.2546   16.8737   44.9994 H   0  0  0  0  0  0  0  0  0  0  0  0
    3.2919   14.4310   45.5792 H   0  0  0  0  0  0  0  0  0  0  0  0
    1.3468   13.0531   45.1408 H   0  0  0  0  0  0  0  0  0  0  0  0
   -0.7360   16.4301   43.5485 H   0  0  0  0  0  0  0  0  0  0  0  0
   -3.0455   20.6313   42.7447 H   0  0  0  0  0  0  0  0  0  0  0  0
   -2.2791   19.2278   41.9923 H   0  0  0  0  0  0  0  0  0  0  0  0
   -2.4885   20.6815   41.0084 H   0  0  0  0  0  0  0  0  0  0  0  0
    1.4290   23.0090   42.8689 H   0  0  0  0  0  0  0  0  0  0  0  0
    4.3519   20.9290   43.6205 H   0  0  0  0  0  0  0  0  0  0  0  0
    3.3626   21.9481   44.7419 H   0  0  0  0  0  0  0  0  0  0  0  0
  1  2  2  0
  1  6  1  0
  2  3  1  0
  3  4  2  0
  4  5  1  0
  5  6  2  0
  6  7  1  0
  7  8  2  0
  7  9  1  0
  8 16  1  0
  9 10  2  0
 10 11  1  0
 10 15  1  0
 11 12  1  0
 11 13  1  0
 13 14  2  0
 14 15  1  0
 15 16  2  0
 16 17  1  0
  1 18  1  0
  2 19  1  0
  3 20  1  0
  5 21  1  0
 12 22  1  0
 12 23  1  0
 12 24  1  0
 14 25  1  0
 17 26  1  0
 17 27  1  0
M  END
>  <mol_id>  (56) 
2026-09-18-6fnk-s0-n100-r6-0056

>  <rmsd_to_ref>  (56) 
2.979591836735532

>  <pose_kind>  (56) 
conformer

$$$$
6fnk.A
     RDKit          3D

 27 29  0  0  0  0  0  0  0  0999 V2000
   -0.9520   15.7093   41.8126 C   0  0  0  0  0  0  0  0  0  0  0  0
   -1.7391   14.5578   41.7871 C   0  0  0  0  0  0  0  0  0  0  0  0
   -2.0161   13.8818   42.9663 C   0  0  0  0  0  0  0  0  0  0  0  0
   -1.5093   14.3572   44.1789 N   0  0  0  0  0  0  0  0  0  0  0  0
   -0.7166   15.5148   44.2012 C   0  0  0  0  0  0  0  0  0  0  0  0
   -0.4361   16.1937   43.0170 C   0  0  0  0  0  0  0  0  0  0  0  0
    0.3563   17.3460   43.0420 C   0  0  0  0  0  0  0  0  0  0  0  0
    0.7844   17.9144   41.9064 N   0  0  0  0  0  0  0  0  0  0  0  0
    0.6906   17.8981   44.2127 N   0  0  0  0  0  0  0  0  0  0  0  0
    1.4580   19.0007   44.2773 C   0  0  0  0  0  0  0  0  0  0  0  0
    1.9271   19.7109   45.3145 N   0  0  0  0  0  0  0  0  0  0  0  0
    1.6852   19.4271   46.7322 C   0  0  0  0  0  0  0  0  0  0  0  0
    2.5984   20.6644   44.9177 N   0  0  0  0  0  0  0  0  0  0  0  0
    2.5739   20.6422   43.5749 C   0  0  0  0  0  0  0  0  0  0  0  0
    1.8765   19.5780   43.1553 C   0  0  0  0  0  0  0  0  0  0  0  0
    1.5354   19.0302   41.9566 C   0  0  0  0  0  0  0  0  0  0  0  0
    1.9476   19.5903   40.7935 N   0  0  0  0  0  0  0  0  0  0  0  0
   -0.7353   16.2413   40.8745 H   0  0  0  0  0  0  0  0  0  0  0  0
   -2.1399   14.1862   40.8325 H   0  0  0  0  0  0  0  0  0  0  0  0
   -2.6342   12.9721   42.9470 H   0  0  0  0  0  0  0  0  0  0  0  0
   -0.3157   15.8871   45.1555 H   0  0  0  0  0  0  0  0  0  0  0  0
    2.6448   19.3962   47.2689 H   0  0  0  0  0  0  0  0  0  0  0  0
    1.0504   20.2165   47.1610 H   0  0  0  0  0  0  0  0  0  0  0  0
    1.1787   18.4556   46.8304 H   0  0  0  0  0  0  0  0  0  0  0  0
    3.0533   21.3845   42.9197 H   0  0  0  0  0  0  0  0  0  0  0  0
    2.5231   20.4443   40.8087 H   0  0  0  0  0  0  0  0  0  0  0  0
    1.6854   19.1619   39.8943 H   0  0  0  0  0  0  0  0  0  0  0  0
  1  2  2  0
  1  6  1  0
  2  3  1  0
  3  4  2  0
  4  5  1  0
  5  6  2  0
  6  7  1  0
  7  8  2  0
  7  9  1  0
  8 16  1  0
  9 10  2  0
 10 11  1  0
 10 15  1  0
 11 12  1  0
 11 13  1  0
 13 14  2  0
 14 15  1  0
 15 16  2  0
 16 17  1  0
  1 18  1  0
  2 19  1  0
  3 20  1  0
  5 21  1  0
 12 22  1  0
 12 23  1  0
 12 24  1  0
 14 25  1  0
 17 26  1  0
 17 27  1  0
M  END
>  <mol_id>  (57) 
2026-09-18-6fnk-s0-n100-r6-0057

>  <rmsd_to_ref>  (57) 
3.0255102040842936

>  <pose_kind>  (57) 
rigid

$$$$
6fnk.A
     RDKit          3D

 27 29  0  0  0  0  0  0  0  0999 V2000
    1.6782   17.1097   38.9185 C   0  0  0  0  0  0  0  0  0  0  0  0
    1.2617   16.6763   37.6727 C   0  0  0  0  0  0  0  0  0  0  0  0
    0.2665   15.7192   37.5977 C   0  0  0  0  0  0  0  0  0  0  0  0
   -0.3061   15.2000   38.7218 N   0  0  0  0  0  0  0  0  0  0  0  0
    0.0882   15.6116   39.9490 C   0  0  0  0  0  0  0  0  0  0  0  0
    1.0851   16.5710   40.0489 C   0  0  0  0  0  0  0  0  0  0  0  0
    1.5366   17.0399   41.3651 C   0  0  0  0  0  0  0  0  0  0  0  0
    2.5168   17.9836   41.4748 N   0  0  0  0  0  0  0  0  0  0  0  0
    0.9867   16.5424   42.4846 N   0  0  0  0  0  0  0  0  0  0  0  0
    1.3709   16.9443   43.7101 C   0  0  0  0  0  0  0  0  0  0  0  0
    0.9766   16.5990   44.9359 N   0  0  0  0  0  0  0  0  0  0  0  0
   -0.0485   15.6258   45.3285 C   0  0  0  0  0  0  0  0  0  0  0  0
    1.6704   17.2892   45.8376 N   0  0  0  0  0  0  0  0  0  0  0  0
    2.5378   18.1047   45.2092 C   0  0  0  0  0  0  0  0  0  0  0  0
    2.3725   17.9095   43.8542 C   0  0  0  0  0  0  0  0  0  0  0  0
    2.9133   18.3971   42.6938 C   0  0  0  0  0  0  0  0  0  0  0  0
    3.9478   19.3927   42.7959 N   0  0  0  0  0  0  0  0  0  0  0  0
    2.4672   17.8690   38.9950 H   0  0  0  0  0  0  0  0  0  0  0  0
    1.7381   17.1105   36.8197 H   0  0  0  0  0  0  0  0  0  0  0  0
   -0.0418   15.3964   36.6043 H   0  0  0  0  0  0  0  0  0  0  0  0
   -0.3468   15.2186   40.8570 H   0  0  0  0  0  0  0  0  0  0  0  0
    0.2978   14.9325   46.1022 H   0  0  0  0  0  0  0  0  0  0  0  0
   -0.4675   15.1694   44.4273 H   0  0  0  0  0  0  0  0  0  0  0  0
   -0.8624   16.2442   45.7967 H   0  0  0  0  0  0  0  0  0  0  0  0
    3.2495   18.7994   45.6385 H   0  0  0  0  0  0  0  0  0  0  0  0
    4.0202   19.9944   43.6476 H   0  0  0  0  0  0  0  0  0  0  0  0
    4.6197   19.4824   41.9781 H   0  0  0  0  0  0  0  0  0  0  0  0
  1  2  2  0
  1  6  1  0
  2  3  1  0
  3  4  2  0
  4  5  1  0
  5  6  2  0
  6  7  1  0
  7  8  2  0
  7  9  1  0
  8 16  1  0
  9 10  2  0
 10 11  1  0
 10 15  1  0
 11 12  1  0
 11 13  1  0
 13 14  2  0
 14 15  1  0
 15 16  2  0
 16 17  1  0
  1 18  1  0
  2 19  1  0
  3 20  1  0
  5 21  1  0
 12 22  1  0
 12 23  1  0
 12 24  1  0
 14 25  1  0
 17 26  1  0
 17 27  1  0
M  END
>  <mol_id>  (58) 
2026-09-18-6fnk-s0-n100-r6-0058

>  <rmsd_to_ref>  (58) 
3.071428571433616

>  <pose_kind>  (58) 
conformer

$$$$
6fnk.A
     RDKit          3D

 27 29  0  0  0  0  0  0  0  0999 V2000
    1.4519   16.1725   42.7211 C   0  0  0  0  0  0  0  0  0  0  0  0
    2.6432   15.4552   42.6114 C   0  0  0  0  0  0  0  0  0  0  0  0
    3.8413   16.0388   42.9967 C   0  0  0  0  0  0  0  0  0  0  0  0
    3.8527   17.3434   43.4979 N   0  0  0  0  0  0  0  0  0  0  0  0
    2.6529   18.0630   43.6056 C   0  0  0  0  0  0  0  0  0  0  0  0
    1.4490   17.4784   43.2171 C   0  0  0  0  0  0  0  0  0  0  0  0
    0.2550   18.1991   43.3234 C   0  0  0  0  0  0  0  0  0  0  0  0
   -0.8843   17.7292   42.7969 N   0  0  0  0  0  0  0  0  0  0  0  0
    0.2409   19.3722   43.9642 N   0  0  0  0  0  0  0  0  0  0  0  0
   -0.8857   20.0978   44.0793 C   0  0  0  0  0  0  0  0  0  0  0  0
   -1.1364   21.2856   44.6507 N   0  0  0  0  0  0  0  0  0  0  0  0
   -0.1596   22.1314   45.3431 C   0  0  0  0  0  0  0  0  0  0  0  0
   -2.3252   21.5830   44.5267 N   0  0  0  0  0  0  0  0  0  0  0  0
   -2.9283   20.5696   43.8835 C   0  0  0  0  0  0  0  0  0  0  0  0
   -2.0227   19.6332   43.5707 C   0  0  0  0  0  0  0  0  0  0  0  0
   -2.0229   18.4355   42.9235 C   0  0  0  0  0  0  0  0  0  0  0  0
   -3.1630   17.9336   42.3899 N   0  0  0  0  0  0  0  0  0  0  0  0
    0.5048   15.7049   42.4139 H   0  0  0  0  0  0  0  0  0  0  0  0
    2.6327   14.4274   42.2196 H   0  0  0  0  0  0  0  0  0  0  0  0
    4.7817   15.4751   42.9079 H   0  0  0  0  0  0  0  0  0  0  0  0
    2.6627   19.0908   43.9976 H   0  0  0  0  0  0  0  0  0  0  0  0
   -0.1996   23.1505   44.9310 H   0  0  0  0  0  0  0  0  0  0  0  0
   -0.3958   22.1606   46.4170 H   0  0  0  0  0  0  0  0  0  0  0  0
    0.8497   21.7177   45.2008 H   0  0  0  0  0  0  0  0  0  0  0  0
   -4.0018   20.5167   43.6495 H   0  0  0  0  0  0  0  0  0  0  0  0
   -4.0457   18.4575   42.4752 H   0  0  0  0  0  0  0  0  0  0  0  0
   -3.1469   17.0281   41.8992 H   0  0  0  0  0  0  0  0  0  0  0  0
  1  2  2  0
  1  6  1  0
  2  3  1  0
  3  4  2  0
  4  5  1  0
  5  6  2  0
  6  7  1  0
  7  8  2  0
  7  9  1  0
  8 16  1  0
  9 10  2  0
 10 11  1  0
 10 15  1  0
 11 12  1  0
 11 13  1  0
 13 14  2  0
 14 15  1  0
 15 16  2  0
 16 17  1  0
  1 18  1  0
  2 19  1  0
  3 20  1  0
  5 21  1  0
 12 22  1  0
 12 23  1  0
 12 24  1  0
 14 25  1  0
 17 26  1  0
 17 27  1  0
M  END
>  <mol_id>  (59) 
2026-09-18-6fnk-s0-n100-r6-0059

>  <rmsd_to_ref>  (59) 
3.11734693877851

>  <pose_kind>  (59) 
rigid

$$$$
6fnk.A
     RDKit          3D

 27 29  0  0  0  0  0  0  0  0999 V2000
    3.4612   18.6158   41.5001 C   0  0  0  0  0  0  0  0  0  0  0  0
    4.7524   18.6012   40.9753 C   0  0  0  0  0  0  0  0  0  0  0  0
    5.8179   18.2445   41.7698 C   0  0  0  0  0  0  0  0  0  0  0  0
    5.6540   17.9021   43.0626 N   0  0  0  0  0  0  0  0  0  0  0  0
    4.4076   17.9020   43.6197 C   0  0  0  0  0  0  0  0  0  0  0  0
    3.3148   18.2617   42.8265 C   0  0  0  0  0  0  0  0  0  0  0  0
    1.9628   18.2665   43.4132 C   0  0  0  0  0  0  0  0  0  0  0  0
    0.8772   18.6131   42.6637 N   0  0  0  0  0  0  0  0  0  0  0  0
    1.7988   17.9240   44.7058 N   0  0  0  0  0  0  0  0  0  0  0  0
    0.5964   17.9064   45.3053 C   0  0  0  0  0  0  0  0  0  0  0  0
    0.1186   17.6230   46.5280 N   0  0  0  0  0  0  0  0  0  0  0  0
    0.9524   17.2093   47.6287 C   0  0  0  0  0  0  0  0  0  0  0  0
   -1.1952   17.7850   46.5377 N   0  0  0  0  0  0  0  0  0  0  0  0
   -1.5957   18.1802   45.3093 C   0  0  0  0  0  0  0  0  0  0  0  0
   -0.4917   18.2637   44.5188 C   0  0  0  0  0  0  0  0  0  0  0  0
   -0.3618   18.6203   43.1910 C   0  0  0  0  0  0  0  0  0  0  0  0
   -1.4829   18.9809   42.4076 N   0  0  0  0  0  0  0  0  0  0  0  0
    2.5969   18.8900   40.9094 H   0  0  0  0  0  0  0  0  0  0  0  0
    4.8483   18.8824   39.9312 H   0  0  0  0  0  0  0  0  0  0  0  0
    6.7953   18.2472   41.3239 H   0  0  0  0  0  0  0  0  0  0  0  0
    4.2852   17.6234   44.6664 H   0  0  0  0  0  0  0  0  0  0  0  0
    1.7604   16.5285   47.3152 H   0  0  0  0  0  0  0  0  0  0  0  0
    0.3257   16.6795   48.3653 H   0  0  0  0  0  0  0  0  0  0  0  0
    1.4654   18.0871   48.0821 H   0  0  0  0  0  0  0  0  0  0  0  0
   -2.6313   18.3739   45.0818 H   0  0  0  0  0  0  0  0  0  0  0  0
   -2.4456   18.8518   42.8286 H   0  0  0  0  0  0  0  0  0  0  0  0
   -1.3403   19.3591   41.4499 H   0  0  0  0  0  0  0  0  0  0  0  0
  1  2  2  0
  1  6  1  0
  2  3  1  0
  3  4  2  0
  4  5  1  0
  5  6  2  0
  6  7  1  0
  7  8  2  0
  7  9  1  0
  8 16  1  0
  9 10  2  0
 10 11  1  0
 10 15  1  0
 11 12  1  0
 11 13  1  0
 13 14  2  0
 14 15  1  0
 15 16  2  0
 16 17  1  0
  1 18  1  0
  2 19  1  0
  3 20  1  0
  5 21  1  0
 12 22  1  0
 12 23  1  0
 12 24  1  0
 14 25  1  0
 17 26  1  0
 17 27  1  0
M  END
>  <mol_id>  (60) 
2026-09-18-6fnk-s0-n100-r6-0060

>  <rmsd_to_ref>  (60) 
3.163265306125454

>  <pose_kind>  (60) 
conformer

$$$$
6fnk.A
     RDKit          3D

 27 29  0  0  0  0  0  0  0  0999 V2000
    1.5168   15.5812   42.1106 C   0  0  0  0  0  0  0  0  0  0  0  0
    0.9341   14.3690   42.4808 C   0  0  0  0  0  0  0  0  0  0  0  0
   -0.3143   14.3565   43.0856 C   0  0  0  0  0  0  0  0  0  0  0  0
   -0.9884   15.5582   43.3198 N   0  0  0  0  0  0  0  0  0  0  0  0
   -0.3991   16.7760   42.9477 C   0  0  0  0  0  0  0  0  0  0  0  0
    0.8558   16.7900   42.3418 C   0  0  0  0  0  0  0  0  0  0  0  0
    1.4416   18.0056   41.9741 C   0  0  0  0  0  0  0  0  0  0  0  0
    2.7130   18.0602   41.5538 N   0  0  0  0  0  0  0  0  0  0  0  0
    0.7268   19.1336   42.0341 N   0  0  0  0  0  0  0  0  0  0  0  0
    1.2581   20.3223   41.6972 C   0  0  0  0  0  0  0  0  0  0  0  0
    0.7520   21.5650   41.6919 N   0  0  0  0  0  0  0  0  0  0  0  0
   -0.6111   21.9413   42.0783 C   0  0  0  0  0  0  0  0  0  0  0  0
    1.5952   22.3738   41.3020 N   0  0  0  0  0  0  0  0  0  0  0  0
    2.7053   21.6819   40.9970 C   0  0  0  0  0  0  0  0  0  0  0  0
    2.5146   20.3837   41.2675 C   0  0  0  0  0  0  0  0  0  0  0  0
    3.2501   19.2405   41.1935 C   0  0  0  0  0  0  0  0  0  0  0  0
    4.5349   19.2668   40.7634 N   0  0  0  0  0  0  0  0  0  0  0  0
    2.5070   15.5852   41.6316 H   0  0  0  0  0  0  0  0  0  0  0  0
    1.4643   13.4236   42.2933 H   0  0  0  0  0  0  0  0  0  0  0  0
   -0.7733   13.4014   43.3807 H   0  0  0  0  0  0  0  0  0  0  0  0
   -0.9288   17.7218   43.1346 H   0  0  0  0  0  0  0  0  0  0  0  0
   -0.5712   22.7534   42.8191 H   0  0  0  0  0  0  0  0  0  0  0  0
   -1.1632   22.2820   41.1901 H   0  0  0  0  0  0  0  0  0  0  0  0
   -1.1217   21.0707   42.5158 H   0  0  0  0  0  0  0  0  0  0  0  0
    3.6299   22.1151   40.5876 H   0  0  0  0  0  0  0  0  0  0  0  0
    4.9659   20.1592   40.4827 H   0  0  0  0  0  0  0  0  0  0  0  0
    5.0805   18.3944   40.7170 H   0  0  0  0  0  0  0  0  0  0  0  0
  1  2  2  0
  1  6  1  0
  2  3  1  0
  3  4  2  0
  4  5  1  0
  5  6  2  0
  6  7  1  0
  7  8  2  0
  7  9  1  0
  8 16  1  0
  9 10  2  0
 10 11  1  0
 10 15  1  0
 11 12  1  0
 11 13  1  0
 13 14  2  0
 14 15  1  0
 15 16  2  0
 16 17  1  0
  1 18  1  0
  2 19  1  0
  3 20  1  0
  5 21  1  0
 12 22  1  0
 12 23  1  0
 12 24  1  0
 14 25  1  0
 17 26  1  0
 17 27  1  0
M  END
>  <mol_id>  (61) 
2026-09-18-6fnk-s0-n100-r6-0061

>  <rmsd_to_ref>  (61) 
3.2091836734725527

>  <pose_kind>  (61) 
rigid

$$$$
6fnk.A
     RDKit          3D

 27 29  0  0  0  0  0  0  0  0999 V2000
    3.4725   15.8623   42.2749 C   0  0  0  0  0  0  0  0  0  0  0  0
    4.8379   15.8069   42.0310 C   0  0  0  0  0  0  0  0  0  0  0  0
    5.4868   16.9179   41.5212 C   0  0  0  0  0  0  0  0  0  0  0  0
    4.8463   18.0736   41.2443 N   0  0  0  0  0  0  0  0  0  0  0  0
    3.5095   18.1265   41.4835 C   0  0  0  0  0  0  0  0  0  0  0  0
    2.8237   17.0429   41.9909 C   0  0  0  0  0  0  0  0  0  0  0  0
    1.3720   17.1709   42.2263 C   0  0  0  0  0  0  0  0  0  0  0  0
    0.8151   18.3627   41.9208 N   0  0  0  0  0  0  0  0  0  0  0  0
    0.6454   16.1771   42.7104 N   0  0  0  0  0  0  0  0  0  0  0  0
   -0.6871   16.3121   42.9204 C   0  0  0  0  0  0  0  0  0  0  0  0
   -1.6795   15.5538   43.3742 N   0  0  0  0  0  0  0  0  0  0  0  0
   -1.5176   14.1750   43.8206 C   0  0  0  0  0  0  0  0  0  0  0  0
   -2.8314   16.2085   43.3693 N   0  0  0  0  0  0  0  0  0  0  0  0
   -2.5982   17.4643   42.8895 C   0  0  0  0  0  0  0  0  0  0  0  0
   -1.2541   17.5404   42.6042 C   0  0  0  0  0  0  0  0  0  0  0  0
   -0.5037   18.5778   42.1003 C   0  0  0  0  0  0  0  0  0  0  0  0
   -1.0508   19.8473   41.7660 N   0  0  0  0  0  0  0  0  0  0  0  0
    2.9619   14.9982   42.6725 H   0  0  0  0  0  0  0  0  0  0  0  0
    5.3813   14.8964   42.2417 H   0  0  0  0  0  0  0  0  0  0  0  0
    6.5614   16.9009   41.3201 H   0  0  0  0  0  0  0  0  0  0  0  0
    3.0231   19.0752   41.2486 H   0  0  0  0  0  0  0  0  0  0  0  0
   -2.4206   13.7850   44.3208 H   0  0  0  0  0  0  0  0  0  0  0  0
   -0.6117   14.0388   44.4528 H   0  0  0  0  0  0  0  0  0  0  0  0
   -1.3449   13.4924   42.9402 H   0  0  0  0  0  0  0  0  0  0  0  0
   -3.3304   18.2642   42.7534 H   0  0  0  0  0  0  0  0  0  0  0  0
   -0.8590   20.3457   40.8689 H   0  0  0  0  0  0  0  0  0  0  0  0
   -1.6845   20.2758   42.4990 H   0  0  0  0  0  0  0  0  0  0  0  0
  1  2  2  0
  1  6  1  0
  2  3  1  0
  3  4  2  0
  4  5  1  0
  5  6  2  0
  6  7  1  0
  7  8  2  0
  7  9  1  0
  8 16  1  0
  9 10  2  0
 10 11  1  0
 10 15  1  0
 11 12  1  0
 11 13  1  0
 13 14  2  0
 14 15  1  0
 15 16  2  0
 16 17  1  0
  1 18  1  0
  2 19  1  0
  3 20  1  0
  5 21  1  0
 12 22  1  0
 12 23  1  0
 12 24  1  0
 14 25  1  0
 17 26  1  0
 17 27  1  0
M  END
>  <mol_id>  (62) 
2026-09-18-6fnk-s0-n100-r6-0062

>  <rmsd_to_ref>  (62) 
3.255102040819802

>  <pose_kind>  (62) 
conformer

$$$$
6fnk.A
     RDKit          3D

 27 29  0  0  0  0  0  0  0  0999 V2000
    2.1561   16.3234   42.0993 C   0  0  0  0  0  0  0  0  0  0  0  0
    1.4875   15.2861   41.4489 C   0  0  0  0  0  0  0  0  0  0  0  0
    0.1488   15.4275   41.1137 C   0  0  0  0  0  0  0  0  0  0  0  0
   -0.5273   16.6105   41.4247 N   0  0  0  0  0  0  0  0  0  0  0  0
    0.1475   17.6515   42.0803 C   0  0  0  0  0  0  0  0  0  0  0  0
    1.4918   17.5099   42.4192 C   0  0  0  0  0  0  0  0  0  0  0  0
    2.1611   18.5483   43.0748 C   0  0  0  0  0  0  0  0  0  0  0  0
    3.3956   18.3727   43.5658 N   0  0  0  0  0  0  0  0  0  0  0  0
    1.5693   19.7392   43.2118 N   0  0  0  0  0  0  0  0  0  0  0  0
    2.1776   20.7589   43.8435 C   0  0  0  0  0  0  0  0  0  0  0  0
    1.7849   22.0134   44.1121 N   0  0  0  0  0  0  0  0  0  0  0  0
    0.4984   22.6109   43.7420 C   0  0  0  0  0  0  0  0  0  0  0  0
    2.6676   22.6228   44.7175 N   0  0  0  0  0  0  0  0  0  0  0  0
    3.7134   21.7902   44.8489 C   0  0  0  0  0  0  0  0  0  0  0  0
    3.4070   20.5969   44.3227 C   0  0  0  0  0  0  0  0  0  0  0  0
    4.0237   19.3914   44.1815 C   0  0  0  0  0  0  0  0  0  0  0  0
    5.2751   19.1901   44.6609 N   0  0  0  0  0  0  0  0  0  0  0  0
    3.2176   16.2058   42.3629 H   0  0  0  0  0  0  0  0  0  0  0  0
    2.0215   14.3566   41.2020 H   0  0  0  0  0  0  0  0  0  0  0  0
   -0.3802   14.6090   40.6036 H   0  0  0  0  0  0  0  0  0  0  0  0
   -0.3858   18.5813   42.3273 H   0  0  0  0  0  0  0  0  0  0  0  0
    0.0332   23.0600   44.6318 H   0  0  0  0  0  0  0  0  0  0  0  0
    0.6607   23.3885   42.9811 H   0  0  0  0  0  0  0  0  0  0  0  0
   -0.1639   21.8325   43.3353 H   0  0  0  0  0  0  0  0  0  0  0  0
    4.6747   22.0487   45.3170 H   0  0  0  0  0  0  0  0  0  0  0  0
    5.7742   19.9560   45.1355 H   0  0  0  0  0  0  0  0  0  0  0  0
    5.7272   18.2712   44.5506 H   0  0  0  0  0  0  0  0  0  0  0  0
  1  2  2  0
  1  6  1  0
  2  3  1  0
  3  4  2  0
  4  5  1  0
  5  6  2  0
  6  7  1  0
  7  8  2  0
  7  9  1  0
  8 16  1  0
  9 10  2  0
 10 11  1  0
 10 15  1  0
 11 12  1  0
 11 13  1  0
 13 14  2  0
 14 15  1  0
 15 16  2  0
 16 17  1  0
  1 18  1  0
  2 19  1  0
  3 20  1  0
  5 21  1  0
 12 22  1  0
 12 23  1  0
 12 24  1  0
 14 25  1  0
 17 26  1  0
 17 27  1  0
M  END
>  <mol_id>  (63) 
2026-09-18-6fnk-s0-n100-r6-0063

>  <rmsd_to_ref>  (63) 
3.3010204081663868

>  <pose_kind>  (63) 
rigid

$$$$
6fnk.A
     RDKit          3D

 27 29  0  0  0  0  0  0  0  0999 V2000
    2.3639   17.2059   43.9963 C   0  0  0  0  0  0  0  0  0  0  0  0
    3.6806   16.9439   44.3519 C   0  0  0  0  0  0  0  0  0  0  0  0
    4.5726   16.5637   43.3637 C   0  0  0  0  0  0  0  0  0  0  0  0
    4.2451   16.4313   42.0772 N   0  0  0  0  0  0  0  0  0  0  0  0
    2.9637   16.6852   41.7252 C   0  0  0  0  0  0  0  0  0  0  0  0
    2.0199   17.0699   42.6642 C   0  0  0  0  0  0  0  0  0  0  0  0
    0.6572   17.3274   42.2133 C   0  0  0  0  0  0  0  0  0  0  0  0
    0.3684   17.1824   40.9080 N   0  0  0  0  0  0  0  0  0  0  0  0
   -0.2991   17.7033   43.0808 N   0  0  0  0  0  0  0  0  0  0  0  0
   -1.5587   17.9400   42.6560 C   0  0  0  0  0  0  0  0  0  0  0  0
   -2.6718   18.3173   43.3002 N   0  0  0  0  0  0  0  0  0  0  0  0
   -2.7617   18.5752   44.7311 C   0  0  0  0  0  0  0  0  0  0  0  0
   -3.6654   18.4113   42.4036 N   0  0  0  0  0  0  0  0  0  0  0  0
   -3.1810   18.0931   41.1893 C   0  0  0  0  0  0  0  0  0  0  0  0
   -1.8396   17.7869   41.3133 C   0  0  0  0  0  0  0  0  0  0  0  0
   -0.8764   17.4049   40.4189 C   0  0  0  0  0  0  0  0  0  0  0  0
   -1.1946   17.2549   39.0399 N   0  0  0  0  0  0  0  0  0  0  0  0
    1.6357   17.5082   44.7540 H   0  0  0  0  0  0  0  0  0  0  0  0
    3.9559   17.0476   45.3867 H   0  0  0  0  0  0  0  0  0  0  0  0
    5.5907   16.3648   43.6608 H   0  0  0  0  0  0  0  0  0  0  0  0
    2.7225   16.5695   40.6672 H   0  0  0  0  0  0  0  0  0  0  0  0
   -2.1816   17.8033   45.2765 H   0  0  0  0  0  0  0  0  0  0  0  0
   -3.8201   18.5568   45.0486 H   0  0  0  0  0  0  0  0  0  0  0  0
   -2.3518   19.5618   45.0228 H   0  0  0  0  0  0  0  0  0  0  0  0
   -3.7275   18.0724   40.2571 H   0  0  0  0  0  0  0  0  0  0  0  0
   -2.0323   16.7228   38.7248 H   0  0  0  0  0  0  0  0  0  0  0  0
   -0.5230   17.7202   38.3601 H   0  0  0  0  0  0  0  0  0  0  0  0
  1  2  2  0
  1  6  1  0
  2  3  1  0
  3  4  2  0
  4  5  1  0
  5  6  2  0
  6  7  1  0
  7  8  2  0
  7  9  1  0
  8 16  1  0
  9 10  2  0
 10 11  1  0
 10 15  1  0
 11 12  1  0
 11 13  1  0
 13 14  2  0
 14 15  1  0
 15 16  2  0
 16 17  1  0
  1 18  1  0
  2 19  1  0
  3 20  1  0
  5 21  1  0
 12 22  1  0
 12 23  1  0
 12 24  1  0
 14 25  1  0
 17 26  1  0
 17 27  1  0
M  END
>  <mol_id>  (64) 
2026-09-18-6fnk-s0-n100-r6-0064

>  <rmsd_to_ref>  (64) 
3.3469387755115916

>  <pose_kind>  (64) 
conformer

$$$$
6fnk.A
     RDKit          3D

 27 29  0  0  0  0  0  0  0  0999 V2000
    4.0977   17.5413   44.2142 C   0  0  0  0  0  0  0  0  0  0  0  0
    5.2034   17.2512   45.0138 C   0  0  0  0  0  0  0  0  0  0  0  0
    5.0198   16.8014   46.3131 C   0  0  0  0  0  0  0  0  0  0  0  0
    3.7272   16.6357   46.8182 N   0  0  0  0  0  0  0  0  0  0  0  0
    2.6170   16.9297   46.0121 C   0  0  0  0  0  0  0  0  0  0  0  0
    2.8002   17.3835   44.7073 C   0  0  0  0  0  0  0  0  0  0  0  0
    1.6917   17.6781   43.9070 C   0  0  0  0  0  0  0  0  0  0  0  0
    1.8385   18.2788   42.7180 N   0  0  0  0  0  0  0  0  0  0  0  0
    0.4643   17.3525   44.3247 N   0  0  0  0  0  0  0  0  0  0  0  0
   -0.6263   17.6273   43.5871 C   0  0  0  0  0  0  0  0  0  0  0  0
   -1.9338   17.4155   43.8008 N   0  0  0  0  0  0  0  0  0  0  0  0
   -2.5208   16.7774   44.9828 C   0  0  0  0  0  0  0  0  0  0  0  0
   -2.5998   17.8267   42.8497 N   0  0  0  0  0  0  0  0  0  0  0  0
   -1.7412   18.3079   41.9357 C   0  0  0  0  0  0  0  0  0  0  0  0
   -0.4885   18.2119   42.4011 C   0  0  0  0  0  0  0  0  0  0  0  0
    0.7571   18.5403   41.9607 C   0  0  0  0  0  0  0  0  0  0  0  0
    0.9339   19.1402   40.7585 N   0  0  0  0  0  0  0  0  0  0  0  0
    4.2491   17.8979   43.1847 H   0  0  0  0  0  0  0  0  0  0  0  0
    6.2202   17.3792   44.6142 H   0  0  0  0  0  0  0  0  0  0  0  0
    5.8910   16.5752   46.9455 H   0  0  0  0  0  0  0  0  0  0  0  0
    1.5999   16.8018   46.4110 H   0  0  0  0  0  0  0  0  0  0  0  0
   -3.3117   17.4226   45.3931 H   0  0  0  0  0  0  0  0  0  0  0  0
   -2.9509   15.8054   44.6993 H   0  0  0  0  0  0  0  0  0  0  0  0
   -1.7405   16.6253   45.7430 H   0  0  0  0  0  0  0  0  0  0  0  0
   -2.0234   18.7181   40.9549 H   0  0  0  0  0  0  0  0  0  0  0  0
    0.1202   19.3495   40.1627 H   0  0  0  0  0  0  0  0  0  0  0  0
    1.8821   19.3869   40.4406 H   0  0  0  0  0  0  0  0  0  0  0  0
  1  2  2  0
  1  6  1  0
  2  3  1  0
  3  4  2  0
  4  5  1  0
  5  6  2  0
  6  7  1  0
  7  8  2  0
  7  9  1  0
  8 16  1  0
  9 10  2  0
 10 11  1  0
 10 15  1  0
 11 12  1  0
 11 13  1  0
 13 14  2  0
 14 15  1  0
 15 16  2  0
 16 17  1  0
  1 18  1  0
  2 19  1  0
  3 20  1  0
  5 21  1  0
 12 22  1  0
 12 23  1  0
 12 24  1  0
 14 25  1  0
 17 26  1  0
 17 27  1  0
M  END
>  <mol_id>  (65) 
2026-09-18-6fnk-s0-n100-r6-0065

>  <rmsd_to_ref>  (65) 
3.39285714285731

>  <pose_kind>  (65) 
rigid

$$$$
6fnk.A
     RDKit          3D

 27 29  0  0  0  0  0  0  0  0999 V2000
    4.2711   17.5051   39.7790 C   0  0  0  0  0  0  0  0  0  0  0  0
    5.6303   17.5063   39.7678 C   0  0  0  0  0  0  0  0  0  0  0  0
    6.3664   18.0079   40.8010 C   0  0  0  0  0  0  0  0  0  0  0  0
    5.7183   18.5269   41.8843 N   0  0  0  0  0  0  0  0  0  0  0  0
    4.3557   18.5410   41.9273 C   0  0  0  0  0  0  0  0  0  0  0  0
    3.6228   18.0314   40.8773 C   0  0  0  0  0  0  0  0  0  0  0  0
    2.1631   18.0309   40.8910 C   0  0  0  0  0  0  0  0  0  0  0  0
    1.4522   17.5315   39.8620 N   0  0  0  0  0  0  0  0  0  0  0  0
    1.5027   18.5444   41.9630 N   0  0  0  0  0  0  0  0  0  0  0  0
    0.1501   18.5715   42.0329 C   0  0  0  0  0  0  0  0  0  0  0  0
   -0.7314   19.0106   42.9526 N   0  0  0  0  0  0  0  0  0  0  0  0
   -0.4304   19.6233   44.2207 C   0  0  0  0  0  0  0  0  0  0  0  0
   -1.9479   18.7814   42.4894 N   0  0  0  0  0  0  0  0  0  0  0  0
   -1.8849   18.2033   41.2894 C   0  0  0  0  0  0  0  0  0  0  0  0
   -0.5379   18.0439   40.9451 C   0  0  0  0  0  0  0  0  0  0  0  0
    0.1071   17.5169   39.8454 C   0  0  0  0  0  0  0  0  0  0  0  0
   -0.6321   16.9862   38.7519 N   0  0  0  0  0  0  0  0  0  0  0  0
    3.6579   17.1083   38.9619 H   0  0  0  0  0  0  0  0  0  0  0  0
    6.1478   17.0971   38.9136 H   0  0  0  0  0  0  0  0  0  0  0  0
    7.4506   17.9912   40.7556 H   0  0  0  0  0  0  0  0  0  0  0  0
    3.8186   18.9479   42.7768 H   0  0  0  0  0  0  0  0  0  0  0  0
    0.5726   19.4204   44.5914 H   0  0  0  0  0  0  0  0  0  0  0  0
   -1.2182   19.2559   44.9409 H   0  0  0  0  0  0  0  0  0  0  0  0
   -0.5726   20.7359   44.1792 H   0  0  0  0  0  0  0  0  0  0  0  0
   -2.6632   17.8737   40.6135 H   0  0  0  0  0  0  0  0  0  0  0  0
   -1.3649   16.2582   38.9178 H   0  0  0  0  0  0  0  0  0  0  0  0
   -0.4025   17.3606   37.7958 H   0  0  0  0  0  0  0  0  0  0  0  0
  1  2  2  0
  1  6  1  0
  2  3  1  0
  3  4  2  0
  4  5  1  0
  5  6  2  0
  6  7  1  0
  7  8  2  0
  7  9  1  0
  8 16  1  0
  9 10  2  0
 10 11  1  0
 10 15  1  0
 11 12  1  0
 11 13  1  0
 13 14  2  0
 14 15  1  0
 15 16  2  0
 16 17  1  0
  1 18  1  0
  2 19  1  0
  3 20  1  0
  5 21  1  0
 12 22  1  0
 12 23  1  0
 12 24  1  0
 14 25  1  0
 17 26  1  0
 17 27  1  0
M  END
>  <mol_id>  (66) 
2026-09-18-6fnk-s0-n100-r6-0066

>  <rmsd_to_ref>  (66) 
3.438775510204491

>  <pose_kind>  (66) 
conformer

$$$$
6fnk.A
     RDKit          3D

 27 29  0  0  0  0  0  0  0  0999 V2000
    3.0252   14.6272   39.0998 C   0  0  0  0  0  0  0  0  0  0  0  0
    3.9154   14.0618   38.1867 C   0  0  0  0  0  0  0  0  0  0  0  0
    5.0973   14.7176   37.8746 C   0  0  0  0  0  0  0  0  0  0  0  0
    5.3965   15.9421   38.4782 N   0  0  0  0  0  0  0  0  0  0  0  0
    4.4983   16.5091   39.3952 C   0  0  0  0  0  0  0  0  0  0  0  0
    3.3098   15.8521   39.7081 C   0  0  0  0  0  0  0  0  0  0  0  0
    2.4155   16.4209   40.6206 C   0  0  0  0  0  0  0  0  0  0  0  0
    1.1940   15.9014   40.8056 N   0  0  0  0  0  0  0  0  0  0  0  0
    2.7798   17.4954   41.3276 N   0  0  0  0  0  0  0  0  0  0  0  0
    1.9444   18.0752   42.2079 C   0  0  0  0  0  0  0  0  0  0  0  0
    2.0782   19.1474   43.0032 N   0  0  0  0  0  0  0  0  0  0  0  0
    3.2667   19.9992   43.1077 C   0  0  0  0  0  0  0  0  0  0  0  0
    1.0529   19.3285   43.6614 N   0  0  0  0  0  0  0  0  0  0  0  0
    0.1937   18.3455   43.3459 C   0  0  0  0  0  0  0  0  0  0  0  0
    0.7356   17.5589   42.4064 C   0  0  0  0  0  0  0  0  0  0  0  0
    0.3561   16.4595   41.6989 C   0  0  0  0  0  0  0  0  0  0  0  0
   -0.8699   15.9092   41.8734 N   0  0  0  0  0  0  0  0  0  0  0  0
    2.0893   14.1030   39.3434 H   0  0  0  0  0  0  0  0  0  0  0  0
    3.6803   13.0966   37.7144 H   0  0  0  0  0  0  0  0  0  0  0  0
    5.7986   14.2742   37.1524 H   0  0  0  0  0  0  0  0  0  0  0  0
    4.7329   17.4742   39.8680 H   0  0  0  0  0  0  0  0  0  0  0  0
    2.9761   21.0519   42.9758 H   0  0  0  0  0  0  0  0  0  0  0  0
    3.7267   19.8670   44.0981 H   0  0  0  0  0  0  0  0  0  0  0  0
    3.9892   19.7178   42.3274 H   0  0  0  0  0  0  0  0  0  0  0  0
   -0.8027   18.2073   43.7909 H   0  0  0  0  0  0  0  0  0  0  0  0
   -1.5270   16.3201   42.5519 H   0  0  0  0  0  0  0  0  0  0  0  0
   -1.1446   15.0800   41.3277 H   0  0  0  0  0  0  0  0  0  0  0  0
  1  2  2  0
  1  6  1  0
  2  3  1  0
  3  4  2  0
  4  5  1  0
  5  6  2  0
  6  7  1  0
  7  8  2  0
  7  9  1  0
  8 16  1  0
  9 10  2  0
 10 11  1  0
 10 15  1  0
 11 12  1  0
 11 13  1  0
 13 14  2  0
 14 15  1  0
 15 16  2  0
 16 17  1  0
  1 18  1  0
  2 19  1  0
  3 20  1  0
  5 21  1  0
 12 22  1  0
 12 23  1  0
 12 24  1  0
 14 25  1  0
 17 26  1  0
 17 27  1  0
M  END
>  <mol_id>  (67) 
2026-09-18-6fnk-s0-n100-r6-0067

>  <rmsd_to_ref>  (67) 
3.484693877553376

>  <pose_kind>  (67) 
rigid

$$$$
6fnk.A
     RDKit          3D

 27 29  0  0  0  0  0  0  0  0999 V2000
    3.1760   16.6048   44.8515 C   0  0  0  0  0  0  0  0  0  0  0  0
    3.8850   16.0316   45.9116 C   0  0  0  0  0  0  0  0  0  0  0  0
    3.1466   15.4102   46.9236 C   0  0  0  0  0  0  0  0  0  0  0  0
    1.7909   15.3727   46.8652 N   0  0  0  0  0  0  0  0  0  0  0  0
    1.1112   15.9242   45.8454 C   0  0  0  0  0  0  0  0  0  0  0  0
    1.7913   16.5589   44.8050 C   0  0  0  0  0  0  0  0  0  0  0  0
    1.0740   17.1617   43.6926 C   0  0  0  0  0  0  0  0  0  0  0  0
    1.7672   17.7750   42.6907 N   0  0  0  0  0  0  0  0  0  0  0  0
   -0.2707   17.0960   43.6841 N   0  0  0  0  0  0  0  0  0  0  0  0
   -0.9706   17.6414   42.6731 C   0  0  0  0  0  0  0  0  0  0  0  0
   -2.3033   17.6959   42.4570 N   0  0  0  0  0  0  0  0  0  0  0  0
   -3.3654   17.1519   43.3050 C   0  0  0  0  0  0  0  0  0  0  0  0
   -2.4574   18.3455   41.3147 N   0  0  0  0  0  0  0  0  0  0  0  0
   -1.2855   18.7136   40.7822 C   0  0  0  0  0  0  0  0  0  0  0  0
   -0.2946   18.2676   41.6471 C   0  0  0  0  0  0  0  0  0  0  0  0
    1.0846   18.3276   41.6687 C   0  0  0  0  0  0  0  0  0  0  0  0
    1.7202   18.9836   40.5873 N   0  0  0  0  0  0  0  0  0  0  0  0
    3.7673   17.0889   44.0646 H   0  0  0  0  0  0  0  0  0  0  0  0
    4.9625   16.0670   45.9483 H   0  0  0  0  0  0  0  0  0  0  0  0
    3.6514   14.9462   47.7755 H   0  0  0  0  0  0  0  0  0  0  0  0
    0.0305   15.8743   45.8336 H   0  0  0  0  0  0  0  0  0  0  0  0
   -3.9976   16.5086   42.6629 H   0  0  0  0  0  0  0  0  0  0  0  0
   -3.9274   18.0051   43.7639 H   0  0  0  0  0  0  0  0  0  0  0  0
   -2.8915   16.5499   44.1053 H   0  0  0  0  0  0  0  0  0  0  0  0
   -1.0712   19.2423   39.8836 H   0  0  0  0  0  0  0  0  0  0  0  0
    2.1746   18.3573   39.8673 H   0  0  0  0  0  0  0  0  0  0  0  0
    1.7360   20.0238   40.5108 H   0  0  0  0  0  0  0  0  0  0  0  0
  1  2  2  0
  1  6  1  0
  2  3  1  0
  3  4  2  0
  4  5  1  0
  5  6  2  0
  6  7  1  0
  7  8  2  0
  7  9  1  0
  8 16  1  0
  9 10  2  0
 10 11  1  0
 10 15  1  0
 11 12  1  0
 11 13  1  0
 13 14  2  0
 14 15  1  0
 15 16  2  0
 16 17  1  0
  1 18  1  0
  2 19  1  0
  3 20  1  0
  5 21  1  0
 12 22  1  0
 12 23  1  0
 12 24  1  0
 14 25  1  0
 17 26  1  0
 17 27  1  0
M  END
>  <mol_id>  (68) 
2026-09-18-6fnk-s0-n100-r6-0068

>  <rmsd_to_ref>  (68) 
3.530612244902953

>  <pose_kind>  (68) 
conformer

$$$$
6fnk.A
     RDKit          3D

 27 29  0  0  0  0  0  0  0  0999 V2000
    2.6545   18.3104   40.5780 C   0  0  0  0  0  0  0  0  0  0  0  0
    3.5110   18.4126   39.4817 C   0  0  0  0  0  0  0  0  0  0  0  0
    4.2115   17.2983   39.0435 C   0  0  0  0  0  0  0  0  0  0  0  0
    4.0554   16.0737   39.6988 N   0  0  0  0  0  0  0  0  0  0  0  0
    3.1944   15.9743   40.8022 C   0  0  0  0  0  0  0  0  0  0  0  0
    2.4916   17.0935   41.2445 C   0  0  0  0  0  0  0  0  0  0  0  0
    1.6359   16.9919   42.3461 C   0  0  0  0  0  0  0  0  0  0  0  0
    1.0871   18.0833   42.8972 N   0  0  0  0  0  0  0  0  0  0  0  0
    1.3511   15.7906   42.8587 N   0  0  0  0  0  0  0  0  0  0  0  0
    0.5398   15.6536   43.9226 C   0  0  0  0  0  0  0  0  0  0  0  0
    0.1291   14.5758   44.6081 N   0  0  0  0  0  0  0  0  0  0  0  0
    0.4966   13.1848   44.3266 C   0  0  0  0  0  0  0  0  0  0  0  0
   -0.6244   14.9070   45.5244 N   0  0  0  0  0  0  0  0  0  0  0  0
   -0.7714   16.2407   45.4618 C   0  0  0  0  0  0  0  0  0  0  0  0
   -0.0184   16.7300   44.4676 C   0  0  0  0  0  0  0  0  0  0  0  0
    0.2568   17.9583   43.9490 C   0  0  0  0  0  0  0  0  0  0  0  0
   -0.2920   19.0770   44.4817 N   0  0  0  0  0  0  0  0  0  0  0  0
    2.1017   19.1972   40.9213 H   0  0  0  0  0  0  0  0  0  0  0  0
    3.6308   19.3762   38.9649 H   0  0  0  0  0  0  0  0  0  0  0  0
    4.8894   17.3784   38.1810 H   0  0  0  0  0  0  0  0  0  0  0  0
    3.0739   15.0109   41.3193 H   0  0  0  0  0  0  0  0  0  0  0  0
    0.8731   12.7119   45.2456 H   0  0  0  0  0  0  0  0  0  0  0  0
   -0.3875   12.6373   43.9682 H   0  0  0  0  0  0  0  0  0  0  0  0
    1.2801   13.1616   43.5548 H   0  0  0  0  0  0  0  0  0  0  0  0
   -1.4123   16.8397   46.1255 H   0  0  0  0  0  0  0  0  0  0  0  0
   -0.9301   19.0043   45.2869 H   0  0  0  0  0  0  0  0  0  0  0  0
   -0.0709   19.9999   44.0814 H   0  0  0  0  0  0  0  0  0  0  0  0
  1  2  2  0
  1  6  1  0
  2  3  1  0
  3  4  2  0
  4  5  1  0
  5  6  2  0
  6  7  1  0
  7  8  2  0
  7  9  1  0
  8 16  1  0
  9 10  2  0
 10 11  1  0
 10 15  1  0
 11 12  1  0
 11 13  1  0
 13 14  2  0
 14 15  1  0
 15 16  2  0
 16 17  1  0
  1 18  1  0
  2 19  1  0
  3 20  1  0
  5 21  1  0
 12 22  1  0
 12 23  1  0
 12 24  1  0
 14 25  1  0
 17 26  1  0
 17 27  1  0
M  END
>  <mol_id>  (69) 
2026-09-18-6fnk-s0-n100-r6-0069

>  <rmsd_to_ref>  (69) 
3.576530612249489

>  <pose_kind>  (69) 
rigid

$$$$
6fnk.A
     RDKit          3D

 27 29  0  0  0  0  0  0  0  0999 V2000
    1.1387   14.9699   42.4433 C   0  0  0  0  0  0  0  0  0  0  0  0
    0.3515   13.9652   42.9855 C   0  0  0  0  0  0  0  0  0  0  0  0
   -0.0728   13.9979   44.2983 C   0  0  0  0  0  0  0  0  0  0  0  0
    0.3004   15.0560   45.0754 N   0  0  0  0  0  0  0  0  0  0  0  0
    1.0684   16.0459   44.5638 C   0  0  0  0  0  0  0  0  0  0  0  0
    1.5050   16.0364   43.2557 C   0  0  0  0  0  0  0  0  0  0  0  0
    2.3305   17.1015   42.7075 C   0  0  0  0  0  0  0  0  0  0  0  0
    2.7505   17.0741   41.4166 N   0  0  0  0  0  0  0  0  0  0  0  0
    2.6684   18.1299   43.5366 N   0  0  0  0  0  0  0  0  0  0  0  0
    3.4209   19.1228   43.0761 C   0  0  0  0  0  0  0  0  0  0  0  0
    3.8812   20.2420   43.7042 N   0  0  0  0  0  0  0  0  0  0  0  0
    3.6190   20.5921   45.1024 C   0  0  0  0  0  0  0  0  0  0  0  0
    4.5843   20.9316   42.8508 N   0  0  0  0  0  0  0  0  0  0  0  0
    4.6171   20.3064   41.6424 C   0  0  0  0  0  0  0  0  0  0  0  0
    3.8782   19.1537   41.7785 C   0  0  0  0  0  0  0  0  0  0  0  0
    3.5191   18.0978   40.9633 C   0  0  0  0  0  0  0  0  0  0  0  0
    3.9792   18.0959   39.5993 N   0  0  0  0  0  0  0  0  0  0  0  0
    1.4480   14.9011   41.4063 H   0  0  0  0  0  0  0  0  0  0  0  0
    0.0777   13.1446   42.3365 H   0  0  0  0  0  0  0  0  0  0  0  0
   -0.6839   13.2000   44.6875 H   0  0  0  0  0  0  0  0  0  0  0  0
    1.3537   16.8856   45.2123 H   0  0  0  0  0  0  0  0  0  0  0  0
    2.9128   19.8699   45.5489 H   0  0  0  0  0  0  0  0  0  0  0  0
    4.6033   20.6172   45.5971 H   0  0  0  0  0  0  0  0  0  0  0  0
    3.1691   21.5929   45.2158 H   0  0  0  0  0  0  0  0  0  0  0  0
    5.1142   20.6239   40.7366 H   0  0  0  0  0  0  0  0  0  0  0  0
    3.2356   18.2295   38.8826 H   0  0  0  0  0  0  0  0  0  0  0  0
    4.9917   17.9671   39.3842 H   0  0  0  0  0  0  0  0  0  0  0  0
  1  2  2  0
  1  6  1  0
  2  3  1  0
  3  4  2  0
  4  5  1  0
  5  6  2  0
  6  7  1  0
  7  8  2  0
  7  9  1  0
  8 16  1  0
  9 10  2  0
 10 11  1  0
 10 15  1  0
 11 12  1  0
 11 13  1  0
 13 14  2  0
 14 15  1  0
 15 16  2  0
 16 17  1  0
  1 18  1  0
  2 19  1  0
  3 20  1  0
  5 21  1  0
 12 22  1  0
 12 23  1  0
 12 24  1  0
 14 25  1  0
 17 26  1  0
 17 27  1  0
M  END
>  <mol_id>  (70) 
2026-09-18-6fnk-s0-n100-r6-0070

>  <rmsd_to_ref>  (70) 
3.6224489795990324

>  <pose_kind>  (70) 
conformer

$$$$
6fnk.A
     RDKit          3D

 27 29  0  0  0  0  0  0  0  0999 V2000
    4.1667   20.0886   40.6483 C   0  0  0  0  0  0  0  0  0  0  0  0
    5.4796   20.2678   40.2121 C   0  0  0  0  0  0  0  0  0  0  0  0
    6.4357   19.2980   40.4761 C   0  0  0  0  0  0  0  0  0  0  0  0
    6.0816   18.1409   41.1754 N   0  0  0  0  0  0  0  0  0  0  0  0
    4.7606   17.9642   41.6142 C   0  0  0  0  0  0  0  0  0  0  0  0
    3.7996   18.9386   41.3513 C   0  0  0  0  0  0  0  0  0  0  0  0
    2.4842   18.7608   41.7920 C   0  0  0  0  0  0  0  0  0  0  0  0
    1.5876   19.7532   41.7076 N   0  0  0  0  0  0  0  0  0  0  0  0
    2.1064   17.5835   42.3003 N   0  0  0  0  0  0  0  0  0  0  0  0
    0.8530   17.3774   42.7423 C   0  0  0  0  0  0  0  0  0  0  0  0
    0.2582   16.3094   43.2953 N   0  0  0  0  0  0  0  0  0  0  0  0
    0.8896   15.0132   43.5603 C   0  0  0  0  0  0  0  0  0  0  0  0
   -0.9211   16.5556   43.5521 N   0  0  0  0  0  0  0  0  0  0  0  0
   -1.1683   17.8106   43.1423 C   0  0  0  0  0  0  0  0  0  0  0  0
   -0.0459   18.3526   42.6510 C   0  0  0  0  0  0  0  0  0  0  0  0
    0.3244   19.5532   42.1269 C   0  0  0  0  0  0  0  0  0  0  0  0
   -0.5650   20.5703   42.0221 N   0  0  0  0  0  0  0  0  0  0  0  0
    3.4127   20.8610   40.4365 H   0  0  0  0  0  0  0  0  0  0  0  0
    5.7565   21.1776   39.6592 H   0  0  0  0  0  0  0  0  0  0  0  0
    7.4719   19.4396   40.1353 H   0  0  0  0  0  0  0  0  0  0  0  0
    4.4829   17.0546   42.1669 H   0  0  0  0  0  0  0  0  0  0  0  0
    0.7180   14.7295   44.6092 H   0  0  0  0  0  0  0  0  0  0  0  0
    0.4535   14.2507   42.8982 H   0  0  0  0  0  0  0  0  0  0  0  0
    1.9709   15.0869   43.3725 H   0  0  0  0  0  0  0  0  0  0  0  0
   -2.1434   18.3162   43.2011 H   0  0  0  0  0  0  0  0  0  0  0  0
   -1.5369   20.4391   42.3368 H   0  0  0  0  0  0  0  0  0  0  0  0
   -0.2691   21.4746   41.6276 H   0  0  0  0  0  0  0  0  0  0  0  0
  1  2  2  0
  1  6  1  0
  2  3  1  0
  3  4  2  0
  4  5  1  0
  5  6  2  0
  6  7  1  0
  7  8  2  0
  7  9  1  0
  8 16  1  0
  9 10  2  0
 10 11  1  0
 10 15  1  0
 11 12  1  0
 11 13  1  0
 13 14  2  0
 14 15  1  0
 15 16  2  0
 16 17  1  0
  1 18  1  0
  2 19  1  0
  3 20  1  0
  5 21  1  0
 12 22  1  0
 12 23  1  0
 12 24  1  0
 14 25  1  0
 17 26  1  0
 17 27  1  0
M  END
>  <mol_id>  (71) 
2026-09-18-6fnk-s0-n100-r6-0071

>  <rmsd_to_ref>  (71) 
3.6683673469439024

>  <pose_kind>  (71) 
rigid

$$$$
6fnk.A
     RDKit          3D

 27 29  0  0  0  0  0  0  0  0999 V2000
    0.1275   16.0069   44.3709 C   0  0  0  0  0  0  0  0  0  0  0  0
    0.4144   15.2042   45.4792 C   0  0  0  0  0  0  0  0  0  0  0  0
    1.6970   14.6579   45.5623 C   0  0  0  0  0  0  0  0  0  0  0  0
    2.6339   14.8812   44.6268 N   0  0  0  0  0  0  0  0  0  0  0  0
    2.3714   15.6417   43.5710 C   0  0  0  0  0  0  0  0  0  0  0  0
    1.1216   16.2086   43.4345 C   0  0  0  0  0  0  0  0  0  0  0  0
    0.8435   17.0430   42.2700 C   0  0  0  0  0  0  0  0  0  0  0  0
    1.7910   17.2588   41.3398 N   0  0  0  0  0  0  0  0  0  0  0  0
   -0.3644   17.6124   42.1035 N   0  0  0  0  0  0  0  0  0  0  0  0
   -0.6434   18.3927   41.0261 C   0  0  0  0  0  0  0  0  0  0  0  0
   -1.7328   19.0700   40.6138 N   0  0  0  0  0  0  0  0  0  0  0  0
   -3.0038   19.1358   41.2926 C   0  0  0  0  0  0  0  0  0  0  0  0
   -1.4892   19.6905   39.4699 N   0  0  0  0  0  0  0  0  0  0  0  0
   -0.2067   19.4347   39.0883 C   0  0  0  0  0  0  0  0  0  0  0  0
    0.3265   18.6170   40.0686 C   0  0  0  0  0  0  0  0  0  0  0  0
    1.5633   18.0295   40.2463 C   0  0  0  0  0  0  0  0  0  0  0  0
    2.5895   18.2368   39.2813 N   0  0  0  0  0  0  0  0  0  0  0  0
   -0.8661   16.4457   44.2813 H   0  0  0  0  0  0  0  0  0  0  0  0
   -0.3390   15.0198   46.2393 H   0  0  0  0  0  0  0  0  0  0  0  0
    1.8975   14.0313   46.4421 H   0  0  0  0  0  0  0  0  0  0  0  0
    3.1220   15.8321   42.8030 H   0  0  0  0  0  0  0  0  0  0  0  0
   -2.9591   18.7796   42.3395 H   0  0  0  0  0  0  0  0  0  0  0  0
   -3.7896   18.5939   40.7254 H   0  0  0  0  0  0  0  0  0  0  0  0
   -3.3273   20.2171   41.2881 H   0  0  0  0  0  0  0  0  0  0  0  0
    0.3210   19.7734   38.2204 H   0  0  0  0  0  0  0  0  0  0  0  0
    2.3472   18.5845   38.3302 H   0  0  0  0  0  0  0  0  0  0  0  0
    3.5966   18.0340   39.5416 H   0  0  0  0  0  0  0  0  0  0  0  0
  1  2  2  0
  1  6  1  0
  2  3  1  0
  3  4  2  0
  4  5  1  0
  5  6  2  0
  6  7  1  0
  7  8  2  0
  7  9  1  0
  8 16  1  0
  9 10  2  0
 10 11  1  0
 10 15  1  0
 11 12  1  0
 11 13  1  0
 13 14  2  0
 14 15  1  0
 15 16  2  0
 16 17  1  0
  1 18  1  0
  2 19  1  0
  3 20  1  0
  5 21  1  0
 12 22  1  0
 12 23  1  0
 12 24  1  0
 14 25  1  0
 17 26  1  0
 17 27  1  0
M  END
>  <mol_id>  (72) 
2026-09-18-6fnk-s0-n100-r6-0072

>  <rmsd_to_ref>  (72) 
3.714285714289966

>  <pose_kind>  (72) 
conformer

$$$$
6fnk.A
     RDKit          3D

 27 29  0  0  0  0  0  0  0  0999 V2000
    4.5591   18.6661   42.8937 C   0  0  0  0  0  0  0  0  0  0  0  0
    5.4293   18.3489   43.9369 C   0  0  0  0  0  0  0  0  0  0  0  0
    4.9422   17.7408   45.0846 C   0  0  0  0  0  0  0  0  0  0  0  0
    3.5810   17.4432   45.1929 N   0  0  0  0  0  0  0  0  0  0  0  0
    2.7078   17.7649   44.1426 C   0  0  0  0  0  0  0  0  0  0  0  0
    3.1957   18.3776   42.9898 C   0  0  0  0  0  0  0  0  0  0  0  0
    2.3226   18.6991   41.9456 C   0  0  0  0  0  0  0  0  0  0  0  0
    2.7314   19.4419   40.9077 N   0  0  0  0  0  0  0  0  0  0  0  0
    1.0613   18.2570   41.9730 N   0  0  0  0  0  0  0  0  0  0  0  0
    0.1903   18.5528   40.9918 C   0  0  0  0  0  0  0  0  0  0  0  0
   -1.1028   18.2426   40.8129 N   0  0  0  0  0  0  0  0  0  0  0  0
   -1.9286   17.4383   41.7184 C   0  0  0  0  0  0  0  0  0  0  0  0
   -1.5210   18.7229   39.7586 N   0  0  0  0  0  0  0  0  0  0  0  0
   -0.4932   19.3559   39.1695 C   0  0  0  0  0  0  0  0  0  0  0  0
    0.5910   19.2786   39.9527 C   0  0  0  0  0  0  0  0  0  0  0  0
    1.8756   19.7272   39.9089 C   0  0  0  0  0  0  0  0  0  0  0  0
    2.3168   20.4724   38.8666 N   0  0  0  0  0  0  0  0  0  0  0  0
    4.9506   19.1485   41.9860 H   0  0  0  0  0  0  0  0  0  0  0  0
    6.5010   18.5809   43.8494 H   0  0  0  0  0  0  0  0  0  0  0  0
    5.6270   17.4929   45.9090 H   0  0  0  0  0  0  0  0  0  0  0  0
    1.6361   17.5330   44.2293 H   0  0  0  0  0  0  0  0  0  0  0  0
   -2.8540   17.9846   41.9533 H   0  0  0  0  0  0  0  0  0  0  0  0
   -2.1797   16.4829   41.2345 H   0  0  0  0  0  0  0  0  0  0  0  0
   -1.3719   17.2437   42.6470 H   0  0  0  0  0  0  0  0  0  0  0  0
   -0.5353   19.8608   38.1931 H   0  0  0  0  0  0  0  0  0  0  0  0
    1.6788   20.7026   38.0915 H   0  0  0  0  0  0  0  0  0  0  0  0
    3.2903   20.8087   38.8495 H   0  0  0  0  0  0  0  0  0  0  0  0
  1  2  2  0
  1  6  1  0
  2  3  1  0
  3  4  2  0
  4  5  1  0
  5  6  2  0
  6  7  1  0
  7  8  2  0
  7  9  1  0
  8 16  1  0
  9 10  2  0
 10 11  1  0
 10 15  1  0
 11 12  1  0
 11 13  1  0
 13 14  2  0
 14 15  1  0
 15 16  2  0
 16 17  1  0
  1 18  1  0
  2 19  1  0
  3 20  1  0
  5 21  1  0
 12 22  1  0
 12 23  1  0
 12 24  1  0
 14 25  1  0
 17 26  1  0
 17 27  1  0
M  END
>  <mol_id>  (73) 
2026-09-18-6fnk-s0-n100-r6-0073

>  <rmsd_to_ref>  (73) 
3.7602040816378426

>  <pose_kind>  (73) 
rigid

$$$$
6fnk.A
     RDKit          3D

 27 29  0  0  0  0  0  0  0  0999 V2000
    2.2247   17.9880   42.3239 C   0  0  0  0  0  0  0  0  0  0  0  0
    2.4771   17.5460   41.0486 C   0  0  0  0  0  0  0  0  0  0  0  0
    1.5740   16.8338   40.2882 C   0  0  0  0  0  0  0  0  0  0  0  0
    0.3684   16.5598   40.8437 N   0  0  0  0  0  0  0  0  0  0  0  0
    0.0883   16.9844   42.1058 C   0  0  0  0  0  0  0  0  0  0  0  0
    0.9839   17.6893   42.8568 C   0  0  0  0  0  0  0  0  0  0  0  0
    0.6596   18.1336   44.2084 C   0  0  0  0  0  0  0  0  0  0  0  0
   -0.5403   17.8535   44.7443 N   0  0  0  0  0  0  0  0  0  0  0  0
    1.5534   18.8258   44.9318 N   0  0  0  0  0  0  0  0  0  0  0  0
    1.2924   19.2527   46.1806 C   0  0  0  0  0  0  0  0  0  0  0  0
    2.0216   19.9503   47.0789 N   0  0  0  0  0  0  0  0  0  0  0  0
    3.3643   20.4474   46.9057 C   0  0  0  0  0  0  0  0  0  0  0  0
    1.2627   20.0885   48.1499 N   0  0  0  0  0  0  0  0  0  0  0  0
    0.0642   19.5048   47.9796 C   0  0  0  0  0  0  0  0  0  0  0  0
    0.0610   18.9574   46.7123 C   0  0  0  0  0  0  0  0  0  0  0  0
   -0.8830   18.2431   45.9873 C   0  0  0  0  0  0  0  0  0  0  0  0
   -2.1527   17.9528   46.5685 N   0  0  0  0  0  0  0  0  0  0  0  0
    2.9614   18.5543   42.9101 H   0  0  0  0  0  0  0  0  0  0  0  0
    3.4528   17.7812   40.6303 H   0  0  0  0  0  0  0  0  0  0  0  0
    1.7986   16.4951   39.2801 H   0  0  0  0  0  0  0  0  0  0  0  0
   -0.8772   16.7400   42.4927 H   0  0  0  0  0  0  0  0  0  0  0  0
    4.0787   19.6871   47.2845 H   0  0  0  0  0  0  0  0  0  0  0  0
    3.5732   20.6289   45.8158 H   0  0  0  0  0  0  0  0  0  0  0  0
    3.4943   21.4375   47.3995 H   0  0  0  0  0  0  0  0  0  0  0  0
   -0.7338   19.4813   48.7136 H   0  0  0  0  0  0  0  0  0  0  0  0
   -2.5649   16.9941   46.5765 H   0  0  0  0  0  0  0  0  0  0  0  0
   -2.7329   18.7139   47.0209 H   0  0  0  0  0  0  0  0  0  0  0  0
  1  2  2  0
  1  6  1  0
  2  3  1  0
  3  4  2  0
  4  5  1  0
  5  6  2  0
  6  7  1  0
  7  8  2  0
  7  9  1  0
  8 16  1  0
  9 10  2  0
 10 11  1  0
 10 15  1  0
 11 12  1  0
 11 13  1  0
 13 14  2  0
 14 15  1  0
 15 16  2  0
 16 17  1  0
  1 18  1  0
  2 19  1  0
  3 20  1  0
  5 21  1  0
 12 22  1  0
 12 23  1  0
 12 24  1  0
 14 25  1  0
 17 26  1  0
 17 27  1  0
M  END
>  <mol_id>  (74) 
2026-09-18-6fnk-s0-n100-r6-0074

>  <rmsd_to_ref>  (74) 
3.806122448981041

>  <pose_kind>  (74) 
conformer

$$$$
6fnk.A
     RDKit          3D

 27 29  0  0  0  0  0  0  0  0999 V2000
    4.8773   17.2301   43.3711 C   0  0  0  0  0  0  0  0  0  0  0  0
    6.1626   17.4807   43.8516 C   0  0  0  0  0  0  0  0  0  0  0  0
    6.3548   17.7802   45.1925 C   0  0  0  0  0  0  0  0  0  0  0  0
    5.2607   17.8267   46.0609 N   0  0  0  0  0  0  0  0  0  0  0  0
    3.9688   17.5758   45.5743 C   0  0  0  0  0  0  0  0  0  0  0  0
    3.7743   17.2767   44.2271 C   0  0  0  0  0  0  0  0  0  0  0  0
    2.4851   17.0293   43.7445 C   0  0  0  0  0  0  0  0  0  0  0  0
    2.2502   16.9136   42.4302 N   0  0  0  0  0  0  0  0  0  0  0  0
    1.4676   16.8985   44.6017 N   0  0  0  0  0  0  0  0  0  0  0  0
    0.2130   16.6689   44.1751 C   0  0  0  0  0  0  0  0  0  0  0  0
   -0.9476   16.5206   44.8317 N   0  0  0  0  0  0  0  0  0  0  0  0
   -1.1271   16.5730   46.2857 C   0  0  0  0  0  0  0  0  0  0  0  0
   -1.8698   16.3196   44.0404 N   0  0  0  0  0  0  0  0  0  0  0  0
   -1.3418   16.2945   42.8056 C   0  0  0  0  0  0  0  0  0  0  0  0
   -0.0266   16.5406   42.8738 C   0  0  0  0  0  0  0  0  0  0  0  0
    1.0028   16.6629   41.9914 C   0  0  0  0  0  0  0  0  0  0  0  0
    0.7940   16.5414   40.6580 N   0  0  0  0  0  0  0  0  0  0  0  0
    4.7306   16.9934   42.3069 H   0  0  0  0  0  0  0  0  0  0  0  0
    7.0233   17.4409   43.1678 H   0  0  0  0  0  0  0  0  0  0  0  0
    7.3676   17.9809   45.5719 H   0  0  0  0  0  0  0  0  0  0  0  0
    3.1077   17.6151   46.2576 H   0  0  0  0  0  0  0  0  0  0  0  0
   -1.9283   17.2857   46.5307 H   0  0  0  0  0  0  0  0  0  0  0  0
   -1.3985   15.5741   46.6579 H   0  0  0  0  0  0  0  0  0  0  0  0
   -0.1892   16.8985   46.7594 H   0  0  0  0  0  0  0  0  0  0  0  0
   -1.9034   16.1013   41.8797 H   0  0  0  0  0  0  0  0  0  0  0  0
   -0.1527   16.3495   40.3003 H   0  0  0  0  0  0  0  0  0  0  0  0
    1.5820   16.6409   40.0021 H   0  0  0  0  0  0  0  0  0  0  0  0
  1  2  2  0
  1  6  1  0
  2  3  1  0
  3  4  2  0
  4  5  1  0
  5  6  2  0
  6  7  1  0
  7  8  2  0
  7  9  1  0
  8 16  1  0
  9 10  2  0
 10 11  1  0
 10 15  1  0
 11 12  1  0
 11 13  1  0
 13 14  2  0
 14 15  1  0
 15 16  2  0
 16 17  1  0
  1 18  1  0
  2 19  1  0
  3 20  1  0
  5 21  1  0
 12 22  1  0
 12 23  1  0
 12 24  1  0
 14 25  1  0
 17 26  1  0
 17 27  1  0
M  END
>  <mol_id>  (75) 
2026-09-18-6fnk-s0-n100-r6-0075

>  <rmsd_to_ref>  (75) 
3.8520408163312116

>  <pose_kind>  (75) 
rigid

$$$$
6fnk.A
     RDKit          3D

 27 29  0  0  0  0  0  0  0  0999 V2000
   -0.9020   18.2267   41.6782 C   0  0  0  0  0  0  0  0  0  0  0  0
   -1.7763   17.9923   40.6127 C   0  0  0  0  0  0  0  0  0  0  0  0
   -1.4023   18.4486   39.3656 C   0  0  0  0  0  0  0  0  0  0  0  0
   -0.2308   19.1055   39.1537 N   0  0  0  0  0  0  0  0  0  0  0  0
    0.6197   19.3348   40.1846 C   0  0  0  0  0  0  0  0  0  0  0  0
    0.2810   18.8975   41.4289 C   0  0  0  0  0  0  0  0  0  0  0  0
    1.2034   19.1480   42.5379 C   0  0  0  0  0  0  0  0  0  0  0  0
    2.3513   19.7958   42.3107 N   0  0  0  0  0  0  0  0  0  0  0  0
    0.9056   18.7320   43.7832 N   0  0  0  0  0  0  0  0  0  0  0  0
    1.7318   18.9436   44.8378 C   0  0  0  0  0  0  0  0  0  0  0  0
    1.6577   18.6311   46.1472 N   0  0  0  0  0  0  0  0  0  0  0  0
    0.5449   17.9222   46.7544 C   0  0  0  0  0  0  0  0  0  0  0  0
    2.7566   19.0788   46.7548 N   0  0  0  0  0  0  0  0  0  0  0  0
    3.5450   19.6865   45.8199 C   0  0  0  0  0  0  0  0  0  0  0  0
    2.9269   19.6212   44.5859 C   0  0  0  0  0  0  0  0  0  0  0  0
    3.2384   20.0510   43.3092 C   0  0  0  0  0  0  0  0  0  0  0  0
    4.4544   20.7310   43.0986 N   0  0  0  0  0  0  0  0  0  0  0  0
   -1.1566   17.8832   42.6844 H   0  0  0  0  0  0  0  0  0  0  0  0
   -2.7081   17.4749   40.7565 H   0  0  0  0  0  0  0  0  0  0  0  0
   -2.0582   18.2872   38.4964 H   0  0  0  0  0  0  0  0  0  0  0  0
    1.5375   19.8606   39.9651 H   0  0  0  0  0  0  0  0  0  0  0  0
   -0.3692   18.0596   46.1120 H   0  0  0  0  0  0  0  0  0  0  0  0
    0.3674   18.2709   47.7844 H   0  0  0  0  0  0  0  0  0  0  0  0
    0.7972   16.8447   46.7210 H   0  0  0  0  0  0  0  0  0  0  0  0
    4.5053   20.1524   45.9939 H   0  0  0  0  0  0  0  0  0  0  0  0
    4.4649   21.5950   42.5363 H   0  0  0  0  0  0  0  0  0  0  0  0
    5.3691   20.3875   43.4986 H   0  0  0  0  0  0  0  0  0  0  0  0
  1  2  2  0
  1  6  1  0
  2  3  1  0
  3  4  2  0
  4  5  1  0
  5  6  2  0
  6  7  1  0
  7  8  2  0
  7  9  1  0
  8 16  1  0
  9 10  2  0
 10 11  1  0
 10 15  1  0
 11 12  1  0
 11 13  1  0
 13 14  2  0
 14 15  1  0
 15 16  2  0
 16 17  1  0
  1 18  1  0
  2 19  1  0
  3 20  1  0
  5 21  1  0
 12 22  1  0
 12 23  1  0
 12 24  1  0
 14 25  1  0
 17 26  1  0
 17 27  1  0
M  END
>  <mol_id>  (76) 
2026-09-18-6fnk-s0-n100-r6-0076

>  <rmsd_to_ref>  (76) 
3.8979591836736174

>  <pose_kind>  (76) 
conformer

$$$$
6fnk.A
     RDKit          3D

 27 29  0  0  0  0  0  0  0  0999 V2000
    2.7835   20.9111   41.6938 C   0  0  0  0  0  0  0  0  0  0  0  0
    4.0363   21.2563   41.1865 C   0  0  0  0  0  0  0  0  0  0  0  0
    5.1179   20.4086   41.3759 C   0  0  0  0  0  0  0  0  0  0  0  0
    4.9504   19.2080   42.0714 N   0  0  0  0  0  0  0  0  0  0  0  0
    3.6893   18.8642   42.5819 C   0  0  0  0  0  0  0  0  0  0  0  0
    2.6024   19.7158   42.3938 C   0  0  0  0  0  0  0  0  0  0  0  0
    1.3472   19.3715   42.9058 C   0  0  0  0  0  0  0  0  0  0  0  0
    0.3324   20.2468   42.8927 N   0  0  0  0  0  0  0  0  0  0  0  0
    1.1472   18.1504   43.4117 N   0  0  0  0  0  0  0  0  0  0  0  0
   -0.0430   17.7857   43.9208 C   0  0  0  0  0  0  0  0  0  0  0  0
   -0.4687   16.6456   44.4859 N   0  0  0  0  0  0  0  0  0  0  0  0
    0.3313   15.4341   44.6886 C   0  0  0  0  0  0  0  0  0  0  0  0
   -1.6518   16.7412   44.8148 N   0  0  0  0  0  0  0  0  0  0  0  0
   -2.0747   17.9612   44.4447 C   0  0  0  0  0  0  0  0  0  0  0  0
   -1.0583   18.6436   43.9005 C   0  0  0  0  0  0  0  0  0  0  0  0
   -0.8696   19.8872   43.3799 C   0  0  0  0  0  0  0  0  0  0  0  0
   -1.8815   20.7881   43.3464 N   0  0  0  0  0  0  0  0  0  0  0  0
    1.9293   21.5871   41.5409 H   0  0  0  0  0  0  0  0  0  0  0  0
    4.1664   22.2001   40.6367 H   0  0  0  0  0  0  0  0  0  0  0  0
    6.1069   20.6812   40.9790 H   0  0  0  0  0  0  0  0  0  0  0  0
    3.5585   17.9204   43.1316 H   0  0  0  0  0  0  0  0  0  0  0  0
    0.2585   15.1182   45.7397 H   0  0  0  0  0  0  0  0  0  0  0  0
   -0.0467   14.6319   44.0376 H   0  0  0  0  0  0  0  0  0  0  0  0
    1.3824   15.6429   44.4405 H   0  0  0  0  0  0  0  0  0  0  0  0
   -3.0992   18.3419   44.5694 H   0  0  0  0  0  0  0  0  0  0  0  0
   -2.8096   20.5340   43.7138 H   0  0  0  0  0  0  0  0  0  0  0  0
   -1.7225   21.7268   42.9535 H   0  0  0  0  0  0  0  0  0  0  0  0
  1  2  2  0
  1  6  1  0
  2  3  1  0
  3  4  2  0
  4  5  1  0
  5  6  2  0
  6  7  1  0
  7  8  2  0
  7  9  1  0
  8 16  1  0
  9 10  2  0
 10 11  1  0
 10 15  1  0
 11 12  1  0
 11 13  1  0
 13 14  2  0
 14 15  1  0
 15 16  2  0
 16 17  1  0
  1 18  1  0
  2 19  1  0
  3 20  1  0
  5 21  1  0
 12 22  1  0
 12 23  1  0
 12 24  1  0
 14 25  1  0
 17 26  1  0
 17 27  1  0
M  END
>  <mol_id>  (77) 
2026-09-18-6fnk-s0-n100-r6-0077

>  <rmsd_to_ref>  (77) 
3.943877551023053

>  <pose_kind>  (77) 
rigid

$$$$
6fnk.A
     RDKit          3D

 27 29  0  0  0  0  0  0  0  0999 V2000
    4.2142   14.8861   40.4726 C   0  0  0  0  0  0  0  0  0  0  0  0
    5.2846   14.6094   39.6273 C   0  0  0  0  0  0  0  0  0  0  0  0
    5.2851   15.1002   38.3299 C   0  0  0  0  0  0  0  0  0  0  0  0
    4.2639   15.8504   37.8518 N   0  0  0  0  0  0  0  0  0  0  0  0
    3.2139   16.1330   38.6515 C   0  0  0  0  0  0  0  0  0  0  0  0
    3.1773   15.6597   39.9560 C   0  0  0  0  0  0  0  0  0  0  0  0
    2.0385   15.9687   40.8162 C   0  0  0  0  0  0  0  0  0  0  0  0
    1.9420   15.5437   42.0813 N   0  0  0  0  0  0  0  0  0  0  0  0
    1.0269   16.7147   40.3351 N   0  0  0  0  0  0  0  0  0  0  0  0
   -0.0664   17.0546   41.0471 C   0  0  0  0  0  0  0  0  0  0  0  0
   -1.1828   17.7664   40.8104 N   0  0  0  0  0  0  0  0  0  0  0  0
   -1.5101   18.4274   39.5462 C   0  0  0  0  0  0  0  0  0  0  0  0
   -1.9064   17.7574   41.8998 N   0  0  0  0  0  0  0  0  0  0  0  0
   -1.3380   17.0681   42.8839 C   0  0  0  0  0  0  0  0  0  0  0  0
   -0.1305   16.5914   42.3651 C   0  0  0  0  0  0  0  0  0  0  0  0
    0.8954   15.8251   42.8789 C   0  0  0  0  0  0  0  0  0  0  0  0
    0.7981   15.3731   44.2163 N   0  0  0  0  0  0  0  0  0  0  0  0
    4.2043   14.5078   41.4870 H   0  0  0  0  0  0  0  0  0  0  0  0
    6.0908   14.0090   40.0260 H   0  0  0  0  0  0  0  0  0  0  0  0
    6.1491   14.8598   37.6928 H   0  0  0  0  0  0  0  0  0  0  0  0
    2.4208   16.7354   38.2280 H   0  0  0  0  0  0  0  0  0  0  0  0
   -2.5865   18.6272   39.4543 H   0  0  0  0  0  0  0  0  0  0  0  0
   -1.1295   17.7868   38.7436 H   0  0  0  0  0  0  0  0  0  0  0  0
   -0.9783   19.4122   39.4677 H   0  0  0  0  0  0  0  0  0  0  0  0
   -1.6561   16.8614   43.8980 H   0  0  0  0  0  0  0  0  0  0  0  0
    0.2321   14.4955   44.3698 H   0  0  0  0  0  0  0  0  0  0  0  0
    1.2628   15.8835   45.0044 H   0  0  0  0  0  0  0  0  0  0  0  0
  1  2  2  0
  1  6  1  0
  2  3  1  0
  3  4  2  0
  4  5  1  0
  5  6  2  0
  6  7  1  0
  7  8  2  0
  7  9  1  0
  8 16  1  0
  9 10  2  0
 10 11  1  0
 10 15  1  0
 11 12  1  0
 11 13  1  0
 13 14  2  0
 14 15  1  0
 15 16  2  0
 16 17  1  0
  1 18  1  0
  2 19  1  0
  3 20  1  0
  5 21  1  0
 12 22  1  0
 12 23  1  0
 12 24  1  0
 14 25  1  0
 17 26  1  0
 17 27  1  0
M  END
>  <mol_id>  (78) 
2026-09-18-6fnk-s0-n100-r6-0078

>  <rmsd_to_ref>  (78) 
3.9897959183684946

>  <pose_kind>  (78) 
conformer

$$$$
6fnk.A
     RDKit          3D

 27 29  0  0  0  0  0  0  0  0999 V2000
    1.3487   16.6456   43.1366 C   0  0  0  0  0  0  0  0  0  0  0  0
    0.5165   15.5260   43.1330 C   0  0  0  0  0  0  0  0  0  0  0  0
   -0.7555   15.6101   42.5858 C   0  0  0  0  0  0  0  0  0  0  0  0
   -1.2002   16.8153   42.0354 N   0  0  0  0  0  0  0  0  0  0  0  0
   -0.3614   17.9401   42.0418 C   0  0  0  0  0  0  0  0  0  0  0  0
    0.9159   17.8574   42.5929 C   0  0  0  0  0  0  0  0  0  0  0  0
    1.7488   18.9810   42.6000 C   0  0  0  0  0  0  0  0  0  0  0  0
    2.9061   18.9783   43.2758 N   0  0  0  0  0  0  0  0  0  0  0  0
    1.3949   20.0757   41.9193 N   0  0  0  0  0  0  0  0  0  0  0  0
    2.1653   21.1781   41.9095 C   0  0  0  0  0  0  0  0  0  0  0  0
    2.0139   22.3763   41.3250 N   0  0  0  0  0  0  0  0  0  0  0  0
    0.8830   22.7899   40.4889 C   0  0  0  0  0  0  0  0  0  0  0  0
    2.9746   23.1050   41.5769 N   0  0  0  0  0  0  0  0  0  0  0  0
    3.8329   22.3940   42.3265 C   0  0  0  0  0  0  0  0  0  0  0  0
    3.3206   21.1796   42.5670 C   0  0  0  0  0  0  0  0  0  0  0  0
    3.6963   20.0677   43.2568 C   0  0  0  0  0  0  0  0  0  0  0  0
    4.8656   20.0356   43.9409 N   0  0  0  0  0  0  0  0  0  0  0  0
    2.3563   16.5734   43.5720 H   0  0  0  0  0  0  0  0  0  0  0  0
    0.8687   14.5771   43.5638 H   0  0  0  0  0  0  0  0  0  0  0  0
   -1.4136   14.7287   42.5852 H   0  0  0  0  0  0  0  0  0  0  0  0
   -0.7129   18.8893   41.6109 H   0  0  0  0  0  0  0  0  0  0  0  0
    0.4804   23.7431   40.8620 H   0  0  0  0  0  0  0  0  0  0  0  0
    1.2221   22.9165   39.4501 H   0  0  0  0  0  0  0  0  0  0  0  0
    0.0981   22.0202   40.5271 H   0  0  0  0  0  0  0  0  0  0  0  0
    4.8075   22.7539   42.6878 H   0  0  0  0  0  0  0  0  0  0  0  0
    5.4856   20.8582   43.9399 H   0  0  0  0  0  0  0  0  0  0  0  0
    5.1344   19.1888   44.4619 H   0  0  0  0  0  0  0  0  0  0  0  0
  1  2  2  0
  1  6  1  0
  2  3  1  0
  3  4  2  0
  4  5  1  0
  5  6  2  0
  6  7  1  0
  7  8  2  0
  7  9  1  0
  8 16  1  0
  9 10  2  0
 10 11  1  0
 10 15  1  0
 11 12  1  0
 11 13  1  0
 13 14  2  0
 14 15  1  0
 15 16  2  0
 16 17  1  0
  1 18  1  0
  2 19  1  0
  3 20  1  0
  5 21  1  0
 12 22  1  0
 12 23  1  0
 12 24  1  0
 14 25  1  0
 17 26  1  0
 17 27  1  0
M  END
>  <mol_id>  (79) 
2026-09-18-6fnk-s0-n100-r6-0079

>  <rmsd_to_ref>  (79) 
4.035714285714333

>  <pose_kind>  (79) 
rigid

$$$$
6fnk.A
     RDKit          3D

 27 29  0  0  0  0  0  0  0  0999 V2000
    0.4488   17.0908   39.9961 C   0  0  0  0  0  0  0  0  0  0  0  0
    0.7826   17.4217   38.6930 C   0  0  0  0  0  0  0  0  0  0  0  0
    1.5697   18.5449   38.4812 C   0  0  0  0  0  0  0  0  0  0  0  0
    1.9887   19.2813   39.5216 N   0  0  0  0  0  0  0  0  0  0  0  0
    1.6692   18.9672   40.7893 C   0  0  0  0  0  0  0  0  0  0  0  0
    0.8808   17.8470   41.0439 C   0  0  0  0  0  0  0  0  0  0  0  0
    0.5353   17.5079   42.4201 C   0  0  0  0  0  0  0  0  0  0  0  0
    0.9470   18.2330   43.4555 N   0  0  0  0  0  0  0  0  0  0  0  0
   -0.2255   16.4257   42.6525 N   0  0  0  0  0  0  0  0  0  0  0  0
   -0.5745   16.0667   43.9061 C   0  0  0  0  0  0  0  0  0  0  0  0
   -1.3151   15.0402   44.3583 N   0  0  0  0  0  0  0  0  0  0  0  0
   -1.9522   14.0133   43.5481 C   0  0  0  0  0  0  0  0  0  0  0  0
   -1.3698   15.1185   45.6764 N   0  0  0  0  0  0  0  0  0  0  0  0
   -0.6723   16.1900   46.1244 C   0  0  0  0  0  0  0  0  0  0  0  0
   -0.1601   16.8024   44.9974 C   0  0  0  0  0  0  0  0  0  0  0  0
    0.6215   17.9123   44.7412 C   0  0  0  0  0  0  0  0  0  0  0  0
    1.0759   18.7058   45.8293 N   0  0  0  0  0  0  0  0  0  0  0  0
   -0.1641   16.2241   40.2263 H   0  0  0  0  0  0  0  0  0  0  0  0
    0.4408   16.8242   37.8716 H   0  0  0  0  0  0  0  0  0  0  0  0
    1.8704   18.8648   37.4890 H   0  0  0  0  0  0  0  0  0  0  0  0
    2.0171   19.5756   41.6304 H   0  0  0  0  0  0  0  0  0  0  0  0
   -1.4067   13.0652   43.8182 H   0  0  0  0  0  0  0  0  0  0  0  0
   -1.7454   14.2059   42.4746 H   0  0  0  0  0  0  0  0  0  0  0  0
   -3.0089   13.9751   43.8143 H   0  0  0  0  0  0  0  0  0  0  0  0
   -0.5167   16.5379   47.1322 H   0  0  0  0  0  0  0  0  0  0  0  0
    0.4534   19.4677   46.1904 H   0  0  0  0  0  0  0  0  0  0  0  0
    1.9993   18.5780   46.2975 H   0  0  0  0  0  0  0  0  0  0  0  0
  1  2  2  0
  1  6  1  0
  2  3  1  0
  3  4  2  0
  4  5  1  0
  5  6  2  0
  6  7  1  0
  7  8  2  0
  7  9  1  0
  8 16  1  0
  9 10  2  0
 10 11  1  0
 10 15  1  0
 11 12  1  0
 11 13  1  0
 13 14  2  0
 14 15  1  0
 15 16  2  0
 16 17  1  0
  1 18  1  0
  2 19  1  0
  3 20  1  0
  5 21  1  0
 12 22  1  0
 12 23  1  0
 12 24  1  0
 14 25  1  0
 17 26  1  0
 17 27  1  0
M  END
>  <mol_id>  (80) 
2026-09-18-6fnk-s0-n100-r6-0080

>  <rmsd_to_ref>  (80) 
4.081632653064038

>  <pose_kind>  (80) 
conformer

$$$$
6fnk.A
     RDKit          3D

 27 29  0  0  0  0  0  0  0  0999 V2000
    4.5676   17.2579   42.9657 C   0  0  0  0  0  0  0  0  0  0  0  0
    5.7837   16.7256   43.3944 C   0  0  0  0  0  0  0  0  0  0  0  0
    6.3037   15.5988   42.7745 C   0  0  0  0  0  0  0  0  0  0  0  0
    5.6103   15.0003   41.7189 N   0  0  0  0  0  0  0  0  0  0  0  0
    4.3865   15.5370   41.2909 C   0  0  0  0  0  0  0  0  0  0  0  0
    3.8623   16.6679   41.9141 C   0  0  0  0  0  0  0  0  0  0  0  0
    2.6411   17.1992   41.4869 C   0  0  0  0  0  0  0  0  0  0  0  0
    2.0323   18.1731   42.1775 N   0  0  0  0  0  0  0  0  0  0  0  0
    2.0693   16.7382   40.3699 N   0  0  0  0  0  0  0  0  0  0  0  0
    0.8916   17.2180   39.9323 C   0  0  0  0  0  0  0  0  0  0  0  0
    0.1320   16.9074   38.8707 N   0  0  0  0  0  0  0  0  0  0  0  0
    0.4413   15.8940   37.8576 C   0  0  0  0  0  0  0  0  0  0  0  0
   -0.8826   17.6053   38.8457 N   0  0  0  0  0  0  0  0  0  0  0  0
   -0.8192   18.4447   39.8924 C   0  0  0  0  0  0  0  0  0  0  0  0
    0.2871   18.1926   40.6047 C   0  0  0  0  0  0  0  0  0  0  0  0
    0.8638   18.6766   41.7389 C   0  0  0  0  0  0  0  0  0  0  0  0
    0.2736   19.6672   42.4509 N   0  0  0  0  0  0  0  0  0  0  0  0
    4.1598   18.1514   43.4610 H   0  0  0  0  0  0  0  0  0  0  0  0
    6.3301   17.1992   44.2234 H   0  0  0  0  0  0  0  0  0  0  0  0
    7.2611   15.1765   43.1137 H   0  0  0  0  0  0  0  0  0  0  0  0
    3.8398   15.0641   40.4618 H   0  0  0  0  0  0  0  0  0  0  0  0
   -0.4177   15.2167   37.7425 H   0  0  0  0  0  0  0  0  0  0  0  0
    0.6503   16.3877   36.8971 H   0  0  0  0  0  0  0  0  0  0  0  0
    1.3233   15.3174   38.1731 H   0  0  0  0  0  0  0  0  0  0  0  0
   -1.5623   19.2206   40.1287 H   0  0  0  0  0  0  0  0  0  0  0  0
   -0.6209   20.0671   42.1334 H   0  0  0  0  0  0  0  0  0  0  0  0
    0.7196   20.0202   43.3096 H   0  0  0  0  0  0  0  0  0  0  0  0
  1  2  2  0
  1  6  1  0
  2  3  1  0
  3  4  2  0
  4  5  1  0
  5  6  2  0
  6  7  1  0
  7  8  2  0
  7  9  1  0
  8 16  1  0
  9 10  2  0
 10 11  1  0
 10 15  1  0
 11 12  1  0
 11 13  1  0
 13 14  2  0
 14 15  1  0
 15 16  2  0
 16 17  1  0
  1 18  1  0
  2 19  1  0
  3 20  1  0
  5 21  1  0
 12 22  1  0
 12 23  1  0
 12 24  1  0
 14 25  1  0
 17 26  1  0
 17 27  1  0
M  END
>  <mol_id>  (81) 
2026-09-18-6fnk-s0-n100-r6-0081

>  <rmsd_to_ref>  (81) 
4.127551020411601

>  <pose_kind>  (81) 
rigid

$$$$
6fnk.A
     RDKit          3D

 27 29  0  0  0  0  0  0  0  0999 V2000
    0.9696   17.8695   39.5481 C   0  0  0  0  0  0  0  0  0  0  0  0
    2.0358   18.3571   38.8604 C   0  0  0  0  0  0  0  0  0  0  0  0
    2.9518   19.1906   39.4325 C   0  0  0  0  0  0  0  0  0  0  0  0
    2.7945   19.5487   40.7402 N   0  0  0  0  0  0  0  0  0  0  0  0
    1.7359   19.0773   41.4585 C   0  0  0  0  0  0  0  0  0  0  0  0
    0.8171   18.2358   40.8695 C   0  0  0  0  0  0  0  0  0  0  0  0
   -0.3274   17.7131   41.6096 C   0  0  0  0  0  0  0  0  0  0  0  0
   -1.2222   16.8910   41.0288 N   0  0  0  0  0  0  0  0  0  0  0  0
   -0.4982   18.0605   42.9131 N   0  0  0  0  0  0  0  0  0  0  0  0
   -1.5400   17.6074   43.6509 C   0  0  0  0  0  0  0  0  0  0  0  0
   -1.9343   17.7911   44.9263 N   0  0  0  0  0  0  0  0  0  0  0  0
   -1.2843   18.5953   45.9287 C   0  0  0  0  0  0  0  0  0  0  0  0
   -3.0427   17.0955   45.1117 N   0  0  0  0  0  0  0  0  0  0  0  0
   -3.3840   16.4608   43.9896 C   0  0  0  0  0  0  0  0  0  0  0  0
   -2.4359   16.7615   43.0052 C   0  0  0  0  0  0  0  0  0  0  0  0
   -2.2863   16.3934   41.6842 C   0  0  0  0  0  0  0  0  0  0  0  0
   -3.2244   15.5257   41.0588 N   0  0  0  0  0  0  0  0  0  0  0  0
    0.2208   17.1991   39.1111 H   0  0  0  0  0  0  0  0  0  0  0  0
    2.1649   18.0771   37.8261 H   0  0  0  0  0  0  0  0  0  0  0  0
    3.7904   19.5595   38.8507 H   0  0  0  0  0  0  0  0  0  0  0  0
    1.5899   19.3476   42.4984 H   0  0  0  0  0  0  0  0  0  0  0  0
   -0.2354   18.8041   45.7272 H   0  0  0  0  0  0  0  0  0  0  0  0
   -1.4147   18.0441   46.9052 H   0  0  0  0  0  0  0  0  0  0  0  0
   -1.8167   19.5726   46.0748 H   0  0  0  0  0  0  0  0  0  0  0  0
   -4.2168   15.8078   43.7632 H   0  0  0  0  0  0  0  0  0  0  0  0
   -3.4584   14.6038   41.4948 H   0  0  0  0  0  0  0  0  0  0  0  0
   -3.6546   15.8592   40.1584 H   0  0  0  0  0  0  0  0  0  0  0  0
  1  2  2  0
  1  6  1  0
  2  3  1  0
  3  4  2  0
  4  5  1  0
  5  6  2  0
  6  7  1  0
  7  8  2  0
  7  9  1  0
  8 16  1  0
  9 10  2  0
 10 11  1  0
 10 15  1  0
 11 12  1  0
 11 13  1  0
 13 14  2  0
 14 15  1  0
 15 16  2  0
 16 17  1  0
  1 18  1  0
  2 19  1  0
  3 20  1  0
  5 21  1  0
 12 22  1  0
 12 23  1  0
 12 24  1  0
 14 25  1  0
 17 26  1  0
 17 27  1  0
M  END
>  <mol_id>  (82) 
2026-09-18-6fnk-s0-n100-r6-0082

>  <rmsd_to_ref>  (82) 
4.1734693877579705

>  <pose_kind>  (82) 
conformer

$$$$
6fnk.A
     RDKit          3D

 27 29  0  0  0  0  0  0  0  0999 V2000
   -0.5574   15.7087   38.5993 C   0  0  0  0  0  0  0  0  0  0  0  0
   -0.3107   15.6212   37.2291 C   0  0  0  0  0  0  0  0  0  0  0  0
    0.8846   16.0957   36.7088 C   0  0  0  0  0  0  0  0  0  0  0  0
    1.8415   16.6574   37.5585 N   0  0  0  0  0  0  0  0  0  0  0  0
    1.5898   16.7454   38.9361 C   0  0  0  0  0  0  0  0  0  0  0  0
    0.3887   16.2708   39.4597 C   0  0  0  0  0  0  0  0  0  0  0  0
    0.1397   16.3621   40.8329 C   0  0  0  0  0  0  0  0  0  0  0  0
   -1.0694   16.0769   41.3359 N   0  0  0  0  0  0  0  0  0  0  0  0
    1.1194   16.7326   41.6635 N   0  0  0  0  0  0  0  0  0  0  0  0
    0.9158   16.8401   42.9886 C   0  0  0  0  0  0  0  0  0  0  0  0
    1.7241   17.2016   43.9967 N   0  0  0  0  0  0  0  0  0  0  0  0
    3.1328   17.5881   43.8746 C   0  0  0  0  0  0  0  0  0  0  0  0
    1.1222   17.1587   45.0705 N   0  0  0  0  0  0  0  0  0  0  0  0
   -0.1243   16.7279   44.8158 C   0  0  0  0  0  0  0  0  0  0  0  0
   -0.2770   16.5472   43.4971 C   0  0  0  0  0  0  0  0  0  0  0  0
   -1.2805   16.1601   42.6625 C   0  0  0  0  0  0  0  0  0  0  0  0
   -2.5096   15.8574   43.1462 N   0  0  0  0  0  0  0  0  0  0  0  0
   -1.5070   15.3311   39.0064 H   0  0  0  0  0  0  0  0  0  0  0  0
   -1.0633   15.1763   36.5616 H   0  0  0  0  0  0  0  0  0  0  0  0
    1.0790   16.0299   35.6281 H   0  0  0  0  0  0  0  0  0  0  0  0
    2.3422   17.1900   39.6041 H   0  0  0  0  0  0  0  0  0  0  0  0
    3.2931   18.5534   44.3771 H   0  0  0  0  0  0  0  0  0  0  0  0
    3.7656   16.8207   44.3443 H   0  0  0  0  0  0  0  0  0  0  0  0
    3.3969   17.6803   42.8107 H   0  0  0  0  0  0  0  0  0  0  0  0
   -0.9011   16.5505   45.5742 H   0  0  0  0  0  0  0  0  0  0  0  0
   -2.6932   15.9144   44.1582 H   0  0  0  0  0  0  0  0  0  0  0  0
   -3.2603   15.5704   42.5020 H   0  0  0  0  0  0  0  0  0  0  0  0
  1  2  2  0
  1  6  1  0
  2  3  1  0
  3  4  2  0
  4  5  1  0
  5  6  2  0
  6  7  1  0
  7  8  2  0
  7  9  1  0
  8 16  1  0
  9 10  2  0
 10 11  1  0
 10 15  1  0
 11 12  1  0
 11 13  1  0
 13 14  2  0
 14 15  1  0
 15 16  2  0
 16 17  1  0
  1 18  1  0
  2 19  1  0
  3 20  1  0
  5 21  1  0
 12 22  1  0
 12 23  1  0
 12 24  1  0
 14 25  1  0
 17 26  1  0
 17 27  1  0
M  END
>  <mol_id>  (83) 
2026-09-18-6fnk-s0-n100-r6-0083

>  <rmsd_to_ref>  (83) 
4.219387755102462

>  <pose_kind>  (83) 
rigid

$$$$
6fnk.A
     RDKit          3D

 27 29  0  0  0  0  0  0  0  0999 V2000
   -0.5373   15.7501   43.5558 C   0  0  0  0  0  0  0  0  0  0  0  0
   -0.9051   14.9614   44.6499 C   0  0  0  0  0  0  0  0  0  0  0  0
    0.0561   14.1359   45.1958 C   0  0  0  0  0  0  0  0  0  0  0  0
    1.3230   14.0729   44.7059 N   0  0  0  0  0  0  0  0  0  0  0  0
    1.6834   14.8364   43.6448 C   0  0  0  0  0  0  0  0  0  0  0  0
    0.7587   15.6625   43.0821 C   0  0  0  0  0  0  0  0  0  0  0  0
    1.1539   16.4843   41.9366 C   0  0  0  0  0  0  0  0  0  0  0  0
    2.4045   16.4093   41.4682 N   0  0  0  0  0  0  0  0  0  0  0  0
    0.2695   17.3139   41.3518 N   0  0  0  0  0  0  0  0  0  0  0  0
    0.5946   18.0918   40.2894 C   0  0  0  0  0  0  0  0  0  0  0  0
   -0.0973   18.9809   39.5487 N   0  0  0  0  0  0  0  0  0  0  0  0
   -1.4923   19.3178   39.7725 C   0  0  0  0  0  0  0  0  0  0  0  0
    0.7105   19.4725   38.6090 N   0  0  0  0  0  0  0  0  0  0  0  0
    1.9370   18.8891   38.7510 C   0  0  0  0  0  0  0  0  0  0  0  0
    1.9039   18.0033   39.8108 C   0  0  0  0  0  0  0  0  0  0  0  0
    2.8167   17.1531   40.4072 C   0  0  0  0  0  0  0  0  0  0  0  0
    4.1273   17.0942   39.8931 N   0  0  0  0  0  0  0  0  0  0  0  0
   -1.2658   16.4195   43.0906 H   0  0  0  0  0  0  0  0  0  0  0  0
   -1.9011   14.9945   45.0544 H   0  0  0  0  0  0  0  0  0  0  0  0
   -0.1869   13.4964   46.0583 H   0  0  0  0  0  0  0  0  0  0  0  0
    2.7011   14.7506   43.2928 H   0  0  0  0  0  0  0  0  0  0  0  0
   -1.9892   18.4692   40.3202 H   0  0  0  0  0  0  0  0  0  0  0  0
   -2.0047   19.5364   38.8219 H   0  0  0  0  0  0  0  0  0  0  0  0
   -1.5041   20.1877   40.4573 H   0  0  0  0  0  0  0  0  0  0  0  0
    2.8113   19.0750   38.1424 H   0  0  0  0  0  0  0  0  0  0  0  0
    4.5730   16.1780   39.7365 H   0  0  0  0  0  0  0  0  0  0  0  0
    4.6803   17.9623   39.6579 H   0  0  0  0  0  0  0  0  0  0  0  0
  1  2  2  0
  1  6  1  0
  2  3  1  0
  3  4  2  0
  4  5  1  0
  5  6  2  0
  6  7  1  0
  7  8  2  0
  7  9  1  0
  8 16  1  0
  9 10  2  0
 10 11  1  0
 10 15  1  0
 11 12  1  0
 11 13  1  0
 13 14  2  0
 14 15  1  0
 15 16  2  0
 16 17  1  0
  1 18  1  0
  2 19  1  0
  3 20  1  0
  5 21  1  0
 12 22  1  0
 12 23  1  0
 12 24  1  0
 14 25  1  0
 17 26  1  0
 17 27  1  0
M  END
>  <mol_id>  (84) 
2026-09-18-6fnk-s0-n100-r6-0084

>  <rmsd_to_ref>  (84) 
4.265306122455107

>  <pose_kind>  (84) 
conformer

$$$$
6fnk.A
     RDKit          3D

 27 29  0  0  0  0  0  0  0  0999 V2000
    1.3153   16.7785   42.1399 C   0  0  0  0  0  0  0  0  0  0  0  0
    0.8137   15.5561   41.6925 C   0  0  0  0  0  0  0  0  0  0  0  0
    1.5199   14.8199   40.7525 C   0  0  0  0  0  0  0  0  0  0  0  0
    2.7348   15.3019   40.2576 N   0  0  0  0  0  0  0  0  0  0  0  0
    3.2360   16.5326   40.7083 C   0  0  0  0  0  0  0  0  0  0  0  0
    2.5265   17.2740   41.6513 C   0  0  0  0  0  0  0  0  0  0  0  0
    3.0275   18.5015   42.0969 C   0  0  0  0  0  0  0  0  0  0  0  0
    2.2863   19.3120   42.8649 N   0  0  0  0  0  0  0  0  0  0  0  0
    4.2661   18.8759   41.7610 N   0  0  0  0  0  0  0  0  0  0  0  0
    4.7791   20.0524   42.1631 C   0  0  0  0  0  0  0  0  0  0  0  0
    5.9658   20.6386   41.9432 N   0  0  0  0  0  0  0  0  0  0  0  0
    7.0683   20.0815   41.1539 C   0  0  0  0  0  0  0  0  0  0  0  0
    6.0206   21.7306   42.5103 N   0  0  0  0  0  0  0  0  0  0  0  0
    4.8618   21.9008   43.1679 C   0  0  0  0  0  0  0  0  0  0  0  0
    4.0552   20.8566   42.9353 C   0  0  0  0  0  0  0  0  0  0  0  0
    2.7956   20.4825   43.2914 C   0  0  0  0  0  0  0  0  0  0  0  0
    2.0286   21.2793   44.0745 N   0  0  0  0  0  0  0  0  0  0  0  0
    0.7511   17.3584   42.8852 H   0  0  0  0  0  0  0  0  0  0  0  0
   -0.1411   15.1763   42.0849 H   0  0  0  0  0  0  0  0  0  0  0  0
    1.1239   13.8572   40.3968 H   0  0  0  0  0  0  0  0  0  0  0  0
    4.1909   16.9129   40.3166 H   0  0  0  0  0  0  0  0  0  0  0  0
    7.3950   20.8206   40.4076 H   0  0  0  0  0  0  0  0  0  0  0  0
    7.9089   19.8367   41.8199 H   0  0  0  0  0  0  0  0  0  0  0  0
    6.7284   19.1692   40.6420 H   0  0  0  0  0  0  0  0  0  0  0  0
    4.6130   22.7654   43.8008 H   0  0  0  0  0  0  0  0  0  0  0  0
    2.3985   22.1793   44.4121 H   0  0  0  0  0  0  0  0  0  0  0  0
    1.0758   20.9849   44.3320 H   0  0  0  0  0  0  0  0  0  0  0  0
  1  2  2  0
  1  6  1  0
  2  3  1  0
  3  4  2  0
  4  5  1  0
  5  6  2  0
  6  7  1  0
  7  8  2  0
  7  9  1  0
  8 16  1  0
  9 10  2  0
 10 11  1  0
 10 15  1  0
 11 12  1  0
 11 13  1  0
 13 14  2  0
 14 15  1  0
 15 16  2  0
 16 17  1  0
  1 18  1  0
  2 19  1  0
  3 20  1  0
  5 21  1  0
 12 22  1  0
 12 23  1  0
 12 24  1  0
 14 25  1  0
 17 26  1  0
 17 27  1  0
M  END
>  <mol_id>  (85) 
2026-09-18-6fnk-s0-n100-r6-0085

>  <rmsd_to_ref>  (85) 
4.31122448979762

>  <pose_kind>  (85) 
rigid

$$$$
6fnk.A
     RDKit          3D

 27 29  0  0  0  0  0  0  0  0999 V2000
    0.2825   13.6628   41.2652 C   0  0  0  0  0  0  0  0  0  0  0  0
   -0.8077   12.8724   40.9615 C   0  0  0  0  0  0  0  0  0  0  0  0
   -1.9657   13.4849   40.5248 C   0  0  0  0  0  0  0  0  0  0  0  0
   -2.0468   14.8296   40.3920 N   0  0  0  0  0  0  0  0  0  0  0  0
   -0.9825   15.6238   40.6867 C   0  0  0  0  0  0  0  0  0  0  0  0
    0.2020   15.0341   41.1305 C   0  0  0  0  0  0  0  0  0  0  0  0
    1.3803   15.8285   41.4635 C   0  0  0  0  0  0  0  0  0  0  0  0
    2.5343   15.2448   41.8965 N   0  0  0  0  0  0  0  0  0  0  0  0
    1.3318   17.1861   41.3405 N   0  0  0  0  0  0  0  0  0  0  0  0
    2.4177   17.9453   41.6452 C   0  0  0  0  0  0  0  0  0  0  0  0
    2.6582   19.2837   41.6207 N   0  0  0  0  0  0  0  0  0  0  0  0
    1.6802   20.2550   41.2162 C   0  0  0  0  0  0  0  0  0  0  0  0
    3.8958   19.4811   42.0204 N   0  0  0  0  0  0  0  0  0  0  0  0
    4.5095   18.3352   42.3164 C   0  0  0  0  0  0  0  0  0  0  0  0
    3.5799   17.3347   42.0831 C   0  0  0  0  0  0  0  0  0  0  0  0
    3.6286   15.9626   42.2073 C   0  0  0  0  0  0  0  0  0  0  0  0
    4.7913   15.3171   42.6481 N   0  0  0  0  0  0  0  0  0  0  0  0
    1.1835   13.1713   41.6062 H   0  0  0  0  0  0  0  0  0  0  0  0
   -0.7363   11.7972   41.0699 H   0  0  0  0  0  0  0  0  0  0  0  0
   -2.8369   12.8645   40.2812 H   0  0  0  0  0  0  0  0  0  0  0  0
   -1.0511   16.6908   40.5799 H   0  0  0  0  0  0  0  0  0  0  0  0
    0.9217   20.3732   41.9879 H   0  0  0  0  0  0  0  0  0  0  0  0
    2.2007   21.2532   41.1532 H   0  0  0  0  0  0  0  0  0  0  0  0
    1.2739   20.0843   40.2038 H   0  0  0  0  0  0  0  0  0  0  0  0
    5.5211   18.2012   42.6663 H   0  0  0  0  0  0  0  0  0  0  0  0
    4.8926   14.8878   43.6036 H   0  0  0  0  0  0  0  0  0  0  0  0
    5.6019   15.2679   41.9698 H   0  0  0  0  0  0  0  0  0  0  0  0
  1  2  2  0
  1  6  1  0
  2  3  1  0
  3  4  2  0
  4  5  1  0
  5  6  2  0
  6  7  1  0
  7  8  2  0
  7  9  1  0
  8 16  1  0
  9 10  2  0
 10 11  1  0
 10 15  1  0
 11 12  1  0
 11 13  1  0
 13 14  2  0
 14 15  1  0
 15 16  2  0
 16 17  1  0
  1 18  1  0
  2 19  1  0
  3 20  1  0
  5 21  1  0
 12 22  1  0
 12 23  1  0
 12 24  1  0
 14 25  1  0
 17 26  1  0
 17 27  1  0
M  END
>  <mol_id>  (86) 
2026-09-18-6fnk-s0-n100-r6-0086

>  <rmsd_to_ref>  (86) 
4.357142857147137

>  <pose_kind>  (86) 
conformer

$$$$
6fnk.A
     RDKit          3D

 27 29  0  0  0  0  0  0  0  0999 V2000
    1.9239   17.6867   44.0653 C   0  0  0  0  0  0  0  0  0  0  0  0
    1.7806   17.0326   45.2890 C   0  0  0  0  0  0  0  0  0  0  0  0
    0.5295   16.5946   45.6980 C   0  0  0  0  0  0  0  0  0  0  0  0
   -0.5852   16.8059   44.8818 N   0  0  0  0  0  0  0  0  0  0  0  0
   -0.4381   17.4655   43.6521 C   0  0  0  0  0  0  0  0  0  0  0  0
    0.8179   17.9076   43.2410 C   0  0  0  0  0  0  0  0  0  0  0  0
    0.9610   18.5669   42.0159 C   0  0  0  0  0  0  0  0  0  0  0  0
    2.1176   19.1540   41.6786 N   0  0  0  0  0  0  0  0  0  0  0  0
   -0.0651   18.6107   41.1602 N   0  0  0  0  0  0  0  0  0  0  0  0
    0.0317   19.2425   39.9768 C   0  0  0  0  0  0  0  0  0  0  0  0
   -0.8490   19.4293   38.9819 N   0  0  0  0  0  0  0  0  0  0  0  0
   -2.2310   18.9415   38.9524 C   0  0  0  0  0  0  0  0  0  0  0  0
   -0.3359   20.0721   38.0650 N   0  0  0  0  0  0  0  0  0  0  0  0
    0.9399   20.3142   38.4084 C   0  0  0  0  0  0  0  0  0  0  0  0
    1.1791   19.8168   39.6292 C   0  0  0  0  0  0  0  0  0  0  0  0
    2.2342   19.7713   40.4883 C   0  0  0  0  0  0  0  0  0  0  0  0
    3.4174   20.3491   40.1679 N   0  0  0  0  0  0  0  0  0  0  0  0
    2.9183   18.0321   43.7460 H   0  0  0  0  0  0  0  0  0  0  0  0
    2.6591   16.8642   45.9293 H   0  0  0  0  0  0  0  0  0  0  0  0
    0.4148   16.0814   46.6642 H   0  0  0  0  0  0  0  0  0  0  0  0
   -1.3161   17.6339   43.0112 H   0  0  0  0  0  0  0  0  0  0  0  0
   -2.9094   19.7754   38.7194 H   0  0  0  0  0  0  0  0  0  0  0  0
   -2.3287   18.1629   38.1815 H   0  0  0  0  0  0  0  0  0  0  0  0
   -2.4921   18.5199   39.9343 H   0  0  0  0  0  0  0  0  0  0  0  0
    1.6759   20.8404   37.7829 H   0  0  0  0  0  0  0  0  0  0  0  0
    3.5286   20.8269   39.2622 H   0  0  0  0  0  0  0  0  0  0  0  0
    4.2054   20.3105   40.8300 H   0  0  0  0  0  0  0  0  0  0  0  0
  1  2  2  0
  1  6  1  0
  2  3  1  0
  3  4  2  0
  4  5  1  0
  5  6  2  0
  6  7  1  0
  7  8  2  0
  7  9  1  0
  8 16  1  0
  9 10  2  0
 10 11  1  0
 10 15  1  0
 11 12  1  0
 11 13  1  0
 13 14  2  0
 14 15  1  0
 15 16  2  0
 16 17  1  0
  1 18  1  0
  2 19  1  0
  3 20  1  0
  5 21  1  0
 12 22  1  0
 12 23  1  0
 12 24  1  0
 14 25  1  0
 17 26  1  0
 17 27  1  0
M  END
>  <mol_id>  (87) 
2026-09-18-6fnk-s0-n100-r6-0087

>  <rmsd_to_ref>  (87) 
4.403061224494915

>  <pose_kind>  (87) 
rigid

$$$$
6fnk.A
     RDKit          3D

 27 29  0  0  0  0  0  0  0  0999 V2000
    2.5464   17.7106   44.5806 C   0  0  0  0  0  0  0  0  0  0  0  0
    3.4472   17.8114   45.6234 C   0  0  0  0  0  0  0  0  0  0  0  0
    3.2433   18.7435   46.6186 C   0  0  0  0  0  0  0  0  0  0  0  0
    2.1677   19.5750   46.6006 N   0  0  0  0  0  0  0  0  0  0  0  0
    1.2574   19.5055   45.5883 C   0  0  0  0  0  0  0  0  0  0  0  0
    1.4659   18.5712   44.5952 C   0  0  0  0  0  0  0  0  0  0  0  0
    0.5115   18.4690   43.4960 C   0  0  0  0  0  0  0  0  0  0  0  0
    0.6527   17.5804   42.4935 N   0  0  0  0  0  0  0  0  0  0  0  0
   -0.5760   19.2925   43.4556 N   0  0  0  0  0  0  0  0  0  0  0  0
   -1.4760   19.2292   42.4620 C   0  0  0  0  0  0  0  0  0  0  0  0
   -2.5969   19.9348   42.2358 N   0  0  0  0  0  0  0  0  0  0  0  0
   -3.1795   21.0024   43.0218 C   0  0  0  0  0  0  0  0  0  0  0  0
   -3.1515   19.4989   41.1116 N   0  0  0  0  0  0  0  0  0  0  0  0
   -2.3963   18.5092   40.6008 C   0  0  0  0  0  0  0  0  0  0  0  0
   -1.3245   18.3165   41.4387 C   0  0  0  0  0  0  0  0  0  0  0  0
   -0.2256   17.4815   41.4758 C   0  0  0  0  0  0  0  0  0  0  0  0
   -0.0891   16.5504   40.4136 N   0  0  0  0  0  0  0  0  0  0  0  0
    2.6919   16.9739   43.7782 H   0  0  0  0  0  0  0  0  0  0  0  0
    4.2973   17.1352   45.6131 H   0  0  0  0  0  0  0  0  0  0  0  0
    3.9847   18.7775   47.4137 H   0  0  0  0  0  0  0  0  0  0  0  0
    0.4249   20.1813   45.6161 H   0  0  0  0  0  0  0  0  0  0  0  0
   -3.1359   21.9582   42.4251 H   0  0  0  0  0  0  0  0  0  0  0  0
   -4.2645   20.8375   43.1860 H   0  0  0  0  0  0  0  0  0  0  0  0
   -2.6406   21.1951   43.9553 H   0  0  0  0  0  0  0  0  0  0  0  0
   -2.5849   17.9537   39.6934 H   0  0  0  0  0  0  0  0  0  0  0  0
   -0.8209   15.7873   40.3260 H   0  0  0  0  0  0  0  0  0  0  0  0
    0.7117   16.5967   39.7169 H   0  0  0  0  0  0  0  0  0  0  0  0
  1  2  2  0
  1  6  1  0
  2  3  1  0
  3  4  2  0
  4  5  1  0
  5  6  2  0
  6  7  1  0
  7  8  2  0
  7  9  1  0
  8 16  1  0
  9 10  2  0
 10 11  1  0
 10 15  1  0
 11 12  1  0
 11 13  1  0
 13 14  2  0
 14 15  1  0
 15 16  2  0
 16 17  1  0
  1 18  1  0
  2 19  1  0
  3 20  1  0
  5 21  1  0
 12 22  1  0
 12 23  1  0
 12 24  1  0
 14 25  1  0
 17 26  1  0
 17 27  1  0
M  END
>  <mol_id>  (88) 
2026-09-18-6fnk-s0-n100-r6-0088

>  <rmsd_to_ref>  (88) 
4.448979591841512

>  <pose_kind>  (88) 
conformer

$$$$
6fnk.A
     RDKit          3D

 27 29  0  0  0  0  0  0  0  0999 V2000
   -1.4176   16.0559   44.1059 C   0  0  0  0  0  0  0  0  0  0  0  0
   -2.0841   15.2493   43.1833 C   0  0  0  0  0  0  0  0  0  0  0  0
   -1.4054   14.7521   42.0803 C   0  0  0  0  0  0  0  0  0  0  0  0
   -0.0538   15.0567   41.8968 N   0  0  0  0  0  0  0  0  0  0  0  0
    0.6135   15.8695   42.8257 C   0  0  0  0  0  0  0  0  0  0  0  0
   -0.0677   16.3712   43.9332 C   0  0  0  0  0  0  0  0  0  0  0  0
    0.5996   17.1830   44.8561 C   0  0  0  0  0  0  0  0  0  0  0  0
   -0.0700   17.8182   45.8279 N   0  0  0  0  0  0  0  0  0  0  0  0
    1.9263   17.3274   44.7781 N   0  0  0  0  0  0  0  0  0  0  0  0
    2.6015   18.1063   45.6420 C   0  0  0  0  0  0  0  0  0  0  0  0
    3.9036   18.4115   45.7497 N   0  0  0  0  0  0  0  0  0  0  0  0
    4.9780   17.9198   44.8820 C   0  0  0  0  0  0  0  0  0  0  0  0
    4.0927   19.1706   46.7011 N   0  0  0  0  0  0  0  0  0  0  0  0
    2.9048   19.3775   47.2928 C   0  0  0  0  0  0  0  0  0  0  0  0
    1.9466   18.7300   46.6163 C   0  0  0  0  0  0  0  0  0  0  0  0
    0.5965   18.5838   46.7116 C   0  0  0  0  0  0  0  0  0  0  0  0
   -0.1033   19.2077   47.6901 N   0  0  0  0  0  0  0  0  0  0  0  0
   -1.9606   16.4477   44.9786 H   0  0  0  0  0  0  0  0  0  0  0  0
   -3.1471   15.0078   43.3303 H   0  0  0  0  0  0  0  0  0  0  0  0
   -1.9307   14.1185   41.3506 H   0  0  0  0  0  0  0  0  0  0  0  0
    1.6766   16.1113   42.6795 H   0  0  0  0  0  0  0  0  0  0  0  0
    5.5659   18.7710   44.5081 H   0  0  0  0  0  0  0  0  0  0  0  0
    5.6320   17.2456   45.4544 H   0  0  0  0  0  0  0  0  0  0  0  0
    4.5421   17.3739   44.0323 H   0  0  0  0  0  0  0  0  0  0  0  0
    2.7432   19.9857   48.1950 H   0  0  0  0  0  0  0  0  0  0  0  0
    0.3867   19.7984   48.3771 H   0  0  0  0  0  0  0  0  0  0  0  0
   -1.1251   19.0913   47.7469 H   0  0  0  0  0  0  0  0  0  0  0  0
  1  2  2  0
  1  6  1  0
  2  3  1  0
  3  4  2  0
  4  5  1  0
  5  6  2  0
  6  7  1  0
  7  8  2  0
  7  9  1  0
  8 16  1  0
  9 10  2  0
 10 11  1  0
 10 15  1  0
 11 12  1  0
 11 13  1  0
 13 14  2  0
 14 15  1  0
 15 16  2  0
 16 17  1  0
  1 18  1  0
  2 19  1  0
  3 20  1  0
  5 21  1  0
 12 22  1  0
 12 23  1  0
 12 24  1  0
 14 25  1  0
 17 26  1  0
 17 27  1  0
M  END
>  <mol_id>  (89) 
2026-09-18-6fnk-s0-n100-r6-0089

>  <rmsd_to_ref>  (89) 
4.494897959183799

>  <pose_kind>  (89) 
rigid

$$$$
6fnk.A
     RDKit          3D

 27 29  0  0  0  0  0  0  0  0999 V2000
    2.1911   15.5156   41.1823 C   0  0  0  0  0  0  0  0  0  0  0  0
    1.2588   14.9691   40.3266 C   0  0  0  0  0  0  0  0  0  0  0  0
   -0.0018   15.5065   40.2229 C   0  0  0  0  0  0  0  0  0  0  0  0
   -0.3384   16.5879   40.9694 N   0  0  0  0  0  0  0  0  0  0  0  0
    0.5628   17.1514   41.8256 C   0  0  0  0  0  0  0  0  0  0  0  0
    1.8294   16.6148   41.9325 C   0  0  0  0  0  0  0  0  0  0  0  0
    2.7955   17.2153   42.8474 C   0  0  0  0  0  0  0  0  0  0  0  0
    2.4497   18.2886   43.5832 N   0  0  0  0  0  0  0  0  0  0  0  0
    4.0316   16.7015   42.9600 N   0  0  0  0  0  0  0  0  0  0  0  0
    4.9572   17.2214   43.7908 C   0  0  0  0  0  0  0  0  0  0  0  0
    6.2180   16.9066   44.0784 N   0  0  0  0  0  0  0  0  0  0  0  0
    6.9245   15.7895   43.4630 C   0  0  0  0  0  0  0  0  0  0  0  0
    6.7072   17.7504   44.9872 N   0  0  0  0  0  0  0  0  0  0  0  0
    5.7192   18.6327   45.2865 C   0  0  0  0  0  0  0  0  0  0  0  0
    4.5900   18.3174   44.5361 C   0  0  0  0  0  0  0  0  0  0  0  0
    3.3162   18.8722   44.4409 C   0  0  0  0  0  0  0  0  0  0  0  0
    2.9651   20.0082   45.2261 N   0  0  0  0  0  0  0  0  0  0  0  0
    3.1640   15.0568   41.2260 H   0  0  0  0  0  0  0  0  0  0  0  0
    1.5282   14.0961   39.7232 H   0  0  0  0  0  0  0  0  0  0  0  0
   -0.7359   15.0680   39.5425 H   0  0  0  0  0  0  0  0  0  0  0  0
    0.2501   18.0259   42.4115 H   0  0  0  0  0  0  0  0  0  0  0  0
    7.2075   16.0501   42.4220 H   0  0  0  0  0  0  0  0  0  0  0  0
    6.2754   14.8952   43.4045 H   0  0  0  0  0  0  0  0  0  0  0  0
    7.8544   15.5576   44.0313 H   0  0  0  0  0  0  0  0  0  0  0  0
    5.7836   19.4525   45.9910 H   0  0  0  0  0  0  0  0  0  0  0  0
    2.1675   20.6133   44.9125 H   0  0  0  0  0  0  0  0  0  0  0  0
    3.5125   20.1894   46.0748 H   0  0  0  0  0  0  0  0  0  0  0  0
  1  2  2  0
  1  6  1  0
  2  3  1  0
  3  4  2  0
  4  5  1  0
  5  6  2  0
  6  7  1  0
  7  8  2  0
  7  9  1  0
  8 16  1  0
  9 10  2  0
 10 11  1  0
 10 15  1  0
 11 12  1  0
 11 13  1  0
 13 14  2  0
 14 15  1  0
 15 16  2  0
 16 17  1  0
  1 18  1  0
  2 19  1  0
  3 20  1  0
  5 21  1  0
 12 22  1  0
 12 23  1  0
 12 24  1  0
 14 25  1  0
 17 26  1  0
 17 27  1  0
M  END
>  <mol_id>  (90) 
2026-09-18-6fnk-s0-n100-r6-0090

>  <rmsd_to_ref>  (90) 
4.540816326531602

>  <pose_kind>  (90) 
conformer

$$$$
6fnk.A
     RDKit          3D

 27 29  0  0  0  0  0  0  0  0999 V2000
    2.5490   19.6261   40.0600 C   0  0  0  0  0  0  0  0  0  0  0  0
    2.9778   20.1832   38.8552 C   0  0  0  0  0  0  0  0  0  0  0  0
    3.9993   19.5786   38.1371 C   0  0  0  0  0  0  0  0  0  0  0  0
    4.5948   18.4100   38.6199 N   0  0  0  0  0  0  0  0  0  0  0  0
    4.1624   17.8528   39.8329 C   0  0  0  0  0  0  0  0  0  0  0  0
    3.1376   18.4604   40.5561 C   0  0  0  0  0  0  0  0  0  0  0  0
    2.7103   17.9040   41.7660 C   0  0  0  0  0  0  0  0  0  0  0  0
    1.8548   18.5587   42.5632 N   0  0  0  0  0  0  0  0  0  0  0  0
    3.1526   16.6981   42.1367 N   0  0  0  0  0  0  0  0  0  0  0  0
    2.7711   16.1345   43.2967 C   0  0  0  0  0  0  0  0  0  0  0  0
    3.0876   14.9666   43.8765 N   0  0  0  0  0  0  0  0  0  0  0  0
    3.9921   13.9509   43.3295 C   0  0  0  0  0  0  0  0  0  0  0  0
    2.5004   14.8446   44.9523 N   0  0  0  0  0  0  0  0  0  0  0  0
    1.7315   15.9336   45.1166 C   0  0  0  0  0  0  0  0  0  0  0  0
    1.9132   16.7718   44.0874 C   0  0  0  0  0  0  0  0  0  0  0  0
    1.4487   17.9965   43.7166 C   0  0  0  0  0  0  0  0  0  0  0  0
    0.5761   18.6758   44.5000 N   0  0  0  0  0  0  0  0  0  0  0  0
    1.7388   20.1098   40.6254 H   0  0  0  0  0  0  0  0  0  0  0  0
    2.5064   21.1013   38.4747 H   0  0  0  0  0  0  0  0  0  0  0  0
    4.3403   20.0187   37.1884 H   0  0  0  0  0  0  0  0  0  0  0  0
    4.6332   16.9346   40.2138 H   0  0  0  0  0  0  0  0  0  0  0  0
    4.7469   13.6871   44.0849 H   0  0  0  0  0  0  0  0  0  0  0  0
    3.4155   13.0542   43.0585 H   0  0  0  0  0  0  0  0  0  0  0  0
    4.4926   14.3494   42.4347 H   0  0  0  0  0  0  0  0  0  0  0  0
    1.0559   16.1103   45.9665 H   0  0  0  0  0  0  0  0  0  0  0  0
    0.2522   18.2643   45.3869 H   0  0  0  0  0  0  0  0  0  0  0  0
    0.2368   19.6036   44.2085 H   0  0  0  0  0  0  0  0  0  0  0  0
  1  2  2  0
  1  6  1  0
  2  3  1  0
  3  4  2  0
  4  5  1  0
  5  6  2  0
  6  7  1  0
  7  8  2  0
  7  9  1  0
  8 16  1  0
  9 10  2  0
 10 11  1  0
 10 15  1  0
 11 12  1  0
 11 13  1  0
 13 14  2  0
 14 15  1  0
 15 16  2  0
 16 17  1  0
  1 18  1  0
  2 19  1  0
  3 20  1  0
  5 21  1  0
 12 22  1  0
 12 23  1  0
 12 24  1  0
 14 25  1  0
 17 26  1  0
 17 27  1  0
M  END
>  <mol_id>  (91) 
2026-09-18-6fnk-s0-n100-r6-0091

>  <rmsd_to_ref>  (91) 
4.586734693878819

>  <pose_kind>  (91) 
rigid

$$$$
6fnk.A
     RDKit          3D

 27 29  0  0  0  0  0  0  0  0999 V2000
    3.3929   15.5292   45.9139 C   0  0  0  0  0  0  0  0  0  0  0  0
    3.5001   14.2019   46.2975 C   0  0  0  0  0  0  0  0  0  0  0  0
    4.2446   13.3256   45.5126 C   0  0  0  0  0  0  0  0  0  0  0  0
    4.8609   13.7423   44.3905 N   0  0  0  0  0  0  0  0  0  0  0  0
    4.7693   15.0393   43.9955 C   0  0  0  0  0  0  0  0  0  0  0  0
    4.0296   15.9352   44.7649 C   0  0  0  0  0  0  0  0  0  0  0  0
    3.9213   17.3323   44.3541 C   0  0  0  0  0  0  0  0  0  0  0  0
    3.2033   18.2297   45.0895 N   0  0  0  0  0  0  0  0  0  0  0  0
    4.5090   17.7980   43.2560 N   0  0  0  0  0  0  0  0  0  0  0  0
    4.4593   19.0628   42.8097 C   0  0  0  0  0  0  0  0  0  0  0  0
    4.9652   19.7309   41.7539 N   0  0  0  0  0  0  0  0  0  0  0  0
    5.8026   19.1468   40.7049 C   0  0  0  0  0  0  0  0  0  0  0  0
    4.5847   20.9922   41.8188 N   0  0  0  0  0  0  0  0  0  0  0  0
    3.8260   21.1842   42.9085 C   0  0  0  0  0  0  0  0  0  0  0  0
    3.7308   19.9821   43.5522 C   0  0  0  0  0  0  0  0  0  0  0  0
    3.1125   19.5215   44.6953 C   0  0  0  0  0  0  0  0  0  0  0  0
    2.3522   20.4161   45.4971 N   0  0  0  0  0  0  0  0  0  0  0  0
    2.8183   16.2360   46.5072 H   0  0  0  0  0  0  0  0  0  0  0  0
    3.0178   13.8249   47.1965 H   0  0  0  0  0  0  0  0  0  0  0  0
    4.3098   12.2886   45.8408 H   0  0  0  0  0  0  0  0  0  0  0  0
    5.2603   15.3947   43.0920 H   0  0  0  0  0  0  0  0  0  0  0  0
    5.8939   18.0594   40.8711 H   0  0  0  0  0  0  0  0  0  0  0  0
    6.8195   19.5914   40.8821 H   0  0  0  0  0  0  0  0  0  0  0  0
    5.4292   19.3407   39.6899 H   0  0  0  0  0  0  0  0  0  0  0  0
    3.3600   22.0912   43.2515 H   0  0  0  0  0  0  0  0  0  0  0  0
    1.4901   20.8497   45.0955 H   0  0  0  0  0  0  0  0  0  0  0  0
    2.6392   20.6499   46.4840 H   0  0  0  0  0  0  0  0  0  0  0  0
  1  2  2  0
  1  6  1  0
  2  3  1  0
  3  4  2  0
  4  5  1  0
  5  6  2  0
  6  7  1  0
  7  8  2  0
  7  9  1  0
  8 16  1  0
  9 10  2  0
 10 11  1  0
 10 15  1  0
 11 12  1  0
 11 13  1  0
 13 14  2  0
 14 15  1  0
 15 16  2  0
 16 17  1  0
  1 18  1  0
  2 19  1  0
  3 20  1  0
  5 21  1  0
 12 22  1  0
 12 23  1  0
 12 24  1  0
 14 25  1  0
 17 26  1  0
 17 27  1  0
M  END
>  <mol_id>  (92) 
2026-09-18-6fnk-s0-n100-r6-0092

>  <rmsd_to_ref>  (92) 
4.632653061224799

>  <pose_kind>  (92) 
conformer

$$$$
6fnk.A
     RDKit          3D

 27 29  0  0  0  0  0  0  0  0999 V2000
   -1.1906   14.8570   41.3629 C   0  0  0  0  0  0  0  0  0  0  0  0
   -1.9796   14.2768   40.3695 C   0  0  0  0  0  0  0  0  0  0  0  0
   -1.3837   13.7340   39.2405 C   0  0  0  0  0  0  0  0  0  0  0  0
    0.0066   13.7656   39.1016 N   0  0  0  0  0  0  0  0  0  0  0  0
    0.7975   14.3513   40.1017 C   0  0  0  0  0  0  0  0  0  0  0  0
    0.1999   14.8987   41.2355 C   0  0  0  0  0  0  0  0  0  0  0  0
    0.9907   15.4839   42.2296 C   0  0  0  0  0  0  0  0  0  0  0  0
    0.4359   16.1692   43.2389 N   0  0  0  0  0  0  0  0  0  0  0  0
    2.3206   15.3565   42.1827 N   0  0  0  0  0  0  0  0  0  0  0  0
    3.1142   15.9123   43.1155 C   0  0  0  0  0  0  0  0  0  0  0  0
    4.4473   15.9330   43.2661 N   0  0  0  0  0  0  0  0  0  0  0  0
    5.4243   15.2963   42.3778 C   0  0  0  0  0  0  0  0  0  0  0  0
    4.7587   16.5635   44.2774 N   0  0  0  0  0  0  0  0  0  0  0  0
    3.6207   16.9664   44.8663 C   0  0  0  0  0  0  0  0  0  0  0  0
    2.5715   16.5832   44.1266 C   0  0  0  0  0  0  0  0  0  0  0  0
    1.2177   16.7124   44.1903 C   0  0  0  0  0  0  0  0  0  0  0  0
    0.6310   17.3925   45.2050 N   0  0  0  0  0  0  0  0  0  0  0  0
   -1.6684   15.2862   42.2560 H   0  0  0  0  0  0  0  0  0  0  0  0
   -3.0735   14.2498   40.4814 H   0  0  0  0  0  0  0  0  0  0  0  0
   -2.0050   13.2789   38.4552 H   0  0  0  0  0  0  0  0  0  0  0  0
    1.8916   14.3785   39.9907 H   0  0  0  0  0  0  0  0  0  0  0  0
    6.1852   16.0332   42.0814 H   0  0  0  0  0  0  0  0  0  0  0  0
    5.9085   14.4606   42.9043 H   0  0  0  0  0  0  0  0  0  0  0  0
    4.9121   14.9172   41.4812 H   0  0  0  0  0  0  0  0  0  0  0  0
    3.5596   17.5257   45.8115 H   0  0  0  0  0  0  0  0  0  0  0  0
    1.2102   17.8163   45.9438 H   0  0  0  0  0  0  0  0  0  0  0  0
   -0.3943   17.4858   45.2374 H   0  0  0  0  0  0  0  0  0  0  0  0
  1  2  2  0
  1  6  1  0
  2  3  1  0
  3  4  2  0
  4  5  1  0
  5  6  2  0
  6  7  1  0
  7  8  2  0
  7  9  1  0
  8 16  1  0
  9 10  2  0
 10 11  1  0
 10 15  1  0
 11 12  1  0
 11 13  1  0
 13 14  2  0
 14 15  1  0
 15 16  2  0
 16 17  1  0
  1 18  1  0
  2 19  1  0
  3 20  1  0
  5 21  1  0
 12 22  1  0
 12 23  1  0
 12 24  1  0
 14 25  1  0
 17 26  1  0
 17 27  1  0
M  END
>  <mol_id>  (93) 
2026-09-18-6fnk-s0-n100-r6-0093

>  <rmsd_to_ref>  (93) 
4.67857142857246

>  <pose_kind>  (93) 
rigid

$$$$
6fnk.A
     RDKit          3D

 27 29  0  0  0  0  0  0  0  0999 V2000
    1.9564   19.1335   44.8990 C   0  0  0  0  0  0  0  0  0  0  0  0
    2.8544   19.4382   45.9038 C   0  0  0  0  0  0  0  0  0  0  0  0
    3.0825   18.5327   46.9181 C   0  0  0  0  0  0  0  0  0  0  0  0
    2.4399   17.3350   46.9560 N   0  0  0  0  0  0  0  0  0  0  0  0
    1.5469   16.9988   45.9826 C   0  0  0  0  0  0  0  0  0  0  0  0
    1.3224   17.9082   44.9700 C   0  0  0  0  0  0  0  0  0  0  0  0
    0.3728   17.5814   43.9112 C   0  0  0  0  0  0  0  0  0  0  0  0
    0.1052   18.4214   42.8928 N   0  0  0  0  0  0  0  0  0  0  0  0
   -0.2846   16.3856   43.9271 N   0  0  0  0  0  0  0  0  0  0  0  0
   -1.1650   16.0484   42.9719 C   0  0  0  0  0  0  0  0  0  0  0  0
   -1.9072   14.9413   42.8022 N   0  0  0  0  0  0  0  0  0  0  0  0
   -1.9765   13.7519   43.6253 C   0  0  0  0  0  0  0  0  0  0  0  0
   -2.6290   15.0813   41.6973 N   0  0  0  0  0  0  0  0  0  0  0  0
   -2.3613   16.2777   41.1428 C   0  0  0  0  0  0  0  0  0  0  0  0
   -1.4338   16.9141   41.9320 C   0  0  0  0  0  0  0  0  0  0  0  0
   -0.7708   18.1250   41.9122 C   0  0  0  0  0  0  0  0  0  0  0  0
   -1.0622   19.0002   40.8337 N   0  0  0  0  0  0  0  0  0  0  0  0
    1.7614   19.8423   44.0822 H   0  0  0  0  0  0  0  0  0  0  0  0
    3.3537   20.4014   45.8492 H   0  0  0  0  0  0  0  0  0  0  0  0
    3.7995   18.8263   47.6815 H   0  0  0  0  0  0  0  0  0  0  0  0
    1.0642   16.0436   46.0539 H   0  0  0  0  0  0  0  0  0  0  0  0
   -3.0057   13.6851   44.0810 H   0  0  0  0  0  0  0  0  0  0  0  0
   -1.8939   12.8307   43.0120 H   0  0  0  0  0  0  0  0  0  0  0  0
   -1.2680   13.7624   44.4600 H   0  0  0  0  0  0  0  0  0  0  0  0
   -2.7907   16.6821   40.2375 H   0  0  0  0  0  0  0  0  0  0  0  0
   -0.7860   18.6924   39.8568 H   0  0  0  0  0  0  0  0  0  0  0  0
   -1.5407   19.9380   40.9765 H   0  0  0  0  0  0  0  0  0  0  0  0
  1  2  2  0
  1  6  1  0
  2  3  1  0
  3  4  2  0
  4  5  1  0
  5  6  2  0
  6  7  1  0
  7  8  2  0
  7  9  1  0
  8 16  1  0
  9 10  2  0
 10 11  1  0
 10 15  1  0
 11 12  1  0
 11 13  1  0
 13 14  2  0
 14 15  1  0
 15 16  2  0
 16 17  1  0
  1 18  1  0
  2 19  1  0
  3 20  1  0
  5 21  1  0
 12 22  1  0
 12 23  1  0
 12 24  1  0
 14 25  1  0
 17 26  1  0
 17 27  1  0
M  END
>  <mol_id>  (94) 
2026-09-18-6fnk-s0-n100-r6-0094

>  <rmsd_to_ref>  (94) 
4.724489795918433

>  <pose_kind>  (94) 
conformer

$$$$
6fnk.A
     RDKit          3D

 27 29  0  0  0  0  0  0  0  0999 V2000
    0.7995   15.2050   44.3209 C   0  0  0  0  0  0  0  0  0  0  0  0
    1.4306   15.0809   45.5588 C   0  0  0  0  0  0  0  0  0  0  0  0
    1.8384   16.2153   46.2453 C   0  0  0  0  0  0  0  0  0  0  0  0
    1.6130   17.4812   45.6976 N   0  0  0  0  0  0  0  0  0  0  0  0
    0.9794   17.6028   44.4516 C   0  0  0  0  0  0  0  0  0  0  0  0
    0.5710   16.4638   43.7601 C   0  0  0  0  0  0  0  0  0  0  0  0
   -0.0583   16.5881   42.5173 C   0  0  0  0  0  0  0  0  0  0  0  0
   -0.3011   15.5124   41.7556 N   0  0  0  0  0  0  0  0  0  0  0  0
   -0.4320   17.7943   42.0784 N   0  0  0  0  0  0  0  0  0  0  0  0
   -1.0316   17.9545   40.8852 C   0  0  0  0  0  0  0  0  0  0  0  0
   -1.4730   19.0445   40.2392 N   0  0  0  0  0  0  0  0  0  0  0  0
   -1.4022   20.4240   40.7301 C   0  0  0  0  0  0  0  0  0  0  0  0
   -1.9680   18.7340   39.1550 N   0  0  0  0  0  0  0  0  0  0  0  0
   -1.9022   17.3964   39.0512 C   0  0  0  0  0  0  0  0  0  0  0  0
   -1.2872   16.8915   40.1290 C   0  0  0  0  0  0  0  0  0  0  0  0
   -0.9194   15.6567   40.5689 C   0  0  0  0  0  0  0  0  0  0  0  0
   -1.1613   14.5519   39.8224 N   0  0  0  0  0  0  0  0  0  0  0  0
    0.4784   14.3021   43.7808 H   0  0  0  0  0  0  0  0  0  0  0  0
    1.6048   14.0842   45.9903 H   0  0  0  0  0  0  0  0  0  0  0  0
    2.3388   16.1185   47.2200 H   0  0  0  0  0  0  0  0  0  0  0  0
    0.8046   18.5992   44.0196 H   0  0  0  0  0  0  0  0  0  0  0  0
   -0.9371   21.0622   39.9644 H   0  0  0  0  0  0  0  0  0  0  0  0
   -2.4173   20.7893   40.9448 H   0  0  0  0  0  0  0  0  0  0  0  0
   -0.7991   20.4555   41.6495 H   0  0  0  0  0  0  0  0  0  0  0  0
   -2.2934   16.8058   38.2097 H   0  0  0  0  0  0  0  0  0  0  0  0
   -1.6333   14.6393   38.9111 H   0  0  0  0  0  0  0  0  0  0  0  0
   -0.8732   13.6248   40.1663 H   0  0  0  0  0  0  0  0  0  0  0  0
  1  2  2  0
  1  6  1  0
  2  3  1  0
  3  4  2  0
  4  5  1  0
  5  6  2  0
  6  7  1  0
  7  8  2  0
  7  9  1  0
  8 16  1  0
  9 10  2  0
 10 11  1  0
 10 15  1  0
 11 12  1  0
 11 13  1  0
 13 14  2  0
 14 15  1  0
 15 16  2  0
 16 17  1  0
  1 18  1  0
  2 19  1  0
  3 20  1  0
  5 21  1  0
 12 22  1  0
 12 23  1  0
 12 24  1  0
 14 25  1  0
 17 26  1  0
 17 27  1  0
M  END
>  <mol_id>  (95) 
2026-09-18-6fnk-s0-n100-r6-0095

>  <rmsd_to_ref>  (95) 
4.77040816326959

>  <pose_kind>  (95) 
rigid

$$$$
6fnk.A
     RDKit          3D

 27 29  0  0  0  0  0  0  0  0999 V2000
    3.6729   19.3392   41.2907 C   0  0  0  0  0  0  0  0  0  0  0  0
    4.7623   19.9856   40.7980 C   0  0  0  0  0  0  0  0  0  0  0  0
    5.5702   19.4312   39.8487 C   0  0  0  0  0  0  0  0  0  0  0  0
    5.2768   18.1850   39.3759 N   0  0  0  0  0  0  0  0  0  0  0  0
    4.1912   17.5092   39.8490 C   0  0  0  0  0  0  0  0  0  0  0  0
    3.3824   18.0797   40.8080 C   0  0  0  0  0  0  0  0  0  0  0  0
    2.2128   17.3840   41.3361 C   0  0  0  0  0  0  0  0  0  0  0  0
    1.4260   17.9464   42.2733 N   0  0  0  0  0  0  0  0  0  0  0  0
    1.9070   16.1418   40.8752 N   0  0  0  0  0  0  0  0  0  0  0  0
    0.8352   15.4474   41.3270 C   0  0  0  0  0  0  0  0  0  0  0  0
    0.3199   14.2341   41.0474 N   0  0  0  0  0  0  0  0  0  0  0  0
    0.8275   13.2716   40.1040 C   0  0  0  0  0  0  0  0  0  0  0  0
   -0.7544   14.0674   41.7991 N   0  0  0  0  0  0  0  0  0  0  0  0
   -0.9554   15.1412   42.5638 C   0  0  0  0  0  0  0  0  0  0  0  0
    0.0545   16.0718   42.2943 C   0  0  0  0  0  0  0  0  0  0  0  0
    0.3421   17.3308   42.7790 C   0  0  0  0  0  0  0  0  0  0  0  0
   -0.4810   17.9361   43.7690 N   0  0  0  0  0  0  0  0  0  0  0  0
    3.0091   19.7630   42.0528 H   0  0  0  0  0  0  0  0  0  0  0  0
    4.9989   20.9713   41.1684 H   0  0  0  0  0  0  0  0  0  0  0  0
    6.4316   19.9787   39.4797 H   0  0  0  0  0  0  0  0  0  0  0  0
    3.9379   16.5184   39.4888 H   0  0  0  0  0  0  0  0  0  0  0  0
    1.4811   13.6908   39.3414 H   0  0  0  0  0  0  0  0  0  0  0  0
   -0.0769   12.7761   39.6448 H   0  0  0  0  0  0  0  0  0  0  0  0
    1.3784   12.4433   40.6241 H   0  0  0  0  0  0  0  0  0  0  0  0
   -1.7222   15.3648   43.2940 H   0  0  0  0  0  0  0  0  0  0  0  0
   -1.5132   18.0148   43.6170 H   0  0  0  0  0  0  0  0  0  0  0  0
   -0.0011   18.2886   44.6365 H   0  0  0  0  0  0  0  0  0  0  0  0
  1  2  2  0
  1  6  1  0
  2  3  1  0
  3  4  2  0
  4  5  1  0
  5  6  2  0
  6  7  1  0
  7  8  2  0
  7  9  1  0
  8 16  1  0
  9 10  2  0
 10 11  1  0
 10 15  1  0
 11 12  1  0
 11 13  1  0
 13 14  2  0
 14 15  1  0
 15 16  2  0
 16 17  1  0
  1 18  1  0
  2 19  1  0
  3 20  1  0
  5 21  1  0
 12 22  1  0
 12 23  1  0
 12 24  1  0
 14 25  1  0
 17 26  1  0
 17 27  1  0
M  END
>  <mol_id>  (96) 
2026-09-18-6fnk-s0-n100-r6-0096

>  <rmsd_to_ref>  (96) 
4.816326530612459

>  <pose_kind>  (96) 
conformer

$$$$
6fnk.A
     RDKit          3D

 27 29  0  0  0  0  0  0  0  0999 V2000
   -0.4680   18.5007   44.8896 C   0  0  0  0  0  0  0  0  0  0  0  0
   -0.0672   17.6369   45.9090 C   0  0  0  0  0  0  0  0  0  0  0  0
    0.4845   16.4034   45.5948 C   0  0  0  0  0  0  0  0  0  0  0  0
    0.6416   16.0294   44.2574 N   0  0  0  0  0  0  0  0  0  0  0  0
    0.2360   16.8997   43.2342 C   0  0  0  0  0  0  0  0  0  0  0  0
   -0.3201   18.1383   43.5486 C   0  0  0  0  0  0  0  0  0  0  0  0
   -0.7256   19.0027   42.5266 C   0  0  0  0  0  0  0  0  0  0  0  0
   -1.4196   20.1164   42.7990 N   0  0  0  0  0  0  0  0  0  0  0  0
   -0.4143   18.7238   41.2568 N   0  0  0  0  0  0  0  0  0  0  0  0
   -0.7941   19.5262   40.2465 C   0  0  0  0  0  0  0  0  0  0  0  0
   -0.6166   19.4467   38.9189 N   0  0  0  0  0  0  0  0  0  0  0  0
    0.0966   18.3815   38.2078 C   0  0  0  0  0  0  0  0  0  0  0  0
   -1.1336   20.4119   38.3547 N   0  0  0  0  0  0  0  0  0  0  0  0
   -1.6569   21.2014   39.3071 C   0  0  0  0  0  0  0  0  0  0  0  0
   -1.4720   20.6392   40.5090 C   0  0  0  0  0  0  0  0  0  0  0  0
   -1.7874   20.9387   41.7990 C   0  0  0  0  0  0  0  0  0  0  0  0
   -2.4805   22.0630   42.1025 N   0  0  0  0  0  0  0  0  0  0  0  0
   -0.9052   19.4774   45.1444 H   0  0  0  0  0  0  0  0  0  0  0  0
   -0.1885   17.9335   46.9612 H   0  0  0  0  0  0  0  0  0  0  0  0
    0.7982   15.7202   46.3978 H   0  0  0  0  0  0  0  0  0  0  0  0
    0.3573   16.6038   42.1817 H   0  0  0  0  0  0  0  0  0  0  0  0
   -0.5419   17.9860   37.4041 H   0  0  0  0  0  0  0  0  0  0  0  0
    1.0229   18.7864   37.7744 H   0  0  0  0  0  0  0  0  0  0  0  0
    0.3438   17.5728   38.9113 H   0  0  0  0  0  0  0  0  0  0  0  0
   -2.1603   22.1628   39.1276 H   0  0  0  0  0  0  0  0  0  0  0  0
   -2.7720   22.7064   41.3528 H   0  0  0  0  0  0  0  0  0  0  0  0
   -2.7158   22.2741   43.0828 H   0  0  0  0  0  0  0  0  0  0  0  0
  1  2  2  0
  1  6  1  0
  2  3  1  0
  3  4  2  0
  4  5  1  0
  5  6  2  0
  6  7  1  0
  7  8  2  0
  7  9  1  0
  8 16  1  0
  9 10  2  0
 10 11  1  0
 10 15  1  0
 11 12  1  0
 11 13  1  0
 13 14  2  0
 14 15  1  0
 15 16  2  0
 16 17  1  0
  1 18  1  0
  2 19  1  0
  3 20  1  0
  5 21  1  0
 12 22  1  0
 12 23  1  0
 12 24  1  0
 14 25  1  0
 17 26  1  0
 17 27  1  0
M  END
>  <mol_id>  (97) 
2026-09-18-6fnk-s0-n100-r6-0097

>  <rmsd_to_ref>  (97) 
4.862244897959299

>  <pose_kind>  (97) 
rigid

$$$$
6fnk.A
     RDKit          3D

 27 29  0  0  0  0  0  0  0  0999 V2000
    0.5952   17.6197   42.1383 C   0  0  0  0  0  0  0  0  0  0  0  0
   -0.4413   18.0287   41.3359 C   0  0  0  0  0  0  0  0  0  0  0  0
   -0.2977   18.3702   40.0078 C   0  0  0  0  0  0  0  0  0  0  0  0
    0.9457   18.2935   39.4738 N   0  0  0  0  0  0  0  0  0  0  0  0
    1.9933   17.8914   40.2436 C   0  0  0  0  0  0  0  0  0  0  0  0
    1.8489   17.5539   41.5581 C   0  0  0  0  0  0  0  0  0  0  0  0
    2.9885   17.1257   42.3628 C   0  0  0  0  0  0  0  0  0  0  0  0
    4.2146   17.0552   41.8179 N   0  0  0  0  0  0  0  0  0  0  0  0
    2.8269   16.7976   43.6541 N   0  0  0  0  0  0  0  0  0  0  0  0
    3.8518   16.3984   44.4288 C   0  0  0  0  0  0  0  0  0  0  0  0
    3.9263   16.0263   45.7254 N   0  0  0  0  0  0  0  0  0  0  0  0
    2.8398   15.9606   46.6715 C   0  0  0  0  0  0  0  0  0  0  0  0
    5.1920   15.7335   45.9582 N   0  0  0  0  0  0  0  0  0  0  0  0
    5.9443   15.9023   44.8574 C   0  0  0  0  0  0  0  0  0  0  0  0
    5.0979   16.3322   43.8551 C   0  0  0  0  0  0  0  0  0  0  0  0
    5.2947   16.6655   42.5220 C   0  0  0  0  0  0  0  0  0  0  0  0
    6.6016   16.5861   41.9566 N   0  0  0  0  0  0  0  0  0  0  0  0
    0.4553   17.3527   43.1948 H   0  0  0  0  0  0  0  0  0  0  0  0
   -1.4266   18.0802   41.7927 H   0  0  0  0  0  0  0  0  0  0  0  0
   -1.1351   18.6912   39.3938 H   0  0  0  0  0  0  0  0  0  0  0  0
    2.9503   17.8497   39.7701 H   0  0  0  0  0  0  0  0  0  0  0  0
    2.7743   16.9298   47.2086 H   0  0  0  0  0  0  0  0  0  0  0  0
    1.8686   15.7780   46.1350 H   0  0  0  0  0  0  0  0  0  0  0  0
    2.9605   15.0968   47.3645 H   0  0  0  0  0  0  0  0  0  0  0  0
    7.0126   15.7273   44.7929 H   0  0  0  0  0  0  0  0  0  0  0  0
    7.0314   17.3672   41.4140 H   0  0  0  0  0  0  0  0  0  0  0  0
    7.1934   15.7156   42.0693 H   0  0  0  0  0  0  0  0  0  0  0  0
  1  2  2  0
  1  6  1  0
  2  3  1  0
  3  4  2  0
  4  5  1  0
  5  6  2  0
  6  7  1  0
  7  8  2  0
  7  9  1  0
  8 16  1  0
  9 10  2  0
 10 11  1  0
 10 15  1  0
 11 12  1  0
 11 13  1  0
 13 14  2  0
 14 15  1  0
 15 16  2  0
 16 17  1  0
  1 18  1  0
  2 19  1  0
  3 20  1  0
  5 21  1  0
 12 22  1  0
 12 23  1  0
 12 24  1  0
 14 25  1  0
 17 26  1  0
 17 27  1  0
M  END
>  <mol_id>  (98) 
2026-09-18-6fnk-s0-n100-r6-0098

>  <rmsd_to_ref>  (98) 
4.908163265306823

>  <pose_kind>  (98) 
conformer

$$$$
6fnk.A
     RDKit          3D

 27 29  0  0  0  0  0  0  0  0999 V2000
    4.4086   19.9662   43.5763 C   0  0  0  0  0  0  0  0  0  0  0  0
    5.4665   20.6361   44.1911 C   0  0  0  0  0  0  0  0  0  0  0  0
    5.2936   21.9356   44.6446 C   0  0  0  0  0  0  0  0  0  0  0  0
    4.0585   22.5708   44.4884 N   0  0  0  0  0  0  0  0  0  0  0  0
    2.9967   21.8950   43.8682 C   0  0  0  0  0  0  0  0  0  0  0  0
    3.1697   20.5901   43.4105 C   0  0  0  0  0  0  0  0  0  0  0  0
    2.1102   19.9199   42.7906 C   0  0  0  0  0  0  0  0  0  0  0  0
    2.2990   18.7379   42.1879 N   0  0  0  0  0  0  0  0  0  0  0  0
    0.8862   20.4573   42.8008 N   0  0  0  0  0  0  0  0  0  0  0  0
   -0.1554   19.8470   42.2080 C   0  0  0  0  0  0  0  0  0  0  0  0
   -1.4451   20.1929   42.0768 N   0  0  0  0  0  0  0  0  0  0  0  0
   -2.0666   21.4139   42.5983 C   0  0  0  0  0  0  0  0  0  0  0  0
   -2.0636   19.3288   41.4538 N   0  0  0  0  0  0  0  0  0  0  0  0
   -1.1985   18.3414   41.1695 C   0  0  0  0  0  0  0  0  0  0  0  0
    0.0206   18.6684   41.6187 C   0  0  0  0  0  0  0  0  0  0  0  0
    1.2606   18.1067   41.6093 C   0  0  0  0  0  0  0  0  0  0  0  0
    1.4768   16.9083   41.0146 N   0  0  0  0  0  0  0  0  0  0  0  0
    4.5513   18.9359   43.2183 H   0  0  0  0  0  0  0  0  0  0  0  0
    6.4373   20.1341   44.3162 H   0  0  0  0  0  0  0  0  0  0  0  0
    6.1280   22.4658   45.1269 H   0  0  0  0  0  0  0  0  0  0  0  0
    2.0255   22.3963   43.7430 H   0  0  0  0  0  0  0  0  0  0  0  0
   -2.6116   21.9223   41.7894 H   0  0  0  0  0  0  0  0  0  0  0  0
   -2.7673   21.1528   43.4051 H   0  0  0  0  0  0  0  0  0  0  0  0
   -1.2870   22.0827   42.9920 H   0  0  0  0  0  0  0  0  0  0  0  0
   -1.4523   17.4069   40.6476 H   0  0  0  0  0  0  0  0  0  0  0  0
    0.6964   16.4079   40.5658 H   0  0  0  0  0  0  0  0  0  0  0  0
    2.4214   16.4979   41.0116 H   0  0  0  0  0  0  0  0  0  0  0  0
  1  2  2  0
  1  6  1  0
  2  3  1  0
  3  4  2  0
  4  5  1  0
  5  6  2  0
  6  7  1  0
  7  8  2  0
  7  9  1  0
  8 16  1  0
  9 10  2  0
 10 11  1  0
 10 15  1  0
 11 12  1  0
 11 13  1  0
 13 14  2  0
 14 15  1  0
 15 16  2  0
 16 17  1  0
  1 18  1  0
  2 19  1  0
  3 20  1  0
  5 21  1  0
 12 22  1  0
 12 23  1  0
 12 24  1  0
 14 25  1  0
 17 26  1  0
 17 27  1  0
M  END
>  <mol_id>  (99) 
2026-09-18-6fnk-s0-n100-r6-0099

>  <rmsd_to_ref>  (99) 
4.954081632656208

>  <pose_kind>  (99) 
rigid

$$$$
6fnk.A
     RDKit          3D

 27 29  0  0  0  0  0  0  0  0999 V2000
   -2.6655   17.7825   44.0718 C   0  0  0  0  0  0  0  0  0  0  0  0
   -3.9703   17.5800   44.4450 C   0  0  0  0  0  0  0  0  0  0  0  0
   -4.9126   17.5133   43.4427 C   0  0  0  0  0  0  0  0  0  0  0  0
   -4.5474   17.6454   42.1337 N   0  0  0  0  0  0  0  0  0  0  0  0
   -3.2407   17.8460   41.7952 C   0  0  0  0  0  0  0  0  0  0  0  0
   -2.2716   17.9183   42.7653 C   0  0  0  0  0  0  0  0  0  0  0  0
   -0.8715   18.1319   42.4248 C   0  0  0  0  0  0  0  0  0  0  0  0
   -0.4558   18.2673   41.1736 N   0  0  0  0  0  0  0  0  0  0  0  0
    0.0444   18.1961   43.4087 N   0  0  0  0  0  0  0  0  0  0  0  0
    1.3507   18.3917   43.1486 C   0  0  0  0  0  0  0  0  0  0  0  0
    2.4029   18.4835   43.9914 N   0  0  0  0  0  0  0  0  0  0  0  0
    2.3061   18.3797   45.4374 C   0  0  0  0  0  0  0  0  0  0  0  0
    3.4762   18.6776   43.2443 N   0  0  0  0  0  0  0  0  0  0  0  0
    3.1409   18.7140   41.9259 C   0  0  0  0  0  0  0  0  0  0  0  0
    1.7808   18.5325   41.8431 C   0  0  0  0  0  0  0  0  0  0  0  0
    0.8374   18.4659   40.8368 C   0  0  0  0  0  0  0  0  0  0  0  0
    1.2733   18.6087   39.5105 N   0  0  0  0  0  0  0  0  0  0  0  0
   -1.8895   17.8419   44.8251 H   0  0  0  0  0  0  0  0  0  0  0  0
   -4.2200   17.4794   45.5048 H   0  0  0  0  0  0  0  0  0  0  0  0
   -5.9439   17.3547   43.7154 H   0  0  0  0  0  0  0  0  0  0  0  0
   -3.0126   17.9431   40.7433 H   0  0  0  0  0  0  0  0  0  0  0  0
    2.2743   19.3764   45.9181 H   0  0  0  0  0  0  0  0  0  0  0  0
    1.3561   17.8675   45.7068 H   0  0  0  0  0  0  0  0  0  0  0  0
    3.1279   17.7480   45.8012 H   0  0  0  0  0  0  0  0  0  0  0  0
    3.7991   18.8577   41.0736 H   0  0  0  0  0  0  0  0  0  0  0  0
    2.2563   18.3266   39.2447 H   0  0  0  0  0  0  0  0  0  0  0  0
    0.6999   18.9821   38.7237 H   0  0  0  0  0  0  0  0  0  0  0  0
  1  2  2  0
  1  6  1  0
  2  3  1  0
  3  4  2  0
  4  5  1  0
  5  6  2  0
  6  7  1  0
  7  8  2  0
  7  9  1  0
  8 16  1  0
  9 10  2  0
 10 11  1  0
 10 15  1  0
 11 12  1  0
 11 13  1  0
 13 14  2  0
 14 15  1  0
 15 16  2  0
 16 17  1  0
  1 18  1  0
  2 19  1  0
  3 20  1  0
  5 21  1  0
 12 22  1  0
 12 23  1  0
 12 24  1  0
 14 25  1  0
 17 26  1  0
 17 27  1  0
M  END
>  <mol_id>  (100) 
2026-09-18-6fnk-s0-n100-r6-0100

>  <rmsd_to_ref>  (100) 
5.000000000003009

>  <pose_kind>  (100) 
conformer

$$$$
