6fnk.A
     RDKit          3D

 27 29  0  0  0  0  0  0  0  0999 V2000
    2.9034   16.1161   40.7342 C   0  0  0  0  0  0  0  0  0  0  0  0
    3.3991   14.8730   40.3406 C   0  0  0  0  0  0  0  0  0  0  0  0
    3.2111   13.7637   41.1521 C   0  0  0  0  0  0  0  0  0  0  0  0
    2.5220   13.8922   42.3612 N   0  0  0  0  0  0  0  0  0  0  0  0
    2.0259   15.1442   42.7552 C   0  0  0  0  0  0  0  0  0  0  0  0
    2.2158   16.2597   41.9417 C   0  0  0  0  0  0  0  0  0  0  0  0
    1.7222   17.5068   42.3382 C   0  0  0  0  0  0  0  0  0  0  0  0
    2.0408   18.6212   41.6654 N   0  0  0  0  0  0  0  0  0  0  0  0
    0.9145   17.5957   43.3997 N   0  0  0  0  0  0  0  0  0  0  0  0
    0.4272   18.7780   43.8163 C   0  0  0  0  0  0  0  0  0  0  0  0
   -0.3708   19.1111   44.8422 N   0  0  0  0  0  0  0  0  0  0  0  0
   -0.9468   18.1844   45.8212 C   0  0  0  0  0  0  0  0  0  0  0  0
   -0.5738   20.3259   44.8557 N   0  0  0  0  0  0  0  0  0  0  0  0
    0.0681   20.8526   43.7999 C   0  0  0  0  0  0  0  0  0  0  0  0
    0.7283   19.8866   43.1473 C   0  0  0  0  0  0  0  0  0  0  0  0
    1.5428   19.8079   42.0593 C   0  0  0  0  0  0  0  0  0  0  0  0
    1.8732   20.9182   41.3561 N   0  0  0  0  0  0  0  0  0  0  0  0
    3.0555   16.9924   40.0870 H   0  0  0  0  0  0  0  0  0  0  0  0
    3.9387   14.7724   39.3873 H   0  0  0  0  0  0  0  0  0  0  0  0
    3.6041   12.7836   40.8441 H   0  0  0  0  0  0  0  0  0  0  0  0
    1.4860   15.2454   43.7082 H   0  0  0  0  0  0  0  0  0  0  0  0
   -0.7252   18.5408   46.8380 H   0  0  0  0  0  0  0  0  0  0  0  0
   -2.0365   18.1326   45.6801 H   0  0  0  0  0  0  0  0  0  0  0  0
   -0.5109   17.1844   45.6801 H   0  0  0  0  0  0  0  0  0  0  0  0
    0.0539   21.9149   43.5146 H   0  0  0  0  0  0  0  0  0  0  0  0
    1.5034   21.8366   41.6400 H   0  0  0  0  0  0  0  0  0  0  0  0
    2.4942   20.8437   40.5377 H   0  0  0  0  0  0  0  0  0  0  0  0
  1  2  2  0
  1  6  1  0
  2  3  1  0
  3  4  2  0
  4  5  1  0
  5  6  2  0
  6  7  1  0
  7  8  2  0
  7  9  1  0
  8 16  1  0
  9 10  2  0
 10 11  1  0
 10 15  1  0
 11 12  1  0
 11 13  1  0
 13 14  2  0
 14 15  1  0
 15 16  2  0
 16 17  1  0
  1 18  1  0
  2 19  1  0
  3 20  1  0
  5 21  1  0
 12 22  1  0
 12 23  1  0
 12 24  1  0
 14 25  1  0
 17 26  1  0
 17 27  1  0
M  END
>  <mol_id>  (1) 
2026-09-18-6fnk-s0-n100-r3-0001

>  <rmsd_to_ref>  (1) 
0.0

>  <pose_kind>  (1) 
native

$$$$
6fnk.A
     RDKit          3D

 27 29  0  0  0  0  0  0  0  0999 V2000
    2.8717   15.7449   40.8774 C   0  0  0  0  0  0  0  0  0  0  0  0
    3.2795   14.4358   40.7251 C   0  0  0  0  0  0  0  0  0  0  0  0
    2.9730   13.4323   41.6048 C   0  0  0  0  0  0  0  0  0  0  0  0
    2.2268   13.7467   42.6846 N   0  0  0  0  0  0  0  0  0  0  0  0
    1.8169   15.0199   42.8541 C   0  0  0  0  0  0  0  0  0  0  0  0
    2.1009   16.0409   42.0039 C   0  0  0  0  0  0  0  0  0  0  0  0
    1.6580   17.4149   42.1876 C   0  0  0  0  0  0  0  0  0  0  0  0
    1.9483   18.4122   41.3365 N   0  0  0  0  0  0  0  0  0  0  0  0
    0.9101   17.6939   43.2838 N   0  0  0  0  0  0  0  0  0  0  0  0
    0.4484   18.9308   43.5506 C   0  0  0  0  0  0  0  0  0  0  0  0
   -0.2964   19.4729   44.5404 N   0  0  0  0  0  0  0  0  0  0  0  0
   -0.8404   18.7695   45.6868 C   0  0  0  0  0  0  0  0  0  0  0  0
   -0.4563   20.7684   44.2990 N   0  0  0  0  0  0  0  0  0  0  0  0
    0.1778   21.0995   43.1511 C   0  0  0  0  0  0  0  0  0  0  0  0
    0.7558   19.9461   42.6650 C   0  0  0  0  0  0  0  0  0  0  0  0
    1.5207   19.6748   41.5385 C   0  0  0  0  0  0  0  0  0  0  0  0
    1.8359   20.7003   40.6363 N   0  0  0  0  0  0  0  0  0  0  0  0
    3.1422   16.5014   40.1507 H   0  0  0  0  0  0  0  0  0  0  0  0
    3.8728   14.2121   39.8565 H   0  0  0  0  0  0  0  0  0  0  0  0
    3.3285   12.4296   41.4188 H   0  0  0  0  0  0  0  0  0  0  0  0
    1.2189   15.2256   43.7372 H   0  0  0  0  0  0  0  0  0  0  0  0
   -0.2596   17.8460   45.9161 H   0  0  0  0  0  0  0  0  0  0  0  0
   -1.8836   18.4613   45.4786 H   0  0  0  0  0  0  0  0  0  0  0  0
   -0.7938   19.3683   46.6242 H   0  0  0  0  0  0  0  0  0  0  0  0
    0.2414   22.0692   42.6753 H   0  0  0  0  0  0  0  0  0  0  0  0
    1.4161   21.6462   40.7418 H   0  0  0  0  0  0  0  0  0  0  0  0
    2.4913   20.5441   39.8455 H   0  0  0  0  0  0  0  0  0  0  0  0
  1  2  2  0
  1  6  1  0
  2  3  1  0
  3  4  2  0
  4  5  1  0
  5  6  2  0
  6  7  1  0
  7  8  2  0
  7  9  1  0
  8 16  1  0
  9 10  2  0
 10 11  1  0
 10 15  1  0
 11 12  1  0
 11 13  1  0
 13 14  2  0
 14 15  1  0
 15 16  2  0
 16 17  1  0
  1 18  1  0
  2 19  1  0
  3 20  1  0
  5 21  1  0
 12 22  1  0
 12 23  1  0
 12 24  1  0
 14 25  1  0
 17 26  1  0
 17 27  1  0
M  END
>  <mol_id>  (2) 
2026-09-18-6fnk-s0-n100-r3-0002

>  <rmsd_to_ref>  (2) 
0.5000000000030299

>  <pose_kind>  (2) 
conformer

$$$$
6fnk.A
     RDKit          3D

 27 29  0  0  0  0  0  0  0  0999 V2000
    3.3505   16.2755   40.7332 C   0  0  0  0  0  0  0  0  0  0  0  0
    4.0826   15.1405   40.3842 C   0  0  0  0  0  0  0  0  0  0  0  0
    4.0603   14.0223   41.2050 C   0  0  0  0  0  0  0  0  0  0  0  0
    3.3013   14.0330   42.3785 N   0  0  0  0  0  0  0  0  0  0  0  0
    2.5672   15.1767   42.7277 C   0  0  0  0  0  0  0  0  0  0  0  0
    2.5904   16.3013   41.9049 C   0  0  0  0  0  0  0  0  0  0  0  0
    1.8595   17.4406   42.2568 C   0  0  0  0  0  0  0  0  0  0  0  0
    2.0024   18.5888   41.5805 N   0  0  0  0  0  0  0  0  0  0  0  0
    0.9985   17.3895   43.2781 N   0  0  0  0  0  0  0  0  0  0  0  0
    0.2846   18.4664   43.6515 C   0  0  0  0  0  0  0  0  0  0  0  0
   -0.6096   18.6569   44.6335 N   0  0  0  0  0  0  0  0  0  0  0  0
   -1.0543   17.6488   45.6005 C   0  0  0  0  0  0  0  0  0  0  0  0
   -1.0306   19.8143   44.6169 N   0  0  0  0  0  0  0  0  0  0  0  0
   -0.4447   20.4405   43.5830 C   0  0  0  0  0  0  0  0  0  0  0  0
    0.4112   19.6058   42.9783 C   0  0  0  0  0  0  0  0  0  0  0  0
    1.2783   19.6679   41.9306 C   0  0  0  0  0  0  0  0  0  0  0  0
    1.4350   20.8140   41.2246 N   0  0  0  0  0  0  0  0  0  0  0  0
    3.3720   17.1595   40.0788 H   0  0  0  0  0  0  0  0  0  0  0  0
    4.6772   15.1321   39.4588 H   0  0  0  0  0  0  0  0  0  0  0  0
    4.6395   13.1279   40.9323 H   0  0  0  0  0  0  0  0  0  0  0  0
    1.9722   15.1857   43.6528 H   0  0  0  0  0  0  0  0  0  0  0  0
   -0.9510   18.0482   46.6202 H   0  0  0  0  0  0  0  0  0  0  0  0
   -2.1083   17.3979   45.4100 H   0  0  0  0  0  0  0  0  0  0  0  0
   -0.4375   16.7440   45.4968 H   0  0  0  0  0  0  0  0  0  0  0  0
   -0.6380   21.4799   43.2793 H   0  0  0  0  0  0  0  0  0  0  0  0
    0.8909   21.6518   41.4754 H   0  0  0  0  0  0  0  0  0  0  0  0
    2.0982   20.8472   40.4372 H   0  0  0  0  0  0  0  0  0  0  0  0
  1  2  2  0
  1  6  1  0
  2  3  1  0
  3  4  2  0
  4  5  1  0
  5  6  2  0
  6  7  1  0
  7  8  2  0
  7  9  1  0
  8 16  1  0
  9 10  2  0
 10 11  1  0
 10 15  1  0
 11 12  1  0
 11 13  1  0
 13 14  2  0
 14 15  1  0
 15 16  2  0
 16 17  1  0
  1 18  1  0
  2 19  1  0
  3 20  1  0
  5 21  1  0
 12 22  1  0
 12 23  1  0
 12 24  1  0
 14 25  1  0
 17 26  1  0
 17 27  1  0
M  END
>  <mol_id>  (3) 
2026-09-18-6fnk-s0-n100-r3-0003

>  <rmsd_to_ref>  (3) 
0.5459183673532323

>  <pose_kind>  (3) 
rigid

$$$$
6fnk.A
     RDKit          3D

 27 29  0  0  0  0  0  0  0  0999 V2000
    3.2914   15.7927   41.4606 C   0  0  0  0  0  0  0  0  0  0  0  0
    3.7692   14.4927   41.2753 C   0  0  0  0  0  0  0  0  0  0  0  0
    3.2639   13.4558   42.0561 C   0  0  0  0  0  0  0  0  0  0  0  0
    2.3153   13.6951   42.9918 N   0  0  0  0  0  0  0  0  0  0  0  0
    1.8413   14.9389   43.1868 C   0  0  0  0  0  0  0  0  0  0  0  0
    2.3243   16.0059   42.4221 C   0  0  0  0  0  0  0  0  0  0  0  0
    1.8279   17.3665   42.6122 C   0  0  0  0  0  0  0  0  0  0  0  0
    2.2816   18.3926   41.8881 N   0  0  0  0  0  0  0  0  0  0  0  0
    0.8751   17.6131   43.5505 N   0  0  0  0  0  0  0  0  0  0  0  0
    0.4020   18.8488   43.7466 C   0  0  0  0  0  0  0  0  0  0  0  0
   -0.5120   19.3932   44.5720 N   0  0  0  0  0  0  0  0  0  0  0  0
   -1.3028   18.6953   45.5697 C   0  0  0  0  0  0  0  0  0  0  0  0
   -0.6179   20.6944   44.3675 N   0  0  0  0  0  0  0  0  0  0  0  0
    0.2337   21.0837   43.3811 C   0  0  0  0  0  0  0  0  0  0  0  0
    0.8774   19.9119   42.9909 C   0  0  0  0  0  0  0  0  0  0  0  0
    1.8519   19.6608   42.0309 C   0  0  0  0  0  0  0  0  0  0  0  0
    2.3873   20.6998   41.2181 N   0  0  0  0  0  0  0  0  0  0  0  0
    3.6571   16.6208   40.8769 H   0  0  0  0  0  0  0  0  0  0  0  0
    4.5391   14.2940   40.5170 H   0  0  0  0  0  0  0  0  0  0  0  0
    3.6610   12.4443   41.8853 H   0  0  0  0  0  0  0  0  0  0  0  0
    1.0728   15.1111   43.9501 H   0  0  0  0  0  0  0  0  0  0  0  0
   -2.3409   19.1389   45.6069 H   0  0  0  0  0  0  0  0  0  0  0  0
   -0.8160   18.6833   46.5600 H   0  0  0  0  0  0  0  0  0  0  0  0
   -1.4805   17.6208   45.2918 H   0  0  0  0  0  0  0  0  0  0  0  0
    0.3949   22.0545   42.9769 H   0  0  0  0  0  0  0  0  0  0  0  0
    2.4988   21.6641   41.6130 H   0  0  0  0  0  0  0  0  0  0  0  0
    2.6508   20.4420   40.2382 H   0  0  0  0  0  0  0  0  0  0  0  0
  1  2  2  0
  1  6  1  0
  2  3  1  0
  3  4  2  0
  4  5  1  0
  5  6  2  0
  6  7  1  0
  7  8  2  0
  7  9  1  0
  8 16  1  0
  9 10  2  0
 10 11  1  0
 10 15  1  0
 11 12  1  0
 11 13  1  0
 13 14  2  0
 14 15  1  0
 15 16  2  0
 16 17  1  0
  1 18  1  0
  2 19  1  0
  3 20  1  0
  5 21  1  0
 12 22  1  0
 12 23  1  0
 12 24  1  0
 14 25  1  0
 17 26  1  0
 17 27  1  0
M  END
>  <mol_id>  (4) 
2026-09-18-6fnk-s0-n100-r3-0004

>  <rmsd_to_ref>  (4) 
0.5918367347015318

>  <pose_kind>  (4) 
conformer

$$$$
6fnk.A
     RDKit          3D

 27 29  0  0  0  0  0  0  0  0999 V2000
    3.3993   16.3013   40.7186 C   0  0  0  0  0  0  0  0  0  0  0  0
    4.1694   15.1954   40.3583 C   0  0  0  0  0  0  0  0  0  0  0  0
    4.2435   14.0979   41.2035 C   0  0  0  0  0  0  0  0  0  0  0  0
    3.5436   14.1000   42.4132 N   0  0  0  0  0  0  0  0  0  0  0  0
    2.7710   15.2145   42.7736 C   0  0  0  0  0  0  0  0  0  0  0  0
    2.6973   16.3184   41.9262 C   0  0  0  0  0  0  0  0  0  0  0  0
    1.9283   17.4288   42.2893 C   0  0  0  0  0  0  0  0  0  0  0  0
    1.9801   18.5658   41.5816 N   0  0  0  0  0  0  0  0  0  0  0  0
    1.1221   17.3605   43.3534 N   0  0  0  0  0  0  0  0  0  0  0  0
    0.3743   18.4100   43.7384 C   0  0  0  0  0  0  0  0  0  0  0  0
   -0.4790   18.5803   44.7597 N   0  0  0  0  0  0  0  0  0  0  0  0
   -0.8246   17.5756   45.7697 C   0  0  0  0  0  0  0  0  0  0  0  0
   -0.9579   19.7149   44.7388 N   0  0  0  0  0  0  0  0  0  0  0  0
   -0.4556   20.3436   43.6634 C   0  0  0  0  0  0  0  0  0  0  0  0
    0.4103   19.5373   43.0349 C   0  0  0  0  0  0  0  0  0  0  0  0
    1.2208   19.6163   41.9439 C   0  0  0  0  0  0  0  0  0  0  0  0
    1.2850   20.7511   41.2059 N   0  0  0  0  0  0  0  0  0  0  0  0
    3.3443   17.1690   40.0447 H   0  0  0  0  0  0  0  0  0  0  0  0
    4.7175   15.1936   39.4046 H   0  0  0  0  0  0  0  0  0  0  0  0
    4.8529   13.2265   40.9218 H   0  0  0  0  0  0  0  0  0  0  0  0
    2.2224   15.2169   43.7270 H   0  0  0  0  0  0  0  0  0  0  0  0
   -0.6915   18.0043   46.7740 H   0  0  0  0  0  0  0  0  0  0  0  0
   -1.8727   17.2687   45.6380 H   0  0  0  0  0  0  0  0  0  0  0  0
   -0.1690   16.6998   45.6551 H   0  0  0  0  0  0  0  0  0  0  0  0
   -0.7155   21.3646   43.3470 H   0  0  0  0  0  0  0  0  0  0  0  0
    0.7125   21.5671   41.4652 H   0  0  0  0  0  0  0  0  0  0  0  0
    1.9062   20.7975   40.3856 H   0  0  0  0  0  0  0  0  0  0  0  0
  1  2  2  0
  1  6  1  0
  2  3  1  0
  3  4  2  0
  4  5  1  0
  5  6  2  0
  6  7  1  0
  7  8  2  0
  7  9  1  0
  8 16  1  0
  9 10  2  0
 10 11  1  0
 10 15  1  0
 11 12  1  0
 11 13  1  0
 13 14  2  0
 14 15  1  0
 15 16  2  0
 16 17  1  0
  1 18  1  0
  2 19  1  0
  3 20  1  0
  5 21  1  0
 12 22  1  0
 12 23  1  0
 12 24  1  0
 14 25  1  0
 17 26  1  0
 17 27  1  0
M  END
>  <mol_id>  (5) 
2026-09-18-6fnk-s0-n100-r3-0005

>  <rmsd_to_ref>  (5) 
0.6377551020484516

>  <pose_kind>  (5) 
rigid

$$$$
6fnk.A
     RDKit          3D

 27 29  0  0  0  0  0  0  0  0999 V2000
    3.1810   16.4281   40.4505 C   0  0  0  0  0  0  0  0  0  0  0  0
    3.6609   15.3146   39.7642 C   0  0  0  0  0  0  0  0  0  0  0  0
    3.2880   14.0519   40.2099 C   0  0  0  0  0  0  0  0  0  0  0  0
    2.4932   13.8611   41.2627 N   0  0  0  0  0  0  0  0  0  0  0  0
    2.0152   14.9342   41.9449 C   0  0  0  0  0  0  0  0  0  0  0  0
    2.3481   16.2189   41.5534 C   0  0  0  0  0  0  0  0  0  0  0  0
    1.8588   17.4073   42.2554 C   0  0  0  0  0  0  0  0  0  0  0  0
    2.1903   18.6582   41.8647 N   0  0  0  0  0  0  0  0  0  0  0  0
    1.0453   17.2312   43.3339 N   0  0  0  0  0  0  0  0  0  0  0  0
    0.5630   18.2831   44.0210 C   0  0  0  0  0  0  0  0  0  0  0  0
   -0.2318   18.4665   45.0892 N   0  0  0  0  0  0  0  0  0  0  0  0
   -0.8345   17.3819   45.8489 C   0  0  0  0  0  0  0  0  0  0  0  0
   -0.3753   19.7632   45.3342 N   0  0  0  0  0  0  0  0  0  0  0  0
    0.3226   20.4720   44.4320 C   0  0  0  0  0  0  0  0  0  0  0  0
    0.9226   19.5575   43.5936 C   0  0  0  0  0  0  0  0  0  0  0  0
    1.7436   19.7528   42.5059 C   0  0  0  0  0  0  0  0  0  0  0  0
    2.1349   21.0369   42.0366 N   0  0  0  0  0  0  0  0  0  0  0  0
    3.4541   17.4293   40.1273 H   0  0  0  0  0  0  0  0  0  0  0  0
    4.3051   15.4677   38.9107 H   0  0  0  0  0  0  0  0  0  0  0  0
    3.6589   13.1926   39.6794 H   0  0  0  0  0  0  0  0  0  0  0  0
    1.3588   14.7902   42.8150 H   0  0  0  0  0  0  0  0  0  0  0  0
   -1.5837   16.8590   45.2178 H   0  0  0  0  0  0  0  0  0  0  0  0
   -0.0317   16.6672   46.1580 H   0  0  0  0  0  0  0  0  0  0  0  0
   -1.3218   17.8129   46.7657 H   0  0  0  0  0  0  0  0  0  0  0  0
    0.4116   21.5658   44.3584 H   0  0  0  0  0  0  0  0  0  0  0  0
    1.7827   21.4005   41.1292 H   0  0  0  0  0  0  0  0  0  0  0  0
    2.7791   21.6623   42.5671 H   0  0  0  0  0  0  0  0  0  0  0  0
  1  2  2  0
  1  6  1  0
  2  3  1  0
  3  4  2  0
  4  5  1  0
  5  6  2  0
  6  7  1  0
  7  8  2  0
  7  9  1  0
  8 16  1  0
  9 10  2  0
 10 11  1  0
 10 15  1  0
 11 12  1  0
 11 13  1  0
 13 14  2  0
 14 15  1  0
 15 16  2  0
 16 17  1  0
  1 18  1  0
  2 19  1  0
  3 20  1  0
  5 21  1  0
 12 22  1  0
 12 23  1  0
 12 24  1  0
 14 25  1  0
 17 26  1  0
 17 27  1  0
M  END
>  <mol_id>  (6) 
2026-09-18-6fnk-s0-n100-r3-0006

>  <rmsd_to_ref>  (6) 
0.6836734693908735

>  <pose_kind>  (6) 
conformer

$$$$
6fnk.A
     RDKit          3D

 27 29  0  0  0  0  0  0  0  0999 V2000
    2.6895   16.3797   40.3508 C   0  0  0  0  0  0  0  0  0  0  0  0
    3.1384   15.2550   39.6584 C   0  0  0  0  0  0  0  0  0  0  0  0
    3.0671   14.0027   40.2508 C   0  0  0  0  0  0  0  0  0  0  0  0
    2.5423   13.8689   41.5392 N   0  0  0  0  0  0  0  0  0  0  0  0
    2.0930   15.0023   42.2338 C   0  0  0  0  0  0  0  0  0  0  0  0
    2.1658   16.2612   41.6404 C   0  0  0  0  0  0  0  0  0  0  0  0
    1.7194   17.3893   42.3361 C   0  0  0  0  0  0  0  0  0  0  0  0
    1.9383   18.6239   41.8628 N   0  0  0  0  0  0  0  0  0  0  0  0
    1.0578   17.2417   43.4883 N   0  0  0  0  0  0  0  0  0  0  0  0
    0.6207   18.3026   44.1899 C   0  0  0  0  0  0  0  0  0  0  0  0
   -0.0377   18.4016   45.3548 N   0  0  0  0  0  0  0  0  0  0  0  0
   -0.4729   17.2825   46.1957 C   0  0  0  0  0  0  0  0  0  0  0  0
   -0.2463   19.5828   45.6348 N   0  0  0  0  0  0  0  0  0  0  0  0
    0.2471   20.3271   44.6315 C   0  0  0  0  0  0  0  0  0  0  0  0
    0.8229   19.5302   43.7214 C   0  0  0  0  0  0  0  0  0  0  0  0
    1.4876   19.6932   42.5446 C   0  0  0  0  0  0  0  0  0  0  0  0
    1.7142   20.9301   42.0394 N   0  0  0  0  0  0  0  0  0  0  0  0
    2.7486   17.3704   39.8763 H   0  0  0  0  0  0  0  0  0  0  0  0
    3.5485   15.3610   38.6432 H   0  0  0  0  0  0  0  0  0  0  0  0
    3.4235   13.1154   39.7069 H   0  0  0  0  0  0  0  0  0  0  0  0
    1.6824   14.8969   43.2489 H   0  0  0  0  0  0  0  0  0  0  0  0
   -0.1221   17.4403   47.2263 H   0  0  0  0  0  0  0  0  0  0  0  0
   -1.5712   17.2230   46.1874 H   0  0  0  0  0  0  0  0  0  0  0  0
   -0.0519   16.3446   45.8046 H   0  0  0  0  0  0  0  0  0  0  0  0
    0.1875   21.4236   44.5669 H   0  0  0  0  0  0  0  0  0  0  0  0
    1.3781   21.7623   42.5447 H   0  0  0  0  0  0  0  0  0  0  0  0
    2.2226   21.0380   41.1501 H   0  0  0  0  0  0  0  0  0  0  0  0
  1  2  2  0
  1  6  1  0
  2  3  1  0
  3  4  2  0
  4  5  1  0
  5  6  2  0
  6  7  1  0
  7  8  2  0
  7  9  1  0
  8 16  1  0
  9 10  2  0
 10 11  1  0
 10 15  1  0
 11 12  1  0
 11 13  1  0
 13 14  2  0
 14 15  1  0
 15 16  2  0
 16 17  1  0
  1 18  1  0
  2 19  1  0
  3 20  1  0
  5 21  1  0
 12 22  1  0
 12 23  1  0
 12 24  1  0
 14 25  1  0
 17 26  1  0
 17 27  1  0
M  END
>  <mol_id>  (7) 
2026-09-18-6fnk-s0-n100-r3-0007

>  <rmsd_to_ref>  (7) 
0.729591836737602

>  <pose_kind>  (7) 
rigid

$$$$
6fnk.A
     RDKit          3D

 27 29  0  0  0  0  0  0  0  0999 V2000
    3.6014   15.8405   41.2579 C   0  0  0  0  0  0  0  0  0  0  0  0
    4.2093   14.6029   41.1482 C   0  0  0  0  0  0  0  0  0  0  0  0
    3.7382   13.5781   41.9439 C   0  0  0  0  0  0  0  0  0  0  0  0
    2.7122   13.7675   42.8095 N   0  0  0  0  0  0  0  0  0  0  0  0
    2.1225   14.9725   42.9144 C   0  0  0  0  0  0  0  0  0  0  0  0
    2.5535   16.0416   42.1393 C   0  0  0  0  0  0  0  0  0  0  0  0
    1.9273   17.3552   42.2385 C   0  0  0  0  0  0  0  0  0  0  0  0
    2.3402   18.3938   41.4907 N   0  0  0  0  0  0  0  0  0  0  0  0
    0.9112   17.5288   43.1008 N   0  0  0  0  0  0  0  0  0  0  0  0
    0.2894   18.7232   43.2388 C   0  0  0  0  0  0  0  0  0  0  0  0
   -0.7227   19.1943   43.9909 N   0  0  0  0  0  0  0  0  0  0  0  0
   -1.4847   18.4283   44.9587 C   0  0  0  0  0  0  0  0  0  0  0  0
   -0.9278   20.4745   43.7189 N   0  0  0  0  0  0  0  0  0  0  0  0
   -0.0470   20.8852   42.7704 C   0  0  0  0  0  0  0  0  0  0  0  0
    0.7350   19.7872   42.4522 C   0  0  0  0  0  0  0  0  0  0  0  0
    1.7765   19.6225   41.5635 C   0  0  0  0  0  0  0  0  0  0  0  0
    2.2506   20.6890   40.7502 N   0  0  0  0  0  0  0  0  0  0  0  0
    3.9775   16.6523   40.6249 H   0  0  0  0  0  0  0  0  0  0  0  0
    5.0374   14.4183   40.4608 H   0  0  0  0  0  0  0  0  0  0  0  0
    4.2344   12.6202   41.8356 H   0  0  0  0  0  0  0  0  0  0  0  0
    1.2992   15.0885   43.6220 H   0  0  0  0  0  0  0  0  0  0  0  0
   -2.5335   18.3751   44.5779 H   0  0  0  0  0  0  0  0  0  0  0  0
   -1.0212   17.4513   45.1051 H   0  0  0  0  0  0  0  0  0  0  0  0
   -1.5824   18.9793   45.9377 H   0  0  0  0  0  0  0  0  0  0  0  0
    0.0268   21.8930   42.3423 H   0  0  0  0  0  0  0  0  0  0  0  0
    2.6541   20.4268   39.8242 H   0  0  0  0  0  0  0  0  0  0  0  0
    2.1826   21.6708   41.0934 H   0  0  0  0  0  0  0  0  0  0  0  0
  1  2  2  0
  1  6  1  0
  2  3  1  0
  3  4  2  0
  4  5  1  0
  5  6  2  0
  6  7  1  0
  7  8  2  0
  7  9  1  0
  8 16  1  0
  9 10  2  0
 10 11  1  0
 10 15  1  0
 11 12  1  0
 11 13  1  0
 13 14  2  0
 14 15  1  0
 15 16  2  0
 16 17  1  0
  1 18  1  0
  2 19  1  0
  3 20  1  0
  5 21  1  0
 12 22  1  0
 12 23  1  0
 12 24  1  0
 14 25  1  0
 17 26  1  0
 17 27  1  0
M  END
>  <mol_id>  (8) 
2026-09-18-6fnk-s0-n100-r3-0008

>  <rmsd_to_ref>  (8) 
0.7755102040830264

>  <pose_kind>  (8) 
conformer

$$$$
6fnk.A
     RDKit          3D

 27 29  0  0  0  0  0  0  0  0999 V2000
    3.4787   16.6691   40.9733 C   0  0  0  0  0  0  0  0  0  0  0  0
    4.3132   15.6225   40.5808 C   0  0  0  0  0  0  0  0  0  0  0  0
    4.4423   14.5002   41.3859 C   0  0  0  0  0  0  0  0  0  0  0  0
    3.7332   14.4179   42.5875 N   0  0  0  0  0  0  0  0  0  0  0  0
    2.8958   15.4730   42.9804 C   0  0  0  0  0  0  0  0  0  0  0  0
    2.7668   16.6018   42.1734 C   0  0  0  0  0  0  0  0  0  0  0  0
    1.9331   17.6529   42.5688 C   0  0  0  0  0  0  0  0  0  0  0  0
    1.9263   18.8164   41.9039 N   0  0  0  0  0  0  0  0  0  0  0  0
    1.1232   17.4997   43.6213 N   0  0  0  0  0  0  0  0  0  0  0  0
    0.3140   18.4904   44.0367 C   0  0  0  0  0  0  0  0  0  0  0  0
   -0.5561   18.5743   45.0546 N   0  0  0  0  0  0  0  0  0  0  0  0
   -0.8527   17.5148   46.0234 C   0  0  0  0  0  0  0  0  0  0  0  0
   -1.0983   19.6802   45.0703 N   0  0  0  0  0  0  0  0  0  0  0  0
   -0.6234   20.3757   44.0239 C   0  0  0  0  0  0  0  0  0  0  0  0
    0.2920   19.6434   43.3753 C   0  0  0  0  0  0  0  0  0  0  0  0
    1.1058   19.8084   42.2965 C   0  0  0  0  0  0  0  0  0  0  0  0
    1.1118   20.9716   41.6013 N   0  0  0  0  0  0  0  0  0  0  0  0
    3.3803   17.5568   40.3312 H   0  0  0  0  0  0  0  0  0  0  0  0
    4.8685   15.6870   39.6335 H   0  0  0  0  0  0  0  0  0  0  0  0
    5.1023   13.6755   41.0788 H   0  0  0  0  0  0  0  0  0  0  0  0
    2.3400   15.4090   43.9275 H   0  0  0  0  0  0  0  0  0  0  0  0
   -0.7525   17.9127   47.0440 H   0  0  0  0  0  0  0  0  0  0  0  0
   -1.8806   17.1545   45.8696 H   0  0  0  0  0  0  0  0  0  0  0  0
   -0.1475   16.6822   45.8836 H   0  0  0  0  0  0  0  0  0  0  0  0
   -0.9380   21.3915   43.7425 H   0  0  0  0  0  0  0  0  0  0  0  0
    0.4918   21.7439   41.8844 H   0  0  0  0  0  0  0  0  0  0  0  0
    1.7362   21.0834   40.7899 H   0  0  0  0  0  0  0  0  0  0  0  0
  1  2  2  0
  1  6  1  0
  2  3  1  0
  3  4  2  0
  4  5  1  0
  5  6  2  0
  6  7  1  0
  7  8  2  0
  7  9  1  0
  8 16  1  0
  9 10  2  0
 10 11  1  0
 10 15  1  0
 11 12  1  0
 11 13  1  0
 13 14  2  0
 14 15  1  0
 15 16  2  0
 16 17  1  0
  1 18  1  0
  2 19  1  0
  3 20  1  0
  5 21  1  0
 12 22  1  0
 12 23  1  0
 12 24  1  0
 14 25  1  0
 17 26  1  0
 17 27  1  0
M  END
>  <mol_id>  (9) 
2026-09-18-6fnk-s0-n100-r3-0009

>  <rmsd_to_ref>  (9) 
0.8214285714294437

>  <pose_kind>  (9) 
rigid

$$$$
6fnk.A
     RDKit          3D

 27 29  0  0  0  0  0  0  0  0999 V2000
    2.8853   15.4869   41.1323 C   0  0  0  0  0  0  0  0  0  0  0  0
    3.5579   14.2801   41.0598 C   0  0  0  0  0  0  0  0  0  0  0  0
    3.6230   13.4285   42.1581 C   0  0  0  0  0  0  0  0  0  0  0  0
    3.0345   13.7470   43.3313 N   0  0  0  0  0  0  0  0  0  0  0  0
    2.3753   14.9168   43.4219 C   0  0  0  0  0  0  0  0  0  0  0  0
    2.2835   15.7995   42.3515 C   0  0  0  0  0  0  0  0  0  0  0  0
    1.5541   17.0776   42.4765 C   0  0  0  0  0  0  0  0  0  0  0  0
    1.4802   17.9147   41.4246 N   0  0  0  0  0  0  0  0  0  0  0  0
    0.9820   17.3569   43.6624 N   0  0  0  0  0  0  0  0  0  0  0  0
    0.3120   18.5170   43.7982 C   0  0  0  0  0  0  0  0  0  0  0  0
   -0.3537   19.0558   44.8564 N   0  0  0  0  0  0  0  0  0  0  0  0
   -0.4883   18.4278   46.1791 C   0  0  0  0  0  0  0  0  0  0  0  0
   -0.8436   20.2230   44.4759 N   0  0  0  0  0  0  0  0  0  0  0  0
   -0.5262   20.4799   43.1983 C   0  0  0  0  0  0  0  0  0  0  0  0
    0.2101   19.4040   42.7498 C   0  0  0  0  0  0  0  0  0  0  0  0
    0.8123   19.0756   41.5534 C   0  0  0  0  0  0  0  0  0  0  0  0
    0.7285   19.9605   40.4574 N   0  0  0  0  0  0  0  0  0  0  0  0
    2.8266   16.1588   40.2864 H   0  0  0  0  0  0  0  0  0  0  0  0
    4.0417   13.9997   40.1232 H   0  0  0  0  0  0  0  0  0  0  0  0
    4.1710   12.5093   42.0025 H   0  0  0  0  0  0  0  0  0  0  0  0
    1.9044   15.1574   44.3820 H   0  0  0  0  0  0  0  0  0  0  0  0
   -1.2974   17.6708   46.1214 H   0  0  0  0  0  0  0  0  0  0  0  0
    0.4486   17.8296   46.3584 H   0  0  0  0  0  0  0  0  0  0  0  0
   -0.6224   19.1864   46.9662 H   0  0  0  0  0  0  0  0  0  0  0  0
   -0.7755   21.3537   42.5838 H   0  0  0  0  0  0  0  0  0  0  0  0
    1.5693   20.3182   39.9570 H   0  0  0  0  0  0  0  0  0  0  0  0
   -0.2114   20.2791   40.1225 H   0  0  0  0  0  0  0  0  0  0  0  0
  1  2  2  0
  1  6  1  0
  2  3  1  0
  3  4  2  0
  4  5  1  0
  5  6  2  0
  6  7  1  0
  7  8  2  0
  7  9  1  0
  8 16  1  0
  9 10  2  0
 10 11  1  0
 10 15  1  0
 11 12  1  0
 11 13  1  0
 13 14  2  0
 14 15  1  0
 15 16  2  0
 16 17  1  0
  1 18  1  0
  2 19  1  0
  3 20  1  0
  5 21  1  0
 12 22  1  0
 12 23  1  0
 12 24  1  0
 14 25  1  0
 17 26  1  0
 17 27  1  0
M  END
>  <mol_id>  (10) 
2026-09-18-6fnk-s0-n100-r3-0010

>  <rmsd_to_ref>  (10) 
0.8673469387755576

>  <pose_kind>  (10) 
conformer

$$$$
6fnk.A
     RDKit          3D

 27 29  0  0  0  0  0  0  0  0999 V2000
    2.5645   15.6225   41.0704 C   0  0  0  0  0  0  0  0  0  0  0  0
    3.1277   14.3463   41.0658 C   0  0  0  0  0  0  0  0  0  0  0  0
    3.0994   13.5725   42.2168 C   0  0  0  0  0  0  0  0  0  0  0  0
    2.5034   14.0710   43.3785 N   0  0  0  0  0  0  0  0  0  0  0  0
    1.9391   15.3557   43.3805 C   0  0  0  0  0  0  0  0  0  0  0  0
    1.9686   16.1348   42.2254 C   0  0  0  0  0  0  0  0  0  0  0  0
    1.4074   17.4158   42.2311 C   0  0  0  0  0  0  0  0  0  0  0  0
    1.5763   18.2483   41.1945 N   0  0  0  0  0  0  0  0  0  0  0  0
    0.6847   17.8209   43.2803 N   0  0  0  0  0  0  0  0  0  0  0  0
    0.1368   19.0483   43.3259 C   0  0  0  0  0  0  0  0  0  0  0  0
   -0.5994   19.6709   44.2590 N   0  0  0  0  0  0  0  0  0  0  0  0
   -1.0144   19.1061   45.5465 C   0  0  0  0  0  0  0  0  0  0  0  0
   -0.9006   20.8056   43.8863 N   0  0  0  0  0  0  0  0  0  0  0  0
   -0.3932   20.9720   42.6538 C   0  0  0  0  0  0  0  0  0  0  0  0
    0.2891   19.8757   42.2966 C   0  0  0  0  0  0  0  0  0  0  0  0
    1.0155   19.4716   41.2185 C   0  0  0  0  0  0  0  0  0  0  0  0
    1.1940   20.2904   40.1536 N   0  0  0  0  0  0  0  0  0  0  0  0
    2.5899   16.2319   40.1550 H   0  0  0  0  0  0  0  0  0  0  0  0
    3.5939   13.9538   40.1501 H   0  0  0  0  0  0  0  0  0  0  0  0
    3.5458   12.5672   42.2152 H   0  0  0  0  0  0  0  0  0  0  0  0
    1.4724   15.7488   44.2958 H   0  0  0  0  0  0  0  0  0  0  0  0
   -0.7407   19.7987   46.3560 H   0  0  0  0  0  0  0  0  0  0  0  0
   -2.1039   18.9546   45.5463 H   0  0  0  0  0  0  0  0  0  0  0  0
   -0.5101   18.1412   45.7033 H   0  0  0  0  0  0  0  0  0  0  0  0
   -0.5188   21.8710   42.0326 H   0  0  0  0  0  0  0  0  0  0  0  0
    0.7737   21.2308   40.1509 H   0  0  0  0  0  0  0  0  0  0  0  0
    1.7499   19.9725   39.3469 H   0  0  0  0  0  0  0  0  0  0  0  0
  1  2  2  0
  1  6  1  0
  2  3  1  0
  3  4  2  0
  4  5  1  0
  5  6  2  0
  6  7  1  0
  7  8  2  0
  7  9  1  0
  8 16  1  0
  9 10  2  0
 10 11  1  0
 10 15  1  0
 11 12  1  0
 11 13  1  0
 13 14  2  0
 14 15  1  0
 15 16  2  0
 16 17  1  0
  1 18  1  0
  2 19  1  0
  3 20  1  0
  5 21  1  0
 12 22  1  0
 12 23  1  0
 12 24  1  0
 14 25  1  0
 17 26  1  0
 17 27  1  0
M  END
>  <mol_id>  (11) 
2026-09-18-6fnk-s0-n100-r3-0011

>  <rmsd_to_ref>  (11) 
0.9132653061281292

>  <pose_kind>  (11) 
rigid

$$$$
6fnk.A
     RDKit          3D

 27 29  0  0  0  0  0  0  0  0999 V2000
    3.5823   16.2203   40.9313 C   0  0  0  0  0  0  0  0  0  0  0  0
    3.9967   14.9493   40.5201 C   0  0  0  0  0  0  0  0  0  0  0  0
    3.1485   13.8718   40.7945 C   0  0  0  0  0  0  0  0  0  0  0  0
    1.9685   14.0536   41.4356 N   0  0  0  0  0  0  0  0  0  0  0  0
    1.5808   15.2878   41.8272 C   0  0  0  0  0  0  0  0  0  0  0  0
    2.3811   16.4076   41.5842 C   0  0  0  0  0  0  0  0  0  0  0  0
    1.9715   17.7425   42.0028 C   0  0  0  0  0  0  0  0  0  0  0  0
    2.7123   18.8448   41.7879 N   0  0  0  0  0  0  0  0  0  0  0  0
    0.7915   17.8718   42.6357 N   0  0  0  0  0  0  0  0  0  0  0  0
    0.3074   19.0580   43.0701 C   0  0  0  0  0  0  0  0  0  0  0  0
   -0.7919   19.4706   43.7048 N   0  0  0  0  0  0  0  0  0  0  0  0
   -1.8580   18.5728   44.1202 C   0  0  0  0  0  0  0  0  0  0  0  0
   -0.7624   20.7884   43.8926 N   0  0  0  0  0  0  0  0  0  0  0  0
    0.3993   21.2433   43.3593 C   0  0  0  0  0  0  0  0  0  0  0  0
    1.0903   20.1633   42.8338 C   0  0  0  0  0  0  0  0  0  0  0  0
    2.3065   20.0683   42.1873 C   0  0  0  0  0  0  0  0  0  0  0  0
    3.1294   21.2013   41.9345 N   0  0  0  0  0  0  0  0  0  0  0  0
    4.2656   17.0399   40.7027 H   0  0  0  0  0  0  0  0  0  0  0  0
    4.9401   14.8243   40.0108 H   0  0  0  0  0  0  0  0  0  0  0  0
    3.4796   12.8803   40.4697 H   0  0  0  0  0  0  0  0  0  0  0  0
    0.6367   15.4668   42.3453 H   0  0  0  0  0  0  0  0  0  0  0  0
   -2.6454   18.5219   43.3413 H   0  0  0  0  0  0  0  0  0  0  0  0
   -2.3162   18.9456   45.0817 H   0  0  0  0  0  0  0  0  0  0  0  0
   -1.4872   17.5479   44.3313 H   0  0  0  0  0  0  0  0  0  0  0  0
    0.7574   22.2508   43.3286 H   0  0  0  0  0  0  0  0  0  0  0  0
    3.5890   21.2406   41.0007 H   0  0  0  0  0  0  0  0  0  0  0  0
    3.2656   21.9425   42.6321 H   0  0  0  0  0  0  0  0  0  0  0  0
  1  2  2  0
  1  6  1  0
  2  3  1  0
  3  4  2  0
  4  5  1  0
  5  6  2  0
  6  7  1  0
  7  8  2  0
  7  9  1  0
  8 16  1  0
  9 10  2  0
 10 11  1  0
 10 15  1  0
 11 12  1  0
 11 13  1  0
 13 14  2  0
 14 15  1  0
 15 16  2  0
 16 17  1  0
  1 18  1  0
  2 19  1  0
  3 20  1  0
  5 21  1  0
 12 22  1  0
 12 23  1  0
 12 24  1  0
 14 25  1  0
 17 26  1  0
 17 27  1  0
M  END
>  <mol_id>  (12) 
2026-09-18-6fnk-s0-n100-r3-0012

>  <rmsd_to_ref>  (12) 
0.9591836734710393

>  <pose_kind>  (12) 
conformer

$$$$
6fnk.A
     RDKit          3D

 27 29  0  0  0  0  0  0  0  0999 V2000
    2.4405   15.2796   41.0255 C   0  0  0  0  0  0  0  0  0  0  0  0
    2.5833   13.9033   40.8487 C   0  0  0  0  0  0  0  0  0  0  0  0
    2.2770   13.0360   41.8872 C   0  0  0  0  0  0  0  0  0  0  0  0
    1.8222   13.5421   43.1080 N   0  0  0  0  0  0  0  0  0  0  0  0
    1.6812   14.9271   43.2834 C   0  0  0  0  0  0  0  0  0  0  0  0
    1.9904   15.7995   42.2415 C   0  0  0  0  0  0  0  0  0  0  0  0
    1.8510   17.1796   42.4200 C   0  0  0  0  0  0  0  0  0  0  0  0
    2.3050   18.0439   41.5019 N   0  0  0  0  0  0  0  0  0  0  0  0
    1.2511   17.6512   43.5177 N   0  0  0  0  0  0  0  0  0  0  0  0
    1.1065   18.9716   43.7285 C   0  0  0  0  0  0  0  0  0  0  0  0
    0.5648   19.6672   44.7400 N   0  0  0  0  0  0  0  0  0  0  0  0
   -0.0497   19.0993   45.9437 C   0  0  0  0  0  0  0  0  0  0  0  0
    0.6411   20.8772   44.5226 N   0  0  0  0  0  0  0  0  0  0  0  0
    1.2188   21.0341   43.3202 C   0  0  0  0  0  0  0  0  0  0  0  0
    1.5428   19.8354   42.8171 C   0  0  0  0  0  0  0  0  0  0  0  0
    2.1476   19.3672   41.6909 C   0  0  0  0  0  0  0  0  0  0  0  0
    2.6074   20.2193   40.7429 N   0  0  0  0  0  0  0  0  0  0  0  0
    2.6851   15.9628   40.1987 H   0  0  0  0  0  0  0  0  0  0  0  0
    2.9384   13.5059   39.8865 H   0  0  0  0  0  0  0  0  0  0  0  0
    2.3920   11.9507   41.7499 H   0  0  0  0  0  0  0  0  0  0  0  0
    1.3258   15.3252   44.2453 H   0  0  0  0  0  0  0  0  0  0  0  0
    0.3949   19.5637   46.8363 H   0  0  0  0  0  0  0  0  0  0  0  0
   -1.1322   19.2942   45.9295 H   0  0  0  0  0  0  0  0  0  0  0  0
    0.1271   18.0139   45.9684 H   0  0  0  0  0  0  0  0  0  0  0  0
    1.3984   21.9994   42.8243 H   0  0  0  0  0  0  0  0  0  0  0  0
    2.4975   21.2359   40.8671 H   0  0  0  0  0  0  0  0  0  0  0  0
    3.0669   19.8505   39.8980 H   0  0  0  0  0  0  0  0  0  0  0  0
  1  2  2  0
  1  6  1  0
  2  3  1  0
  3  4  2  0
  4  5  1  0
  5  6  2  0
  6  7  1  0
  7  8  2  0
  7  9  1  0
  8 16  1  0
  9 10  2  0
 10 11  1  0
 10 15  1  0
 11 12  1  0
 11 13  1  0
 13 14  2  0
 14 15  1  0
 15 16  2  0
 16 17  1  0
  1 18  1  0
  2 19  1  0
  3 20  1  0
  5 21  1  0
 12 22  1  0
 12 23  1  0
 12 24  1  0
 14 25  1  0
 17 26  1  0
 17 27  1  0
M  END
>  <mol_id>  (13) 
2026-09-18-6fnk-s0-n100-r3-0013

>  <rmsd_to_ref>  (13) 
1.0051020408216502

>  <pose_kind>  (13) 
rigid

$$$$
6fnk.A
     RDKit          3D

 27 29  0  0  0  0  0  0  0  0999 V2000
    2.6463   17.0082   40.4448 C   0  0  0  0  0  0  0  0  0  0  0  0
    3.0226   15.9573   39.6390 C   0  0  0  0  0  0  0  0  0  0  0  0
    2.5796   14.6862   39.9348 C   0  0  0  0  0  0  0  0  0  0  0  0
    1.7783   14.4282   41.0012 N   0  0  0  0  0  0  0  0  0  0  0  0
    1.4042   15.4682   41.8011 C   0  0  0  0  0  0  0  0  0  0  0  0
    1.8362   16.7680   41.5282 C   0  0  0  0  0  0  0  0  0  0  0  0
    1.4301   17.8758   42.3910 C   0  0  0  0  0  0  0  0  0  0  0  0
    1.8315   19.1353   42.1511 N   0  0  0  0  0  0  0  0  0  0  0  0
    0.6282   17.6148   43.4576 N   0  0  0  0  0  0  0  0  0  0  0  0
    0.2315   18.6177   44.2798 C   0  0  0  0  0  0  0  0  0  0  0  0
   -0.5406   18.6441   45.3789 N   0  0  0  0  0  0  0  0  0  0  0  0
   -1.1509   17.4441   45.9298 C   0  0  0  0  0  0  0  0  0  0  0  0
   -0.6323   19.8983   45.8352 N   0  0  0  0  0  0  0  0  0  0  0  0
    0.0958   20.7027   45.0146 C   0  0  0  0  0  0  0  0  0  0  0  0
    0.6508   19.9086   44.0227 C   0  0  0  0  0  0  0  0  0  0  0  0
    1.4728   20.1725   42.9285 C   0  0  0  0  0  0  0  0  0  0  0  0
    1.9049   21.4999   42.6628 N   0  0  0  0  0  0  0  0  0  0  0  0
    3.0139   17.9934   40.1811 H   0  0  0  0  0  0  0  0  0  0  0  0
    3.6668   16.1301   38.7726 H   0  0  0  0  0  0  0  0  0  0  0  0
    2.8997   13.8934   39.2756 H   0  0  0  0  0  0  0  0  0  0  0  0
    0.7665   15.3200   42.6646 H   0  0  0  0  0  0  0  0  0  0  0  0
   -0.4284   16.6072   45.9136 H   0  0  0  0  0  0  0  0  0  0  0  0
   -1.9829   17.1445   45.2268 H   0  0  0  0  0  0  0  0  0  0  0  0
   -1.6346   17.6213   46.9036 H   0  0  0  0  0  0  0  0  0  0  0  0
    0.2400   21.7770   45.0902 H   0  0  0  0  0  0  0  0  0  0  0  0
    2.8792   21.8250   42.8484 H   0  0  0  0  0  0  0  0  0  0  0  0
    1.2532   22.2354   42.2586 H   0  0  0  0  0  0  0  0  0  0  0  0
  1  2  2  0
  1  6  1  0
  2  3  1  0
  3  4  2  0
  4  5  1  0
  5  6  2  0
  6  7  1  0
  7  8  2  0
  7  9  1  0
  8 16  1  0
  9 10  2  0
 10 11  1  0
 10 15  1  0
 11 12  1  0
 11 13  1  0
 13 14  2  0
 14 15  1  0
 15 16  2  0
 16 17  1  0
  1 18  1  0
  2 19  1  0
  3 20  1  0
  5 21  1  0
 12 22  1  0
 12 23  1  0
 12 24  1  0
 14 25  1  0
 17 26  1  0
 17 27  1  0
M  END
>  <mol_id>  (14) 
2026-09-18-6fnk-s0-n100-r3-0014

>  <rmsd_to_ref>  (14) 
1.0510204081680194

>  <pose_kind>  (14) 
conformer

$$$$
6fnk.A
     RDKit          3D

 27 29  0  0  0  0  0  0  0  0999 V2000
    2.0890   16.5044   39.8272 C   0  0  0  0  0  0  0  0  0  0  0  0
    2.5073   15.4348   39.0354 C   0  0  0  0  0  0  0  0  0  0  0  0
    2.6612   14.1757   39.5971 C   0  0  0  0  0  0  0  0  0  0  0  0
    2.3934   13.9796   40.9547 N   0  0  0  0  0  0  0  0  0  0  0  0
    1.9744   15.0577   41.7490 C   0  0  0  0  0  0  0  0  0  0  0  0
    1.8212   16.3235   41.1862 C   0  0  0  0  0  0  0  0  0  0  0  0
    1.4056   17.3967   41.9810 C   0  0  0  0  0  0  0  0  0  0  0  0
    1.4195   18.6511   41.5095 N   0  0  0  0  0  0  0  0  0  0  0  0
    0.9806   17.1750   43.2289 N   0  0  0  0  0  0  0  0  0  0  0  0
    0.5815   18.1821   44.0259 C   0  0  0  0  0  0  0  0  0  0  0  0
    0.1388   18.2060   45.2923 N   0  0  0  0  0  0  0  0  0  0  0  0
   -0.0308   17.0421   46.1673 C   0  0  0  0  0  0  0  0  0  0  0  0
   -0.1241   19.3589   45.6370 N   0  0  0  0  0  0  0  0  0  0  0  0
    0.1078   20.1569   44.5817 C   0  0  0  0  0  0  0  0  0  0  0  0
    0.5804   19.4279   43.5619 C   0  0  0  0  0  0  0  0  0  0  0  0
    1.0027   19.6655   42.2897 C   0  0  0  0  0  0  0  0  0  0  0  0
    1.0182   20.9232   41.7855 N   0  0  0  0  0  0  0  0  0  0  0  0
    1.9689   17.5007   39.3767 H   0  0  0  0  0  0  0  0  0  0  0  0
    2.7149   15.5896   37.9663 H   0  0  0  0  0  0  0  0  0  0  0  0
    2.9939   13.3322   38.9743 H   0  0  0  0  0  0  0  0  0  0  0  0
    1.7663   14.9035   42.8180 H   0  0  0  0  0  0  0  0  0  0  0  0
    0.4849   17.2228   47.1219 H   0  0  0  0  0  0  0  0  0  0  0  0
   -1.1021   16.8774   46.3547 H   0  0  0  0  0  0  0  0  0  0  0  0
    0.3975   16.1529   45.6817 H   0  0  0  0  0  0  0  0  0  0  0  0
   -0.0640   21.2432   44.5584 H   0  0  0  0  0  0  0  0  0  0  0  0
    0.7035   21.7143   42.3652 H   0  0  0  0  0  0  0  0  0  0  0  0
    1.3446   21.0881   40.8226 H   0  0  0  0  0  0  0  0  0  0  0  0
  1  2  2  0
  1  6  1  0
  2  3  1  0
  3  4  2  0
  4  5  1  0
  5  6  2  0
  6  7  1  0
  7  8  2  0
  7  9  1  0
  8 16  1  0
  9 10  2  0
 10 11  1  0
 10 15  1  0
 11 12  1  0
 11 13  1  0
 13 14  2  0
 14 15  1  0
 15 16  2  0
 16 17  1  0
  1 18  1  0
  2 19  1  0
  3 20  1  0
  5 21  1  0
 12 22  1  0
 12 23  1  0
 12 24  1  0
 14 25  1  0
 17 26  1  0
 17 27  1  0
M  END
>  <mol_id>  (15) 
2026-09-18-6fnk-s0-n100-r3-0015

>  <rmsd_to_ref>  (15) 
1.0969387755112345

>  <pose_kind>  (15) 
rigid

$$$$
6fnk.A
     RDKit          3D

 27 29  0  0  0  0  0  0  0  0999 V2000
    3.2785   16.6888   41.5031 C   0  0  0  0  0  0  0  0  0  0  0  0
    3.7650   15.5647   40.8419 C   0  0  0  0  0  0  0  0  0  0  0  0
    3.0347   14.3964   40.8899 C   0  0  0  0  0  0  0  0  0  0  0  0
    1.8662   14.3434   41.5673 N   0  0  0  0  0  0  0  0  0  0  0  0
    1.3849   15.4231   42.2107 C   0  0  0  0  0  0  0  0  0  0  0  0
    2.0768   16.6298   42.1983 C   0  0  0  0  0  0  0  0  0  0  0  0
    1.5765   17.8173   42.8886 C   0  0  0  0  0  0  0  0  0  0  0  0
    2.2303   18.9927   42.8885 N   0  0  0  0  0  0  0  0  0  0  0  0
    0.3982   17.7001   43.5507 N   0  0  0  0  0  0  0  0  0  0  0  0
   -0.1366   18.7238   44.2073 C   0  0  0  0  0  0  0  0  0  0  0  0
   -1.2941   18.8135   44.9254 N   0  0  0  0  0  0  0  0  0  0  0  0
   -2.2704   17.7595   45.1575 C   0  0  0  0  0  0  0  0  0  0  0  0
   -1.3572   20.0494   45.3717 N   0  0  0  0  0  0  0  0  0  0  0  0
   -0.2975   20.7832   44.9841 C   0  0  0  0  0  0  0  0  0  0  0  0
    0.4996   19.9444   44.2326 C   0  0  0  0  0  0  0  0  0  0  0  0
    1.6981   20.0548   43.5563 C   0  0  0  0  0  0  0  0  0  0  0  0
    2.3840   21.3015   43.5606 N   0  0  0  0  0  0  0  0  0  0  0  0
    3.8711   17.6112   41.4556 H   0  0  0  0  0  0  0  0  0  0  0  0
    4.6925   15.5707   40.2923 H   0  0  0  0  0  0  0  0  0  0  0  0
    3.4351   13.5195   40.3617 H   0  0  0  0  0  0  0  0  0  0  0  0
    0.4339   15.3509   42.7525 H   0  0  0  0  0  0  0  0  0  0  0  0
   -1.7939   16.8038   44.8335 H   0  0  0  0  0  0  0  0  0  0  0  0
   -3.2157   17.9295   44.6019 H   0  0  0  0  0  0  0  0  0  0  0  0
   -2.5492   17.7232   46.2471 H   0  0  0  0  0  0  0  0  0  0  0  0
   -0.0703   21.8260   45.1937 H   0  0  0  0  0  0  0  0  0  0  0  0
    2.1531   22.0453   42.8500 H   0  0  0  0  0  0  0  0  0  0  0  0
    3.1103   21.4890   44.2554 H   0  0  0  0  0  0  0  0  0  0  0  0
  1  2  2  0
  1  6  1  0
  2  3  1  0
  3  4  2  0
  4  5  1  0
  5  6  2  0
  6  7  1  0
  7  8  2  0
  7  9  1  0
  8 16  1  0
  9 10  2  0
 10 11  1  0
 10 15  1  0
 11 12  1  0
 11 13  1  0
 13 14  2  0
 14 15  1  0
 15 16  2  0
 16 17  1  0
  1 18  1  0
  2 19  1  0
  3 20  1  0
  5 21  1  0
 12 22  1  0
 12 23  1  0
 12 24  1  0
 14 25  1  0
 17 26  1  0
 17 27  1  0
M  END
>  <mol_id>  (16) 
2026-09-18-6fnk-s0-n100-r3-0016

>  <rmsd_to_ref>  (16) 
1.142857142859957

>  <pose_kind>  (16) 
conformer

$$$$
6fnk.A
     RDKit          3D

 27 29  0  0  0  0  0  0  0  0999 V2000
    3.7476   15.9590   41.8608 C   0  0  0  0  0  0  0  0  0  0  0  0
    4.2926   14.6791   41.9644 C   0  0  0  0  0  0  0  0  0  0  0  0
    3.7988   13.7902   42.9081 C   0  0  0  0  0  0  0  0  0  0  0  0
    2.7534   14.1769   43.7513 N   0  0  0  0  0  0  0  0  0  0  0  0
    2.2083   15.4655   43.6458 C   0  0  0  0  0  0  0  0  0  0  0  0
    2.7048   16.3600   42.6995 C   0  0  0  0  0  0  0  0  0  0  0  0
    2.1611   17.6446   42.5982 C   0  0  0  0  0  0  0  0  0  0  0  0
    2.7321   18.5770   41.8232 N   0  0  0  0  0  0  0  0  0  0  0  0
    1.0513   17.9526   43.2769 N   0  0  0  0  0  0  0  0  0  0  0  0
    0.5040   19.1794   43.2116 C   0  0  0  0  0  0  0  0  0  0  0  0
   -0.5745   19.7161   43.8024 N   0  0  0  0  0  0  0  0  0  0  0  0
   -1.4817   19.0287   44.7262 C   0  0  0  0  0  0  0  0  0  0  0  0
   -0.7186   20.8893   43.4561 N   0  0  0  0  0  0  0  0  0  0  0  0
    0.2592   21.1730   42.5801 C   0  0  0  0  0  0  0  0  0  0  0  0
    1.0570   20.1064   42.4357 C   0  0  0  0  0  0  0  0  0  0  0  0
    2.1824   19.8022   41.7327 C   0  0  0  0  0  0  0  0  0  0  0  0
    2.7745   20.7238   40.9348 N   0  0  0  0  0  0  0  0  0  0  0  0
    4.1431   16.6599   41.1109 H   0  0  0  0  0  0  0  0  0  0  0  0
    5.1133   14.3748   41.2983 H   0  0  0  0  0  0  0  0  0  0  0  0
    4.2298   12.7817   42.9927 H   0  0  0  0  0  0  0  0  0  0  0  0
    1.3874   15.7704   44.3115 H   0  0  0  0  0  0  0  0  0  0  0  0
   -1.5954   19.6275   45.6419 H   0  0  0  0  0  0  0  0  0  0  0  0
   -2.4639   18.9002   44.2479 H   0  0  0  0  0  0  0  0  0  0  0  0
   -1.0666   18.0427   44.9821 H   0  0  0  0  0  0  0  0  0  0  0  0
    0.3857   22.1343   42.0605 H   0  0  0  0  0  0  0  0  0  0  0  0
    2.3707   21.6677   40.8508 H   0  0  0  0  0  0  0  0  0  0  0  0
    3.6282   20.4805   40.4125 H   0  0  0  0  0  0  0  0  0  0  0  0
  1  2  2  0
  1  6  1  0
  2  3  1  0
  3  4  2  0
  4  5  1  0
  5  6  2  0
  6  7  1  0
  7  8  2  0
  7  9  1  0
  8 16  1  0
  9 10  2  0
 10 11  1  0
 10 15  1  0
 11 12  1  0
 11 13  1  0
 13 14  2  0
 14 15  1  0
 15 16  2  0
 16 17  1  0
  1 18  1  0
  2 19  1  0
  3 20  1  0
  5 21  1  0
 12 22  1  0
 12 23  1  0
 12 24  1  0
 14 25  1  0
 17 26  1  0
 17 27  1  0
M  END
>  <mol_id>  (17) 
2026-09-18-6fnk-s0-n100-r3-0017

>  <rmsd_to_ref>  (17) 
1.188775510207417

>  <pose_kind>  (17) 
rigid

$$$$
6fnk.A
     RDKit          3D

 27 29  0  0  0  0  0  0  0  0999 V2000
    2.2015   15.1368   42.2675 C   0  0  0  0  0  0  0  0  0  0  0  0
    2.9039   14.0930   41.6577 C   0  0  0  0  0  0  0  0  0  0  0  0
    3.7225   14.3251   40.5832 C   0  0  0  0  0  0  0  0  0  0  0  0
    3.8719   15.5717   40.0848 N   0  0  0  0  0  0  0  0  0  0  0  0
    3.1915   16.5835   40.6754 C   0  0  0  0  0  0  0  0  0  0  0  0
    2.3586   16.3878   41.7584 C   0  0  0  0  0  0  0  0  0  0  0  0
    1.6772   17.5659   42.3086 C   0  0  0  0  0  0  0  0  0  0  0  0
    1.8991   18.7614   41.7328 N   0  0  0  0  0  0  0  0  0  0  0  0
    0.8484   17.4998   43.3542 N   0  0  0  0  0  0  0  0  0  0  0  0
    0.2276   18.6072   43.8468 C   0  0  0  0  0  0  0  0  0  0  0  0
   -0.6258   18.8592   44.8431 N   0  0  0  0  0  0  0  0  0  0  0  0
   -1.1530   17.8447   45.7524 C   0  0  0  0  0  0  0  0  0  0  0  0
   -0.9158   20.1461   44.8799 N   0  0  0  0  0  0  0  0  0  0  0  0
   -0.2577   20.8063   43.8971 C   0  0  0  0  0  0  0  0  0  0  0  0
    0.4684   19.8267   43.2416 C   0  0  0  0  0  0  0  0  0  0  0  0
    1.3202   19.9034   42.1647 C   0  0  0  0  0  0  0  0  0  0  0  0
    1.6159   21.1285   41.4899 N   0  0  0  0  0  0  0  0  0  0  0  0
    1.5653   14.9686   43.0996 H   0  0  0  0  0  0  0  0  0  0  0  0
    2.8019   13.0796   42.0388 H   0  0  0  0  0  0  0  0  0  0  0  0
    4.2825   13.5397   40.0852 H   0  0  0  0  0  0  0  0  0  0  0  0
    3.3521   17.5672   40.2290 H   0  0  0  0  0  0  0  0  0  0  0  0
   -0.5644   17.7083   46.6593 H   0  0  0  0  0  0  0  0  0  0  0  0
   -2.2179   18.1295   45.9217 H   0  0  0  0  0  0  0  0  0  0  0  0
   -1.1857   16.8708   45.2215 H   0  0  0  0  0  0  0  0  0  0  0  0
   -0.2888   21.8660   43.6695 H   0  0  0  0  0  0  0  0  0  0  0  0
    0.8895   21.7057   41.0135 H   0  0  0  0  0  0  0  0  0  0  0  0
    2.6093   21.4749   41.4657 H   0  0  0  0  0  0  0  0  0  0  0  0
  1  2  2  0
  1  6  1  0
  2  3  1  0
  3  4  2  0
  4  5  1  0
  5  6  2  0
  6  7  1  0
  7  8  2  0
  7  9  1  0
  8 16  1  0
  9 10  2  0
 10 11  1  0
 10 15  1  0
 11 12  1  0
 11 13  1  0
 13 14  2  0
 14 15  1  0
 15 16  2  0
 16 17  1  0
  1 18  1  0
  2 19  1  0
  3 20  1  0
  5 21  1  0
 12 22  1  0
 12 23  1  0
 12 24  1  0
 14 25  1  0
 17 26  1  0
 17 27  1  0
M  END
>  <mol_id>  (18) 
2026-09-18-6fnk-s0-n100-r3-0018

>  <rmsd_to_ref>  (18) 
1.2346938775533254

>  <pose_kind>  (18) 
conformer

$$$$
6fnk.A
     RDKit          3D

 27 29  0  0  0  0  0  0  0  0999 V2000
    3.5455   17.2855   40.2652 C   0  0  0  0  0  0  0  0  0  0  0  0
    4.4914   16.4026   39.7439 C   0  0  0  0  0  0  0  0  0  0  0  0
    4.8295   15.2553   40.4467 C   0  0  0  0  0  0  0  0  0  0  0  0
    4.2192   14.9835   41.6742 N   0  0  0  0  0  0  0  0  0  0  0  0
    3.2692   15.8742   42.1968 C   0  0  0  0  0  0  0  0  0  0  0  0
    2.9301   17.0281   41.4926 C   0  0  0  0  0  0  0  0  0  0  0  0
    1.9846   17.9152   42.0171 C   0  0  0  0  0  0  0  0  0  0  0  0
    1.7707   19.1108   41.4506 N   0  0  0  0  0  0  0  0  0  0  0  0
    1.2749   17.5697   43.0960 N   0  0  0  0  0  0  0  0  0  0  0  0
    0.3632   18.3993   43.6341 C   0  0  0  0  0  0  0  0  0  0  0  0
   -0.4415   18.2814   44.7012 N   0  0  0  0  0  0  0  0  0  0  0  0
   -0.5221   17.1223   45.5951 C   0  0  0  0  0  0  0  0  0  0  0  0
   -1.1317   19.2926   44.8364 N   0  0  0  0  0  0  0  0  0  0  0  0
   -0.8288   20.1242   43.8260 C   0  0  0  0  0  0  0  0  0  0  0  0
    0.1361   19.5819   43.0711 C   0  0  0  0  0  0  0  0  0  0  0  0
    0.8462   19.9417   41.9667 C   0  0  0  0  0  0  0  0  0  0  0  0
    0.6430   21.1409   41.3694 N   0  0  0  0  0  0  0  0  0  0  0  0
    3.2813   18.1938   39.7038 H   0  0  0  0  0  0  0  0  0  0  0  0
    4.9689   16.6160   38.7762 H   0  0  0  0  0  0  0  0  0  0  0  0
    5.5774   14.5600   40.0380 H   0  0  0  0  0  0  0  0  0  0  0  0
    2.7911   15.6613   43.1643 H   0  0  0  0  0  0  0  0  0  0  0  0
   -0.4123   17.4551   46.6378 H   0  0  0  0  0  0  0  0  0  0  0  0
   -1.4969   16.6287   45.4684 H   0  0  0  0  0  0  0  0  0  0  0  0
    0.2825   16.4135   45.3498 H   0  0  0  0  0  0  0  0  0  0  0  0
   -1.3009   21.1012   43.6458 H   0  0  0  0  0  0  0  0  0  0  0  0
   -0.0595   21.7923   41.7477 H   0  0  0  0  0  0  0  0  0  0  0  0
    1.1911   21.4012   40.5371 H   0  0  0  0  0  0  0  0  0  0  0  0
  1  2  2  0
  1  6  1  0
  2  3  1  0
  3  4  2  0
  4  5  1  0
  5  6  2  0
  6  7  1  0
  7  8  2  0
  7  9  1  0
  8 16  1  0
  9 10  2  0
 10 11  1  0
 10 15  1  0
 11 12  1  0
 11 13  1  0
 13 14  2  0
 14 15  1  0
 15 16  2  0
 16 17  1  0
  1 18  1  0
  2 19  1  0
  3 20  1  0
  5 21  1  0
 12 22  1  0
 12 23  1  0
 12 24  1  0
 14 25  1  0
 17 26  1  0
 17 27  1  0
M  END
>  <mol_id>  (19) 
2026-09-18-6fnk-s0-n100-r3-0019

>  <rmsd_to_ref>  (19) 
1.2806122448983872

>  <pose_kind>  (19) 
rigid

$$$$
6fnk.A
     RDKit          3D

 27 29  0  0  0  0  0  0  0  0999 V2000
    3.5861   16.5932   41.9375 C   0  0  0  0  0  0  0  0  0  0  0  0
    4.4578   15.5212   41.9965 C   0  0  0  0  0  0  0  0  0  0  0  0
    4.1245   14.4884   42.8693 C   0  0  0  0  0  0  0  0  0  0  0  0
    3.0143   14.5128   43.6264 N   0  0  0  0  0  0  0  0  0  0  0  0
    2.1790   15.5648   43.5545 C   0  0  0  0  0  0  0  0  0  0  0  0
    2.4355   16.6363   42.7111 C   0  0  0  0  0  0  0  0  0  0  0  0
    1.5356   17.7669   42.6354 C   0  0  0  0  0  0  0  0  0  0  0  0
    1.7365   18.8255   41.8387 N   0  0  0  0  0  0  0  0  0  0  0  0
    0.4290   17.7741   43.4006 N   0  0  0  0  0  0  0  0  0  0  0  0
   -0.4783   18.7445   43.4294 C   0  0  0  0  0  0  0  0  0  0  0  0
   -1.6227   18.9424   44.1026 N   0  0  0  0  0  0  0  0  0  0  0  0
   -2.2126   18.0395   45.0733 C   0  0  0  0  0  0  0  0  0  0  0  0
   -2.1372   20.0980   43.7433 N   0  0  0  0  0  0  0  0  0  0  0  0
   -1.3447   20.7037   42.8162 C   0  0  0  0  0  0  0  0  0  0  0  0
   -0.2795   19.8375   42.6128 C   0  0  0  0  0  0  0  0  0  0  0  0
    0.8528   19.8563   41.8136 C   0  0  0  0  0  0  0  0  0  0  0  0
    1.0311   20.9909   40.9855 N   0  0  0  0  0  0  0  0  0  0  0  0
    3.8528   17.3907   41.2571 H   0  0  0  0  0  0  0  0  0  0  0  0
    5.3660   15.4664   41.3988 H   0  0  0  0  0  0  0  0  0  0  0  0
    4.8138   13.6377   42.9178 H   0  0  0  0  0  0  0  0  0  0  0  0
    1.2814   15.5745   44.1728 H   0  0  0  0  0  0  0  0  0  0  0  0
   -2.0031   17.0005   44.6929 H   0  0  0  0  0  0  0  0  0  0  0  0
   -1.6468   18.1705   46.0216 H   0  0  0  0  0  0  0  0  0  0  0  0
   -3.2918   18.1997   45.1983 H   0  0  0  0  0  0  0  0  0  0  0  0
   -1.4937   21.6511   42.3319 H   0  0  0  0  0  0  0  0  0  0  0  0
    0.8575   21.9760   41.3411 H   0  0  0  0  0  0  0  0  0  0  0  0
    1.3427   20.8253   40.0015 H   0  0  0  0  0  0  0  0  0  0  0  0
  1  2  2  0
  1  6  1  0
  2  3  1  0
  3  4  2  0
  4  5  1  0
  5  6  2  0
  6  7  1  0
  7  8  2  0
  7  9  1  0
  8 16  1  0
  9 10  2  0
 10 11  1  0
 10 15  1  0
 11 12  1  0
 11 13  1  0
 13 14  2  0
 14 15  1  0
 15 16  2  0
 16 17  1  0
  1 18  1  0
  2 19  1  0
  3 20  1  0
  5 21  1  0
 12 22  1  0
 12 23  1  0
 12 24  1  0
 14 25  1  0
 17 26  1  0
 17 27  1  0
M  END
>  <mol_id>  (20) 
2026-09-18-6fnk-s0-n100-r3-0020

>  <rmsd_to_ref>  (20) 
1.3265306122520522

>  <pose_kind>  (20) 
conformer

$$$$
6fnk.A
     RDKit          3D

 27 29  0  0  0  0  0  0  0  0999 V2000
    2.8669   15.4543   42.1875 C   0  0  0  0  0  0  0  0  0  0  0  0
    3.1295   14.0907   42.3199 C   0  0  0  0  0  0  0  0  0  0  0  0
    2.5270   13.3647   43.3370 C   0  0  0  0  0  0  0  0  0  0  0  0
    1.6546   13.9996   44.2253 N   0  0  0  0  0  0  0  0  0  0  0  0
    1.3936   15.3717   44.0906 C   0  0  0  0  0  0  0  0  0  0  0  0
    1.9998   16.1024   43.0704 C   0  0  0  0  0  0  0  0  0  0  0  0
    1.7396   17.4704   42.9401 C   0  0  0  0  0  0  0  0  0  0  0  0
    2.4391   18.2279   42.0840 N   0  0  0  0  0  0  0  0  0  0  0  0
    0.7754   18.0369   43.6726 N   0  0  0  0  0  0  0  0  0  0  0  0
    0.5019   19.3506   43.5812 C   0  0  0  0  0  0  0  0  0  0  0  0
   -0.3890   20.1302   44.2127 N   0  0  0  0  0  0  0  0  0  0  0  0
   -1.3522   19.6903   45.2264 C   0  0  0  0  0  0  0  0  0  0  0  0
   -0.3022   21.2937   43.8179 N   0  0  0  0  0  0  0  0  0  0  0  0
    0.6463   21.3261   42.8674 C   0  0  0  0  0  0  0  0  0  0  0  0
    1.1827   20.1067   42.7256 C   0  0  0  0  0  0  0  0  0  0  0  0
    2.1612   19.5396   41.9677 C   0  0  0  0  0  0  0  0  0  0  0  0
    2.8772   20.2812   41.0880 N   0  0  0  0  0  0  0  0  0  0  0  0
    3.3476   16.0251   41.3794 H   0  0  0  0  0  0  0  0  0  0  0  0
    3.8140   13.5914   41.6183 H   0  0  0  0  0  0  0  0  0  0  0  0
    2.7356   12.2900   43.4441 H   0  0  0  0  0  0  0  0  0  0  0  0
    0.7091   15.8716   44.7917 H   0  0  0  0  0  0  0  0  0  0  0  0
   -1.2663   20.3312   46.1163 H   0  0  0  0  0  0  0  0  0  0  0  0
   -2.3716   19.7627   44.8194 H   0  0  0  0  0  0  0  0  0  0  0  0
   -1.1415   18.6470   45.5041 H   0  0  0  0  0  0  0  0  0  0  0  0
    0.9382   22.2178   42.2932 H   0  0  0  0  0  0  0  0  0  0  0  0
    2.6812   21.2869   40.9829 H   0  0  0  0  0  0  0  0  0  0  0  0
    3.6175   19.8392   40.5246 H   0  0  0  0  0  0  0  0  0  0  0  0
  1  2  2  0
  1  6  1  0
  2  3  1  0
  3  4  2  0
  4  5  1  0
  5  6  2  0
  6  7  1  0
  7  8  2  0
  7  9  1  0
  8 16  1  0
  9 10  2  0
 10 11  1  0
 10 15  1  0
 11 12  1  0
 11 13  1  0
 13 14  2  0
 14 15  1  0
 15 16  2  0
 16 17  1  0
  1 18  1  0
  2 19  1  0
  3 20  1  0
  5 21  1  0
 12 22  1  0
 12 23  1  0
 12 24  1  0
 14 25  1  0
 17 26  1  0
 17 27  1  0
M  END
>  <mol_id>  (21) 
2026-09-18-6fnk-s0-n100-r3-0021

>  <rmsd_to_ref>  (21) 
1.372448979595915

>  <pose_kind>  (21) 
rigid

$$$$
6fnk.A
     RDKit          3D

 27 29  0  0  0  0  0  0  0  0999 V2000
    3.5518   17.6449   40.2715 C   0  0  0  0  0  0  0  0  0  0  0  0
    4.4747   16.8085   39.6613 C   0  0  0  0  0  0  0  0  0  0  0  0
    4.7272   15.5499   40.1452 C   0  0  0  0  0  0  0  0  0  0  0  0
    4.0652   15.1104   41.2401 N   0  0  0  0  0  0  0  0  0  0  0  0
    3.1648   15.8700   41.8711 C   0  0  0  0  0  0  0  0  0  0  0  0
    2.9059   17.1441   41.3853 C   0  0  0  0  0  0  0  0  0  0  0  0
    1.9285   18.0026   42.0487 C   0  0  0  0  0  0  0  0  0  0  0  0
    1.6490   19.2359   41.6140 N   0  0  0  0  0  0  0  0  0  0  0  0
    1.2607   17.5737   43.1439 N   0  0  0  0  0  0  0  0  0  0  0  0
    0.3526   18.3487   43.7746 C   0  0  0  0  0  0  0  0  0  0  0  0
   -0.4312   18.1699   44.8548 N   0  0  0  0  0  0  0  0  0  0  0  0
   -0.4912   16.9864   45.6771 C   0  0  0  0  0  0  0  0  0  0  0  0
   -1.1541   19.2588   45.0586 N   0  0  0  0  0  0  0  0  0  0  0  0
   -0.8764   20.1926   44.1256 C   0  0  0  0  0  0  0  0  0  0  0  0
    0.0819   19.6332   43.2967 C   0  0  0  0  0  0  0  0  0  0  0  0
    0.7584   20.0673   42.1874 C   0  0  0  0  0  0  0  0  0  0  0  0
    0.5335   21.3590   41.6484 N   0  0  0  0  0  0  0  0  0  0  0  0
    3.3624   18.6415   39.8753 H   0  0  0  0  0  0  0  0  0  0  0  0
    5.0270   17.1183   38.7839 H   0  0  0  0  0  0  0  0  0  0  0  0
    5.4355   14.9135   39.6734 H   0  0  0  0  0  0  0  0  0  0  0  0
    2.6395   15.5117   42.7458 H   0  0  0  0  0  0  0  0  0  0  0  0
    0.3048   16.2597   45.3765 H   0  0  0  0  0  0  0  0  0  0  0  0
   -1.4655   16.4831   45.5207 H   0  0  0  0  0  0  0  0  0  0  0  0
   -0.4103   17.2540   46.7479 H   0  0  0  0  0  0  0  0  0  0  0  0
   -1.2820   21.1824   44.0006 H   0  0  0  0  0  0  0  0  0  0  0  0
    1.2169   21.8395   41.0231 H   0  0  0  0  0  0  0  0  0  0  0  0
   -0.3515   21.8901   41.8658 H   0  0  0  0  0  0  0  0  0  0  0  0
  1  2  2  0
  1  6  1  0
  2  3  1  0
  3  4  2  0
  4  5  1  0
  5  6  2  0
  6  7  1  0
  7  8  2  0
  7  9  1  0
  8 16  1  0
  9 10  2  0
 10 11  1  0
 10 15  1  0
 11 12  1  0
 11 13  1  0
 13 14  2  0
 14 15  1  0
 15 16  2  0
 16 17  1  0
  1 18  1  0
  2 19  1  0
  3 20  1  0
  5 21  1  0
 12 22  1  0
 12 23  1  0
 12 24  1  0
 14 25  1  0
 17 26  1  0
 17 27  1  0
M  END
>  <mol_id>  (22) 
2026-09-18-6fnk-s0-n100-r3-0022

>  <rmsd_to_ref>  (22) 
1.418367346940873

>  <pose_kind>  (22) 
conformer

$$$$
6fnk.A
     RDKit          3D

 27 29  0  0  0  0  0  0  0  0999 V2000
    4.2583   16.7543   41.0404 C   0  0  0  0  0  0  0  0  0  0  0  0
    5.3101   15.8487   40.9004 C   0  0  0  0  0  0  0  0  0  0  0  0
    5.4146   14.7692   41.7654 C   0  0  0  0  0  0  0  0  0  0  0  0
    4.4639   14.5882   42.7737 N   0  0  0  0  0  0  0  0  0  0  0  0
    3.4080   15.5017   42.9131 C   0  0  0  0  0  0  0  0  0  0  0  0
    3.3030   16.5876   42.0459 C   0  0  0  0  0  0  0  0  0  0  0  0
    2.2506   17.4977   42.1888 C   0  0  0  0  0  0  0  0  0  0  0  0
    2.2243   18.6387   41.4864 N   0  0  0  0  0  0  0  0  0  0  0  0
    1.2489   17.2293   43.0323 N   0  0  0  0  0  0  0  0  0  0  0  0
    0.2244   18.0838   43.2031 C   0  0  0  0  0  0  0  0  0  0  0  0
   -0.8629   18.0395   43.9880 N   0  0  0  0  0  0  0  0  0  0  0  0
   -1.2150   16.9565   44.9110 C   0  0  0  0  0  0  0  0  0  0  0  0
   -1.5544   19.0459   43.8264 N   0  0  0  0  0  0  0  0  0  0  0  0
   -0.9578   19.7970   42.8861 C   0  0  0  0  0  0  0  0  0  0  0  0
    0.1843   19.2120   42.5011 C   0  0  0  0  0  0  0  0  0  0  0  0
    1.1942   19.4925   41.6323 C   0  0  0  0  0  0  0  0  0  0  0  0
    1.1873   20.6349   40.9033 N   0  0  0  0  0  0  0  0  0  0  0  0
    4.1804   17.6087   40.3519 H   0  0  0  0  0  0  0  0  0  0  0  0
    6.0561   15.9905   40.1045 H   0  0  0  0  0  0  0  0  0  0  0  0
    6.2452   14.0562   41.6577 H   0  0  0  0  0  0  0  0  0  0  0  0
    2.6615   15.3604   43.7086 H   0  0  0  0  0  0  0  0  0  0  0  0
   -1.4188   17.3757   45.9074 H   0  0  0  0  0  0  0  0  0  0  0  0
   -2.1113   16.4367   44.5416 H   0  0  0  0  0  0  0  0  0  0  0  0
   -0.3792   16.2444   44.9767 H   0  0  0  0  0  0  0  0  0  0  0  0
   -1.3474   20.7474   42.4924 H   0  0  0  0  0  0  0  0  0  0  0  0
    0.4088   21.3023   40.9993 H   0  0  0  0  0  0  0  0  0  0  0  0
    1.9606   20.8356   40.2533 H   0  0  0  0  0  0  0  0  0  0  0  0
  1  2  2  0
  1  6  1  0
  2  3  1  0
  3  4  2  0
  4  5  1  0
  5  6  2  0
  6  7  1  0
  7  8  2  0
  7  9  1  0
  8 16  1  0
  9 10  2  0
 10 11  1  0
 10 15  1  0
 11 12  1  0
 11 13  1  0
 13 14  2  0
 14 15  1  0
 15 16  2  0
 16 17  1  0
  1 18  1  0
  2 19  1  0
  3 20  1  0
  5 21  1  0
 12 22  1  0
 12 23  1  0
 12 24  1  0
 14 25  1  0
 17 26  1  0
 17 27  1  0
M  END
>  <mol_id>  (23) 
2026-09-18-6fnk-s0-n100-r3-0023

>  <rmsd_to_ref>  (23) 
1.4642857142884667

>  <pose_kind>  (23) 
rigid

$$$$
6fnk.A
     RDKit          3D

 27 29  0  0  0  0  0  0  0  0999 V2000
    1.2398   15.6817   41.7510 C   0  0  0  0  0  0  0  0  0  0  0  0
    1.5001   14.4690   41.1181 C   0  0  0  0  0  0  0  0  0  0  0  0
    2.6497   14.3699   40.3383 C   0  0  0  0  0  0  0  0  0  0  0  0
    3.4908   15.4169   40.1970 N   0  0  0  0  0  0  0  0  0  0  0  0
    3.2370   16.5945   40.8123 C   0  0  0  0  0  0  0  0  0  0  0  0
    2.1069   16.7412   41.5978 C   0  0  0  0  0  0  0  0  0  0  0  0
    1.8677   18.0309   42.2467 C   0  0  0  0  0  0  0  0  0  0  0  0
    2.7633   19.0146   42.0459 N   0  0  0  0  0  0  0  0  0  0  0  0
    0.7811   18.2140   43.0180 N   0  0  0  0  0  0  0  0  0  0  0  0
    0.5641   19.3959   43.6113 C   0  0  0  0  0  0  0  0  0  0  0  0
   -0.4140   19.8462   44.4151 N   0  0  0  0  0  0  0  0  0  0  0  0
   -1.5910   19.1252   44.8982 C   0  0  0  0  0  0  0  0  0  0  0  0
   -0.1926   21.1091   44.7566 N   0  0  0  0  0  0  0  0  0  0  0  0
    0.9549   21.4818   44.1590 C   0  0  0  0  0  0  0  0  0  0  0  0
    1.4513   20.4176   43.4306 C   0  0  0  0  0  0  0  0  0  0  0  0
    2.5604   20.2105   42.6355 C   0  0  0  0  0  0  0  0  0  0  0  0
    3.4882   21.2770   42.4458 N   0  0  0  0  0  0  0  0  0  0  0  0
    0.3534   15.8159   42.3744 H   0  0  0  0  0  0  0  0  0  0  0  0
    0.8065   13.6710   41.2597 H   0  0  0  0  0  0  0  0  0  0  0  0
    2.8116   13.4145   39.8675 H   0  0  0  0  0  0  0  0  0  0  0  0
    3.9503   17.4033   40.6622 H   0  0  0  0  0  0  0  0  0  0  0  0
   -1.6273   18.1110   44.4568 H   0  0  0  0  0  0  0  0  0  0  0  0
   -1.4205   18.9852   45.9949 H   0  0  0  0  0  0  0  0  0  0  0  0
   -2.5308   19.6662   44.7024 H   0  0  0  0  0  0  0  0  0  0  0  0
    1.4544   22.4333   44.2016 H   0  0  0  0  0  0  0  0  0  0  0  0
    4.2983   21.1693   41.7975 H   0  0  0  0  0  0  0  0  0  0  0  0
    3.3817   22.1672   42.9379 H   0  0  0  0  0  0  0  0  0  0  0  0
  1  2  2  0
  1  6  1  0
  2  3  1  0
  3  4  2  0
  4  5  1  0
  5  6  2  0
  6  7  1  0
  7  8  2  0
  7  9  1  0
  8 16  1  0
  9 10  2  0
 10 11  1  0
 10 15  1  0
 11 12  1  0
 11 13  1  0
 13 14  2  0
 14 15  1  0
 15 16  2  0
 16 17  1  0
  1 18  1  0
  2 19  1  0
  3 20  1  0
  5 21  1  0
 12 22  1  0
 12 23  1  0
 12 24  1  0
 14 25  1  0
 17 26  1  0
 17 27  1  0
M  END
>  <mol_id>  (24) 
2026-09-18-6fnk-s0-n100-r3-0024

>  <rmsd_to_ref>  (24) 
1.510204081634258

>  <pose_kind>  (24) 
conformer

$$$$
6fnk.A
     RDKit          3D

 27 29  0  0  0  0  0  0  0  0999 V2000
    2.8840   15.7189   41.6516 C   0  0  0  0  0  0  0  0  0  0  0  0
    2.8789   14.3249   41.5988 C   0  0  0  0  0  0  0  0  0  0  0  0
    1.9743   13.6059   42.3663 C   0  0  0  0  0  0  0  0  0  0  0  0
    1.0665   14.2791   43.1886 N   0  0  0  0  0  0  0  0  0  0  0  0
    1.0751   15.6813   43.2408 C   0  0  0  0  0  0  0  0  0  0  0  0
    1.9847   16.4047   42.4716 C   0  0  0  0  0  0  0  0  0  0  0  0
    1.9923   17.8021   42.5275 C   0  0  0  0  0  0  0  0  0  0  0  0
    2.9646   18.5114   41.9379 N   0  0  0  0  0  0  0  0  0  0  0  0
    1.0147   18.4475   43.1715 N   0  0  0  0  0  0  0  0  0  0  0  0
    0.9927   19.7898   43.2541 C   0  0  0  0  0  0  0  0  0  0  0  0
    0.1420   20.6409   43.8475 N   0  0  0  0  0  0  0  0  0  0  0  0
   -1.0614   20.2717   44.5987 C   0  0  0  0  0  0  0  0  0  0  0  0
    0.5016   21.8056   43.6707 N   0  0  0  0  0  0  0  0  0  0  0  0
    1.6090   21.7736   42.9112 C   0  0  0  0  0  0  0  0  0  0  0  0
    1.9466   20.5014   42.6616 C   0  0  0  0  0  0  0  0  0  0  0  0
    2.9428   19.8559   41.9951 C   0  0  0  0  0  0  0  0  0  0  0  0
    3.9329   20.5496   41.3827 N   0  0  0  0  0  0  0  0  0  0  0  0
    3.6036   16.2840   41.0411 H   0  0  0  0  0  0  0  0  0  0  0  0
    3.5918   13.7962   40.9491 H   0  0  0  0  0  0  0  0  0  0  0  0
    1.9714   12.5066   42.3278 H   0  0  0  0  0  0  0  0  0  0  0  0
    0.3623   16.2107   43.8901 H   0  0  0  0  0  0  0  0  0  0  0  0
   -1.0431   20.7605   45.5839 H   0  0  0  0  0  0  0  0  0  0  0  0
   -1.9540   20.5974   44.0444 H   0  0  0  0  0  0  0  0  0  0  0  0
   -1.0903   19.1801   44.7314 H   0  0  0  0  0  0  0  0  0  0  0  0
    2.1553   22.6572   42.5493 H   0  0  0  0  0  0  0  0  0  0  0  0
    3.9358   21.5791   41.4139 H   0  0  0  0  0  0  0  0  0  0  0  0
    4.6825   20.0473   40.8860 H   0  0  0  0  0  0  0  0  0  0  0  0
  1  2  2  0
  1  6  1  0
  2  3  1  0
  3  4  2  0
  4  5  1  0
  5  6  2  0
  6  7  1  0
  7  8  2  0
  7  9  1  0
  8 16  1  0
  9 10  2  0
 10 11  1  0
 10 15  1  0
 11 12  1  0
 11 13  1  0
 13 14  2  0
 14 15  1  0
 15 16  2  0
 16 17  1  0
  1 18  1  0
  2 19  1  0
  3 20  1  0
  5 21  1  0
 12 22  1  0
 12 23  1  0
 12 24  1  0
 14 25  1  0
 17 26  1  0
 17 27  1  0
M  END
>  <mol_id>  (25) 
2026-09-18-6fnk-s0-n100-r3-0025

>  <rmsd_to_ref>  (25) 
1.5561224489859007

>  <pose_kind>  (25) 
rigid

$$$$
6fnk.A
     RDKit          3D

 27 29  0  0  0  0  0  0  0  0999 V2000
    0.7018   15.1946   41.9270 C   0  0  0  0  0  0  0  0  0  0  0  0
    0.7375   13.9364   41.3380 C   0  0  0  0  0  0  0  0  0  0  0  0
    1.4965   13.7499   40.2007 C   0  0  0  0  0  0  0  0  0  0  0  0
    2.2098   14.7371   39.6299 N   0  0  0  0  0  0  0  0  0  0  0  0
    2.1894   15.9620   40.1832 C   0  0  0  0  0  0  0  0  0  0  0  0
    1.4433   16.2135   41.3306 C   0  0  0  0  0  0  0  0  0  0  0  0
    1.4455   17.5552   41.9023 C   0  0  0  0  0  0  0  0  0  0  0  0
    2.1790   18.5000   41.2853 N   0  0  0  0  0  0  0  0  0  0  0  0
    0.7238   17.7979   43.0119 N   0  0  0  0  0  0  0  0  0  0  0  0
    0.7130   19.0447   43.5612 C   0  0  0  0  0  0  0  0  0  0  0  0
    0.1011   19.5720   44.6398 N   0  0  0  0  0  0  0  0  0  0  0  0
   -0.7779   18.8659   45.5617 C   0  0  0  0  0  0  0  0  0  0  0  0
    0.4462   20.8557   44.7090 N   0  0  0  0  0  0  0  0  0  0  0  0
    1.2691   21.1683   43.6964 C   0  0  0  0  0  0  0  0  0  0  0  0
    1.4545   20.0354   42.9527 C   0  0  0  0  0  0  0  0  0  0  0  0
    2.1958   19.7574   41.8007 C   0  0  0  0  0  0  0  0  0  0  0  0
    2.9624   20.7610   41.1628 N   0  0  0  0  0  0  0  0  0  0  0  0
    0.1218   15.3798   42.8145 H   0  0  0  0  0  0  0  0  0  0  0  0
    0.1656   13.1574   41.8010 H   0  0  0  0  0  0  0  0  0  0  0  0
    1.5286   12.7713   39.7366 H   0  0  0  0  0  0  0  0  0  0  0  0
    2.7786   16.7333   39.6928 H   0  0  0  0  0  0  0  0  0  0  0  0
   -1.2550   19.6038   46.2264 H   0  0  0  0  0  0  0  0  0  0  0  0
   -1.5824   18.3573   44.9952 H   0  0  0  0  0  0  0  0  0  0  0  0
   -0.2418   18.0712   46.1075 H   0  0  0  0  0  0  0  0  0  0  0  0
    1.7380   22.1196   43.4508 H   0  0  0  0  0  0  0  0  0  0  0  0
    2.7536   20.9791   40.1613 H   0  0  0  0  0  0  0  0  0  0  0  0
    3.7272   21.3034   41.6233 H   0  0  0  0  0  0  0  0  0  0  0  0
  1  2  2  0
  1  6  1  0
  2  3  1  0
  3  4  2  0
  4  5  1  0
  5  6  2  0
  6  7  1  0
  7  8  2  0
  7  9  1  0
  8 16  1  0
  9 10  2  0
 10 11  1  0
 10 15  1  0
 11 12  1  0
 11 13  1  0
 13 14  2  0
 14 15  1  0
 15 16  2  0
 16 17  1  0
  1 18  1  0
  2 19  1  0
  3 20  1  0
  5 21  1  0
 12 22  1  0
 12 23  1  0
 12 24  1  0
 14 25  1  0
 17 26  1  0
 17 27  1  0
M  END
>  <mol_id>  (26) 
2026-09-18-6fnk-s0-n100-r3-0026

>  <rmsd_to_ref>  (26) 
1.6020408163299744

>  <pose_kind>  (26) 
conformer

$$$$
6fnk.A
     RDKit          3D

 27 29  0  0  0  0  0  0  0  0999 V2000
    3.6680   15.1353   42.0918 C   0  0  0  0  0  0  0  0  0  0  0  0
    3.9387   13.7815   42.2915 C   0  0  0  0  0  0  0  0  0  0  0  0
    3.1245   13.0278   43.1242 C   0  0  0  0  0  0  0  0  0  0  0  0
    2.0319   13.6248   43.7591 N   0  0  0  0  0  0  0  0  0  0  0  0
    1.7630   14.9871   43.5575 C   0  0  0  0  0  0  0  0  0  0  0  0
    2.5813   15.7458   42.7226 C   0  0  0  0  0  0  0  0  0  0  0  0
    2.3122   17.1040   42.5255 C   0  0  0  0  0  0  0  0  0  0  0  0
    3.1780   17.8919   41.8730 N   0  0  0  0  0  0  0  0  0  0  0  0
    1.1730   17.6302   42.9864 N   0  0  0  0  0  0  0  0  0  0  0  0
    0.8832   18.9335   42.8238 C   0  0  0  0  0  0  0  0  0  0  0  0
   -0.1673   19.6760   43.2049 N   0  0  0  0  0  0  0  0  0  0  0  0
   -1.3398   19.1948   43.9417 C   0  0  0  0  0  0  0  0  0  0  0  0
   -0.0262   20.8442   42.8411 N   0  0  0  0  0  0  0  0  0  0  0  0
    1.1311   20.9173   42.1633 C   0  0  0  0  0  0  0  0  0  0  0  0
    1.7308   19.7193   42.1670 C   0  0  0  0  0  0  0  0  0  0  0  0
    2.8903   19.1932   41.6850 C   0  0  0  0  0  0  0  0  0  0  0  0
    3.7786   19.9659   41.0140 N   0  0  0  0  0  0  0  0  0  0  0  0
    4.3170   15.7283   41.4306 H   0  0  0  0  0  0  0  0  0  0  0  0
    4.7972   13.3120   41.7890 H   0  0  0  0  0  0  0  0  0  0  0  0
    3.3388   11.9608   43.2848 H   0  0  0  0  0  0  0  0  0  0  0  0
    0.9045   15.4572   44.0594 H   0  0  0  0  0  0  0  0  0  0  0  0
   -1.5070   19.8330   44.8219 H   0  0  0  0  0  0  0  0  0  0  0  0
   -2.2240   19.2321   43.2884 H   0  0  0  0  0  0  0  0  0  0  0  0
   -1.1681   18.1584   44.2676 H   0  0  0  0  0  0  0  0  0  0  0  0
    1.5262   21.8225   41.6790 H   0  0  0  0  0  0  0  0  0  0  0  0
    3.5785   20.9643   40.8589 H   0  0  0  0  0  0  0  0  0  0  0  0
    4.6538   19.5548   40.6591 H   0  0  0  0  0  0  0  0  0  0  0  0
  1  2  2  0
  1  6  1  0
  2  3  1  0
  3  4  2  0
  4  5  1  0
  5  6  2  0
  6  7  1  0
  7  8  2  0
  7  9  1  0
  8 16  1  0
  9 10  2  0
 10 11  1  0
 10 15  1  0
 11 12  1  0
 11 13  1  0
 13 14  2  0
 14 15  1  0
 15 16  2  0
 16 17  1  0
  1 18  1  0
  2 19  1  0
  3 20  1  0
  5 21  1  0
 12 22  1  0
 12 23  1  0
 12 24  1  0
 14 25  1  0
 17 26  1  0
 17 27  1  0
M  END
>  <mol_id>  (27) 
2026-09-18-6fnk-s0-n100-r3-0027

>  <rmsd_to_ref>  (27) 
1.647959183675058

>  <pose_kind>  (27) 
rigid

$$$$
6fnk.A
     RDKit          3D

 27 29  0  0  0  0  0  0  0  0999 V2000
    2.5270   17.7020   40.0954 C   0  0  0  0  0  0  0  0  0  0  0  0
    3.3978   16.9389   39.3453 C   0  0  0  0  0  0  0  0  0  0  0  0
    3.8194   15.6778   39.7797 C   0  0  0  0  0  0  0  0  0  0  0  0
    3.3703   15.1883   40.9563 N   0  0  0  0  0  0  0  0  0  0  0  0
    2.5191   15.9120   41.7095 C   0  0  0  0  0  0  0  0  0  0  0  0
    2.0817   17.1689   41.3048 C   0  0  0  0  0  0  0  0  0  0  0  0
    1.1522   17.9603   42.1258 C   0  0  0  0  0  0  0  0  0  0  0  0
    0.7268   19.1881   41.7275 N   0  0  0  0  0  0  0  0  0  0  0  0
    0.7261   17.4422   43.2903 N   0  0  0  0  0  0  0  0  0  0  0  0
   -0.1230   18.1068   44.0925 C   0  0  0  0  0  0  0  0  0  0  0  0
   -0.7149   17.8606   45.2864 N   0  0  0  0  0  0  0  0  0  0  0  0
   -0.5388   16.6600   46.0705 C   0  0  0  0  0  0  0  0  0  0  0  0
   -1.4844   18.9005   45.6219 N   0  0  0  0  0  0  0  0  0  0  0  0
   -1.4159   19.8556   44.6550 C   0  0  0  0  0  0  0  0  0  0  0  0
   -0.5606   19.3556   43.6955 C   0  0  0  0  0  0  0  0  0  0  0  0
   -0.1258   19.8928   42.4997 C   0  0  0  0  0  0  0  0  0  0  0  0
   -0.5502   21.1747   42.0511 N   0  0  0  0  0  0  0  0  0  0  0  0
    2.1989   18.6888   39.7523 H   0  0  0  0  0  0  0  0  0  0  0  0
    3.7431   17.3591   38.4015 H   0  0  0  0  0  0  0  0  0  0  0  0
    4.4968   15.1573   39.1310 H   0  0  0  0  0  0  0  0  0  0  0  0
    2.1843   15.4873   42.6402 H   0  0  0  0  0  0  0  0  0  0  0  0
   -0.9615   15.7726   45.5320 H   0  0  0  0  0  0  0  0  0  0  0  0
    0.5584   16.4802   46.1724 H   0  0  0  0  0  0  0  0  0  0  0  0
   -0.9765   16.8081   47.0765 H   0  0  0  0  0  0  0  0  0  0  0  0
   -1.9464   20.8174   44.6673 H   0  0  0  0  0  0  0  0  0  0  0  0
   -1.3150   21.3208   41.3534 H   0  0  0  0  0  0  0  0  0  0  0  0
   -0.0572   22.0076   42.4535 H   0  0  0  0  0  0  0  0  0  0  0  0
  1  2  2  0
  1  6  1  0
  2  3  1  0
  3  4  2  0
  4  5  1  0
  5  6  2  0
  6  7  1  0
  7  8  2  0
  7  9  1  0
  8 16  1  0
  9 10  2  0
 10 11  1  0
 10 15  1  0
 11 12  1  0
 11 13  1  0
 13 14  2  0
 14 15  1  0
 15 16  2  0
 16 17  1  0
  1 18  1  0
  2 19  1  0
  3 20  1  0
  5 21  1  0
 12 22  1  0
 12 23  1  0
 12 24  1  0
 14 25  1  0
 17 26  1  0
 17 27  1  0
M  END
>  <mol_id>  (28) 
2026-09-18-6fnk-s0-n100-r3-0028

>  <rmsd_to_ref>  (28) 
1.693877551026952

>  <pose_kind>  (28) 
conformer

$$$$
6fnk.A
     RDKit          3D

 27 29  0  0  0  0  0  0  0  0999 V2000
    2.8741   17.1473   40.6238 C   0  0  0  0  0  0  0  0  0  0  0  0
    3.7124   16.3563   39.8379 C   0  0  0  0  0  0  0  0  0  0  0  0
    4.4942   15.3750   40.4298 C   0  0  0  0  0  0  0  0  0  0  0  0
    4.4381   15.1776   41.8123 N   0  0  0  0  0  0  0  0  0  0  0  0
    3.5951   15.9758   42.6003 C   0  0  0  0  0  0  0  0  0  0  0  0
    2.8107   16.9632   42.0071 C   0  0  0  0  0  0  0  0  0  0  0  0
    1.9731   17.7588   42.7955 C   0  0  0  0  0  0  0  0  0  0  0  0
    1.3452   18.8239   42.2785 N   0  0  0  0  0  0  0  0  0  0  0  0
    1.7860   17.4547   44.0837 N   0  0  0  0  0  0  0  0  0  0  0  0
    0.9952   18.2008   44.8754 C   0  0  0  0  0  0  0  0  0  0  0  0
    0.6741   18.1039   46.1745 N   0  0  0  0  0  0  0  0  0  0  0  0
    1.1465   17.0731   47.1037 C   0  0  0  0  0  0  0  0  0  0  0  0
   -0.0965   19.0086   46.4984 N   0  0  0  0  0  0  0  0  0  0  0  0
   -0.3470   19.7367   45.3978 C   0  0  0  0  0  0  0  0  0  0  0  0
    0.3589   19.2517   44.3675 C   0  0  0  0  0  0  0  0  0  0  0  0
    0.5344   19.5665   43.0547 C   0  0  0  0  0  0  0  0  0  0  0  0
   -0.0958   20.6328   42.5050 N   0  0  0  0  0  0  0  0  0  0  0  0
    2.2565   17.9241   40.1492 H   0  0  0  0  0  0  0  0  0  0  0  0
    3.7535   16.5106   38.7496 H   0  0  0  0  0  0  0  0  0  0  0  0
    5.1578   14.7527   39.8115 H   0  0  0  0  0  0  0  0  0  0  0  0
    3.5533   15.8219   43.6887 H   0  0  0  0  0  0  0  0  0  0  0  0
    1.5649   17.5523   48.0011 H   0  0  0  0  0  0  0  0  0  0  0  0
    0.3050   16.4260   47.3921 H   0  0  0  0  0  0  0  0  0  0  0  0
    1.9240   16.4675   46.6151 H   0  0  0  0  0  0  0  0  0  0  0  0
   -1.0277   20.5994   45.3498 H   0  0  0  0  0  0  0  0  0  0  0  0
   -0.7208   21.2148   43.0808 H   0  0  0  0  0  0  0  0  0  0  0  0
    0.0502   20.8613   41.5113 H   0  0  0  0  0  0  0  0  0  0  0  0
  1  2  2  0
  1  6  1  0
  2  3  1  0
  3  4  2  0
  4  5  1  0
  5  6  2  0
  6  7  1  0
  7  8  2  0
  7  9  1  0
  8 16  1  0
  9 10  2  0
 10 11  1  0
 10 15  1  0
 11 12  1  0
 11 13  1  0
 13 14  2  0
 14 15  1  0
 15 16  2  0
 16 17  1  0
  1 18  1  0
  2 19  1  0
  3 20  1  0
  5 21  1  0
 12 22  1  0
 12 23  1  0
 12 24  1  0
 14 25  1  0
 17 26  1  0
 17 27  1  0
M  END
>  <mol_id>  (29) 
2026-09-18-6fnk-s0-n100-r3-0029

>  <rmsd_to_ref>  (29) 
1.739795918368827

>  <pose_kind>  (29) 
rigid

$$$$
6fnk.A
     RDKit          3D

 27 29  0  0  0  0  0  0  0  0999 V2000
    1.4396   15.2595   42.8623 C   0  0  0  0  0  0  0  0  0  0  0  0
    1.3828   13.9650   42.3513 C   0  0  0  0  0  0  0  0  0  0  0  0
    1.6803   13.7647   40.9996 C   0  0  0  0  0  0  0  0  0  0  0  0
    2.0177   14.7960   40.1927 N   0  0  0  0  0  0  0  0  0  0  0  0
    2.0779   16.0548   40.6692 C   0  0  0  0  0  0  0  0  0  0  0  0
    1.7867   16.2927   42.0163 C   0  0  0  0  0  0  0  0  0  0  0  0
    1.8588   17.6798   42.5175 C   0  0  0  0  0  0  0  0  0  0  0  0
    2.1972   18.6561   41.6748 N   0  0  0  0  0  0  0  0  0  0  0  0
    1.5854   17.9212   43.7928 N   0  0  0  0  0  0  0  0  0  0  0  0
    1.6293   19.1559   44.3229 C   0  0  0  0  0  0  0  0  0  0  0  0
    1.4153   19.7069   45.5304 N   0  0  0  0  0  0  0  0  0  0  0  0
    1.0228   18.9152   46.7045 C   0  0  0  0  0  0  0  0  0  0  0  0
    1.6116   21.0156   45.4703 N   0  0  0  0  0  0  0  0  0  0  0  0
    1.9583   21.3473   44.2208 C   0  0  0  0  0  0  0  0  0  0  0  0
    1.9828   20.1881   43.4500 C   0  0  0  0  0  0  0  0  0  0  0  0
    2.2611   19.9173   42.1375 C   0  0  0  0  0  0  0  0  0  0  0  0
    2.6171   21.0267   41.2985 N   0  0  0  0  0  0  0  0  0  0  0  0
    1.2084   15.4357   43.9246 H   0  0  0  0  0  0  0  0  0  0  0  0
    1.1139   13.1226   42.9824 H   0  0  0  0  0  0  0  0  0  0  0  0
    1.6491   12.7776   40.5595 H   0  0  0  0  0  0  0  0  0  0  0  0
    2.3525   16.8622   39.9941 H   0  0  0  0  0  0  0  0  0  0  0  0
    0.8224   19.5683   47.5701 H   0  0  0  0  0  0  0  0  0  0  0  0
    0.1228   18.3341   46.3819 H   0  0  0  0  0  0  0  0  0  0  0  0
    1.8045   18.1478   46.8857 H   0  0  0  0  0  0  0  0  0  0  0  0
    2.1808   22.3444   43.8721 H   0  0  0  0  0  0  0  0  0  0  0  0
    3.6018   21.2114   40.9993 H   0  0  0  0  0  0  0  0  0  0  0  0
    1.8073   21.6356   41.0113 H   0  0  0  0  0  0  0  0  0  0  0  0
  1  2  2  0
  1  6  1  0
  2  3  1  0
  3  4  2  0
  4  5  1  0
  5  6  2  0
  6  7  1  0
  7  8  2  0
  7  9  1  0
  8 16  1  0
  9 10  2  0
 10 11  1  0
 10 15  1  0
 11 12  1  0
 11 13  1  0
 13 14  2  0
 14 15  1  0
 15 16  2  0
 16 17  1  0
  1 18  1  0
  2 19  1  0
  3 20  1  0
  5 21  1  0
 12 22  1  0
 12 23  1  0
 12 24  1  0
 14 25  1  0
 17 26  1  0
 17 27  1  0
M  END
>  <mol_id>  (30) 
2026-09-18-6fnk-s0-n100-r3-0030

>  <rmsd_to_ref>  (30) 
1.7857142857186743

>  <pose_kind>  (30) 
conformer

$$$$
6fnk.A
     RDKit          3D

 27 29  0  0  0  0  0  0  0  0999 V2000
    4.6543   16.3017   42.5356 C   0  0  0  0  0  0  0  0  0  0  0  0
    5.5775   15.2671   42.6882 C   0  0  0  0  0  0  0  0  0  0  0  0
    5.2166   14.1106   43.3640 C   0  0  0  0  0  0  0  0  0  0  0  0
    3.9273   13.9820   43.8879 N   0  0  0  0  0  0  0  0  0  0  0  0
    3.0013   15.0250   43.7342 C   0  0  0  0  0  0  0  0  0  0  0  0
    3.3634   16.1880   43.0571 C   0  0  0  0  0  0  0  0  0  0  0  0
    2.4390   17.2269   42.9075 C   0  0  0  0  0  0  0  0  0  0  0  0
    2.8117   18.4178   42.4187 N   0  0  0  0  0  0  0  0  0  0  0  0
    1.1609   17.0345   43.2490 N   0  0  0  0  0  0  0  0  0  0  0  0
    0.2452   18.0120   43.1277 C   0  0  0  0  0  0  0  0  0  0  0  0
   -1.0648   18.0582   43.4144 N   0  0  0  0  0  0  0  0  0  0  0  0
   -1.8649   16.9605   43.9654 C   0  0  0  0  0  0  0  0  0  0  0  0
   -1.5286   19.1661   43.1411 N   0  0  0  0  0  0  0  0  0  0  0  0
   -0.5321   19.9024   42.6224 C   0  0  0  0  0  0  0  0  0  0  0  0
    0.6039   19.1922   42.6323 C   0  0  0  0  0  0  0  0  0  0  0  0
    1.9007   19.3976   42.2725 C   0  0  0  0  0  0  0  0  0  0  0  0
    2.3020   20.5894   41.7674 N   0  0  0  0  0  0  0  0  0  0  0  0
    4.9460   17.2166   41.9990 H   0  0  0  0  0  0  0  0  0  0  0  0
    6.5911   15.3682   42.2729 H   0  0  0  0  0  0  0  0  0  0  0  0
    5.9447   13.2954   43.4875 H   0  0  0  0  0  0  0  0  0  0  0  0
    1.9875   14.9244   44.1490 H   0  0  0  0  0  0  0  0  0  0  0  0
   -2.4102   17.3138   44.8530 H   0  0  0  0  0  0  0  0  0  0  0  0
   -2.5832   16.6140   43.2077 H   0  0  0  0  0  0  0  0  0  0  0  0
   -1.2019   16.1299   44.2490 H   0  0  0  0  0  0  0  0  0  0  0  0
   -0.6333   20.9314   42.2469 H   0  0  0  0  0  0  0  0  0  0  0  0
    1.6214   21.3531   41.6470 H   0  0  0  0  0  0  0  0  0  0  0  0
    3.2875   20.7314   41.5038 H   0  0  0  0  0  0  0  0  0  0  0  0
  1  2  2  0
  1  6  1  0
  2  3  1  0
  3  4  2  0
  4  5  1  0
  5  6  2  0
  6  7  1  0
  7  8  2  0
  7  9  1  0
  8 16  1  0
  9 10  2  0
 10 11  1  0
 10 15  1  0
 11 12  1  0
 11 13  1  0
 13 14  2  0
 14 15  1  0
 15 16  2  0
 16 17  1  0
  1 18  1  0
  2 19  1  0
  3 20  1  0
  5 21  1  0
 12 22  1  0
 12 23  1  0
 12 24  1  0
 14 25  1  0
 17 26  1  0
 17 27  1  0
M  END
>  <mol_id>  (31) 
2026-09-18-6fnk-s0-n100-r3-0031

>  <rmsd_to_ref>  (31) 
1.8316326530617477

>  <pose_kind>  (31) 
rigid

$$$$
6fnk.A
     RDKit          3D

 27 29  0  0  0  0  0  0  0  0999 V2000
    1.4163   15.6136   39.9235 C   0  0  0  0  0  0  0  0  0  0  0  0
    1.2132   14.3177   39.4960 C   0  0  0  0  0  0  0  0  0  0  0  0
    1.1534   13.2367   40.3341 C   0  0  0  0  0  0  0  0  0  0  0  0
    1.3027   13.4561   41.6575 N   0  0  0  0  0  0  0  0  0  0  0  0
    1.5022   14.7145   42.0983 C   0  0  0  0  0  0  0  0  0  0  0  0
    1.5673   15.8105   41.2979 C   0  0  0  0  0  0  0  0  0  0  0  0
    1.7828   17.1685   41.7746 C   0  0  0  0  0  0  0  0  0  0  0  0
    1.8444   18.2408   40.9687 N   0  0  0  0  0  0  0  0  0  0  0  0
    1.9285   17.3510   43.1104 N   0  0  0  0  0  0  0  0  0  0  0  0
    2.1322   18.5645   43.6582 C   0  0  0  0  0  0  0  0  0  0  0  0
    2.3055   19.0196   44.9196 N   0  0  0  0  0  0  0  0  0  0  0  0
    2.3146   18.2151   46.1270 C   0  0  0  0  0  0  0  0  0  0  0  0
    2.4687   20.3365   44.8839 N   0  0  0  0  0  0  0  0  0  0  0  0
    2.4058   20.7687   43.6038 C   0  0  0  0  0  0  0  0  0  0  0  0
    2.1930   19.6579   42.8153 C   0  0  0  0  0  0  0  0  0  0  0  0
    2.0455   19.4858   41.4455 C   0  0  0  0  0  0  0  0  0  0  0  0
    2.1063   20.5909   40.5852 N   0  0  0  0  0  0  0  0  0  0  0  0
    1.4552   16.4342   39.2173 H   0  0  0  0  0  0  0  0  0  0  0  0
    1.0973   14.1705   38.4370 H   0  0  0  0  0  0  0  0  0  0  0  0
    0.9912   12.2503   39.9255 H   0  0  0  0  0  0  0  0  0  0  0  0
    1.6169   14.8425   43.1708 H   0  0  0  0  0  0  0  0  0  0  0  0
    2.5841   17.1549   45.9125 H   0  0  0  0  0  0  0  0  0  0  0  0
    1.3066   18.2142   46.5859 H   0  0  0  0  0  0  0  0  0  0  0  0
    3.0758   18.5525   46.8661 H   0  0  0  0  0  0  0  0  0  0  0  0
    2.4996   21.7805   43.2317 H   0  0  0  0  0  0  0  0  0  0  0  0
    2.1557   21.5573   40.9670 H   0  0  0  0  0  0  0  0  0  0  0  0
    2.1035   20.4749   39.5529 H   0  0  0  0  0  0  0  0  0  0  0  0
  1  2  2  0
  1  6  1  0
  2  3  1  0
  3  4  2  0
  4  5  1  0
  5  6  2  0
  6  7  1  0
  7  8  2  0
  7  9  1  0
  8 16  1  0
  9 10  2  0
 10 11  1  0
 10 15  1  0
 11 12  1  0
 11 13  1  0
 13 14  2  0
 14 15  1  0
 15 16  2  0
 16 17  1  0
  1 18  1  0
  2 19  1  0
  3 20  1  0
  5 21  1  0
 12 22  1  0
 12 23  1  0
 12 24  1  0
 14 25  1  0
 17 26  1  0
 17 27  1  0
M  END
>  <mol_id>  (32) 
2026-09-18-6fnk-s0-n100-r3-0032

>  <rmsd_to_ref>  (32) 
1.877551020410308

>  <pose_kind>  (32) 
conformer

$$$$
6fnk.A
     RDKit          3D

 27 29  0  0  0  0  0  0  0  0999 V2000
    4.2800   15.9556   42.9418 C   0  0  0  0  0  0  0  0  0  0  0  0
    4.8664   14.7566   43.3473 C   0  0  0  0  0  0  0  0  0  0  0  0
    4.2118   13.9377   44.2558 C   0  0  0  0  0  0  0  0  0  0  0  0
    2.9639   14.3132   44.7607 N   0  0  0  0  0  0  0  0  0  0  0  0
    2.3772   15.5205   44.3521 C   0  0  0  0  0  0  0  0  0  0  0  0
    3.0347   16.3449   43.4409 C   0  0  0  0  0  0  0  0  0  0  0  0
    2.4485   17.5489   43.0373 C   0  0  0  0  0  0  0  0  0  0  0  0
    3.1322   18.4380   42.3037 N   0  0  0  0  0  0  0  0  0  0  0  0
    1.1852   17.8212   43.3793 N   0  0  0  0  0  0  0  0  0  0  0  0
    0.5905   18.9719   43.0173 C   0  0  0  0  0  0  0  0  0  0  0  0
   -0.6359   19.4633   43.2513 N   0  0  0  0  0  0  0  0  0  0  0  0
   -1.6983   18.8002   44.0133 C   0  0  0  0  0  0  0  0  0  0  0  0
   -0.7670   20.5687   42.7239 N   0  0  0  0  0  0  0  0  0  0  0  0
    0.3788   20.8453   42.0798 C   0  0  0  0  0  0  0  0  0  0  0  0
    1.2574   19.8537   42.2791 C   0  0  0  0  0  0  0  0  0  0  0  0
    2.5417   19.5839   41.9170 C   0  0  0  0  0  0  0  0  0  0  0  0
    3.2521   20.4617   41.1679 N   0  0  0  0  0  0  0  0  0  0  0  0
    4.8036   16.6013   42.2214 H   0  0  0  0  0  0  0  0  0  0  0  0
    5.8473   14.4607   42.9470 H   0  0  0  0  0  0  0  0  0  0  0  0
    4.6747   12.9935   44.5785 H   0  0  0  0  0  0  0  0  0  0  0  0
    1.3962   15.8169   44.7518 H   0  0  0  0  0  0  0  0  0  0  0  0
   -2.0796   19.4861   44.7841 H   0  0  0  0  0  0  0  0  0  0  0  0
   -2.5169   18.5205   43.3339 H   0  0  0  0  0  0  0  0  0  0  0  0
   -1.2954   17.8963   44.4937 H   0  0  0  0  0  0  0  0  0  0  0  0
    0.5669   21.7481   41.4802 H   0  0  0  0  0  0  0  0  0  0  0  0
    2.8198   21.3448   40.8611 H   0  0  0  0  0  0  0  0  0  0  0  0
    4.2244   20.2459   40.9055 H   0  0  0  0  0  0  0  0  0  0  0  0
  1  2  2  0
  1  6  1  0
  2  3  1  0
  3  4  2  0
  4  5  1  0
  5  6  2  0
  6  7  1  0
  7  8  2  0
  7  9  1  0
  8 16  1  0
  9 10  2  0
 10 11  1  0
 10 15  1  0
 11 12  1  0
 11 13  1  0
 13 14  2  0
 14 15  1  0
 15 16  2  0
 16 17  1  0
  1 18  1  0
  2 19  1  0
  3 20  1  0
  5 21  1  0
 12 22  1  0
 12 23  1  0
 12 24  1  0
 14 25  1  0
 17 26  1  0
 17 27  1  0
M  END
>  <mol_id>  (33) 
2026-09-18-6fnk-s0-n100-r3-0033

>  <rmsd_to_ref>  (33) 
1.923469387756022

>  <pose_kind>  (33) 
rigid

$$$$
6fnk.A
     RDKit          3D

 27 29  0  0  0  0  0  0  0  0999 V2000
    1.1939   16.9575   39.4314 C   0  0  0  0  0  0  0  0  0  0  0  0
    0.9566   15.9651   38.4761 C   0  0  0  0  0  0  0  0  0  0  0  0
    0.3012   14.8081   38.8839 C   0  0  0  0  0  0  0  0  0  0  0  0
   -0.1009   14.6322   40.1608 N   0  0  0  0  0  0  0  0  0  0  0  0
    0.1239   15.5922   41.1043 C   0  0  0  0  0  0  0  0  0  0  0  0
    0.7721   16.7514   40.7296 C   0  0  0  0  0  0  0  0  0  0  0  0
    1.0335   17.8090   41.7132 C   0  0  0  0  0  0  0  0  0  0  0  0
    1.6681   18.9551   41.3678 N   0  0  0  0  0  0  0  0  0  0  0  0
    0.6224   17.6196   43.0004 N   0  0  0  0  0  0  0  0  0  0  0  0
    0.8408   18.5610   43.9336 C   0  0  0  0  0  0  0  0  0  0  0  0
    0.5446   18.6342   45.2644 N   0  0  0  0  0  0  0  0  0  0  0  0
   -0.1469   17.5945   46.0428 C   0  0  0  0  0  0  0  0  0  0  0  0
    0.9764   19.7799   45.7328 N   0  0  0  0  0  0  0  0  0  0  0  0
    1.5705   20.5126   44.7554 C   0  0  0  0  0  0  0  0  0  0  0  0
    1.4870   19.7500   43.6243 C   0  0  0  0  0  0  0  0  0  0  0  0
    1.9002   19.9237   42.2986 C   0  0  0  0  0  0  0  0  0  0  0  0
    2.5692   21.1190   41.9096 N   0  0  0  0  0  0  0  0  0  0  0  0
    1.7046   17.8759   39.1461 H   0  0  0  0  0  0  0  0  0  0  0  0
    1.2651   16.0765   37.4510 H   0  0  0  0  0  0  0  0  0  0  0  0
    0.1263   14.0420   38.1131 H   0  0  0  0  0  0  0  0  0  0  0  0
   -0.1864   15.4765   42.1283 H   0  0  0  0  0  0  0  0  0  0  0  0
    0.5258   17.0236   46.6813 H   0  0  0  0  0  0  0  0  0  0  0  0
   -0.6439   16.8701   45.3654 H   0  0  0  0  0  0  0  0  0  0  0  0
   -0.9834   18.0472   46.6399 H   0  0  0  0  0  0  0  0  0  0  0  0
    2.0237   21.4975   44.8291 H   0  0  0  0  0  0  0  0  0  0  0  0
    2.1679   21.7760   41.1773 H   0  0  0  0  0  0  0  0  0  0  0  0
    3.4995   21.3959   42.3424 H   0  0  0  0  0  0  0  0  0  0  0  0
  1  2  2  0
  1  6  1  0
  2  3  1  0
  3  4  2  0
  4  5  1  0
  5  6  2  0
  6  7  1  0
  7  8  2  0
  7  9  1  0
  8 16  1  0
  9 10  2  0
 10 11  1  0
 10 15  1  0
 11 12  1  0
 11 13  1  0
 13 14  2  0
 14 15  1  0
 15 16  2  0
 16 17  1  0
  1 18  1  0
  2 19  1  0
  3 20  1  0
  5 21  1  0
 12 22  1  0
 12 23  1  0
 12 24  1  0
 14 25  1  0
 17 26  1  0
 17 27  1  0
M  END
>  <mol_id>  (34) 
2026-09-18-6fnk-s0-n100-r3-0034

>  <rmsd_to_ref>  (34) 
1.9693877551076997

>  <pose_kind>  (34) 
conformer

$$$$
6fnk.A
     RDKit          3D

 27 29  0  0  0  0  0  0  0  0999 V2000
    3.3156   17.2977   40.7410 C   0  0  0  0  0  0  0  0  0  0  0  0
    4.3612   16.7002   40.0371 C   0  0  0  0  0  0  0  0  0  0  0  0
    4.8613   15.4734   40.4485 C   0  0  0  0  0  0  0  0  0  0  0  0
    4.3144   14.8358   41.5655 N   0  0  0  0  0  0  0  0  0  0  0  0
    3.2637   15.4401   42.2725 C   0  0  0  0  0  0  0  0  0  0  0  0
    2.7617   16.6734   41.8613 C   0  0  0  0  0  0  0  0  0  0  0  0
    1.7160   17.2743   42.5694 C   0  0  0  0  0  0  0  0  0  0  0  0
    1.3349   18.5314   42.3037 N   0  0  0  0  0  0  0  0  0  0  0  0
    1.0777   16.5884   43.5229 N   0  0  0  0  0  0  0  0  0  0  0  0
    0.0735   17.1353   44.2309 C   0  0  0  0  0  0  0  0  0  0  0  0
   -0.6895   16.6583   45.2262 N   0  0  0  0  0  0  0  0  0  0  0  0
   -0.5993   15.3185   45.8140 C   0  0  0  0  0  0  0  0  0  0  0  0
   -1.5055   17.5062   45.5901 N   0  0  0  0  0  0  0  0  0  0  0  0
   -1.3339   18.5888   44.8138 C   0  0  0  0  0  0  0  0  0  0  0  0
   -0.3189   18.3773   43.9652 C   0  0  0  0  0  0  0  0  0  0  0  0
    0.3174   19.0831   42.9904 C   0  0  0  0  0  0  0  0  0  0  0  0
   -0.0541   20.3526   42.6958 N   0  0  0  0  0  0  0  0  0  0  0  0
    2.9230   18.2707   40.4105 H   0  0  0  0  0  0  0  0  0  0  0  0
    4.7889   17.2015   39.1563 H   0  0  0  0  0  0  0  0  0  0  0  0
    5.6878   15.0027   39.8959 H   0  0  0  0  0  0  0  0  0  0  0  0
    2.8353   14.9393   43.1532 H   0  0  0  0  0  0  0  0  0  0  0  0
   -0.5164   15.4027   46.9077 H   0  0  0  0  0  0  0  0  0  0  0  0
   -1.5019   14.7442   45.5579 H   0  0  0  0  0  0  0  0  0  0  0  0
    0.2880   14.8031   45.4177 H   0  0  0  0  0  0  0  0  0  0  0  0
   -1.9350   19.5085   44.8666 H   0  0  0  0  0  0  0  0  0  0  0  0
   -0.8303   20.7943   43.2090 H   0  0  0  0  0  0  0  0  0  0  0  0
    0.4397   20.8758   41.9587 H   0  0  0  0  0  0  0  0  0  0  0  0
  1  2  2  0
  1  6  1  0
  2  3  1  0
  3  4  2  0
  4  5  1  0
  5  6  2  0
  6  7  1  0
  7  8  2  0
  7  9  1  0
  8 16  1  0
  9 10  2  0
 10 11  1  0
 10 15  1  0
 11 12  1  0
 11 13  1  0
 13 14  2  0
 14 15  1  0
 15 16  2  0
 16 17  1  0
  1 18  1  0
  2 19  1  0
  3 20  1  0
  5 21  1  0
 12 22  1  0
 12 23  1  0
 12 24  1  0
 14 25  1  0
 17 26  1  0
 17 27  1  0
M  END
>  <mol_id>  (35) 
2026-09-18-6fnk-s0-n100-r3-0035

>  <rmsd_to_ref>  (35) 
2.0153061224567255

>  <pose_kind>  (35) 
rigid

$$$$
6fnk.A
     RDKit          3D

 27 29  0  0  0  0  0  0  0  0999 V2000
    3.2264   15.3238   41.9012 C   0  0  0  0  0  0  0  0  0  0  0  0
    3.7875   14.1648   42.4071 C   0  0  0  0  0  0  0  0  0  0  0  0
    3.3077   13.6777   43.6071 C   0  0  0  0  0  0  0  0  0  0  0  0
    2.3108   14.3128   44.2812 N   0  0  0  0  0  0  0  0  0  0  0  0
    1.7923   15.4303   43.7623 C   0  0  0  0  0  0  0  0  0  0  0  0
    2.2088   15.9792   42.5814 C   0  0  0  0  0  0  0  0  0  0  0  0
    1.6432   17.1992   42.0143 C   0  0  0  0  0  0  0  0  0  0  0  0
    2.1024   17.6913   40.8371 N   0  0  0  0  0  0  0  0  0  0  0  0
    0.6570   17.8403   42.6668 N   0  0  0  0  0  0  0  0  0  0  0  0
    0.0858   18.9718   42.2050 C   0  0  0  0  0  0  0  0  0  0  0  0
   -0.8822   19.8012   42.6245 N   0  0  0  0  0  0  0  0  0  0  0  0
   -1.6436   19.6330   43.8607 C   0  0  0  0  0  0  0  0  0  0  0  0
   -1.0268   20.7819   41.7406 N   0  0  0  0  0  0  0  0  0  0  0  0
   -0.1556   20.6146   40.7234 C   0  0  0  0  0  0  0  0  0  0  0  0
    0.5578   19.4728   41.0004 C   0  0  0  0  0  0  0  0  0  0  0  0
    1.5807   18.8282   40.3011 C   0  0  0  0  0  0  0  0  0  0  0  0
    2.0744   19.3318   39.0638 N   0  0  0  0  0  0  0  0  0  0  0  0
    3.6166   15.7011   40.9460 H   0  0  0  0  0  0  0  0  0  0  0  0
    4.5939   13.6359   41.8786 H   0  0  0  0  0  0  0  0  0  0  0  0
    3.7601   12.7751   43.9799 H   0  0  0  0  0  0  0  0  0  0  0  0
    0.9923   15.9292   44.3152 H   0  0  0  0  0  0  0  0  0  0  0  0
   -1.7702   18.5419   44.0282 H   0  0  0  0  0  0  0  0  0  0  0  0
   -1.0665   20.0047   44.7381 H   0  0  0  0  0  0  0  0  0  0  0  0
   -2.5822   20.1788   43.7352 H   0  0  0  0  0  0  0  0  0  0  0  0
   -0.0445   21.2692   39.8470 H   0  0  0  0  0  0  0  0  0  0  0  0
    1.4600   19.7405   38.3260 H   0  0  0  0  0  0  0  0  0  0  0  0
    3.1061   19.2783   38.9107 H   0  0  0  0  0  0  0  0  0  0  0  0
  1  2  2  0
  1  6  1  0
  2  3  1  0
  3  4  2  0
  4  5  1  0
  5  6  2  0
  6  7  1  0
  7  8  2  0
  7  9  1  0
  8 16  1  0
  9 10  2  0
 10 11  1  0
 10 15  1  0
 11 12  1  0
 11 13  1  0
 13 14  2  0
 14 15  1  0
 15 16  2  0
 16 17  1  0
  1 18  1  0
  2 19  1  0
  3 20  1  0
  5 21  1  0
 12 22  1  0
 12 23  1  0
 12 24  1  0
 14 25  1  0
 17 26  1  0
 17 27  1  0
M  END
>  <mol_id>  (36) 
2026-09-18-6fnk-s0-n100-r3-0036

>  <rmsd_to_ref>  (36) 
2.0612244897969982

>  <pose_kind>  (36) 
conformer

$$$$
6fnk.A
     RDKit          3D

 27 29  0  0  0  0  0  0  0  0999 V2000
    3.1860   16.3845   43.4726 C   0  0  0  0  0  0  0  0  0  0  0  0
    3.6671   15.0964   43.7079 C   0  0  0  0  0  0  0  0  0  0  0  0
    2.7882   14.0821   44.0589 C   0  0  0  0  0  0  0  0  0  0  0  0
    1.4215   14.3511   44.1727 N   0  0  0  0  0  0  0  0  0  0  0  0
    0.9408   15.6481   43.9369 C   0  0  0  0  0  0  0  0  0  0  0  0
    1.8229   16.6684   43.5860 C   0  0  0  0  0  0  0  0  0  0  0  0
    1.3411   17.9607   43.3539 C   0  0  0  0  0  0  0  0  0  0  0  0
    2.1813   18.9916   43.1887 N   0  0  0  0  0  0  0  0  0  0  0  0
    0.0236   18.1776   43.2880 N   0  0  0  0  0  0  0  0  0  0  0  0
   -0.4774   19.4074   43.0751 C   0  0  0  0  0  0  0  0  0  0  0  0
   -1.7363   19.8633   42.9870 N   0  0  0  0  0  0  0  0  0  0  0  0
   -2.9545   19.0566   43.1065 C   0  0  0  0  0  0  0  0  0  0  0  0
   -1.7432   21.0771   42.7780 N   0  0  0  0  0  0  0  0  0  0  0  0
   -0.4641   21.4766   42.6856 C   0  0  0  0  0  0  0  0  0  0  0  0
    0.3492   20.4334   42.8980 C   0  0  0  0  0  0  0  0  0  0  0  0
    1.6932   20.2237   42.9540 C   0  0  0  0  0  0  0  0  0  0  0  0
    2.5645   21.2471   42.7815 N   0  0  0  0  0  0  0  0  0  0  0  0
    3.8874   17.1851   43.1947 H   0  0  0  0  0  0  0  0  0  0  0  0
    4.7426   14.8851   43.6152 H   0  0  0  0  0  0  0  0  0  0  0  0
    3.1668   13.0667   44.2476 H   0  0  0  0  0  0  0  0  0  0  0  0
   -0.1347   15.8601   44.0292 H   0  0  0  0  0  0  0  0  0  0  0  0
   -3.6242   19.5119   43.8509 H   0  0  0  0  0  0  0  0  0  0  0  0
   -3.4635   19.0148   42.1322 H   0  0  0  0  0  0  0  0  0  0  0  0
   -2.6898   18.0378   43.4259 H   0  0  0  0  0  0  0  0  0  0  0  0
   -0.1348   22.5034   42.4686 H   0  0  0  0  0  0  0  0  0  0  0  0
    2.2127   22.1981   42.6007 H   0  0  0  0  0  0  0  0  0  0  0  0
    3.5787   21.0739   42.8311 H   0  0  0  0  0  0  0  0  0  0  0  0
  1  2  2  0
  1  6  1  0
  2  3  1  0
  3  4  2  0
  4  5  1  0
  5  6  2  0
  6  7  1  0
  7  8  2  0
  7  9  1  0
  8 16  1  0
  9 10  2  0
 10 11  1  0
 10 15  1  0
 11 12  1  0
 11 13  1  0
 13 14  2  0
 14 15  1  0
 15 16  2  0
 16 17  1  0
  1 18  1  0
  2 19  1  0
  3 20  1  0
  5 21  1  0
 12 22  1  0
 12 23  1  0
 12 24  1  0
 14 25  1  0
 17 26  1  0
 17 27  1  0
M  END
>  <mol_id>  (37) 
2026-09-18-6fnk-s0-n100-r3-0037

>  <rmsd_to_ref>  (37) 
2.107142857143588

>  <pose_kind>  (37) 
rigid

$$$$
6fnk.A
     RDKit          3D

 27 29  0  0  0  0  0  0  0  0999 V2000
    0.3730   15.3051   41.4064 C   0  0  0  0  0  0  0  0  0  0  0  0
    0.0133   14.0864   40.8439 C   0  0  0  0  0  0  0  0  0  0  0  0
    0.8001   13.6297   39.8010 C   0  0  0  0  0  0  0  0  0  0  0  0
    1.8601   14.3402   39.3612 N   0  0  0  0  0  0  0  0  0  0  0  0
    2.1993   15.5082   39.9053 C   0  0  0  0  0  0  0  0  0  0  0  0
    1.4589   16.0215   40.9475 C   0  0  0  0  0  0  0  0  0  0  0  0
    1.8027   17.2958   41.5646 C   0  0  0  0  0  0  0  0  0  0  0  0
    2.8589   17.9996   41.1234 N   0  0  0  0  0  0  0  0  0  0  0  0
    1.0758   17.7768   42.5712 N   0  0  0  0  0  0  0  0  0  0  0  0
    1.3504   18.9565   43.1820 C   0  0  0  0  0  0  0  0  0  0  0  0
    0.7804   19.6444   44.1974 N   0  0  0  0  0  0  0  0  0  0  0  0
   -0.3966   19.1386   44.8918 C   0  0  0  0  0  0  0  0  0  0  0  0
    1.4523   20.7588   44.4020 N   0  0  0  0  0  0  0  0  0  0  0  0
    2.4853   20.8333   43.5235 C   0  0  0  0  0  0  0  0  0  0  0  0
    2.4366   19.6883   42.7340 C   0  0  0  0  0  0  0  0  0  0  0  0
    3.1918   19.1918   41.6908 C   0  0  0  0  0  0  0  0  0  0  0  0
    4.3044   19.9578   41.2438 N   0  0  0  0  0  0  0  0  0  0  0  0
   -0.2167   15.7129   42.2356 H   0  0  0  0  0  0  0  0  0  0  0  0
   -0.8362   13.5663   41.2323 H   0  0  0  0  0  0  0  0  0  0  0  0
    0.5110   12.6776   39.3690 H   0  0  0  0  0  0  0  0  0  0  0  0
    3.0569   16.0298   39.5107 H   0  0  0  0  0  0  0  0  0  0  0  0
   -0.4250   19.5134   45.9423 H   0  0  0  0  0  0  0  0  0  0  0  0
   -0.3612   18.0233   44.9785 H   0  0  0  0  0  0  0  0  0  0  0  0
   -1.2770   19.4143   44.2950 H   0  0  0  0  0  0  0  0  0  0  0  0
    3.2208   21.6256   43.4362 H   0  0  0  0  0  0  0  0  0  0  0  0
    4.3084   20.9942   41.3514 H   0  0  0  0  0  0  0  0  0  0  0  0
    5.1528   19.5412   40.7973 H   0  0  0  0  0  0  0  0  0  0  0  0
  1  2  2  0
  1  6  1  0
  2  3  1  0
  3  4  2  0
  4  5  1  0
  5  6  2  0
  6  7  1  0
  7  8  2  0
  7  9  1  0
  8 16  1  0
  9 10  2  0
 10 11  1  0
 10 15  1  0
 11 12  1  0
 11 13  1  0
 13 14  2  0
 14 15  1  0
 15 16  2  0
 16 17  1  0
  1 18  1  0
  2 19  1  0
  3 20  1  0
  5 21  1  0
 12 22  1  0
 12 23  1  0
 12 24  1  0
 14 25  1  0
 17 26  1  0
 17 27  1  0
M  END
>  <mol_id>  (38) 
2026-09-18-6fnk-s0-n100-r3-0038

>  <rmsd_to_ref>  (38) 
2.1530612244943934

>  <pose_kind>  (38) 
conformer

$$$$
6fnk.A
     RDKit          3D

 27 29  0  0  0  0  0  0  0  0999 V2000
    3.1773   16.2082   42.9331 C   0  0  0  0  0  0  0  0  0  0  0  0
    3.9362   15.1945   43.5182 C   0  0  0  0  0  0  0  0  0  0  0  0
    3.5822   14.6948   44.7630 C   0  0  0  0  0  0  0  0  0  0  0  0
    2.4636   15.2050   45.4275 N   0  0  0  0  0  0  0  0  0  0  0  0
    1.7031   16.2258   44.8371 C   0  0  0  0  0  0  0  0  0  0  0  0
    2.0588   16.7299   43.5875 C   0  0  0  0  0  0  0  0  0  0  0  0
    1.3003   17.7490   43.0026 C   0  0  0  0  0  0  0  0  0  0  0  0
    1.7182   18.3695   41.8907 N   0  0  0  0  0  0  0  0  0  0  0  0
    0.1364   18.1108   43.5516 N   0  0  0  0  0  0  0  0  0  0  0  0
   -0.6164   19.0920   43.0231 C   0  0  0  0  0  0  0  0  0  0  0  0
   -1.7874   19.6289   43.3981 N   0  0  0  0  0  0  0  0  0  0  0  0
   -2.5832   19.2312   44.5632 C   0  0  0  0  0  0  0  0  0  0  0  0
   -2.1267   20.5170   42.6150 N   0  0  0  0  0  0  0  0  0  0  0  0
   -1.1917   20.5838   41.6530 C   0  0  0  0  0  0  0  0  0  0  0  0
   -0.2152   19.7042   41.9133 C   0  0  0  0  0  0  0  0  0  0  0  0
    0.9641   19.3386   41.3397 C   0  0  0  0  0  0  0  0  0  0  0  0
    1.4052   19.9438   40.2103 N   0  0  0  0  0  0  0  0  0  0  0  0
    3.4627   16.6010   41.9460 H   0  0  0  0  0  0  0  0  0  0  0  0
    4.8147   14.7916   42.9930 H   0  0  0  0  0  0  0  0  0  0  0  0
    4.1816   13.8974   45.2267 H   0  0  0  0  0  0  0  0  0  0  0  0
    0.8243   16.6289   45.3617 H   0  0  0  0  0  0  0  0  0  0  0  0
   -2.8243   20.1208   45.1636 H   0  0  0  0  0  0  0  0  0  0  0  0
   -3.5147   18.7535   44.2253 H   0  0  0  0  0  0  0  0  0  0  0  0
   -2.0078   18.5208   45.1750 H   0  0  0  0  0  0  0  0  0  0  0  0
   -1.2229   21.2577   40.7842 H   0  0  0  0  0  0  0  0  0  0  0  0
    0.8440   20.6879   39.7719 H   0  0  0  0  0  0  0  0  0  0  0  0
    2.3017   19.6596   39.7902 H   0  0  0  0  0  0  0  0  0  0  0  0
  1  2  2  0
  1  6  1  0
  2  3  1  0
  3  4  2  0
  4  5  1  0
  5  6  2  0
  6  7  1  0
  7  8  2  0
  7  9  1  0
  8 16  1  0
  9 10  2  0
 10 11  1  0
 10 15  1  0
 11 12  1  0
 11 13  1  0
 13 14  2  0
 14 15  1  0
 15 16  2  0
 16 17  1  0
  1 18  1  0
  2 19  1  0
  3 20  1  0
  5 21  1  0
 12 22  1  0
 12 23  1  0
 12 24  1  0
 14 25  1  0
 17 26  1  0
 17 27  1  0
M  END
>  <mol_id>  (39) 
2026-09-18-6fnk-s0-n100-r3-0039

>  <rmsd_to_ref>  (39) 
2.19897959184029

>  <pose_kind>  (39) 
rigid

$$$$
6fnk.A
     RDKit          3D

 27 29  0  0  0  0  0  0  0  0999 V2000
    3.0504   16.0784   42.8751 C   0  0  0  0  0  0  0  0  0  0  0  0
    3.4266   14.8920   43.4795 C   0  0  0  0  0  0  0  0  0  0  0  0
    2.7157   14.4028   44.5764 C   0  0  0  0  0  0  0  0  0  0  0  0
    1.6475   15.0708   45.0742 N   0  0  0  0  0  0  0  0  0  0  0  0
    1.2577   16.2375   44.4992 C   0  0  0  0  0  0  0  0  0  0  0  0
    1.9533   16.7482   43.3997 C   0  0  0  0  0  0  0  0  0  0  0  0
    1.5383   18.0142   42.7680 C   0  0  0  0  0  0  0  0  0  0  0  0
    2.2069   18.5179   41.7006 N   0  0  0  0  0  0  0  0  0  0  0  0
    0.4669   18.6587   43.2882 N   0  0  0  0  0  0  0  0  0  0  0  0
    0.0598   19.8288   42.7274 C   0  0  0  0  0  0  0  0  0  0  0  0
   -0.9550   20.6783   43.0242 N   0  0  0  0  0  0  0  0  0  0  0  0
   -1.9162   20.5108   44.1023 C   0  0  0  0  0  0  0  0  0  0  0  0
   -0.9056   21.6766   42.1575 N   0  0  0  0  0  0  0  0  0  0  0  0
    0.1023   21.5382   41.2844 C   0  0  0  0  0  0  0  0  0  0  0  0
    0.7415   20.3565   41.6275 C   0  0  0  0  0  0  0  0  0  0  0  0
    1.8393   19.6712   41.1150 C   0  0  0  0  0  0  0  0  0  0  0  0
    2.5480   20.1751   40.0082 N   0  0  0  0  0  0  0  0  0  0  0  0
    3.6093   16.4444   42.0280 H   0  0  0  0  0  0  0  0  0  0  0  0
    4.2918   14.3367   43.0879 H   0  0  0  0  0  0  0  0  0  0  0  0
    2.9997   13.4674   45.0653 H   0  0  0  0  0  0  0  0  0  0  0  0
    0.3931   16.7890   44.8933 H   0  0  0  0  0  0  0  0  0  0  0  0
   -2.7667   21.2058   43.9461 H   0  0  0  0  0  0  0  0  0  0  0  0
   -1.4183   20.6587   45.1052 H   0  0  0  0  0  0  0  0  0  0  0  0
   -2.3102   19.4779   44.0436 H   0  0  0  0  0  0  0  0  0  0  0  0
    0.4238   22.1522   40.4664 H   0  0  0  0  0  0  0  0  0  0  0  0
    2.3618   19.7414   39.0559 H   0  0  0  0  0  0  0  0  0  0  0  0
    3.2516   20.9645   40.1026 H   0  0  0  0  0  0  0  0  0  0  0  0
  1  2  2  0
  1  6  1  0
  2  3  1  0
  3  4  2  0
  4  5  1  0
  5  6  2  0
  6  7  1  0
  7  8  2  0
  7  9  1  0
  8 16  1  0
  9 10  2  0
 10 11  1  0
 10 15  1  0
 11 12  1  0
 11 13  1  0
 13 14  2  0
 14 15  1  0
 15 16  2  0
 16 17  1  0
  1 18  1  0
  2 19  1  0
  3 20  1  0
  5 21  1  0
 12 22  1  0
 12 23  1  0
 12 24  1  0
 14 25  1  0
 17 26  1  0
 17 27  1  0
M  END
>  <mol_id>  (40) 
2026-09-18-6fnk-s0-n100-r3-0040

>  <rmsd_to_ref>  (40) 
2.2448979591869715

>  <pose_kind>  (40) 
conformer

$$$$
6fnk.A
     RDKit          3D

 27 29  0  0  0  0  0  0  0  0999 V2000
    4.0385   15.3944   42.8938 C   0  0  0  0  0  0  0  0  0  0  0  0
    4.4346   14.2056   43.5068 C   0  0  0  0  0  0  0  0  0  0  0  0
    3.7377   13.7278   44.6070 C   0  0  0  0  0  0  0  0  0  0  0  0
    2.6373   14.4361   45.0976 N   0  0  0  0  0  0  0  0  0  0  0  0
    2.2422   15.6324   44.4799 C   0  0  0  0  0  0  0  0  0  0  0  0
    2.9426   16.1144   43.3757 C   0  0  0  0  0  0  0  0  0  0  0  0
    2.5478   17.3084   42.7636 C   0  0  0  0  0  0  0  0  0  0  0  0
    3.3037   17.8820   41.8172 N   0  0  0  0  0  0  0  0  0  0  0  0
    1.3970   17.8888   43.1181 N   0  0  0  0  0  0  0  0  0  0  0  0
    0.9884   19.0415   42.5583 C   0  0  0  0  0  0  0  0  0  0  0  0
   -0.0974   19.8038   42.7589 N   0  0  0  0  0  0  0  0  0  0  0  0
   -1.1795   19.5282   43.7086 C   0  0  0  0  0  0  0  0  0  0  0  0
   -0.0778   20.7880   42.0186 N   0  0  0  0  0  0  0  0  0  0  0  0
    1.0274   20.6989   41.2605 C   0  0  0  0  0  0  0  0  0  0  0  0
    1.7261   19.6106   41.6101 C   0  0  0  0  0  0  0  0  0  0  0  0
    2.8959   19.0244   41.2341 C   0  0  0  0  0  0  0  0  0  0  0  0
    3.6743   19.5789   40.2735 N   0  0  0  0  0  0  0  0  0  0  0  0
    4.5948   15.7689   42.0219 H   0  0  0  0  0  0  0  0  0  0  0  0
    5.2990   13.6474   43.1179 H   0  0  0  0  0  0  0  0  0  0  0  0
    4.0510   12.7920   45.0929 H   0  0  0  0  0  0  0  0  0  0  0  0
    1.3777   16.1910   44.8680 H   0  0  0  0  0  0  0  0  0  0  0  0
   -1.3486   20.4137   44.3389 H   0  0  0  0  0  0  0  0  0  0  0  0
   -2.1005   19.2900   43.1562 H   0  0  0  0  0  0  0  0  0  0  0  0
   -0.9015   18.6740   44.3435 H   0  0  0  0  0  0  0  0  0  0  0  0
    1.3150   21.4109   40.4728 H   0  0  0  0  0  0  0  0  0  0  0  0
    3.3814   20.4529   39.8141 H   0  0  0  0  0  0  0  0  0  0  0  0
    4.5590   19.1262   40.0027 H   0  0  0  0  0  0  0  0  0  0  0  0
  1  2  2  0
  1  6  1  0
  2  3  1  0
  3  4  2  0
  4  5  1  0
  5  6  2  0
  6  7  1  0
  7  8  2  0
  7  9  1  0
  8 16  1  0
  9 10  2  0
 10 11  1  0
 10 15  1  0
 11 12  1  0
 11 13  1  0
 13 14  2  0
 14 15  1  0
 15 16  2  0
 16 17  1  0
  1 18  1  0
  2 19  1  0
  3 20  1  0
  5 21  1  0
 12 22  1  0
 12 23  1  0
 12 24  1  0
 14 25  1  0
 17 26  1  0
 17 27  1  0
M  END
>  <mol_id>  (41) 
2026-09-18-6fnk-s0-n100-r3-0041

>  <rmsd_to_ref>  (41) 
2.290816326538539

>  <pose_kind>  (41) 
rigid

$$$$
6fnk.A
     RDKit          3D

 27 29  0  0  0  0  0  0  0  0999 V2000
    1.8048   15.2538   42.7777 C   0  0  0  0  0  0  0  0  0  0  0  0
    1.5765   14.0323   42.1662 C   0  0  0  0  0  0  0  0  0  0  0  0
    1.2872   14.0242   40.7985 C   0  0  0  0  0  0  0  0  0  0  0  0
    1.2314   15.1691   40.0933 N   0  0  0  0  0  0  0  0  0  0  0  0
    1.4520   16.3712   40.6755 C   0  0  0  0  0  0  0  0  0  0  0  0
    1.7392   16.4143   42.0196 C   0  0  0  0  0  0  0  0  0  0  0  0
    1.9786   17.7061   42.6567 C   0  0  0  0  0  0  0  0  0  0  0  0
    1.9116   18.8238   41.9082 N   0  0  0  0  0  0  0  0  0  0  0  0
    2.2627   17.7632   43.9808 N   0  0  0  0  0  0  0  0  0  0  0  0
    2.4898   18.9347   44.6055 C   0  0  0  0  0  0  0  0  0  0  0  0
    2.7849   19.2696   45.8751 N   0  0  0  0  0  0  0  0  0  0  0  0
    2.9502   18.3771   47.0021 C   0  0  0  0  0  0  0  0  0  0  0  0
    2.9121   20.5983   45.9658 N   0  0  0  0  0  0  0  0  0  0  0  0
    2.6927   21.1136   44.7277 C   0  0  0  0  0  0  0  0  0  0  0  0
    2.4213   20.0892   43.8361 C   0  0  0  0  0  0  0  0  0  0  0  0
    2.1308   20.0465   42.4763 C   0  0  0  0  0  0  0  0  0  0  0  0
    2.0678   21.2474   41.7151 N   0  0  0  0  0  0  0  0  0  0  0  0
    2.0283   15.2581   43.8348 H   0  0  0  0  0  0  0  0  0  0  0  0
    1.6241   13.1191   42.7434 H   0  0  0  0  0  0  0  0  0  0  0  0
    1.1172   13.0450   40.3705 H   0  0  0  0  0  0  0  0  0  0  0  0
    1.3877   17.2355   40.0379 H   0  0  0  0  0  0  0  0  0  0  0  0
    2.4614   18.8703   47.8805 H   0  0  0  0  0  0  0  0  0  0  0  0
    3.9907   18.1966   47.2812 H   0  0  0  0  0  0  0  0  0  0  0  0
    2.4664   17.3939   46.8359 H   0  0  0  0  0  0  0  0  0  0  0  0
    2.7140   22.1591   44.4258 H   0  0  0  0  0  0  0  0  0  0  0  0
    1.1906   21.5250   41.1978 H   0  0  0  0  0  0  0  0  0  0  0  0
    2.9296   21.8375   41.6942 H   0  0  0  0  0  0  0  0  0  0  0  0
  1  2  2  0
  1  6  1  0
  2  3  1  0
  3  4  2  0
  4  5  1  0
  5  6  2  0
  6  7  1  0
  7  8  2  0
  7  9  1  0
  8 16  1  0
  9 10  2  0
 10 11  1  0
 10 15  1  0
 11 12  1  0
 11 13  1  0
 13 14  2  0
 14 15  1  0
 15 16  2  0
 16 17  1  0
  1 18  1  0
  2 19  1  0
  3 20  1  0
  5 21  1  0
 12 22  1  0
 12 23  1  0
 12 24  1  0
 14 25  1  0
 17 26  1  0
 17 27  1  0
M  END
>  <mol_id>  (42) 
2026-09-18-6fnk-s0-n100-r3-0042

>  <rmsd_to_ref>  (42) 
2.336734693881545

>  <pose_kind>  (42) 
conformer

$$$$
6fnk.A
     RDKit          3D

 27 29  0  0  0  0  0  0  0  0999 V2000
    1.0689   14.0370   41.0529 C   0  0  0  0  0  0  0  0  0  0  0  0
    1.3309   12.6766   41.2167 C   0  0  0  0  0  0  0  0  0  0  0  0
    2.1415   12.2476   42.2575 C   0  0  0  0  0  0  0  0  0  0  0  0
    2.6916   13.1786   43.1430 N   0  0  0  0  0  0  0  0  0  0  0  0
    2.4275   14.5463   42.9749 C   0  0  0  0  0  0  0  0  0  0  0  0
    1.6149   14.9787   41.9285 C   0  0  0  0  0  0  0  0  0  0  0  0
    1.3554   16.3429   41.7620 C   0  0  0  0  0  0  0  0  0  0  0  0
    0.7265   16.7979   40.6696 N   0  0  0  0  0  0  0  0  0  0  0  0
    1.7318   17.2117   42.7057 N   0  0  0  0  0  0  0  0  0  0  0  0
    1.5075   18.5315   42.5772 C   0  0  0  0  0  0  0  0  0  0  0  0
    1.8018   19.5753   43.3672 N   0  0  0  0  0  0  0  0  0  0  0  0
    2.4866   19.5093   44.6617 C   0  0  0  0  0  0  0  0  0  0  0  0
    1.4061   20.6262   42.8609 N   0  0  0  0  0  0  0  0  0  0  0  0
    0.7935   20.3113   41.7078 C   0  0  0  0  0  0  0  0  0  0  0  0
    0.8733   18.9898   41.5025 C   0  0  0  0  0  0  0  0  0  0  0  0
    0.4771   18.1139   40.5385 C   0  0  0  0  0  0  0  0  0  0  0  0
   -0.1686   18.5467   39.4284 N   0  0  0  0  0  0  0  0  0  0  0  0
    0.4257   14.3716   40.2258 H   0  0  0  0  0  0  0  0  0  0  0  0
    0.8950   11.9446   40.5209 H   0  0  0  0  0  0  0  0  0  0  0  0
    2.3512   11.1755   42.3858 H   0  0  0  0  0  0  0  0  0  0  0  0
    2.8629   15.2789   43.6704 H   0  0  0  0  0  0  0  0  0  0  0  0
    3.3330   20.2119   44.6649 H   0  0  0  0  0  0  0  0  0  0  0  0
    1.7829   19.7792   45.4629 H   0  0  0  0  0  0  0  0  0  0  0  0
    2.8578   18.4874   44.8285 H   0  0  0  0  0  0  0  0  0  0  0  0
    0.3013   21.0289   41.0349 H   0  0  0  0  0  0  0  0  0  0  0  0
   -0.3696   19.5497   39.3077 H   0  0  0  0  0  0  0  0  0  0  0  0
   -0.4583   17.8727   38.7055 H   0  0  0  0  0  0  0  0  0  0  0  0
  1  2  2  0
  1  6  1  0
  2  3  1  0
  3  4  2  0
  4  5  1  0
  5  6  2  0
  6  7  1  0
  7  8  2  0
  7  9  1  0
  8 16  1  0
  9 10  2  0
 10 11  1  0
 10 15  1  0
 11 12  1  0
 11 13  1  0
 13 14  2  0
 14 15  1  0
 15 16  2  0
 16 17  1  0
  1 18  1  0
  2 19  1  0
  3 20  1  0
  5 21  1  0
 12 22  1  0
 12 23  1  0
 12 24  1  0
 14 25  1  0
 17 26  1  0
 17 27  1  0
M  END
>  <mol_id>  (43) 
2026-09-18-6fnk-s0-n100-r3-0043

>  <rmsd_to_ref>  (43) 
2.382653061228227

>  <pose_kind>  (43) 
rigid

$$$$
6fnk.A
     RDKit          3D

 27 29  0  0  0  0  0  0  0  0999 V2000
    2.4591   18.1289   39.7458 C   0  0  0  0  0  0  0  0  0  0  0  0
    2.9153   17.4965   38.6044 C   0  0  0  0  0  0  0  0  0  0  0  0
    3.5725   16.2764   38.7717 C   0  0  0  0  0  0  0  0  0  0  0  0
    3.7649   15.7246   39.9631 N   0  0  0  0  0  0  0  0  0  0  0  0
    3.3360   16.3126   41.0752 C   0  0  0  0  0  0  0  0  0  0  0  0
    2.6757   17.5261   40.9786 C   0  0  0  0  0  0  0  0  0  0  0  0
    2.1752   18.2286   42.1790 C   0  0  0  0  0  0  0  0  0  0  0  0
    1.5330   19.4074   42.0923 N   0  0  0  0  0  0  0  0  0  0  0  0
    2.3892   17.6346   43.3888 N   0  0  0  0  0  0  0  0  0  0  0  0
    1.9528   18.2336   44.5159 C   0  0  0  0  0  0  0  0  0  0  0  0
    2.0006   17.9231   45.8287 N   0  0  0  0  0  0  0  0  0  0  0  0
    2.5950   16.7459   46.4166 C   0  0  0  0  0  0  0  0  0  0  0  0
    1.4112   18.8685   46.5494 N   0  0  0  0  0  0  0  0  0  0  0  0
    0.9488   19.8446   45.7395 C   0  0  0  0  0  0  0  0  0  0  0  0
    1.2878   19.4502   44.4487 C   0  0  0  0  0  0  0  0  0  0  0  0
    1.0870   20.0270   43.1998 C   0  0  0  0  0  0  0  0  0  0  0  0
    0.4122   21.2728   43.0652 N   0  0  0  0  0  0  0  0  0  0  0  0
    1.9425   19.0804   39.6583 H   0  0  0  0  0  0  0  0  0  0  0  0
    2.7759   17.9169   37.6205 H   0  0  0  0  0  0  0  0  0  0  0  0
    3.9148   15.8150   37.8393 H   0  0  0  0  0  0  0  0  0  0  0  0
    3.4732   15.8944   42.0682 H   0  0  0  0  0  0  0  0  0  0  0  0
    3.6814   16.8682   46.6337 H   0  0  0  0  0  0  0  0  0  0  0  0
    2.1080   16.4934   47.3812 H   0  0  0  0  0  0  0  0  0  0  0  0
    2.4909   15.8979   45.7110 H   0  0  0  0  0  0  0  0  0  0  0  0
    0.4202   20.7577   46.0029 H   0  0  0  0  0  0  0  0  0  0  0  0
   -0.5893   21.3107   42.7285 H   0  0  0  0  0  0  0  0  0  0  0  0
    0.9255   22.1369   43.3046 H   0  0  0  0  0  0  0  0  0  0  0  0
  1  2  2  0
  1  6  1  0
  2  3  1  0
  3  4  2  0
  4  5  1  0
  5  6  2  0
  6  7  1  0
  7  8  2  0
  7  9  1  0
  8 16  1  0
  9 10  2  0
 10 11  1  0
 10 15  1  0
 11 12  1  0
 11 13  1  0
 13 14  2  0
 14 15  1  0
 15 16  2  0
 16 17  1  0
  1 18  1  0
  2 19  1  0
  3 20  1  0
  5 21  1  0
 12 22  1  0
 12 23  1  0
 12 24  1  0
 14 25  1  0
 17 26  1  0
 17 27  1  0
M  END
>  <mol_id>  (44) 
2026-09-18-6fnk-s0-n100-r3-0044

>  <rmsd_to_ref>  (44) 
2.4285714285782127

>  <pose_kind>  (44) 
conformer

$$$$
6fnk.A
     RDKit          3D

 27 29  0  0  0  0  0  0  0  0999 V2000
    1.9423   18.5492   39.8775 C   0  0  0  0  0  0  0  0  0  0  0  0
    1.9364   17.8730   38.6575 C   0  0  0  0  0  0  0  0  0  0  0  0
    1.8427   16.4891   38.6329 C   0  0  0  0  0  0  0  0  0  0  0  0
    1.7505   15.7744   39.8304 N   0  0  0  0  0  0  0  0  0  0  0  0
    1.7583   16.4573   41.0562 C   0  0  0  0  0  0  0  0  0  0  0  0
    1.8543   17.8474   41.0822 C   0  0  0  0  0  0  0  0  0  0  0  0
    1.8641   18.5251   42.3056 C   0  0  0  0  0  0  0  0  0  0  0  0
    2.1306   19.8371   42.3660 N   0  0  0  0  0  0  0  0  0  0  0  0
    1.5982   17.8621   43.4355 N   0  0  0  0  0  0  0  0  0  0  0  0
    1.6069   18.4775   44.6314 C   0  0  0  0  0  0  0  0  0  0  0  0
    1.3913   18.0270   45.8767 N   0  0  0  0  0  0  0  0  0  0  0  0
    1.0637   16.6473   46.2486 C   0  0  0  0  0  0  0  0  0  0  0  0
    1.4963   18.9436   46.6926 N   0  0  0  0  0  0  0  0  0  0  0  0
    1.7593   20.0666   46.0042 C   0  0  0  0  0  0  0  0  0  0  0  0
    1.8581   19.7811   44.6989 C   0  0  0  0  0  0  0  0  0  0  0  0
    2.1217   20.4692   43.5542 C   0  0  0  0  0  0  0  0  0  0  0  0
    2.3854   21.7980   43.5866 N   0  0  0  0  0  0  0  0  0  0  0  0
    2.0170   19.6466   39.8912 H   0  0  0  0  0  0  0  0  0  0  0  0
    2.0060   18.4367   37.7154 H   0  0  0  0  0  0  0  0  0  0  0  0
    1.8409   15.9546   37.6715 H   0  0  0  0  0  0  0  0  0  0  0  0
    1.6884   15.8942   41.9985 H   0  0  0  0  0  0  0  0  0  0  0  0
    1.7526   16.3063   47.0355 H   0  0  0  0  0  0  0  0  0  0  0  0
    0.0300   16.6039   46.6221 H   0  0  0  0  0  0  0  0  0  0  0  0
    1.1627   15.9966   45.3673 H   0  0  0  0  0  0  0  0  0  0  0  0
    1.8757   21.0678   46.4448 H   0  0  0  0  0  0  0  0  0  0  0  0
    2.3838   22.3017   44.4850 H   0  0  0  0  0  0  0  0  0  0  0  0
    2.5875   22.3044   42.7127 H   0  0  0  0  0  0  0  0  0  0  0  0
  1  2  2  0
  1  6  1  0
  2  3  1  0
  3  4  2  0
  4  5  1  0
  5  6  2  0
  6  7  1  0
  7  8  2  0
  7  9  1  0
  8 16  1  0
  9 10  2  0
 10 11  1  0
 10 15  1  0
 11 12  1  0
 11 13  1  0
 13 14  2  0
 14 15  1  0
 15 16  2  0
 16 17  1  0
  1 18  1  0
  2 19  1  0
  3 20  1  0
  5 21  1  0
 12 22  1  0
 12 23  1  0
 12 24  1  0
 14 25  1  0
 17 26  1  0
 17 27  1  0
M  END
>  <mol_id>  (45) 
2026-09-18-6fnk-s0-n100-r3-0045

>  <rmsd_to_ref>  (45) 
2.4744897959258787

>  <pose_kind>  (45) 
rigid

$$$$
6fnk.A
     RDKit          3D

 27 29  0  0  0  0  0  0  0  0999 V2000
    1.0574   15.2396   42.1726 C   0  0  0  0  0  0  0  0  0  0  0  0
    0.8495   14.3441   41.1429 C   0  0  0  0  0  0  0  0  0  0  0  0
    0.6840   14.8391   39.8475 C   0  0  0  0  0  0  0  0  0  0  0  0
    0.7221   16.1582   39.5817 N   0  0  0  0  0  0  0  0  0  0  0  0
    0.9280   17.0352   40.6066 C   0  0  0  0  0  0  0  0  0  0  0  0
    1.0969   16.5961   41.9019 C   0  0  0  0  0  0  0  0  0  0  0  0
    1.3134   17.5798   42.9553 C   0  0  0  0  0  0  0  0  0  0  0  0
    1.3359   18.8784   42.5947 N   0  0  0  0  0  0  0  0  0  0  0  0
    1.4833   17.2034   44.2336 N   0  0  0  0  0  0  0  0  0  0  0  0
    1.6845   18.1435   45.2022 C   0  0  0  0  0  0  0  0  0  0  0  0
    1.8814   18.1195   46.5215 N   0  0  0  0  0  0  0  0  0  0  0  0
    1.9344   16.9172   47.3467 C   0  0  0  0  0  0  0  0  0  0  0  0
    2.0254   19.3631   46.9906 N   0  0  0  0  0  0  0  0  0  0  0  0
    1.9209   20.2154   45.9601 C   0  0  0  0  0  0  0  0  0  0  0  0
    1.7035   19.4704   44.8074 C   0  0  0  0  0  0  0  0  0  0  0  0
    1.5321   19.8582   43.5144 C   0  0  0  0  0  0  0  0  0  0  0  0
    1.5530   21.2176   43.1190 N   0  0  0  0  0  0  0  0  0  0  0  0
    1.1840   14.8627   43.1629 H   0  0  0  0  0  0  0  0  0  0  0  0
    0.8157   13.2911   41.3319 H   0  0  0  0  0  0  0  0  0  0  0  0
    0.5176   14.1827   38.9992 H   0  0  0  0  0  0  0  0  0  0  0  0
    0.9482   18.0894   40.3263 H   0  0  0  0  0  0  0  0  0  0  0  0
    0.9112   16.5103   47.4263 H   0  0  0  0  0  0  0  0  0  0  0  0
    2.2673   17.1608   48.3749 H   0  0  0  0  0  0  0  0  0  0  0  0
    2.6805   16.1946   46.9413 H   0  0  0  0  0  0  0  0  0  0  0  0
    2.0010   21.2924   46.0699 H   0  0  0  0  0  0  0  0  0  0  0  0
    1.7266   21.9531   43.8216 H   0  0  0  0  0  0  0  0  0  0  0  0
    1.3974   21.4960   42.1358 H   0  0  0  0  0  0  0  0  0  0  0  0
  1  2  2  0
  1  6  1  0
  2  3  1  0
  3  4  2  0
  4  5  1  0
  5  6  2  0
  6  7  1  0
  7  8  2  0
  7  9  1  0
  8 16  1  0
  9 10  2  0
 10 11  1  0
 10 15  1  0
 11 12  1  0
 11 13  1  0
 13 14  2  0
 14 15  1  0
 15 16  2  0
 16 17  1  0
  1 18  1  0
  2 19  1  0
  3 20  1  0
  5 21  1  0
 12 22  1  0
 12 23  1  0
 12 24  1  0
 14 25  1  0
 17 26  1  0
 17 27  1  0
M  END
>  <mol_id>  (46) 
2026-09-18-6fnk-s0-n100-r3-0046

>  <rmsd_to_ref>  (46) 
2.520408163271083

>  <pose_kind>  (46) 
conformer

$$$$
6fnk.A
     RDKit          3D

 27 29  0  0  0  0  0  0  0  0999 V2000
    3.2640   16.9426   42.3938 C   0  0  0  0  0  0  0  0  0  0  0  0
    4.4109   16.2768   42.8265 C   0  0  0  0  0  0  0  0  0  0  0  0
    4.7958   16.3532   44.1571 C   0  0  0  0  0  0  0  0  0  0  0  0
    4.0320   17.0941   45.0631 N   0  0  0  0  0  0  0  0  0  0  0  0
    2.8798   17.7640   44.6246 C   0  0  0  0  0  0  0  0  0  0  0  0
    2.4931   17.6895   43.2878 C   0  0  0  0  0  0  0  0  0  0  0  0
    1.3454   18.3603   42.8532 C   0  0  0  0  0  0  0  0  0  0  0  0
    1.0502   18.4499   41.5490 N   0  0  0  0  0  0  0  0  0  0  0  0
    0.5220   18.9176   43.7468 N   0  0  0  0  0  0  0  0  0  0  0  0
   -0.5862   19.5781   43.3667 C   0  0  0  0  0  0  0  0  0  0  0  0
   -1.5353   20.2197   44.0652 N   0  0  0  0  0  0  0  0  0  0  0  0
   -1.5888   20.3531   45.5241 C   0  0  0  0  0  0  0  0  0  0  0  0
   -2.3865   20.6890   43.3086 N   0  0  0  0  0  0  0  0  0  0  0  0
   -2.0459   20.3430   42.0562 C   0  0  0  0  0  0  0  0  0  0  0  0
   -0.8929   19.6610   42.0759 C   0  0  0  0  0  0  0  0  0  0  0  0
   -0.0669   19.0899   41.1567 C   0  0  0  0  0  0  0  0  0  0  0  0
   -0.3470   19.1583   39.8325 N   0  0  0  0  0  0  0  0  0  0  0  0
    2.9635   16.8788   41.3376 H   0  0  0  0  0  0  0  0  0  0  0  0
    5.0096   15.6915   42.1131 H   0  0  0  0  0  0  0  0  0  0  0  0
    5.7017   15.8310   44.4988 H   0  0  0  0  0  0  0  0  0  0  0  0
    2.2804   18.3493   45.3375 H   0  0  0  0  0  0  0  0  0  0  0  0
   -1.7138   21.4129   45.7910 H   0  0  0  0  0  0  0  0  0  0  0  0
   -2.4387   19.7740   45.9143 H   0  0  0  0  0  0  0  0  0  0  0  0
   -0.6540   19.9726   45.9616 H   0  0  0  0  0  0  0  0  0  0  0  0
   -2.6253   20.5829   41.1525 H   0  0  0  0  0  0  0  0  0  0  0  0
   -1.1966   19.6432   39.5102 H   0  0  0  0  0  0  0  0  0  0  0  0
    0.2898   18.7252   39.1485 H   0  0  0  0  0  0  0  0  0  0  0  0
  1  2  2  0
  1  6  1  0
  2  3  1  0
  3  4  2  0
  4  5  1  0
  5  6  2  0
  6  7  1  0
  7  8  2  0
  7  9  1  0
  8 16  1  0
  9 10  2  0
 10 11  1  0
 10 15  1  0
 11 12  1  0
 11 13  1  0
 13 14  2  0
 14 15  1  0
 15 16  2  0
 16 17  1  0
  1 18  1  0
  2 19  1  0
  3 20  1  0
  5 21  1  0
 12 22  1  0
 12 23  1  0
 12 24  1  0
 14 25  1  0
 17 26  1  0
 17 27  1  0
M  END
>  <mol_id>  (47) 
2026-09-18-6fnk-s0-n100-r3-0047

>  <rmsd_to_ref>  (47) 
2.5663265306128755

>  <pose_kind>  (47) 
rigid

$$$$
6fnk.A
     RDKit          3D

 27 29  0  0  0  0  0  0  0  0999 V2000
    0.7081   15.8076   41.0447 C   0  0  0  0  0  0  0  0  0  0  0  0
    0.1162   14.5618   41.0003 C   0  0  0  0  0  0  0  0  0  0  0  0
   -0.7378   14.1944   42.0228 C   0  0  0  0  0  0  0  0  0  0  0  0
   -0.9799   15.0536   43.0443 N   0  0  0  0  0  0  0  0  0  0  0  0
   -0.4065   16.2781   43.1006 C   0  0  0  0  0  0  0  0  0  0  0  0
    0.4544   16.6803   42.0942 C   0  0  0  0  0  0  0  0  0  0  0  0
    1.1058   17.9950   42.1002 C   0  0  0  0  0  0  0  0  0  0  0  0
    1.9360   18.3459   41.1016 N   0  0  0  0  0  0  0  0  0  0  0  0
    0.8443   18.8304   43.1334 N   0  0  0  0  0  0  0  0  0  0  0  0
    1.4480   20.0542   43.1429 C   0  0  0  0  0  0  0  0  0  0  0  0
    1.4007   21.0844   43.9976 N   0  0  0  0  0  0  0  0  0  0  0  0
    0.6371   21.1779   45.2324 C   0  0  0  0  0  0  0  0  0  0  0  0
    2.1723   22.0734   43.5730 N   0  0  0  0  0  0  0  0  0  0  0  0
    2.7538   21.7055   42.4074 C   0  0  0  0  0  0  0  0  0  0  0  0
    2.3028   20.4320   42.1273 C   0  0  0  0  0  0  0  0  0  0  0  0
    2.5379   19.5474   41.0971 C   0  0  0  0  0  0  0  0  0  0  0  0
    3.4096   19.8955   40.0330 N   0  0  0  0  0  0  0  0  0  0  0  0
    1.3836   16.0896   40.2294 H   0  0  0  0  0  0  0  0  0  0  0  0
    0.3490   13.9244   40.1613 H   0  0  0  0  0  0  0  0  0  0  0  0
   -1.2021   13.2068   41.9800 H   0  0  0  0  0  0  0  0  0  0  0  0
   -0.6199   16.9415   43.9298 H   0  0  0  0  0  0  0  0  0  0  0  0
    0.2025   20.2164   45.5087 H   0  0  0  0  0  0  0  0  0  0  0  0
   -0.1816   21.8932   45.0493 H   0  0  0  0  0  0  0  0  0  0  0  0
    1.2862   21.4949   46.0754 H   0  0  0  0  0  0  0  0  0  0  0  0
    3.4425   22.2660   41.7836 H   0  0  0  0  0  0  0  0  0  0  0  0
    3.4690   20.8983   39.7737 H   0  0  0  0  0  0  0  0  0  0  0  0
    3.9342   19.1261   39.5794 H   0  0  0  0  0  0  0  0  0  0  0  0
  1  2  2  0
  1  6  1  0
  2  3  1  0
  3  4  2  0
  4  5  1  0
  5  6  2  0
  6  7  1  0
  7  8  2  0
  7  9  1  0
  8 16  1  0
  9 10  2  0
 10 11  1  0
 10 15  1  0
 11 12  1  0
 11 13  1  0
 13 14  2  0
 14 15  1  0
 15 16  2  0
 16 17  1  0
  1 18  1  0
  2 19  1  0
  3 20  1  0
  5 21  1  0
 12 22  1  0
 12 23  1  0
 12 24  1  0
 14 25  1  0
 17 26  1  0
 17 27  1  0
M  END
>  <mol_id>  (48) 
2026-09-18-6fnk-s0-n100-r3-0048

>  <rmsd_to_ref>  (48) 
2.6122448979646715

>  <pose_kind>  (48) 
conformer

$$$$
6fnk.A
     RDKit          3D

 27 29  0  0  0  0  0  0  0  0999 V2000
    3.1695   17.7820   40.2661 C   0  0  0  0  0  0  0  0  0  0  0  0
    4.0457   17.4282   39.2399 C   0  0  0  0  0  0  0  0  0  0  0  0
    4.3883   16.0975   39.0494 C   0  0  0  0  0  0  0  0  0  0  0  0
    3.8522   15.1125   39.8834 N   0  0  0  0  0  0  0  0  0  0  0  0
    2.9723   15.4715   40.9158 C   0  0  0  0  0  0  0  0  0  0  0  0
    2.6289   16.8083   41.1094 C   0  0  0  0  0  0  0  0  0  0  0  0
    1.7535   17.1633   42.1408 C   0  0  0  0  0  0  0  0  0  0  0  0
    1.5457   18.4486   42.4583 N   0  0  0  0  0  0  0  0  0  0  0  0
    1.1057   16.2119   42.8206 N   0  0  0  0  0  0  0  0  0  0  0  0
    0.2629   16.5139   43.8242 C   0  0  0  0  0  0  0  0  0  0  0  0
   -0.4723   15.7467   44.6434 N   0  0  0  0  0  0  0  0  0  0  0  0
   -0.5348   14.2822   44.6260 C   0  0  0  0  0  0  0  0  0  0  0  0
   -1.1146   16.4446   45.4292 N   0  0  0  0  0  0  0  0  0  0  0  0
   -0.8502   17.7283   45.1355 C   0  0  0  0  0  0  0  0  0  0  0  0
    0.0416   17.7867   44.1374 C   0  0  0  0  0  0  0  0  0  0  0  0
    0.6887   18.7652   43.4466 C   0  0  0  0  0  0  0  0  0  0  0  0
    0.4896   20.0728   43.7415 N   0  0  0  0  0  0  0  0  0  0  0  0
    2.9015   18.8387   40.4129 H   0  0  0  0  0  0  0  0  0  0  0  0
    4.4647   18.2040   38.5822 H   0  0  0  0  0  0  0  0  0  0  0  0
    5.0814   15.8178   38.2423 H   0  0  0  0  0  0  0  0  0  0  0  0
    2.5527   14.6963   41.5738 H   0  0  0  0  0  0  0  0  0  0  0  0
   -0.3434   13.8949   45.6377 H   0  0  0  0  0  0  0  0  0  0  0  0
   -1.5332   13.9617   44.2936 H   0  0  0  0  0  0  0  0  0  0  0  0
    0.2253   13.8909   43.9338 H   0  0  0  0  0  0  0  0  0  0  0  0
   -1.2975   18.5987   45.6378 H   0  0  0  0  0  0  0  0  0  0  0  0
   -0.1619   20.3376   44.4941 H   0  0  0  0  0  0  0  0  0  0  0  0
    0.9897   20.8019   43.2131 H   0  0  0  0  0  0  0  0  0  0  0  0
  1  2  2  0
  1  6  1  0
  2  3  1  0
  3  4  2  0
  4  5  1  0
  5  6  2  0
  6  7  1  0
  7  8  2  0
  7  9  1  0
  8 16  1  0
  9 10  2  0
 10 11  1  0
 10 15  1  0
 11 12  1  0
 11 13  1  0
 13 14  2  0
 14 15  1  0
 15 16  2  0
 16 17  1  0
  1 18  1  0
  2 19  1  0
  3 20  1  0
  5 21  1  0
 12 22  1  0
 12 23  1  0
 12 24  1  0
 14 25  1  0
 17 26  1  0
 17 27  1  0
M  END
>  <mol_id>  (49) 
2026-09-18-6fnk-s0-n100-r3-0049

>  <rmsd_to_ref>  (49) 
2.6581632653061327

>  <pose_kind>  (49) 
rigid

$$$$
6fnk.A
     RDKit          3D

 27 29  0  0  0  0  0  0  0  0999 V2000
    3.5199   15.3331   43.1525 C   0  0  0  0  0  0  0  0  0  0  0  0
    4.0636   14.3243   43.9436 C   0  0  0  0  0  0  0  0  0  0  0  0
    3.2682   13.6382   44.8630 C   0  0  0  0  0  0  0  0  0  0  0  0
    1.9494   13.9594   44.9861 N   0  0  0  0  0  0  0  0  0  0  0  0
    1.4126   14.9425   44.2175 C   0  0  0  0  0  0  0  0  0  0  0  0
    2.1641   15.6442   43.2974 C   0  0  0  0  0  0  0  0  0  0  0  0
    1.5846   16.6993   42.4736 C   0  0  0  0  0  0  0  0  0  0  0  0
    2.2784   17.4035   41.5702 N   0  0  0  0  0  0  0  0  0  0  0  0
    0.2753   16.9800   42.6325 N   0  0  0  0  0  0  0  0  0  0  0  0
   -0.3582   17.9451   41.9127 C   0  0  0  0  0  0  0  0  0  0  0  0
   -1.6324   18.3749   41.9169 N   0  0  0  0  0  0  0  0  0  0  0  0
   -2.6812   17.8406   42.7733 C   0  0  0  0  0  0  0  0  0  0  0  0
   -1.7361   19.3561   41.0083 N   0  0  0  0  0  0  0  0  0  0  0  0
   -0.5234   19.5509   40.4244 C   0  0  0  0  0  0  0  0  0  0  0  0
    0.3838   18.6551   40.9879 C   0  0  0  0  0  0  0  0  0  0  0  0
    1.7144   18.3740   40.8225 C   0  0  0  0  0  0  0  0  0  0  0  0
    2.4740   19.1058   39.8710 N   0  0  0  0  0  0  0  0  0  0  0  0
    4.1409   15.8784   42.4256 H   0  0  0  0  0  0  0  0  0  0  0  0
    5.1261   14.0785   43.8320 H   0  0  0  0  0  0  0  0  0  0  0  0
    3.6895   12.8523   45.4801 H   0  0  0  0  0  0  0  0  0  0  0  0
    0.3657   15.1876   44.3246 H   0  0  0  0  0  0  0  0  0  0  0  0
   -2.9017   16.7930   42.4340 H   0  0  0  0  0  0  0  0  0  0  0  0
   -3.5713   18.4712   42.7906 H   0  0  0  0  0  0  0  0  0  0  0  0
   -2.2907   17.7739   43.8209 H   0  0  0  0  0  0  0  0  0  0  0  0
   -0.2621   20.2695   39.6486 H   0  0  0  0  0  0  0  0  0  0  0  0
    3.4753   19.2751   40.0170 H   0  0  0  0  0  0  0  0  0  0  0  0
    2.0560   19.5024   38.9876 H   0  0  0  0  0  0  0  0  0  0  0  0
  1  2  2  0
  1  6  1  0
  2  3  1  0
  3  4  2  0
  4  5  1  0
  5  6  2  0
  6  7  1  0
  7  8  2  0
  7  9  1  0
  8 16  1  0
  9 10  2  0
 10 11  1  0
 10 15  1  0
 11 12  1  0
 11 13  1  0
 13 14  2  0
 14 15  1  0
 15 16  2  0
 16 17  1  0
  1 18  1  0
  2 19  1  0
  3 20  1  0
  5 21  1  0
 12 22  1  0
 12 23  1  0
 12 24  1  0
 14 25  1  0
 17 26  1  0
 17 27  1  0
M  END
>  <mol_id>  (50) 
2026-09-18-6fnk-s0-n100-r3-0050

>  <rmsd_to_ref>  (50) 
2.7040816326593795

>  <pose_kind>  (50) 
conformer

$$$$
6fnk.A
     RDKit          3D

 27 29  0  0  0  0  0  0  0  0999 V2000
    4.5118   18.6321   40.6508 C   0  0  0  0  0  0  0  0  0  0  0  0
    5.7303   18.3047   40.0558 C   0  0  0  0  0  0  0  0  0  0  0  0
    6.2210   17.0105   40.1486 C   0  0  0  0  0  0  0  0  0  0  0  0
    5.4922   16.0353   40.8349 N   0  0  0  0  0  0  0  0  0  0  0  0
    4.2676   16.3679   41.4338 C   0  0  0  0  0  0  0  0  0  0  0  0
    3.7745   17.6682   41.3428 C   0  0  0  0  0  0  0  0  0  0  0  0
    2.5548   17.9974   41.9427 C   0  0  0  0  0  0  0  0  0  0  0  0
    2.1453   19.2710   42.0211 N   0  0  0  0  0  0  0  0  0  0  0  0
    1.7770   17.0316   42.4422 N   0  0  0  0  0  0  0  0  0  0  0  0
    0.6018   17.3098   43.0340 C   0  0  0  0  0  0  0  0  0  0  0  0
   -0.3227   16.5270   43.6108 N   0  0  0  0  0  0  0  0  0  0  0  0
   -0.2607   15.0674   43.7323 C   0  0  0  0  0  0  0  0  0  0  0  0
   -1.2623   17.2041   44.0301 N   0  0  0  0  0  0  0  0  0  0  0  0
   -1.0082   18.4844   43.7133 C   0  0  0  0  0  0  0  0  0  0  0  0
    0.1824   18.5693   43.1049 C   0  0  0  0  0  0  0  0  0  0  0  0
    0.9614   19.5610   42.5920 C   0  0  0  0  0  0  0  0  0  0  0  0
    0.5666   20.8560   42.6502 N   0  0  0  0  0  0  0  0  0  0  0  0
    4.1276   19.6599   40.5743 H   0  0  0  0  0  0  0  0  0  0  0  0
    6.3017   19.0723   39.5133 H   0  0  0  0  0  0  0  0  0  0  0  0
    7.1832   16.7519   39.6823 H   0  0  0  0  0  0  0  0  0  0  0  0
    3.6956   15.6007   41.9762 H   0  0  0  0  0  0  0  0  0  0  0  0
   -0.4282   14.7793   44.7806 H   0  0  0  0  0  0  0  0  0  0  0  0
   -1.0370   14.6135   43.0988 H   0  0  0  0  0  0  0  0  0  0  0  0
    0.7295   14.7143   43.4086 H   0  0  0  0  0  0  0  0  0  0  0  0
   -1.6757   19.3335   43.9216 H   0  0  0  0  0  0  0  0  0  0  0  0
   -0.3356   21.1004   43.0828 H   0  0  0  0  0  0  0  0  0  0  0  0
    1.1688   21.5959   42.2619 H   0  0  0  0  0  0  0  0  0  0  0  0
  1  2  2  0
  1  6  1  0
  2  3  1  0
  3  4  2  0
  4  5  1  0
  5  6  2  0
  6  7  1  0
  7  8  2  0
  7  9  1  0
  8 16  1  0
  9 10  2  0
 10 11  1  0
 10 15  1  0
 11 12  1  0
 11 13  1  0
 13 14  2  0
 14 15  1  0
 15 16  2  0
 16 17  1  0
  1 18  1  0
  2 19  1  0
  3 20  1  0
  5 21  1  0
 12 22  1  0
 12 23  1  0
 12 24  1  0
 14 25  1  0
 17 26  1  0
 17 27  1  0
M  END
>  <mol_id>  (51) 
2026-09-18-6fnk-s0-n100-r3-0051

>  <rmsd_to_ref>  (51) 
2.750000000006373

>  <pose_kind>  (51) 
rigid

$$$$
6fnk.A
     RDKit          3D

 27 29  0  0  0  0  0  0  0  0999 V2000
    4.5082   17.2336   41.7712 C   0  0  0  0  0  0  0  0  0  0  0  0
    5.6315   16.6749   42.3531 C   0  0  0  0  0  0  0  0  0  0  0  0
    5.6516   16.6102   43.7441 C   0  0  0  0  0  0  0  0  0  0  0  0
    4.6388   17.0630   44.5027 N   0  0  0  0  0  0  0  0  0  0  0  0
    3.5546   17.6031   43.9175 C   0  0  0  0  0  0  0  0  0  0  0  0
    3.4530   17.7063   42.5375 C   0  0  0  0  0  0  0  0  0  0  0  0
    2.2859   18.2877   41.9101 C   0  0  0  0  0  0  0  0  0  0  0  0
    2.1379   18.4109   40.5839 N   0  0  0  0  0  0  0  0  0  0  0  0
    1.2816   18.7358   42.6853 N   0  0  0  0  0  0  0  0  0  0  0  0
    0.1578   19.2892   42.2423 C   0  0  0  0  0  0  0  0  0  0  0  0
   -0.9400   19.7893   42.8311 N   0  0  0  0  0  0  0  0  0  0  0  0
   -1.1928   19.8532   44.2585 C   0  0  0  0  0  0  0  0  0  0  0  0
   -1.7660   20.2199   41.9029 N   0  0  0  0  0  0  0  0  0  0  0  0
   -1.2371   20.0169   40.6645 C   0  0  0  0  0  0  0  0  0  0  0  0
   -0.0028   19.4199   40.8792 C   0  0  0  0  0  0  0  0  0  0  0  0
    1.0165   18.9665   40.0566 C   0  0  0  0  0  0  0  0  0  0  0  0
    0.8244   19.1134   38.6615 N   0  0  0  0  0  0  0  0  0  0  0  0
    4.5011   17.2798   40.6905 H   0  0  0  0  0  0  0  0  0  0  0  0
    6.4709   16.2978   41.7715 H   0  0  0  0  0  0  0  0  0  0  0  0
    6.5408   16.1678   44.2075 H   0  0  0  0  0  0  0  0  0  0  0  0
    2.7389   17.9673   44.5420 H   0  0  0  0  0  0  0  0  0  0  0  0
   -0.7506   18.9121   44.6909 H   0  0  0  0  0  0  0  0  0  0  0  0
   -0.6058   20.7118   44.6521 H   0  0  0  0  0  0  0  0  0  0  0  0
   -2.2624   19.9271   44.4954 H   0  0  0  0  0  0  0  0  0  0  0  0
   -1.6674   20.2599   39.7104 H   0  0  0  0  0  0  0  0  0  0  0  0
    0.4289   20.0048   38.2420 H   0  0  0  0  0  0  0  0  0  0  0  0
    1.0876   18.3067   38.0511 H   0  0  0  0  0  0  0  0  0  0  0  0
  1  2  2  0
  1  6  1  0
  2  3  1  0
  3  4  2  0
  4  5  1  0
  5  6  2  0
  6  7  1  0
  7  8  2  0
  7  9  1  0
  8 16  1  0
  9 10  2  0
 10 11  1  0
 10 15  1  0
 11 12  1  0
 11 13  1  0
 13 14  2  0
 14 15  1  0
 15 16  2  0
 16 17  1  0
  1 18  1  0
  2 19  1  0
  3 20  1  0
  5 21  1  0
 12 22  1  0
 12 23  1  0
 12 24  1  0
 14 25  1  0
 17 26  1  0
 17 27  1  0
M  END
>  <mol_id>  (52) 
2026-09-18-6fnk-s0-n100-r3-0052

>  <rmsd_to_ref>  (52) 
2.795918367349295

>  <pose_kind>  (52) 
conformer

$$$$
6fnk.A
     RDKit          3D

 27 29  0  0  0  0  0  0  0  0999 V2000
    2.2319   14.3682   41.3403 C   0  0  0  0  0  0  0  0  0  0  0  0
    2.5546   13.3997   40.3897 C   0  0  0  0  0  0  0  0  0  0  0  0
    1.6706   13.1204   39.3577 C   0  0  0  0  0  0  0  0  0  0  0  0
    0.4596   13.8124   39.2695 N   0  0  0  0  0  0  0  0  0  0  0  0
    0.1370   14.7850   40.2281 C   0  0  0  0  0  0  0  0  0  0  0  0
    1.0234   15.0651   41.2664 C   0  0  0  0  0  0  0  0  0  0  0  0
    0.6981   16.0334   42.2218 C   0  0  0  0  0  0  0  0  0  0  0  0
    1.4465   16.1972   43.3214 N   0  0  0  0  0  0  0  0  0  0  0  0
   -0.3704   16.8157   42.0390 N   0  0  0  0  0  0  0  0  0  0  0  0
   -0.7197   17.7517   42.9394 C   0  0  0  0  0  0  0  0  0  0  0  0
   -1.7370   18.6256   42.9802 N   0  0  0  0  0  0  0  0  0  0  0  0
   -2.7836   18.7766   41.9649 C   0  0  0  0  0  0  0  0  0  0  0  0
   -1.6767   19.3123   44.0009 N   0  0  0  0  0  0  0  0  0  0  0  0
   -0.5777   18.9354   44.6749 C   0  0  0  0  0  0  0  0  0  0  0  0
    0.0241   17.9290   44.0268 C   0  0  0  0  0  0  0  0  0  0  0  0
    1.1198   17.1445   44.2199 C   0  0  0  0  0  0  0  0  0  0  0  0
    1.8985   17.2956   45.3187 N   0  0  0  0  0  0  0  0  0  0  0  0
    2.9364   14.5855   42.1567 H   0  0  0  0  0  0  0  0  0  0  0  0
    3.5093   12.8578   40.4583 H   0  0  0  0  0  0  0  0  0  0  0  0
    1.9227   12.3547   38.6092 H   0  0  0  0  0  0  0  0  0  0  0  0
   -0.8174   15.3275   40.1599 H   0  0  0  0  0  0  0  0  0  0  0  0
   -3.7713   18.7317   42.4471 H   0  0  0  0  0  0  0  0  0  0  0  0
   -2.6664   19.7463   41.4589 H   0  0  0  0  0  0  0  0  0  0  0  0
   -2.6985   17.9653   41.2270 H   0  0  0  0  0  0  0  0  0  0  0  0
   -0.2256   19.3843   45.6153 H   0  0  0  0  0  0  0  0  0  0  0  0
    1.6669   18.0144   46.0191 H   0  0  0  0  0  0  0  0  0  0  0  0
    2.7218   16.6916   45.4535 H   0  0  0  0  0  0  0  0  0  0  0  0
  1  2  2  0
  1  6  1  0
  2  3  1  0
  3  4  2  0
  4  5  1  0
  5  6  2  0
  6  7  1  0
  7  8  2  0
  7  9  1  0
  8 16  1  0
  9 10  2  0
 10 11  1  0
 10 15  1  0
 11 12  1  0
 11 13  1  0
 13 14  2  0
 14 15  1  0
 15 16  2  0
 16 17  1  0
  1 18  1  0
  2 19  1  0
  3 20  1  0
  5 21  1  0
 12 22  1  0
 12 23  1  0
 12 24  1  0
 14 25  1  0
 17 26  1  0
 17 27  1  0
M  END
>  <mol_id>  (53) 
2026-09-18-6fnk-s0-n100-r3-0053

>  <rmsd_to_ref>  (53) 
2.84183673469409

>  <pose_kind>  (53) 
rigid

$$$$
6fnk.A
     RDKit          3D

 27 29  0  0  0  0  0  0  0  0999 V2000
    3.5010   16.3567   44.1865 C   0  0  0  0  0  0  0  0  0  0  0  0
    3.9142   15.1476   44.7389 C   0  0  0  0  0  0  0  0  0  0  0  0
    3.9084   14.0056   43.9509 C   0  0  0  0  0  0  0  0  0  0  0  0
    3.5046   14.0600   42.6522 N   0  0  0  0  0  0  0  0  0  0  0  0
    3.0952   15.2277   42.0844 C   0  0  0  0  0  0  0  0  0  0  0  0
    3.0993   16.3683   42.8660 C   0  0  0  0  0  0  0  0  0  0  0  0
    2.6630   17.6253   42.2694 C   0  0  0  0  0  0  0  0  0  0  0  0
    2.2624   17.7023   40.9965 N   0  0  0  0  0  0  0  0  0  0  0  0
    2.6487   18.7638   42.9883 N   0  0  0  0  0  0  0  0  0  0  0  0
    2.2532   19.9479   42.4775 C   0  0  0  0  0  0  0  0  0  0  0  0
    2.1587   21.1950   43.0047 N   0  0  0  0  0  0  0  0  0  0  0  0
    2.5229   21.4709   44.3945 C   0  0  0  0  0  0  0  0  0  0  0  0
    1.7128   22.0117   42.0800 N   0  0  0  0  0  0  0  0  0  0  0  0
    1.4992   21.3399   40.9218 C   0  0  0  0  0  0  0  0  0  0  0  0
    1.8384   20.0265   41.1592 C   0  0  0  0  0  0  0  0  0  0  0  0
    1.8509   18.8559   40.4127 C   0  0  0  0  0  0  0  0  0  0  0  0
    1.4284   18.9146   39.0551 N   0  0  0  0  0  0  0  0  0  0  0  0
    3.4899   17.2790   44.7706 H   0  0  0  0  0  0  0  0  0  0  0  0
    4.2264   15.1501   45.7730 H   0  0  0  0  0  0  0  0  0  0  0  0
    4.2368   13.0650   44.4040 H   0  0  0  0  0  0  0  0  0  0  0  0
    2.7858   15.2149   41.0528 H   0  0  0  0  0  0  0  0  0  0  0  0
    2.5912   22.5705   44.5117 H   0  0  0  0  0  0  0  0  0  0  0  0
    3.4609   20.9440   44.6097 H   0  0  0  0  0  0  0  0  0  0  0  0
    1.6944   21.1517   45.0864 H   0  0  0  0  0  0  0  0  0  0  0  0
    1.1346   21.7393   39.9851 H   0  0  0  0  0  0  0  0  0  0  0  0
    1.7560   19.7451   38.5075 H   0  0  0  0  0  0  0  0  0  0  0  0
    0.8360   18.2083   38.5923 H   0  0  0  0  0  0  0  0  0  0  0  0
  1  2  2  0
  1  6  1  0
  2  3  1  0
  3  4  2  0
  4  5  1  0
  5  6  2  0
  6  7  1  0
  7  8  2  0
  7  9  1  0
  8 16  1  0
  9 10  2  0
 10 11  1  0
 10 15  1  0
 11 12  1  0
 11 13  1  0
 13 14  2  0
 14 15  1  0
 15 16  2  0
 16 17  1  0
  1 18  1  0
  2 19  1  0
  3 20  1  0
  5 21  1  0
 12 22  1  0
 12 23  1  0
 12 24  1  0
 14 25  1  0
 17 26  1  0
 17 27  1  0
M  END
>  <mol_id>  (54) 
2026-09-18-6fnk-s0-n100-r3-0054

>  <rmsd_to_ref>  (54) 
2.88775510204527

>  <pose_kind>  (54) 
conformer

$$$$
6fnk.A
     RDKit          3D

 27 29  0  0  0  0  0  0  0  0999 V2000
    1.6346   17.4961   38.7870 C   0  0  0  0  0  0  0  0  0  0  0  0
    1.1288   16.9373   37.6131 C   0  0  0  0  0  0  0  0  0  0  0  0
    0.2736   15.8469   37.6774 C   0  0  0  0  0  0  0  0  0  0  0  0
   -0.0832   15.3120   38.9184 N   0  0  0  0  0  0  0  0  0  0  0  0
    0.4284   15.8753   40.0973 C   0  0  0  0  0  0  0  0  0  0  0  0
    1.2891   16.9695   40.0339 C   0  0  0  0  0  0  0  0  0  0  0  0
    1.7992   17.5273   41.2106 C   0  0  0  0  0  0  0  0  0  0  0  0
    2.7598   18.4610   41.1722 N   0  0  0  0  0  0  0  0  0  0  0  0
    1.3218   17.1328   42.3953 N   0  0  0  0  0  0  0  0  0  0  0  0
    1.7933   17.6398   43.5484 C   0  0  0  0  0  0  0  0  0  0  0  0
    1.4879   17.3928   44.8313 N   0  0  0  0  0  0  0  0  0  0  0  0
    0.4823   16.4389   45.3088 C   0  0  0  0  0  0  0  0  0  0  0  0
    2.1695   18.0932   45.5809 N   0  0  0  0  0  0  0  0  0  0  0  0
    2.9465   18.8706   44.8087 C   0  0  0  0  0  0  0  0  0  0  0  0
    2.7374   18.5752   43.5188 C   0  0  0  0  0  0  0  0  0  0  0  0
    3.2254   18.9917   42.3181 C   0  0  0  0  0  0  0  0  0  0  0  0
    4.1904   19.9408   42.2510 N   0  0  0  0  0  0  0  0  0  0  0  0
    2.3125   18.3605   38.7301 H   0  0  0  0  0  0  0  0  0  0  0  0
    1.4080   17.3610   36.6371 H   0  0  0  0  0  0  0  0  0  0  0  0
   -0.1234   15.4036   36.7523 H   0  0  0  0  0  0  0  0  0  0  0  0
    0.1494   15.4523   41.0736 H   0  0  0  0  0  0  0  0  0  0  0  0
    0.9360   15.7712   46.0560 H   0  0  0  0  0  0  0  0  0  0  0  0
   -0.3545   16.9867   45.7666 H   0  0  0  0  0  0  0  0  0  0  0  0
    0.1110   15.8429   44.4620 H   0  0  0  0  0  0  0  0  0  0  0  0
    3.6474   19.6332   45.1790 H   0  0  0  0  0  0  0  0  0  0  0  0
    4.5611   20.3604   43.1156 H   0  0  0  0  0  0  0  0  0  0  0  0
    4.5531   20.2426   41.3355 H   0  0  0  0  0  0  0  0  0  0  0  0
  1  2  2  0
  1  6  1  0
  2  3  1  0
  3  4  2  0
  4  5  1  0
  5  6  2  0
  6  7  1  0
  7  8  2  0
  7  9  1  0
  8 16  1  0
  9 10  2  0
 10 11  1  0
 10 15  1  0
 11 12  1  0
 11 13  1  0
 13 14  2  0
 14 15  1  0
 15 16  2  0
 16 17  1  0
  1 18  1  0
  2 19  1  0
  3 20  1  0
  5 21  1  0
 12 22  1  0
 12 23  1  0
 12 24  1  0
 14 25  1  0
 17 26  1  0
 17 27  1  0
M  END
>  <mol_id>  (55) 
2026-09-18-6fnk-s0-n100-r3-0055

>  <rmsd_to_ref>  (55) 
2.9336734693908335

>  <pose_kind>  (55) 
rigid

$$$$
6fnk.A
     RDKit          3D

 27 29  0  0  0  0  0  0  0  0999 V2000
    3.5210   16.0015   42.6301 C   0  0  0  0  0  0  0  0  0  0  0  0
    4.8068   15.8368   42.1120 C   0  0  0  0  0  0  0  0  0  0  0  0
    5.4724   16.9001   41.4972 C   0  0  0  0  0  0  0  0  0  0  0  0
    4.8956   18.1159   41.3851 N   0  0  0  0  0  0  0  0  0  0  0  0
    3.6420   18.2936   41.8851 C   0  0  0  0  0  0  0  0  0  0  0  0
    2.9642   17.2587   42.4966 C   0  0  0  0  0  0  0  0  0  0  0  0
    1.6218   17.5089   43.0140 C   0  0  0  0  0  0  0  0  0  0  0  0
    1.0725   18.7318   42.8876 N   0  0  0  0  0  0  0  0  0  0  0  0
    0.9068   16.5518   43.6185 N   0  0  0  0  0  0  0  0  0  0  0  0
   -0.3461   16.7518   44.1115 C   0  0  0  0  0  0  0  0  0  0  0  0
   -1.2306   15.9523   44.7433 N   0  0  0  0  0  0  0  0  0  0  0  0
   -1.0565   14.5646   45.0852 C   0  0  0  0  0  0  0  0  0  0  0  0
   -2.3023   16.6792   44.9973 N   0  0  0  0  0  0  0  0  0  0  0  0
   -2.1510   17.9317   44.5525 C   0  0  0  0  0  0  0  0  0  0  0  0
   -0.8991   18.0121   43.9754 C   0  0  0  0  0  0  0  0  0  0  0  0
   -0.1669   18.9997   43.3540 C   0  0  0  0  0  0  0  0  0  0  0  0
   -0.7315   20.3083   43.2085 N   0  0  0  0  0  0  0  0  0  0  0  0
    3.0221   15.1758   43.0996 H   0  0  0  0  0  0  0  0  0  0  0  0
    5.3017   14.8611   42.1878 H   0  0  0  0  0  0  0  0  0  0  0  0
    6.4833   16.7448   41.0976 H   0  0  0  0  0  0  0  0  0  0  0  0
    3.2314   19.2872   41.7666 H   0  0  0  0  0  0  0  0  0  0  0  0
   -2.0175   14.1252   45.3985 H   0  0  0  0  0  0  0  0  0  0  0  0
   -0.3428   14.4505   45.9214 H   0  0  0  0  0  0  0  0  0  0  0  0
   -0.7023   14.0127   44.1815 H   0  0  0  0  0  0  0  0  0  0  0  0
   -2.8369   18.7766   44.6005 H   0  0  0  0  0  0  0  0  0  0  0  0
   -1.4434   20.5477   42.4961 H   0  0  0  0  0  0  0  0  0  0  0  0
   -0.3748   21.0260   43.8796 H   0  0  0  0  0  0  0  0  0  0  0  0
  1  2  2  0
  1  6  1  0
  2  3  1  0
  3  4  2  0
  4  5  1  0
  5  6  2  0
  6  7  1  0
  7  8  2  0
  7  9  1  0
  8 16  1  0
  9 10  2  0
 10 11  1  0
 10 15  1  0
 11 12  1  0
 11 13  1  0
 13 14  2  0
 14 15  1  0
 15 16  2  0
 16 17  1  0
  1 18  1  0
  2 19  1  0
  3 20  1  0
  5 21  1  0
 12 22  1  0
 12 23  1  0
 12 24  1  0
 14 25  1  0
 17 26  1  0
 17 27  1  0
M  END
>  <mol_id>  (56) 
2026-09-18-6fnk-s0-n100-r3-0056

>  <rmsd_to_ref>  (56) 
2.9795918367354863

>  <pose_kind>  (56) 
conformer

$$$$
6fnk.A
     RDKit          3D

 27 29  0  0  0  0  0  0  0  0999 V2000
    4.8574   16.5770   42.1650 C   0  0  0  0  0  0  0  0  0  0  0  0
    6.2361   16.3970   42.2773 C   0  0  0  0  0  0  0  0  0  0  0  0
    6.8539   16.5307   43.5122 C   0  0  0  0  0  0  0  0  0  0  0  0
    6.0936   16.8420   44.6429 N   0  0  0  0  0  0  0  0  0  0  0  0
    4.7072   17.0241   44.5265 C   0  0  0  0  0  0  0  0  0  0  0  0
    4.0858   16.8918   43.2861 C   0  0  0  0  0  0  0  0  0  0  0  0
    2.7040   17.0762   43.1728 C   0  0  0  0  0  0  0  0  0  0  0  0
    2.1105   17.1283   41.9724 N   0  0  0  0  0  0  0  0  0  0  0  0
    1.9564   17.1967   44.2745 N   0  0  0  0  0  0  0  0  0  0  0  0
    0.6263   17.3838   44.2055 C   0  0  0  0  0  0  0  0  0  0  0  0
   -0.3101   17.5443   45.1529 N   0  0  0  0  0  0  0  0  0  0  0  0
   -0.0788   17.5465   46.6005 C   0  0  0  0  0  0  0  0  0  0  0  0
   -1.4223   17.6846   44.6427 N   0  0  0  0  0  0  0  0  0  0  0  0
   -1.2690   17.5888   43.3117 C   0  0  0  0  0  0  0  0  0  0  0  0
    0.0280   17.4243   43.0191 C   0  0  0  0  0  0  0  0  0  0  0  0
    0.7773   17.2940   41.8900 C   0  0  0  0  0  0  0  0  0  0  0  0
    0.2009   17.3340   40.6642 N   0  0  0  0  0  0  0  0  0  0  0  0
    4.3728   16.4700   41.1833 H   0  0  0  0  0  0  0  0  0  0  0  0
    6.8331   16.1491   41.3873 H   0  0  0  0  0  0  0  0  0  0  0  0
    7.9414   16.3919   43.6014 H   0  0  0  0  0  0  0  0  0  0  0  0
    4.1096   17.2718   45.4162 H   0  0  0  0  0  0  0  0  0  0  0  0
   -0.5291   18.4475   47.0425 H   0  0  0  0  0  0  0  0  0  0  0  0
   -0.5368   16.6512   47.0463 H   0  0  0  0  0  0  0  0  0  0  0  0
    1.0032   17.5422   46.7990 H   0  0  0  0  0  0  0  0  0  0  0  0
   -2.0840   17.6378   42.5745 H   0  0  0  0  0  0  0  0  0  0  0  0
   -0.8177   17.4600   40.5780 H   0  0  0  0  0  0  0  0  0  0  0  0
    0.7814   17.2385   39.8188 H   0  0  0  0  0  0  0  0  0  0  0  0
  1  2  2  0
  1  6  1  0
  2  3  1  0
  3  4  2  0
  4  5  1  0
  5  6  2  0
  6  7  1  0
  7  8  2  0
  7  9  1  0
  8 16  1  0
  9 10  2  0
 10 11  1  0
 10 15  1  0
 11 12  1  0
 11 13  1  0
 13 14  2  0
 14 15  1  0
 15 16  2  0
 16 17  1  0
  1 18  1  0
  2 19  1  0
  3 20  1  0
  5 21  1  0
 12 22  1  0
 12 23  1  0
 12 24  1  0
 14 25  1  0
 17 26  1  0
 17 27  1  0
M  END
>  <mol_id>  (57) 
2026-09-18-6fnk-s0-n100-r3-0057

>  <rmsd_to_ref>  (57) 
3.0255102040831625

>  <pose_kind>  (57) 
rigid

$$$$
6fnk.A
     RDKit          3D

 27 29  0  0  0  0  0  0  0  0999 V2000
    4.8369   15.4324   41.0499 C   0  0  0  0  0  0  0  0  0  0  0  0
    6.0975   14.8644   41.0106 C   0  0  0  0  0  0  0  0  0  0  0  0
    7.0818   15.4189   41.8037 C   0  0  0  0  0  0  0  0  0  0  0  0
    6.8319   16.4870   42.6003 N   0  0  0  0  0  0  0  0  0  0  0  0
    5.6047   17.0378   42.6368 C   0  0  0  0  0  0  0  0  0  0  0  0
    4.5741   16.5230   41.8606 C   0  0  0  0  0  0  0  0  0  0  0  0
    3.2373   17.1058   41.8862 C   0  0  0  0  0  0  0  0  0  0  0  0
    2.2359   16.6118   41.1371 N   0  0  0  0  0  0  0  0  0  0  0  0
    3.0037   18.1645   42.6805 N   0  0  0  0  0  0  0  0  0  0  0  0
    1.7850   18.7498   42.7483 C   0  0  0  0  0  0  0  0  0  0  0  0
    1.2575   19.7870   43.4248 N   0  0  0  0  0  0  0  0  0  0  0  0
    1.9682   20.6326   44.3650 C   0  0  0  0  0  0  0  0  0  0  0  0
   -0.0206   19.9290   43.1065 N   0  0  0  0  0  0  0  0  0  0  0  0
   -0.3729   18.9791   42.2023 C   0  0  0  0  0  0  0  0  0  0  0  0
    0.7604   18.2198   41.9616 C   0  0  0  0  0  0  0  0  0  0  0  0
    0.9868   17.1339   41.1424 C   0  0  0  0  0  0  0  0  0  0  0  0
   -0.0386   16.5739   40.3307 N   0  0  0  0  0  0  0  0  0  0  0  0
    4.0574   14.9902   40.4192 H   0  0  0  0  0  0  0  0  0  0  0  0
    6.3306   14.0041   40.3798 H   0  0  0  0  0  0  0  0  0  0  0  0
    8.0591   14.9522   41.7514 H   0  0  0  0  0  0  0  0  0  0  0  0
    5.4398   17.8970   43.2898 H   0  0  0  0  0  0  0  0  0  0  0  0
    1.5040   20.4659   45.3672 H   0  0  0  0  0  0  0  0  0  0  0  0
    3.0352   20.4065   44.3328 H   0  0  0  0  0  0  0  0  0  0  0  0
    1.7811   21.7258   44.1612 H   0  0  0  0  0  0  0  0  0  0  0  0
   -1.3646   18.8434   41.7523 H   0  0  0  0  0  0  0  0  0  0  0  0
    0.0271   15.5511   40.1345 H   0  0  0  0  0  0  0  0  0  0  0  0
   -0.8016   17.1840   39.9674 H   0  0  0  0  0  0  0  0  0  0  0  0
  1  2  2  0
  1  6  1  0
  2  3  1  0
  3  4  2  0
  4  5  1  0
  5  6  2  0
  6  7  1  0
  7  8  2  0
  7  9  1  0
  8 16  1  0
  9 10  2  0
 10 11  1  0
 10 15  1  0
 11 12  1  0
 11 13  1  0
 13 14  2  0
 14 15  1  0
 15 16  2  0
 16 17  1  0
  1 18  1  0
  2 19  1  0
  3 20  1  0
  5 21  1  0
 12 22  1  0
 12 23  1  0
 12 24  1  0
 14 25  1  0
 17 26  1  0
 17 27  1  0
M  END
>  <mol_id>  (58) 
2026-09-18-6fnk-s0-n100-r3-0058

>  <rmsd_to_ref>  (58) 
3.0714285714326546

>  <pose_kind>  (58) 
conformer

$$$$
6fnk.A
     RDKit          3D

 27 29  0  0  0  0  0  0  0  0999 V2000
    4.0900   19.7559   41.0858 C   0  0  0  0  0  0  0  0  0  0  0  0
    5.2569   19.5146   40.3605 C   0  0  0  0  0  0  0  0  0  0  0  0
    5.5050   18.2495   39.8482 C   0  0  0  0  0  0  0  0  0  0  0  0
    4.5838   17.2193   40.0562 N   0  0  0  0  0  0  0  0  0  0  0  0
    3.4117   17.4646   40.7875 C   0  0  0  0  0  0  0  0  0  0  0  0
    3.1622   18.7346   41.3042 C   0  0  0  0  0  0  0  0  0  0  0  0
    1.9941   18.9755   42.0348 C   0  0  0  0  0  0  0  0  0  0  0  0
    1.8143   20.1319   42.6879 N   0  0  0  0  0  0  0  0  0  0  0  0
    1.0351   18.0455   42.0817 N   0  0  0  0  0  0  0  0  0  0  0  0
   -0.0979   18.2373   42.7806 C   0  0  0  0  0  0  0  0  0  0  0  0
   -1.1722   17.4597   42.9839 N   0  0  0  0  0  0  0  0  0  0  0  0
   -1.3762   16.1136   42.4402 C   0  0  0  0  0  0  0  0  0  0  0  0
   -1.9948   18.0360   43.6969 N   0  0  0  0  0  0  0  0  0  0  0  0
   -1.5029   19.2549   43.9737 C   0  0  0  0  0  0  0  0  0  0  0  0
   -0.2896   19.3863   43.4211 C   0  0  0  0  0  0  0  0  0  0  0  0
    0.6760   20.3449   43.3736 C   0  0  0  0  0  0  0  0  0  0  0  0
    0.5153   21.5263   44.0177 N   0  0  0  0  0  0  0  0  0  0  0  0
    3.8984   20.7609   41.4899 H   0  0  0  0  0  0  0  0  0  0  0  0
    5.9798   20.3269   40.1948 H   0  0  0  0  0  0  0  0  0  0  0  0
    6.4262   18.0574   39.2786 H   0  0  0  0  0  0  0  0  0  0  0  0
    2.6882   16.6528   40.9533 H   0  0  0  0  0  0  0  0  0  0  0  0
   -1.6400   15.4247   43.2562 H   0  0  0  0  0  0  0  0  0  0  0  0
   -2.1909   16.1362   41.7015 H   0  0  0  0  0  0  0  0  0  0  0  0
   -0.4507   15.7700   41.9551 H   0  0  0  0  0  0  0  0  0  0  0  0
   -2.0178   20.0272   44.5640 H   0  0  0  0  0  0  0  0  0  0  0  0
   -0.3480   21.7103   44.5484 H   0  0  0  0  0  0  0  0  0  0  0  0
    1.2566   22.2403   43.9764 H   0  0  0  0  0  0  0  0  0  0  0  0
  1  2  2  0
  1  6  1  0
  2  3  1  0
  3  4  2  0
  4  5  1  0
  5  6  2  0
  6  7  1  0
  7  8  2  0
  7  9  1  0
  8 16  1  0
  9 10  2  0
 10 11  1  0
 10 15  1  0
 11 12  1  0
 11 13  1  0
 13 14  2  0
 14 15  1  0
 15 16  2  0
 16 17  1  0
  1 18  1  0
  2 19  1  0
  3 20  1  0
  5 21  1  0
 12 22  1  0
 12 23  1  0
 12 24  1  0
 14 25  1  0
 17 26  1  0
 17 27  1  0
M  END
>  <mol_id>  (59) 
2026-09-18-6fnk-s0-n100-r3-0059

>  <rmsd_to_ref>  (59) 
3.117346938781689

>  <pose_kind>  (59) 
rigid

$$$$
6fnk.A
     RDKit          3D

 27 29  0  0  0  0  0  0  0  0999 V2000
    3.7950   14.5357   43.1227 C   0  0  0  0  0  0  0  0  0  0  0  0
    3.6842   13.1460   43.2184 C   0  0  0  0  0  0  0  0  0  0  0  0
    2.6154   12.4969   42.6048 C   0  0  0  0  0  0  0  0  0  0  0  0
    1.6839   13.1986   41.9174 N   0  0  0  0  0  0  0  0  0  0  0  0
    1.7713   14.5370   41.8127 C   0  0  0  0  0  0  0  0  0  0  0  0
    2.8301   15.2241   42.4153 C   0  0  0  0  0  0  0  0  0  0  0  0
    2.9503   16.6766   42.3180 C   0  0  0  0  0  0  0  0  0  0  0  0
    3.9566   17.3430   42.8891 N   0  0  0  0  0  0  0  0  0  0  0  0
    2.0177   17.3870   41.6289 N   0  0  0  0  0  0  0  0  0  0  0  0
    2.1020   18.7177   41.5232 C   0  0  0  0  0  0  0  0  0  0  0  0
    1.3589   19.6696   40.9275 N   0  0  0  0  0  0  0  0  0  0  0  0
    0.1410   19.4661   40.1638 C   0  0  0  0  0  0  0  0  0  0  0  0
    1.8816   20.8676   41.1215 N   0  0  0  0  0  0  0  0  0  0  0  0
    3.0148   20.7684   41.8670 C   0  0  0  0  0  0  0  0  0  0  0  0
    3.1505   19.4054   42.1190 C   0  0  0  0  0  0  0  0  0  0  0  0
    4.1049   18.6798   42.8241 C   0  0  0  0  0  0  0  0  0  0  0  0
    5.2079   19.3153   43.4615 N   0  0  0  0  0  0  0  0  0  0  0  0
    4.6065   15.0737   43.5831 H   0  0  0  0  0  0  0  0  0  0  0  0
    4.4379   12.5726   43.7753 H   0  0  0  0  0  0  0  0  0  0  0  0
    2.5572   11.4024   42.6990 H   0  0  0  0  0  0  0  0  0  0  0  0
    1.0060   15.0864   41.2512 H   0  0  0  0  0  0  0  0  0  0  0  0
    0.1168   20.1850   39.2929 H   0  0  0  0  0  0  0  0  0  0  0  0
   -0.7652   19.5350   40.7898 H   0  0  0  0  0  0  0  0  0  0  0  0
    0.1122   18.4537   39.6764 H   0  0  0  0  0  0  0  0  0  0  0  0
    3.6704   21.5378   42.1986 H   0  0  0  0  0  0  0  0  0  0  0  0
    5.0891   20.2698   43.8774 H   0  0  0  0  0  0  0  0  0  0  0  0
    6.1090   18.7826   43.4839 H   0  0  0  0  0  0  0  0  0  0  0  0
  1  2  2  0
  1  6  1  0
  2  3  1  0
  3  4  2  0
  4  5  1  0
  5  6  2  0
  6  7  1  0
  7  8  2  0
  7  9  1  0
  8 16  1  0
  9 10  2  0
 10 11  1  0
 10 15  1  0
 11 12  1  0
 11 13  1  0
 13 14  2  0
 14 15  1  0
 15 16  2  0
 16 17  1  0
  1 18  1  0
  2 19  1  0
  3 20  1  0
  5 21  1  0
 12 22  1  0
 12 23  1  0
 12 24  1  0
 14 25  1  0
 17 26  1  0
 17 27  1  0
M  END
>  <mol_id>  (60) 
2026-09-18-6fnk-s0-n100-r3-0060

>  <rmsd_to_ref>  (60) 
3.163265306126014

>  <pose_kind>  (60) 
conformer

$$$$
6fnk.A
     RDKit          3D

 27 29  0  0  0  0  0  0  0  0999 V2000
    1.5677   15.7885   43.3218 C   0  0  0  0  0  0  0  0  0  0  0  0
    2.4360   14.9815   44.0572 C   0  0  0  0  0  0  0  0  0  0  0  0
    3.0636   15.4878   45.1860 C   0  0  0  0  0  0  0  0  0  0  0  0
    2.8221   16.8047   45.5872 N   0  0  0  0  0  0  0  0  0  0  0  0
    1.9494   17.6145   44.8447 C   0  0  0  0  0  0  0  0  0  0  0  0
    1.3198   17.1075   43.7094 C   0  0  0  0  0  0  0  0  0  0  0  0
    0.4523   17.9178   42.9699 C   0  0  0  0  0  0  0  0  0  0  0  0
   -0.0261   17.5156   41.7844 N   0  0  0  0  0  0  0  0  0  0  0  0
    0.0850   19.1104   43.4495 N   0  0  0  0  0  0  0  0  0  0  0  0
   -0.7404   19.9210   42.7635 C   0  0  0  0  0  0  0  0  0  0  0  0
   -1.2263   21.1433   43.0285 N   0  0  0  0  0  0  0  0  0  0  0  0
   -0.9504   21.9379   44.2290 C   0  0  0  0  0  0  0  0  0  0  0  0
   -1.9619   21.5234   42.1166 N   0  0  0  0  0  0  0  0  0  0  0  0
   -2.0194   20.5357   41.2081 C   0  0  0  0  0  0  0  0  0  0  0  0
   -1.2292   19.5245   41.5926 C   0  0  0  0  0  0  0  0  0  0  0  0
   -0.8696   18.3083   41.0977 C   0  0  0  0  0  0  0  0  0  0  0  0
   -1.3460   17.8739   39.9058 N   0  0  0  0  0  0  0  0  0  0  0  0
    1.0729   15.3819   42.4274 H   0  0  0  0  0  0  0  0  0  0  0  0
    2.6230   13.9443   43.7422 H   0  0  0  0  0  0  0  0  0  0  0  0
    3.7508   14.8533   45.7649 H   0  0  0  0  0  0  0  0  0  0  0  0
    1.7618   18.6517   45.1593 H   0  0  0  0  0  0  0  0  0  0  0  0
   -0.6121   22.9422   43.9342 H   0  0  0  0  0  0  0  0  0  0  0  0
   -1.8667   22.0219   44.8317 H   0  0  0  0  0  0  0  0  0  0  0  0
   -0.1653   21.4459   44.8220 H   0  0  0  0  0  0  0  0  0  0  0  0
   -2.6232   20.5543   40.2888 H   0  0  0  0  0  0  0  0  0  0  0  0
   -1.9927   18.4644   39.3636 H   0  0  0  0  0  0  0  0  0  0  0  0
   -1.0614   16.9533   39.5420 H   0  0  0  0  0  0  0  0  0  0  0  0
  1  2  2  0
  1  6  1  0
  2  3  1  0
  3  4  2  0
  4  5  1  0
  5  6  2  0
  6  7  1  0
  7  8  2  0
  7  9  1  0
  8 16  1  0
  9 10  2  0
 10 11  1  0
 10 15  1  0
 11 12  1  0
 11 13  1  0
 13 14  2  0
 14 15  1  0
 15 16  2  0
 16 17  1  0
  1 18  1  0
  2 19  1  0
  3 20  1  0
  5 21  1  0
 12 22  1  0
 12 23  1  0
 12 24  1  0
 14 25  1  0
 17 26  1  0
 17 27  1  0
M  END
>  <mol_id>  (61) 
2026-09-18-6fnk-s0-n100-r3-0061

>  <rmsd_to_ref>  (61) 
3.2091836734737185

>  <pose_kind>  (61) 
rigid

$$$$
6fnk.A
     RDKit          3D

 27 29  0  0  0  0  0  0  0  0999 V2000
    2.4317   13.6859   41.3170 C   0  0  0  0  0  0  0  0  0  0  0  0
    2.6769   12.3407   41.0221 C   0  0  0  0  0  0  0  0  0  0  0  0
    1.5875   11.5093   40.7476 C   0  0  0  0  0  0  0  0  0  0  0  0
    0.3340   11.9900   40.7665 N   0  0  0  0  0  0  0  0  0  0  0  0
    0.0851   13.2886   41.0503 C   0  0  0  0  0  0  0  0  0  0  0  0
    1.1180   14.1620   41.3303 C   0  0  0  0  0  0  0  0  0  0  0  0
    0.8331   15.5586   41.6343 C   0  0  0  0  0  0  0  0  0  0  0  0
   -0.4340   15.9676   41.6354 N   0  0  0  0  0  0  0  0  0  0  0  0
    1.8715   16.3869   41.9042 N   0  0  0  0  0  0  0  0  0  0  0  0
    1.6288   17.6789   42.1870 C   0  0  0  0  0  0  0  0  0  0  0  0
    2.4218   18.7391   42.4926 N   0  0  0  0  0  0  0  0  0  0  0  0
    3.8723   18.7141   42.5945 C   0  0  0  0  0  0  0  0  0  0  0  0
    1.6656   19.8182   42.6877 N   0  0  0  0  0  0  0  0  0  0  0  0
    0.3754   19.4646   42.5096 C   0  0  0  0  0  0  0  0  0  0  0  0
    0.3299   18.1071   42.1902 C   0  0  0  0  0  0  0  0  0  0  0  0
   -0.7465   17.2673   41.9148 C   0  0  0  0  0  0  0  0  0  0  0  0
   -2.0875   17.7298   41.9228 N   0  0  0  0  0  0  0  0  0  0  0  0
    3.2706   14.3652   41.5375 H   0  0  0  0  0  0  0  0  0  0  0  0
    3.7030   11.9490   41.0071 H   0  0  0  0  0  0  0  0  0  0  0  0
    1.8252   10.4703   40.5234 H   0  0  0  0  0  0  0  0  0  0  0  0
   -0.9621   13.5936   41.0435 H   0  0  0  0  0  0  0  0  0  0  0  0
    4.2293   17.6638   42.6392 H   0  0  0  0  0  0  0  0  0  0  0  0
    4.3509   19.1680   41.6802 H   0  0  0  0  0  0  0  0  0  0  0  0
    4.1986   19.2802   43.5005 H   0  0  0  0  0  0  0  0  0  0  0  0
   -0.4758   20.1291   42.6011 H   0  0  0  0  0  0  0  0  0  0  0  0
   -2.7831   17.2378   41.3231 H   0  0  0  0  0  0  0  0  0  0  0  0
   -2.3120   18.5379   42.5273 H   0  0  0  0  0  0  0  0  0  0  0  0
  1  2  2  0
  1  6  1  0
  2  3  1  0
  3  4  2  0
  4  5  1  0
  5  6  2  0
  6  7  1  0
  7  8  2  0
  7  9  1  0
  8 16  1  0
  9 10  2  0
 10 11  1  0
 10 15  1  0
 11 12  1  0
 11 13  1  0
 13 14  2  0
 14 15  1  0
 15 16  2  0
 16 17  1  0
  1 18  1  0
  2 19  1  0
  3 20  1  0
  5 21  1  0
 12 22  1  0
 12 23  1  0
 12 24  1  0
 14 25  1  0
 17 26  1  0
 17 27  1  0
M  END
>  <mol_id>  (62) 
2026-09-18-6fnk-s0-n100-r3-0062

>  <rmsd_to_ref>  (62) 
3.2551020408179867

>  <pose_kind>  (62) 
conformer

$$$$
6fnk.A
     RDKit          3D

 27 29  0  0  0  0  0  0  0  0999 V2000
    3.7922   20.0358   41.5991 C   0  0  0  0  0  0  0  0  0  0  0  0
    5.0163   20.0154   40.9304 C   0  0  0  0  0  0  0  0  0  0  0  0
    5.8018   18.8723   40.9580 C   0  0  0  0  0  0  0  0  0  0  0  0
    5.3641   17.7413   41.6526 N   0  0  0  0  0  0  0  0  0  0  0  0
    4.1331   17.7653   42.3256 C   0  0  0  0  0  0  0  0  0  0  0  0
    3.3440   18.9137   42.3002 C   0  0  0  0  0  0  0  0  0  0  0  0
    2.1185   18.9354   42.9740 C   0  0  0  0  0  0  0  0  0  0  0  0
    1.4267   20.0748   43.1123 N   0  0  0  0  0  0  0  0  0  0  0  0
    1.6202   17.8051   43.4849 N   0  0  0  0  0  0  0  0  0  0  0  0
    0.4494   17.7880   44.1467 C   0  0  0  0  0  0  0  0  0  0  0  0
   -0.2297   16.7995   44.7482 N   0  0  0  0  0  0  0  0  0  0  0  0
    0.1804   15.3940   44.8223 C   0  0  0  0  0  0  0  0  0  0  0  0
   -1.2757   17.2284   45.2371 N   0  0  0  0  0  0  0  0  0  0  0  0
   -1.3485   18.5376   44.9458 C   0  0  0  0  0  0  0  0  0  0  0  0
   -0.2491   18.9114   44.2776 C   0  0  0  0  0  0  0  0  0  0  0  0
    0.2437   20.0674   43.7539 C   0  0  0  0  0  0  0  0  0  0  0  0
   -0.4401   21.2314   43.8720 N   0  0  0  0  0  0  0  0  0  0  0  0
    3.1735   20.9449   41.5741 H   0  0  0  0  0  0  0  0  0  0  0  0
    5.3584   20.9051   40.3815 H   0  0  0  0  0  0  0  0  0  0  0  0
    6.7686   18.8561   40.4335 H   0  0  0  0  0  0  0  0  0  0  0  0
    3.7903   16.8758   42.8745 H   0  0  0  0  0  0  0  0  0  0  0  0
    0.1474   15.0571   45.8689 H   0  0  0  0  0  0  0  0  0  0  0  0
   -0.5034   14.7802   44.2177 H   0  0  0  0  0  0  0  0  0  0  0  0
    1.2050   15.2902   44.4358 H   0  0  0  0  0  0  0  0  0  0  0  0
   -2.1833   19.2015   45.2148 H   0  0  0  0  0  0  0  0  0  0  0  0
   -1.3475   21.2486   44.3592 H   0  0  0  0  0  0  0  0  0  0  0  0
   -0.0525   22.0990   43.4745 H   0  0  0  0  0  0  0  0  0  0  0  0
  1  2  2  0
  1  6  1  0
  2  3  1  0
  3  4  2  0
  4  5  1  0
  5  6  2  0
  6  7  1  0
  7  8  2  0
  7  9  1  0
  8 16  1  0
  9 10  2  0
 10 11  1  0
 10 15  1  0
 11 12  1  0
 11 13  1  0
 13 14  2  0
 14 15  1  0
 15 16  2  0
 16 17  1  0
  1 18  1  0
  2 19  1  0
  3 20  1  0
  5 21  1  0
 12 22  1  0
 12 23  1  0
 12 24  1  0
 14 25  1  0
 17 26  1  0
 17 27  1  0
M  END
>  <mol_id>  (63) 
2026-09-18-6fnk-s0-n100-r3-0063

>  <rmsd_to_ref>  (63) 
3.301020408166449

>  <pose_kind>  (63) 
rigid

$$$$
6fnk.A
     RDKit          3D

 27 29  0  0  0  0  0  0  0  0999 V2000
    4.7134   16.9226   45.3940 C   0  0  0  0  0  0  0  0  0  0  0  0
    5.2246   15.8276   46.0743 C   0  0  0  0  0  0  0  0  0  0  0  0
    4.6291   14.5843   46.0093 C   0  0  0  0  0  0  0  0  0  0  0  0
    3.5046   14.4416   45.2494 N   0  0  0  0  0  0  0  0  0  0  0  0
    2.9911   15.4987   44.5783 C   0  0  0  0  0  0  0  0  0  0  0  0
    3.5672   16.7507   44.6270 C   0  0  0  0  0  0  0  0  0  0  0  0
    3.0138   17.8860   43.9050 C   0  0  0  0  0  0  0  0  0  0  0  0
    3.5957   19.1113   43.9656 N   0  0  0  0  0  0  0  0  0  0  0  0
    1.8885   17.6764   43.1640 N   0  0  0  0  0  0  0  0  0  0  0  0
    1.3506   18.6861   42.4893 C   0  0  0  0  0  0  0  0  0  0  0  0
    0.2453   18.7216   41.6918 N   0  0  0  0  0  0  0  0  0  0  0  0
   -0.6231   17.5775   41.4036 C   0  0  0  0  0  0  0  0  0  0  0  0
    0.1039   19.9358   41.2404 N   0  0  0  0  0  0  0  0  0  0  0  0
    1.0943   20.7404   41.7135 C   0  0  0  0  0  0  0  0  0  0  0  0
    1.8921   19.9512   42.5097 C   0  0  0  0  0  0  0  0  0  0  0  0
    3.0318   20.1317   43.2693 C   0  0  0  0  0  0  0  0  0  0  0  0
    3.6266   21.4418   43.3146 N   0  0  0  0  0  0  0  0  0  0  0  0
    5.2157   17.8802   45.4752 H   0  0  0  0  0  0  0  0  0  0  0  0
    6.1169   15.9828   46.6652 H   0  0  0  0  0  0  0  0  0  0  0  0
    5.0530   13.7545   46.5509 H   0  0  0  0  0  0  0  0  0  0  0  0
    2.0848   15.3548   43.9742 H   0  0  0  0  0  0  0  0  0  0  0  0
   -0.1995   16.6582   41.8450 H   0  0  0  0  0  0  0  0  0  0  0  0
   -1.6163   17.8452   41.7988 H   0  0  0  0  0  0  0  0  0  0  0  0
   -0.7397   17.3902   40.3227 H   0  0  0  0  0  0  0  0  0  0  0  0
    1.2523   21.7924   41.5222 H   0  0  0  0  0  0  0  0  0  0  0  0
    4.5513   21.5232   42.8428 H   0  0  0  0  0  0  0  0  0  0  0  0
    3.1362   22.2275   43.7946 H   0  0  0  0  0  0  0  0  0  0  0  0
  1  2  2  0
  1  6  1  0
  2  3  1  0
  3  4  2  0
  4  5  1  0
  5  6  2  0
  6  7  1  0
  7  8  2  0
  7  9  1  0
  8 16  1  0
  9 10  2  0
 10 11  1  0
 10 15  1  0
 11 12  1  0
 11 13  1  0
 13 14  2  0
 14 15  1  0
 15 16  2  0
 16 17  1  0
  1 18  1  0
  2 19  1  0
  3 20  1  0
  5 21  1  0
 12 22  1  0
 12 23  1  0
 12 24  1  0
 14 25  1  0
 17 26  1  0
 17 27  1  0
M  END
>  <mol_id>  (64) 
2026-09-18-6fnk-s0-n100-r3-0064

>  <rmsd_to_ref>  (64) 
3.3469387755129425

>  <pose_kind>  (64) 
conformer

$$$$
6fnk.A
     RDKit          3D

 27 29  0  0  0  0  0  0  0  0999 V2000
    1.9078   14.9761   41.8955 C   0  0  0  0  0  0  0  0  0  0  0  0
    1.0684   13.8828   42.1096 C   0  0  0  0  0  0  0  0  0  0  0  0
   -0.0691   14.0252   42.8909 C   0  0  0  0  0  0  0  0  0  0  0  0
   -0.3745   15.2649   43.4594 N   0  0  0  0  0  0  0  0  0  0  0  0
    0.4726   16.3624   43.2435 C   0  0  0  0  0  0  0  0  0  0  0  0
    1.6166   16.2201   42.4604 C   0  0  0  0  0  0  0  0  0  0  0  0
    2.4603   17.3153   42.2490 C   0  0  0  0  0  0  0  0  0  0  0  0
    3.6501   17.1650   41.6508 N   0  0  0  0  0  0  0  0  0  0  0  0
    2.0781   18.5349   42.6410 N   0  0  0  0  0  0  0  0  0  0  0  0
    2.8657   19.6105   42.4627 C   0  0  0  0  0  0  0  0  0  0  0  0
    2.7072   20.9043   42.7807 N   0  0  0  0  0  0  0  0  0  0  0  0
    1.5394   21.4910   43.4448 C   0  0  0  0  0  0  0  0  0  0  0  0
    3.6882   21.5600   42.4274 N   0  0  0  0  0  0  0  0  0  0  0  0
    4.5387   20.7159   41.8206 C   0  0  0  0  0  0  0  0  0  0  0  0
    4.0420   19.4722   41.8591 C   0  0  0  0  0  0  0  0  0  0  0  0
    4.4385   18.2366   41.4473 C   0  0  0  0  0  0  0  0  0  0  0  0
    5.6327   18.0587   40.8320 N   0  0  0  0  0  0  0  0  0  0  0  0
    2.8086   14.8575   41.2754 H   0  0  0  0  0  0  0  0  0  0  0  0
    1.3082   12.9083   41.6593 H   0  0  0  0  0  0  0  0  0  0  0  0
   -0.7301   13.1630   43.0629 H   0  0  0  0  0  0  0  0  0  0  0  0
    0.2332   17.3373   43.6934 H   0  0  0  0  0  0  0  0  0  0  0  0
    1.8689   22.0790   44.3141 H   0  0  0  0  0  0  0  0  0  0  0  0
    1.0070   22.1460   42.7395 H   0  0  0  0  0  0  0  0  0  0  0  0
    0.8660   20.6880   43.7793 H   0  0  0  0  0  0  0  0  0  0  0  0
    5.4968   21.0020   41.3621 H   0  0  0  0  0  0  0  0  0  0  0  0
    6.2519   18.8649   40.6662 H   0  0  0  0  0  0  0  0  0  0  0  0
    5.9212   17.1171   40.5300 H   0  0  0  0  0  0  0  0  0  0  0  0
  1  2  2  0
  1  6  1  0
  2  3  1  0
  3  4  2  0
  4  5  1  0
  5  6  2  0
  6  7  1  0
  7  8  2  0
  7  9  1  0
  8 16  1  0
  9 10  2  0
 10 11  1  0
 10 15  1  0
 11 12  1  0
 11 13  1  0
 13 14  2  0
 14 15  1  0
 15 16  2  0
 16 17  1  0
  1 18  1  0
  2 19  1  0
  3 20  1  0
  5 21  1  0
 12 22  1  0
 12 23  1  0
 12 24  1  0
 14 25  1  0
 17 26  1  0
 17 27  1  0
M  END
>  <mol_id>  (65) 
2026-09-18-6fnk-s0-n100-r3-0065

>  <rmsd_to_ref>  (65) 
3.3928571428607195

>  <pose_kind>  (65) 
rigid

$$$$
6fnk.A
     RDKit          3D

 27 29  0  0  0  0  0  0  0  0999 V2000
   -0.8458   16.8843   42.6050 C   0  0  0  0  0  0  0  0  0  0  0  0
   -0.8674   15.6893   41.8791 C   0  0  0  0  0  0  0  0  0  0  0  0
    0.3280   15.0652   41.5796 C   0  0  0  0  0  0  0  0  0  0  0  0
    1.5163   15.5965   41.9801 N   0  0  0  0  0  0  0  0  0  0  0  0
    1.5580   16.7565   42.6861 C   0  0  0  0  0  0  0  0  0  0  0  0
    0.3817   17.4163   43.0085 C   0  0  0  0  0  0  0  0  0  0  0  0
    0.3843   18.6626   43.7643 C   0  0  0  0  0  0  0  0  0  0  0  0
   -0.7548   19.2921   44.0708 N   0  0  0  0  0  0  0  0  0  0  0  0
    1.5875   19.1672   44.1496 N   0  0  0  0  0  0  0  0  0  0  0  0
    1.6548   20.3232   44.8549 C   0  0  0  0  0  0  0  0  0  0  0  0
    2.6755   21.0524   45.3644 N   0  0  0  0  0  0  0  0  0  0  0  0
    4.0888   20.6848   45.2349 C   0  0  0  0  0  0  0  0  0  0  0  0
    2.1872   22.1165   45.9773 N   0  0  0  0  0  0  0  0  0  0  0  0
    0.8274   22.1047   45.8804 C   0  0  0  0  0  0  0  0  0  0  0  0
    0.4682   20.9751   45.1718 C   0  0  0  0  0  0  0  0  0  0  0  0
   -0.7602   20.4414   44.7672 C   0  0  0  0  0  0  0  0  0  0  0  0
   -1.9680   21.1272   45.1032 N   0  0  0  0  0  0  0  0  0  0  0  0
   -1.7755   17.4011   42.8570 H   0  0  0  0  0  0  0  0  0  0  0  0
   -1.8302   15.3050   41.5826 H   0  0  0  0  0  0  0  0  0  0  0  0
    0.3076   14.1414   41.0182 H   0  0  0  0  0  0  0  0  0  0  0  0
    2.5195   17.1510   42.9887 H   0  0  0  0  0  0  0  0  0  0  0  0
    4.3530   19.8935   45.9747 H   0  0  0  0  0  0  0  0  0  0  0  0
    4.3146   20.3211   44.2261 H   0  0  0  0  0  0  0  0  0  0  0  0
    4.6913   21.5818   45.5102 H   0  0  0  0  0  0  0  0  0  0  0  0
    0.1469   22.8460   46.2849 H   0  0  0  0  0  0  0  0  0  0  0  0
   -2.2032   21.9480   44.4961 H   0  0  0  0  0  0  0  0  0  0  0  0
   -2.5721   20.8198   45.9077 H   0  0  0  0  0  0  0  0  0  0  0  0
  1  2  2  0
  1  6  1  0
  2  3  1  0
  3  4  2  0
  4  5  1  0
  5  6  2  0
  6  7  1  0
  7  8  2  0
  7  9  1  0
  8 16  1  0
  9 10  2  0
 10 11  1  0
 10 15  1  0
 11 12  1  0
 11 13  1  0
 13 14  2  0
 14 15  1  0
 15 16  2  0
 16 17  1  0
  1 18  1  0
  2 19  1  0
  3 20  1  0
  5 21  1  0
 12 22  1  0
 12 23  1  0
 12 24  1  0
 14 25  1  0
 17 26  1  0
 17 27  1  0
M  END
>  <mol_id>  (66) 
2026-09-18-6fnk-s0-n100-r3-0066

>  <rmsd_to_ref>  (66) 
3.438775510204633

>  <pose_kind>  (66) 
conformer

$$$$
6fnk.A
     RDKit          3D

 27 29  0  0  0  0  0  0  0  0999 V2000
    2.1108   19.6123   39.2223 C   0  0  0  0  0  0  0  0  0  0  0  0
    2.6832   19.5592   37.9512 C   0  0  0  0  0  0  0  0  0  0  0  0
    3.6553   18.6109   37.6683 C   0  0  0  0  0  0  0  0  0  0  0  0
    4.0573   17.7073   38.6559 N   0  0  0  0  0  0  0  0  0  0  0  0
    3.4808   17.7641   39.9339 C   0  0  0  0  0  0  0  0  0  0  0  0
    2.5055   18.7176   40.2199 C   0  0  0  0  0  0  0  0  0  0  0  0
    1.9344   18.7733   41.4954 C   0  0  0  0  0  0  0  0  0  0  0  0
    1.1284   19.7844   41.8475 N   0  0  0  0  0  0  0  0  0  0  0  0
    2.1866   17.8034   42.3801 N   0  0  0  0  0  0  0  0  0  0  0  0
    1.6628   17.8268   43.6186 C   0  0  0  0  0  0  0  0  0  0  0  0
    1.7830   16.9923   44.6623 N   0  0  0  0  0  0  0  0  0  0  0  0
    2.5737   15.7581   44.6913 C   0  0  0  0  0  0  0  0  0  0  0  0
    1.1206   17.3971   45.6186 N   0  0  0  0  0  0  0  0  0  0  0  0
    0.4973   18.5212   45.2288 C   0  0  0  0  0  0  0  0  0  0  0  0
    0.8525   18.8197   43.9719 C   0  0  0  0  0  0  0  0  0  0  0  0
    0.5809   19.8088   43.0768 C   0  0  0  0  0  0  0  0  0  0  0  0
   -0.2379   20.8377   43.4044 N   0  0  0  0  0  0  0  0  0  0  0  0
    1.3406   20.3664   39.4412 H   0  0  0  0  0  0  0  0  0  0  0  0
    2.3639   20.2689   37.1738 H   0  0  0  0  0  0  0  0  0  0  0  0
    4.1095   18.5701   36.6673 H   0  0  0  0  0  0  0  0  0  0  0  0
    3.7994   17.0545   40.7117 H   0  0  0  0  0  0  0  0  0  0  0  0
    3.2387   15.7692   45.5675 H   0  0  0  0  0  0  0  0  0  0  0  0
    1.8988   14.8917   44.7542 H   0  0  0  0  0  0  0  0  0  0  0  0
    3.1767   15.6873   43.7741 H   0  0  0  0  0  0  0  0  0  0  0  0
   -0.1986   19.1073   45.8471 H   0  0  0  0  0  0  0  0  0  0  0  0
   -0.6676   20.8763   44.3397 H   0  0  0  0  0  0  0  0  0  0  0  0
   -0.4305   21.5812   42.7181 H   0  0  0  0  0  0  0  0  0  0  0  0
  1  2  2  0
  1  6  1  0
  2  3  1  0
  3  4  2  0
  4  5  1  0
  5  6  2  0
  6  7  1  0
  7  8  2  0
  7  9  1  0
  8 16  1  0
  9 10  2  0
 10 11  1  0
 10 15  1  0
 11 12  1  0
 11 13  1  0
 13 14  2  0
 14 15  1  0
 15 16  2  0
 16 17  1  0
  1 18  1  0
  2 19  1  0
  3 20  1  0
  5 21  1  0
 12 22  1  0
 12 23  1  0
 12 24  1  0
 14 25  1  0
 17 26  1  0
 17 27  1  0
M  END
>  <mol_id>  (67) 
2026-09-18-6fnk-s0-n100-r3-0067

>  <rmsd_to_ref>  (67) 
3.4846938775570724

>  <pose_kind>  (67) 
rigid

$$$$
6fnk.A
     RDKit          3D

 27 29  0  0  0  0  0  0  0  0999 V2000
    1.7406   19.6875   41.0463 C   0  0  0  0  0  0  0  0  0  0  0  0
    2.7403   19.7966   40.1008 C   0  0  0  0  0  0  0  0  0  0  0  0
    3.6454   18.7485   39.9321 C   0  0  0  0  0  0  0  0  0  0  0  0
    3.5724   17.6224   40.6712 N   0  0  0  0  0  0  0  0  0  0  0  0
    2.6068   17.4938   41.5984 C   0  0  0  0  0  0  0  0  0  0  0  0
    1.6815   18.5208   41.7975 C   0  0  0  0  0  0  0  0  0  0  0  0
    0.6184   18.4017   42.8048 C   0  0  0  0  0  0  0  0  0  0  0  0
   -0.2744   19.3922   42.9973 N   0  0  0  0  0  0  0  0  0  0  0  0
    0.5452   17.2714   43.5466 N   0  0  0  0  0  0  0  0  0  0  0  0
   -0.4133   17.1227   44.4795 C   0  0  0  0  0  0  0  0  0  0  0  0
   -0.7447   16.1389   45.3608 N   0  0  0  0  0  0  0  0  0  0  0  0
   -0.0461   14.8640   45.5097 C   0  0  0  0  0  0  0  0  0  0  0  0
   -1.8164   16.5408   46.0634 N   0  0  0  0  0  0  0  0  0  0  0  0
   -2.1938   17.7537   45.6689 C   0  0  0  0  0  0  0  0  0  0  0  0
   -1.3300   18.1352   44.6798 C   0  0  0  0  0  0  0  0  0  0  0  0
   -1.2601   19.2897   43.9264 C   0  0  0  0  0  0  0  0  0  0  0  0
   -2.1513   20.3628   44.0681 N   0  0  0  0  0  0  0  0  0  0  0  0
    1.0199   20.5025   41.1924 H   0  0  0  0  0  0  0  0  0  0  0  0
    2.7973   20.7060   39.5056 H   0  0  0  0  0  0  0  0  0  0  0  0
    4.4200   18.8808   39.1708 H   0  0  0  0  0  0  0  0  0  0  0  0
    2.5624   16.5920   42.1779 H   0  0  0  0  0  0  0  0  0  0  0  0
   -0.4146   14.3874   46.4464 H   0  0  0  0  0  0  0  0  0  0  0  0
   -0.3560   14.1550   44.6902 H   0  0  0  0  0  0  0  0  0  0  0  0
    1.0450   14.9643   45.5628 H   0  0  0  0  0  0  0  0  0  0  0  0
   -3.0126   18.3616   46.0255 H   0  0  0  0  0  0  0  0  0  0  0  0
   -3.1423   20.3760   43.7321 H   0  0  0  0  0  0  0  0  0  0  0  0
   -1.8041   21.2251   44.5484 H   0  0  0  0  0  0  0  0  0  0  0  0
  1  2  2  0
  1  6  1  0
  2  3  1  0
  3  4  2  0
  4  5  1  0
  5  6  2  0
  6  7  1  0
  7  8  2  0
  7  9  1  0
  8 16  1  0
  9 10  2  0
 10 11  1  0
 10 15  1  0
 11 12  1  0
 11 13  1  0
 13 14  2  0
 14 15  1  0
 15 16  2  0
 16 17  1  0
  1 18  1  0
  2 19  1  0
  3 20  1  0
  5 21  1  0
 12 22  1  0
 12 23  1  0
 12 24  1  0
 14 25  1  0
 17 26  1  0
 17 27  1  0
M  END
>  <mol_id>  (68) 
2026-09-18-6fnk-s0-n100-r3-0068

>  <rmsd_to_ref>  (68) 
3.5306122449000417

>  <pose_kind>  (68) 
conformer

$$$$
6fnk.A
     RDKit          3D

 27 29  0  0  0  0  0  0  0  0999 V2000
    3.9540   15.5847   39.8089 C   0  0  0  0  0  0  0  0  0  0  0  0
    5.0482   15.5752   38.9437 C   0  0  0  0  0  0  0  0  0  0  0  0
    6.1990   16.2757   39.2745 C   0  0  0  0  0  0  0  0  0  0  0  0
    6.2620   16.9869   40.4759 N   0  0  0  0  0  0  0  0  0  0  0  0
    5.1592   16.9959   41.3434 C   0  0  0  0  0  0  0  0  0  0  0  0
    4.0019   16.2941   41.0113 C   0  0  0  0  0  0  0  0  0  0  0  0
    2.9034   16.3068   41.8769 C   0  0  0  0  0  0  0  0  0  0  0  0
    1.7244   15.7901   41.5041 N   0  0  0  0  0  0  0  0  0  0  0  0
    3.0254   16.8350   43.0989 N   0  0  0  0  0  0  0  0  0  0  0  0
    1.9895   16.8732   43.9558 C   0  0  0  0  0  0  0  0  0  0  0  0
    1.8699   17.3566   45.2017 N   0  0  0  0  0  0  0  0  0  0  0  0
    2.9311   18.0017   45.9807 C   0  0  0  0  0  0  0  0  0  0  0  0
    0.7278   17.1784   45.6271 N   0  0  0  0  0  0  0  0  0  0  0  0
    0.0404   16.5284   44.6735 C   0  0  0  0  0  0  0  0  0  0  0  0
    0.8201   16.3517   43.5985 C   0  0  0  0  0  0  0  0  0  0  0  0
    0.6858   15.8030   42.3599 C   0  0  0  0  0  0  0  0  0  0  0  0
   -0.4928   15.2657   41.9613 N   0  0  0  0  0  0  0  0  0  0  0  0
    3.0439   15.0277   39.5415 H   0  0  0  0  0  0  0  0  0  0  0  0
    4.9986   15.0126   37.9998 H   0  0  0  0  0  0  0  0  0  0  0  0
    7.0614   16.2713   38.5916 H   0  0  0  0  0  0  0  0  0  0  0  0
    5.2082   17.5581   42.2877 H   0  0  0  0  0  0  0  0  0  0  0  0
    2.5703   18.9685   46.3616 H   0  0  0  0  0  0  0  0  0  0  0  0
    3.2098   17.3555   46.8261 H   0  0  0  0  0  0  0  0  0  0  0  0
    3.8094   18.1651   45.3389 H   0  0  0  0  0  0  0  0  0  0  0  0
   -1.0033   16.1926   44.7618 H   0  0  0  0  0  0  0  0  0  0  0  0
   -1.3007   15.2650   42.6002 H   0  0  0  0  0  0  0  0  0  0  0  0
   -0.5806   14.8581   41.0195 H   0  0  0  0  0  0  0  0  0  0  0  0
  1  2  2  0
  1  6  1  0
  2  3  1  0
  3  4  2  0
  4  5  1  0
  5  6  2  0
  6  7  1  0
  7  8  2  0
  7  9  1  0
  8 16  1  0
  9 10  2  0
 10 11  1  0
 10 15  1  0
 11 12  1  0
 11 13  1  0
 13 14  2  0
 14 15  1  0
 15 16  2  0
 16 17  1  0
  1 18  1  0
  2 19  1  0
  3 20  1  0
  5 21  1  0
 12 22  1  0
 12 23  1  0
 12 24  1  0
 14 25  1  0
 17 26  1  0
 17 27  1  0
M  END
>  <mol_id>  (69) 
2026-09-18-6fnk-s0-n100-r3-0069

>  <rmsd_to_ref>  (69) 
3.5765306122456706

>  <pose_kind>  (69) 
rigid

$$$$
6fnk.A
     RDKit          3D

 27 29  0  0  0  0  0  0  0  0999 V2000
    2.1609   17.8711   39.2359 C   0  0  0  0  0  0  0  0  0  0  0  0
    2.6557   17.9151   37.9355 C   0  0  0  0  0  0  0  0  0  0  0  0
    3.3818   19.0235   37.5241 C   0  0  0  0  0  0  0  0  0  0  0  0
    3.6113   20.0591   38.3771 N   0  0  0  0  0  0  0  0  0  0  0  0
    3.1402   20.0445   39.6543 C   0  0  0  0  0  0  0  0  0  0  0  0
    2.4160   18.9419   40.0686 C   0  0  0  0  0  0  0  0  0  0  0  0
    1.9060   18.9143   41.4345 C   0  0  0  0  0  0  0  0  0  0  0  0
    2.1190   19.9196   42.2892 N   0  0  0  0  0  0  0  0  0  0  0  0
    1.1953   17.8636   41.8862 N   0  0  0  0  0  0  0  0  0  0  0  0
    0.7046   17.7958   43.1408 C   0  0  0  0  0  0  0  0  0  0  0  0
   -0.0224   16.8569   43.7979 N   0  0  0  0  0  0  0  0  0  0  0  0
   -0.4348   15.6121   43.1493 C   0  0  0  0  0  0  0  0  0  0  0  0
   -0.2477   17.2764   45.0202 N   0  0  0  0  0  0  0  0  0  0  0  0
    0.3167   18.4943   45.2115 C   0  0  0  0  0  0  0  0  0  0  0  0
    0.9258   18.8375   44.0251 C   0  0  0  0  0  0  0  0  0  0  0  0
    1.6581   19.9239   43.5653 C   0  0  0  0  0  0  0  0  0  0  0  0
    1.8970   21.0057   44.4583 N   0  0  0  0  0  0  0  0  0  0  0  0
    1.5847   17.0185   39.6008 H   0  0  0  0  0  0  0  0  0  0  0  0
    2.4501   17.0718   37.2926 H   0  0  0  0  0  0  0  0  0  0  0  0
    3.7621   19.0388   36.4979 H   0  0  0  0  0  0  0  0  0  0  0  0
    3.3505   20.8900   40.2876 H   0  0  0  0  0  0  0  0  0  0  0  0
   -0.7942   14.9245   43.9402 H   0  0  0  0  0  0  0  0  0  0  0  0
    0.4216   15.2258   42.5827 H   0  0  0  0  0  0  0  0  0  0  0  0
   -1.3278   15.7931   42.4881 H   0  0  0  0  0  0  0  0  0  0  0  0
    0.3022   19.0942   46.1114 H   0  0  0  0  0  0  0  0  0  0  0  0
    2.1402   20.7436   45.4428 H   0  0  0  0  0  0  0  0  0  0  0  0
    1.8462   22.0033   44.2009 H   0  0  0  0  0  0  0  0  0  0  0  0
  1  2  2  0
  1  6  1  0
  2  3  1  0
  3  4  2  0
  4  5  1  0
  5  6  2  0
  6  7  1  0
  7  8  2  0
  7  9  1  0
  8 16  1  0
  9 10  2  0
 10 11  1  0
 10 15  1  0
 11 12  1  0
 11 13  1  0
 13 14  2  0
 14 15  1  0
 15 16  2  0
 16 17  1  0
  1 18  1  0
  2 19  1  0
  3 20  1  0
  5 21  1  0
 12 22  1  0
 12 23  1  0
 12 24  1  0
 14 25  1  0
 17 26  1  0
 17 27  1  0
M  END
>  <mol_id>  (70) 
2026-09-18-6fnk-s0-n100-r3-0070

>  <rmsd_to_ref>  (70) 
3.622448979596825

>  <pose_kind>  (70) 
conformer

$$$$
6fnk.A
     RDKit          3D

 27 29  0  0  0  0  0  0  0  0999 V2000
   -0.1277   14.9871   43.8899 C   0  0  0  0  0  0  0  0  0  0  0  0
   -0.6278   13.9830   44.7192 C   0  0  0  0  0  0  0  0  0  0  0  0
   -1.0704   14.2957   45.9962 C   0  0  0  0  0  0  0  0  0  0  0  0
   -1.0182   15.6169   46.4490 N   0  0  0  0  0  0  0  0  0  0  0  0
   -0.5132   16.6245   45.6131 C   0  0  0  0  0  0  0  0  0  0  0  0
   -0.0666   16.3113   44.3307 C   0  0  0  0  0  0  0  0  0  0  0  0
    0.4384   17.3174   43.5007 C   0  0  0  0  0  0  0  0  0  0  0  0
    1.0332   17.0190   42.3374 N   0  0  0  0  0  0  0  0  0  0  0  0
    0.3240   18.5989   43.8635 N   0  0  0  0  0  0  0  0  0  0  0  0
    0.8048   19.5933   43.0961 C   0  0  0  0  0  0  0  0  0  0  0  0
    0.8215   20.9254   43.2558 N   0  0  0  0  0  0  0  0  0  0  0  0
    0.2676   21.6630   44.3951 C   0  0  0  0  0  0  0  0  0  0  0  0
    1.3670   21.4695   42.2948 N   0  0  0  0  0  0  0  0  0  0  0  0
    1.7119   20.5031   41.4280 C   0  0  0  0  0  0  0  0  0  0  0  0
    1.3852   19.3068   41.9350 C   0  0  0  0  0  0  0  0  0  0  0  0
    1.4998   18.0060   41.5503 C   0  0  0  0  0  0  0  0  0  0  0  0
    2.0889   17.6776   40.3748 N   0  0  0  0  0  0  0  0  0  0  0  0
    0.2221   14.7335   42.8783 H   0  0  0  0  0  0  0  0  0  0  0  0
   -0.6712   12.9440   44.3607 H   0  0  0  0  0  0  0  0  0  0  0  0
   -1.4621   13.5043   46.6521 H   0  0  0  0  0  0  0  0  0  0  0  0
   -0.4698   17.6638   45.9708 H   0  0  0  0  0  0  0  0  0  0  0  0
    1.0317   22.3448   44.7969 H   0  0  0  0  0  0  0  0  0  0  0  0
   -0.6060   22.2446   44.0657 H   0  0  0  0  0  0  0  0  0  0  0  0
   -0.0383   20.9532   45.1778 H   0  0  0  0  0  0  0  0  0  0  0  0
    2.1897   20.6687   40.4511 H   0  0  0  0  0  0  0  0  0  0  0  0
    2.4530   18.4170   39.7570 H   0  0  0  0  0  0  0  0  0  0  0  0
    2.1724   16.6887   40.0992 H   0  0  0  0  0  0  0  0  0  0  0  0
  1  2  2  0
  1  6  1  0
  2  3  1  0
  3  4  2  0
  4  5  1  0
  5  6  2  0
  6  7  1  0
  7  8  2  0
  7  9  1  0
  8 16  1  0
  9 10  2  0
 10 11  1  0
 10 15  1  0
 11 12  1  0
 11 13  1  0
 13 14  2  0
 14 15  1  0
 15 16  2  0
 16 17  1  0
  1 18  1  0
  2 19  1  0
  3 20  1  0
  5 21  1  0
 12 22  1  0
 12 23  1  0
 12 24  1  0
 14 25  1  0
 17 26  1  0
 17 27  1  0
M  END
>  <mol_id>  (71) 
2026-09-18-6fnk-s0-n100-r3-0071

>  <rmsd_to_ref>  (71) 
3.6683673469399682

>  <pose_kind>  (71) 
rigid

$$$$
6fnk.A
     RDKit          3D

 27 29  0  0  0  0  0  0  0  0999 V2000
    0.1056   15.2706   43.4359 C   0  0  0  0  0  0  0  0  0  0  0  0
   -0.7078   14.1755   43.7255 C   0  0  0  0  0  0  0  0  0  0  0  0
   -0.9507   13.1922   42.7927 C   0  0  0  0  0  0  0  0  0  0  0  0
   -0.3923   13.2821   41.5659 N   0  0  0  0  0  0  0  0  0  0  0  0
    0.4026   14.3445   41.2710 C   0  0  0  0  0  0  0  0  0  0  0  0
    0.6585   15.3408   42.1920 C   0  0  0  0  0  0  0  0  0  0  0  0
    1.5262   16.4439   41.7820 C   0  0  0  0  0  0  0  0  0  0  0  0
    2.0264   16.4206   40.5220 N   0  0  0  0  0  0  0  0  0  0  0  0
    1.8193   17.4528   42.6317 N   0  0  0  0  0  0  0  0  0  0  0  0
    2.6290   18.4774   42.2417 C   0  0  0  0  0  0  0  0  0  0  0  0
    3.0871   19.5781   42.8302 N   0  0  0  0  0  0  0  0  0  0  0  0
    2.8176   20.0228   44.1803 C   0  0  0  0  0  0  0  0  0  0  0  0
    3.8678   20.2750   42.0021 N   0  0  0  0  0  0  0  0  0  0  0  0
    3.9047   19.5895   40.8474 C   0  0  0  0  0  0  0  0  0  0  0  0
    3.1371   18.4492   40.9546 C   0  0  0  0  0  0  0  0  0  0  0  0
    2.8318   17.4062   40.0818 C   0  0  0  0  0  0  0  0  0  0  0  0
    3.3520   17.3822   38.7717 N   0  0  0  0  0  0  0  0  0  0  0  0
    0.2857   16.0319   44.1775 H   0  0  0  0  0  0  0  0  0  0  0  0
   -1.1780   14.0646   44.7038 H   0  0  0  0  0  0  0  0  0  0  0  0
   -1.5883   12.3223   43.0020 H   0  0  0  0  0  0  0  0  0  0  0  0
    0.8245   14.3586   40.2606 H   0  0  0  0  0  0  0  0  0  0  0  0
    2.6989   19.1239   44.8056 H   0  0  0  0  0  0  0  0  0  0  0  0
    1.8840   20.6077   44.2354 H   0  0  0  0  0  0  0  0  0  0  0  0
    3.6309   20.6659   44.5839 H   0  0  0  0  0  0  0  0  0  0  0  0
    4.4421   19.8431   39.9262 H   0  0  0  0  0  0  0  0  0  0  0  0
    3.8215   18.2166   38.3628 H   0  0  0  0  0  0  0  0  0  0  0  0
    3.2638   16.5117   38.2037 H   0  0  0  0  0  0  0  0  0  0  0  0
  1  2  2  0
  1  6  1  0
  2  3  1  0
  3  4  2  0
  4  5  1  0
  5  6  2  0
  6  7  1  0
  7  8  2  0
  7  9  1  0
  8 16  1  0
  9 10  2  0
 10 11  1  0
 10 15  1  0
 11 12  1  0
 11 13  1  0
 13 14  2  0
 14 15  1  0
 15 16  2  0
 16 17  1  0
  1 18  1  0
  2 19  1  0
  3 20  1  0
  5 21  1  0
 12 22  1  0
 12 23  1  0
 12 24  1  0
 14 25  1  0
 17 26  1  0
 17 27  1  0
M  END
>  <mol_id>  (72) 
2026-09-18-6fnk-s0-n100-r3-0072

>  <rmsd_to_ref>  (72) 
3.7142857142905537

>  <pose_kind>  (72) 
conformer

$$$$
6fnk.A
     RDKit          3D

 27 29  0  0  0  0  0  0  0  0999 V2000
    1.4444   18.4277   40.0469 C   0  0  0  0  0  0  0  0  0  0  0  0
    1.4433   18.3562   38.6537 C   0  0  0  0  0  0  0  0  0  0  0  0
    0.3255   18.7634   37.9401 C   0  0  0  0  0  0  0  0  0  0  0  0
   -0.7966   19.2482   38.6176 N   0  0  0  0  0  0  0  0  0  0  0  0
   -0.7931   19.3174   40.0191 C   0  0  0  0  0  0  0  0  0  0  0  0
    0.3285   18.9069   40.7372 C   0  0  0  0  0  0  0  0  0  0  0  0
    0.3281   18.9749   42.1341 C   0  0  0  0  0  0  0  0  0  0  0  0
    1.3179   18.4267   42.8524 N   0  0  0  0  0  0  0  0  0  0  0  0
   -0.6680   19.6003   42.7695 N   0  0  0  0  0  0  0  0  0  0  0  0
   -0.7074   19.6787   44.1115 C   0  0  0  0  0  0  0  0  0  0  0  0
   -1.5940   20.2288   44.9551 N   0  0  0  0  0  0  0  0  0  0  0  0
   -2.8214   20.9342   44.5745 C   0  0  0  0  0  0  0  0  0  0  0  0
   -1.2350   20.0720   46.1228 N   0  0  0  0  0  0  0  0  0  0  0  0
   -0.0570   19.4271   46.0982 C   0  0  0  0  0  0  0  0  0  0  0  0
    0.2767   19.1484   44.8310 C   0  0  0  0  0  0  0  0  0  0  0  0
    1.3013   18.5165   44.1952 C   0  0  0  0  0  0  0  0  0  0  0  0
    2.3189   17.9615   44.8973 N   0  0  0  0  0  0  0  0  0  0  0  0
    2.3333   18.1033   40.6078 H   0  0  0  0  0  0  0  0  0  0  0  0
    2.3281   17.9772   38.1214 H   0  0  0  0  0  0  0  0  0  0  0  0
    0.3224   18.7046   36.8417 H   0  0  0  0  0  0  0  0  0  0  0  0
   -1.6775   19.6966   40.5520 H   0  0  0  0  0  0  0  0  0  0  0  0
   -3.6742   20.5084   45.1236 H   0  0  0  0  0  0  0  0  0  0  0  0
   -2.7224   22.0016   44.8213 H   0  0  0  0  0  0  0  0  0  0  0  0
   -2.9886   20.8219   43.4931 H   0  0  0  0  0  0  0  0  0  0  0  0
    0.5423   19.1676   46.9834 H   0  0  0  0  0  0  0  0  0  0  0  0
    2.3262   18.0186   45.9257 H   0  0  0  0  0  0  0  0  0  0  0  0
    3.0849   17.4827   44.4025 H   0  0  0  0  0  0  0  0  0  0  0  0
  1  2  2  0
  1  6  1  0
  2  3  1  0
  3  4  2  0
  4  5  1  0
  5  6  2  0
  6  7  1  0
  7  8  2  0
  7  9  1  0
  8 16  1  0
  9 10  2  0
 10 11  1  0
 10 15  1  0
 11 12  1  0
 11 13  1  0
 13 14  2  0
 14 15  1  0
 15 16  2  0
 16 17  1  0
  1 18  1  0
  2 19  1  0
  3 20  1  0
  5 21  1  0
 12 22  1  0
 12 23  1  0
 12 24  1  0
 14 25  1  0
 17 26  1  0
 17 27  1  0
M  END
>  <mol_id>  (73) 
2026-09-18-6fnk-s0-n100-r3-0073

>  <rmsd_to_ref>  (73) 
3.7602040816343636

>  <pose_kind>  (73) 
rigid

$$$$
6fnk.A
     RDKit          3D

 27 29  0  0  0  0  0  0  0  0999 V2000
    2.2436   19.4377   41.6237 C   0  0  0  0  0  0  0  0  0  0  0  0
    3.3292   19.2973   40.7623 C   0  0  0  0  0  0  0  0  0  0  0  0
    4.5366   18.8167   41.2790 C   0  0  0  0  0  0  0  0  0  0  0  0
    4.6632   18.4907   42.5852 N   0  0  0  0  0  0  0  0  0  0  0  0
    3.6243   18.6198   43.4333 C   0  0  0  0  0  0  0  0  0  0  0  0
    2.4013   19.0975   42.9516 C   0  0  0  0  0  0  0  0  0  0  0  0
    1.2759   19.2312   43.8983 C   0  0  0  0  0  0  0  0  0  0  0  0
    1.4603   18.8942   45.1751 N   0  0  0  0  0  0  0  0  0  0  0  0
    0.1098   19.6829   43.4562 N   0  0  0  0  0  0  0  0  0  0  0  0
   -0.9606   19.8322   44.2560 C   0  0  0  0  0  0  0  0  0  0  0  0
   -2.2312   20.2489   44.1171 N   0  0  0  0  0  0  0  0  0  0  0  0
   -2.7815   20.6991   42.8311 C   0  0  0  0  0  0  0  0  0  0  0  0
   -2.8576   20.1828   45.2824 N   0  0  0  0  0  0  0  0  0  0  0  0
   -2.0083   19.7210   46.2081 C   0  0  0  0  0  0  0  0  0  0  0  0
   -0.7804   19.4824   45.5967 C   0  0  0  0  0  0  0  0  0  0  0  0
    0.4314   19.0182   46.0323 C   0  0  0  0  0  0  0  0  0  0  0  0
    0.5440   18.6780   47.4226 N   0  0  0  0  0  0  0  0  0  0  0  0
    1.2851   19.8148   41.2340 H   0  0  0  0  0  0  0  0  0  0  0  0
    3.2486   19.5535   39.7096 H   0  0  0  0  0  0  0  0  0  0  0  0
    5.4055   18.6914   40.6479 H   0  0  0  0  0  0  0  0  0  0  0  0
    3.7589   18.3490   44.4780 H   0  0  0  0  0  0  0  0  0  0  0  0
   -3.8125   21.0709   42.9530 H   0  0  0  0  0  0  0  0  0  0  0  0
   -2.0761   21.4878   42.4674 H   0  0  0  0  0  0  0  0  0  0  0  0
   -2.6808   19.8707   42.0987 H   0  0  0  0  0  0  0  0  0  0  0  0
   -2.2382   19.5614   47.2507 H   0  0  0  0  0  0  0  0  0  0  0  0
    0.5527   17.6884   47.7598 H   0  0  0  0  0  0  0  0  0  0  0  0
    0.6167   19.5048   48.0708 H   0  0  0  0  0  0  0  0  0  0  0  0
  1  2  2  0
  1  6  1  0
  2  3  1  0
  3  4  2  0
  4  5  1  0
  5  6  2  0
  6  7  1  0
  7  8  2  0
  7  9  1  0
  8 16  1  0
  9 10  2  0
 10 11  1  0
 10 15  1  0
 11 12  1  0
 11 13  1  0
 13 14  2  0
 14 15  1  0
 15 16  2  0
 16 17  1  0
  1 18  1  0
  2 19  1  0
  3 20  1  0
  5 21  1  0
 12 22  1  0
 12 23  1  0
 12 24  1  0
 14 25  1  0
 17 26  1  0
 17 27  1  0
M  END
>  <mol_id>  (74) 
2026-09-18-6fnk-s0-n100-r3-0074

>  <rmsd_to_ref>  (74) 
3.806122448982195

>  <pose_kind>  (74) 
conformer

$$$$
6fnk.A
     RDKit          3D

 27 29  0  0  0  0  0  0  0  0999 V2000
    3.9662   18.9164   41.7477 C   0  0  0  0  0  0  0  0  0  0  0  0
    4.3885   19.1353   40.4363 C   0  0  0  0  0  0  0  0  0  0  0  0
    3.9850   18.2746   39.4259 C   0  0  0  0  0  0  0  0  0  0  0  0
    3.1530   17.1915   39.7225 N   0  0  0  0  0  0  0  0  0  0  0  0
    2.7312   16.9731   41.0428 C   0  0  0  0  0  0  0  0  0  0  0  0
    3.1374   17.8359   42.0590 C   0  0  0  0  0  0  0  0  0  0  0  0
    2.7172   17.6143   43.3744 C   0  0  0  0  0  0  0  0  0  0  0  0
    3.2310   18.3197   44.3916 N   0  0  0  0  0  0  0  0  0  0  0  0
    1.7846   16.6908   43.6282 N   0  0  0  0  0  0  0  0  0  0  0  0
    1.3616   16.4433   44.8807 C   0  0  0  0  0  0  0  0  0  0  0  0
    0.4670   15.5727   45.3727 N   0  0  0  0  0  0  0  0  0  0  0  0
   -0.3242   14.6172   44.5917 C   0  0  0  0  0  0  0  0  0  0  0  0
    0.3825   15.6844   46.5965 N   0  0  0  0  0  0  0  0  0  0  0  0
    1.2104   16.6746   46.9680 C   0  0  0  0  0  0  0  0  0  0  0  0
    1.8570   17.1470   45.8939 C   0  0  0  0  0  0  0  0  0  0  0  0
    2.8010   18.0964   45.6472 C   0  0  0  0  0  0  0  0  0  0  0  0
    3.3301   18.8298   46.6565 N   0  0  0  0  0  0  0  0  0  0  0  0
    4.2894   19.6019   42.5450 H   0  0  0  0  0  0  0  0  0  0  0  0
    5.0409   19.9897   40.2035 H   0  0  0  0  0  0  0  0  0  0  0  0
    4.3198   18.4445   38.3919 H   0  0  0  0  0  0  0  0  0  0  0  0
    2.0785   16.1189   41.2762 H   0  0  0  0  0  0  0  0  0  0  0  0
   -0.2101   13.6103   45.0197 H   0  0  0  0  0  0  0  0  0  0  0  0
   -1.3843   14.9096   44.6196 H   0  0  0  0  0  0  0  0  0  0  0  0
    0.0281   14.6147   43.5496 H   0  0  0  0  0  0  0  0  0  0  0  0
    1.3381   17.0417   47.9971 H   0  0  0  0  0  0  0  0  0  0  0  0
    3.0155   18.6755   47.6251 H   0  0  0  0  0  0  0  0  0  0  0  0
    4.0469   19.5415   46.4550 H   0  0  0  0  0  0  0  0  0  0  0  0
  1  2  2  0
  1  6  1  0
  2  3  1  0
  3  4  2  0
  4  5  1  0
  5  6  2  0
  6  7  1  0
  7  8  2  0
  7  9  1  0
  8 16  1  0
  9 10  2  0
 10 11  1  0
 10 15  1  0
 11 12  1  0
 11 13  1  0
 13 14  2  0
 14 15  1  0
 15 16  2  0
 16 17  1  0
  1 18  1  0
  2 19  1  0
  3 20  1  0
  5 21  1  0
 12 22  1  0
 12 23  1  0
 12 24  1  0
 14 25  1  0
 17 26  1  0
 17 27  1  0
M  END
>  <mol_id>  (75) 
2026-09-18-6fnk-s0-n100-r3-0075

>  <rmsd_to_ref>  (75) 
3.8520408163270585

>  <pose_kind>  (75) 
rigid

$$$$
6fnk.A
     RDKit          3D

 27 29  0  0  0  0  0  0  0  0999 V2000
    3.6853   18.2826   43.1173 C   0  0  0  0  0  0  0  0  0  0  0  0
    4.9907   17.8549   42.9757 C   0  0  0  0  0  0  0  0  0  0  0  0
    5.8081   17.5831   44.0683 C   0  0  0  0  0  0  0  0  0  0  0  0
    5.3109   17.7420   45.3132 N   0  0  0  0  0  0  0  0  0  0  0  0
    4.0355   18.1596   45.5178 C   0  0  0  0  0  0  0  0  0  0  0  0
    3.2339   18.4262   44.4268 C   0  0  0  0  0  0  0  0  0  0  0  0
    1.8548   18.8776   44.6577 C   0  0  0  0  0  0  0  0  0  0  0  0
    1.3844   19.0277   45.8865 N   0  0  0  0  0  0  0  0  0  0  0  0
    1.0446   19.1468   43.6215 N   0  0  0  0  0  0  0  0  0  0  0  0
   -0.2169   19.5597   43.8146 C   0  0  0  0  0  0  0  0  0  0  0  0
   -1.2289   19.8944   42.9663 N   0  0  0  0  0  0  0  0  0  0  0  0
   -1.1773   19.8823   41.5233 C   0  0  0  0  0  0  0  0  0  0  0  0
   -2.2755   20.2352   43.6645 N   0  0  0  0  0  0  0  0  0  0  0  0
   -2.0317   20.1508   45.0004 C   0  0  0  0  0  0  0  0  0  0  0  0
   -0.7254   19.7222   45.0869 C   0  0  0  0  0  0  0  0  0  0  0  0
    0.1291   19.4385   46.1446 C   0  0  0  0  0  0  0  0  0  0  0  0
   -0.3591   19.5940   47.4824 N   0  0  0  0  0  0  0  0  0  0  0  0
    3.0546   18.4923   42.2616 H   0  0  0  0  0  0  0  0  0  0  0  0
    5.3573   17.7382   41.9506 H   0  0  0  0  0  0  0  0  0  0  0  0
    6.8175   17.2528   43.8712 H   0  0  0  0  0  0  0  0  0  0  0  0
    3.6871   18.2704   46.5385 H   0  0  0  0  0  0  0  0  0  0  0  0
   -2.0159   19.3741   41.0357 H   0  0  0  0  0  0  0  0  0  0  0  0
   -0.2600   19.3460   41.2031 H   0  0  0  0  0  0  0  0  0  0  0  0
   -1.0667   20.9324   41.1674 H   0  0  0  0  0  0  0  0  0  0  0  0
   -2.7059   20.3691   45.8193 H   0  0  0  0  0  0  0  0  0  0  0  0
   -0.9889   18.8919   47.9333 H   0  0  0  0  0  0  0  0  0  0  0  0
   -0.0764   20.4458   48.0381 H   0  0  0  0  0  0  0  0  0  0  0  0
  1  2  2  0
  1  6  1  0
  2  3  1  0
  3  4  2  0
  4  5  1  0
  5  6  2  0
  6  7  1  0
  7  8  2  0
  7  9  1  0
  8 16  1  0
  9 10  2  0
 10 11  1  0
 10 15  1  0
 11 12  1  0
 11 13  1  0
 13 14  2  0
 14 15  1  0
 15 16  2  0
 16 17  1  0
  1 18  1  0
  2 19  1  0
  3 20  1  0
  5 21  1  0
 12 22  1  0
 12 23  1  0
 12 24  1  0
 14 25  1  0
 17 26  1  0
 17 27  1  0
M  END
>  <mol_id>  (76) 
2026-09-18-6fnk-s0-n100-r3-0076

>  <rmsd_to_ref>  (76) 
3.8979591836745606

>  <pose_kind>  (76) 
conformer

$$$$
6fnk.A
     RDKit          3D

 27 29  0  0  0  0  0  0  0  0999 V2000
    0.0460   16.0597   39.4534 C   0  0  0  0  0  0  0  0  0  0  0  0
   -1.1828   15.4789   39.1394 C   0  0  0  0  0  0  0  0  0  0  0  0
   -2.2616   15.6336   39.9977 C   0  0  0  0  0  0  0  0  0  0  0  0
   -2.1170   16.3743   41.1741 N   0  0  0  0  0  0  0  0  0  0  0  0
   -0.8792   16.9559   41.4880 C   0  0  0  0  0  0  0  0  0  0  0  0
    0.2058   16.7996   40.6274 C   0  0  0  0  0  0  0  0  0  0  0  0
    1.4389   17.3786   40.9442 C   0  0  0  0  0  0  0  0  0  0  0  0
    2.5370   17.0992   40.2287 N   0  0  0  0  0  0  0  0  0  0  0  0
    1.5300   18.2297   41.9710 N   0  0  0  0  0  0  0  0  0  0  0  0
    2.6999   18.7994   42.3113 C   0  0  0  0  0  0  0  0  0  0  0  0
    3.0334   19.6535   43.2908 N   0  0  0  0  0  0  0  0  0  0  0  0
    2.1217   20.2121   44.2937 C   0  0  0  0  0  0  0  0  0  0  0  0
    4.2334   19.9262   43.2371 N   0  0  0  0  0  0  0  0  0  0  0  0
    4.7465   19.2760   42.1797 C   0  0  0  0  0  0  0  0  0  0  0  0
    3.7914   18.5373   41.5992 C   0  0  0  0  0  0  0  0  0  0  0  0
    3.7095   17.6790   40.5457 C   0  0  0  0  0  0  0  0  0  0  0  0
    4.8029   17.3864   39.8004 N   0  0  0  0  0  0  0  0  0  0  0  0
    0.8982   15.9336   38.7693 H   0  0  0  0  0  0  0  0  0  0  0  0
   -1.2964   14.8987   38.2118 H   0  0  0  0  0  0  0  0  0  0  0  0
   -3.2303   15.1736   39.7526 H   0  0  0  0  0  0  0  0  0  0  0  0
   -0.7651   17.5365   42.4153 H   0  0  0  0  0  0  0  0  0  0  0  0
    2.5384   20.0500   45.2987 H   0  0  0  0  0  0  0  0  0  0  0  0
    1.9990   21.2909   44.1172 H   0  0  0  0  0  0  0  0  0  0  0  0
    1.1436   19.7145   44.2176 H   0  0  0  0  0  0  0  0  0  0  0  0
    5.7914   19.3403   41.8419 H   0  0  0  0  0  0  0  0  0  0  0  0
    5.7103   17.8188   40.0254 H   0  0  0  0  0  0  0  0  0  0  0  0
    4.7265   16.7316   39.0090 H   0  0  0  0  0  0  0  0  0  0  0  0
  1  2  2  0
  1  6  1  0
  2  3  1  0
  3  4  2  0
  4  5  1  0
  5  6  2  0
  6  7  1  0
  7  8  2  0
  7  9  1  0
  8 16  1  0
  9 10  2  0
 10 11  1  0
 10 15  1  0
 11 12  1  0
 11 13  1  0
 13 14  2  0
 14 15  1  0
 15 16  2  0
 16 17  1  0
  1 18  1  0
  2 19  1  0
  3 20  1  0
  5 21  1  0
 12 22  1  0
 12 23  1  0
 12 24  1  0
 14 25  1  0
 17 26  1  0
 17 27  1  0
M  END
>  <mol_id>  (77) 
2026-09-18-6fnk-s0-n100-r3-0077

>  <rmsd_to_ref>  (77) 
3.9438775510204733

>  <pose_kind>  (77) 
rigid

$$$$
6fnk.A
     RDKit          3D

 27 29  0  0  0  0  0  0  0  0999 V2000
    0.9968   18.1443   46.1208 C   0  0  0  0  0  0  0  0  0  0  0  0
    1.5916   17.6803   47.2757 C   0  0  0  0  0  0  0  0  0  0  0  0
    2.6401   16.7913   47.1589 C   0  0  0  0  0  0  0  0  0  0  0  0
    3.1017   16.3620   45.9608 N   0  0  0  0  0  0  0  0  0  0  0  0
    2.5326   16.8052   44.8313 C   0  0  0  0  0  0  0  0  0  0  0  0
    1.4681   17.7062   44.9006 C   0  0  0  0  0  0  0  0  0  0  0  0
    0.8670   18.1731   43.6739 C   0  0  0  0  0  0  0  0  0  0  0  0
    1.3442   17.7310   42.4837 N   0  0  0  0  0  0  0  0  0  0  0  0
   -0.1617   19.0428   43.7114 N   0  0  0  0  0  0  0  0  0  0  0  0
   -0.7445   19.4977   42.5859 C   0  0  0  0  0  0  0  0  0  0  0  0
   -1.7587   20.3449   42.3117 N   0  0  0  0  0  0  0  0  0  0  0  0
   -2.5524   21.0480   43.3149 C   0  0  0  0  0  0  0  0  0  0  0  0
   -1.9164   20.4343   40.9898 N   0  0  0  0  0  0  0  0  0  0  0  0
   -1.0160   19.6532   40.3535 C   0  0  0  0  0  0  0  0  0  0  0  0
   -0.2773   19.0624   41.3476 C   0  0  0  0  0  0  0  0  0  0  0  0
    0.7745   18.1739   41.3308 C   0  0  0  0  0  0  0  0  0  0  0  0
    1.3152   17.6772   40.1119 N   0  0  0  0  0  0  0  0  0  0  0  0
    0.1605   18.8525   46.1861 H   0  0  0  0  0  0  0  0  0  0  0  0
    1.2351   18.0134   48.2497 H   0  0  0  0  0  0  0  0  0  0  0  0
    3.0781   16.4527   48.1040 H   0  0  0  0  0  0  0  0  0  0  0  0
    2.9151   16.4505   43.8685 H   0  0  0  0  0  0  0  0  0  0  0  0
   -3.2263   21.7681   42.7951 H   0  0  0  0  0  0  0  0  0  0  0  0
   -1.9515   21.5868   44.0538 H   0  0  0  0  0  0  0  0  0  0  0  0
   -3.2421   20.3134   43.8205 H   0  0  0  0  0  0  0  0  0  0  0  0
   -0.8718   19.4963   39.2905 H   0  0  0  0  0  0  0  0  0  0  0  0
    0.6863   17.1457   39.4448 H   0  0  0  0  0  0  0  0  0  0  0  0
    2.3230   17.8192   39.8471 H   0  0  0  0  0  0  0  0  0  0  0  0
  1  2  2  0
  1  6  1  0
  2  3  1  0
  3  4  2  0
  4  5  1  0
  5  6  2  0
  6  7  1  0
  7  8  2  0
  7  9  1  0
  8 16  1  0
  9 10  2  0
 10 11  1  0
 10 15  1  0
 11 12  1  0
 11 13  1  0
 13 14  2  0
 14 15  1  0
 15 16  2  0
 16 17  1  0
  1 18  1  0
  2 19  1  0
  3 20  1  0
  5 21  1  0
 12 22  1  0
 12 23  1  0
 12 24  1  0
 14 25  1  0
 17 26  1  0
 17 27  1  0
M  END
>  <mol_id>  (78) 
2026-09-18-6fnk-s0-n100-r3-0078

>  <rmsd_to_ref>  (78) 
3.9897959183700826

>  <pose_kind>  (78) 
conformer

$$$$
6fnk.A
     RDKit          3D

 27 29  0  0  0  0  0  0  0  0999 V2000
    3.5927   15.6526   44.2408 C   0  0  0  0  0  0  0  0  0  0  0  0
    4.0041   15.1967   45.4934 C   0  0  0  0  0  0  0  0  0  0  0  0
    3.0612   14.9001   46.4667 C   0  0  0  0  0  0  0  0  0  0  0  0
    1.7000   15.0548   46.1898 N   0  0  0  0  0  0  0  0  0  0  0  0
    1.2893   15.5150   44.9295 C   0  0  0  0  0  0  0  0  0  0  0  0
    2.2357   15.8151   43.9516 C   0  0  0  0  0  0  0  0  0  0  0  0
    1.8234   16.2759   42.6971 C   0  0  0  0  0  0  0  0  0  0  0  0
    2.7109   16.7361   41.8046 N   0  0  0  0  0  0  0  0  0  0  0  0
    0.5264   16.2542   42.3737 N   0  0  0  0  0  0  0  0  0  0  0  0
    0.0910   16.6969   41.1807 C   0  0  0  0  0  0  0  0  0  0  0  0
   -1.1372   16.7869   40.6481 N   0  0  0  0  0  0  0  0  0  0  0  0
   -2.3886   16.3840   41.2966 C   0  0  0  0  0  0  0  0  0  0  0  0
   -1.0820   17.2548   39.5101 N   0  0  0  0  0  0  0  0  0  0  0  0
    0.2132   17.4680   39.2253 C   0  0  0  0  0  0  0  0  0  0  0  0
    0.9659   17.1434   40.2850 C   0  0  0  0  0  0  0  0  0  0  0  0
    2.2904   17.1623   40.5992 C   0  0  0  0  0  0  0  0  0  0  0  0
    3.2094   17.6141   39.7116 N   0  0  0  0  0  0  0  0  0  0  0  0
    4.3447   15.8866   43.4729 H   0  0  0  0  0  0  0  0  0  0  0  0
    5.0756   15.0725   45.7091 H   0  0  0  0  0  0  0  0  0  0  0  0
    3.3846   14.5434   47.4557 H   0  0  0  0  0  0  0  0  0  0  0  0
    0.2180   15.6392   44.7130 H   0  0  0  0  0  0  0  0  0  0  0  0
   -3.1095   17.2135   41.2498 H   0  0  0  0  0  0  0  0  0  0  0  0
   -2.8044   15.5072   40.7785 H   0  0  0  0  0  0  0  0  0  0  0  0
   -2.1911   16.1289   42.3483 H   0  0  0  0  0  0  0  0  0  0  0  0
    0.5972   17.8506   38.2682 H   0  0  0  0  0  0  0  0  0  0  0  0
    2.9096   17.9450   38.7834 H   0  0  0  0  0  0  0  0  0  0  0  0
    4.2076   17.6266   39.9652 H   0  0  0  0  0  0  0  0  0  0  0  0
  1  2  2  0
  1  6  1  0
  2  3  1  0
  3  4  2  0
  4  5  1  0
  5  6  2  0
  6  7  1  0
  7  8  2  0
  7  9  1  0
  8 16  1  0
  9 10  2  0
 10 11  1  0
 10 15  1  0
 11 12  1  0
 11 13  1  0
 13 14  2  0
 14 15  1  0
 15 16  2  0
 16 17  1  0
  1 18  1  0
  2 19  1  0
  3 20  1  0
  5 21  1  0
 12 22  1  0
 12 23  1  0
 12 24  1  0
 14 25  1  0
 17 26  1  0
 17 27  1  0
M  END
>  <mol_id>  (79) 
2026-09-18-6fnk-s0-n100-r3-0079

>  <rmsd_to_ref>  (79) 
4.035714285716042

>  <pose_kind>  (79) 
rigid

$$$$
6fnk.A
     RDKit          3D

 27 29  0  0  0  0  0  0  0  0999 V2000
    3.7375   20.5940   42.3059 C   0  0  0  0  0  0  0  0  0  0  0  0
    5.0264   21.0879   42.3013 C   0  0  0  0  0  0  0  0  0  0  0  0
    5.8987   20.7443   43.3344 C   0  0  0  0  0  0  0  0  0  0  0  0
    5.5174   19.9374   44.3459 N   0  0  0  0  0  0  0  0  0  0  0  0
    4.2664   19.4444   44.3713 C   0  0  0  0  0  0  0  0  0  0  0  0
    3.3632   19.7649   43.3554 C   0  0  0  0  0  0  0  0  0  0  0  0
    1.9918   19.2376   43.3630 C   0  0  0  0  0  0  0  0  0  0  0  0
    1.1200   19.5466   42.3832 N   0  0  0  0  0  0  0  0  0  0  0  0
    1.6091   18.4276   44.3783 N   0  0  0  0  0  0  0  0  0  0  0  0
    0.3620   17.9237   44.4224 C   0  0  0  0  0  0  0  0  0  0  0  0
   -0.3087   17.1066   45.2809 N   0  0  0  0  0  0  0  0  0  0  0  0
    0.2450   16.5202   46.4995 C   0  0  0  0  0  0  0  0  0  0  0  0
   -1.5571   16.9349   44.8166 N   0  0  0  0  0  0  0  0  0  0  0  0
   -1.7216   17.6131   43.6842 C   0  0  0  0  0  0  0  0  0  0  0  0
   -0.5342   18.2378   43.4206 C   0  0  0  0  0  0  0  0  0  0  0  0
   -0.1494   19.0632   42.3831 C   0  0  0  0  0  0  0  0  0  0  0  0
   -0.9980   19.4297   41.3288 N   0  0  0  0  0  0  0  0  0  0  0  0
    3.0378   20.8541   41.5010 H   0  0  0  0  0  0  0  0  0  0  0  0
    5.3319   21.7388   41.4843 H   0  0  0  0  0  0  0  0  0  0  0  0
    6.9097   21.1600   43.2877 H   0  0  0  0  0  0  0  0  0  0  0  0
    3.9788   18.8040   45.1826 H   0  0  0  0  0  0  0  0  0  0  0  0
   -0.6036   16.0959   47.0827 H   0  0  0  0  0  0  0  0  0  0  0  0
    0.8862   15.6294   46.2435 H   0  0  0  0  0  0  0  0  0  0  0  0
    0.7876   17.2390   47.1260 H   0  0  0  0  0  0  0  0  0  0  0  0
   -2.5983   17.6892   43.0574 H   0  0  0  0  0  0  0  0  0  0  0  0
   -1.2837   18.8084   40.5367 H   0  0  0  0  0  0  0  0  0  0  0  0
   -1.3811   20.4034   41.3271 H   0  0  0  0  0  0  0  0  0  0  0  0
  1  2  2  0
  1  6  1  0
  2  3  1  0
  3  4  2  0
  4  5  1  0
  5  6  2  0
  6  7  1  0
  7  8  2  0
  7  9  1  0
  8 16  1  0
  9 10  2  0
 10 11  1  0
 10 15  1  0
 11 12  1  0
 11 13  1  0
 13 14  2  0
 14 15  1  0
 15 16  2  0
 16 17  1  0
  1 18  1  0
  2 19  1  0
  3 20  1  0
  5 21  1  0
 12 22  1  0
 12 23  1  0
 12 24  1  0
 14 25  1  0
 17 26  1  0
 17 27  1  0
M  END
>  <mol_id>  (80) 
2026-09-18-6fnk-s0-n100-r3-0080

>  <rmsd_to_ref>  (80) 
4.081632653063746

>  <pose_kind>  (80) 
conformer

$$$$
6fnk.A
     RDKit          3D

 27 29  0  0  0  0  0  0  0  0999 V2000
    1.1656   17.3532   40.8354 C   0  0  0  0  0  0  0  0  0  0  0  0
    1.4328   17.4489   39.4696 C   0  0  0  0  0  0  0  0  0  0  0  0
    2.6659   17.0494   38.9753 C   0  0  0  0  0  0  0  0  0  0  0  0
    3.6376   16.5480   39.8458 N   0  0  0  0  0  0  0  0  0  0  0  0
    3.3664   16.4543   41.2193 C   0  0  0  0  0  0  0  0  0  0  0  0
    2.1287   16.8572   41.7173 C   0  0  0  0  0  0  0  0  0  0  0  0
    1.8623   16.7648   43.0872 C   0  0  0  0  0  0  0  0  0  0  0  0
    0.7541   17.3048   43.6130 N   0  0  0  0  0  0  0  0  0  0  0  0
    2.7181   16.1241   43.8897 N   0  0  0  0  0  0  0  0  0  0  0  0
    2.5004   16.0222   45.2130 C   0  0  0  0  0  0  0  0  0  0  0  0
    3.2092   15.4537   46.2003 N   0  0  0  0  0  0  0  0  0  0  0  0
    4.4860   14.7497   46.0485 C   0  0  0  0  0  0  0  0  0  0  0  0
    2.6340   15.5916   47.2806 N   0  0  0  0  0  0  0  0  0  0  0  0
    1.4829   16.2420   47.0432 C   0  0  0  0  0  0  0  0  0  0  0  0
    1.3976   16.5442   45.7408 C   0  0  0  0  0  0  0  0  0  0  0  0
    0.5139   17.1915   44.9325 C   0  0  0  0  0  0  0  0  0  0  0  0
   -0.6185   17.7386   45.4372 N   0  0  0  0  0  0  0  0  0  0  0  0
    0.1862   17.6717   41.2220 H   0  0  0  0  0  0  0  0  0  0  0  0
    0.6662   17.8410   38.7850 H   0  0  0  0  0  0  0  0  0  0  0  0
    2.8787   17.1273   37.8989 H   0  0  0  0  0  0  0  0  0  0  0  0
    4.1325   16.0622   41.9044 H   0  0  0  0  0  0  0  0  0  0  0  0
    5.2187   15.1621   46.7578 H   0  0  0  0  0  0  0  0  0  0  0  0
    4.3407   13.6786   46.2527 H   0  0  0  0  0  0  0  0  0  0  0  0
    4.8567   14.8801   45.0211 H   0  0  0  0  0  0  0  0  0  0  0  0
    0.7259   16.4887   47.8022 H   0  0  0  0  0  0  0  0  0  0  0  0
   -0.8221   17.6637   46.4441 H   0  0  0  0  0  0  0  0  0  0  0  0
   -1.2756   18.2292   44.8140 H   0  0  0  0  0  0  0  0  0  0  0  0
  1  2  2  0
  1  6  1  0
  2  3  1  0
  3  4  2  0
  4  5  1  0
  5  6  2  0
  6  7  1  0
  7  8  2  0
  7  9  1  0
  8 16  1  0
  9 10  2  0
 10 11  1  0
 10 15  1  0
 11 12  1  0
 11 13  1  0
 13 14  2  0
 14 15  1  0
 15 16  2  0
 16 17  1  0
  1 18  1  0
  2 19  1  0
  3 20  1  0
  5 21  1  0
 12 22  1  0
 12 23  1  0
 12 24  1  0
 14 25  1  0
 17 26  1  0
 17 27  1  0
M  END
>  <mol_id>  (81) 
2026-09-18-6fnk-s0-n100-r3-0081

>  <rmsd_to_ref>  (81) 
4.127551020410685

>  <pose_kind>  (81) 
rigid

$$$$
6fnk.A
     RDKit          3D

 27 29  0  0  0  0  0  0  0  0999 V2000
    2.8488   19.0283   40.2415 C   0  0  0  0  0  0  0  0  0  0  0  0
    3.4988   19.4007   39.0826 C   0  0  0  0  0  0  0  0  0  0  0  0
    3.9321   20.7081   39.0011 C   0  0  0  0  0  0  0  0  0  0  0  0
    3.7454   21.6050   39.9887 N   0  0  0  0  0  0  0  0  0  0  0  0
    3.1057   21.2363   41.1279 C   0  0  0  0  0  0  0  0  0  0  0  0
    2.6614   19.9346   41.2368 C   0  0  0  0  0  0  0  0  0  0  0  0
    1.9720   19.5225   42.4547 C   0  0  0  0  0  0  0  0  0  0  0  0
    1.7520   20.3725   43.4834 N   0  0  0  0  0  0  0  0  0  0  0  0
    1.5204   18.2683   42.6103 N   0  0  0  0  0  0  0  0  0  0  0  0
    0.8795   17.8407   43.7133 C   0  0  0  0  0  0  0  0  0  0  0  0
    0.3454   16.6780   44.1065 N   0  0  0  0  0  0  0  0  0  0  0  0
    0.3395   15.4652   43.3280 C   0  0  0  0  0  0  0  0  0  0  0  0
   -0.1817   16.7867   45.3140 N   0  0  0  0  0  0  0  0  0  0  0  0
   -0.0040   18.0631   45.7637 C   0  0  0  0  0  0  0  0  0  0  0  0
    0.6620   18.7296   44.7623 C   0  0  0  0  0  0  0  0  0  0  0  0
    1.1257   20.0314   44.6114 C   0  0  0  0  0  0  0  0  0  0  0  0
    0.9111   20.9528   45.6753 N   0  0  0  0  0  0  0  0  0  0  0  0
    2.4903   18.0145   40.3532 H   0  0  0  0  0  0  0  0  0  0  0  0
    3.6423   18.6741   38.2992 H   0  0  0  0  0  0  0  0  0  0  0  0
    4.4487   21.0484   38.1090 H   0  0  0  0  0  0  0  0  0  0  0  0
    2.9659   21.9681   41.9067 H   0  0  0  0  0  0  0  0  0  0  0  0
   -0.5960   15.3663   42.7320 H   0  0  0  0  0  0  0  0  0  0  0  0
    0.3418   14.5656   44.0005 H   0  0  0  0  0  0  0  0  0  0  0  0
    1.2636   15.3368   42.7058 H   0  0  0  0  0  0  0  0  0  0  0  0
   -0.3162   18.4769   46.7068 H   0  0  0  0  0  0  0  0  0  0  0  0
    0.0807   21.5917   45.6546 H   0  0  0  0  0  0  0  0  0  0  0  0
    1.6157   20.9461   46.4499 H   0  0  0  0  0  0  0  0  0  0  0  0
  1  2  2  0
  1  6  1  0
  2  3  1  0
  3  4  2  0
  4  5  1  0
  5  6  2  0
  6  7  1  0
  7  8  2  0
  7  9  1  0
  8 16  1  0
  9 10  2  0
 10 11  1  0
 10 15  1  0
 11 12  1  0
 11 13  1  0
 13 14  2  0
 14 15  1  0
 15 16  2  0
 16 17  1  0
  1 18  1  0
  2 19  1  0
  3 20  1  0
  5 21  1  0
 12 22  1  0
 12 23  1  0
 12 24  1  0
 14 25  1  0
 17 26  1  0
 17 27  1  0
M  END
>  <mol_id>  (82) 
2026-09-18-6fnk-s0-n100-r3-0082

>  <rmsd_to_ref>  (82) 
4.173469387755785

>  <pose_kind>  (82) 
conformer

$$$$
6fnk.A
     RDKit          3D

 27 29  0  0  0  0  0  0  0  0999 V2000
   -0.0327   15.6895   44.0241 C   0  0  0  0  0  0  0  0  0  0  0  0
   -0.8878   14.8601   44.7499 C   0  0  0  0  0  0  0  0  0  0  0  0
   -0.7944   14.8091   46.1331 C   0  0  0  0  0  0  0  0  0  0  0  0
    0.1538   15.5915   46.7979 N   0  0  0  0  0  0  0  0  0  0  0  0
    1.0137   16.4236   46.0650 C   0  0  0  0  0  0  0  0  0  0  0  0
    0.9221   16.4743   44.6753 C   0  0  0  0  0  0  0  0  0  0  0  0
    1.7821   17.3028   43.9474 C   0  0  0  0  0  0  0  0  0  0  0  0
    1.8340   17.2393   42.6097 N   0  0  0  0  0  0  0  0  0  0  0  0
    2.5626   18.1787   44.5883 N   0  0  0  0  0  0  0  0  0  0  0  0
    3.4085   18.9857   43.9233 C   0  0  0  0  0  0  0  0  0  0  0  0
    4.2829   19.9134   44.3417 N   0  0  0  0  0  0  0  0  0  0  0  0
    4.5323   20.2953   45.7349 C   0  0  0  0  0  0  0  0  0  0  0  0
    4.8610   20.4267   43.3829 N   0  0  0  0  0  0  0  0  0  0  0  0
    4.3600   19.8715   42.2671 C   0  0  0  0  0  0  0  0  0  0  0  0
    3.4572   18.9377   42.5957 C   0  0  0  0  0  0  0  0  0  0  0  0
    2.6608   18.0562   41.9311 C   0  0  0  0  0  0  0  0  0  0  0  0
    2.6873   17.9780   40.5784 N   0  0  0  0  0  0  0  0  0  0  0  0
   -0.1109   15.7259   42.9275 H   0  0  0  0  0  0  0  0  0  0  0  0
   -1.6358   14.2470   44.2259 H   0  0  0  0  0  0  0  0  0  0  0  0
   -1.4662   14.1532   46.7062 H   0  0  0  0  0  0  0  0  0  0  0  0
    1.7617   17.0372   46.5885 H   0  0  0  0  0  0  0  0  0  0  0  0
    5.6118   20.2469   45.9408 H   0  0  0  0  0  0  0  0  0  0  0  0
    4.1725   21.3210   45.9039 H   0  0  0  0  0  0  0  0  0  0  0  0
    3.9997   19.6048   46.4054 H   0  0  0  0  0  0  0  0  0  0  0  0
    4.6472   20.1421   41.2403 H   0  0  0  0  0  0  0  0  0  0  0  0
    3.3126   18.5937   40.0392 H   0  0  0  0  0  0  0  0  0  0  0  0
    2.0822   17.3029   40.0896 H   0  0  0  0  0  0  0  0  0  0  0  0
  1  2  2  0
  1  6  1  0
  2  3  1  0
  3  4  2  0
  4  5  1  0
  5  6  2  0
  6  7  1  0
  7  8  2  0
  7  9  1  0
  8 16  1  0
  9 10  2  0
 10 11  1  0
 10 15  1  0
 11 12  1  0
 11 13  1  0
 13 14  2  0
 14 15  1  0
 15 16  2  0
 16 17  1  0
  1 18  1  0
  2 19  1  0
  3 20  1  0
  5 21  1  0
 12 22  1  0
 12 23  1  0
 12 24  1  0
 14 25  1  0
 17 26  1  0
 17 27  1  0
M  END
>  <mol_id>  (83) 
2026-09-18-6fnk-s0-n100-r3-0083

>  <rmsd_to_ref>  (83) 
4.21938775510257

>  <pose_kind>  (83) 
rigid

$$$$
6fnk.A
     RDKit          3D

 27 29  0  0  0  0  0  0  0  0999 V2000
    3.4537   20.2385   40.4388 C   0  0  0  0  0  0  0  0  0  0  0  0
    4.3009   20.6379   39.4159 C   0  0  0  0  0  0  0  0  0  0  0  0
    4.1786   20.1293   38.1477 C   0  0  0  0  0  0  0  0  0  0  0  0
    3.2132   19.2190   37.8838 N   0  0  0  0  0  0  0  0  0  0  0  0
    2.3671   18.7955   38.8275 C   0  0  0  0  0  0  0  0  0  0  0  0
    2.4870   19.3071   40.1121 C   0  0  0  0  0  0  0  0  0  0  0  0
    1.5803   18.8679   41.1693 C   0  0  0  0  0  0  0  0  0  0  0  0
    1.6609   19.3351   42.4197 N   0  0  0  0  0  0  0  0  0  0  0  0
    0.6115   17.9584   40.9169 N   0  0  0  0  0  0  0  0  0  0  0  0
   -0.2386   17.5367   41.8773 C   0  0  0  0  0  0  0  0  0  0  0  0
   -1.2640   16.6640   41.8927 N   0  0  0  0  0  0  0  0  0  0  0  0
   -1.7449   15.8952   40.7711 C   0  0  0  0  0  0  0  0  0  0  0  0
   -1.7785   16.6115   43.1103 N   0  0  0  0  0  0  0  0  0  0  0  0
   -1.1157   17.4430   43.9403 C   0  0  0  0  0  0  0  0  0  0  0  0
   -0.1297   18.0431   43.1748 C   0  0  0  0  0  0  0  0  0  0  0  0
    0.8517   18.9643   43.4301 C   0  0  0  0  0  0  0  0  0  0  0  0
    1.0194   19.5197   44.7234 N   0  0  0  0  0  0  0  0  0  0  0  0
    3.5635   20.6515   41.4405 H   0  0  0  0  0  0  0  0  0  0  0  0
    5.0867   21.3631   39.5815 H   0  0  0  0  0  0  0  0  0  0  0  0
    4.8307   20.4391   37.3679 H   0  0  0  0  0  0  0  0  0  0  0  0
    1.5979   18.0675   38.6089 H   0  0  0  0  0  0  0  0  0  0  0  0
   -1.0658   16.0199   39.8906 H   0  0  0  0  0  0  0  0  0  0  0  0
   -2.7406   16.2751   40.4689 H   0  0  0  0  0  0  0  0  0  0  0  0
   -1.8535   14.8297   41.0498 H   0  0  0  0  0  0  0  0  0  0  0  0
   -1.2741   17.6408   44.9870 H   0  0  0  0  0  0  0  0  0  0  0  0
    1.9082   19.9672   45.0376 H   0  0  0  0  0  0  0  0  0  0  0  0
    0.2344   19.4993   45.4277 H   0  0  0  0  0  0  0  0  0  0  0  0
  1  2  2  0
  1  6  1  0
  2  3  1  0
  3  4  2  0
  4  5  1  0
  5  6  2  0
  6  7  1  0
  7  8  2  0
  7  9  1  0
  8 16  1  0
  9 10  2  0
 10 11  1  0
 10 15  1  0
 11 12  1  0
 11 13  1  0
 13 14  2  0
 14 15  1  0
 15 16  2  0
 16 17  1  0
  1 18  1  0
  2 19  1  0
  3 20  1  0
  5 21  1  0
 12 22  1  0
 12 23  1  0
 12 24  1  0
 14 25  1  0
 17 26  1  0
 17 27  1  0
M  END
>  <mol_id>  (84) 
2026-09-18-6fnk-s0-n100-r3-0084

>  <rmsd_to_ref>  (84) 
4.265306122451923

>  <pose_kind>  (84) 
conformer

$$$$
6fnk.A
     RDKit          3D

 27 29  0  0  0  0  0  0  0  0999 V2000
    4.2928   16.9163   41.1502 C   0  0  0  0  0  0  0  0  0  0  0  0
    5.4730   17.3602   41.7469 C   0  0  0  0  0  0  0  0  0  0  0  0
    5.4184   18.1770   42.8668 C   0  0  0  0  0  0  0  0  0  0  0  0
    4.1811   18.5509   43.3983 N   0  0  0  0  0  0  0  0  0  0  0  0
    2.9956   18.1041   42.7951 C   0  0  0  0  0  0  0  0  0  0  0  0
    3.0492   17.2851   41.6688 C   0  0  0  0  0  0  0  0  0  0  0  0
    1.8658   16.8432   41.0683 C   0  0  0  0  0  0  0  0  0  0  0  0
    1.8860   16.2047   39.8902 N   0  0  0  0  0  0  0  0  0  0  0  0
    0.6934   17.0516   41.6759 N   0  0  0  0  0  0  0  0  0  0  0  0
   -0.4659   16.6491   41.1255 C   0  0  0  0  0  0  0  0  0  0  0  0
   -1.7401   16.7583   41.5311 N   0  0  0  0  0  0  0  0  0  0  0  0
   -2.1974   17.3883   42.7733 C   0  0  0  0  0  0  0  0  0  0  0  0
   -2.5007   16.2408   40.7121 N   0  0  0  0  0  0  0  0  0  0  0  0
   -1.7437   15.7297   39.7273 C   0  0  0  0  0  0  0  0  0  0  0  0
   -0.4538   16.0041   39.9632 C   0  0  0  0  0  0  0  0  0  0  0  0
    0.7347   15.7780   39.3389 C   0  0  0  0  0  0  0  0  0  0  0  0
    0.7837   15.1269   38.1514 N   0  0  0  0  0  0  0  0  0  0  0  0
    4.3419   16.2690   40.2622 H   0  0  0  0  0  0  0  0  0  0  0  0
    6.4463   17.0629   41.3295 H   0  0  0  0  0  0  0  0  0  0  0  0
    6.3484   18.5301   43.3363 H   0  0  0  0  0  0  0  0  0  0  0  0
    2.0219   18.4008   43.2121 H   0  0  0  0  0  0  0  0  0  0  0  0
   -2.9803   18.1261   42.5436 H   0  0  0  0  0  0  0  0  0  0  0  0
   -2.6044   16.6192   43.4463 H   0  0  0  0  0  0  0  0  0  0  0  0
   -1.3506   17.8924   43.2621 H   0  0  0  0  0  0  0  0  0  0  0  0
   -2.1247   15.1711   38.8597 H   0  0  0  0  0  0  0  0  0  0  0  0
   -0.0852   14.7917   37.7116 H   0  0  0  0  0  0  0  0  0  0  0  0
    1.6900   14.9671   37.6887 H   0  0  0  0  0  0  0  0  0  0  0  0
  1  2  2  0
  1  6  1  0
  2  3  1  0
  3  4  2  0
  4  5  1  0
  5  6  2  0
  6  7  1  0
  7  8  2  0
  7  9  1  0
  8 16  1  0
  9 10  2  0
 10 11  1  0
 10 15  1  0
 11 12  1  0
 11 13  1  0
 13 14  2  0
 14 15  1  0
 15 16  2  0
 16 17  1  0
  1 18  1  0
  2 19  1  0
  3 20  1  0
  5 21  1  0
 12 22  1  0
 12 23  1  0
 12 24  1  0
 14 25  1  0
 17 26  1  0
 17 27  1  0
M  END
>  <mol_id>  (85) 
2026-09-18-6fnk-s0-n100-r3-0085

>  <rmsd_to_ref>  (85) 
4.311224489798071

>  <pose_kind>  (85) 
rigid

$$$$
6fnk.A
     RDKit          3D

 27 29  0  0  0  0  0  0  0  0999 V2000
    2.2647   16.6529   39.4886 C   0  0  0  0  0  0  0  0  0  0  0  0
    2.5153   17.1361   38.2274 C   0  0  0  0  0  0  0  0  0  0  0  0
    2.9371   18.4414   38.0174 C   0  0  0  0  0  0  0  0  0  0  0  0
    3.0948   19.2271   39.0978 N   0  0  0  0  0  0  0  0  0  0  0  0
    2.8630   18.8028   40.3528 C   0  0  0  0  0  0  0  0  0  0  0  0
    2.4446   17.5064   40.5545 C   0  0  0  0  0  0  0  0  0  0  0  0
    2.1889   17.0309   41.9099 C   0  0  0  0  0  0  0  0  0  0  0  0
    2.3590   17.8497   42.9639 N   0  0  0  0  0  0  0  0  0  0  0  0
    1.7797   15.7668   42.1218 N   0  0  0  0  0  0  0  0  0  0  0  0
    1.5404   15.3171   43.3715 C   0  0  0  0  0  0  0  0  0  0  0  0
    1.1299   14.1037   43.7971 N   0  0  0  0  0  0  0  0  0  0  0  0
    0.8504   12.9745   42.9078 C   0  0  0  0  0  0  0  0  0  0  0  0
    1.0439   14.1608   45.0978 N   0  0  0  0  0  0  0  0  0  0  0  0
    1.3848   15.3778   45.5587 C   0  0  0  0  0  0  0  0  0  0  0  0
    1.7092   16.1420   44.4661 C   0  0  0  0  0  0  0  0  0  0  0  0
    2.1266   17.4273   44.2338 C   0  0  0  0  0  0  0  0  0  0  0  0
    2.3038   18.2878   45.3604 N   0  0  0  0  0  0  0  0  0  0  0  0
    1.9369   15.6351   39.6390 H   0  0  0  0  0  0  0  0  0  0  0  0
    2.3913   16.5098   37.3456 H   0  0  0  0  0  0  0  0  0  0  0  0
    3.1240   18.7837   37.0067 H   0  0  0  0  0  0  0  0  0  0  0  0
    3.0139   19.4962   41.1583 H   0  0  0  0  0  0  0  0  0  0  0  0
    0.0874   12.2963   43.3401 H   0  0  0  0  0  0  0  0  0  0  0  0
    0.4550   13.3554   41.9526 H   0  0  0  0  0  0  0  0  0  0  0  0
    1.7646   12.3879   42.7275 H   0  0  0  0  0  0  0  0  0  0  0  0
    1.4118   15.7273   46.5801 H   0  0  0  0  0  0  0  0  0  0  0  0
    1.6007   18.2974   46.1529 H   0  0  0  0  0  0  0  0  0  0  0  0
    3.1167   18.9360   45.4572 H   0  0  0  0  0  0  0  0  0  0  0  0
  1  2  2  0
  1  6  1  0
  2  3  1  0
  3  4  2  0
  4  5  1  0
  5  6  2  0
  6  7  1  0
  7  8  2  0
  7  9  1  0
  8 16  1  0
  9 10  2  0
 10 11  1  0
 10 15  1  0
 11 12  1  0
 11 13  1  0
 13 14  2  0
 14 15  1  0
 15 16  2  0
 16 17  1  0
  1 18  1  0
  2 19  1  0
  3 20  1  0
  5 21  1  0
 12 22  1  0
 12 23  1  0
 12 24  1  0
 14 25  1  0
 17 26  1  0
 17 27  1  0
M  END
>  <mol_id>  (86) 
2026-09-18-6fnk-s0-n100-r3-0086

>  <rmsd_to_ref>  (86) 
4.357142857142922

>  <pose_kind>  (86) 
conformer

$$$$
6fnk.A
     RDKit          3D

 27 29  0  0  0  0  0  0  0  0999 V2000
    0.4531   16.5244   46.2460 C   0  0  0  0  0  0  0  0  0  0  0  0
    1.2753   15.7041   47.0187 C   0  0  0  0  0  0  0  0  0  0  0  0
    2.6449   15.9231   47.0445 C   0  0  0  0  0  0  0  0  0  0  0  0
    3.1988   16.9676   46.2993 N   0  0  0  0  0  0  0  0  0  0  0  0
    2.3695   17.7901   45.5218 C   0  0  0  0  0  0  0  0  0  0  0  0
    0.9936   17.5699   45.4936 C   0  0  0  0  0  0  0  0  0  0  0  0
    0.1698   18.3900   44.7158 C   0  0  0  0  0  0  0  0  0  0  0  0
   -1.1244   18.0939   44.5329 N   0  0  0  0  0  0  0  0  0  0  0  0
    0.6722   19.4911   44.1482 N   0  0  0  0  0  0  0  0  0  0  0  0
   -0.0865   20.2992   43.3866 C   0  0  0  0  0  0  0  0  0  0  0  0
    0.1935   21.4265   42.7150 N   0  0  0  0  0  0  0  0  0  0  0  0
    1.4976   22.0936   42.6582 C   0  0  0  0  0  0  0  0  0  0  0  0
   -0.8115   21.8499   42.1424 N   0  0  0  0  0  0  0  0  0  0  0  0
   -1.8250   21.0216   42.4437 C   0  0  0  0  0  0  0  0  0  0  0  0
   -1.3741   20.0196   43.2102 C   0  0  0  0  0  0  0  0  0  0  0  0
   -1.8996   18.9057   43.7904 C   0  0  0  0  0  0  0  0  0  0  0  0
   -3.2072   18.5884   43.6287 N   0  0  0  0  0  0  0  0  0  0  0  0
   -0.6322   16.3462   46.2291 H   0  0  0  0  0  0  0  0  0  0  0  0
    0.8379   14.8842   47.6072 H   0  0  0  0  0  0  0  0  0  0  0  0
    3.2945   15.2750   47.6511 H   0  0  0  0  0  0  0  0  0  0  0  0
    2.8062   18.6105   44.9332 H   0  0  0  0  0  0  0  0  0  0  0  0
    1.7719   22.2737   41.6083 H   0  0  0  0  0  0  0  0  0  0  0  0
    1.4420   23.0535   43.1925 H   0  0  0  0  0  0  0  0  0  0  0  0
    2.2575   21.4542   43.1312 H   0  0  0  0  0  0  0  0  0  0  0  0
   -2.8662   21.1468   42.1118 H   0  0  0  0  0  0  0  0  0  0  0  0
   -3.8185   19.1957   43.0644 H   0  0  0  0  0  0  0  0  0  0  0  0
   -3.5896   17.7400   44.0700 H   0  0  0  0  0  0  0  0  0  0  0  0
  1  2  2  0
  1  6  1  0
  2  3  1  0
  3  4  2  0
  4  5  1  0
  5  6  2  0
  6  7  1  0
  7  8  2  0
  7  9  1  0
  8 16  1  0
  9 10  2  0
 10 11  1  0
 10 15  1  0
 11 12  1  0
 11 13  1  0
 13 14  2  0
 14 15  1  0
 15 16  2  0
 16 17  1  0
  1 18  1  0
  2 19  1  0
  3 20  1  0
  5 21  1  0
 12 22  1  0
 12 23  1  0
 12 24  1  0
 14 25  1  0
 17 26  1  0
 17 27  1  0
M  END
>  <mol_id>  (87) 
2026-09-18-6fnk-s0-n100-r3-0087

>  <rmsd_to_ref>  (87) 
4.403061224492387

>  <pose_kind>  (87) 
rigid

$$$$
6fnk.A
     RDKit          3D

 27 29  0  0  0  0  0  0  0  0999 V2000
    0.0229   14.7877   46.9996 C   0  0  0  0  0  0  0  0  0  0  0  0
    0.4515   13.4773   47.2330 C   0  0  0  0  0  0  0  0  0  0  0  0
    1.4330   12.9387   46.4237 C   0  0  0  0  0  0  0  0  0  0  0  0
    1.9824   13.6638   45.4103 N   0  0  0  0  0  0  0  0  0  0  0  0
    1.5794   14.9384   45.1677 C   0  0  0  0  0  0  0  0  0  0  0  0
    0.5968   15.5183   45.9558 C   0  0  0  0  0  0  0  0  0  0  0  0
    0.1373   16.8826   45.7277 C   0  0  0  0  0  0  0  0  0  0  0  0
   -0.8108   17.4339   46.4925 N   0  0  0  0  0  0  0  0  0  0  0  0
    0.7060   17.5803   44.7076 N   0  0  0  0  0  0  0  0  0  0  0  0
    0.3206   18.8536   44.4460 C   0  0  0  0  0  0  0  0  0  0  0  0
    0.6917   19.7750   43.5260 N   0  0  0  0  0  0  0  0  0  0  0  0
    1.7150   19.5437   42.5020 C   0  0  0  0  0  0  0  0  0  0  0  0
   -0.0087   20.8806   43.7098 N   0  0  0  0  0  0  0  0  0  0  0  0
   -0.8581   20.7033   44.7613 C   0  0  0  0  0  0  0  0  0  0  0  0
   -0.6656   19.4236   45.2434 C   0  0  0  0  0  0  0  0  0  0  0  0
   -1.2394   18.6910   46.2882 C   0  0  0  0  0  0  0  0  0  0  0  0
   -2.2515   19.2955   47.0959 N   0  0  0  0  0  0  0  0  0  0  0  0
   -0.7520   15.2409   47.6233 H   0  0  0  0  0  0  0  0  0  0  0  0
   -0.0108   12.9403   48.0458 H   0  0  0  0  0  0  0  0  0  0  0  0
    1.7619   11.9252   46.6071 H   0  0  0  0  0  0  0  0  0  0  0  0
    2.0371   15.4864   44.3542 H   0  0  0  0  0  0  0  0  0  0  0  0
    2.7343   19.6480   42.9420 H   0  0  0  0  0  0  0  0  0  0  0  0
    1.6168   18.5460   42.0596 H   0  0  0  0  0  0  0  0  0  0  0  0
    1.6176   20.3576   41.7461 H   0  0  0  0  0  0  0  0  0  0  0  0
   -1.5596   21.4324   45.1519 H   0  0  0  0  0  0  0  0  0  0  0  0
   -3.2108   19.3151   46.6752 H   0  0  0  0  0  0  0  0  0  0  0  0
   -2.0364   19.6906   48.0468 H   0  0  0  0  0  0  0  0  0  0  0  0
  1  2  2  0
  1  6  1  0
  2  3  1  0
  3  4  2  0
  4  5  1  0
  5  6  2  0
  6  7  1  0
  7  8  2  0
  7  9  1  0
  8 16  1  0
  9 10  2  0
 10 11  1  0
 10 15  1  0
 11 12  1  0
 11 13  1  0
 13 14  2  0
 14 15  1  0
 15 16  2  0
 16 17  1  0
  1 18  1  0
  2 19  1  0
  3 20  1  0
  5 21  1  0
 12 22  1  0
 12 23  1  0
 12 24  1  0
 14 25  1  0
 17 26  1  0
 17 27  1  0
M  END
>  <mol_id>  (88) 
2026-09-18-6fnk-s0-n100-r3-0088

>  <rmsd_to_ref>  (88) 
4.448979591838008

>  <pose_kind>  (88) 
conformer

$$$$
6fnk.A
     RDKit          3D

 27 29  0  0  0  0  0  0  0  0999 V2000
    0.0061   16.2049   44.8583 C   0  0  0  0  0  0  0  0  0  0  0  0
   -0.5949   15.5770   45.9494 C   0  0  0  0  0  0  0  0  0  0  0  0
   -1.5331   16.2587   46.7106 C   0  0  0  0  0  0  0  0  0  0  0  0
   -1.8779   17.5724   46.3810 N   0  0  0  0  0  0  0  0  0  0  0  0
   -1.2706   18.2019   45.2839 C   0  0  0  0  0  0  0  0  0  0  0  0
   -0.3265   17.5187   44.5196 C   0  0  0  0  0  0  0  0  0  0  0  0
    0.2789   18.1496   43.4280 C   0  0  0  0  0  0  0  0  0  0  0  0
    1.3104   17.5822   42.7874 N   0  0  0  0  0  0  0  0  0  0  0  0
   -0.1769   19.3337   43.0072 N   0  0  0  0  0  0  0  0  0  0  0  0
    0.3848   19.9748   41.9669 C   0  0  0  0  0  0  0  0  0  0  0  0
    0.1167   21.1541   41.3857 N   0  0  0  0  0  0  0  0  0  0  0  0
   -0.9419   22.0880   41.7810 C   0  0  0  0  0  0  0  0  0  0  0  0
    0.8859   21.3578   40.4454 N   0  0  0  0  0  0  0  0  0  0  0  0
    1.6894   20.2863   40.3438 C   0  0  0  0  0  0  0  0  0  0  0  0
    1.4003   19.4134   41.3182 C   0  0  0  0  0  0  0  0  0  0  0  0
    1.8678   18.2035   41.7317 C   0  0  0  0  0  0  0  0  0  0  0  0
    2.9036   17.6040   41.0960 N   0  0  0  0  0  0  0  0  0  0  0  0
    0.7496   15.6597   44.2583 H   0  0  0  0  0  0  0  0  0  0  0  0
   -0.3249   14.5420   46.2061 H   0  0  0  0  0  0  0  0  0  0  0  0
   -2.0055   15.7656   47.5730 H   0  0  0  0  0  0  0  0  0  0  0  0
   -1.5402   19.2368   45.0265 H   0  0  0  0  0  0  0  0  0  0  0  0
   -0.5122   23.0907   41.9224 H   0  0  0  0  0  0  0  0  0  0  0  0
   -1.7100   22.1257   40.9945 H   0  0  0  0  0  0  0  0  0  0  0  0
   -1.3977   21.7482   42.7227 H   0  0  0  0  0  0  0  0  0  0  0  0
    2.4661   20.1467   39.5775 H   0  0  0  0  0  0  0  0  0  0  0  0
    3.3451   18.0617   40.2857 H   0  0  0  0  0  0  0  0  0  0  0  0
    3.2494   16.6905   41.4230 H   0  0  0  0  0  0  0  0  0  0  0  0
  1  2  2  0
  1  6  1  0
  2  3  1  0
  3  4  2  0
  4  5  1  0
  5  6  2  0
  6  7  1  0
  7  8  2  0
  7  9  1  0
  8 16  1  0
  9 10  2  0
 10 11  1  0
 10 15  1  0
 11 12  1  0
 11 13  1  0
 13 14  2  0
 14 15  1  0
 15 16  2  0
 16 17  1  0
  1 18  1  0
  2 19  1  0
  3 20  1  0
  5 21  1  0
 12 22  1  0
 12 23  1  0
 12 24  1  0
 14 25  1  0
 17 26  1  0
 17 27  1  0
M  END
>  <mol_id>  (89) 
2026-09-18-6fnk-s0-n100-r3-0089

>  <rmsd_to_ref>  (89) 
4.494897959185153

>  <pose_kind>  (89) 
rigid

$$$$
6fnk.A
     RDKit          3D

 27 29  0  0  0  0  0  0  0  0999 V2000
    5.4515   17.8785   42.1896 C   0  0  0  0  0  0  0  0  0  0  0  0
    6.8350   17.6928   42.1020 C   0  0  0  0  0  0  0  0  0  0  0  0
    7.4358   17.8831   40.8537 C   0  0  0  0  0  0  0  0  0  0  0  0
    6.7034   18.2346   39.7690 N   0  0  0  0  0  0  0  0  0  0  0  0
    5.3670   18.4107   39.8683 C   0  0  0  0  0  0  0  0  0  0  0  0
    4.7039   18.2365   41.0863 C   0  0  0  0  0  0  0  0  0  0  0  0
    3.2630   18.4241   41.2033 C   0  0  0  0  0  0  0  0  0  0  0  0
    2.5878   18.2662   42.3562 N   0  0  0  0  0  0  0  0  0  0  0  0
    2.5796   18.7729   40.0983 N   0  0  0  0  0  0  0  0  0  0  0  0
    1.2419   18.9744   40.0846 C   0  0  0  0  0  0  0  0  0  0  0  0
    0.3326   19.3144   39.1686 N   0  0  0  0  0  0  0  0  0  0  0  0
    0.6619   19.5772   37.7765 C   0  0  0  0  0  0  0  0  0  0  0  0
   -0.8828   19.3739   39.7088 N   0  0  0  0  0  0  0  0  0  0  0  0
   -0.7532   19.0605   41.0226 C   0  0  0  0  0  0  0  0  0  0  0  0
    0.5840   18.8045   41.2800 C   0  0  0  0  0  0  0  0  0  0  0  0
    1.2527   18.4470   42.4337 C   0  0  0  0  0  0  0  0  0  0  0  0
    0.5880   18.2669   43.6790 N   0  0  0  0  0  0  0  0  0  0  0  0
    5.0126   17.7227   43.1765 H   0  0  0  0  0  0  0  0  0  0  0  0
    7.4015   17.4128   42.9770 H   0  0  0  0  0  0  0  0  0  0  0  0
    8.5188   17.7360   40.7930 H   0  0  0  0  0  0  0  0  0  0  0  0
    4.7497   18.6937   39.0136 H   0  0  0  0  0  0  0  0  0  0  0  0
    0.8398   20.6603   37.6196 H   0  0  0  0  0  0  0  0  0  0  0  0
   -0.1901   19.2453   37.1151 H   0  0  0  0  0  0  0  0  0  0  0  0
    1.5541   19.0087   37.4402 H   0  0  0  0  0  0  0  0  0  0  0  0
   -1.5225   19.0087   41.7641 H   0  0  0  0  0  0  0  0  0  0  0  0
    1.0711   18.6450   44.5206 H   0  0  0  0  0  0  0  0  0  0  0  0
   -0.3190   17.7904   43.7487 H   0  0  0  0  0  0  0  0  0  0  0  0
  1  2  2  0
  1  6  1  0
  2  3  1  0
  3  4  2  0
  4  5  1  0
  5  6  2  0
  6  7  1  0
  7  8  2  0
  7  9  1  0
  8 16  1  0
  9 10  2  0
 10 11  1  0
 10 15  1  0
 11 12  1  0
 11 13  1  0
 13 14  2  0
 14 15  1  0
 15 16  2  0
 16 17  1  0
  1 18  1  0
  2 19  1  0
  3 20  1  0
  5 21  1  0
 12 22  1  0
 12 23  1  0
 12 24  1  0
 14 25  1  0
 17 26  1  0
 17 27  1  0
M  END
>  <mol_id>  (90) 
2026-09-18-6fnk-s0-n100-r3-0090

>  <rmsd_to_ref>  (90) 
4.5408163265310275

>  <pose_kind>  (90) 
conformer

$$$$
6fnk.A
     RDKit          3D

 27 29  0  0  0  0  0  0  0  0999 V2000
    2.7492   16.7728   45.7763 C   0  0  0  0  0  0  0  0  0  0  0  0
    3.3466   16.8890   47.0315 C   0  0  0  0  0  0  0  0  0  0  0  0
    2.6792   17.5396   48.0589 C   0  0  0  0  0  0  0  0  0  0  0  0
    1.4074   18.0747   47.8362 N   0  0  0  0  0  0  0  0  0  0  0  0
    0.8096   17.9577   46.5722 C   0  0  0  0  0  0  0  0  0  0  0  0
    1.4800   17.3059   45.5387 C   0  0  0  0  0  0  0  0  0  0  0  0
    0.8826   17.1929   44.2792 C   0  0  0  0  0  0  0  0  0  0  0  0
    1.5717   16.7300   43.2271 N   0  0  0  0  0  0  0  0  0  0  0  0
   -0.3969   17.5441   44.1158 N   0  0  0  0  0  0  0  0  0  0  0  0
   -1.0032   17.4577   42.9184 C   0  0  0  0  0  0  0  0  0  0  0  0
   -2.2467   17.7603   42.5156 N   0  0  0  0  0  0  0  0  0  0  0  0
   -3.3199   18.2927   43.3605 C   0  0  0  0  0  0  0  0  0  0  0  0
   -2.3831   17.5202   41.3152 N   0  0  0  0  0  0  0  0  0  0  0  0
   -1.2225   17.0088   40.8730 C   0  0  0  0  0  0  0  0  0  0  0  0
   -0.3305   16.9880   41.8724 C   0  0  0  0  0  0  0  0  0  0  0  0
    0.9706   16.6188   42.0280 C   0  0  0  0  0  0  0  0  0  0  0  0
    1.6873   16.1391   40.9827 N   0  0  0  0  0  0  0  0  0  0  0  0
    3.2830   16.2561   44.9651 H   0  0  0  0  0  0  0  0  0  0  0  0
    4.3464   16.4648   47.2065 H   0  0  0  0  0  0  0  0  0  0  0  0
    3.1506   17.6344   49.0482 H   0  0  0  0  0  0  0  0  0  0  0  0
   -0.1902   18.3813   46.3965 H   0  0  0  0  0  0  0  0  0  0  0  0
   -3.7411   19.1950   42.8931 H   0  0  0  0  0  0  0  0  0  0  0  0
   -4.1093   17.5347   43.4715 H   0  0  0  0  0  0  0  0  0  0  0  0
   -2.9146   18.5478   44.3507 H   0  0  0  0  0  0  0  0  0  0  0  0
   -1.0332   16.6604   39.8469 H   0  0  0  0  0  0  0  0  0  0  0  0
    1.2471   16.0457   40.0562 H   0  0  0  0  0  0  0  0  0  0  0  0
    2.6721   15.8681   41.1146 H   0  0  0  0  0  0  0  0  0  0  0  0
  1  2  2  0
  1  6  1  0
  2  3  1  0
  3  4  2  0
  4  5  1  0
  5  6  2  0
  6  7  1  0
  7  8  2  0
  7  9  1  0
  8 16  1  0
  9 10  2  0
 10 11  1  0
 10 15  1  0
 11 12  1  0
 11 13  1  0
 13 14  2  0
 14 15  1  0
 15 16  2  0
 16 17  1  0
  1 18  1  0
  2 19  1  0
  3 20  1  0
  5 21  1  0
 12 22  1  0
 12 23  1  0
 12 24  1  0
 14 25  1  0
 17 26  1  0
 17 27  1  0
M  END
>  <mol_id>  (91) 
2026-09-18-6fnk-s0-n100-r3-0091

>  <rmsd_to_ref>  (91) 
4.586734693878676

>  <pose_kind>  (91) 
rigid

$$$$
6fnk.A
     RDKit          3D

 27 29  0  0  0  0  0  0  0  0999 V2000
    4.7743   20.7301   41.1567 C   0  0  0  0  0  0  0  0  0  0  0  0
    6.0256   21.3060   40.9286 C   0  0  0  0  0  0  0  0  0  0  0  0
    6.9197   20.6463   40.1004 C   0  0  0  0  0  0  0  0  0  0  0  0
    6.6365   19.4749   39.5056 N   0  0  0  0  0  0  0  0  0  0  0  0
    5.4363   18.8998   39.7103 C   0  0  0  0  0  0  0  0  0  0  0  0
    4.5178   19.5211   40.5261 C   0  0  0  0  0  0  0  0  0  0  0  0
    3.2220   18.8857   40.7382 C   0  0  0  0  0  0  0  0  0  0  0  0
    2.9318   17.7129   40.1458 N   0  0  0  0  0  0  0  0  0  0  0  0
    2.2796   19.4315   41.5183 N   0  0  0  0  0  0  0  0  0  0  0  0
    1.0764   18.8528   41.7222 C   0  0  0  0  0  0  0  0  0  0  0  0
   -0.0182   19.2093   42.4560 N   0  0  0  0  0  0  0  0  0  0  0  0
   -0.1621   20.4093   43.2684 C   0  0  0  0  0  0  0  0  0  0  0  0
   -0.9518   18.2580   42.3024 N   0  0  0  0  0  0  0  0  0  0  0  0
   -0.4656   17.3005   41.4802 C   0  0  0  0  0  0  0  0  0  0  0  0
    0.8123   17.6493   41.0986 C   0  0  0  0  0  0  0  0  0  0  0  0
    1.7693   17.0908   40.3038 C   0  0  0  0  0  0  0  0  0  0  0  0
    1.5305   15.8492   39.6447 N   0  0  0  0  0  0  0  0  0  0  0  0
    4.0489   21.2189   41.7998 H   0  0  0  0  0  0  0  0  0  0  0  0
    6.2923   22.2611   41.3967 H   0  0  0  0  0  0  0  0  0  0  0  0
    7.8834   21.1562   39.9659 H   0  0  0  0  0  0  0  0  0  0  0  0
    5.2587   17.9627   39.2117 H   0  0  0  0  0  0  0  0  0  0  0  0
    0.8314   20.8699   43.3736 H   0  0  0  0  0  0  0  0  0  0  0  0
   -0.5519   20.1780   44.2831 H   0  0  0  0  0  0  0  0  0  0  0  0
   -0.8739   21.0918   42.7872 H   0  0  0  0  0  0  0  0  0  0  0  0
   -0.9795   16.3854   41.1526 H   0  0  0  0  0  0  0  0  0  0  0  0
    1.0551   15.0407   40.1354 H   0  0  0  0  0  0  0  0  0  0  0  0
    1.8208   15.7048   38.6533 H   0  0  0  0  0  0  0  0  0  0  0  0
  1  2  2  0
  1  6  1  0
  2  3  1  0
  3  4  2  0
  4  5  1  0
  5  6  2  0
  6  7  1  0
  7  8  2  0
  7  9  1  0
  8 16  1  0
  9 10  2  0
 10 11  1  0
 10 15  1  0
 11 12  1  0
 11 13  1  0
 13 14  2  0
 14 15  1  0
 15 16  2  0
 16 17  1  0
  1 18  1  0
  2 19  1  0
  3 20  1  0
  5 21  1  0
 12 22  1  0
 12 23  1  0
 12 24  1  0
 14 25  1  0
 17 26  1  0
 17 27  1  0
M  END
>  <mol_id>  (92) 
2026-09-18-6fnk-s0-n100-r3-0092

>  <rmsd_to_ref>  (92) 
4.6326530612269785

>  <pose_kind>  (92) 
conformer

$$$$
6fnk.A
     RDKit          3D

 27 29  0  0  0  0  0  0  0  0999 V2000
    4.0884   19.9135   41.0731 C   0  0  0  0  0  0  0  0  0  0  0  0
    5.2958   20.6110   41.0349 C   0  0  0  0  0  0  0  0  0  0  0  0
    6.4615   20.0027   41.4771 C   0  0  0  0  0  0  0  0  0  0  0  0
    6.4254   18.6904   41.9567 N   0  0  0  0  0  0  0  0  0  0  0  0
    5.2091   17.9919   41.9954 C   0  0  0  0  0  0  0  0  0  0  0  0
    4.0370   18.6027   41.5532 C   0  0  0  0  0  0  0  0  0  0  0  0
    2.8257   17.9047   41.5952 C   0  0  0  0  0  0  0  0  0  0  0  0
    1.6636   18.5228   41.3433 N   0  0  0  0  0  0  0  0  0  0  0  0
    2.8197   16.5995   41.8839 N   0  0  0  0  0  0  0  0  0  0  0  0
    1.6744   15.8967   41.9421 C   0  0  0  0  0  0  0  0  0  0  0  0
    1.4222   14.6090   42.2217 N   0  0  0  0  0  0  0  0  0  0  0  0
    2.4212   13.5872   42.5488 C   0  0  0  0  0  0  0  0  0  0  0  0
    0.2133   14.3813   42.1589 N   0  0  0  0  0  0  0  0  0  0  0  0
   -0.3927   15.5240   41.7968 C   0  0  0  0  0  0  0  0  0  0  0  0
    0.5185   16.4993   41.6815 C   0  0  0  0  0  0  0  0  0  0  0  0
    0.5124   17.8263   41.3775 C   0  0  0  0  0  0  0  0  0  0  0  0
   -0.6479   18.4732   41.1100 N   0  0  0  0  0  0  0  0  0  0  0  0
    3.1670   20.4008   40.7215 H   0  0  0  0  0  0  0  0  0  0  0  0
    5.3237   21.6427   40.6544 H   0  0  0  0  0  0  0  0  0  0  0  0
    7.4137   20.5528   41.4502 H   0  0  0  0  0  0  0  0  0  0  0  0
    5.1806   16.9601   42.3755 H   0  0  0  0  0  0  0  0  0  0  0  0
    2.1357   13.0810   43.4828 H   0  0  0  0  0  0  0  0  0  0  0  0
    2.4729   12.8506   41.7335 H   0  0  0  0  0  0  0  0  0  0  0  0
    3.4047   14.0633   42.6757 H   0  0  0  0  0  0  0  0  0  0  0  0
   -1.4724   15.6411   41.6217 H   0  0  0  0  0  0  0  0  0  0  0  0
   -1.5405   17.9596   41.1306 H   0  0  0  0  0  0  0  0  0  0  0  0
   -0.6373   19.4785   40.8860 H   0  0  0  0  0  0  0  0  0  0  0  0
  1  2  2  0
  1  6  1  0
  2  3  1  0
  3  4  2  0
  4  5  1  0
  5  6  2  0
  6  7  1  0
  7  8  2  0
  7  9  1  0
  8 16  1  0
  9 10  2  0
 10 11  1  0
 10 15  1  0
 11 12  1  0
 11 13  1  0
 13 14  2  0
 14 15  1  0
 15 16  2  0
 16 17  1  0
  1 18  1  0
  2 19  1  0
  3 20  1  0
  5 21  1  0
 12 22  1  0
 12 23  1  0
 12 24  1  0
 14 25  1  0
 17 26  1  0
 17 27  1  0
M  END
>  <mol_id>  (93) 
2026-09-18-6fnk-s0-n100-r3-0093

>  <rmsd_to_ref>  (93) 
4.678571428577298

>  <pose_kind>  (93) 
rigid

$$$$
6fnk.A
     RDKit          3D

 27 29  0  0  0  0  0  0  0  0999 V2000
    2.2370   18.9008   39.6721 C   0  0  0  0  0  0  0  0  0  0  0  0
    2.7639   19.5743   38.5668 C   0  0  0  0  0  0  0  0  0  0  0  0
    4.0572   19.2859   38.1375 C   0  0  0  0  0  0  0  0  0  0  0  0
    4.8079   18.3604   38.7799 N   0  0  0  0  0  0  0  0  0  0  0  0
    4.3203   17.7003   39.8459 C   0  0  0  0  0  0  0  0  0  0  0  0
    3.0260   17.9626   40.3066 C   0  0  0  0  0  0  0  0  0  0  0  0
    2.4708   17.2613   41.4615 C   0  0  0  0  0  0  0  0  0  0  0  0
    1.2367   17.5034   41.9101 N   0  0  0  0  0  0  0  0  0  0  0  0
    3.2199   16.3306   42.1109 N   0  0  0  0  0  0  0  0  0  0  0  0
    2.7378   15.6728   43.1711 C   0  0  0  0  0  0  0  0  0  0  0  0
    3.2202   14.7259   43.9981 N   0  0  0  0  0  0  0  0  0  0  0  0
    4.5346   14.1122   43.9389 C   0  0  0  0  0  0  0  0  0  0  0  0
    2.3262   14.3986   44.9143 N   0  0  0  0  0  0  0  0  0  0  0  0
    1.1888   15.1232   44.7380 C   0  0  0  0  0  0  0  0  0  0  0  0
    1.4540   15.9286   43.6331 C   0  0  0  0  0  0  0  0  0  0  0  0
    0.6868   16.8804   42.9696 C   0  0  0  0  0  0  0  0  0  0  0  0
   -0.6376   17.1963   43.3851 N   0  0  0  0  0  0  0  0  0  0  0  0
    1.2416   19.0958   40.0343 H   0  0  0  0  0  0  0  0  0  0  0  0
    2.1582   20.3261   38.0425 H   0  0  0  0  0  0  0  0  0  0  0  0
    4.4423   19.8335   37.2646 H   0  0  0  0  0  0  0  0  0  0  0  0
    4.9451   16.9544   40.3521 H   0  0  0  0  0  0  0  0  0  0  0  0
    4.4536   13.0189   44.2109 H   0  0  0  0  0  0  0  0  0  0  0  0
    5.2764   14.6447   44.5586 H   0  0  0  0  0  0  0  0  0  0  0  0
    4.9477   14.0982   42.8937 H   0  0  0  0  0  0  0  0  0  0  0  0
    0.2852   15.1027   45.2991 H   0  0  0  0  0  0  0  0  0  0  0  0
   -0.8839   17.1690   44.4034 H   0  0  0  0  0  0  0  0  0  0  0  0
   -1.3197   17.4475   42.6316 H   0  0  0  0  0  0  0  0  0  0  0  0
  1  2  2  0
  1  6  1  0
  2  3  1  0
  3  4  2  0
  4  5  1  0
  5  6  2  0
  6  7  1  0
  7  8  2  0
  7  9  1  0
  8 16  1  0
  9 10  2  0
 10 11  1  0
 10 15  1  0
 11 12  1  0
 11 13  1  0
 13 14  2  0
 14 15  1  0
 15 16  2  0
 16 17  1  0
  1 18  1  0
  2 19  1  0
  3 20  1  0
  5 21  1  0
 12 22  1  0
 12 23  1  0
 12 24  1  0
 14 25  1  0
 17 26  1  0
 17 27  1  0
M  END
>  <mol_id>  (94) 
2026-09-18-6fnk-s0-n100-r3-0094

>  <rmsd_to_ref>  (94) 
4.724489795918722

>  <pose_kind>  (94) 
conformer

$$$$
6fnk.A
     RDKit          3D

 27 29  0  0  0  0  0  0  0  0999 V2000
    2.9495   21.0498   45.0575 C   0  0  0  0  0  0  0  0  0  0  0  0
    4.2764   21.4056   45.2998 C   0  0  0  0  0  0  0  0  0  0  0  0
    5.3014   20.5404   44.9459 C   0  0  0  0  0  0  0  0  0  0  0  0
    5.0035   19.3149   44.3436 N   0  0  0  0  0  0  0  0  0  0  0  0
    3.6678   18.9591   44.1025 C   0  0  0  0  0  0  0  0  0  0  0  0
    2.6372   19.8266   44.4594 C   0  0  0  0  0  0  0  0  0  0  0  0
    1.3066   19.4682   44.2200 C   0  0  0  0  0  0  0  0  0  0  0  0
    0.2957   20.1997   44.7089 N   0  0  0  0  0  0  0  0  0  0  0  0
    1.0311   18.3842   43.4877 N   0  0  0  0  0  0  0  0  0  0  0  0
   -0.2353   18.0031   43.2434 C   0  0  0  0  0  0  0  0  0  0  0  0
   -0.7476   16.9657   42.5640 N   0  0  0  0  0  0  0  0  0  0  0  0
    0.0202   15.9278   41.8695 C   0  0  0  0  0  0  0  0  0  0  0  0
   -1.9786   16.9983   42.5880 N   0  0  0  0  0  0  0  0  0  0  0  0
   -2.3386   18.0977   43.2705 C   0  0  0  0  0  0  0  0  0  0  0  0
   -1.2439   18.7299   43.7143 C   0  0  0  0  0  0  0  0  0  0  0  0
   -0.9762   19.8410   44.4540 C   0  0  0  0  0  0  0  0  0  0  0  0
   -1.9798   20.6031   44.9525 N   0  0  0  0  0  0  0  0  0  0  0  0
    2.1407   21.7396   45.3404 H   0  0  0  0  0  0  0  0  0  0  0  0
    4.5098   22.3717   45.7712 H   0  0  0  0  0  0  0  0  0  0  0  0
    6.3479   20.8187   45.1392 H   0  0  0  0  0  0  0  0  0  0  0  0
    3.4336   17.9933   43.6309 H   0  0  0  0  0  0  0  0  0  0  0  0
   -0.3261   14.9358   42.1953 H   0  0  0  0  0  0  0  0  0  0  0  0
   -0.1253   16.0286   40.7839 H   0  0  0  0  0  0  0  0  0  0  0  0
    1.0881   16.0400   42.1083 H   0  0  0  0  0  0  0  0  0  0  0  0
   -3.3740   18.4285   43.4394 H   0  0  0  0  0  0  0  0  0  0  0  0
   -2.9605   20.3470   44.7697 H   0  0  0  0  0  0  0  0  0  0  0  0
   -1.7618   21.4384   45.5143 H   0  0  0  0  0  0  0  0  0  0  0  0
  1  2  2  0
  1  6  1  0
  2  3  1  0
  3  4  2  0
  4  5  1  0
  5  6  2  0
  6  7  1  0
  7  8  2  0
  7  9  1  0
  8 16  1  0
  9 10  2  0
 10 11  1  0
 10 15  1  0
 11 12  1  0
 11 13  1  0
 13 14  2  0
 14 15  1  0
 15 16  2  0
 16 17  1  0
  1 18  1  0
  2 19  1  0
  3 20  1  0
  5 21  1  0
 12 22  1  0
 12 23  1  0
 12 24  1  0
 14 25  1  0
 17 26  1  0
 17 27  1  0
M  END
>  <mol_id>  (95) 
2026-09-18-6fnk-s0-n100-r3-0095

>  <rmsd_to_ref>  (95) 
4.770408163267712

>  <pose_kind>  (95) 
rigid

$$$$
6fnk.A
     RDKit          3D

 27 29  0  0  0  0  0  0  0  0999 V2000
    0.9536   19.1866   41.9997 C   0  0  0  0  0  0  0  0  0  0  0  0
   -0.2878   19.3821   41.4321 C   0  0  0  0  0  0  0  0  0  0  0  0
   -1.3838   18.6884   41.9020 C   0  0  0  0  0  0  0  0  0  0  0  0
   -1.2612   17.8027   42.9293 N   0  0  0  0  0  0  0  0  0  0  0  0
   -0.0610   17.5826   43.5128 C   0  0  0  0  0  0  0  0  0  0  0  0
    1.0675   18.2733   43.0554 C   0  0  0  0  0  0  0  0  0  0  0  0
    2.3783   18.0820   43.6377 C   0  0  0  0  0  0  0  0  0  0  0  0
    3.4779   18.7499   43.1976 N   0  0  0  0  0  0  0  0  0  0  0  0
    2.4951   17.2085   44.6497 N   0  0  0  0  0  0  0  0  0  0  0  0
    3.7055   16.9855   45.2393 C   0  0  0  0  0  0  0  0  0  0  0  0
    4.1220   16.1932   46.2445 N   0  0  0  0  0  0  0  0  0  0  0  0
    3.2623   15.2899   47.0156 C   0  0  0  0  0  0  0  0  0  0  0  0
    5.4151   16.3337   46.4498 N   0  0  0  0  0  0  0  0  0  0  0  0
    5.9159   17.2345   45.5807 C   0  0  0  0  0  0  0  0  0  0  0  0
    4.8306   17.6544   44.8054 C   0  0  0  0  0  0  0  0  0  0  0  0
    4.6803   18.5452   43.7645 C   0  0  0  0  0  0  0  0  0  0  0  0
    5.8163   19.2500   43.2933 N   0  0  0  0  0  0  0  0  0  0  0  0
    1.7950   19.7326   41.6239 H   0  0  0  0  0  0  0  0  0  0  0  0
   -0.3575   20.0992   40.6087 H   0  0  0  0  0  0  0  0  0  0  0  0
   -2.3490   18.8743   41.4227 H   0  0  0  0  0  0  0  0  0  0  0  0
    0.0371   16.8701   44.3390 H   0  0  0  0  0  0  0  0  0  0  0  0
    3.1449   15.7321   48.0263 H   0  0  0  0  0  0  0  0  0  0  0  0
    2.2858   15.2066   46.5198 H   0  0  0  0  0  0  0  0  0  0  0  0
    3.7580   14.2885   47.1582 H   0  0  0  0  0  0  0  0  0  0  0  0
    6.9254   17.5953   45.4595 H   0  0  0  0  0  0  0  0  0  0  0  0
    6.7606   18.8060   43.2165 H   0  0  0  0  0  0  0  0  0  0  0  0
    5.7158   20.2594   43.0074 H   0  0  0  0  0  0  0  0  0  0  0  0
  1  2  2  0
  1  6  1  0
  2  3  1  0
  3  4  2  0
  4  5  1  0
  5  6  2  0
  6  7  1  0
  7  8  2  0
  7  9  1  0
  8 16  1  0
  9 10  2  0
 10 11  1  0
 10 15  1  0
 11 12  1  0
 11 13  1  0
 13 14  2  0
 14 15  1  0
 15 16  2  0
 16 17  1  0
  1 18  1  0
  2 19  1  0
  3 20  1  0
  5 21  1  0
 12 22  1  0
 12 23  1  0
 12 24  1  0
 14 25  1  0
 17 26  1  0
 17 27  1  0
M  END
>  <mol_id>  (96) 
2026-09-18-6fnk-s0-n100-r3-0096

>  <rmsd_to_ref>  (96) 
4.81632653061491

>  <pose_kind>  (96) 
conformer

$$$$
6fnk.A
     RDKit          3D

 27 29  0  0  0  0  0  0  0  0999 V2000
    2.2815   18.0408   43.2029 C   0  0  0  0  0  0  0  0  0  0  0  0
    2.9086   18.8500   42.2554 C   0  0  0  0  0  0  0  0  0  0  0  0
    2.1465   19.5942   41.3667 C   0  0  0  0  0  0  0  0  0  0  0  0
    0.7513   19.5351   41.4242 N   0  0  0  0  0  0  0  0  0  0  0  0
    0.1234   18.7190   42.3773 C   0  0  0  0  0  0  0  0  0  0  0  0
    0.8880   17.9695   43.2695 C   0  0  0  0  0  0  0  0  0  0  0  0
    0.2593   17.1551   44.2169 C   0  0  0  0  0  0  0  0  0  0  0  0
    0.9643   16.2954   44.9652 N   0  0  0  0  0  0  0  0  0  0  0  0
   -1.0641   17.2344   44.3889 N   0  0  0  0  0  0  0  0  0  0  0  0
   -1.7051   16.4616   45.2838 C   0  0  0  0  0  0  0  0  0  0  0  0
   -3.0008   16.3543   45.6152 N   0  0  0  0  0  0  0  0  0  0  0  0
   -4.1049   17.1235   45.0337 C   0  0  0  0  0  0  0  0  0  0  0  0
   -3.1524   15.5119   46.5010 N   0  0  0  0  0  0  0  0  0  0  0  0
   -1.9358   15.0410   46.8207 C   0  0  0  0  0  0  0  0  0  0  0  0
   -1.0117   15.6151   46.0387 C   0  0  0  0  0  0  0  0  0  0  0  0
    0.3377   15.5315   45.8791 C   0  0  0  0  0  0  0  0  0  0  0  0
    1.0752   14.6771   46.6291 N   0  0  0  0  0  0  0  0  0  0  0  0
    2.8907   17.4526   43.9050 H   0  0  0  0  0  0  0  0  0  0  0  0
    4.0067   18.8981   42.2130 H   0  0  0  0  0  0  0  0  0  0  0  0
    2.6400   20.2304   40.6172 H   0  0  0  0  0  0  0  0  0  0  0  0
   -0.9747   18.6706   42.4205 H   0  0  0  0  0  0  0  0  0  0  0  0
   -4.8942   16.4350   44.6974 H   0  0  0  0  0  0  0  0  0  0  0  0
   -4.5138   17.8081   45.7913 H   0  0  0  0  0  0  0  0  0  0  0  0
   -3.7352   17.7044   44.1759 H   0  0  0  0  0  0  0  0  0  0  0  0
   -1.7296   14.2976   47.6047 H   0  0  0  0  0  0  0  0  0  0  0  0
    0.6161   14.0832   47.3344 H   0  0  0  0  0  0  0  0  0  0  0  0
    2.0948   14.6217   46.4939 H   0  0  0  0  0  0  0  0  0  0  0  0
  1  2  2  0
  1  6  1  0
  2  3  1  0
  3  4  2  0
  4  5  1  0
  5  6  2  0
  6  7  1  0
  7  8  2  0
  7  9  1  0
  8 16  1  0
  9 10  2  0
 10 11  1  0
 10 15  1  0
 11 12  1  0
 11 13  1  0
 13 14  2  0
 14 15  1  0
 15 16  2  0
 16 17  1  0
  1 18  1  0
  2 19  1  0
  3 20  1  0
  5 21  1  0
 12 22  1  0
 12 23  1  0
 12 24  1  0
 14 25  1  0
 17 26  1  0
 17 27  1  0
M  END
>  <mol_id>  (97) 
2026-09-18-6fnk-s0-n100-r3-0097

>  <rmsd_to_ref>  (97) 
4.862244897959945

>  <pose_kind>  (97) 
rigid

$$$$
6fnk.A
     RDKit          3D

 27 29  0  0  0  0  0  0  0  0999 V2000
   -0.8946   19.0328   40.9756 C   0  0  0  0  0  0  0  0  0  0  0  0
   -0.9820   19.8397   39.8447 C   0  0  0  0  0  0  0  0  0  0  0  0
   -0.2119   20.9916   39.7732 C   0  0  0  0  0  0  0  0  0  0  0  0
    0.6213   21.3344   40.7934 N   0  0  0  0  0  0  0  0  0  0  0  0
    0.7280   20.5654   41.9117 C   0  0  0  0  0  0  0  0  0  0  0  0
   -0.0376   19.4164   41.9873 C   0  0  0  0  0  0  0  0  0  0  0  0
    0.0678   18.5842   43.1801 C   0  0  0  0  0  0  0  0  0  0  0  0
    0.8790   18.9012   44.1940 N   0  0  0  0  0  0  0  0  0  0  0  0
   -0.6565   17.4556   43.3021 N   0  0  0  0  0  0  0  0  0  0  0  0
   -0.5907   16.6564   44.3867 C   0  0  0  0  0  0  0  0  0  0  0  0
   -1.2146   15.4977   44.7184 N   0  0  0  0  0  0  0  0  0  0  0  0
   -2.1815   14.8624   43.8229 C   0  0  0  0  0  0  0  0  0  0  0  0
   -0.7966   15.1168   45.9021 N   0  0  0  0  0  0  0  0  0  0  0  0
    0.1086   16.0012   46.3887 C   0  0  0  0  0  0  0  0  0  0  0  0
    0.2498   16.9857   45.4361 C   0  0  0  0  0  0  0  0  0  0  0  0
    0.9994   18.1483   45.3162 C   0  0  0  0  0  0  0  0  0  0  0  0
    1.8699   18.5052   46.3838 N   0  0  0  0  0  0  0  0  0  0  0  0
   -1.4825   18.1180   41.0732 H   0  0  0  0  0  0  0  0  0  0  0  0
   -1.6557   19.5299   39.0593 H   0  0  0  0  0  0  0  0  0  0  0  0
   -0.2951   21.6124   38.8756 H   0  0  0  0  0  0  0  0  0  0  0  0
    1.4025   20.8827   42.6892 H   0  0  0  0  0  0  0  0  0  0  0  0
   -2.3615   13.8353   44.1975 H   0  0  0  0  0  0  0  0  0  0  0  0
   -1.7736   14.8970   42.8050 H   0  0  0  0  0  0  0  0  0  0  0  0
   -3.1783   15.3806   43.8931 H   0  0  0  0  0  0  0  0  0  0  0  0
    0.6285   15.9593   47.3362 H   0  0  0  0  0  0  0  0  0  0  0  0
    2.4107   17.7201   46.8177 H   0  0  0  0  0  0  0  0  0  0  0  0
    1.9959   19.4632   46.7450 H   0  0  0  0  0  0  0  0  0  0  0  0
  1  2  2  0
  1  6  1  0
  2  3  1  0
  3  4  2  0
  4  5  1  0
  5  6  2  0
  6  7  1  0
  7  8  2  0
  7  9  1  0
  8 16  1  0
  9 10  2  0
 10 11  1  0
 10 15  1  0
 11 12  1  0
 11 13  1  0
 13 14  2  0
 14 15  1  0
 15 16  2  0
 16 17  1  0
  1 18  1  0
  2 19  1  0
  3 20  1  0
  5 21  1  0
 12 22  1  0
 12 23  1  0
 12 24  1  0
 14 25  1  0
 17 26  1  0
 17 27  1  0
M  END
>  <mol_id>  (98) 
2026-09-18-6fnk-s0-n100-r3-0098

>  <rmsd_to_ref>  (98) 
4.908163265310824

>  <pose_kind>  (98) 
conformer

$$$$
6fnk.A
     RDKit          3D

 27 29  0  0  0  0  0  0  0  0999 V2000
    3.5000   16.9400   41.7561 C   0  0  0  0  0  0  0  0  0  0  0  0
    4.8791   16.8980   41.9615 C   0  0  0  0  0  0  0  0  0  0  0  0
    5.7431   17.2662   40.9405 C   0  0  0  0  0  0  0  0  0  0  0  0
    5.2306   17.6823   39.7087 N   0  0  0  0  0  0  0  0  0  0  0  0
    3.8429   17.7220   39.5045 C   0  0  0  0  0  0  0  0  0  0  0  0
    2.9740   17.3506   40.5288 C   0  0  0  0  0  0  0  0  0  0  0  0
    1.5914   17.3890   40.3216 C   0  0  0  0  0  0  0  0  0  0  0  0
    0.7436   16.8736   41.2225 N   0  0  0  0  0  0  0  0  0  0  0  0
    1.1002   17.9524   39.2133 N   0  0  0  0  0  0  0  0  0  0  0  0
   -0.2226   18.0004   38.9749 C   0  0  0  0  0  0  0  0  0  0  0  0
   -0.9346   18.4895   37.9483 N   0  0  0  0  0  0  0  0  0  0  0  0
   -0.3882   19.1432   36.7554 C   0  0  0  0  0  0  0  0  0  0  0  0
   -2.1401   18.3254   38.1408 N   0  0  0  0  0  0  0  0  0  0  0  0
   -2.2794   17.7383   39.3408 C   0  0  0  0  0  0  0  0  0  0  0  0
   -1.0710   17.5027   39.8691 C   0  0  0  0  0  0  0  0  0  0  0  0
   -0.5834   16.9341   41.0060 C   0  0  0  0  0  0  0  0  0  0  0  0
   -1.4193   16.4138   41.9371 N   0  0  0  0  0  0  0  0  0  0  0  0
    2.8195   16.6467   42.5691 H   0  0  0  0  0  0  0  0  0  0  0  0
    5.2812   16.5732   42.9325 H   0  0  0  0  0  0  0  0  0  0  0  0
    6.8308   17.2306   41.1004 H   0  0  0  0  0  0  0  0  0  0  0  0
    3.4401   18.0471   38.5339 H   0  0  0  0  0  0  0  0  0  0  0  0
   -0.8004   18.6656   35.8543 H   0  0  0  0  0  0  0  0  0  0  0  0
   -0.6617   20.2087   36.7634 H   0  0  0  0  0  0  0  0  0  0  0  0
    0.7075   19.0459   36.7534 H   0  0  0  0  0  0  0  0  0  0  0  0
   -3.2391   17.4891   39.8171 H   0  0  0  0  0  0  0  0  0  0  0  0
   -2.4383   16.4494   41.7917 H   0  0  0  0  0  0  0  0  0  0  0  0
   -1.0355   15.9828   42.7903 H   0  0  0  0  0  0  0  0  0  0  0  0
  1  2  2  0
  1  6  1  0
  2  3  1  0
  3  4  2  0
  4  5  1  0
  5  6  2  0
  6  7  1  0
  7  8  2  0
  7  9  1  0
  8 16  1  0
  9 10  2  0
 10 11  1  0
 10 15  1  0
 11 12  1  0
 11 13  1  0
 13 14  2  0
 14 15  1  0
 15 16  2  0
 16 17  1  0
  1 18  1  0
  2 19  1  0
  3 20  1  0
  5 21  1  0
 12 22  1  0
 12 23  1  0
 12 24  1  0
 14 25  1  0
 17 26  1  0
 17 27  1  0
M  END
>  <mol_id>  (99) 
2026-09-18-6fnk-s0-n100-r3-0099

>  <rmsd_to_ref>  (99) 
4.954081632655058

>  <pose_kind>  (99) 
rigid

$$$$
6fnk.A
     RDKit          3D

 27 29  0  0  0  0  0  0  0  0999 V2000
    3.8844   20.2313   41.9443 C   0  0  0  0  0  0  0  0  0  0  0  0
    5.1445   20.1972   42.5429 C   0  0  0  0  0  0  0  0  0  0  0  0
    5.2184   20.0742   43.9150 C   0  0  0  0  0  0  0  0  0  0  0  0
    4.1339   19.9854   44.7061 N   0  0  0  0  0  0  0  0  0  0  0  0
    2.8975   20.0161   44.1502 C   0  0  0  0  0  0  0  0  0  0  0  0
    2.7884   20.1386   42.7778 C   0  0  0  0  0  0  0  0  0  0  0  0
    1.4437   20.1685   42.2114 C   0  0  0  0  0  0  0  0  0  0  0  0
    0.3729   20.0783   43.0217 N   0  0  0  0  0  0  0  0  0  0  0  0
    1.2041   20.2836   40.8973 N   0  0  0  0  0  0  0  0  0  0  0  0
   -0.0515   20.3100   40.3849 C   0  0  0  0  0  0  0  0  0  0  0  0
   -0.5620   20.4134   39.1529 N   0  0  0  0  0  0  0  0  0  0  0  0
    0.1924   20.5376   37.9118 C   0  0  0  0  0  0  0  0  0  0  0  0
   -1.8880   20.3900   39.1794 N   0  0  0  0  0  0  0  0  0  0  0  0
   -2.2742   20.2679   40.4610 C   0  0  0  0  0  0  0  0  0  0  0  0
   -1.1418   20.2143   41.2520 C   0  0  0  0  0  0  0  0  0  0  0  0
   -0.8868   20.0977   42.5861 C   0  0  0  0  0  0  0  0  0  0  0  0
   -2.0120   19.9991   43.4782 N   0  0  0  0  0  0  0  0  0  0  0  0
    3.7573   20.3262   40.8734 H   0  0  0  0  0  0  0  0  0  0  0  0
    6.0134   20.2683   41.9082 H   0  0  0  0  0  0  0  0  0  0  0  0
    6.2091   20.0508   44.3475 H   0  0  0  0  0  0  0  0  0  0  0  0
    2.0486   19.9432   44.8085 H   0  0  0  0  0  0  0  0  0  0  0  0
    1.1873   21.0130   38.0827 H   0  0  0  0  0  0  0  0  0  0  0  0
   -0.3685   21.0929   37.1567 H   0  0  0  0  0  0  0  0  0  0  0  0
    0.3690   19.5109   37.4850 H   0  0  0  0  0  0  0  0  0  0  0  0
   -3.3039   20.2181   40.8319 H   0  0  0  0  0  0  0  0  0  0  0  0
   -2.0296   20.7256   44.2539 H   0  0  0  0  0  0  0  0  0  0  0  0
   -2.7477   19.2730   43.3692 H   0  0  0  0  0  0  0  0  0  0  0  0
  1  2  2  0
  1  6  1  0
  2  3  1  0
  3  4  2  0
  4  5  1  0
  5  6  2  0
  6  7  1  0
  7  8  2  0
  7  9  1  0
  8 16  1  0
  9 10  2  0
 10 11  1  0
 10 15  1  0
 11 12  1  0
 11 13  1  0
 13 14  2  0
 14 15  1  0
 15 16  2  0
 16 17  1  0
  1 18  1  0
  2 19  1  0
  3 20  1  0
  5 21  1  0
 12 22  1  0
 12 23  1  0
 12 24  1  0
 14 25  1  0
 17 26  1  0
 17 27  1  0
M  END
>  <mol_id>  (100) 
2026-09-18-6fnk-s0-n100-r3-0100

>  <rmsd_to_ref>  (100) 
5.00000000000233

>  <pose_kind>  (100) 
conformer

$$$$
