6fnk.A
     RDKit          3D

 27 29  0  0  0  0  0  0  0  0999 V2000
    2.9034   16.1161   40.7342 C   0  0  0  0  0  0  0  0  0  0  0  0
    3.3991   14.8730   40.3406 C   0  0  0  0  0  0  0  0  0  0  0  0
    3.2111   13.7637   41.1521 C   0  0  0  0  0  0  0  0  0  0  0  0
    2.5220   13.8922   42.3612 N   0  0  0  0  0  0  0  0  0  0  0  0
    2.0259   15.1442   42.7552 C   0  0  0  0  0  0  0  0  0  0  0  0
    2.2158   16.2597   41.9417 C   0  0  0  0  0  0  0  0  0  0  0  0
    1.7222   17.5068   42.3382 C   0  0  0  0  0  0  0  0  0  0  0  0
    2.0408   18.6212   41.6654 N   0  0  0  0  0  0  0  0  0  0  0  0
    0.9145   17.5957   43.3997 N   0  0  0  0  0  0  0  0  0  0  0  0
    0.4272   18.7780   43.8163 C   0  0  0  0  0  0  0  0  0  0  0  0
   -0.3708   19.1111   44.8422 N   0  0  0  0  0  0  0  0  0  0  0  0
   -0.9468   18.1844   45.8212 C   0  0  0  0  0  0  0  0  0  0  0  0
   -0.5738   20.3259   44.8557 N   0  0  0  0  0  0  0  0  0  0  0  0
    0.0681   20.8526   43.7999 C   0  0  0  0  0  0  0  0  0  0  0  0
    0.7283   19.8866   43.1473 C   0  0  0  0  0  0  0  0  0  0  0  0
    1.5428   19.8079   42.0593 C   0  0  0  0  0  0  0  0  0  0  0  0
    1.8732   20.9182   41.3561 N   0  0  0  0  0  0  0  0  0  0  0  0
    3.0555   16.9924   40.0870 H   0  0  0  0  0  0  0  0  0  0  0  0
    3.9387   14.7724   39.3873 H   0  0  0  0  0  0  0  0  0  0  0  0
    3.6041   12.7836   40.8441 H   0  0  0  0  0  0  0  0  0  0  0  0
    1.4860   15.2454   43.7082 H   0  0  0  0  0  0  0  0  0  0  0  0
   -0.7252   18.5408   46.8380 H   0  0  0  0  0  0  0  0  0  0  0  0
   -2.0365   18.1326   45.6801 H   0  0  0  0  0  0  0  0  0  0  0  0
   -0.5109   17.1844   45.6801 H   0  0  0  0  0  0  0  0  0  0  0  0
    0.0539   21.9149   43.5146 H   0  0  0  0  0  0  0  0  0  0  0  0
    1.5034   21.8366   41.6400 H   0  0  0  0  0  0  0  0  0  0  0  0
    2.4942   20.8437   40.5377 H   0  0  0  0  0  0  0  0  0  0  0  0
  1  2  2  0
  1  6  1  0
  2  3  1  0
  3  4  2  0
  4  5  1  0
  5  6  2  0
  6  7  1  0
  7  8  2  0
  7  9  1  0
  8 16  1  0
  9 10  2  0
 10 11  1  0
 10 15  1  0
 11 12  1  0
 11 13  1  0
 13 14  2  0
 14 15  1  0
 15 16  2  0
 16 17  1  0
  1 18  1  0
  2 19  1  0
  3 20  1  0
  5 21  1  0
 12 22  1  0
 12 23  1  0
 12 24  1  0
 14 25  1  0
 17 26  1  0
 17 27  1  0
M  END
>  <mol_id>  (1) 
2026-09-17-6fnk-s0-n100-0001

>  <rmsd_to_ref>  (1) 
0.0

>  <pose_kind>  (1) 
native

$$$$
6fnk.A
     RDKit          3D

 27 29  0  0  0  0  0  0  0  0999 V2000
    2.4818   16.1048   40.7666 C   0  0  0  0  0  0  0  0  0  0  0  0
    2.9349   14.9036   40.2582 C   0  0  0  0  0  0  0  0  0  0  0  0
    2.8528   13.7981   41.1116 C   0  0  0  0  0  0  0  0  0  0  0  0
    2.3666   13.9007   42.3398 N   0  0  0  0  0  0  0  0  0  0  0  0
    1.9362   15.0730   42.8050 C   0  0  0  0  0  0  0  0  0  0  0  0
    1.9728   16.2187   42.0487 C   0  0  0  0  0  0  0  0  0  0  0  0
    1.5108   17.5172   42.5246 C   0  0  0  0  0  0  0  0  0  0  0  0
    1.5694   18.6127   41.7392 N   0  0  0  0  0  0  0  0  0  0  0  0
    1.0146   17.6309   43.7730 N   0  0  0  0  0  0  0  0  0  0  0  0
    0.5727   18.8297   44.2531 C   0  0  0  0  0  0  0  0  0  0  0  0
    0.0434   19.2277   45.4253 N   0  0  0  0  0  0  0  0  0  0  0  0
   -0.2116   18.3752   46.5911 C   0  0  0  0  0  0  0  0  0  0  0  0
   -0.2082   20.5244   45.3453 N   0  0  0  0  0  0  0  0  0  0  0  0
    0.1381   21.0064   44.1514 C   0  0  0  0  0  0  0  0  0  0  0  0
    0.6401   19.9398   43.4360 C   0  0  0  0  0  0  0  0  0  0  0  0
    1.1491   19.8244   42.1549 C   0  0  0  0  0  0  0  0  0  0  0  0
    1.2357   20.9507   41.2776 N   0  0  0  0  0  0  0  0  0  0  0  0
    2.5298   16.9868   40.1320 H   0  0  0  0  0  0  0  0  0  0  0  0
    3.3329   14.8206   39.2524 H   0  0  0  0  0  0  0  0  0  0  0  0
    3.2169   12.8617   40.6866 H   0  0  0  0  0  0  0  0  0  0  0  0
    1.5503   15.1081   43.8061 H   0  0  0  0  0  0  0  0  0  0  0  0
   -0.1918   19.0400   47.4772 H   0  0  0  0  0  0  0  0  0  0  0  0
   -1.2555   17.9771   46.5607 H   0  0  0  0  0  0  0  0  0  0  0  0
    0.5102   17.5551   46.6327 H   0  0  0  0  0  0  0  0  0  0  0  0
    0.0717   22.0110   43.7491 H   0  0  0  0  0  0  0  0  0  0  0  0
    2.1511   21.1338   40.7724 H   0  0  0  0  0  0  0  0  0  0  0  0
    0.4036   21.5717   41.1479 H   0  0  0  0  0  0  0  0  0  0  0  0
  1  2  2  0
  1  6  1  0
  2  3  1  0
  3  4  2  0
  4  5  1  0
  5  6  2  0
  6  7  1  0
  7  8  2  0
  7  9  1  0
  8 16  1  0
  9 10  2  0
 10 11  1  0
 10 15  1  0
 11 12  1  0
 11 13  1  0
 13 14  2  0
 14 15  1  0
 15 16  2  0
 16 17  1  0
  1 18  1  0
  2 19  1  0
  3 20  1  0
  5 21  1  0
 12 22  1  0
 12 23  1  0
 12 24  1  0
 14 25  1  0
 17 26  1  0
 17 27  1  0
M  END
>  <mol_id>  (2) 
2026-09-17-6fnk-s0-n100-0002

>  <rmsd_to_ref>  (2) 
0.5000000000050919

>  <pose_kind>  (2) 
conformer

$$$$
6fnk.A
     RDKit          3D

 27 29  0  0  0  0  0  0  0  0999 V2000
    2.7405   16.1326   40.4080 C   0  0  0  0  0  0  0  0  0  0  0  0
    3.0410   14.8795   39.8739 C   0  0  0  0  0  0  0  0  0  0  0  0
    2.5528   13.7321   40.4819 C   0  0  0  0  0  0  0  0  0  0  0  0
    1.7573   13.8333   41.6265 N   0  0  0  0  0  0  0  0  0  0  0  0
    1.4580   15.0951   42.1624 C   0  0  0  0  0  0  0  0  0  0  0  0
    1.9495   16.2484   41.5536 C   0  0  0  0  0  0  0  0  0  0  0  0
    1.6515   17.5046   42.0914 C   0  0  0  0  0  0  0  0  0  0  0  0
    2.2511   18.6119   41.6329 N   0  0  0  0  0  0  0  0  0  0  0  0
    0.7510   17.6111   43.0737 N   0  0  0  0  0  0  0  0  0  0  0  0
    0.4446   18.8004   43.6217 C   0  0  0  0  0  0  0  0  0  0  0  0
   -0.3968   19.1467   44.6079 N   0  0  0  0  0  0  0  0  0  0  0  0
   -1.2498   18.2322   45.3727 C   0  0  0  0  0  0  0  0  0  0  0  0
   -0.3708   20.3644   44.7912 N   0  0  0  0  0  0  0  0  0  0  0  0
    0.4817   20.8879   43.8947 C   0  0  0  0  0  0  0  0  0  0  0  0
    1.0256   19.9052   43.1644 C   0  0  0  0  0  0  0  0  0  0  0  0
    1.9378   19.8108   42.1583 C   0  0  0  0  0  0  0  0  0  0  0  0
    2.5519   20.9158   41.6703 N   0  0  0  0  0  0  0  0  0  0  0  0
    3.1305   17.0391   39.9221 H   0  0  0  0  0  0  0  0  0  0  0  0
    3.6648   14.8011   38.9713 H   0  0  0  0  0  0  0  0  0  0  0  0
    2.7916   12.7433   40.0633 H   0  0  0  0  0  0  0  0  0  0  0  0
    0.8341   15.1742   43.0649 H   0  0  0  0  0  0  0  0  0  0  0  0
   -1.0917   18.3968   46.4488 H   0  0  0  0  0  0  0  0  0  0  0  0
   -2.3047   18.4206   45.1241 H   0  0  0  0  0  0  0  0  0  0  0  0
   -0.9933   17.1930   45.1192 H   0  0  0  0  0  0  0  0  0  0  0  0
    0.6999   21.9597   43.7781 H   0  0  0  0  0  0  0  0  0  0  0  0
    2.3272   21.8434   42.0578 H   0  0  0  0  0  0  0  0  0  0  0  0
    3.2433   20.8283   40.9119 H   0  0  0  0  0  0  0  0  0  0  0  0
  1  2  2  0
  1  6  1  0
  2  3  1  0
  3  4  2  0
  4  5  1  0
  5  6  2  0
  6  7  1  0
  7  8  2  0
  7  9  1  0
  8 16  1  0
  9 10  2  0
 10 11  1  0
 10 15  1  0
 11 12  1  0
 11 13  1  0
 13 14  2  0
 14 15  1  0
 15 16  2  0
 16 17  1  0
  1 18  1  0
  2 19  1  0
  3 20  1  0
  5 21  1  0
 12 22  1  0
 12 23  1  0
 12 24  1  0
 14 25  1  0
 17 26  1  0
 17 27  1  0
M  END
>  <mol_id>  (3) 
2026-09-17-6fnk-s0-n100-0003

>  <rmsd_to_ref>  (3) 
0.5459183673479185

>  <pose_kind>  (3) 
rigid

$$$$
6fnk.A
     RDKit          3D

 27 29  0  0  0  0  0  0  0  0999 V2000
    2.9679   15.7028   41.3890 C   0  0  0  0  0  0  0  0  0  0  0  0
    3.4118   14.4290   41.0941 C   0  0  0  0  0  0  0  0  0  0  0  0
    2.7889   13.3805   41.7794 C   0  0  0  0  0  0  0  0  0  0  0  0
    1.8261   13.6003   42.6627 N   0  0  0  0  0  0  0  0  0  0  0  0
    1.4170   14.8405   42.9280 C   0  0  0  0  0  0  0  0  0  0  0  0
    1.9625   15.9392   42.3105 C   0  0  0  0  0  0  0  0  0  0  0  0
    1.5401   17.3093   42.5760 C   0  0  0  0  0  0  0  0  0  0  0  0
    2.1104   18.3540   41.9405 N   0  0  0  0  0  0  0  0  0  0  0  0
    0.5611   17.5423   43.4731 N   0  0  0  0  0  0  0  0  0  0  0  0
    0.1393   18.8110   43.7477 C   0  0  0  0  0  0  0  0  0  0  0  0
   -0.7914   19.3271   44.5724 N   0  0  0  0  0  0  0  0  0  0  0  0
   -1.6681   18.5661   45.4686 C   0  0  0  0  0  0  0  0  0  0  0  0
   -0.7797   20.6433   44.4353 N   0  0  0  0  0  0  0  0  0  0  0  0
    0.1334   21.0234   43.5414 C   0  0  0  0  0  0  0  0  0  0  0  0
    0.7337   19.8677   43.0883 C   0  0  0  0  0  0  0  0  0  0  0  0
    1.7384   19.6298   42.1676 C   0  0  0  0  0  0  0  0  0  0  0  0
    2.3792   20.6973   41.4636 N   0  0  0  0  0  0  0  0  0  0  0  0
    3.4287   16.5437   40.8757 H   0  0  0  0  0  0  0  0  0  0  0  0
    4.2004   14.2500   40.3707 H   0  0  0  0  0  0  0  0  0  0  0  0
    3.1574   12.3848   41.5288 H   0  0  0  0  0  0  0  0  0  0  0  0
    0.6341   14.9702   43.6508 H   0  0  0  0  0  0  0  0  0  0  0  0
   -1.9463   19.2518   46.2932 H   0  0  0  0  0  0  0  0  0  0  0  0
   -2.6348   18.3309   44.9593 H   0  0  0  0  0  0  0  0  0  0  0  0
   -1.1757   17.6478   45.7992 H   0  0  0  0  0  0  0  0  0  0  0  0
    0.4082   22.0112   43.1888 H   0  0  0  0  0  0  0  0  0  0  0  0
    3.4398   20.7203   41.4289 H   0  0  0  0  0  0  0  0  0  0  0  0
    1.7987   21.4327   40.9977 H   0  0  0  0  0  0  0  0  0  0  0  0
  1  2  2  0
  1  6  1  0
  2  3  1  0
  3  4  2  0
  4  5  1  0
  5  6  2  0
  6  7  1  0
  7  8  2  0
  7  9  1  0
  8 16  1  0
  9 10  2  0
 10 11  1  0
 10 15  1  0
 11 12  1  0
 11 13  1  0
 13 14  2  0
 14 15  1  0
 15 16  2  0
 16 17  1  0
  1 18  1  0
  2 19  1  0
  3 20  1  0
  5 21  1  0
 12 22  1  0
 12 23  1  0
 12 24  1  0
 14 25  1  0
 17 26  1  0
 17 27  1  0
M  END
>  <mol_id>  (4) 
2026-09-17-6fnk-s0-n100-0004

>  <rmsd_to_ref>  (4) 
0.5918367346950798

>  <pose_kind>  (4) 
conformer

$$$$
6fnk.A
     RDKit          3D

 27 29  0  0  0  0  0  0  0  0999 V2000
    3.0463   16.6946   40.7396 C   0  0  0  0  0  0  0  0  0  0  0  0
    3.7381   15.6047   40.2109 C   0  0  0  0  0  0  0  0  0  0  0  0
    3.7272   14.3880   40.8771 C   0  0  0  0  0  0  0  0  0  0  0  0
    3.0202   14.2546   42.0753 N   0  0  0  0  0  0  0  0  0  0  0  0
    2.3266   15.3531   42.6054 C   0  0  0  0  0  0  0  0  0  0  0  0
    2.3384   16.5765   41.9380 C   0  0  0  0  0  0  0  0  0  0  0  0
    1.6481   17.6703   42.4702 C   0  0  0  0  0  0  0  0  0  0  0  0
    1.7863   18.8957   41.9454 N   0  0  0  0  0  0  0  0  0  0  0  0
    0.8311   17.4975   43.5141 N   0  0  0  0  0  0  0  0  0  0  0  0
    0.1574   18.5263   44.0585 C   0  0  0  0  0  0  0  0  0  0  0  0
   -0.6892   18.5987   45.0969 N   0  0  0  0  0  0  0  0  0  0  0  0
   -1.1133   17.4782   45.9418 C   0  0  0  0  0  0  0  0  0  0  0  0
   -1.0855   19.7545   45.2524 N   0  0  0  0  0  0  0  0  0  0  0  0
   -0.5315   20.5031   44.2845 C   0  0  0  0  0  0  0  0  0  0  0  0
    0.2792   19.7428   43.5364 C   0  0  0  0  0  0  0  0  0  0  0  0
    1.1014   19.9300   42.4676 C   0  0  0  0  0  0  0  0  0  0  0  0
    1.2520   21.1570   41.9125 N   0  0  0  0  0  0  0  0  0  0  0  0
    3.0585   17.6572   40.2073 H   0  0  0  0  0  0  0  0  0  0  0  0
    4.2918   15.7100   39.2662 H   0  0  0  0  0  0  0  0  0  0  0  0
    4.2748   13.5287   40.4626 H   0  0  0  0  0  0  0  0  0  0  0  0
    1.7725   15.2485   43.5499 H   0  0  0  0  0  0  0  0  0  0  0  0
   -0.9574   17.7371   46.9995 H   0  0  0  0  0  0  0  0  0  0  0  0
   -2.1796   17.2713   45.7683 H   0  0  0  0  0  0  0  0  0  0  0  0
   -0.5211   16.5857   45.6916 H   0  0  0  0  0  0  0  0  0  0  0  0
   -0.7153   21.5765   44.1297 H   0  0  0  0  0  0  0  0  0  0  0  0
    0.7374   21.9625   42.2962 H   0  0  0  0  0  0  0  0  0  0  0  0
    1.8811   21.2841   41.1069 H   0  0  0  0  0  0  0  0  0  0  0  0
  1  2  2  0
  1  6  1  0
  2  3  1  0
  3  4  2  0
  4  5  1  0
  5  6  2  0
  6  7  1  0
  7  8  2  0
  7  9  1  0
  8 16  1  0
  9 10  2  0
 10 11  1  0
 10 15  1  0
 11 12  1  0
 11 13  1  0
 13 14  2  0
 14 15  1  0
 15 16  2  0
 16 17  1  0
  1 18  1  0
  2 19  1  0
  3 20  1  0
  5 21  1  0
 12 22  1  0
 12 23  1  0
 12 24  1  0
 14 25  1  0
 17 26  1  0
 17 27  1  0
M  END
>  <mol_id>  (5) 
2026-09-17-6fnk-s0-n100-0005

>  <rmsd_to_ref>  (5) 
0.6377551020451819

>  <pose_kind>  (5) 
rigid

$$$$
6fnk.A
     RDKit          3D

 27 29  0  0  0  0  0  0  0  0999 V2000
    3.1781   15.4996   41.3137 C   0  0  0  0  0  0  0  0  0  0  0  0
    3.6488   14.2155   41.1238 C   0  0  0  0  0  0  0  0  0  0  0  0
    3.0986   13.2251   41.9445 C   0  0  0  0  0  0  0  0  0  0  0  0
    2.1765   13.5064   42.8534 N   0  0  0  0  0  0  0  0  0  0  0  0
    1.7402   14.7551   43.0154 C   0  0  0  0  0  0  0  0  0  0  0  0
    2.2150   15.8001   42.2614 C   0  0  0  0  0  0  0  0  0  0  0  0
    1.7610   17.1776   42.4112 C   0  0  0  0  0  0  0  0  0  0  0  0
    2.2613   18.1678   41.6434 N   0  0  0  0  0  0  0  0  0  0  0  0
    0.8230   17.4730   43.3335 N   0  0  0  0  0  0  0  0  0  0  0  0
    0.3735   18.7506   43.5025 C   0  0  0  0  0  0  0  0  0  0  0  0
   -0.5296   19.3215   44.3217 N   0  0  0  0  0  0  0  0  0  0  0  0
   -1.3318   18.6313   45.3371 C   0  0  0  0  0  0  0  0  0  0  0  0
   -0.5697   20.6167   44.0529 N   0  0  0  0  0  0  0  0  0  0  0  0
    0.2819   20.9293   43.0760 C   0  0  0  0  0  0  0  0  0  0  0  0
    0.8964   19.7510   42.7084 C   0  0  0  0  0  0  0  0  0  0  0  0
    1.8588   19.4490   41.7618 C   0  0  0  0  0  0  0  0  0  0  0  0
    2.4252   20.4569   40.9197 N   0  0  0  0  0  0  0  0  0  0  0  0
    3.5826   16.2965   40.6938 H   0  0  0  0  0  0  0  0  0  0  0  0
    4.4039   13.9861   40.3793 H   0  0  0  0  0  0  0  0  0  0  0  0
    3.4869   12.2199   41.7748 H   0  0  0  0  0  0  0  0  0  0  0  0
    0.9923   14.9355   43.7640 H   0  0  0  0  0  0  0  0  0  0  0  0
   -1.5894   19.3893   46.1030 H   0  0  0  0  0  0  0  0  0  0  0  0
   -2.3153   18.3181   44.9086 H   0  0  0  0  0  0  0  0  0  0  0  0
   -0.7919   17.7658   45.7303 H   0  0  0  0  0  0  0  0  0  0  0  0
    0.5041   21.8834   42.6114 H   0  0  0  0  0  0  0  0  0  0  0  0
    3.4812   20.5064   40.8239 H   0  0  0  0  0  0  0  0  0  0  0  0
    1.7966   21.1242   40.4154 H   0  0  0  0  0  0  0  0  0  0  0  0
  1  2  2  0
  1  6  1  0
  2  3  1  0
  3  4  2  0
  4  5  1  0
  5  6  2  0
  6  7  1  0
  7  8  2  0
  7  9  1  0
  8 16  1  0
  9 10  2  0
 10 11  1  0
 10 15  1  0
 11 12  1  0
 11 13  1  0
 13 14  2  0
 14 15  1  0
 15 16  2  0
 16 17  1  0
  1 18  1  0
  2 19  1  0
  3 20  1  0
  5 21  1  0
 12 22  1  0
 12 23  1  0
 12 24  1  0
 14 25  1  0
 17 26  1  0
 17 27  1  0
M  END
>  <mol_id>  (6) 
2026-09-17-6fnk-s0-n100-0006

>  <rmsd_to_ref>  (6) 
0.6836734693949572

>  <pose_kind>  (6) 
conformer

$$$$
6fnk.A
     RDKit          3D

 27 29  0  0  0  0  0  0  0  0999 V2000
    2.5309   15.7192   40.3851 C   0  0  0  0  0  0  0  0  0  0  0  0
    3.0517   14.5055   39.9361 C   0  0  0  0  0  0  0  0  0  0  0  0
    3.3478   13.5001   40.8449 C   0  0  0  0  0  0  0  0  0  0  0  0
    3.1206   13.7031   42.2089 N   0  0  0  0  0  0  0  0  0  0  0  0
    2.5981   14.9255   42.6577 C   0  0  0  0  0  0  0  0  0  0  0  0
    2.3020   15.9370   41.7459 C   0  0  0  0  0  0  0  0  0  0  0  0
    1.7835   17.1553   42.1965 C   0  0  0  0  0  0  0  0  0  0  0  0
    1.6559   18.2004   41.3673 N   0  0  0  0  0  0  0  0  0  0  0  0
    1.4013   17.2849   43.4709 N   0  0  0  0  0  0  0  0  0  0  0  0
    0.9064   18.4430   43.9430 C   0  0  0  0  0  0  0  0  0  0  0  0
    0.4804   18.8092   45.1615 N   0  0  0  0  0  0  0  0  0  0  0  0
    0.4487   17.9578   46.3544 C   0  0  0  0  0  0  0  0  0  0  0  0
    0.0992   19.9804   45.1526 N   0  0  0  0  0  0  0  0  0  0  0  0
    0.2299   20.4363   43.8960 C   0  0  0  0  0  0  0  0  0  0  0  0
    0.7649   19.4807   43.1243 C   0  0  0  0  0  0  0  0  0  0  0  0
    1.1424   19.3584   41.8220 C   0  0  0  0  0  0  0  0  0  0  0  0
    1.0155   20.3968   40.9606 N   0  0  0  0  0  0  0  0  0  0  0  0
    2.2981   16.5130   39.6602 H   0  0  0  0  0  0  0  0  0  0  0  0
    3.2274   14.3457   38.8620 H   0  0  0  0  0  0  0  0  0  0  0  0
    3.7613   12.5437   40.4922 H   0  0  0  0  0  0  0  0  0  0  0  0
    2.4219   15.0859   43.7316 H   0  0  0  0  0  0  0  0  0  0  0  0
    0.9544   18.4717   47.1852 H   0  0  0  0  0  0  0  0  0  0  0  0
   -0.5960   17.7533   46.6314 H   0  0  0  0  0  0  0  0  0  0  0  0
    0.9640   17.0095   46.1419 H   0  0  0  0  0  0  0  0  0  0  0  0
   -0.0584   21.4409   43.5528 H   0  0  0  0  0  0  0  0  0  0  0  0
    0.6250   21.2922   41.2874 H   0  0  0  0  0  0  0  0  0  0  0  0
    1.3096   20.2908   39.9792 H   0  0  0  0  0  0  0  0  0  0  0  0
  1  2  2  0
  1  6  1  0
  2  3  1  0
  3  4  2  0
  4  5  1  0
  5  6  2  0
  6  7  1  0
  7  8  2  0
  7  9  1  0
  8 16  1  0
  9 10  2  0
 10 11  1  0
 10 15  1  0
 11 12  1  0
 11 13  1  0
 13 14  2  0
 14 15  1  0
 15 16  2  0
 16 17  1  0
  1 18  1  0
  2 19  1  0
  3 20  1  0
  5 21  1  0
 12 22  1  0
 12 23  1  0
 12 24  1  0
 14 25  1  0
 17 26  1  0
 17 27  1  0
M  END
>  <mol_id>  (7) 
2026-09-17-6fnk-s0-n100-0007

>  <rmsd_to_ref>  (7) 
0.7295918367376566

>  <pose_kind>  (7) 
rigid

$$$$
6fnk.A
     RDKit          3D

 27 29  0  0  0  0  0  0  0  0999 V2000
    2.5153   16.2548   40.4941 C   0  0  0  0  0  0  0  0  0  0  0  0
    2.7415   15.0527   39.8536 C   0  0  0  0  0  0  0  0  0  0  0  0
    2.3728   13.8982   40.5524 C   0  0  0  0  0  0  0  0  0  0  0  0
    1.8361   13.9577   41.7623 N   0  0  0  0  0  0  0  0  0  0  0  0
    1.6289   15.1320   42.3572 C   0  0  0  0  0  0  0  0  0  0  0  0
    1.9550   16.3238   41.7580 C   0  0  0  0  0  0  0  0  0  0  0  0
    1.7427   17.6261   42.3786 C   0  0  0  0  0  0  0  0  0  0  0  0
    2.0817   18.7679   41.7449 N   0  0  0  0  0  0  0  0  0  0  0  0
    1.1972   17.6960   43.6095 N   0  0  0  0  0  0  0  0  0  0  0  0
    0.9833   18.8968   44.2222 C   0  0  0  0  0  0  0  0  0  0  0  0
    0.4701   19.2585   45.4132 N   0  0  0  0  0  0  0  0  0  0  0  0
   -0.0360   18.3497   46.4471 C   0  0  0  0  0  0  0  0  0  0  0  0
    0.5004   20.5792   45.4915 N   0  0  0  0  0  0  0  0  0  0  0  0
    1.0200   21.1125   44.3855 C   0  0  0  0  0  0  0  0  0  0  0  0
    1.3361   20.0547   43.5594 C   0  0  0  0  0  0  0  0  0  0  0  0
    1.8959   19.9841   42.2964 C   0  0  0  0  0  0  0  0  0  0  0  0
    2.2750   21.1607   41.5768 N   0  0  0  0  0  0  0  0  0  0  0  0
    2.7892   17.1742   39.9818 H   0  0  0  0  0  0  0  0  0  0  0  0
    3.1810   15.0049   38.8629 H   0  0  0  0  0  0  0  0  0  0  0  0
    2.5617   12.9620   40.0251 H   0  0  0  0  0  0  0  0  0  0  0  0
    1.1916   15.1312   43.3376 H   0  0  0  0  0  0  0  0  0  0  0  0
    0.0617   18.8856   47.4119 H   0  0  0  0  0  0  0  0  0  0  0  0
   -1.1353   18.1923   46.3220 H   0  0  0  0  0  0  0  0  0  0  0  0
    0.4945   17.3944   46.4119 H   0  0  0  0  0  0  0  0  0  0  0  0
    1.1921   22.1481   44.1144 H   0  0  0  0  0  0  0  0  0  0  0  0
    3.2407   21.2004   41.1379 H   0  0  0  0  0  0  0  0  0  0  0  0
    1.6015   21.9571   41.4943 H   0  0  0  0  0  0  0  0  0  0  0  0
  1  2  2  0
  1  6  1  0
  2  3  1  0
  3  4  2  0
  4  5  1  0
  5  6  2  0
  6  7  1  0
  7  8  2  0
  7  9  1  0
  8 16  1  0
  9 10  2  0
 10 11  1  0
 10 15  1  0
 11 12  1  0
 11 13  1  0
 13 14  2  0
 14 15  1  0
 15 16  2  0
 16 17  1  0
  1 18  1  0
  2 19  1  0
  3 20  1  0
  5 21  1  0
 12 22  1  0
 12 23  1  0
 12 24  1  0
 14 25  1  0
 17 26  1  0
 17 27  1  0
M  END
>  <mol_id>  (8) 
2026-09-17-6fnk-s0-n100-0008

>  <rmsd_to_ref>  (8) 
0.7755102040834724

>  <pose_kind>  (8) 
conformer

$$$$
6fnk.A
     RDKit          3D

 27 29  0  0  0  0  0  0  0  0999 V2000
    3.5522   16.8403   40.8865 C   0  0  0  0  0  0  0  0  0  0  0  0
    4.3779   15.7938   40.4754 C   0  0  0  0  0  0  0  0  0  0  0  0
    4.4491   14.6308   41.2283 C   0  0  0  0  0  0  0  0  0  0  0  0
    3.6908   14.5076   42.3958 N   0  0  0  0  0  0  0  0  0  0  0  0
    2.8624   15.5626   42.8077 C   0  0  0  0  0  0  0  0  0  0  0  0
    2.7914   16.7322   42.0531 C   0  0  0  0  0  0  0  0  0  0  0  0
    1.9666   17.7829   42.4674 C   0  0  0  0  0  0  0  0  0  0  0  0
    2.0128   18.9773   41.8612 N   0  0  0  0  0  0  0  0  0  0  0  0
    1.1118   17.5988   43.4787 N   0  0  0  0  0  0  0  0  0  0  0  0
    0.3092   18.5876   43.9108 C   0  0  0  0  0  0  0  0  0  0  0  0
   -0.5989   18.6433   44.8969 N   0  0  0  0  0  0  0  0  0  0  0  0
   -0.9580   17.5456   45.7998 C   0  0  0  0  0  0  0  0  0  0  0  0
   -1.1161   19.7601   44.9463 N   0  0  0  0  0  0  0  0  0  0  0  0
   -0.5840   20.4938   43.9550 C   0  0  0  0  0  0  0  0  0  0  0  0
    0.3399   19.7716   43.3071 C   0  0  0  0  0  0  0  0  0  0  0  0
    1.1998   19.9689   42.2703 C   0  0  0  0  0  0  0  0  0  0  0  0
    1.2600   21.1640   41.6343 N   0  0  0  0  0  0  0  0  0  0  0  0
    3.4997   17.7603   40.2858 H   0  0  0  0  0  0  0  0  0  0  0  0
    4.9720   15.8906   39.5548 H   0  0  0  0  0  0  0  0  0  0  0  0
    5.1021   13.8061   40.9067 H   0  0  0  0  0  0  0  0  0  0  0  0
    2.2677   15.4664   43.7281 H   0  0  0  0  0  0  0  0  0  0  0  0
   -0.8898   17.8908   46.8420 H   0  0  0  0  0  0  0  0  0  0  0  0
   -1.9868   17.2186   45.5884 H   0  0  0  0  0  0  0  0  0  0  0  0
   -0.2668   16.7037   45.6464 H   0  0  0  0  0  0  0  0  0  0  0  0
   -0.8640   21.5295   43.7122 H   0  0  0  0  0  0  0  0  0  0  0  0
    0.6468   21.9367   41.9310 H   0  0  0  0  0  0  0  0  0  0  0  0
    1.9188   21.2998   40.8544 H   0  0  0  0  0  0  0  0  0  0  0  0
  1  2  2  0
  1  6  1  0
  2  3  1  0
  3  4  2  0
  4  5  1  0
  5  6  2  0
  6  7  1  0
  7  8  2  0
  7  9  1  0
  8 16  1  0
  9 10  2  0
 10 11  1  0
 10 15  1  0
 11 12  1  0
 11 13  1  0
 13 14  2  0
 14 15  1  0
 15 16  2  0
 16 17  1  0
  1 18  1  0
  2 19  1  0
  3 20  1  0
  5 21  1  0
 12 22  1  0
 12 23  1  0
 12 24  1  0
 14 25  1  0
 17 26  1  0
 17 27  1  0
M  END
>  <mol_id>  (9) 
2026-09-17-6fnk-s0-n100-0009

>  <rmsd_to_ref>  (9) 
0.8214285714320889

>  <pose_kind>  (9) 
rigid

$$$$
6fnk.A
     RDKit          3D

 27 29  0  0  0  0  0  0  0  0999 V2000
    2.9949   15.9740   41.4268 C   0  0  0  0  0  0  0  0  0  0  0  0
    3.7087   14.7960   41.3301 C   0  0  0  0  0  0  0  0  0  0  0  0
    3.5503   13.8863   42.3810 C   0  0  0  0  0  0  0  0  0  0  0  0
    2.7581   14.1433   43.4115 N   0  0  0  0  0  0  0  0  0  0  0  0
    2.0807   15.2889   43.4792 C   0  0  0  0  0  0  0  0  0  0  0  0
    2.1658   16.2486   42.5006 C   0  0  0  0  0  0  0  0  0  0  0  0
    1.4396   17.5124   42.5416 C   0  0  0  0  0  0  0  0  0  0  0  0
    1.5594   18.4218   41.5522 N   0  0  0  0  0  0  0  0  0  0  0  0
    0.6313   17.7823   43.5864 N   0  0  0  0  0  0  0  0  0  0  0  0
   -0.0642   18.9544   43.6594 C   0  0  0  0  0  0  0  0  0  0  0  0
   -0.9202   19.4772   44.5575 N   0  0  0  0  0  0  0  0  0  0  0  0
   -1.3557   18.8427   45.8060 C   0  0  0  0  0  0  0  0  0  0  0  0
   -1.3027   20.6659   44.1194 N   0  0  0  0  0  0  0  0  0  0  0  0
   -0.7264   20.9540   42.9522 C   0  0  0  0  0  0  0  0  0  0  0  0
    0.0703   19.8732   42.6385 C   0  0  0  0  0  0  0  0  0  0  0  0
    0.8993   19.5973   41.5660 C   0  0  0  0  0  0  0  0  0  0  0  0
    1.0656   20.5231   40.4885 N   0  0  0  0  0  0  0  0  0  0  0  0
    3.0927   16.7059   40.6283 H   0  0  0  0  0  0  0  0  0  0  0  0
    4.3571   14.5864   40.4859 H   0  0  0  0  0  0  0  0  0  0  0  0
    4.1245   12.9641   42.2808 H   0  0  0  0  0  0  0  0  0  0  0  0
    1.4511   15.4535   44.3329 H   0  0  0  0  0  0  0  0  0  0  0  0
   -1.6455   19.6635   46.4914 H   0  0  0  0  0  0  0  0  0  0  0  0
   -2.2993   18.2670   45.6409 H   0  0  0  0  0  0  0  0  0  0  0  0
   -0.5719   18.1896   46.1988 H   0  0  0  0  0  0  0  0  0  0  0  0
   -0.8128   21.8300   42.3191 H   0  0  0  0  0  0  0  0  0  0  0  0
    2.0494   20.7619   40.1693 H   0  0  0  0  0  0  0  0  0  0  0  0
    0.2234   20.9472   40.0352 H   0  0  0  0  0  0  0  0  0  0  0  0
  1  2  2  0
  1  6  1  0
  2  3  1  0
  3  4  2  0
  4  5  1  0
  5  6  2  0
  6  7  1  0
  7  8  2  0
  7  9  1  0
  8 16  1  0
  9 10  2  0
 10 11  1  0
 10 15  1  0
 11 12  1  0
 11 13  1  0
 13 14  2  0
 14 15  1  0
 15 16  2  0
 16 17  1  0
  1 18  1  0
  2 19  1  0
  3 20  1  0
  5 21  1  0
 12 22  1  0
 12 23  1  0
 12 24  1  0
 14 25  1  0
 17 26  1  0
 17 27  1  0
M  END
>  <mol_id>  (10) 
2026-09-17-6fnk-s0-n100-0010

>  <rmsd_to_ref>  (10) 
0.8673469387773844

>  <pose_kind>  (10) 
conformer

$$$$
6fnk.A
     RDKit          3D

 27 29  0  0  0  0  0  0  0  0999 V2000
    3.2017   15.8832   41.4903 C   0  0  0  0  0  0  0  0  0  0  0  0
    3.5946   14.6485   40.9736 C   0  0  0  0  0  0  0  0  0  0  0  0
    2.8860   13.5024   41.3033 C   0  0  0  0  0  0  0  0  0  0  0  0
    1.7770   13.5868   42.1497 N   0  0  0  0  0  0  0  0  0  0  0  0
    1.3852   14.8299   42.6692 C   0  0  0  0  0  0  0  0  0  0  0  0
    2.0974   15.9817   42.3402 C   0  0  0  0  0  0  0  0  0  0  0  0
    1.7059   17.2191   42.8614 C   0  0  0  0  0  0  0  0  0  0  0  0
    2.4713   18.3079   42.7043 N   0  0  0  0  0  0  0  0  0  0  0  0
    0.5486   17.3266   43.5219 N   0  0  0  0  0  0  0  0  0  0  0  0
    0.1428   18.4974   44.0447 C   0  0  0  0  0  0  0  0  0  0  0  0
   -0.9482   18.8391   44.7471 N   0  0  0  0  0  0  0  0  0  0  0  0
   -2.0409   17.9408   45.1318 C   0  0  0  0  0  0  0  0  0  0  0  0
   -0.9230   20.0377   45.0296 N   0  0  0  0  0  0  0  0  0  0  0  0
    0.1918   20.5552   44.4877 C   0  0  0  0  0  0  0  0  0  0  0  0
    0.8900   19.5849   43.8829 C   0  0  0  0  0  0  0  0  0  0  0  0
    2.0665   19.4901   43.2044 C   0  0  0  0  0  0  0  0  0  0  0  0
    2.8547   20.5775   43.0238 N   0  0  0  0  0  0  0  0  0  0  0  0
    3.7674   16.7888   41.2258 H   0  0  0  0  0  0  0  0  0  0  0  0
    4.4658   14.5837   40.3051 H   0  0  0  0  0  0  0  0  0  0  0  0
    3.1967   12.5278   40.8988 H   0  0  0  0  0  0  0  0  0  0  0  0
    0.5140   14.8955   43.3375 H   0  0  0  0  0  0  0  0  0  0  0  0
   -2.2210   18.0248   46.2137 H   0  0  0  0  0  0  0  0  0  0  0  0
   -2.9541   18.2192   44.5854 H   0  0  0  0  0  0  0  0  0  0  0  0
   -1.7676   16.9043   44.8849 H   0  0  0  0  0  0  0  0  0  0  0  0
    0.4865   21.6140   44.5336 H   0  0  0  0  0  0  0  0  0  0  0  0
    2.5642   21.4920   43.3981 H   0  0  0  0  0  0  0  0  0  0  0  0
    3.7443   20.4894   42.5122 H   0  0  0  0  0  0  0  0  0  0  0  0
  1  2  2  0
  1  6  1  0
  2  3  1  0
  3  4  2  0
  4  5  1  0
  5  6  2  0
  6  7  1  0
  7  8  2  0
  7  9  1  0
  8 16  1  0
  9 10  2  0
 10 11  1  0
 10 15  1  0
 11 12  1  0
 11 13  1  0
 13 14  2  0
 14 15  1  0
 15 16  2  0
 16 17  1  0
  1 18  1  0
  2 19  1  0
  3 20  1  0
  5 21  1  0
 12 22  1  0
 12 23  1  0
 12 24  1  0
 14 25  1  0
 17 26  1  0
 17 27  1  0
M  END
>  <mol_id>  (11) 
2026-09-17-6fnk-s0-n100-0011

>  <rmsd_to_ref>  (11) 
0.9132653061260174

>  <pose_kind>  (11) 
rigid

$$$$
6fnk.A
     RDKit          3D

 27 29  0  0  0  0  0  0  0  0999 V2000
    2.6561   15.6347   41.2011 C   0  0  0  0  0  0  0  0  0  0  0  0
    2.9446   14.2967   41.0196 C   0  0  0  0  0  0  0  0  0  0  0  0
    2.6448   13.4465   42.0894 C   0  0  0  0  0  0  0  0  0  0  0  0
    2.1133   13.9027   43.2140 N   0  0  0  0  0  0  0  0  0  0  0  0
    1.8451   15.1996   43.3622 C   0  0  0  0  0  0  0  0  0  0  0  0
    2.1009   16.1177   42.3735 C   0  0  0  0  0  0  0  0  0  0  0  0
    1.8206   17.5429   42.5007 C   0  0  0  0  0  0  0  0  0  0  0  0
    2.0919   18.4028   41.4970 N   0  0  0  0  0  0  0  0  0  0  0  0
    1.2799   18.0159   43.6415 N   0  0  0  0  0  0  0  0  0  0  0  0
    1.0037   19.3435   43.7972 C   0  0  0  0  0  0  0  0  0  0  0  0
    0.4786   20.0765   44.7970 N   0  0  0  0  0  0  0  0  0  0  0  0
    0.0302   19.5675   46.0973 C   0  0  0  0  0  0  0  0  0  0  0  0
    0.4363   21.3396   44.4043 N   0  0  0  0  0  0  0  0  0  0  0  0
    0.9186   21.4730   43.1686 C   0  0  0  0  0  0  0  0  0  0  0  0
    1.2876   20.2087   42.7602 C   0  0  0  0  0  0  0  0  0  0  0  0
    1.8425   19.7245   41.5892 C   0  0  0  0  0  0  0  0  0  0  0  0
    2.1513   20.5884   40.4919 N   0  0  0  0  0  0  0  0  0  0  0  0
    2.8755   16.3264   40.3909 H   0  0  0  0  0  0  0  0  0  0  0  0
    3.3798   13.9240   40.0983 H   0  0  0  0  0  0  0  0  0  0  0  0
    2.8820   12.3951   41.9210 H   0  0  0  0  0  0  0  0  0  0  0  0
    1.4147   15.5233   44.2908 H   0  0  0  0  0  0  0  0  0  0  0  0
    0.1041   20.4136   46.8087 H   0  0  0  0  0  0  0  0  0  0  0  0
   -1.0595   19.3217   46.0637 H   0  0  0  0  0  0  0  0  0  0  0  0
    0.6126   18.6889   46.3875 H   0  0  0  0  0  0  0  0  0  0  0  0
    1.0313   22.3533   42.5457 H   0  0  0  0  0  0  0  0  0  0  0  0
    3.1105   20.5185   40.0428 H   0  0  0  0  0  0  0  0  0  0  0  0
    1.4342   21.2700   40.1513 H   0  0  0  0  0  0  0  0  0  0  0  0
  1  2  2  0
  1  6  1  0
  2  3  1  0
  3  4  2  0
  4  5  1  0
  5  6  2  0
  6  7  1  0
  7  8  2  0
  7  9  1  0
  8 16  1  0
  9 10  2  0
 10 11  1  0
 10 15  1  0
 11 12  1  0
 11 13  1  0
 13 14  2  0
 14 15  1  0
 15 16  2  0
 16 17  1  0
  1 18  1  0
  2 19  1  0
  3 20  1  0
  5 21  1  0
 12 22  1  0
 12 23  1  0
 12 24  1  0
 14 25  1  0
 17 26  1  0
 17 27  1  0
M  END
>  <mol_id>  (12) 
2026-09-17-6fnk-s0-n100-0012

>  <rmsd_to_ref>  (12) 
0.9591836734740249

>  <pose_kind>  (12) 
conformer

$$$$
6fnk.A
     RDKit          3D

 27 29  0  0  0  0  0  0  0  0999 V2000
    3.2626   15.5892   41.6902 C   0  0  0  0  0  0  0  0  0  0  0  0
    3.8968   14.3479   41.7430 C   0  0  0  0  0  0  0  0  0  0  0  0
    3.8230   13.5808   42.8965 C   0  0  0  0  0  0  0  0  0  0  0  0
    3.1101   14.0508   44.0029 N   0  0  0  0  0  0  0  0  0  0  0  0
    2.4745   15.3005   43.9473 C   0  0  0  0  0  0  0  0  0  0  0  0
    2.5495   16.0729   42.7898 C   0  0  0  0  0  0  0  0  0  0  0  0
    1.9169   17.3192   42.7382 C   0  0  0  0  0  0  0  0  0  0  0  0
    2.1183   18.1538   41.7091 N   0  0  0  0  0  0  0  0  0  0  0  0
    1.0921   17.6879   43.7235 N   0  0  0  0  0  0  0  0  0  0  0  0
    0.4727   18.8816   43.7133 C   0  0  0  0  0  0  0  0  0  0  0  0
   -0.3689   19.4660   44.5796 N   0  0  0  0  0  0  0  0  0  0  0  0
   -0.8504   18.8860   45.8368 C   0  0  0  0  0  0  0  0  0  0  0  0
   -0.7048   20.5790   44.1725 N   0  0  0  0  0  0  0  0  0  0  0  0
   -0.1128   20.7671   42.9816 C   0  0  0  0  0  0  0  0  0  0  0  0
    0.6573   19.7103   42.6903 C   0  0  0  0  0  0  0  0  0  0  0  0
    1.4880   19.3425   41.6764 C   0  0  0  0  0  0  0  0  0  0  0  0
    1.7020   20.1638   40.6199 N   0  0  0  0  0  0  0  0  0  0  0  0
    3.3246   16.1934   40.7731 H   0  0  0  0  0  0  0  0  0  0  0  0
    4.4552   13.9776   40.8706 H   0  0  0  0  0  0  0  0  0  0  0  0
    4.3253   12.6031   42.9403 H   0  0  0  0  0  0  0  0  0  0  0  0
    1.9157   15.6714   44.8193 H   0  0  0  0  0  0  0  0  0  0  0  0
   -0.6812   19.5983   46.6578 H   0  0  0  0  0  0  0  0  0  0  0  0
   -1.9260   18.6714   45.7534 H   0  0  0  0  0  0  0  0  0  0  0  0
   -0.3053   17.9530   46.0426 H   0  0  0  0  0  0  0  0  0  0  0  0
   -0.2408   21.6535   42.3430 H   0  0  0  0  0  0  0  0  0  0  0  0
    1.2298   21.0781   40.5745 H   0  0  0  0  0  0  0  0  0  0  0  0
    2.3367   19.8738   39.8624 H   0  0  0  0  0  0  0  0  0  0  0  0
  1  2  2  0
  1  6  1  0
  2  3  1  0
  3  4  2  0
  4  5  1  0
  5  6  2  0
  6  7  1  0
  7  8  2  0
  7  9  1  0
  8 16  1  0
  9 10  2  0
 10 11  1  0
 10 15  1  0
 11 12  1  0
 11 13  1  0
 13 14  2  0
 14 15  1  0
 15 16  2  0
 16 17  1  0
  1 18  1  0
  2 19  1  0
  3 20  1  0
  5 21  1  0
 12 22  1  0
 12 23  1  0
 12 24  1  0
 14 25  1  0
 17 26  1  0
 17 27  1  0
M  END
>  <mol_id>  (13) 
2026-09-17-6fnk-s0-n100-0013

>  <rmsd_to_ref>  (13) 
1.005102040816571

>  <pose_kind>  (13) 
rigid

$$$$
6fnk.A
     RDKit          3D

 27 29  0  0  0  0  0  0  0  0999 V2000
    2.6906   15.5698   40.7193 C   0  0  0  0  0  0  0  0  0  0  0  0
    3.0833   14.2717   40.4599 C   0  0  0  0  0  0  0  0  0  0  0  0
    3.1993   13.4253   41.5677 C   0  0  0  0  0  0  0  0  0  0  0  0
    2.9457   13.8484   42.7974 N   0  0  0  0  0  0  0  0  0  0  0  0
    2.5682   15.1071   43.0190 C   0  0  0  0  0  0  0  0  0  0  0  0
    2.4242   16.0181   42.0015 C   0  0  0  0  0  0  0  0  0  0  0  0
    2.0133   17.4020   42.2069 C   0  0  0  0  0  0  0  0  0  0  0  0
    1.8872   18.2566   41.1705 N   0  0  0  0  0  0  0  0  0  0  0  0
    1.7532   17.8411   43.4547 N   0  0  0  0  0  0  0  0  0  0  0  0
    1.3663   19.1294   43.6859 C   0  0  0  0  0  0  0  0  0  0  0  0
    1.0497   19.8242   44.7949 N   0  0  0  0  0  0  0  0  0  0  0  0
    1.0449   19.3052   46.1666 C   0  0  0  0  0  0  0  0  0  0  0  0
    0.7426   21.0598   44.4340 N   0  0  0  0  0  0  0  0  0  0  0  0
    0.8447   21.2121   43.1135 C   0  0  0  0  0  0  0  0  0  0  0  0
    1.2424   19.9900   42.6141 C   0  0  0  0  0  0  0  0  0  0  0  0
    1.5091   19.5404   41.3333 C   0  0  0  0  0  0  0  0  0  0  0  0
    1.3923   20.4008   40.1966 N   0  0  0  0  0  0  0  0  0  0  0  0
    2.5895   16.2573   39.8827 H   0  0  0  0  0  0  0  0  0  0  0  0
    3.2908   13.9261   39.4527 H   0  0  0  0  0  0  0  0  0  0  0  0
    3.5108   12.4057   41.3362 H   0  0  0  0  0  0  0  0  0  0  0  0
    2.3735   15.4050   44.0317 H   0  0  0  0  0  0  0  0  0  0  0  0
    1.2053   20.1759   46.8327 H   0  0  0  0  0  0  0  0  0  0  0  0
    0.0279   18.9279   46.4358 H   0  0  0  0  0  0  0  0  0  0  0  0
    1.7901   18.5135   46.2805 H   0  0  0  0  0  0  0  0  0  0  0  0
    0.6700   22.0797   42.4871 H   0  0  0  0  0  0  0  0  0  0  0  0
    2.1914   20.4340   39.4986 H   0  0  0  0  0  0  0  0  0  0  0  0
    0.5295   20.9791   40.0709 H   0  0  0  0  0  0  0  0  0  0  0  0
  1  2  2  0
  1  6  1  0
  2  3  1  0
  3  4  2  0
  4  5  1  0
  5  6  2  0
  6  7  1  0
  7  8  2  0
  7  9  1  0
  8 16  1  0
  9 10  2  0
 10 11  1  0
 10 15  1  0
 11 12  1  0
 11 13  1  0
 13 14  2  0
 14 15  1  0
 15 16  2  0
 16 17  1  0
  1 18  1  0
  2 19  1  0
  3 20  1  0
  5 21  1  0
 12 22  1  0
 12 23  1  0
 12 24  1  0
 14 25  1  0
 17 26  1  0
 17 27  1  0
M  END
>  <mol_id>  (14) 
2026-09-17-6fnk-s0-n100-0014

>  <rmsd_to_ref>  (14) 
1.051020408166902

>  <pose_kind>  (14) 
conformer

$$$$
6fnk.A
     RDKit          3D

 27 29  0  0  0  0  0  0  0  0999 V2000
    2.9094   15.6352   41.6762 C   0  0  0  0  0  0  0  0  0  0  0  0
    3.0525   14.2587   41.5007 C   0  0  0  0  0  0  0  0  0  0  0  0
    2.3117   13.3805   42.2782 C   0  0  0  0  0  0  0  0  0  0  0  0
    1.4202   13.8760   43.2337 N   0  0  0  0  0  0  0  0  0  0  0  0
    1.2796   15.2610   43.4090 C   0  0  0  0  0  0  0  0  0  0  0  0
    2.0246   16.1442   42.6299 C   0  0  0  0  0  0  0  0  0  0  0  0
    1.8840   17.5242   42.8085 C   0  0  0  0  0  0  0  0  0  0  0  0
    2.7101   18.3869   42.2008 N   0  0  0  0  0  0  0  0  0  0  0  0
    0.9090   17.9978   43.5909 N   0  0  0  0  0  0  0  0  0  0  0  0
    0.7478   19.3176   43.7938 C   0  0  0  0  0  0  0  0  0  0  0  0
   -0.1292   20.0137   44.5330 N   0  0  0  0  0  0  0  0  0  0  0  0
   -1.2056   19.4479   45.3517 C   0  0  0  0  0  0  0  0  0  0  0  0
    0.0812   21.2229   44.4292 N   0  0  0  0  0  0  0  0  0  0  0  0
    1.1058   21.3809   43.5751 C   0  0  0  0  0  0  0  0  0  0  0  0
    1.5552   20.1806   43.1850 C   0  0  0  0  0  0  0  0  0  0  0  0
    2.5464   19.7109   42.3786 C   0  0  0  0  0  0  0  0  0  0  0  0
    3.3896   20.5619   41.7453 N   0  0  0  0  0  0  0  0  0  0  0  0
    3.4994   16.3270   41.0571 H   0  0  0  0  0  0  0  0  0  0  0  0
    3.7522   13.8699   40.7463 H   0  0  0  0  0  0  0  0  0  0  0  0
    2.4259   12.2949   42.1427 H   0  0  0  0  0  0  0  0  0  0  0  0
    0.5798   15.6505   44.1631 H   0  0  0  0  0  0  0  0  0  0  0  0
   -1.1449   19.8572   46.3709 H   0  0  0  0  0  0  0  0  0  0  0  0
   -2.1784   19.7085   44.9093 H   0  0  0  0  0  0  0  0  0  0  0  0
   -1.1012   18.3535   45.3891 H   0  0  0  0  0  0  0  0  0  0  0  0
    1.5137   22.3481   43.2463 H   0  0  0  0  0  0  0  0  0  0  0  0
    3.2824   21.5790   41.8673 H   0  0  0  0  0  0  0  0  0  0  0  0
    4.1378   20.1917   41.1419 H   0  0  0  0  0  0  0  0  0  0  0  0
  1  2  2  0
  1  6  1  0
  2  3  1  0
  3  4  2  0
  4  5  1  0
  5  6  2  0
  6  7  1  0
  7  8  2  0
  7  9  1  0
  8 16  1  0
  9 10  2  0
 10 11  1  0
 10 15  1  0
 11 12  1  0
 11 13  1  0
 13 14  2  0
 14 15  1  0
 15 16  2  0
 16 17  1  0
  1 18  1  0
  2 19  1  0
  3 20  1  0
  5 21  1  0
 12 22  1  0
 12 23  1  0
 12 24  1  0
 14 25  1  0
 17 26  1  0
 17 27  1  0
M  END
>  <mol_id>  (15) 
2026-09-17-6fnk-s0-n100-0015

>  <rmsd_to_ref>  (15) 
1.0969387755146776

>  <pose_kind>  (15) 
rigid

$$$$
6fnk.A
     RDKit          3D

 27 29  0  0  0  0  0  0  0  0999 V2000
    2.3292   15.4532   40.4991 C   0  0  0  0  0  0  0  0  0  0  0  0
    2.5503   14.1379   40.1419 C   0  0  0  0  0  0  0  0  0  0  0  0
    2.5790   13.2076   41.1863 C   0  0  0  0  0  0  0  0  0  0  0  0
    2.4034   13.5712   42.4482 N   0  0  0  0  0  0  0  0  0  0  0  0
    2.1918   14.8483   42.7647 C   0  0  0  0  0  0  0  0  0  0  0  0
    2.1450   15.8396   41.8155 C   0  0  0  0  0  0  0  0  0  0  0  0
    1.9158   17.2459   42.1251 C   0  0  0  0  0  0  0  0  0  0  0  0
    1.8794   18.1806   41.1527 N   0  0  0  0  0  0  0  0  0  0  0  0
    1.7362   17.6250   43.4063 N   0  0  0  0  0  0  0  0  0  0  0  0
    1.5191   18.9319   43.7345 C   0  0  0  0  0  0  0  0  0  0  0  0
    1.3131   19.5806   44.8962 N   0  0  0  0  0  0  0  0  0  0  0  0
    1.2681   18.9709   46.2293 C   0  0  0  0  0  0  0  0  0  0  0  0
    1.1576   20.8672   44.6282 N   0  0  0  0  0  0  0  0  0  0  0  0
    1.2538   21.0985   43.3188 C   0  0  0  0  0  0  0  0  0  0  0  0
    1.4850   19.8746   42.7272 C   0  0  0  0  0  0  0  0  0  0  0  0
    1.6692   19.4868   41.4122 C   0  0  0  0  0  0  0  0  0  0  0  0
    1.6409   20.4330   40.3399 N   0  0  0  0  0  0  0  0  0  0  0  0
    2.3001   16.2053   39.7140 H   0  0  0  0  0  0  0  0  0  0  0  0
    2.6939   13.8411   39.1083 H   0  0  0  0  0  0  0  0  0  0  0  0
    2.7552   12.1761   40.8780 H   0  0  0  0  0  0  0  0  0  0  0  0
    2.0549   15.0959   43.8001 H   0  0  0  0  0  0  0  0  0  0  0  0
    1.5493   19.7657   46.9482 H   0  0  0  0  0  0  0  0  0  0  0  0
    0.2169   18.7050   46.4999 H   0  0  0  0  0  0  0  0  0  0  0  0
    1.9096   18.0865   46.2691 H   0  0  0  0  0  0  0  0  0  0  0  0
    1.1783   22.0230   42.7575 H   0  0  0  0  0  0  0  0  0  0  0  0
    2.4248   20.4156   39.6243 H   0  0  0  0  0  0  0  0  0  0  0  0
    0.8557   21.1216   40.2771 H   0  0  0  0  0  0  0  0  0  0  0  0
  1  2  2  0
  1  6  1  0
  2  3  1  0
  3  4  2  0
  4  5  1  0
  5  6  2  0
  6  7  1  0
  7  8  2  0
  7  9  1  0
  8 16  1  0
  9 10  2  0
 10 11  1  0
 10 15  1  0
 11 12  1  0
 11 13  1  0
 13 14  2  0
 14 15  1  0
 15 16  2  0
 16 17  1  0
  1 18  1  0
  2 19  1  0
  3 20  1  0
  5 21  1  0
 12 22  1  0
 12 23  1  0
 12 24  1  0
 14 25  1  0
 17 26  1  0
 17 27  1  0
M  END
>  <mol_id>  (16) 
2026-09-17-6fnk-s0-n100-0016

>  <rmsd_to_ref>  (16) 
1.142857142857452

>  <pose_kind>  (16) 
conformer

$$$$
6fnk.A
     RDKit          3D

 27 29  0  0  0  0  0  0  0  0999 V2000
    1.7284   16.1526   39.7396 C   0  0  0  0  0  0  0  0  0  0  0  0
    2.0376   15.0080   39.0046 C   0  0  0  0  0  0  0  0  0  0  0  0
    2.3003   13.8139   39.6600 C   0  0  0  0  0  0  0  0  0  0  0  0
    2.2513   13.7583   41.0556 N   0  0  0  0  0  0  0  0  0  0  0  0
    1.9416   14.9117   41.7923 C   0  0  0  0  0  0  0  0  0  0  0  0
    1.6793   16.1123   41.1351 C   0  0  0  0  0  0  0  0  0  0  0  0
    1.3731   17.2608   41.8721 C   0  0  0  0  0  0  0  0  0  0  0  0
    1.2903   18.4599   41.2794 N   0  0  0  0  0  0  0  0  0  0  0  0
    1.1522   17.1680   43.1873 N   0  0  0  0  0  0  0  0  0  0  0  0
    0.8639   18.2511   43.9307 C   0  0  0  0  0  0  0  0  0  0  0  0
    0.6240   18.4045   45.2419 N   0  0  0  0  0  0  0  0  0  0  0  0
    0.6143   17.3367   46.2462 C   0  0  0  0  0  0  0  0  0  0  0  0
    0.3968   19.5863   45.5048 N   0  0  0  0  0  0  0  0  0  0  0  0
    0.4466   20.2717   44.3507 C   0  0  0  0  0  0  0  0  0  0  0  0
    0.7676   19.4424   43.3486 C   0  0  0  0  0  0  0  0  0  0  0  0
    0.9817   19.5485   42.0084 C   0  0  0  0  0  0  0  0  0  0  0  0
    0.8953   20.7476   41.3830 N   0  0  0  0  0  0  0  0  0  0  0  0
    1.5211   17.0969   39.2148 H   0  0  0  0  0  0  0  0  0  0  0  0
    2.0729   15.0522   37.9061 H   0  0  0  0  0  0  0  0  0  0  0  0
    2.5471   12.9114   39.0816 H   0  0  0  0  0  0  0  0  0  0  0  0
    1.9057   14.8681   42.8908 H   0  0  0  0  0  0  0  0  0  0  0  0
    1.2693   17.6161   47.0847 H   0  0  0  0  0  0  0  0  0  0  0  0
   -0.4114   17.1898   46.6154 H   0  0  0  0  0  0  0  0  0  0  0  0
    0.9779   16.4031   45.7922 H   0  0  0  0  0  0  0  0  0  0  0  0
    0.2534   21.3494   44.2445 H   0  0  0  0  0  0  0  0  0  0  0  0
    0.6604   21.5935   41.9216 H   0  0  0  0  0  0  0  0  0  0  0  0
    1.0644   20.8130   40.3691 H   0  0  0  0  0  0  0  0  0  0  0  0
  1  2  2  0
  1  6  1  0
  2  3  1  0
  3  4  2  0
  4  5  1  0
  5  6  2  0
  6  7  1  0
  7  8  2  0
  7  9  1  0
  8 16  1  0
  9 10  2  0
 10 11  1  0
 10 15  1  0
 11 12  1  0
 11 13  1  0
 13 14  2  0
 14 15  1  0
 15 16  2  0
 16 17  1  0
  1 18  1  0
  2 19  1  0
  3 20  1  0
  5 21  1  0
 12 22  1  0
 12 23  1  0
 12 24  1  0
 14 25  1  0
 17 26  1  0
 17 27  1  0
M  END
>  <mol_id>  (17) 
2026-09-17-6fnk-s0-n100-0017

>  <rmsd_to_ref>  (17) 
1.1887755102068445

>  <pose_kind>  (17) 
rigid

$$$$
6fnk.A
     RDKit          3D

 27 29  0  0  0  0  0  0  0  0999 V2000
    2.7947   15.9484   40.1504 C   0  0  0  0  0  0  0  0  0  0  0  0
    2.9168   14.8546   39.3165 C   0  0  0  0  0  0  0  0  0  0  0  0
    2.1330   13.7406   39.6353 C   0  0  0  0  0  0  0  0  0  0  0  0
    1.3189   13.7376   40.6807 N   0  0  0  0  0  0  0  0  0  0  0  0
    1.2208   14.8075   41.4691 C   0  0  0  0  0  0  0  0  0  0  0  0
    1.9462   15.9517   41.2440 C   0  0  0  0  0  0  0  0  0  0  0  0
    1.8642   17.1400   42.0850 C   0  0  0  0  0  0  0  0  0  0  0  0
    2.6001   18.2391   41.8186 N   0  0  0  0  0  0  0  0  0  0  0  0
    1.0386   17.1459   43.1507 N   0  0  0  0  0  0  0  0  0  0  0  0
    0.9352   18.2397   43.9606 C   0  0  0  0  0  0  0  0  0  0  0  0
    0.2139   18.5204   45.0622 N   0  0  0  0  0  0  0  0  0  0  0  0
   -0.7349   17.6201   45.7256 C   0  0  0  0  0  0  0  0  0  0  0  0
    0.5087   19.7523   45.4455 N   0  0  0  0  0  0  0  0  0  0  0  0
    1.4078   20.3048   44.6307 C   0  0  0  0  0  0  0  0  0  0  0  0
    1.6953   19.3552   43.6732 C   0  0  0  0  0  0  0  0  0  0  0  0
    2.5428   19.3503   42.5800 C   0  0  0  0  0  0  0  0  0  0  0  0
    3.3467   20.4860   42.2486 N   0  0  0  0  0  0  0  0  0  0  0  0
    3.3887   16.8334   39.9341 H   0  0  0  0  0  0  0  0  0  0  0  0
    3.5836   14.8579   38.4607 H   0  0  0  0  0  0  0  0  0  0  0  0
    2.2476   12.8902   38.9616 H   0  0  0  0  0  0  0  0  0  0  0  0
    0.5483   14.7593   42.3043 H   0  0  0  0  0  0  0  0  0  0  0  0
   -0.7844   17.9405   46.7850 H   0  0  0  0  0  0  0  0  0  0  0  0
   -1.7678   17.7857   45.3323 H   0  0  0  0  0  0  0  0  0  0  0  0
   -0.4352   16.5776   45.5886 H   0  0  0  0  0  0  0  0  0  0  0  0
    1.8670   21.2869   44.6479 H   0  0  0  0  0  0  0  0  0  0  0  0
    4.3792   20.3390   42.0508 H   0  0  0  0  0  0  0  0  0  0  0  0
    2.9096   21.4356   42.2065 H   0  0  0  0  0  0  0  0  0  0  0  0
  1  2  2  0
  1  6  1  0
  2  3  1  0
  3  4  2  0
  4  5  1  0
  5  6  2  0
  6  7  1  0
  7  8  2  0
  7  9  1  0
  8 16  1  0
  9 10  2  0
 10 11  1  0
 10 15  1  0
 11 12  1  0
 11 13  1  0
 13 14  2  0
 14 15  1  0
 15 16  2  0
 16 17  1  0
  1 18  1  0
  2 19  1  0
  3 20  1  0
  5 21  1  0
 12 22  1  0
 12 23  1  0
 12 24  1  0
 14 25  1  0
 17 26  1  0
 17 27  1  0
M  END
>  <mol_id>  (18) 
2026-09-17-6fnk-s0-n100-0018

>  <rmsd_to_ref>  (18) 
1.2346938775527505

>  <pose_kind>  (18) 
conformer

$$$$
6fnk.A
     RDKit          3D

 27 29  0  0  0  0  0  0  0  0999 V2000
    3.3746   16.6650   41.6109 C   0  0  0  0  0  0  0  0  0  0  0  0
    4.1642   15.5344   41.4003 C   0  0  0  0  0  0  0  0  0  0  0  0
    3.7293   14.2936   41.8425 C   0  0  0  0  0  0  0  0  0  0  0  0
    2.4989   14.1771   42.4951 N   0  0  0  0  0  0  0  0  0  0  0  0
    1.7076   15.3164   42.7069 C   0  0  0  0  0  0  0  0  0  0  0  0
    2.1443   16.5638   42.2648 C   0  0  0  0  0  0  0  0  0  0  0  0
    1.3545   17.6979   42.4794 C   0  0  0  0  0  0  0  0  0  0  0  0
    1.8259   18.9261   42.2238 N   0  0  0  0  0  0  0  0  0  0  0  0
    0.1070   17.5623   42.9403 N   0  0  0  0  0  0  0  0  0  0  0  0
   -0.6794   18.6295   43.1673 C   0  0  0  0  0  0  0  0  0  0  0  0
   -1.9328   18.7407   43.6330 N   0  0  0  0  0  0  0  0  0  0  0  0
   -2.8062   17.6316   44.0279 C   0  0  0  0  0  0  0  0  0  0  0  0
   -2.2731   19.9235   43.6809 N   0  0  0  0  0  0  0  0  0  0  0  0
   -1.2505   20.6556   43.2094 C   0  0  0  0  0  0  0  0  0  0  0  0
   -0.2239   19.8505   42.9047 C   0  0  0  0  0  0  0  0  0  0  0  0
    1.0418   20.0010   42.4266 C   0  0  0  0  0  0  0  0  0  0  0  0
    1.5396   21.2310   42.1516 N   0  0  0  0  0  0  0  0  0  0  0  0
    3.7245   17.6465   41.2584 H   0  0  0  0  0  0  0  0  0  0  0  0
    5.1310   15.6268   40.8839 H   0  0  0  0  0  0  0  0  0  0  0  0
    4.3524   13.4019   41.6796 H   0  0  0  0  0  0  0  0  0  0  0  0
    0.7405   15.2247   43.2230 H   0  0  0  0  0  0  0  0  0  0  0  0
   -3.2004   17.8170   45.0380 H   0  0  0  0  0  0  0  0  0  0  0  0
   -3.6420   17.5521   43.3171 H   0  0  0  0  0  0  0  0  0  0  0  0
   -2.2318   16.6935   44.0249 H   0  0  0  0  0  0  0  0  0  0  0  0
   -1.2551   21.7493   43.0915 H   0  0  0  0  0  0  0  0  0  0  0  0
    0.9569   22.0674   42.2994 H   0  0  0  0  0  0  0  0  0  0  0  0
    2.5008   21.3296   41.7946 H   0  0  0  0  0  0  0  0  0  0  0  0
  1  2  2  0
  1  6  1  0
  2  3  1  0
  3  4  2  0
  4  5  1  0
  5  6  2  0
  6  7  1  0
  7  8  2  0
  7  9  1  0
  8 16  1  0
  9 10  2  0
 10 11  1  0
 10 15  1  0
 11 12  1  0
 11 13  1  0
 13 14  2  0
 14 15  1  0
 15 16  2  0
 16 17  1  0
  1 18  1  0
  2 19  1  0
  3 20  1  0
  5 21  1  0
 12 22  1  0
 12 23  1  0
 12 24  1  0
 14 25  1  0
 17 26  1  0
 17 27  1  0
M  END
>  <mol_id>  (19) 
2026-09-17-6fnk-s0-n100-0019

>  <rmsd_to_ref>  (19) 
1.2806122448996489

>  <pose_kind>  (19) 
rigid

$$$$
6fnk.A
     RDKit          3D

 27 29  0  0  0  0  0  0  0  0999 V2000
    2.0982   16.1258   40.5518 C   0  0  0  0  0  0  0  0  0  0  0  0
    2.0390   14.8995   39.9200 C   0  0  0  0  0  0  0  0  0  0  0  0
    1.5766   13.8266   40.6894 C   0  0  0  0  0  0  0  0  0  0  0  0
    1.2157   13.9813   41.9549 N   0  0  0  0  0  0  0  0  0  0  0  0
    1.2830   15.1768   42.5398 C   0  0  0  0  0  0  0  0  0  0  0  0
    1.7227   16.2941   41.8734 C   0  0  0  0  0  0  0  0  0  0  0  0
    1.8094   17.6167   42.4811 C   0  0  0  0  0  0  0  0  0  0  0  0
    2.2491   18.6825   41.7802 N   0  0  0  0  0  0  0  0  0  0  0  0
    1.4443   17.7834   43.7681 N   0  0  0  0  0  0  0  0  0  0  0  0
    1.5117   19.0061   44.3708 C   0  0  0  0  0  0  0  0  0  0  0  0
    1.2212   19.4548   45.6066 N   0  0  0  0  0  0  0  0  0  0  0  0
    0.7078   18.6489   46.7191 C   0  0  0  0  0  0  0  0  0  0  0  0
    1.4793   20.7522   45.6456 N   0  0  0  0  0  0  0  0  0  0  0  0
    1.9348   21.1852   44.4699 C   0  0  0  0  0  0  0  0  0  0  0  0
    1.9638   20.0853   43.6389 C   0  0  0  0  0  0  0  0  0  0  0  0
    2.3387   19.9154   42.3182 C   0  0  0  0  0  0  0  0  0  0  0  0
    2.8123   21.0082   41.5262 N   0  0  0  0  0  0  0  0  0  0  0  0
    2.4528   16.9838   39.9852 H   0  0  0  0  0  0  0  0  0  0  0  0
    2.3348   14.7738   38.8837 H   0  0  0  0  0  0  0  0  0  0  0  0
    1.5393   12.8694   40.1675 H   0  0  0  0  0  0  0  0  0  0  0  0
    0.9800   15.2542   43.5667 H   0  0  0  0  0  0  0  0  0  0  0  0
    1.0147   19.1658   47.6497 H   0  0  0  0  0  0  0  0  0  0  0  0
   -0.4093   18.6770   46.7363 H   0  0  0  0  0  0  0  0  0  0  0  0
    1.0641   17.6181   46.6433 H   0  0  0  0  0  0  0  0  0  0  0  0
    2.2398   22.1760   44.1522 H   0  0  0  0  0  0  0  0  0  0  0  0
    3.7074   20.8835   40.9694 H   0  0  0  0  0  0  0  0  0  0  0  0
    2.2748   21.9057   41.5074 H   0  0  0  0  0  0  0  0  0  0  0  0
  1  2  2  0
  1  6  1  0
  2  3  1  0
  3  4  2  0
  4  5  1  0
  5  6  2  0
  6  7  1  0
  7  8  2  0
  7  9  1  0
  8 16  1  0
  9 10  2  0
 10 11  1  0
 10 15  1  0
 11 12  1  0
 11 13  1  0
 13 14  2  0
 14 15  1  0
 15 16  2  0
 16 17  1  0
  1 18  1  0
  2 19  1  0
  3 20  1  0
  5 21  1  0
 12 22  1  0
 12 23  1  0
 12 24  1  0
 14 25  1  0
 17 26  1  0
 17 27  1  0
M  END
>  <mol_id>  (20) 
2026-09-17-6fnk-s0-n100-0020

>  <rmsd_to_ref>  (20) 
1.3265306122467984

>  <pose_kind>  (20) 
conformer

$$$$
6fnk.A
     RDKit          3D

 27 29  0  0  0  0  0  0  0  0999 V2000
    2.6711   16.7702   40.0363 C   0  0  0  0  0  0  0  0  0  0  0  0
    3.2819   15.8624   39.1710 C   0  0  0  0  0  0  0  0  0  0  0  0
    3.5132   14.5587   39.5852 C   0  0  0  0  0  0  0  0  0  0  0  0
    3.1305   14.1556   40.8675 N   0  0  0  0  0  0  0  0  0  0  0  0
    2.5178   15.0714   41.7362 C   0  0  0  0  0  0  0  0  0  0  0  0
    2.2866   16.3818   41.3219 C   0  0  0  0  0  0  0  0  0  0  0  0
    1.6778   17.2931   42.1908 C   0  0  0  0  0  0  0  0  0  0  0  0
    1.6037   18.5957   41.8843 N   0  0  0  0  0  0  0  0  0  0  0  0
    1.1536   16.8648   43.3436 N   0  0  0  0  0  0  0  0  0  0  0  0
    0.5680   17.7121   44.2084 C   0  0  0  0  0  0  0  0  0  0  0  0
   -0.0020   17.5219   45.4080 N   0  0  0  0  0  0  0  0  0  0  0  0
   -0.1332   16.2391   46.1053 C   0  0  0  0  0  0  0  0  0  0  0  0
   -0.4225   18.5873   45.8610 N   0  0  0  0  0  0  0  0  0  0  0  0
   -0.1716   19.5396   44.9476 C   0  0  0  0  0  0  0  0  0  0  0  0
    0.4794   19.0037   43.9065 C   0  0  0  0  0  0  0  0  0  0  0  0
    1.0015   19.4508   42.7314 C   0  0  0  0  0  0  0  0  0  0  0  0
    0.9320   20.7612   42.3933 N   0  0  0  0  0  0  0  0  0  0  0  0
    2.4904   17.8027   39.7028 H   0  0  0  0  0  0  0  0  0  0  0  0
    3.5800   16.1799   38.1609 H   0  0  0  0  0  0  0  0  0  0  0  0
    3.9975   13.8428   38.9048 H   0  0  0  0  0  0  0  0  0  0  0  0
    2.2192   14.7545   42.7463 H   0  0  0  0  0  0  0  0  0  0  0  0
    0.2593   16.3361   47.1283 H   0  0  0  0  0  0  0  0  0  0  0  0
   -1.1938   15.9503   46.1454 H   0  0  0  0  0  0  0  0  0  0  0  0
    0.4366   15.4684   45.5655 H   0  0  0  0  0  0  0  0  0  0  0  0
   -0.4569   20.5979   45.0403 H   0  0  0  0  0  0  0  0  0  0  0  0
    0.4756   21.4330   43.0268 H   0  0  0  0  0  0  0  0  0  0  0  0
    1.3356   21.0855   41.5029 H   0  0  0  0  0  0  0  0  0  0  0  0
  1  2  2  0
  1  6  1  0
  2  3  1  0
  3  4  2  0
  4  5  1  0
  5  6  2  0
  6  7  1  0
  7  8  2  0
  7  9  1  0
  8 16  1  0
  9 10  2  0
 10 11  1  0
 10 15  1  0
 11 12  1  0
 11 13  1  0
 13 14  2  0
 14 15  1  0
 15 16  2  0
 16 17  1  0
  1 18  1  0
  2 19  1  0
  3 20  1  0
  5 21  1  0
 12 22  1  0
 12 23  1  0
 12 24  1  0
 14 25  1  0
 17 26  1  0
 17 27  1  0
M  END
>  <mol_id>  (21) 
2026-09-17-6fnk-s0-n100-0021

>  <rmsd_to_ref>  (21) 
1.3724489795919124

>  <pose_kind>  (21) 
rigid

$$$$
6fnk.A
     RDKit          3D

 27 29  0  0  0  0  0  0  0  0999 V2000
    2.2050   14.8723   41.7003 C   0  0  0  0  0  0  0  0  0  0  0  0
    2.4889   13.5232   41.7774 C   0  0  0  0  0  0  0  0  0  0  0  0
    2.0858   12.8700   42.9470 C   0  0  0  0  0  0  0  0  0  0  0  0
    1.4657   13.5129   43.9256 N   0  0  0  0  0  0  0  0  0  0  0  0
    1.2043   14.8157   43.8246 C   0  0  0  0  0  0  0  0  0  0  0  0
    1.5576   15.5497   42.7191 C   0  0  0  0  0  0  0  0  0  0  0  0
    1.2877   16.9753   42.5745 C   0  0  0  0  0  0  0  0  0  0  0  0
    1.6569   17.6494   41.4656 N   0  0  0  0  0  0  0  0  0  0  0  0
    0.6573   17.6375   43.5652 N   0  0  0  0  0  0  0  0  0  0  0  0
    0.3876   18.9718   43.4656 C   0  0  0  0  0  0  0  0  0  0  0  0
   -0.2112   19.8658   44.2748 N   0  0  0  0  0  0  0  0  0  0  0  0
   -0.7775   19.5883   45.5989 C   0  0  0  0  0  0  0  0  0  0  0  0
   -0.2015   21.0422   43.6687 N   0  0  0  0  0  0  0  0  0  0  0  0
    0.3876   20.9609   42.4754 C   0  0  0  0  0  0  0  0  0  0  0  0
    0.7724   19.6455   42.3243 C   0  0  0  0  0  0  0  0  0  0  0  0
    1.4194   18.9671   41.3071 C   0  0  0  0  0  0  0  0  0  0  0  0
    1.8341   19.6290   40.1089 N   0  0  0  0  0  0  0  0  0  0  0  0
    2.5034   15.4140   40.8057 H   0  0  0  0  0  0  0  0  0  0  0  0
    2.9968   12.9976   40.9756 H   0  0  0  0  0  0  0  0  0  0  0  0
    2.3216   11.8055   42.9832 H   0  0  0  0  0  0  0  0  0  0  0  0
    0.6999   15.2943   44.6425 H   0  0  0  0  0  0  0  0  0  0  0  0
   -0.7532   20.5445   46.1580 H   0  0  0  0  0  0  0  0  0  0  0  0
   -1.8636   19.3394   45.5128 H   0  0  0  0  0  0  0  0  0  0  0  0
   -0.2350   18.7733   46.0856 H   0  0  0  0  0  0  0  0  0  0  0  0
    0.5662   21.7207   41.7228 H   0  0  0  0  0  0  0  0  0  0  0  0
    2.8274   19.4835   39.7642 H   0  0  0  0  0  0  0  0  0  0  0  0
    1.1588   20.2410   39.5948 H   0  0  0  0  0  0  0  0  0  0  0  0
  1  2  2  0
  1  6  1  0
  2  3  1  0
  3  4  2  0
  4  5  1  0
  5  6  2  0
  6  7  1  0
  7  8  2  0
  7  9  1  0
  8 16  1  0
  9 10  2  0
 10 11  1  0
 10 15  1  0
 11 12  1  0
 11 13  1  0
 13 14  2  0
 14 15  1  0
 15 16  2  0
 16 17  1  0
  1 18  1  0
  2 19  1  0
  3 20  1  0
  5 21  1  0
 12 22  1  0
 12 23  1  0
 12 24  1  0
 14 25  1  0
 17 26  1  0
 17 27  1  0
M  END
>  <mol_id>  (22) 
2026-09-17-6fnk-s0-n100-0022

>  <rmsd_to_ref>  (22) 
1.4183673469388873

>  <pose_kind>  (22) 
conformer

$$$$
6fnk.A
     RDKit          3D

 27 29  0  0  0  0  0  0  0  0999 V2000
    1.7804   16.8732   40.3366 C   0  0  0  0  0  0  0  0  0  0  0  0
    1.9206   15.7225   39.5607 C   0  0  0  0  0  0  0  0  0  0  0  0
    2.1486   14.4983   40.1720 C   0  0  0  0  0  0  0  0  0  0  0  0
    2.2338   14.4187   41.5647 N   0  0  0  0  0  0  0  0  0  0  0  0
    2.0939   15.5782   42.3425 C   0  0  0  0  0  0  0  0  0  0  0  0
    1.8667   16.8089   41.7294 C   0  0  0  0  0  0  0  0  0  0  0  0
    1.7300   17.9632   42.5072 C   0  0  0  0  0  0  0  0  0  0  0  0
    1.6870   19.1768   41.9403 N   0  0  0  0  0  0  0  0  0  0  0  0
    1.6336   17.8620   43.8367 N   0  0  0  0  0  0  0  0  0  0  0  0
    1.5099   18.9496   44.6183 C   0  0  0  0  0  0  0  0  0  0  0  0
    1.4144   19.0953   45.9486 N   0  0  0  0  0  0  0  0  0  0  0  0
    1.4171   18.0117   46.9360 C   0  0  0  0  0  0  0  0  0  0  0  0
    1.3118   20.2859   46.2471 N   0  0  0  0  0  0  0  0  0  0  0  0
    1.3028   20.9882   45.1022 C   0  0  0  0  0  0  0  0  0  0  0  0
    1.4540   20.1562   44.0631 C   0  0  0  0  0  0  0  0  0  0  0  0
    1.5422   20.2717   42.7095 C   0  0  0  0  0  0  0  0  0  0  0  0
    1.4924   21.4862   42.1104 N   0  0  0  0  0  0  0  0  0  0  0  0
    1.6000   17.8414   39.8467 H   0  0  0  0  0  0  0  0  0  0  0  0
    1.8505   15.7858   38.4647 H   0  0  0  0  0  0  0  0  0  0  0  0
    2.2624   13.5907   39.5609 H   0  0  0  0  0  0  0  0  0  0  0  0
    2.1637   15.5155   43.4385 H   0  0  0  0  0  0  0  0  0  0  0  0
    2.1726   18.2208   47.7077 H   0  0  0  0  0  0  0  0  0  0  0  0
    0.4245   17.9401   47.4045 H   0  0  0  0  0  0  0  0  0  0  0  0
    1.6564   17.0613   46.4366 H   0  0  0  0  0  0  0  0  0  0  0  0
    1.1886   22.0798   45.0289 H   0  0  0  0  0  0  0  0  0  0  0  0
    1.3820   22.3372   42.6800 H   0  0  0  0  0  0  0  0  0  0  0  0
    1.5650   21.5582   41.0855 H   0  0  0  0  0  0  0  0  0  0  0  0
  1  2  2  0
  1  6  1  0
  2  3  1  0
  3  4  2  0
  4  5  1  0
  5  6  2  0
  6  7  1  0
  7  8  2  0
  7  9  1  0
  8 16  1  0
  9 10  2  0
 10 11  1  0
 10 15  1  0
 11 12  1  0
 11 13  1  0
 13 14  2  0
 14 15  1  0
 15 16  2  0
 16 17  1  0
  1 18  1  0
  2 19  1  0
  3 20  1  0
  5 21  1  0
 12 22  1  0
 12 23  1  0
 12 24  1  0
 14 25  1  0
 17 26  1  0
 17 27  1  0
M  END
>  <mol_id>  (23) 
2026-09-17-6fnk-s0-n100-0023

>  <rmsd_to_ref>  (23) 
1.464285714285791

>  <pose_kind>  (23) 
rigid

$$$$
6fnk.A
     RDKit          3D

 27 29  0  0  0  0  0  0  0  0999 V2000
    3.0920   15.6393   41.9335 C   0  0  0  0  0  0  0  0  0  0  0  0
    3.6678   14.3896   42.0496 C   0  0  0  0  0  0  0  0  0  0  0  0
    3.7371   13.8558   43.3408 C   0  0  0  0  0  0  0  0  0  0  0  0
    3.2749   14.5151   44.3930 N   0  0  0  0  0  0  0  0  0  0  0  0
    2.7238   15.7202   44.2520 C   0  0  0  0  0  0  0  0  0  0  0  0
    2.6073   16.3332   43.0287 C   0  0  0  0  0  0  0  0  0  0  0  0
    2.0105   17.6498   42.8371 C   0  0  0  0  0  0  0  0  0  0  0  0
    1.9208   18.2069   41.6116 N   0  0  0  0  0  0  0  0  0  0  0  0
    1.5376   18.3278   43.9021 N   0  0  0  0  0  0  0  0  0  0  0  0
    0.9725   19.5623   43.7618 C   0  0  0  0  0  0  0  0  0  0  0  0
    0.4318   20.4445   44.6232 N   0  0  0  0  0  0  0  0  0  0  0  0
    0.3082   20.2696   46.0741 C   0  0  0  0  0  0  0  0  0  0  0  0
    0.0294   21.5002   43.9341 N   0  0  0  0  0  0  0  0  0  0  0  0
    0.2857   21.3496   42.6345 C   0  0  0  0  0  0  0  0  0  0  0  0
    0.8890   20.1170   42.5009 C   0  0  0  0  0  0  0  0  0  0  0  0
    1.3739   19.4222   41.4074 C   0  0  0  0  0  0  0  0  0  0  0  0
    1.3060   19.9624   40.0848 N   0  0  0  0  0  0  0  0  0  0  0  0
    3.0206   16.0868   40.9448 H   0  0  0  0  0  0  0  0  0  0  0  0
    4.0461   13.8505   41.1874 H   0  0  0  0  0  0  0  0  0  0  0  0
    4.1960   12.8682   43.4056 H   0  0  0  0  0  0  0  0  0  0  0  0
    2.3631   16.2167   45.1327 H   0  0  0  0  0  0  0  0  0  0  0  0
    0.2742   21.2869   46.5116 H   0  0  0  0  0  0  0  0  0  0  0  0
   -0.6829   19.8201   46.3284 H   0  0  0  0  0  0  0  0  0  0  0  0
    1.1212   19.6467   46.4566 H   0  0  0  0  0  0  0  0  0  0  0  0
    0.0926   22.0088   41.7956 H   0  0  0  0  0  0  0  0  0  0  0  0
    2.1803   19.9478   39.4830 H   0  0  0  0  0  0  0  0  0  0  0  0
    0.4044   20.3601   39.7332 H   0  0  0  0  0  0  0  0  0  0  0  0
  1  2  2  0
  1  6  1  0
  2  3  1  0
  3  4  2  0
  4  5  1  0
  5  6  2  0
  6  7  1  0
  7  8  2  0
  7  9  1  0
  8 16  1  0
  9 10  2  0
 10 11  1  0
 10 15  1  0
 11 12  1  0
 11 13  1  0
 13 14  2  0
 14 15  1  0
 15 16  2  0
 16 17  1  0
  1 18  1  0
  2 19  1  0
  3 20  1  0
  5 21  1  0
 12 22  1  0
 12 23  1  0
 12 24  1  0
 14 25  1  0
 17 26  1  0
 17 27  1  0
M  END
>  <mol_id>  (24) 
2026-09-17-6fnk-s0-n100-0024

>  <rmsd_to_ref>  (24) 
1.5102040816381597

>  <pose_kind>  (24) 
conformer

$$$$
6fnk.A
     RDKit          3D

 27 29  0  0  0  0  0  0  0  0999 V2000
    1.9478   15.3221   41.1375 C   0  0  0  0  0  0  0  0  0  0  0  0
    1.7154   14.0444   40.6281 C   0  0  0  0  0  0  0  0  0  0  0  0
    0.8340   13.1905   41.2750 C   0  0  0  0  0  0  0  0  0  0  0  0
    0.1770   13.6128   42.4340 N   0  0  0  0  0  0  0  0  0  0  0  0
    0.4140   14.8980   42.9449 C   0  0  0  0  0  0  0  0  0  0  0  0
    1.3007   15.7560   42.2970 C   0  0  0  0  0  0  0  0  0  0  0  0
    1.5366   17.0356   42.8099 C   0  0  0  0  0  0  0  0  0  0  0  0
    2.5091   17.8110   42.3109 N   0  0  0  0  0  0  0  0  0  0  0  0
    0.7804   17.5018   43.8089 N   0  0  0  0  0  0  0  0  0  0  0  0
    0.9827   18.7234   44.3339 C   0  0  0  0  0  0  0  0  0  0  0  0
    0.3751   19.3867   45.3295 N   0  0  0  0  0  0  0  0  0  0  0  0
   -0.7453   18.8926   46.1353 C   0  0  0  0  0  0  0  0  0  0  0  0
    0.8831   20.4984   45.4818 N   0  0  0  0  0  0  0  0  0  0  0  0
    1.8453   20.6314   44.5541 C   0  0  0  0  0  0  0  0  0  0  0  0
    1.9371   19.5037   43.8366 C   0  0  0  0  0  0  0  0  0  0  0  0
    2.7082   19.0437   42.8132 C   0  0  0  0  0  0  0  0  0  0  0  0
    3.6922   19.8109   42.2846 N   0  0  0  0  0  0  0  0  0  0  0  0
    2.6479   15.9950   40.6207 H   0  0  0  0  0  0  0  0  0  0  0  0
    2.2308   13.7142   39.7142 H   0  0  0  0  0  0  0  0  0  0  0  0
    0.6523   12.1817   40.8759 H   0  0  0  0  0  0  0  0  0  0  0  0
   -0.1012   15.2289   43.8587 H   0  0  0  0  0  0  0  0  0  0  0  0
   -0.5029   18.9969   47.2032 H   0  0  0  0  0  0  0  0  0  0  0  0
   -1.6482   19.4774   45.9055 H   0  0  0  0  0  0  0  0  0  0  0  0
   -0.9256   17.8329   45.9020 H   0  0  0  0  0  0  0  0  0  0  0  0
    2.4636   21.5291   44.4062 H   0  0  0  0  0  0  0  0  0  0  0  0
    3.8618   20.7574   42.6538 H   0  0  0  0  0  0  0  0  0  0  0  0
    4.2705   19.4476   41.5135 H   0  0  0  0  0  0  0  0  0  0  0  0
  1  2  2  0
  1  6  1  0
  2  3  1  0
  3  4  2  0
  4  5  1  0
  5  6  2  0
  6  7  1  0
  7  8  2  0
  7  9  1  0
  8 16  1  0
  9 10  2  0
 10 11  1  0
 10 15  1  0
 11 12  1  0
 11 13  1  0
 13 14  2  0
 14 15  1  0
 15 16  2  0
 16 17  1  0
  1 18  1  0
  2 19  1  0
  3 20  1  0
  5 21  1  0
 12 22  1  0
 12 23  1  0
 12 24  1  0
 14 25  1  0
 17 26  1  0
 17 27  1  0
M  END
>  <mol_id>  (25) 
2026-09-17-6fnk-s0-n100-0025

>  <rmsd_to_ref>  (25) 
1.55612244898173

>  <pose_kind>  (25) 
rigid

$$$$
6fnk.A
     RDKit          3D

 27 29  0  0  0  0  0  0  0  0999 V2000
    3.1220   14.6416   42.1003 C   0  0  0  0  0  0  0  0  0  0  0  0
    3.3368   13.3035   41.8359 C   0  0  0  0  0  0  0  0  0  0  0  0
    2.2288   12.4595   41.9663 C   0  0  0  0  0  0  0  0  0  0  0  0
    1.0396   12.9212   42.3241 N   0  0  0  0  0  0  0  0  0  0  0  0
    0.8605   14.2179   42.5734 C   0  0  0  0  0  0  0  0  0  0  0  0
    1.8821   15.1303   42.4745 C   0  0  0  0  0  0  0  0  0  0  0  0
    1.7226   16.5552   42.7395 C   0  0  0  0  0  0  0  0  0  0  0  0
    2.7611   17.4093   42.6273 N   0  0  0  0  0  0  0  0  0  0  0  0
    0.5162   17.0338   43.1040 N   0  0  0  0  0  0  0  0  0  0  0  0
    0.3286   18.3612   43.3602 C   0  0  0  0  0  0  0  0  0  0  0  0
   -0.7346   19.0989   43.7318 N   0  0  0  0  0  0  0  0  0  0  0  0
   -2.0908   18.5969   43.9760 C   0  0  0  0  0  0  0  0  0  0  0  0
   -0.3450   20.3591   43.8393 N   0  0  0  0  0  0  0  0  0  0  0  0
    0.9502   20.4861   43.5500 C   0  0  0  0  0  0  0  0  0  0  0  0
    1.4019   19.2206   43.2405 C   0  0  0  0  0  0  0  0  0  0  0  0
    2.6403   18.7306   42.8665 C   0  0  0  0  0  0  0  0  0  0  0  0
    3.7769   19.5883   42.7314 N   0  0  0  0  0  0  0  0  0  0  0  0
    3.9602   15.3286   42.0093 H   0  0  0  0  0  0  0  0  0  0  0  0
    4.3110   12.9264   41.5430 H   0  0  0  0  0  0  0  0  0  0  0  0
    2.4247   11.4079   41.7521 H   0  0  0  0  0  0  0  0  0  0  0  0
   -0.1205   14.5462   42.8601 H   0  0  0  0  0  0  0  0  0  0  0  0
   -2.5675   19.3081   44.6792 H   0  0  0  0  0  0  0  0  0  0  0  0
   -2.7047   18.6669   43.0448 H   0  0  0  0  0  0  0  0  0  0  0  0
   -2.0594   17.5657   44.3378 H   0  0  0  0  0  0  0  0  0  0  0  0
    1.5883   21.3626   43.5370 H   0  0  0  0  0  0  0  0  0  0  0  0
    4.6874   19.3048   43.1977 H   0  0  0  0  0  0  0  0  0  0  0  0
    3.6951   20.4740   42.1803 H   0  0  0  0  0  0  0  0  0  0  0  0
  1  2  2  0
  1  6  1  0
  2  3  1  0
  3  4  2  0
  4  5  1  0
  5  6  2  0
  6  7  1  0
  7  8  2  0
  7  9  1  0
  8 16  1  0
  9 10  2  0
 10 11  1  0
 10 15  1  0
 11 12  1  0
 11 13  1  0
 13 14  2  0
 14 15  1  0
 15 16  2  0
 16 17  1  0
  1 18  1  0
  2 19  1  0
  3 20  1  0
  5 21  1  0
 12 22  1  0
 12 23  1  0
 12 24  1  0
 14 25  1  0
 17 26  1  0
 17 27  1  0
M  END
>  <mol_id>  (26) 
2026-09-17-6fnk-s0-n100-0026

>  <rmsd_to_ref>  (26) 
1.6020408163276607

>  <pose_kind>  (26) 
conformer

$$$$
6fnk.A
     RDKit          3D

 27 29  0  0  0  0  0  0  0  0999 V2000
    2.6104   15.1032   40.7198 C   0  0  0  0  0  0  0  0  0  0  0  0
    2.4058   13.7593   40.4070 C   0  0  0  0  0  0  0  0  0  0  0  0
    1.4181   13.0382   41.0620 C   0  0  0  0  0  0  0  0  0  0  0  0
    0.6268   13.6601   42.0316 N   0  0  0  0  0  0  0  0  0  0  0  0
    0.8359   15.0117   42.3452 C   0  0  0  0  0  0  0  0  0  0  0  0
    1.8291   15.7366   41.6893 C   0  0  0  0  0  0  0  0  0  0  0  0
    2.0368   17.0830   42.0056 C   0  0  0  0  0  0  0  0  0  0  0  0
    3.0924   17.7514   41.5208 N   0  0  0  0  0  0  0  0  0  0  0  0
    1.1699   17.7216   42.7980 N   0  0  0  0  0  0  0  0  0  0  0  0
    1.3408   19.0133   43.1314 C   0  0  0  0  0  0  0  0  0  0  0  0
    0.6282   19.8441   43.9075 N   0  0  0  0  0  0  0  0  0  0  0  0
   -0.6055   19.5072   44.6240 C   0  0  0  0  0  0  0  0  0  0  0  0
    1.1479   20.9604   43.9377 N   0  0  0  0  0  0  0  0  0  0  0  0
    2.2292   20.9222   43.1417 C   0  0  0  0  0  0  0  0  0  0  0  0
    2.3784   19.6870   42.6448 C   0  0  0  0  0  0  0  0  0  0  0  0
    3.2634   19.0501   41.8297 C   0  0  0  0  0  0  0  0  0  0  0  0
    4.3341   19.7052   41.3188 N   0  0  0  0  0  0  0  0  0  0  0  0
    3.3951   15.6702   40.1975 H   0  0  0  0  0  0  0  0  0  0  0  0
    3.0273   13.2716   39.6416 H   0  0  0  0  0  0  0  0  0  0  0  0
    1.2579   11.9775   40.8183 H   0  0  0  0  0  0  0  0  0  0  0  0
    0.2147   15.5001   43.1104 H   0  0  0  0  0  0  0  0  0  0  0  0
   -0.5045   19.7914   45.6818 H   0  0  0  0  0  0  0  0  0  0  0  0
   -1.4498   20.0524   44.1768 H   0  0  0  0  0  0  0  0  0  0  0  0
   -0.7881   18.4249   44.5509 H   0  0  0  0  0  0  0  0  0  0  0  0
    2.8911   21.7749   42.9302 H   0  0  0  0  0  0  0  0  0  0  0  0
    4.4843   20.6994   41.5423 H   0  0  0  0  0  0  0  0  0  0  0  0
    4.9977   19.2089   40.7071 H   0  0  0  0  0  0  0  0  0  0  0  0
  1  2  2  0
  1  6  1  0
  2  3  1  0
  3  4  2  0
  4  5  1  0
  5  6  2  0
  6  7  1  0
  7  8  2  0
  7  9  1  0
  8 16  1  0
  9 10  2  0
 10 11  1  0
 10 15  1  0
 11 12  1  0
 11 13  1  0
 13 14  2  0
 14 15  1  0
 15 16  2  0
 16 17  1  0
  1 18  1  0
  2 19  1  0
  3 20  1  0
  5 21  1  0
 12 22  1  0
 12 23  1  0
 12 24  1  0
 14 25  1  0
 17 26  1  0
 17 27  1  0
M  END
>  <mol_id>  (27) 
2026-09-17-6fnk-s0-n100-0027

>  <rmsd_to_ref>  (27) 
1.64795918367673

>  <pose_kind>  (27) 
rigid

$$$$
6fnk.A
     RDKit          3D

 27 29  0  0  0  0  0  0  0  0999 V2000
    1.1985   15.3259   40.9813 C   0  0  0  0  0  0  0  0  0  0  0  0
    1.2630   14.0667   40.4183 C   0  0  0  0  0  0  0  0  0  0  0  0
    1.5975   13.0176   41.2811 C   0  0  0  0  0  0  0  0  0  0  0  0
    1.8388   13.2235   42.5676 N   0  0  0  0  0  0  0  0  0  0  0  0
    1.7695   14.4497   43.0846 C   0  0  0  0  0  0  0  0  0  0  0  0
    1.4495   15.5477   42.3243 C   0  0  0  0  0  0  0  0  0  0  0  0
    1.3645   16.9028   42.8559 C   0  0  0  0  0  0  0  0  0  0  0  0
    1.0455   17.9475   42.0639 N   0  0  0  0  0  0  0  0  0  0  0  0
    1.6084   17.1216   44.1636 N   0  0  0  0  0  0  0  0  0  0  0  0
    1.5384   18.3760   44.6970 C   0  0  0  0  0  0  0  0  0  0  0  0
    1.7261   18.8766   45.9327 N   0  0  0  0  0  0  0  0  0  0  0  0
    2.0898   18.1097   47.1287 C   0  0  0  0  0  0  0  0  0  0  0  0
    1.5255   20.1837   45.8831 N   0  0  0  0  0  0  0  0  0  0  0  0
    1.2085   20.5728   44.6480 C   0  0  0  0  0  0  0  0  0  0  0  0
    1.2107   19.4329   43.8722 C   0  0  0  0  0  0  0  0  0  0  0  0
    0.9603   19.2096   42.5302 C   0  0  0  0  0  0  0  0  0  0  0  0
    0.6178   20.2779   41.6429 N   0  0  0  0  0  0  0  0  0  0  0  0
    0.9413   16.1668   40.3413 H   0  0  0  0  0  0  0  0  0  0  0  0
    1.0653   13.8991   39.3648 H   0  0  0  0  0  0  0  0  0  0  0  0
    1.6418   12.0336   40.8123 H   0  0  0  0  0  0  0  0  0  0  0  0
    1.9730   14.5684   44.1319 H   0  0  0  0  0  0  0  0  0  0  0  0
    2.6031   18.8158   47.8109 H   0  0  0  0  0  0  0  0  0  0  0  0
    1.1717   17.7978   47.6845 H   0  0  0  0  0  0  0  0  0  0  0  0
    2.6890   17.2363   46.8576 H   0  0  0  0  0  0  0  0  0  0  0  0
    0.9822   21.5573   44.2540 H   0  0  0  0  0  0  0  0  0  0  0  0
    1.1347   20.3585   40.7193 H   0  0  0  0  0  0  0  0  0  0  0  0
   -0.1299   20.9575   41.9146 H   0  0  0  0  0  0  0  0  0  0  0  0
  1  2  2  0
  1  6  1  0
  2  3  1  0
  3  4  2  0
  4  5  1  0
  5  6  2  0
  6  7  1  0
  7  8  2  0
  7  9  1  0
  8 16  1  0
  9 10  2  0
 10 11  1  0
 10 15  1  0
 11 12  1  0
 11 13  1  0
 13 14  2  0
 14 15  1  0
 15 16  2  0
 16 17  1  0
  1 18  1  0
  2 19  1  0
  3 20  1  0
  5 21  1  0
 12 22  1  0
 12 23  1  0
 12 24  1  0
 14 25  1  0
 17 26  1  0
 17 27  1  0
M  END
>  <mol_id>  (28) 
2026-09-17-6fnk-s0-n100-0028

>  <rmsd_to_ref>  (28) 
1.6938775510225488

>  <pose_kind>  (28) 
conformer

$$$$
6fnk.A
     RDKit          3D

 27 29  0  0  0  0  0  0  0  0999 V2000
    2.2214   17.3215   40.1367 C   0  0  0  0  0  0  0  0  0  0  0  0
    2.4080   16.3714   39.1324 C   0  0  0  0  0  0  0  0  0  0  0  0
    2.5172   15.0281   39.4612 C   0  0  0  0  0  0  0  0  0  0  0  0
    2.4363   14.6280   40.7979 N   0  0  0  0  0  0  0  0  0  0  0  0
    2.2500   15.5860   41.8060 C   0  0  0  0  0  0  0  0  0  0  0  0
    2.1421   16.9360   41.4771 C   0  0  0  0  0  0  0  0  0  0  0  0
    1.9589   17.8889   42.4843 C   0  0  0  0  0  0  0  0  0  0  0  0
    2.0278   19.2000   42.2153 N   0  0  0  0  0  0  0  0  0  0  0  0
    1.7044   17.4936   43.7357 N   0  0  0  0  0  0  0  0  0  0  0  0
    1.5311   18.3799   44.7323 C   0  0  0  0  0  0  0  0  0  0  0  0
    1.2867   18.2243   46.0424 N   0  0  0  0  0  0  0  0  0  0  0  0
    1.1337   16.9463   46.7439 C   0  0  0  0  0  0  0  0  0  0  0  0
    1.1945   19.3196   46.5984 N   0  0  0  0  0  0  0  0  0  0  0  0
    1.3454   20.2635   45.6548 C   0  0  0  0  0  0  0  0  0  0  0  0
    1.5856   19.6824   44.4718 C   0  0  0  0  0  0  0  0  0  0  0  0
    1.8353   20.0976   43.1995 C   0  0  0  0  0  0  0  0  0  0  0  0
    1.9013   21.4173   42.8989 N   0  0  0  0  0  0  0  0  0  0  0  0
    2.1357   18.3853   39.8704 H   0  0  0  0  0  0  0  0  0  0  0  0
    2.4686   16.6872   38.0805 H   0  0  0  0  0  0  0  0  0  0  0  0
    2.6673   14.2784   38.6704 H   0  0  0  0  0  0  0  0  0  0  0  0
    2.1891   15.2709   42.8581 H   0  0  0  0  0  0  0  0  0  0  0  0
    1.8012   16.9256   47.6180 H   0  0  0  0  0  0  0  0  0  0  0  0
    0.0912   16.8328   47.0760 H   0  0  0  0  0  0  0  0  0  0  0  0
    1.3938   16.1215   46.0642 H   0  0  0  0  0  0  0  0  0  0  0  0
    1.2815   21.3480   45.8270 H   0  0  0  0  0  0  0  0  0  0  0  0
    1.7571   22.1214   43.6368 H   0  0  0  0  0  0  0  0  0  0  0  0
    2.0955   21.7163   41.9326 H   0  0  0  0  0  0  0  0  0  0  0  0
  1  2  2  0
  1  6  1  0
  2  3  1  0
  3  4  2  0
  4  5  1  0
  5  6  2  0
  6  7  1  0
  7  8  2  0
  7  9  1  0
  8 16  1  0
  9 10  2  0
 10 11  1  0
 10 15  1  0
 11 12  1  0
 11 13  1  0
 13 14  2  0
 14 15  1  0
 15 16  2  0
 16 17  1  0
  1 18  1  0
  2 19  1  0
  3 20  1  0
  5 21  1  0
 12 22  1  0
 12 23  1  0
 12 24  1  0
 14 25  1  0
 17 26  1  0
 17 27  1  0
M  END
>  <mol_id>  (29) 
2026-09-17-6fnk-s0-n100-0029

>  <rmsd_to_ref>  (29) 
1.739795918372865

>  <pose_kind>  (29) 
rigid

$$$$
6fnk.A
     RDKit          3D

 27 29  0  0  0  0  0  0  0  0999 V2000
    1.5276   14.9955   40.7714 C   0  0  0  0  0  0  0  0  0  0  0  0
    1.4137   13.6207   40.7115 C   0  0  0  0  0  0  0  0  0  0  0  0
    0.9205   12.9882   41.8577 C   0  0  0  0  0  0  0  0  0  0  0  0
    0.5818   13.6731   42.9402 N   0  0  0  0  0  0  0  0  0  0  0  0
    0.7020   14.9999   42.9705 C   0  0  0  0  0  0  0  0  0  0  0  0
    1.1755   15.7168   41.8992 C   0  0  0  0  0  0  0  0  0  0  0  0
    1.3203   17.1677   41.8971 C   0  0  0  0  0  0  0  0  0  0  0  0
    1.7914   17.8233   40.8160 N   0  0  0  0  0  0  0  0  0  0  0  0
    0.9782   17.8726   42.9941 N   0  0  0  0  0  0  0  0  0  0  0  0
    1.0998   19.2316   43.0292 C   0  0  0  0  0  0  0  0  0  0  0  0
    0.8424   20.1679   43.9619 N   0  0  0  0  0  0  0  0  0  0  0  0
    0.3128   19.9233   45.3075 C   0  0  0  0  0  0  0  0  0  0  0  0
    1.1502   21.3508   43.4548 N   0  0  0  0  0  0  0  0  0  0  0  0
    1.6069   21.2329   42.2078 C   0  0  0  0  0  0  0  0  0  0  0  0
    1.5835   19.8859   41.9145 C   0  0  0  0  0  0  0  0  0  0  0  0
    1.9348   19.1636   40.7882 C   0  0  0  0  0  0  0  0  0  0  0  0
    2.4397   19.8042   39.6133 N   0  0  0  0  0  0  0  0  0  0  0  0
    1.9075   15.5223   39.8991 H   0  0  0  0  0  0  0  0  0  0  0  0
    1.6913   13.0608   39.8246 H   0  0  0  0  0  0  0  0  0  0  0  0
    0.8401   11.9027   41.7848 H   0  0  0  0  0  0  0  0  0  0  0  0
    0.4154   15.5125   43.8691 H   0  0  0  0  0  0  0  0  0  0  0  0
    0.6510   20.7698   45.9372 H   0  0  0  0  0  0  0  0  0  0  0  0
   -0.8022   20.0007   45.3063 H   0  0  0  0  0  0  0  0  0  0  0  0
    0.6285   18.9422   45.6722 H   0  0  0  0  0  0  0  0  0  0  0  0
    1.9454   21.9865   41.5056 H   0  0  0  0  0  0  0  0  0  0  0  0
    3.3222   19.4221   39.1640 H   0  0  0  0  0  0  0  0  0  0  0  0
    1.9366   20.6319   39.2177 H   0  0  0  0  0  0  0  0  0  0  0  0
  1  2  2  0
  1  6  1  0
  2  3  1  0
  3  4  2  0
  4  5  1  0
  5  6  2  0
  6  7  1  0
  7  8  2  0
  7  9  1  0
  8 16  1  0
  9 10  2  0
 10 11  1  0
 10 15  1  0
 11 12  1  0
 11 13  1  0
 13 14  2  0
 14 15  1  0
 15 16  2  0
 16 17  1  0
  1 18  1  0
  2 19  1  0
  3 20  1  0
  5 21  1  0
 12 22  1  0
 12 23  1  0
 12 24  1  0
 14 25  1  0
 17 26  1  0
 17 27  1  0
M  END
>  <mol_id>  (30) 
2026-09-17-6fnk-s0-n100-0030

>  <rmsd_to_ref>  (30) 
1.7857142857175374

>  <pose_kind>  (30) 
conformer

$$$$
6fnk.A
     RDKit          3D

 27 29  0  0  0  0  0  0  0  0999 V2000
    3.0808   16.7109   40.9354 C   0  0  0  0  0  0  0  0  0  0  0  0
    3.2131   15.8195   39.8705 C   0  0  0  0  0  0  0  0  0  0  0  0
    2.3904   14.7052   39.7935 C   0  0  0  0  0  0  0  0  0  0  0  0
    1.4274   14.4790   40.7809 N   0  0  0  0  0  0  0  0  0  0  0  0
    1.2977   15.3766   41.8516 C   0  0  0  0  0  0  0  0  0  0  0  0
    2.1249   16.4954   41.9310 C   0  0  0  0  0  0  0  0  0  0  0  0
    1.9948   17.3870   43.0007 C   0  0  0  0  0  0  0  0  0  0  0  0
    2.8872   18.3678   43.1945 N   0  0  0  0  0  0  0  0  0  0  0  0
    0.9635   17.2693   43.8432 N   0  0  0  0  0  0  0  0  0  0  0  0
    0.8097   18.1022   44.8879 C   0  0  0  0  0  0  0  0  0  0  0  0
   -0.1161   18.1685   45.8569 N   0  0  0  0  0  0  0  0  0  0  0  0
   -1.2709   17.2781   46.0069 C   0  0  0  0  0  0  0  0  0  0  0  0
    0.1251   19.1028   46.6224 N   0  0  0  0  0  0  0  0  0  0  0  0
    1.2239   19.7248   46.1641 C   0  0  0  0  0  0  0  0  0  0  0  0
    1.6835   19.0853   45.0803 C   0  0  0  0  0  0  0  0  0  0  0  0
    2.7331   19.2210   44.2240 C   0  0  0  0  0  0  0  0  0  0  0  0
    3.6446   20.2095   44.3921 N   0  0  0  0  0  0  0  0  0  0  0  0
    3.7359   17.5927   40.9916 H   0  0  0  0  0  0  0  0  0  0  0  0
    3.9694   16.0000   39.0924 H   0  0  0  0  0  0  0  0  0  0  0  0
    2.4959   14.0000   38.9559 H   0  0  0  0  0  0  0  0  0  0  0  0
    0.5415   15.1968   42.6299 H   0  0  0  0  0  0  0  0  0  0  0  0
   -1.2927   16.8753   47.0303 H   0  0  0  0  0  0  0  0  0  0  0  0
   -2.1958   17.8416   45.8149 H   0  0  0  0  0  0  0  0  0  0  0  0
   -1.1906   16.4492   45.2882 H   0  0  0  0  0  0  0  0  0  0  0  0
    1.6771   20.6222   46.6105 H   0  0  0  0  0  0  0  0  0  0  0  0
    3.5460   20.8736   45.1733 H   0  0  0  0  0  0  0  0  0  0  0  0
    4.4361   20.2969   43.7388 H   0  0  0  0  0  0  0  0  0  0  0  0
  1  2  2  0
  1  6  1  0
  2  3  1  0
  3  4  2  0
  4  5  1  0
  5  6  2  0
  6  7  1  0
  7  8  2  0
  7  9  1  0
  8 16  1  0
  9 10  2  0
 10 11  1  0
 10 15  1  0
 11 12  1  0
 11 13  1  0
 13 14  2  0
 14 15  1  0
 15 16  2  0
 16 17  1  0
  1 18  1  0
  2 19  1  0
  3 20  1  0
  5 21  1  0
 12 22  1  0
 12 23  1  0
 12 24  1  0
 14 25  1  0
 17 26  1  0
 17 27  1  0
M  END
>  <mol_id>  (31) 
2026-09-17-6fnk-s0-n100-0031

>  <rmsd_to_ref>  (31) 
1.8316326530668439

>  <pose_kind>  (31) 
rigid

$$$$
6fnk.A
     RDKit          3D

 27 29  0  0  0  0  0  0  0  0999 V2000
    1.3444   16.0064   40.7244 C   0  0  0  0  0  0  0  0  0  0  0  0
    1.0438   14.7974   40.1291 C   0  0  0  0  0  0  0  0  0  0  0  0
   -0.0846   14.1293   40.6163 C   0  0  0  0  0  0  0  0  0  0  0  0
   -0.8229   14.6313   41.5953 N   0  0  0  0  0  0  0  0  0  0  0  0
   -0.5096   15.8008   42.1520 C   0  0  0  0  0  0  0  0  0  0  0  0
    0.5773   16.5363   41.7476 C   0  0  0  0  0  0  0  0  0  0  0  0
    0.9497   17.8186   42.3334 C   0  0  0  0  0  0  0  0  0  0  0  0
    2.0291   18.5009   41.8979 N   0  0  0  0  0  0  0  0  0  0  0  0
    0.2043   18.3369   43.3301 N   0  0  0  0  0  0  0  0  0  0  0  0
    0.5219   19.5343   43.9029 C   0  0  0  0  0  0  0  0  0  0  0  0
   -0.0257   20.2728   44.8865 N   0  0  0  0  0  0  0  0  0  0  0  0
   -1.2233   19.9284   45.6600 C   0  0  0  0  0  0  0  0  0  0  0  0
    0.7042   21.3664   45.0366 N   0  0  0  0  0  0  0  0  0  0  0  0
    1.7260   21.3811   44.1803 C   0  0  0  0  0  0  0  0  0  0  0  0
    1.6293   20.2187   43.4449 C   0  0  0  0  0  0  0  0  0  0  0  0
    2.3949   19.6878   42.4223 C   0  0  0  0  0  0  0  0  0  0  0  0
    3.5497   20.3659   41.9198 N   0  0  0  0  0  0  0  0  0  0  0  0
    2.2148   16.5551   40.3720 H   0  0  0  0  0  0  0  0  0  0  0  0
    1.6489   14.3871   39.3275 H   0  0  0  0  0  0  0  0  0  0  0  0
   -0.3004   13.1770   40.1297 H   0  0  0  0  0  0  0  0  0  0  0  0
   -1.1367   16.1680   42.9421 H   0  0  0  0  0  0  0  0  0  0  0  0
   -1.1316   20.4528   46.6316 H   0  0  0  0  0  0  0  0  0  0  0  0
   -2.1331   20.3712   45.1854 H   0  0  0  0  0  0  0  0  0  0  0  0
   -1.3258   18.8434   45.7468 H   0  0  0  0  0  0  0  0  0  0  0  0
    2.5109   22.1138   44.0300 H   0  0  0  0  0  0  0  0  0  0  0  0
    4.4540   19.8205   41.8120 H   0  0  0  0  0  0  0  0  0  0  0  0
    3.4868   21.3795   41.6683 H   0  0  0  0  0  0  0  0  0  0  0  0
  1  2  2  0
  1  6  1  0
  2  3  1  0
  3  4  2  0
  4  5  1  0
  5  6  2  0
  6  7  1  0
  7  8  2  0
  7  9  1  0
  8 16  1  0
  9 10  2  0
 10 11  1  0
 10 15  1  0
 11 12  1  0
 11 13  1  0
 13 14  2  0
 14 15  1  0
 15 16  2  0
 16 17  1  0
  1 18  1  0
  2 19  1  0
  3 20  1  0
  5 21  1  0
 12 22  1  0
 12 23  1  0
 12 24  1  0
 14 25  1  0
 17 26  1  0
 17 27  1  0
M  END
>  <mol_id>  (32) 
2026-09-17-6fnk-s0-n100-0032

>  <rmsd_to_ref>  (32) 
1.8775510204085604

>  <pose_kind>  (32) 
conformer

$$$$
6fnk.A
     RDKit          3D

 27 29  0  0  0  0  0  0  0  0999 V2000
    0.4358   15.3459   41.0573 C   0  0  0  0  0  0  0  0  0  0  0  0
    0.1331   14.0223   40.7369 C   0  0  0  0  0  0  0  0  0  0  0  0
    0.0083   13.0768   41.7443 C   0  0  0  0  0  0  0  0  0  0  0  0
    0.1822   13.4523   43.0793 N   0  0  0  0  0  0  0  0  0  0  0  0
    0.4880   14.7840   43.3984 C   0  0  0  0  0  0  0  0  0  0  0  0
    0.6156   15.7343   42.3870 C   0  0  0  0  0  0  0  0  0  0  0  0
    0.9228   17.0605   42.7080 C   0  0  0  0  0  0  0  0  0  0  0  0
    1.2226   17.9506   41.7521 N   0  0  0  0  0  0  0  0  0  0  0  0
    0.9131   17.4552   43.9852 N   0  0  0  0  0  0  0  0  0  0  0  0
    1.2115   18.7195   44.3335 C   0  0  0  0  0  0  0  0  0  0  0  0
    1.2818   19.3318   45.5253 N   0  0  0  0  0  0  0  0  0  0  0  0
    1.0217   18.7123   46.8282 C   0  0  0  0  0  0  0  0  0  0  0  0
    1.5919   20.5156   45.3859 N   0  0  0  0  0  0  0  0  0  0  0  0
    1.7105   20.7478   44.0683 C   0  0  0  0  0  0  0  0  0  0  0  0
    1.4979   19.6118   43.3906 C   0  0  0  0  0  0  0  0  0  0  0  0
    1.5025   19.2242   42.0856 C   0  0  0  0  0  0  0  0  0  0  0  0
    1.7934   20.1065   41.0990 N   0  0  0  0  0  0  0  0  0  0  0  0
    0.5338   16.0914   40.2545 H   0  0  0  0  0  0  0  0  0  0  0  0
   -0.0064   13.7286   39.6861 H   0  0  0  0  0  0  0  0  0  0  0  0
   -0.2274   12.0323   41.4926 H   0  0  0  0  0  0  0  0  0  0  0  0
    0.6275   15.0785   44.4490 H   0  0  0  0  0  0  0  0  0  0  0  0
    1.8673   18.9097   47.5034 H   0  0  0  0  0  0  0  0  0  0  0  0
    0.1022   19.1359   47.2585 H   0  0  0  0  0  0  0  0  0  0  0  0
    0.9003   17.6265   46.7003 H   0  0  0  0  0  0  0  0  0  0  0  0
    1.9463   21.7219   43.6149 H   0  0  0  0  0  0  0  0  0  0  0  0
    2.0105   21.0861   41.3317 H   0  0  0  0  0  0  0  0  0  0  0  0
    1.7973   19.7975   40.1164 H   0  0  0  0  0  0  0  0  0  0  0  0
  1  2  2  0
  1  6  1  0
  2  3  1  0
  3  4  2  0
  4  5  1  0
  5  6  2  0
  6  7  1  0
  7  8  2  0
  7  9  1  0
  8 16  1  0
  9 10  2  0
 10 11  1  0
 10 15  1  0
 11 12  1  0
 11 13  1  0
 13 14  2  0
 14 15  1  0
 15 16  2  0
 16 17  1  0
  1 18  1  0
  2 19  1  0
  3 20  1  0
  5 21  1  0
 12 22  1  0
 12 23  1  0
 12 24  1  0
 14 25  1  0
 17 26  1  0
 17 27  1  0
M  END
>  <mol_id>  (33) 
2026-09-17-6fnk-s0-n100-0033

>  <rmsd_to_ref>  (33) 
1.9234693877607454

>  <pose_kind>  (33) 
rigid

$$$$
6fnk.A
     RDKit          3D

 27 29  0  0  0  0  0  0  0  0999 V2000
    4.7032   16.1376   42.7351 C   0  0  0  0  0  0  0  0  0  0  0  0
    5.6055   15.1364   43.0353 C   0  0  0  0  0  0  0  0  0  0  0  0
    5.1166   14.0672   43.7934 C   0  0  0  0  0  0  0  0  0  0  0  0
    3.8564   14.0200   44.1998 N   0  0  0  0  0  0  0  0  0  0  0  0
    3.0068   15.0005   43.8956 C   0  0  0  0  0  0  0  0  0  0  0  0
    3.3855   16.0944   43.1567 C   0  0  0  0  0  0  0  0  0  0  0  0
    2.4836   17.1849   42.8054 C   0  0  0  0  0  0  0  0  0  0  0  0
    2.9080   18.2378   42.0762 N   0  0  0  0  0  0  0  0  0  0  0  0
    1.1997   17.1453   43.2148 N   0  0  0  0  0  0  0  0  0  0  0  0
    0.3264   18.1475   42.9053 C   0  0  0  0  0  0  0  0  0  0  0  0
   -0.9749   18.3669   43.1719 N   0  0  0  0  0  0  0  0  0  0  0  0
   -1.8590   17.4855   43.9417 C   0  0  0  0  0  0  0  0  0  0  0  0
   -1.3210   19.5181   42.6186 N   0  0  0  0  0  0  0  0  0  0  0  0
   -0.2872   20.0763   41.9884 C   0  0  0  0  0  0  0  0  0  0  0  0
    0.7776   19.2169   42.1586 C   0  0  0  0  0  0  0  0  0  0  0  0
    2.0947   19.2586   41.7380 C   0  0  0  0  0  0  0  0  0  0  0  0
    2.6007   20.3490   40.9628 N   0  0  0  0  0  0  0  0  0  0  0  0
    5.0471   16.9855   42.1472 H   0  0  0  0  0  0  0  0  0  0  0  0
    6.6373   15.1759   42.7020 H   0  0  0  0  0  0  0  0  0  0  0  0
    5.8487   13.2899   44.0169 H   0  0  0  0  0  0  0  0  0  0  0  0
    1.9956   14.9194   44.2465 H   0  0  0  0  0  0  0  0  0  0  0  0
   -2.6583   18.1289   44.3594 H   0  0  0  0  0  0  0  0  0  0  0  0
   -2.3931   16.7791   43.2599 H   0  0  0  0  0  0  0  0  0  0  0  0
   -1.2905   16.9344   44.6956 H   0  0  0  0  0  0  0  0  0  0  0  0
   -0.2156   21.0062   41.4356 H   0  0  0  0  0  0  0  0  0  0  0  0
    3.5106   20.8072   41.2612 H   0  0  0  0  0  0  0  0  0  0  0  0
    2.0719   20.6757   40.1213 H   0  0  0  0  0  0  0  0  0  0  0  0
  1  2  2  0
  1  6  1  0
  2  3  1  0
  3  4  2  0
  4  5  1  0
  5  6  2  0
  6  7  1  0
  7  8  2  0
  7  9  1  0
  8 16  1  0
  9 10  2  0
 10 11  1  0
 10 15  1  0
 11 12  1  0
 11 13  1  0
 13 14  2  0
 14 15  1  0
 15 16  2  0
 16 17  1  0
  1 18  1  0
  2 19  1  0
  3 20  1  0
  5 21  1  0
 12 22  1  0
 12 23  1  0
 12 24  1  0
 14 25  1  0
 17 26  1  0
 17 27  1  0
M  END
>  <mol_id>  (34) 
2026-09-17-6fnk-s0-n100-0034

>  <rmsd_to_ref>  (34) 
1.9693877551062735

>  <pose_kind>  (34) 
conformer

$$$$
6fnk.A
     RDKit          3D

 27 29  0  0  0  0  0  0  0  0999 V2000
    4.0183   17.1984   41.6473 C   0  0  0  0  0  0  0  0  0  0  0  0
    5.1030   16.3751   41.9499 C   0  0  0  0  0  0  0  0  0  0  0  0
    5.1948   15.7820   43.2006 C   0  0  0  0  0  0  0  0  0  0  0  0
    4.1984   16.0070   44.1546 N   0  0  0  0  0  0  0  0  0  0  0  0
    3.1094   16.8368   43.8477 C   0  0  0  0  0  0  0  0  0  0  0  0
    3.0171   17.4347   42.5923 C   0  0  0  0  0  0  0  0  0  0  0  0
    1.9315   18.2633   42.2902 C   0  0  0  0  0  0  0  0  0  0  0  0
    1.9075   18.9859   41.1618 N   0  0  0  0  0  0  0  0  0  0  0  0
    0.8955   18.3358   43.1319 N   0  0  0  0  0  0  0  0  0  0  0  0
   -0.1620   19.1277   42.8799 C   0  0  0  0  0  0  0  0  0  0  0  0
   -1.2871   19.3724   43.5687 N   0  0  0  0  0  0  0  0  0  0  0  0
   -1.6541   18.7783   44.8576 C   0  0  0  0  0  0  0  0  0  0  0  0
   -1.9994   20.1742   42.9630 N   0  0  0  0  0  0  0  0  0  0  0  0
   -1.3774   20.4742   41.8109 C   0  0  0  0  0  0  0  0  0  0  0  0
   -0.1994   19.8383   41.7570 C   0  0  0  0  0  0  0  0  0  0  0  0
    0.8456   19.7661   40.8876 C   0  0  0  0  0  0  0  0  0  0  0  0
    0.8423   20.4795   39.7354 N   0  0  0  0  0  0  0  0  0  0  0  0
    3.9507   17.6663   40.6541 H   0  0  0  0  0  0  0  0  0  0  0  0
    5.8851   16.1963   41.1974 H   0  0  0  0  0  0  0  0  0  0  0  0
    6.0512   15.1350   43.4414 H   0  0  0  0  0  0  0  0  0  0  0  0
    2.3268   17.0158   44.5998 H   0  0  0  0  0  0  0  0  0  0  0  0
   -1.9225   19.5761   45.5659 H   0  0  0  0  0  0  0  0  0  0  0  0
   -2.5136   18.1058   44.7199 H   0  0  0  0  0  0  0  0  0  0  0  0
   -0.8016   18.2074   45.2542 H   0  0  0  0  0  0  0  0  0  0  0  0
   -1.7745   21.1403   41.0308 H   0  0  0  0  0  0  0  0  0  0  0  0
    0.0399   21.0830   39.5057 H   0  0  0  0  0  0  0  0  0  0  0  0
    1.6422   20.4182   39.0894 H   0  0  0  0  0  0  0  0  0  0  0  0
  1  2  2  0
  1  6  1  0
  2  3  1  0
  3  4  2  0
  4  5  1  0
  5  6  2  0
  6  7  1  0
  7  8  2  0
  7  9  1  0
  8 16  1  0
  9 10  2  0
 10 11  1  0
 10 15  1  0
 11 12  1  0
 11 13  1  0
 13 14  2  0
 14 15  1  0
 15 16  2  0
 16 17  1  0
  1 18  1  0
  2 19  1  0
  3 20  1  0
  5 21  1  0
 12 22  1  0
 12 23  1  0
 12 24  1  0
 14 25  1  0
 17 26  1  0
 17 27  1  0
M  END
>  <mol_id>  (35) 
2026-09-17-6fnk-s0-n100-0035

>  <rmsd_to_ref>  (35) 
2.015306122451059

>  <pose_kind>  (35) 
rigid

$$$$
6fnk.A
     RDKit          3D

 27 29  0  0  0  0  0  0  0  0999 V2000
    3.6502   17.6016   40.2465 C   0  0  0  0  0  0  0  0  0  0  0  0
    4.6807   17.0622   39.5024 C   0  0  0  0  0  0  0  0  0  0  0  0
    4.8823   15.6836   39.6293 C   0  0  0  0  0  0  0  0  0  0  0  0
    4.1245   14.9386   40.4206 N   0  0  0  0  0  0  0  0  0  0  0  0
    3.1363   15.4857   41.1277 C   0  0  0  0  0  0  0  0  0  0  0  0
    2.8549   16.8288   41.0750 C   0  0  0  0  0  0  0  0  0  0  0  0
    1.7825   17.4611   41.8341 C   0  0  0  0  0  0  0  0  0  0  0  0
    1.5487   18.7869   41.7454 N   0  0  0  0  0  0  0  0  0  0  0  0
    1.0065   16.7108   42.6417 N   0  0  0  0  0  0  0  0  0  0  0  0
   -0.0066   17.2673   43.3676 C   0  0  0  0  0  0  0  0  0  0  0  0
   -0.9156   16.7758   44.2307 N   0  0  0  0  0  0  0  0  0  0  0  0
   -1.0472   15.3737   44.6404 C   0  0  0  0  0  0  0  0  0  0  0  0
   -1.6726   17.7780   44.6476 N   0  0  0  0  0  0  0  0  0  0  0  0
   -1.2959   18.9276   44.0875 C   0  0  0  0  0  0  0  0  0  0  0  0
   -0.2316   18.6250   43.2647 C   0  0  0  0  0  0  0  0  0  0  0  0
    0.5641   19.3959   42.4363 C   0  0  0  0  0  0  0  0  0  0  0  0
    0.3632   20.8057   42.3022 N   0  0  0  0  0  0  0  0  0  0  0  0
    3.4632   18.6705   40.1737 H   0  0  0  0  0  0  0  0  0  0  0  0
    5.3008   17.6730   38.8547 H   0  0  0  0  0  0  0  0  0  0  0  0
    5.7019   15.2823   39.0316 H   0  0  0  0  0  0  0  0  0  0  0  0
    2.5486   14.8430   41.7552 H   0  0  0  0  0  0  0  0  0  0  0  0
   -1.5243   15.3818   45.6402 H   0  0  0  0  0  0  0  0  0  0  0  0
   -1.7792   14.8437   43.9829 H   0  0  0  0  0  0  0  0  0  0  0  0
   -0.0757   14.8729   44.6140 H   0  0  0  0  0  0  0  0  0  0  0  0
   -1.6900   19.9312   44.2015 H   0  0  0  0  0  0  0  0  0  0  0  0
    1.2019   21.4503   42.3895 H   0  0  0  0  0  0  0  0  0  0  0  0
   -0.5982   21.1772   42.1219 H   0  0  0  0  0  0  0  0  0  0  0  0
  1  2  2  0
  1  6  1  0
  2  3  1  0
  3  4  2  0
  4  5  1  0
  5  6  2  0
  6  7  1  0
  7  8  2  0
  7  9  1  0
  8 16  1  0
  9 10  2  0
 10 11  1  0
 10 15  1  0
 11 12  1  0
 11 13  1  0
 13 14  2  0
 14 15  1  0
 15 16  2  0
 16 17  1  0
  1 18  1  0
  2 19  1  0
  3 20  1  0
  5 21  1  0
 12 22  1  0
 12 23  1  0
 12 24  1  0
 14 25  1  0
 17 26  1  0
 17 27  1  0
M  END
>  <mol_id>  (36) 
2026-09-17-6fnk-s0-n100-0036

>  <rmsd_to_ref>  (36) 
2.0612244898022376

>  <pose_kind>  (36) 
conformer

$$$$
6fnk.A
     RDKit          3D

 27 29  0  0  0  0  0  0  0  0999 V2000
    1.9327   17.8023   39.5855 C   0  0  0  0  0  0  0  0  0  0  0  0
    1.9388   17.0211   38.4298 C   0  0  0  0  0  0  0  0  0  0  0  0
    1.1784   15.8623   38.3729 C   0  0  0  0  0  0  0  0  0  0  0  0
    0.4042   15.4809   39.4722 N   0  0  0  0  0  0  0  0  0  0  0  0
    0.4013   16.2678   40.6339 C   0  0  0  0  0  0  0  0  0  0  0  0
    1.1663   17.4313   40.6929 C   0  0  0  0  0  0  0  0  0  0  0  0
    1.1632   18.2124   41.8530 C   0  0  0  0  0  0  0  0  0  0  0  0
    2.0189   19.2332   42.0004 N   0  0  0  0  0  0  0  0  0  0  0  0
    0.2920   17.9468   42.8315 N   0  0  0  0  0  0  0  0  0  0  0  0
    0.2647   18.6700   43.9651 C   0  0  0  0  0  0  0  0  0  0  0  0
   -0.4922   18.5835   45.0696 N   0  0  0  0  0  0  0  0  0  0  0  0
   -1.5551   17.6031   45.3104 C   0  0  0  0  0  0  0  0  0  0  0  0
   -0.1817   19.4607   45.8766 N   0  0  0  0  0  0  0  0  0  0  0  0
    0.7906   20.1979   45.3151 C   0  0  0  0  0  0  0  0  0  0  0  0
    1.1017   19.6920   44.1142 C   0  0  0  0  0  0  0  0  0  0  0  0
    1.9878   19.9780   43.1210 C   0  0  0  0  0  0  0  0  0  0  0  0
    2.8576   21.0102   43.2409 N   0  0  0  0  0  0  0  0  0  0  0  0
    2.5377   18.7201   39.6252 H   0  0  0  0  0  0  0  0  0  0  0  0
    2.5462   17.3239   37.5640 H   0  0  0  0  0  0  0  0  0  0  0  0
    1.1848   15.2439   37.4632 H   0  0  0  0  0  0  0  0  0  0  0  0
   -0.2060   15.9659   41.4999 H   0  0  0  0  0  0  0  0  0  0  0  0
   -1.3865   17.1101   46.2792 H   0  0  0  0  0  0  0  0  0  0  0  0
   -2.5291   18.1140   45.3235 H   0  0  0  0  0  0  0  0  0  0  0  0
   -1.5471   16.8494   44.5092 H   0  0  0  0  0  0  0  0  0  0  0  0
    1.2597   21.0819   45.7715 H   0  0  0  0  0  0  0  0  0  0  0  0
    2.8510   21.5932   44.0900 H   0  0  0  0  0  0  0  0  0  0  0  0
    3.5253   21.2118   42.4829 H   0  0  0  0  0  0  0  0  0  0  0  0
  1  2  2  0
  1  6  1  0
  2  3  1  0
  3  4  2  0
  4  5  1  0
  5  6  2  0
  6  7  1  0
  7  8  2  0
  7  9  1  0
  8 16  1  0
  9 10  2  0
 10 11  1  0
 10 15  1  0
 11 12  1  0
 11 13  1  0
 13 14  2  0
 14 15  1  0
 15 16  2  0
 16 17  1  0
  1 18  1  0
  2 19  1  0
  3 20  1  0
  5 21  1  0
 12 22  1  0
 12 23  1  0
 12 24  1  0
 14 25  1  0
 17 26  1  0
 17 27  1  0
M  END
>  <mol_id>  (37) 
2026-09-17-6fnk-s0-n100-0037

>  <rmsd_to_ref>  (37) 
2.1071428571486197

>  <pose_kind>  (37) 
rigid

$$$$
6fnk.A
     RDKit          3D

 27 29  0  0  0  0  0  0  0  0999 V2000
    2.4509   17.0488   39.5196 C   0  0  0  0  0  0  0  0  0  0  0  0
    2.7086   16.3838   38.3373 C   0  0  0  0  0  0  0  0  0  0  0  0
    1.9095   15.2681   38.0658 C   0  0  0  0  0  0  0  0  0  0  0  0
    0.9582   14.8732   38.8992 N   0  0  0  0  0  0  0  0  0  0  0  0
    0.7310   15.5339   40.0339 C   0  0  0  0  0  0  0  0  0  0  0  0
    1.4586   16.6414   40.3944 C   0  0  0  0  0  0  0  0  0  0  0  0
    1.2378   17.3883   41.6271 C   0  0  0  0  0  0  0  0  0  0  0  0
    1.9824   18.4709   41.9334 N   0  0  0  0  0  0  0  0  0  0  0  0
    0.2719   16.9936   42.4809 N   0  0  0  0  0  0  0  0  0  0  0  0
    0.0361   17.6676   43.6441 C   0  0  0  0  0  0  0  0  0  0  0  0
   -0.8367   17.5052   44.6563 N   0  0  0  0  0  0  0  0  0  0  0  0
   -1.8512   16.4513   44.7608 C   0  0  0  0  0  0  0  0  0  0  0  0
   -0.6217   18.4628   45.5440 N   0  0  0  0  0  0  0  0  0  0  0  0
    0.3713   19.2626   45.1544 C   0  0  0  0  0  0  0  0  0  0  0  0
    0.8073   18.7728   43.9414 C   0  0  0  0  0  0  0  0  0  0  0  0
    1.7986   19.1787   43.0660 C   0  0  0  0  0  0  0  0  0  0  0  0
    2.6189   20.3185   43.3378 N   0  0  0  0  0  0  0  0  0  0  0  0
    3.0521   17.9213   39.7648 H   0  0  0  0  0  0  0  0  0  0  0  0
    3.4879   16.7079   37.6555 H   0  0  0  0  0  0  0  0  0  0  0  0
    2.1330   14.7607   37.1263 H   0  0  0  0  0  0  0  0  0  0  0  0
   -0.0502   15.1774   40.6781 H   0  0  0  0  0  0  0  0  0  0  0  0
   -2.0537   16.3158   45.8416 H   0  0  0  0  0  0  0  0  0  0  0  0
   -2.8223   16.8029   44.3339 H   0  0  0  0  0  0  0  0  0  0  0  0
   -1.5155   15.5432   44.2528 H   0  0  0  0  0  0  0  0  0  0  0  0
    0.8048   20.1342   45.6318 H   0  0  0  0  0  0  0  0  0  0  0  0
    3.6715   20.2239   43.2383 H   0  0  0  0  0  0  0  0  0  0  0  0
    2.1739   21.2199   43.6277 H   0  0  0  0  0  0  0  0  0  0  0  0
  1  2  2  0
  1  6  1  0
  2  3  1  0
  3  4  2  0
  4  5  1  0
  5  6  2  0
  6  7  1  0
  7  8  2  0
  7  9  1  0
  8 16  1  0
  9 10  2  0
 10 11  1  0
 10 15  1  0
 11 12  1  0
 11 13  1  0
 13 14  2  0
 14 15  1  0
 15 16  2  0
 16 17  1  0
  1 18  1  0
  2 19  1  0
  3 20  1  0
  5 21  1  0
 12 22  1  0
 12 23  1  0
 12 24  1  0
 14 25  1  0
 17 26  1  0
 17 27  1  0
M  END
>  <mol_id>  (38) 
2026-09-17-6fnk-s0-n100-0038

>  <rmsd_to_ref>  (38) 
2.153061224494499

>  <pose_kind>  (38) 
conformer

$$$$
6fnk.A
     RDKit          3D

 27 29  0  0  0  0  0  0  0  0999 V2000
    0.6282   16.3217   39.5864 C   0  0  0  0  0  0  0  0  0  0  0  0
    0.2667   15.3237   38.6813 C   0  0  0  0  0  0  0  0  0  0  0  0
   -0.0879   14.0647   39.1435 C   0  0  0  0  0  0  0  0  0  0  0  0
   -0.0863   13.7989   40.5155 N   0  0  0  0  0  0  0  0  0  0  0  0
    0.2793   14.8043   41.4235 C   0  0  0  0  0  0  0  0  0  0  0  0
    0.6376   16.0689   40.9603 C   0  0  0  0  0  0  0  0  0  0  0  0
    1.0038   17.0684   41.8675 C   0  0  0  0  0  0  0  0  0  0  0  0
    1.5183   18.2309   41.4436 N   0  0  0  0  0  0  0  0  0  0  0  0
    0.8350   16.8708   43.1788 N   0  0  0  0  0  0  0  0  0  0  0  0
    1.1832   17.8047   44.0819 C   0  0  0  0  0  0  0  0  0  0  0  0
    1.1244   17.8263   45.4222 N   0  0  0  0  0  0  0  0  0  0  0  0
    0.6194   16.7497   46.2794 C   0  0  0  0  0  0  0  0  0  0  0  0
    1.5508   18.8971   45.8567 N   0  0  0  0  0  0  0  0  0  0  0  0
    1.8859   19.6551   44.7997 C   0  0  0  0  0  0  0  0  0  0  0  0
    1.6827   18.9654   43.6692 C   0  0  0  0  0  0  0  0  0  0  0  0
    1.8512   19.1820   42.3358 C   0  0  0  0  0  0  0  0  0  0  0  0
    2.3609   20.3521   41.8802 N   0  0  0  0  0  0  0  0  0  0  0  0
    0.9087   17.3181   39.2144 H   0  0  0  0  0  0  0  0  0  0  0  0
    0.2629   15.5349   37.6018 H   0  0  0  0  0  0  0  0  0  0  0  0
   -0.3703   13.2761   38.4305 H   0  0  0  0  0  0  0  0  0  0  0  0
    0.2831   14.5939   42.5032 H   0  0  0  0  0  0  0  0  0  0  0  0
    1.3672   16.5140   47.0510 H   0  0  0  0  0  0  0  0  0  0  0  0
   -0.3153   17.0724   46.7612 H   0  0  0  0  0  0  0  0  0  0  0  0
    0.4275   15.8547   45.6693 H   0  0  0  0  0  0  0  0  0  0  0  0
    2.2686   20.6849   44.8540 H   0  0  0  0  0  0  0  0  0  0  0  0
    2.6224   21.0937   42.5455 H   0  0  0  0  0  0  0  0  0  0  0  0
    2.4869   20.4999   40.8687 H   0  0  0  0  0  0  0  0  0  0  0  0
  1  2  2  0
  1  6  1  0
  2  3  1  0
  3  4  2  0
  4  5  1  0
  5  6  2  0
  6  7  1  0
  7  8  2  0
  7  9  1  0
  8 16  1  0
  9 10  2  0
 10 11  1  0
 10 15  1  0
 11 12  1  0
 11 13  1  0
 13 14  2  0
 14 15  1  0
 15 16  2  0
 16 17  1  0
  1 18  1  0
  2 19  1  0
  3 20  1  0
  5 21  1  0
 12 22  1  0
 12 23  1  0
 12 24  1  0
 14 25  1  0
 17 26  1  0
 17 27  1  0
M  END
>  <mol_id>  (39) 
2026-09-17-6fnk-s0-n100-0039

>  <rmsd_to_ref>  (39) 
2.198979591841587

>  <pose_kind>  (39) 
rigid

$$$$
6fnk.A
     RDKit          3D

 27 29  0  0  0  0  0  0  0  0999 V2000
    3.5481   16.5849   42.2492 C   0  0  0  0  0  0  0  0  0  0  0  0
    4.3902   15.6250   42.7746 C   0  0  0  0  0  0  0  0  0  0  0  0
    4.0484   15.1218   44.0343 C   0  0  0  0  0  0  0  0  0  0  0  0
    2.9748   15.5447   44.6856 N   0  0  0  0  0  0  0  0  0  0  0  0
    2.1791   16.4725   44.1547 C   0  0  0  0  0  0  0  0  0  0  0  0
    2.4251   17.0309   42.9245 C   0  0  0  0  0  0  0  0  0  0  0  0
    1.5770   18.0475   42.3133 C   0  0  0  0  0  0  0  0  0  0  0  0
    1.8649   18.5635   41.1003 N   0  0  0  0  0  0  0  0  0  0  0  0
    0.4826   18.4836   42.9688 N   0  0  0  0  0  0  0  0  0  0  0  0
   -0.3348   19.4338   42.4285 C   0  0  0  0  0  0  0  0  0  0  0  0
   -1.4624   20.0407   42.8442 N   0  0  0  0  0  0  0  0  0  0  0  0
   -2.1553   19.7987   44.1140 C   0  0  0  0  0  0  0  0  0  0  0  0
   -1.8400   20.8960   41.9076 N   0  0  0  0  0  0  0  0  0  0  0  0
   -0.9961   20.8789   40.8756 C   0  0  0  0  0  0  0  0  0  0  0  0
   -0.0252   19.9507   41.1869 C   0  0  0  0  0  0  0  0  0  0  0  0
    1.0975   19.5039   40.5134 C   0  0  0  0  0  0  0  0  0  0  0  0
    1.4524   20.0143   39.2253 N   0  0  0  0  0  0  0  0  0  0  0  0
    3.7817   16.9997   41.2714 H   0  0  0  0  0  0  0  0  0  0  0  0
    5.2691   15.2794   42.2406 H   0  0  0  0  0  0  0  0  0  0  0  0
    4.7292   14.3652   44.4270 H   0  0  0  0  0  0  0  0  0  0  0  0
    1.3207   16.7843   44.7188 H   0  0  0  0  0  0  0  0  0  0  0  0
   -2.7178   20.7244   44.3467 H   0  0  0  0  0  0  0  0  0  0  0  0
   -2.9423   19.0158   43.9843 H   0  0  0  0  0  0  0  0  0  0  0  0
   -1.4439   19.5023   44.8894 H   0  0  0  0  0  0  0  0  0  0  0  0
   -1.0009   21.4436   39.9500 H   0  0  0  0  0  0  0  0  0  0  0  0
    2.4522   20.3306   39.0605 H   0  0  0  0  0  0  0  0  0  0  0  0
    0.7286   20.0680   38.4717 H   0  0  0  0  0  0  0  0  0  0  0  0
  1  2  2  0
  1  6  1  0
  2  3  1  0
  3  4  2  0
  4  5  1  0
  5  6  2  0
  6  7  1  0
  7  8  2  0
  7  9  1  0
  8 16  1  0
  9 10  2  0
 10 11  1  0
 10 15  1  0
 11 12  1  0
 11 13  1  0
 13 14  2  0
 14 15  1  0
 15 16  2  0
 16 17  1  0
  1 18  1  0
  2 19  1  0
  3 20  1  0
  5 21  1  0
 12 22  1  0
 12 23  1  0
 12 24  1  0
 14 25  1  0
 17 26  1  0
 17 27  1  0
M  END
>  <mol_id>  (40) 
2026-09-17-6fnk-s0-n100-0040

>  <rmsd_to_ref>  (40) 
2.2448979591882416

>  <pose_kind>  (40) 
conformer

$$$$
6fnk.A
     RDKit          3D

 27 29  0  0  0  0  0  0  0  0999 V2000
    3.2441   17.7976   39.6392 C   0  0  0  0  0  0  0  0  0  0  0  0
    3.4900   17.1726   38.4166 C   0  0  0  0  0  0  0  0  0  0  0  0
    3.1080   15.8530   38.2239 C   0  0  0  0  0  0  0  0  0  0  0  0
    2.4737   15.1526   39.2537 N   0  0  0  0  0  0  0  0  0  0  0  0
    2.2291   15.7834   40.4830 C   0  0  0  0  0  0  0  0  0  0  0  0
    2.6142   17.1085   40.6783 C   0  0  0  0  0  0  0  0  0  0  0  0
    2.3712   17.7339   41.9055 C   0  0  0  0  0  0  0  0  0  0  0  0
    2.8845   18.9413   42.1787 N   0  0  0  0  0  0  0  0  0  0  0  0
    1.6108   17.1271   42.8224 N   0  0  0  0  0  0  0  0  0  0  0  0
    1.3620   17.6930   44.0168 C   0  0  0  0  0  0  0  0  0  0  0  0
    0.6568   17.2775   45.0799 N   0  0  0  0  0  0  0  0  0  0  0  0
   -0.0692   16.0086   45.1890 C   0  0  0  0  0  0  0  0  0  0  0  0
    0.6873   18.1218   45.9762 N   0  0  0  0  0  0  0  0  0  0  0  0
    1.4012   19.1649   45.5219 C   0  0  0  0  0  0  0  0  0  0  0  0
    1.8571   18.8959   44.2912 C   0  0  0  0  0  0  0  0  0  0  0  0
    2.6257   19.5279   43.3621 C   0  0  0  0  0  0  0  0  0  0  0  0
    3.1494   20.7530   43.6097 N   0  0  0  0  0  0  0  0  0  0  0  0
    3.5494   18.8441   39.7866 H   0  0  0  0  0  0  0  0  0  0  0  0
    3.9866   17.7257   37.6057 H   0  0  0  0  0  0  0  0  0  0  0  0
    3.3040   15.3582   37.2613 H   0  0  0  0  0  0  0  0  0  0  0  0
    1.7324   15.2310   41.2942 H   0  0  0  0  0  0  0  0  0  0  0  0
    0.2309   15.4928   46.1131 H   0  0  0  0  0  0  0  0  0  0  0  0
   -1.1510   16.2062   45.2142 H   0  0  0  0  0  0  0  0  0  0  0  0
    0.1677   15.3748   44.3218 H   0  0  0  0  0  0  0  0  0  0  0  0
    1.5838   20.0976   46.0758 H   0  0  0  0  0  0  0  0  0  0  0  0
    2.9641   21.2202   44.5087 H   0  0  0  0  0  0  0  0  0  0  0  0
    3.7328   21.2170   42.8988 H   0  0  0  0  0  0  0  0  0  0  0  0
  1  2  2  0
  1  6  1  0
  2  3  1  0
  3  4  2  0
  4  5  1  0
  5  6  2  0
  6  7  1  0
  7  8  2  0
  7  9  1  0
  8 16  1  0
  9 10  2  0
 10 11  1  0
 10 15  1  0
 11 12  1  0
 11 13  1  0
 13 14  2  0
 14 15  1  0
 15 16  2  0
 16 17  1  0
  1 18  1  0
  2 19  1  0
  3 20  1  0
  5 21  1  0
 12 22  1  0
 12 23  1  0
 12 24  1  0
 14 25  1  0
 17 26  1  0
 17 27  1  0
M  END
>  <mol_id>  (41) 
2026-09-17-6fnk-s0-n100-0041

>  <rmsd_to_ref>  (41) 
2.2908163265327772

>  <pose_kind>  (41) 
rigid

$$$$
6fnk.A
     RDKit          3D

 27 29  0  0  0  0  0  0  0  0999 V2000
    1.0284   16.3255   40.1819 C   0  0  0  0  0  0  0  0  0  0  0  0
    0.5285   15.1113   39.7549 C   0  0  0  0  0  0  0  0  0  0  0  0
    0.1952   14.1912   40.7547 C   0  0  0  0  0  0  0  0  0  0  0  0
    0.3516   14.4719   42.0401 N   0  0  0  0  0  0  0  0  0  0  0  0
    0.8365   15.6523   42.4241 C   0  0  0  0  0  0  0  0  0  0  0  0
    1.1942   16.6250   41.5232 C   0  0  0  0  0  0  0  0  0  0  0  0
    1.7276   17.9266   41.9071 C   0  0  0  0  0  0  0  0  0  0  0  0
    2.0637   18.8473   40.9800 N   0  0  0  0  0  0  0  0  0  0  0  0
    1.8900   18.2208   43.2127 N   0  0  0  0  0  0  0  0  0  0  0  0
    2.3864   19.4285   43.6102 C   0  0  0  0  0  0  0  0  0  0  0  0
    2.6483   19.9808   44.8098 N   0  0  0  0  0  0  0  0  0  0  0  0
    2.4400   19.3471   46.1159 C   0  0  0  0  0  0  0  0  0  0  0  0
    3.1277   21.1977   44.6079 N   0  0  0  0  0  0  0  0  0  0  0  0
    3.1941   21.4760   43.3057 C   0  0  0  0  0  0  0  0  0  0  0  0
    2.7249   20.3584   42.6483 C   0  0  0  0  0  0  0  0  0  0  0  0
    2.5586   20.0576   41.3083 C   0  0  0  0  0  0  0  0  0  0  0  0
    2.8975   20.9939   40.2815 N   0  0  0  0  0  0  0  0  0  0  0  0
    1.2988   17.0665   39.4331 H   0  0  0  0  0  0  0  0  0  0  0  0
    0.4008   14.8823   38.7022 H   0  0  0  0  0  0  0  0  0  0  0  0
   -0.1973   13.2403   40.3915 H   0  0  0  0  0  0  0  0  0  0  0  0
    0.9457   15.8351   43.4762 H   0  0  0  0  0  0  0  0  0  0  0  0
    3.1499   19.8298   46.8164 H   0  0  0  0  0  0  0  0  0  0  0  0
    1.4291   19.6055   46.5165 H   0  0  0  0  0  0  0  0  0  0  0  0
    2.5565   18.2628   46.0398 H   0  0  0  0  0  0  0  0  0  0  0  0
    3.5328   22.3679   42.7906 H   0  0  0  0  0  0  0  0  0  0  0  0
    3.4924   20.6634   39.4668 H   0  0  0  0  0  0  0  0  0  0  0  0
    2.5573   21.9811   40.3477 H   0  0  0  0  0  0  0  0  0  0  0  0
  1  2  2  0
  1  6  1  0
  2  3  1  0
  3  4  2  0
  4  5  1  0
  5  6  2  0
  6  7  1  0
  7  8  2  0
  7  9  1  0
  8 16  1  0
  9 10  2  0
 10 11  1  0
 10 15  1  0
 11 12  1  0
 11 13  1  0
 13 14  2  0
 14 15  1  0
 15 16  2  0
 16 17  1  0
  1 18  1  0
  2 19  1  0
  3 20  1  0
  5 21  1  0
 12 22  1  0
 12 23  1  0
 12 24  1  0
 14 25  1  0
 17 26  1  0
 17 27  1  0
M  END
>  <mol_id>  (42) 
2026-09-17-6fnk-s0-n100-0042

>  <rmsd_to_ref>  (42) 
2.336734693882066

>  <pose_kind>  (42) 
conformer

$$$$
6fnk.A
     RDKit          3D

 27 29  0  0  0  0  0  0  0  0999 V2000
    3.5945   17.6572   40.6740 C   0  0  0  0  0  0  0  0  0  0  0  0
    4.8901   17.1728   40.4934 C   0  0  0  0  0  0  0  0  0  0  0  0
    5.3574   16.1330   41.2839 C   0  0  0  0  0  0  0  0  0  0  0  0
    4.5282   15.5696   42.2577 N   0  0  0  0  0  0  0  0  0  0  0  0
    3.2260   16.0600   42.4381 C   0  0  0  0  0  0  0  0  0  0  0  0
    2.7561   17.1058   41.6458 C   0  0  0  0  0  0  0  0  0  0  0  0
    1.4585   17.5941   41.8295 C   0  0  0  0  0  0  0  0  0  0  0  0
    1.0446   18.7064   41.2070 N   0  0  0  0  0  0  0  0  0  0  0  0
    0.6101   16.9432   42.6319 N   0  0  0  0  0  0  0  0  0  0  0  0
   -0.6424   17.3867   42.8401 C   0  0  0  0  0  0  0  0  0  0  0  0
   -1.6473   16.9215   43.5977 N   0  0  0  0  0  0  0  0  0  0  0  0
   -1.6083   15.7199   44.4365 C   0  0  0  0  0  0  0  0  0  0  0  0
   -2.6393   17.6439   43.4917 N   0  0  0  0  0  0  0  0  0  0  0  0
   -2.3360   18.6178   42.6178 C   0  0  0  0  0  0  0  0  0  0  0  0
   -1.0649   18.4823   42.2168 C   0  0  0  0  0  0  0  0  0  0  0  0
   -0.2131   19.1491   41.3903 C   0  0  0  0  0  0  0  0  0  0  0  0
   -0.6092   20.2711   40.7418 N   0  0  0  0  0  0  0  0  0  0  0  0
    3.2292   18.4821   40.0445 H   0  0  0  0  0  0  0  0  0  0  0  0
    5.5409   17.6150   39.7246 H   0  0  0  0  0  0  0  0  0  0  0  0
    6.3799   15.7522   41.1444 H   0  0  0  0  0  0  0  0  0  0  0  0
    2.5747   15.6181   43.2065 H   0  0  0  0  0  0  0  0  0  0  0  0
   -1.9379   15.9729   45.4550 H   0  0  0  0  0  0  0  0  0  0  0  0
   -2.2773   14.9558   44.0139 H   0  0  0  0  0  0  0  0  0  0  0  0
   -0.5805   15.3294   44.4701 H   0  0  0  0  0  0  0  0  0  0  0  0
   -3.0259   19.4063   42.2826 H   0  0  0  0  0  0  0  0  0  0  0  0
   -1.5673   20.6276   40.8676 H   0  0  0  0  0  0  0  0  0  0  0  0
    0.0479   20.7675   40.1231 H   0  0  0  0  0  0  0  0  0  0  0  0
  1  2  2  0
  1  6  1  0
  2  3  1  0
  3  4  2  0
  4  5  1  0
  5  6  2  0
  6  7  1  0
  7  8  2  0
  7  9  1  0
  8 16  1  0
  9 10  2  0
 10 11  1  0
 10 15  1  0
 11 12  1  0
 11 13  1  0
 13 14  2  0
 14 15  1  0
 15 16  2  0
 16 17  1  0
  1 18  1  0
  2 19  1  0
  3 20  1  0
  5 21  1  0
 12 22  1  0
 12 23  1  0
 12 24  1  0
 14 25  1  0
 17 26  1  0
 17 27  1  0
M  END
>  <mol_id>  (43) 
2026-09-17-6fnk-s0-n100-0043

>  <rmsd_to_ref>  (43) 
2.3826530612262182

>  <pose_kind>  (43) 
rigid

$$$$
6fnk.A
     RDKit          3D

 27 29  0  0  0  0  0  0  0  0999 V2000
    3.6067   17.2769   40.4096 C   0  0  0  0  0  0  0  0  0  0  0  0
    4.9159   16.8470   40.3207 C   0  0  0  0  0  0  0  0  0  0  0  0
    5.4402   16.2160   41.4537 C   0  0  0  0  0  0  0  0  0  0  0  0
    4.7182   16.0415   42.5509 N   0  0  0  0  0  0  0  0  0  0  0  0
    3.4566   16.4665   42.6093 C   0  0  0  0  0  0  0  0  0  0  0  0
    2.8471   17.0977   41.5528 C   0  0  0  0  0  0  0  0  0  0  0  0
    1.4698   17.5755   41.5813 C   0  0  0  0  0  0  0  0  0  0  0  0
    0.9191   18.1901   40.5139 N   0  0  0  0  0  0  0  0  0  0  0  0
    0.7277   17.4023   42.6934 N   0  0  0  0  0  0  0  0  0  0  0  0
   -0.5648   17.8361   42.7572 C   0  0  0  0  0  0  0  0  0  0  0  0
   -1.5156   17.7996   43.7098 N   0  0  0  0  0  0  0  0  0  0  0  0
   -1.3727   17.2225   45.0505 C   0  0  0  0  0  0  0  0  0  0  0  0
   -2.6050   18.3757   43.2276 N   0  0  0  0  0  0  0  0  0  0  0  0
   -2.4103   18.7973   41.9779 C   0  0  0  0  0  0  0  0  0  0  0  0
   -1.1119   18.4627   41.6560 C   0  0  0  0  0  0  0  0  0  0  0  0
   -0.3515   18.6410   40.5143 C   0  0  0  0  0  0  0  0  0  0  0  0
   -0.8817   19.2854   39.3527 N   0  0  0  0  0  0  0  0  0  0  0  0
    3.1645   17.7721   39.5482 H   0  0  0  0  0  0  0  0  0  0  0  0
    5.5063   16.9904   39.4218 H   0  0  0  0  0  0  0  0  0  0  0  0
    6.4756   15.8860   41.3580 H   0  0  0  0  0  0  0  0  0  0  0  0
    2.9103   16.3033   43.5188 H   0  0  0  0  0  0  0  0  0  0  0  0
   -2.1041   17.7457   45.6976 H   0  0  0  0  0  0  0  0  0  0  0  0
   -1.7069   16.1560   45.0522 H   0  0  0  0  0  0  0  0  0  0  0  0
   -0.3377   17.3003   45.3940 H   0  0  0  0  0  0  0  0  0  0  0  0
   -3.0791   19.3043   41.2913 H   0  0  0  0  0  0  0  0  0  0  0  0
   -0.3145   20.0568   38.8944 H   0  0  0  0  0  0  0  0  0  0  0  0
   -1.8117   18.9899   38.9753 H   0  0  0  0  0  0  0  0  0  0  0  0
  1  2  2  0
  1  6  1  0
  2  3  1  0
  3  4  2  0
  4  5  1  0
  5  6  2  0
  6  7  1  0
  7  8  2  0
  7  9  1  0
  8 16  1  0
  9 10  2  0
 10 11  1  0
 10 15  1  0
 11 12  1  0
 11 13  1  0
 13 14  2  0
 14 15  1  0
 15 16  2  0
 16 17  1  0
  1 18  1  0
  2 19  1  0
  3 20  1  0
  5 21  1  0
 12 22  1  0
 12 23  1  0
 12 24  1  0
 14 25  1  0
 17 26  1  0
 17 27  1  0
M  END
>  <mol_id>  (44) 
2026-09-17-6fnk-s0-n100-0044

>  <rmsd_to_ref>  (44) 
2.4285714285751583

>  <pose_kind>  (44) 
conformer

$$$$
6fnk.A
     RDKit          3D

 27 29  0  0  0  0  0  0  0  0999 V2000
    0.2932   14.4218   40.0996 C   0  0  0  0  0  0  0  0  0  0  0  0
    0.7454   13.2348   39.5231 C   0  0  0  0  0  0  0  0  0  0  0  0
    2.0060   12.7483   39.8373 C   0  0  0  0  0  0  0  0  0  0  0  0
    2.8198   13.4460   40.7340 N   0  0  0  0  0  0  0  0  0  0  0  0
    2.3628   14.6406   41.3111 C   0  0  0  0  0  0  0  0  0  0  0  0
    1.0974   15.1313   40.9948 C   0  0  0  0  0  0  0  0  0  0  0  0
    0.6456   16.3235   41.5698 C   0  0  0  0  0  0  0  0  0  0  0  0
   -0.4868   16.9059   41.1521 N   0  0  0  0  0  0  0  0  0  0  0  0
    1.3453   16.8934   42.5561 N   0  0  0  0  0  0  0  0  0  0  0  0
    0.9473   18.0440   43.1275 C   0  0  0  0  0  0  0  0  0  0  0  0
    1.4813   18.7967   44.1015 N   0  0  0  0  0  0  0  0  0  0  0  0
    2.7206   18.5096   44.8301 C   0  0  0  0  0  0  0  0  0  0  0  0
    0.7771   19.7830   44.3215 N   0  0  0  0  0  0  0  0  0  0  0  0
   -0.2892   19.7051   43.5083 C   0  0  0  0  0  0  0  0  0  0  0  0
   -0.1812   18.6217   42.7276 C   0  0  0  0  0  0  0  0  0  0  0  0
   -0.9072   18.0463   41.7300 C   0  0  0  0  0  0  0  0  0  0  0  0
   -2.0604   18.6098   41.2952 N   0  0  0  0  0  0  0  0  0  0  0  0
   -0.7071   14.8031   39.8467 H   0  0  0  0  0  0  0  0  0  0  0  0
    0.1028   12.6848   38.8198 H   0  0  0  0  0  0  0  0  0  0  0  0
    2.3647   11.8139   39.3810 H   0  0  0  0  0  0  0  0  0  0  0  0
    3.0048   15.1909   42.0147 H   0  0  0  0  0  0  0  0  0  0  0  0
    3.3765   19.3921   44.7999 H   0  0  0  0  0  0  0  0  0  0  0  0
    2.4828   18.2651   45.8759 H   0  0  0  0  0  0  0  0  0  0  0  0
    3.2322   17.6561   44.3613 H   0  0  0  0  0  0  0  0  0  0  0  0
   -1.1237   20.4215   43.4867 H   0  0  0  0  0  0  0  0  0  0  0  0
   -2.4006   19.4826   41.7234 H   0  0  0  0  0  0  0  0  0  0  0  0
   -2.5967   18.1653   40.5364 H   0  0  0  0  0  0  0  0  0  0  0  0
  1  2  2  0
  1  6  1  0
  2  3  1  0
  3  4  2  0
  4  5  1  0
  5  6  2  0
  6  7  1  0
  7  8  2  0
  7  9  1  0
  8 16  1  0
  9 10  2  0
 10 11  1  0
 10 15  1  0
 11 12  1  0
 11 13  1  0
 13 14  2  0
 14 15  1  0
 15 16  2  0
 16 17  1  0
  1 18  1  0
  2 19  1  0
  3 20  1  0
  5 21  1  0
 12 22  1  0
 12 23  1  0
 12 24  1  0
 14 25  1  0
 17 26  1  0
 17 27  1  0
M  END
>  <mol_id>  (45) 
2026-09-17-6fnk-s0-n100-0045

>  <rmsd_to_ref>  (45) 
2.4744897959202152

>  <pose_kind>  (45) 
rigid

$$$$
6fnk.A
     RDKit          3D

 27 29  0  0  0  0  0  0  0  0999 V2000
    2.7049   15.3977   41.1002 C   0  0  0  0  0  0  0  0  0  0  0  0
    2.2248   14.1919   40.6288 C   0  0  0  0  0  0  0  0  0  0  0  0
    0.8636   13.9429   40.8340 C   0  0  0  0  0  0  0  0  0  0  0  0
    0.0800   14.8178   41.4473 N   0  0  0  0  0  0  0  0  0  0  0  0
    0.5701   15.9744   41.8923 C   0  0  0  0  0  0  0  0  0  0  0  0
    1.8916   16.3159   41.7416 C   0  0  0  0  0  0  0  0  0  0  0  0
    2.4618   17.5714   42.2156 C   0  0  0  0  0  0  0  0  0  0  0  0
    3.7689   17.8574   42.0414 N   0  0  0  0  0  0  0  0  0  0  0  0
    1.6720   18.4674   42.8407 N   0  0  0  0  0  0  0  0  0  0  0  0
    2.1700   19.6531   43.2980 C   0  0  0  0  0  0  0  0  0  0  0  0
    1.6305   20.7066   43.9397 N   0  0  0  0  0  0  0  0  0  0  0  0
    0.2274   20.8454   44.3435 C   0  0  0  0  0  0  0  0  0  0  0  0
    2.5864   21.5986   44.1444 N   0  0  0  0  0  0  0  0  0  0  0  0
    3.7517   21.1717   43.6574 C   0  0  0  0  0  0  0  0  0  0  0  0
    3.5093   19.9291   43.1112 C   0  0  0  0  0  0  0  0  0  0  0  0
    4.3207   19.0104   42.4699 C   0  0  0  0  0  0  0  0  0  0  0  0
    5.7131   19.2589   42.2571 N   0  0  0  0  0  0  0  0  0  0  0  0
    3.7587   15.6265   40.9588 H   0  0  0  0  0  0  0  0  0  0  0  0
    2.8672   13.4761   40.1267 H   0  0  0  0  0  0  0  0  0  0  0  0
    0.5093   12.9842   40.4526 H   0  0  0  0  0  0  0  0  0  0  0  0
   -0.1023   16.6522   42.3831 H   0  0  0  0  0  0  0  0  0  0  0  0
    0.2157   21.5416   45.2052 H   0  0  0  0  0  0  0  0  0  0  0  0
   -0.3557   21.3713   43.5482 H   0  0  0  0  0  0  0  0  0  0  0  0
   -0.2101   19.8662   44.5553 H   0  0  0  0  0  0  0  0  0  0  0  0
    4.7291   21.6411   43.6515 H   0  0  0  0  0  0  0  0  0  0  0  0
    6.4113   18.5037   42.5195 H   0  0  0  0  0  0  0  0  0  0  0  0
    6.0200   20.1725   41.8498 H   0  0  0  0  0  0  0  0  0  0  0  0
  1  2  2  0
  1  6  1  0
  2  3  1  0
  3  4  2  0
  4  5  1  0
  5  6  2  0
  6  7  1  0
  7  8  2  0
  7  9  1  0
  8 16  1  0
  9 10  2  0
 10 11  1  0
 10 15  1  0
 11 12  1  0
 11 13  1  0
 13 14  2  0
 14 15  1  0
 15 16  2  0
 16 17  1  0
  1 18  1  0
  2 19  1  0
  3 20  1  0
  5 21  1  0
 12 22  1  0
 12 23  1  0
 12 24  1  0
 14 25  1  0
 17 26  1  0
 17 27  1  0
M  END
>  <mol_id>  (46) 
2026-09-17-6fnk-s0-n100-0046

>  <rmsd_to_ref>  (46) 
2.520408163270152

>  <pose_kind>  (46) 
conformer

$$$$
6fnk.A
     RDKit          3D

 27 29  0  0  0  0  0  0  0  0999 V2000
    1.2316   14.6440   40.3803 C   0  0  0  0  0  0  0  0  0  0  0  0
    0.5480   13.4702   40.0629 C   0  0  0  0  0  0  0  0  0  0  0  0
   -0.5545   13.0864   40.8123 C   0  0  0  0  0  0  0  0  0  0  0  0
   -0.9812   13.8781   41.8820 N   0  0  0  0  0  0  0  0  0  0  0  0
   -0.2906   15.0574   42.1999 C   0  0  0  0  0  0  0  0  0  0  0  0
    0.8183   15.4431   41.4490 C   0  0  0  0  0  0  0  0  0  0  0  0
    1.5060   16.6179   41.7698 C   0  0  0  0  0  0  0  0  0  0  0  0
    2.6713   16.9188   41.1801 N   0  0  0  0  0  0  0  0  0  0  0  0
    0.9964   17.4617   42.6727 N   0  0  0  0  0  0  0  0  0  0  0  0
    1.6328   18.5965   43.0134 C   0  0  0  0  0  0  0  0  0  0  0  0
    1.3314   19.5697   43.8866 N   0  0  0  0  0  0  0  0  0  0  0  0
    0.1371   19.6260   44.7347 C   0  0  0  0  0  0  0  0  0  0  0  0
    2.2024   20.4406   43.8814 N   0  0  0  0  0  0  0  0  0  0  0  0
    3.1177   20.0884   42.9635 C   0  0  0  0  0  0  0  0  0  0  0  0
    2.7829   18.9086   42.4243 C   0  0  0  0  0  0  0  0  0  0  0  0
    3.3077   18.0616   41.4966 C   0  0  0  0  0  0  0  0  0  0  0  0
    4.4798   18.3465   40.8790 N   0  0  0  0  0  0  0  0  0  0  0  0
    2.1054   14.9435   39.7829 H   0  0  0  0  0  0  0  0  0  0  0  0
    0.8829   12.8494   39.2188 H   0  0  0  0  0  0  0  0  0  0  0  0
   -1.0926   12.1594   40.5647 H   0  0  0  0  0  0  0  0  0  0  0  0
   -0.6251   15.6789   43.0437 H   0  0  0  0  0  0  0  0  0  0  0  0
    0.4370   19.7936   45.7797 H   0  0  0  0  0  0  0  0  0  0  0  0
   -0.5102   20.4510   44.4023 H   0  0  0  0  0  0  0  0  0  0  0  0
   -0.4118   18.6758   44.6587 H   0  0  0  0  0  0  0  0  0  0  0  0
    4.0064   20.6786   42.6955 H   0  0  0  0  0  0  0  0  0  0  0  0
    4.9837   19.2157   41.1061 H   0  0  0  0  0  0  0  0  0  0  0  0
    4.8669   17.6939   40.1825 H   0  0  0  0  0  0  0  0  0  0  0  0
  1  2  2  0
  1  6  1  0
  2  3  1  0
  3  4  2  0
  4  5  1  0
  5  6  2  0
  6  7  1  0
  7  8  2  0
  7  9  1  0
  8 16  1  0
  9 10  2  0
 10 11  1  0
 10 15  1  0
 11 12  1  0
 11 13  1  0
 13 14  2  0
 14 15  1  0
 15 16  2  0
 16 17  1  0
  1 18  1  0
  2 19  1  0
  3 20  1  0
  5 21  1  0
 12 22  1  0
 12 23  1  0
 12 24  1  0
 14 25  1  0
 17 26  1  0
 17 27  1  0
M  END
>  <mol_id>  (47) 
2026-09-17-6fnk-s0-n100-0047

>  <rmsd_to_ref>  (47) 
2.566326530616575

>  <pose_kind>  (47) 
rigid

$$$$
6fnk.A
     RDKit          3D

 27 29  0  0  0  0  0  0  0  0999 V2000
   -0.0207   15.4200   41.8325 C   0  0  0  0  0  0  0  0  0  0  0  0
   -0.5131   14.1308   41.8799 C   0  0  0  0  0  0  0  0  0  0  0  0
   -0.9607   13.6829   43.1273 C   0  0  0  0  0  0  0  0  0  0  0  0
   -0.9137   14.4552   44.2028 N   0  0  0  0  0  0  0  0  0  0  0  0
   -0.4333   15.6960   44.1284 C   0  0  0  0  0  0  0  0  0  0  0  0
    0.0311   16.2319   42.9524 C   0  0  0  0  0  0  0  0  0  0  0  0
    0.5631   17.5843   42.8341 C   0  0  0  0  0  0  0  0  0  0  0  0
    1.0070   18.0619   41.6528 N   0  0  0  0  0  0  0  0  0  0  0  0
    0.6148   18.3771   43.9233 N   0  0  0  0  0  0  0  0  0  0  0  0
    1.1061   19.6485   43.8512 C   0  0  0  0  0  0  0  0  0  0  0  0
    1.2734   20.6367   44.7502 N   0  0  0  0  0  0  0  0  0  0  0  0
    0.9304   20.5751   46.1748 C   0  0  0  0  0  0  0  0  0  0  0  0
    1.8023   21.6769   44.1261 N   0  0  0  0  0  0  0  0  0  0  0  0
    1.9940   21.4128   42.8334 C   0  0  0  0  0  0  0  0  0  0  0  0
    1.5557   20.1207   42.6349 C   0  0  0  0  0  0  0  0  0  0  0  0
    1.5032   19.3080   41.5166 C   0  0  0  0  0  0  0  0  0  0  0  0
    1.9592   19.7600   40.2385 N   0  0  0  0  0  0  0  0  0  0  0  0
    0.3366   15.8032   40.8795 H   0  0  0  0  0  0  0  0  0  0  0  0
   -0.5512   13.4991   40.9986 H   0  0  0  0  0  0  0  0  0  0  0  0
   -1.3447   12.6618   43.1380 H   0  0  0  0  0  0  0  0  0  0  0  0
   -0.4148   16.2849   45.0257 H   0  0  0  0  0  0  0  0  0  0  0  0
    1.5869   21.3051   46.6881 H   0  0  0  0  0  0  0  0  0  0  0  0
   -0.1051   20.9607   46.3423 H   0  0  0  0  0  0  0  0  0  0  0  0
    1.0234   19.5519   46.5484 H   0  0  0  0  0  0  0  0  0  0  0  0
    2.4023   22.0285   42.0398 H   0  0  0  0  0  0  0  0  0  0  0  0
    2.6161   19.1383   39.6829 H   0  0  0  0  0  0  0  0  0  0  0  0
    1.6417   20.6877   39.8735 H   0  0  0  0  0  0  0  0  0  0  0  0
  1  2  2  0
  1  6  1  0
  2  3  1  0
  3  4  2  0
  4  5  1  0
  5  6  2  0
  6  7  1  0
  7  8  2  0
  7  9  1  0
  8 16  1  0
  9 10  2  0
 10 11  1  0
 10 15  1  0
 11 12  1  0
 11 13  1  0
 13 14  2  0
 14 15  1  0
 15 16  2  0
 16 17  1  0
  1 18  1  0
  2 19  1  0
  3 20  1  0
  5 21  1  0
 12 22  1  0
 12 23  1  0
 12 24  1  0
 14 25  1  0
 17 26  1  0
 17 27  1  0
M  END
>  <mol_id>  (48) 
2026-09-17-6fnk-s0-n100-0048

>  <rmsd_to_ref>  (48) 
2.612244897963881

>  <pose_kind>  (48) 
conformer

$$$$
6fnk.A
     RDKit          3D

 27 29  0  0  0  0  0  0  0  0999 V2000
    1.7902   13.9631   42.9953 C   0  0  0  0  0  0  0  0  0  0  0  0
    1.9828   12.7211   43.6005 C   0  0  0  0  0  0  0  0  0  0  0  0
    2.2337   12.6458   44.9628 C   0  0  0  0  0  0  0  0  0  0  0  0
    2.2895   13.8141   45.7278 N   0  0  0  0  0  0  0  0  0  0  0  0
    2.0969   15.0620   45.1159 C   0  0  0  0  0  0  0  0  0  0  0  0
    1.8467   15.1391   43.7471 C   0  0  0  0  0  0  0  0  0  0  0  0
    1.6575   16.3846   43.1396 C   0  0  0  0  0  0  0  0  0  0  0  0
    1.5908   16.4994   41.8061 N   0  0  0  0  0  0  0  0  0  0  0  0
    1.5340   17.4810   43.8944 N   0  0  0  0  0  0  0  0  0  0  0  0
    1.3597   18.6968   43.3464 C   0  0  0  0  0  0  0  0  0  0  0  0
    1.2296   19.9175   43.8878 N   0  0  0  0  0  0  0  0  0  0  0  0
    1.2426   20.2301   45.3200 C   0  0  0  0  0  0  0  0  0  0  0  0
    1.0842   20.7676   43.0085 N   0  0  0  0  0  0  0  0  0  0  0  0
    1.0801   20.1278   41.8274 C   0  0  0  0  0  0  0  0  0  0  0  0
    1.2800   18.8179   42.0250 C   0  0  0  0  0  0  0  0  0  0  0  0
    1.3955   17.7074   41.2459 C   0  0  0  0  0  0  0  0  0  0  0  0
    1.3227   17.7947   39.8955 N   0  0  0  0  0  0  0  0  0  0  0  0
    1.5919   14.0170   41.9147 H   0  0  0  0  0  0  0  0  0  0  0  0
    1.9358   11.8020   42.9980 H   0  0  0  0  0  0  0  0  0  0  0  0
    2.3887   11.6672   45.4406 H   0  0  0  0  0  0  0  0  0  0  0  0
    2.1436   15.9815   45.7180 H   0  0  0  0  0  0  0  0  0  0  0  0
    1.9736   21.0287   45.5144 H   0  0  0  0  0  0  0  0  0  0  0  0
    0.2421   20.5650   45.6313 H   0  0  0  0  0  0  0  0  0  0  0  0
    1.5217   19.3310   45.8890 H   0  0  0  0  0  0  0  0  0  0  0  0
    0.9347   20.6063   40.8477 H   0  0  0  0  0  0  0  0  0  0  0  0
    1.1737   18.7092   39.4458 H   0  0  0  0  0  0  0  0  0  0  0  0
    1.4164   16.9464   39.3188 H   0  0  0  0  0  0  0  0  0  0  0  0
  1  2  2  0
  1  6  1  0
  2  3  1  0
  3  4  2  0
  4  5  1  0
  5  6  2  0
  6  7  1  0
  7  8  2  0
  7  9  1  0
  8 16  1  0
  9 10  2  0
 10 11  1  0
 10 15  1  0
 11 12  1  0
 11 13  1  0
 13 14  2  0
 14 15  1  0
 15 16  2  0
 16 17  1  0
  1 18  1  0
  2 19  1  0
  3 20  1  0
  5 21  1  0
 12 22  1  0
 12 23  1  0
 12 24  1  0
 14 25  1  0
 17 26  1  0
 17 27  1  0
M  END
>  <mol_id>  (49) 
2026-09-17-6fnk-s0-n100-0049

>  <rmsd_to_ref>  (49) 
2.6581632653100766

>  <pose_kind>  (49) 
rigid

$$$$
6fnk.A
     RDKit          3D

 27 29  0  0  0  0  0  0  0  0999 V2000
    1.6563   15.8229   39.9498 C   0  0  0  0  0  0  0  0  0  0  0  0
    0.9312   14.8310   39.3198 C   0  0  0  0  0  0  0  0  0  0  0  0
   -0.1567   14.3117   40.0295 C   0  0  0  0  0  0  0  0  0  0  0  0
   -0.4721   14.7493   41.2397 N   0  0  0  0  0  0  0  0  0  0  0  0
    0.2454   15.7081   41.8243 C   0  0  0  0  0  0  0  0  0  0  0  0
    1.3321   16.2845   41.2139 C   0  0  0  0  0  0  0  0  0  0  0  0
    2.1395   17.3349   41.8231 C   0  0  0  0  0  0  0  0  0  0  0  0
    3.1984   17.8675   41.1786 N   0  0  0  0  0  0  0  0  0  0  0  0
    1.8259   17.7863   43.0541 N   0  0  0  0  0  0  0  0  0  0  0  0
    2.5582   18.7681   43.6563 C   0  0  0  0  0  0  0  0  0  0  0  0
    2.4789   19.3958   44.8447 N   0  0  0  0  0  0  0  0  0  0  0  0
    1.4782   19.1466   45.8875 C   0  0  0  0  0  0  0  0  0  0  0  0
    3.4618   20.2793   44.9111 N   0  0  0  0  0  0  0  0  0  0  0  0
    4.1978   20.2609   43.7996 C   0  0  0  0  0  0  0  0  0  0  0  0
    3.6381   19.3015   42.9825 C   0  0  0  0  0  0  0  0  0  0  0  0
    3.9608   18.8391   41.7193 C   0  0  0  0  0  0  0  0  0  0  0  0
    5.0718   19.3659   40.9886 N   0  0  0  0  0  0  0  0  0  0  0  0
    2.5096   16.2511   39.4288 H   0  0  0  0  0  0  0  0  0  0  0  0
    1.1902   14.4732   38.3289 H   0  0  0  0  0  0  0  0  0  0  0  0
   -0.7129   13.5298   39.5104 H   0  0  0  0  0  0  0  0  0  0  0  0
   -0.0475   16.0309   42.8053 H   0  0  0  0  0  0  0  0  0  0  0  0
    1.9426   19.4477   46.8473 H   0  0  0  0  0  0  0  0  0  0  0  0
    0.6091   19.8385   45.7656 H   0  0  0  0  0  0  0  0  0  0  0  0
    1.1459   18.1054   45.8602 H   0  0  0  0  0  0  0  0  0  0  0  0
    5.0677   20.8440   43.5189 H   0  0  0  0  0  0  0  0  0  0  0  0
    5.7593   18.6878   40.5479 H   0  0  0  0  0  0  0  0  0  0  0  0
    5.1894   20.4018   40.8999 H   0  0  0  0  0  0  0  0  0  0  0  0
  1  2  2  0
  1  6  1  0
  2  3  1  0
  3  4  2  0
  4  5  1  0
  5  6  2  0
  6  7  1  0
  7  8  2  0
  7  9  1  0
  8 16  1  0
  9 10  2  0
 10 11  1  0
 10 15  1  0
 11 12  1  0
 11 13  1  0
 13 14  2  0
 14 15  1  0
 15 16  2  0
 16 17  1  0
  1 18  1  0
  2 19  1  0
  3 20  1  0
  5 21  1  0
 12 22  1  0
 12 23  1  0
 12 24  1  0
 14 25  1  0
 17 26  1  0
 17 27  1  0
M  END
>  <mol_id>  (50) 
2026-09-17-6fnk-s0-n100-0050

>  <rmsd_to_ref>  (50) 
2.704081632653864

>  <pose_kind>  (50) 
conformer

$$$$
6fnk.A
     RDKit          3D

 27 29  0  0  0  0  0  0  0  0999 V2000
    3.6969   15.8312   43.2863 C   0  0  0  0  0  0  0  0  0  0  0  0
    4.8515   15.2511   43.8119 C   0  0  0  0  0  0  0  0  0  0  0  0
    5.1259   15.3596   45.1674 C   0  0  0  0  0  0  0  0  0  0  0  0
    4.2434   16.0467   46.0054 N   0  0  0  0  0  0  0  0  0  0  0  0
    3.0835   16.6305   45.4736 C   0  0  0  0  0  0  0  0  0  0  0  0
    2.8077   16.5238   44.1117 C   0  0  0  0  0  0  0  0  0  0  0  0
    1.6520   17.1088   43.5841 C   0  0  0  0  0  0  0  0  0  0  0  0
    1.4529   17.1725   42.2604 N   0  0  0  0  0  0  0  0  0  0  0  0
    0.7243   17.6084   44.4068 N   0  0  0  0  0  0  0  0  0  0  0  0
   -0.3956   18.1861   43.9367 C   0  0  0  0  0  0  0  0  0  0  0  0
   -1.4392   18.7602   44.5543 N   0  0  0  0  0  0  0  0  0  0  0  0
   -1.6148   18.8943   46.0035 C   0  0  0  0  0  0  0  0  0  0  0  0
   -2.2607   19.1644   43.7304 N   0  0  0  0  0  0  0  0  0  0  0  0
   -1.8005   18.8395   42.5110 C   0  0  0  0  0  0  0  0  0  0  0  0
   -0.6067   18.2424   42.6254 C   0  0  0  0  0  0  0  0  0  0  0  0
    0.3267   17.7291   41.7776 C   0  0  0  0  0  0  0  0  0  0  0  0
    0.1457   17.7726   40.4353 N   0  0  0  0  0  0  0  0  0  0  0  0
    3.4843   15.7424   42.2107 H   0  0  0  0  0  0  0  0  0  0  0  0
    5.5439   14.7080   43.1519 H   0  0  0  0  0  0  0  0  0  0  0  0
    6.0376   14.9051   45.5824 H   0  0  0  0  0  0  0  0  0  0  0  0
    2.3905   17.1735   46.1330 H   0  0  0  0  0  0  0  0  0  0  0  0
   -1.8355   19.9433   46.2506 H   0  0  0  0  0  0  0  0  0  0  0  0
   -2.4487   18.2569   46.3324 H   0  0  0  0  0  0  0  0  0  0  0  0
   -0.6919   18.5835   46.5150 H   0  0  0  0  0  0  0  0  0  0  0  0
   -2.3239   19.0341   41.5633 H   0  0  0  0  0  0  0  0  0  0  0  0
   -0.7089   18.1940   40.0442 H   0  0  0  0  0  0  0  0  0  0  0  0
    0.8628   17.3842   39.8061 H   0  0  0  0  0  0  0  0  0  0  0  0
  1  2  2  0
  1  6  1  0
  2  3  1  0
  3  4  2  0
  4  5  1  0
  5  6  2  0
  6  7  1  0
  7  8  2  0
  7  9  1  0
  8 16  1  0
  9 10  2  0
 10 11  1  0
 10 15  1  0
 11 12  1  0
 11 13  1  0
 13 14  2  0
 14 15  1  0
 15 16  2  0
 16 17  1  0
  1 18  1  0
  2 19  1  0
  3 20  1  0
  5 21  1  0
 12 22  1  0
 12 23  1  0
 12 24  1  0
 14 25  1  0
 17 26  1  0
 17 27  1  0
M  END
>  <mol_id>  (51) 
2026-09-17-6fnk-s0-n100-0051

>  <rmsd_to_ref>  (51) 
2.7500000000020033

>  <pose_kind>  (51) 
rigid

$$$$
6fnk.A
     RDKit          3D

 27 29  0  0  0  0  0  0  0  0999 V2000
    1.1924   14.5210   41.3241 C   0  0  0  0  0  0  0  0  0  0  0  0
    1.8874   13.3756   41.6579 C   0  0  0  0  0  0  0  0  0  0  0  0
    2.7748   13.4795   42.7343 C   0  0  0  0  0  0  0  0  0  0  0  0
    2.9376   14.6160   43.3958 N   0  0  0  0  0  0  0  0  0  0  0  0
    2.2535   15.7067   43.0520 C   0  0  0  0  0  0  0  0  0  0  0  0
    1.3579   15.7113   42.0110 C   0  0  0  0  0  0  0  0  0  0  0  0
    0.5927   16.8851   41.6074 C   0  0  0  0  0  0  0  0  0  0  0  0
   -0.2753   16.8348   40.5757 N   0  0  0  0  0  0  0  0  0  0  0  0
    0.7520   18.0456   42.2747 N   0  0  0  0  0  0  0  0  0  0  0  0
    0.0533   19.1649   41.9258 C   0  0  0  0  0  0  0  0  0  0  0  0
    0.0112   20.4244   42.3997 N   0  0  0  0  0  0  0  0  0  0  0  0
    0.7907   20.9497   43.5255 C   0  0  0  0  0  0  0  0  0  0  0  0
   -0.8571   21.1098   41.6733 N   0  0  0  0  0  0  0  0  0  0  0  0
   -1.3980   20.3440   40.7254 C   0  0  0  0  0  0  0  0  0  0  0  0
   -0.8304   19.0955   40.8680 C   0  0  0  0  0  0  0  0  0  0  0  0
   -0.9946   17.9052   40.1825 C   0  0  0  0  0  0  0  0  0  0  0  0
   -1.9002   17.7924   39.0811 N   0  0  0  0  0  0  0  0  0  0  0  0
    0.4931   14.4787   40.4922 H   0  0  0  0  0  0  0  0  0  0  0  0
    1.7535   12.4454   41.1157 H   0  0  0  0  0  0  0  0  0  0  0  0
    3.3113   12.5614   42.9778 H   0  0  0  0  0  0  0  0  0  0  0  0
    2.4181   16.6047   43.6166 H   0  0  0  0  0  0  0  0  0  0  0  0
    0.8846   22.0412   43.3608 H   0  0  0  0  0  0  0  0  0  0  0  0
    0.2110   20.8570   44.4765 H   0  0  0  0  0  0  0  0  0  0  0  0
    1.7474   20.4271   43.6074 H   0  0  0  0  0  0  0  0  0  0  0  0
   -2.1345   20.5767   39.9644 H   0  0  0  0  0  0  0  0  0  0  0  0
   -1.5559   17.3451   38.1822 H   0  0  0  0  0  0  0  0  0  0  0  0
   -2.8793   18.1489   39.1767 H   0  0  0  0  0  0  0  0  0  0  0  0
  1  2  2  0
  1  6  1  0
  2  3  1  0
  3  4  2  0
  4  5  1  0
  5  6  2  0
  6  7  1  0
  7  8  2  0
  7  9  1  0
  8 16  1  0
  9 10  2  0
 10 11  1  0
 10 15  1  0
 11 12  1  0
 11 13  1  0
 13 14  2  0
 14 15  1  0
 15 16  2  0
 16 17  1  0
  1 18  1  0
  2 19  1  0
  3 20  1  0
  5 21  1  0
 12 22  1  0
 12 23  1  0
 12 24  1  0
 14 25  1  0
 17 26  1  0
 17 27  1  0
M  END
>  <mol_id>  (52) 
2026-09-17-6fnk-s0-n100-0052

>  <rmsd_to_ref>  (52) 
2.795918367350887

>  <pose_kind>  (52) 
conformer

$$$$
6fnk.A
     RDKit          3D

 27 29  0  0  0  0  0  0  0  0999 V2000
    0.5315   17.9063   40.3903 C   0  0  0  0  0  0  0  0  0  0  0  0
    0.0624   17.3000   39.2249 C   0  0  0  0  0  0  0  0  0  0  0  0
   -0.7078   16.1489   39.3045 C   0  0  0  0  0  0  0  0  0  0  0  0
   -1.0159   15.6002   40.5524 N   0  0  0  0  0  0  0  0  0  0  0  0
   -0.5412   16.2114   41.7229 C   0  0  0  0  0  0  0  0  0  0  0  0
    0.2341   17.3667   41.6441 C   0  0  0  0  0  0  0  0  0  0  0  0
    0.7077   17.9723   42.8124 C   0  0  0  0  0  0  0  0  0  0  0  0
    1.5949   18.9754   42.7595 N   0  0  0  0  0  0  0  0  0  0  0  0
    0.2685   17.5540   44.0037 N   0  0  0  0  0  0  0  0  0  0  0  0
    0.7072   18.1058   45.1491 C   0  0  0  0  0  0  0  0  0  0  0  0
    0.4290   17.8484   46.4362 N   0  0  0  0  0  0  0  0  0  0  0  0
   -0.4989   16.8259   46.9287 C   0  0  0  0  0  0  0  0  0  0  0  0
    1.0603   18.6051   47.1750 N   0  0  0  0  0  0  0  0  0  0  0  0
    1.7718   19.4316   46.3909 C   0  0  0  0  0  0  0  0  0  0  0  0
    1.5779   19.1094   45.1050 C   0  0  0  0  0  0  0  0  0  0  0  0
    2.0260   19.5503   43.8975 C   0  0  0  0  0  0  0  0  0  0  0  0
    2.9162   20.5687   43.8156 N   0  0  0  0  0  0  0  0  0  0  0  0
    1.1420   18.8187   40.3214 H   0  0  0  0  0  0  0  0  0  0  0  0
    0.3029   17.7344   38.2433 H   0  0  0  0  0  0  0  0  0  0  0  0
   -1.0758   15.6684   38.3860 H   0  0  0  0  0  0  0  0  0  0  0  0
   -0.7817   15.7777   42.7048 H   0  0  0  0  0  0  0  0  0  0  0  0
    0.0083   16.2013   47.6788 H   0  0  0  0  0  0  0  0  0  0  0  0
   -1.3720   17.3134   47.3872 H   0  0  0  0  0  0  0  0  0  0  0  0
   -0.8293   16.1959   46.0897 H   0  0  0  0  0  0  0  0  0  0  0  0
    2.4154   20.2484   46.7497 H   0  0  0  0  0  0  0  0  0  0  0  0
    3.2593   21.0231   44.6739 H   0  0  0  0  0  0  0  0  0  0  0  0
    3.2497   20.8885   42.8950 H   0  0  0  0  0  0  0  0  0  0  0  0
  1  2  2  0
  1  6  1  0
  2  3  1  0
  3  4  2  0
  4  5  1  0
  5  6  2  0
  6  7  1  0
  7  8  2  0
  7  9  1  0
  8 16  1  0
  9 10  2  0
 10 11  1  0
 10 15  1  0
 11 12  1  0
 11 13  1  0
 13 14  2  0
 14 15  1  0
 15 16  2  0
 16 17  1  0
  1 18  1  0
  2 19  1  0
  3 20  1  0
  5 21  1  0
 12 22  1  0
 12 23  1  0
 12 24  1  0
 14 25  1  0
 17 26  1  0
 17 27  1  0
M  END
>  <mol_id>  (53) 
2026-09-17-6fnk-s0-n100-0053

>  <rmsd_to_ref>  (53) 
2.8418367346989717

>  <pose_kind>  (53) 
rigid

$$$$
6fnk.A
     RDKit          3D

 27 29  0  0  0  0  0  0  0  0999 V2000
    4.1115   18.0842   41.0786 C   0  0  0  0  0  0  0  0  0  0  0  0
    5.2897   17.6022   40.5436 C   0  0  0  0  0  0  0  0  0  0  0  0
    5.1908   16.4401   39.7711 C   0  0  0  0  0  0  0  0  0  0  0  0
    4.0291   15.8369   39.5655 N   0  0  0  0  0  0  0  0  0  0  0  0
    2.9071   16.3241   40.0942 C   0  0  0  0  0  0  0  0  0  0  0  0
    2.8948   17.4588   40.8676 C   0  0  0  0  0  0  0  0  0  0  0  0
    1.6871   18.0199   41.4616 C   0  0  0  0  0  0  0  0  0  0  0  0
    1.7311   19.1388   42.2143 N   0  0  0  0  0  0  0  0  0  0  0  0
    0.5008   17.4128   41.2576 N   0  0  0  0  0  0  0  0  0  0  0  0
   -0.6506   17.9087   41.7973 C   0  0  0  0  0  0  0  0  0  0  0  0
   -1.9399   17.5225   41.7617 N   0  0  0  0  0  0  0  0  0  0  0  0
   -2.4709   16.3502   41.0583 C   0  0  0  0  0  0  0  0  0  0  0  0
   -2.6487   18.3848   42.4726 N   0  0  0  0  0  0  0  0  0  0  0  0
   -1.8696   19.3384   42.9836 C   0  0  0  0  0  0  0  0  0  0  0  0
   -0.5871   19.0540   42.5646 C   0  0  0  0  0  0  0  0  0  0  0  0
    0.6296   19.6778   42.7746 C   0  0  0  0  0  0  0  0  0  0  0  0
    0.7374   20.8661   43.5633 N   0  0  0  0  0  0  0  0  0  0  0  0
    4.1489   18.9862   41.6851 H   0  0  0  0  0  0  0  0  0  0  0  0
    6.2404   18.0968   40.7125 H   0  0  0  0  0  0  0  0  0  0  0  0
    6.1350   16.0799   39.3602 H   0  0  0  0  0  0  0  0  0  0  0  0
    1.9894   15.8019   39.9006 H   0  0  0  0  0  0  0  0  0  0  0  0
   -3.4019   16.0622   41.5853 H   0  0  0  0  0  0  0  0  0  0  0  0
   -2.8049   16.6324   40.0297 H   0  0  0  0  0  0  0  0  0  0  0  0
   -1.7203   15.5566   41.0133 H   0  0  0  0  0  0  0  0  0  0  0  0
   -2.1139   20.1915   43.6065 H   0  0  0  0  0  0  0  0  0  0  0  0
    1.4820   20.9104   44.3186 H   0  0  0  0  0  0  0  0  0  0  0  0
    0.0872   21.6664   43.3860 H   0  0  0  0  0  0  0  0  0  0  0  0
  1  2  2  0
  1  6  1  0
  2  3  1  0
  3  4  2  0
  4  5  1  0
  5  6  2  0
  6  7  1  0
  7  8  2  0
  7  9  1  0
  8 16  1  0
  9 10  2  0
 10 11  1  0
 10 15  1  0
 11 12  1  0
 11 13  1  0
 13 14  2  0
 14 15  1  0
 15 16  2  0
 16 17  1  0
  1 18  1  0
  2 19  1  0
  3 20  1  0
  5 21  1  0
 12 22  1  0
 12 23  1  0
 12 24  1  0
 14 25  1  0
 17 26  1  0
 17 27  1  0
M  END
>  <mol_id>  (54) 
2026-09-17-6fnk-s0-n100-0054

>  <rmsd_to_ref>  (54) 
2.887755102040955

>  <pose_kind>  (54) 
conformer

$$$$
6fnk.A
     RDKit          3D

 27 29  0  0  0  0  0  0  0  0999 V2000
    3.3736   19.0747   40.2035 C   0  0  0  0  0  0  0  0  0  0  0  0
    4.4661   18.8227   39.3734 C   0  0  0  0  0  0  0  0  0  0  0  0
    4.8240   17.5156   39.0772 C   0  0  0  0  0  0  0  0  0  0  0  0
    4.0875   16.4529   39.6078 N   0  0  0  0  0  0  0  0  0  0  0  0
    2.9901   16.7095   40.4438 C   0  0  0  0  0  0  0  0  0  0  0  0
    2.6307   18.0222   40.7435 C   0  0  0  0  0  0  0  0  0  0  0  0
    1.5378   18.2748   41.5789 C   0  0  0  0  0  0  0  0  0  0  0  0
    1.2792   19.5128   42.0222 N   0  0  0  0  0  0  0  0  0  0  0  0
    0.7305   17.2722   41.9398 N   0  0  0  0  0  0  0  0  0  0  0  0
   -0.3249   17.4746   42.7485 C   0  0  0  0  0  0  0  0  0  0  0  0
   -1.2477   16.6394   43.2495 N   0  0  0  0  0  0  0  0  0  0  0  0
   -1.3265   15.1962   43.0043 C   0  0  0  0  0  0  0  0  0  0  0  0
   -2.0499   17.2534   43.9542 N   0  0  0  0  0  0  0  0  0  0  0  0
   -1.7028   18.5505   43.9219 C   0  0  0  0  0  0  0  0  0  0  0  0
   -0.5957   18.7015   43.1827 C   0  0  0  0  0  0  0  0  0  0  0  0
    0.2139   19.7324   42.8150 C   0  0  0  0  0  0  0  0  0  0  0  0
   -0.0304   20.9951   43.2420 N   0  0  0  0  0  0  0  0  0  0  0  0
    3.0943   20.1131   40.4352 H   0  0  0  0  0  0  0  0  0  0  0  0
    5.0432   19.6599   38.9539 H   0  0  0  0  0  0  0  0  0  0  0  0
    5.6871   17.3156   38.4252 H   0  0  0  0  0  0  0  0  0  0  0  0
    2.4123   15.8728   40.8634 H   0  0  0  0  0  0  0  0  0  0  0  0
   -1.3909   14.6641   43.9649 H   0  0  0  0  0  0  0  0  0  0  0  0
   -2.2200   14.9749   42.4020 H   0  0  0  0  0  0  0  0  0  0  0  0
   -0.4280   14.8668   42.4621 H   0  0  0  0  0  0  0  0  0  0  0  0
   -2.2447   19.3646   44.4256 H   0  0  0  0  0  0  0  0  0  0  0  0
   -0.8402   21.1857   43.8494 H   0  0  0  0  0  0  0  0  0  0  0  0
    0.5935   21.7642   42.9591 H   0  0  0  0  0  0  0  0  0  0  0  0
  1  2  2  0
  1  6  1  0
  2  3  1  0
  3  4  2  0
  4  5  1  0
  5  6  2  0
  6  7  1  0
  7  8  2  0
  7  9  1  0
  8 16  1  0
  9 10  2  0
 10 11  1  0
 10 15  1  0
 11 12  1  0
 11 13  1  0
 13 14  2  0
 14 15  1  0
 15 16  2  0
 16 17  1  0
  1 18  1  0
  2 19  1  0
  3 20  1  0
  5 21  1  0
 12 22  1  0
 12 23  1  0
 12 24  1  0
 14 25  1  0
 17 26  1  0
 17 27  1  0
M  END
>  <mol_id>  (55) 
2026-09-17-6fnk-s0-n100-0055

>  <rmsd_to_ref>  (55) 
2.9336734693885553

>  <pose_kind>  (55) 
rigid

$$$$
6fnk.A
     RDKit          3D

 27 29  0  0  0  0  0  0  0  0999 V2000
    3.7265   17.4739   42.3243 C   0  0  0  0  0  0  0  0  0  0  0  0
    4.2831   16.5585   41.4532 C   0  0  0  0  0  0  0  0  0  0  0  0
    3.6435   16.4089   40.2181 C   0  0  0  0  0  0  0  0  0  0  0  0
    2.5630   17.1083   39.9037 N   0  0  0  0  0  0  0  0  0  0  0  0
    2.0468   17.9854   40.7640 C   0  0  0  0  0  0  0  0  0  0  0  0
    2.5979   18.2077   42.0020 C   0  0  0  0  0  0  0  0  0  0  0  0
    2.0604   19.1587   42.9679 C   0  0  0  0  0  0  0  0  0  0  0  0
    2.6417   19.3385   44.1722 N   0  0  0  0  0  0  0  0  0  0  0  0
    0.9614   19.8747   42.6566 N   0  0  0  0  0  0  0  0  0  0  0  0
    0.4296   20.7739   43.5349 C   0  0  0  0  0  0  0  0  0  0  0  0
   -0.6300   21.6036   43.4942 N   0  0  0  0  0  0  0  0  0  0  0  0
   -1.5658   21.7545   42.3751 C   0  0  0  0  0  0  0  0  0  0  0  0
   -0.6826   22.2621   44.6409 N   0  0  0  0  0  0  0  0  0  0  0  0
    0.3127   21.8963   45.4490 C   0  0  0  0  0  0  0  0  0  0  0  0
    1.0371   20.9451   44.7622 C   0  0  0  0  0  0  0  0  0  0  0  0
    2.1649   20.2110   45.0827 C   0  0  0  0  0  0  0  0  0  0  0  0
    2.8234   20.3593   46.3438 N   0  0  0  0  0  0  0  0  0  0  0  0
    4.1964   17.6175   43.2946 H   0  0  0  0  0  0  0  0  0  0  0  0
    5.1678   15.9861   41.7115 H   0  0  0  0  0  0  0  0  0  0  0  0
    4.1024   15.6802   39.5484 H   0  0  0  0  0  0  0  0  0  0  0  0
    1.1707   18.5294   40.4659 H   0  0  0  0  0  0  0  0  0  0  0  0
   -2.5187   22.1171   42.8088 H   0  0  0  0  0  0  0  0  0  0  0  0
   -1.2325   22.5789   41.6981 H   0  0  0  0  0  0  0  0  0  0  0  0
   -1.6565   20.8165   41.8210 H   0  0  0  0  0  0  0  0  0  0  0  0
    0.5686   22.2280   46.4490 H   0  0  0  0  0  0  0  0  0  0  0  0
    3.0664   19.4868   46.8973 H   0  0  0  0  0  0  0  0  0  0  0  0
    3.0537   21.3163   46.6986 H   0  0  0  0  0  0  0  0  0  0  0  0
  1  2  2  0
  1  6  1  0
  2  3  1  0
  3  4  2  0
  4  5  1  0
  5  6  2  0
  6  7  1  0
  7  8  2  0
  7  9  1  0
  8 16  1  0
  9 10  2  0
 10 11  1  0
 10 15  1  0
 11 12  1  0
 11 13  1  0
 13 14  2  0
 14 15  1  0
 15 16  2  0
 16 17  1  0
  1 18  1  0
  2 19  1  0
  3 20  1  0
  5 21  1  0
 12 22  1  0
 12 23  1  0
 12 24  1  0
 14 25  1  0
 17 26  1  0
 17 27  1  0
M  END
>  <mol_id>  (56) 
2026-09-17-6fnk-s0-n100-0056

>  <rmsd_to_ref>  (56) 
2.979591836734763

>  <pose_kind>  (56) 
conformer

$$$$
6fnk.A
     RDKit          3D

 27 29  0  0  0  0  0  0  0  0999 V2000
    3.1201   16.9002   44.4035 C   0  0  0  0  0  0  0  0  0  0  0  0
    3.2558   15.6011   44.8934 C   0  0  0  0  0  0  0  0  0  0  0  0
    2.1571   14.7548   44.9261 C   0  0  0  0  0  0  0  0  0  0  0  0
    0.9165   15.2034   44.4645 N   0  0  0  0  0  0  0  0  0  0  0  0
    0.7828   16.5112   43.9738 C   0  0  0  0  0  0  0  0  0  0  0  0
    1.8854   17.3629   43.9423 C   0  0  0  0  0  0  0  0  0  0  0  0
    1.7484   18.6666   43.4547 C   0  0  0  0  0  0  0  0  0  0  0  0
    2.7428   19.5570   43.5754 N   0  0  0  0  0  0  0  0  0  0  0  0
    0.6137   19.0358   42.8521 N   0  0  0  0  0  0  0  0  0  0  0  0
    0.4417   20.2827   42.3784 C   0  0  0  0  0  0  0  0  0  0  0  0
   -0.5924   20.8771   41.7639 N   0  0  0  0  0  0  0  0  0  0  0  0
   -1.8756   20.2489   41.4355 C   0  0  0  0  0  0  0  0  0  0  0  0
   -0.3201   22.0474   41.4930 N   0  0  0  0  0  0  0  0  0  0  0  0
    0.9415   22.2704   41.8963 C   0  0  0  0  0  0  0  0  0  0  0  0
    1.4275   21.1684   42.4830 C   0  0  0  0  0  0  0  0  0  0  0  0
    2.5914   20.8019   43.0868 C   0  0  0  0  0  0  0  0  0  0  0  0
    3.6156   21.6800   43.2137 N   0  0  0  0  0  0  0  0  0  0  0  0
    3.9945   17.5671   44.3802 H   0  0  0  0  0  0  0  0  0  0  0  0
    4.2333   15.2481   45.2536 H   0  0  0  0  0  0  0  0  0  0  0  0
    2.2622   13.7312   45.3149 H   0  0  0  0  0  0  0  0  0  0  0  0
   -0.1944   16.8648   43.6132 H   0  0  0  0  0  0  0  0  0  0  0  0
   -2.6974   20.8720   41.8181 H   0  0  0  0  0  0  0  0  0  0  0  0
   -1.9672   20.1511   40.3437 H   0  0  0  0  0  0  0  0  0  0  0  0
   -1.9250   19.2522   41.8984 H   0  0  0  0  0  0  0  0  0  0  0  0
    1.4917   23.2139   41.7650 H   0  0  0  0  0  0  0  0  0  0  0  0
    3.5212   22.6379   42.8470 H   0  0  0  0  0  0  0  0  0  0  0  0
    4.4885   21.3896   43.6770 H   0  0  0  0  0  0  0  0  0  0  0  0
  1  2  2  0
  1  6  1  0
  2  3  1  0
  3  4  2  0
  4  5  1  0
  5  6  2  0
  6  7  1  0
  7  8  2  0
  7  9  1  0
  8 16  1  0
  9 10  2  0
 10 11  1  0
 10 15  1  0
 11 12  1  0
 11 13  1  0
 13 14  2  0
 14 15  1  0
 15 16  2  0
 16 17  1  0
  1 18  1  0
  2 19  1  0
  3 20  1  0
  5 21  1  0
 12 22  1  0
 12 23  1  0
 12 24  1  0
 14 25  1  0
 17 26  1  0
 17 27  1  0
M  END
>  <mol_id>  (57) 
2026-09-17-6fnk-s0-n100-0057

>  <rmsd_to_ref>  (57) 
3.0255102040834014

>  <pose_kind>  (57) 
rigid

$$$$
6fnk.A
     RDKit          3D

 27 29  0  0  0  0  0  0  0  0999 V2000
    4.4073   18.0089   40.0510 C   0  0  0  0  0  0  0  0  0  0  0  0
    4.7417   17.7910   38.7291 C   0  0  0  0  0  0  0  0  0  0  0  0
    3.8421   17.0256   37.9794 C   0  0  0  0  0  0  0  0  0  0  0  0
    2.7309   16.5376   38.5109 N   0  0  0  0  0  0  0  0  0  0  0  0
    2.4329   16.7634   39.7900 C   0  0  0  0  0  0  0  0  0  0  0  0
    3.2480   17.5019   40.6122 C   0  0  0  0  0  0  0  0  0  0  0  0
    2.9538   17.7688   42.0152 C   0  0  0  0  0  0  0  0  0  0  0  0
    3.7902   18.5016   42.7794 N   0  0  0  0  0  0  0  0  0  0  0  0
    1.8254   17.2762   42.5644 N   0  0  0  0  0  0  0  0  0  0  0  0
    1.5166   17.5053   43.8740 C   0  0  0  0  0  0  0  0  0  0  0  0
    0.4885   17.1482   44.6666 N   0  0  0  0  0  0  0  0  0  0  0  0
   -0.6691   16.3409   44.2679 C   0  0  0  0  0  0  0  0  0  0  0  0
    0.7021   17.6523   45.8715 N   0  0  0  0  0  0  0  0  0  0  0  0
    1.8453   18.3373   45.9079 C   0  0  0  0  0  0  0  0  0  0  0  0
    2.3835   18.2568   44.6410 C   0  0  0  0  0  0  0  0  0  0  0  0
    3.5416   18.7628   44.0785 C   0  0  0  0  0  0  0  0  0  0  0  0
    4.4653   19.5460   44.8396 N   0  0  0  0  0  0  0  0  0  0  0  0
    5.0827   18.5997   40.6655 H   0  0  0  0  0  0  0  0  0  0  0  0
    5.6518   18.1910   38.2947 H   0  0  0  0  0  0  0  0  0  0  0  0
    4.1291   16.8681   36.9388 H   0  0  0  0  0  0  0  0  0  0  0  0
    1.5219   16.3481   40.1771 H   0  0  0  0  0  0  0  0  0  0  0  0
   -1.0477   15.8571   45.1900 H   0  0  0  0  0  0  0  0  0  0  0  0
   -1.5061   17.0009   43.9318 H   0  0  0  0  0  0  0  0  0  0  0  0
   -0.3935   15.6385   43.4768 H   0  0  0  0  0  0  0  0  0  0  0  0
    2.3217   18.8734   46.7211 H   0  0  0  0  0  0  0  0  0  0  0  0
    5.4968   19.2988   44.7995 H   0  0  0  0  0  0  0  0  0  0  0  0
    4.1142   20.3434   45.4190 H   0  0  0  0  0  0  0  0  0  0  0  0
  1  2  2  0
  1  6  1  0
  2  3  1  0
  3  4  2  0
  4  5  1  0
  5  6  2  0
  6  7  1  0
  7  8  2  0
  7  9  1  0
  8 16  1  0
  9 10  2  0
 10 11  1  0
 10 15  1  0
 11 12  1  0
 11 13  1  0
 13 14  2  0
 14 15  1  0
 15 16  2  0
 16 17  1  0
  1 18  1  0
  2 19  1  0
  3 20  1  0
  5 21  1  0
 12 22  1  0
 12 23  1  0
 12 24  1  0
 14 25  1  0
 17 26  1  0
 17 27  1  0
M  END
>  <mol_id>  (58) 
2026-09-17-6fnk-s0-n100-0058

>  <rmsd_to_ref>  (58) 
3.071428571433226

>  <pose_kind>  (58) 
conformer

$$$$
6fnk.A
     RDKit          3D

 27 29  0  0  0  0  0  0  0  0999 V2000
    0.6781   18.6725   40.2173 C   0  0  0  0  0  0  0  0  0  0  0  0
    1.3181   18.3298   39.0261 C   0  0  0  0  0  0  0  0  0  0  0  0
    2.5829   17.7609   39.0580 C   0  0  0  0  0  0  0  0  0  0  0  0
    3.2128   17.5283   40.2838 N   0  0  0  0  0  0  0  0  0  0  0  0
    2.5672   17.8755   41.4802 C   0  0  0  0  0  0  0  0  0  0  0  0
    1.2974   18.4489   41.4494 C   0  0  0  0  0  0  0  0  0  0  0  0
    0.6574   18.7961   42.6435 C   0  0  0  0  0  0  0  0  0  0  0  0
   -0.4801   19.5047   42.6366 N   0  0  0  0  0  0  0  0  0  0  0  0
    1.1789   18.4133   43.8134 N   0  0  0  0  0  0  0  0  0  0  0  0
    0.5971   18.7355   44.9824 C   0  0  0  0  0  0  0  0  0  0  0  0
    0.9361   18.4832   46.2558 N   0  0  0  0  0  0  0  0  0  0  0  0
    2.1129   17.7306   46.7007 C   0  0  0  0  0  0  0  0  0  0  0  0
    0.1079   18.9677   47.0282 N   0  0  0  0  0  0  0  0  0  0  0  0
   -0.8486   19.5442   46.2821 C   0  0  0  0  0  0  0  0  0  0  0  0
   -0.5380   19.4275   44.9841 C   0  0  0  0  0  0  0  0  0  0  0  0
   -1.0836   19.8155   43.7987 C   0  0  0  0  0  0  0  0  0  0  0  0
   -2.2377   20.5249   43.7634 N   0  0  0  0  0  0  0  0  0  0  0  0
   -0.3247   19.1236   40.1862 H   0  0  0  0  0  0  0  0  0  0  0  0
    0.8201   18.5106   38.0621 H   0  0  0  0  0  0  0  0  0  0  0  0
    3.0897   17.4930   38.1192 H   0  0  0  0  0  0  0  0  0  0  0  0
    3.0645   17.6947   42.4446 H   0  0  0  0  0  0  0  0  0  0  0  0
    2.6672   18.3225   47.4439 H   0  0  0  0  0  0  0  0  0  0  0  0
    1.7913   16.7813   47.1538 H   0  0  0  0  0  0  0  0  0  0  0  0
    2.7632   17.5234   45.8380 H   0  0  0  0  0  0  0  0  0  0  0  0
   -1.7495   20.0370   46.6765 H   0  0  0  0  0  0  0  0  0  0  0  0
   -2.7163   20.7737   44.6409 H   0  0  0  0  0  0  0  0  0  0  0  0
   -2.6362   20.8154   42.8591 H   0  0  0  0  0  0  0  0  0  0  0  0
  1  2  2  0
  1  6  1  0
  2  3  1  0
  3  4  2  0
  4  5  1  0
  5  6  2  0
  6  7  1  0
  7  8  2  0
  7  9  1  0
  8 16  1  0
  9 10  2  0
 10 11  1  0
 10 15  1  0
 11 12  1  0
 11 13  1  0
 13 14  2  0
 14 15  1  0
 15 16  2  0
 16 17  1  0
  1 18  1  0
  2 19  1  0
  3 20  1  0
  5 21  1  0
 12 22  1  0
 12 23  1  0
 12 24  1  0
 14 25  1  0
 17 26  1  0
 17 27  1  0
M  END
>  <mol_id>  (59) 
2026-09-17-6fnk-s0-n100-0059

>  <rmsd_to_ref>  (59) 
3.117346938778266

>  <pose_kind>  (59) 
rigid

$$$$
6fnk.A
     RDKit          3D

 27 29  0  0  0  0  0  0  0  0999 V2000
    1.5840   13.9545   41.6427 C   0  0  0  0  0  0  0  0  0  0  0  0
    0.9735   12.7164   41.6714 C   0  0  0  0  0  0  0  0  0  0  0  0
   -0.4102   12.7113   41.8772 C   0  0  0  0  0  0  0  0  0  0  0  0
   -1.0951   13.8344   42.0357 N   0  0  0  0  0  0  0  0  0  0  0  0
   -0.4801   15.0161   42.0034 C   0  0  0  0  0  0  0  0  0  0  0  0
    0.8742   15.1314   41.8075 C   0  0  0  0  0  0  0  0  0  0  0  0
    1.5800   16.4067   41.7665 C   0  0  0  0  0  0  0  0  0  0  0  0
    2.9138   16.4635   41.5707 N   0  0  0  0  0  0  0  0  0  0  0  0
    0.8911   17.5544   41.9268 N   0  0  0  0  0  0  0  0  0  0  0  0
    1.5174   18.7668   41.8945 C   0  0  0  0  0  0  0  0  0  0  0  0
    1.0952   20.0390   42.0212 N   0  0  0  0  0  0  0  0  0  0  0  0
   -0.2877   20.4710   42.2489 C   0  0  0  0  0  0  0  0  0  0  0  0
    2.1454   20.8356   41.9049 N   0  0  0  0  0  0  0  0  0  0  0  0
    3.2599   20.1322   41.7035 C   0  0  0  0  0  0  0  0  0  0  0  0
    2.8821   18.8061   41.6932 C   0  0  0  0  0  0  0  0  0  0  0  0
    3.5900   17.6291   41.5286 C   0  0  0  0  0  0  0  0  0  0  0  0
    5.0047   17.6275   41.3178 N   0  0  0  0  0  0  0  0  0  0  0  0
    2.6592   13.9984   41.4848 H   0  0  0  0  0  0  0  0  0  0  0  0
    1.5352   11.7973   41.5416 H   0  0  0  0  0  0  0  0  0  0  0  0
   -0.8683   11.7214   41.8957 H   0  0  0  0  0  0  0  0  0  0  0  0
   -1.0758   15.8992   42.1365 H   0  0  0  0  0  0  0  0  0  0  0  0
   -0.2305   21.4560   42.7530 H   0  0  0  0  0  0  0  0  0  0  0  0
   -0.7944   20.6816   41.2753 H   0  0  0  0  0  0  0  0  0  0  0  0
   -0.8392   19.7133   42.8120 H   0  0  0  0  0  0  0  0  0  0  0  0
    4.2853   20.4572   41.5672 H   0  0  0  0  0  0  0  0  0  0  0  0
    5.6065   16.9795   41.9050 H   0  0  0  0  0  0  0  0  0  0  0  0
    5.4216   18.2588   40.5951 H   0  0  0  0  0  0  0  0  0  0  0  0
  1  2  2  0
  1  6  1  0
  2  3  1  0
  3  4  2  0
  4  5  1  0
  5  6  2  0
  6  7  1  0
  7  8  2  0
  7  9  1  0
  8 16  1  0
  9 10  2  0
 10 11  1  0
 10 15  1  0
 11 12  1  0
 11 13  1  0
 13 14  2  0
 14 15  1  0
 15 16  2  0
 16 17  1  0
  1 18  1  0
  2 19  1  0
  3 20  1  0
  5 21  1  0
 12 22  1  0
 12 23  1  0
 12 24  1  0
 14 25  1  0
 17 26  1  0
 17 27  1  0
M  END
>  <mol_id>  (60) 
2026-09-17-6fnk-s0-n100-0060

>  <rmsd_to_ref>  (60) 
3.1632653061227938

>  <pose_kind>  (60) 
conformer

$$$$
6fnk.A
     RDKit          3D

 27 29  0  0  0  0  0  0  0  0999 V2000
    1.8616   19.2053   39.1764 C   0  0  0  0  0  0  0  0  0  0  0  0
    1.5112   18.8586   37.8714 C   0  0  0  0  0  0  0  0  0  0  0  0
    0.8468   17.6657   37.6262 C   0  0  0  0  0  0  0  0  0  0  0  0
    0.5259   16.8146   38.6873 N   0  0  0  0  0  0  0  0  0  0  0  0
    0.8810   17.1653   39.9987 C   0  0  0  0  0  0  0  0  0  0  0  0
    1.5502   18.3625   40.2461 C   0  0  0  0  0  0  0  0  0  0  0  0
    1.9050   18.7082   41.5540 C   0  0  0  0  0  0  0  0  0  0  0  0
    2.6980   19.7604   41.7991 N   0  0  0  0  0  0  0  0  0  0  0  0
    1.4447   17.9868   42.5809 N   0  0  0  0  0  0  0  0  0  0  0  0
    1.7709   18.2831   43.8516 C   0  0  0  0  0  0  0  0  0  0  0  0
    1.4509   17.7071   45.0204 N   0  0  0  0  0  0  0  0  0  0  0  0
    0.5964   16.5288   45.1942 C   0  0  0  0  0  0  0  0  0  0  0  0
    1.9710   18.3132   45.9581 N   0  0  0  0  0  0  0  0  0  0  0  0
    2.6434   19.3544   45.4404 C   0  0  0  0  0  0  0  0  0  0  0  0
    2.5469   19.3325   44.1043 C   0  0  0  0  0  0  0  0  0  0  0  0
    3.0148   20.0803   43.0675 C   0  0  0  0  0  0  0  0  0  0  0  0
    3.8109   21.1545   43.2884 N   0  0  0  0  0  0  0  0  0  0  0  0
    2.3886   20.1522   39.3651 H   0  0  0  0  0  0  0  0  0  0  0  0
    1.7616   19.5306   37.0373 H   0  0  0  0  0  0  0  0  0  0  0  0
    0.5726   17.3899   36.5972 H   0  0  0  0  0  0  0  0  0  0  0  0
    0.6307   16.4939   40.8333 H   0  0  0  0  0  0  0  0  0  0  0  0
    1.1191   15.7850   45.8136 H   0  0  0  0  0  0  0  0  0  0  0  0
   -0.3403   16.8249   45.6891 H   0  0  0  0  0  0  0  0  0  0  0  0
    0.3692   16.0922   44.2105 H   0  0  0  0  0  0  0  0  0  0  0  0
    3.1898   20.1097   46.0243 H   0  0  0  0  0  0  0  0  0  0  0  0
    4.0659   21.4173   44.2511 H   0  0  0  0  0  0  0  0  0  0  0  0
    4.1610   21.7082   42.4936 H   0  0  0  0  0  0  0  0  0  0  0  0
  1  2  2  0
  1  6  1  0
  2  3  1  0
  3  4  2  0
  4  5  1  0
  5  6  2  0
  6  7  1  0
  7  8  2  0
  7  9  1  0
  8 16  1  0
  9 10  2  0
 10 11  1  0
 10 15  1  0
 11 12  1  0
 11 13  1  0
 13 14  2  0
 14 15  1  0
 15 16  2  0
 16 17  1  0
  1 18  1  0
  2 19  1  0
  3 20  1  0
  5 21  1  0
 12 22  1  0
 12 23  1  0
 12 24  1  0
 14 25  1  0
 17 26  1  0
 17 27  1  0
M  END
>  <mol_id>  (61) 
2026-09-17-6fnk-s0-n100-0061

>  <rmsd_to_ref>  (61) 
3.209183673472281

>  <pose_kind>  (61) 
rigid

$$$$
6fnk.A
     RDKit          3D

 27 29  0  0  0  0  0  0  0  0999 V2000
    1.8934   18.0607   39.1347 C   0  0  0  0  0  0  0  0  0  0  0  0
    1.9181   17.8021   37.7786 C   0  0  0  0  0  0  0  0  0  0  0  0
    2.0227   16.4581   37.4049 C   0  0  0  0  0  0  0  0  0  0  0  0
    2.0940   15.4882   38.3048 N   0  0  0  0  0  0  0  0  0  0  0  0
    2.0679   15.7665   39.6077 C   0  0  0  0  0  0  0  0  0  0  0  0
    1.9675   17.0521   40.0799 C   0  0  0  0  0  0  0  0  0  0  0  0
    1.9363   17.3933   41.4972 C   0  0  0  0  0  0  0  0  0  0  0  0
    1.8364   18.6748   41.9074 N   0  0  0  0  0  0  0  0  0  0  0  0
    2.0083   16.4129   42.4198 N   0  0  0  0  0  0  0  0  0  0  0  0
    1.9820   16.6938   43.7552 C   0  0  0  0  0  0  0  0  0  0  0  0
    2.0359   15.9391   44.8689 N   0  0  0  0  0  0  0  0  0  0  0  0
    2.1480   14.4775   44.9167 C   0  0  0  0  0  0  0  0  0  0  0  0
    1.9703   16.7447   45.9167 N   0  0  0  0  0  0  0  0  0  0  0  0
    1.8739   18.0186   45.5358 C   0  0  0  0  0  0  0  0  0  0  0  0
    1.8794   18.0101   44.1570 C   0  0  0  0  0  0  0  0  0  0  0  0
    1.8055   19.0169   43.2111 C   0  0  0  0  0  0  0  0  0  0  0  0
    1.6985   20.3929   43.5867 N   0  0  0  0  0  0  0  0  0  0  0  0
    1.8129   19.0942   39.4635 H   0  0  0  0  0  0  0  0  0  0  0  0
    1.8598   18.5969   37.0424 H   0  0  0  0  0  0  0  0  0  0  0  0
    2.0402   16.2805   36.3286 H   0  0  0  0  0  0  0  0  0  0  0  0
    2.1282   14.9484   40.3001 H   0  0  0  0  0  0  0  0  0  0  0  0
    2.6223   14.2301   45.8869 H   0  0  0  0  0  0  0  0  0  0  0  0
    1.1337   14.0115   44.9718 H   0  0  0  0  0  0  0  0  0  0  0  0
    2.6939   14.1054   44.0457 H   0  0  0  0  0  0  0  0  0  0  0  0
    1.8020   18.9276   46.1224 H   0  0  0  0  0  0  0  0  0  0  0  0
    2.3488   21.0973   43.1311 H   0  0  0  0  0  0  0  0  0  0  0  0
    0.9878   20.6820   44.2980 H   0  0  0  0  0  0  0  0  0  0  0  0
  1  2  2  0
  1  6  1  0
  2  3  1  0
  3  4  2  0
  4  5  1  0
  5  6  2  0
  6  7  1  0
  7  8  2  0
  7  9  1  0
  8 16  1  0
  9 10  2  0
 10 11  1  0
 10 15  1  0
 11 12  1  0
 11 13  1  0
 13 14  2  0
 14 15  1  0
 15 16  2  0
 16 17  1  0
  1 18  1  0
  2 19  1  0
  3 20  1  0
  5 21  1  0
 12 22  1  0
 12 23  1  0
 12 24  1  0
 14 25  1  0
 17 26  1  0
 17 27  1  0
M  END
>  <mol_id>  (62) 
2026-09-17-6fnk-s0-n100-0062

>  <rmsd_to_ref>  (62) 
3.2551020408205225

>  <pose_kind>  (62) 
conformer

$$$$
6fnk.A
     RDKit          3D

 27 29  0  0  0  0  0  0  0  0999 V2000
    0.4836   13.9857   42.2020 C   0  0  0  0  0  0  0  0  0  0  0  0
    0.0175   12.8547   42.8726 C   0  0  0  0  0  0  0  0  0  0  0  0
   -0.4487   12.9643   44.1745 C   0  0  0  0  0  0  0  0  0  0  0  0
   -0.4543   14.2083   44.8114 N   0  0  0  0  0  0  0  0  0  0  0  0
    0.0166   15.3439   44.1350 C   0  0  0  0  0  0  0  0  0  0  0  0
    0.4869   15.2347   42.8277 C   0  0  0  0  0  0  0  0  0  0  0  0
    0.9579   16.3679   42.1568 C   0  0  0  0  0  0  0  0  0  0  0  0
    1.5746   16.2622   40.9716 N   0  0  0  0  0  0  0  0  0  0  0  0
    0.7882   17.5791   42.6966 N   0  0  0  0  0  0  0  0  0  0  0  0
    1.2349   18.6908   42.0856 C   0  0  0  0  0  0  0  0  0  0  0  0
    1.1959   19.9861   42.4335 N   0  0  0  0  0  0  0  0  0  0  0  0
    0.6025   20.5313   43.6581 C   0  0  0  0  0  0  0  0  0  0  0  0
    1.7274   20.6828   41.5679 N   0  0  0  0  0  0  0  0  0  0  0  0
    2.1190   19.8643   40.5774 C   0  0  0  0  0  0  0  0  0  0  0  0
    1.8367   18.5960   40.9041 C   0  0  0  0  0  0  0  0  0  0  0  0
    2.0076   17.3689   40.3399 C   0  0  0  0  0  0  0  0  0  0  0  0
    2.6199   17.2351   39.1384 N   0  0  0  0  0  0  0  0  0  0  0  0
    0.8524   13.8930   41.1698 H   0  0  0  0  0  0  0  0  0  0  0  0
    0.0197   11.8766   42.3693 H   0  0  0  0  0  0  0  0  0  0  0  0
   -0.8137   12.0726   44.7053 H   0  0  0  0  0  0  0  0  0  0  0  0
    0.0145   16.3223   44.6376 H   0  0  0  0  0  0  0  0  0  0  0  0
    1.3346   21.1780   44.1639 H   0  0  0  0  0  0  0  0  0  0  0  0
   -0.2912   21.1194   43.4021 H   0  0  0  0  0  0  0  0  0  0  0  0
    0.3187   19.7055   44.3272 H   0  0  0  0  0  0  0  0  0  0  0  0
    2.5982   20.1862   39.6411 H   0  0  0  0  0  0  0  0  0  0  0  0
    2.9591   18.0687   38.6375 H   0  0  0  0  0  0  0  0  0  0  0  0
    2.7461   16.2997   38.7260 H   0  0  0  0  0  0  0  0  0  0  0  0
  1  2  2  0
  1  6  1  0
  2  3  1  0
  3  4  2  0
  4  5  1  0
  5  6  2  0
  6  7  1  0
  7  8  2  0
  7  9  1  0
  8 16  1  0
  9 10  2  0
 10 11  1  0
 10 15  1  0
 11 12  1  0
 11 13  1  0
 13 14  2  0
 14 15  1  0
 15 16  2  0
 16 17  1  0
  1 18  1  0
  2 19  1  0
  3 20  1  0
  5 21  1  0
 12 22  1  0
 12 23  1  0
 12 24  1  0
 14 25  1  0
 17 26  1  0
 17 27  1  0
M  END
>  <mol_id>  (63) 
2026-09-17-6fnk-s0-n100-0063

>  <rmsd_to_ref>  (63) 
3.301020408171018

>  <pose_kind>  (63) 
rigid

$$$$
6fnk.A
     RDKit          3D

 27 29  0  0  0  0  0  0  0  0999 V2000
    3.0247   16.1295   40.6805 C   0  0  0  0  0  0  0  0  0  0  0  0
    4.3780   15.9022   40.8335 C   0  0  0  0  0  0  0  0  0  0  0  0
    4.9801   16.4745   41.9591 C   0  0  0  0  0  0  0  0  0  0  0  0
    4.2875   17.1948   42.8292 N   0  0  0  0  0  0  0  0  0  0  0  0
    2.9819   17.3983   42.6568 C   0  0  0  0  0  0  0  0  0  0  0  0
    2.2955   16.8810   41.5858 C   0  0  0  0  0  0  0  0  0  0  0  0
    0.8684   17.0833   41.3655 C   0  0  0  0  0  0  0  0  0  0  0  0
    0.2424   16.5518   40.2949 N   0  0  0  0  0  0  0  0  0  0  0  0
    0.1558   17.8148   42.2457 N   0  0  0  0  0  0  0  0  0  0  0  0
   -1.1815   18.0256   42.0727 C   0  0  0  0  0  0  0  0  0  0  0  0
   -2.1188   18.6947   42.7702 N   0  0  0  0  0  0  0  0  0  0  0  0
   -1.9017   19.4364   44.0167 C   0  0  0  0  0  0  0  0  0  0  0  0
   -3.2735   18.5682   42.1363 N   0  0  0  0  0  0  0  0  0  0  0  0
   -3.1358   17.8326   41.0330 C   0  0  0  0  0  0  0  0  0  0  0  0
   -1.8056   17.4745   40.9720 C   0  0  0  0  0  0  0  0  0  0  0  0
   -1.0755   16.7237   40.0682 C   0  0  0  0  0  0  0  0  0  0  0  0
   -1.6851   16.1360   38.9155 N   0  0  0  0  0  0  0  0  0  0  0  0
    2.5217   15.7003   39.8170 H   0  0  0  0  0  0  0  0  0  0  0  0
    4.9443   15.3123   40.1205 H   0  0  0  0  0  0  0  0  0  0  0  0
    6.0491   16.2802   42.0570 H   0  0  0  0  0  0  0  0  0  0  0  0
    2.4621   17.9884   43.3875 H   0  0  0  0  0  0  0  0  0  0  0  0
   -2.6934   20.2100   44.0643 H   0  0  0  0  0  0  0  0  0  0  0  0
   -2.0967   18.7789   44.8992 H   0  0  0  0  0  0  0  0  0  0  0  0
   -0.8848   19.8362   44.0538 H   0  0  0  0  0  0  0  0  0  0  0  0
   -3.8647   17.5333   40.2882 H   0  0  0  0  0  0  0  0  0  0  0  0
   -1.2218   16.2702   37.9699 H   0  0  0  0  0  0  0  0  0  0  0  0
   -2.5701   15.5877   39.0202 H   0  0  0  0  0  0  0  0  0  0  0  0
  1  2  2  0
  1  6  1  0
  2  3  1  0
  3  4  2  0
  4  5  1  0
  5  6  2  0
  6  7  1  0
  7  8  2  0
  7  9  1  0
  8 16  1  0
  9 10  2  0
 10 11  1  0
 10 15  1  0
 11 12  1  0
 11 13  1  0
 13 14  2  0
 14 15  1  0
 15 16  2  0
 16 17  1  0
  1 18  1  0
  2 19  1  0
  3 20  1  0
  5 21  1  0
 12 22  1  0
 12 23  1  0
 12 24  1  0
 14 25  1  0
 17 26  1  0
 17 27  1  0
M  END
>  <mol_id>  (64) 
2026-09-17-6fnk-s0-n100-0064

>  <rmsd_to_ref>  (64) 
3.346938775513577

>  <pose_kind>  (64) 
conformer

$$$$
6fnk.A
     RDKit          3D

 27 29  0  0  0  0  0  0  0  0999 V2000
    1.9670   19.3534   40.9572 C   0  0  0  0  0  0  0  0  0  0  0  0
    3.1683   19.4442   40.2539 C   0  0  0  0  0  0  0  0  0  0  0  0
    4.2491   18.6575   40.6246 C   0  0  0  0  0  0  0  0  0  0  0  0
    4.1319   17.7723   41.6997 N   0  0  0  0  0  0  0  0  0  0  0  0
    2.9228   17.6843   42.4062 C   0  0  0  0  0  0  0  0  0  0  0  0
    1.8369   18.4755   42.0360 C   0  0  0  0  0  0  0  0  0  0  0  0
    0.6337   18.3873   42.7435 C   0  0  0  0  0  0  0  0  0  0  0  0
   -0.3626   19.2561   42.5226 N   0  0  0  0  0  0  0  0  0  0  0  0
    0.4649   17.4204   43.6511 N   0  0  0  0  0  0  0  0  0  0  0  0
   -0.6743   17.3089   44.3572 C   0  0  0  0  0  0  0  0  0  0  0  0
   -1.0603   16.4493   45.3124 N   0  0  0  0  0  0  0  0  0  0  0  0
   -0.2644   15.3391   45.8445 C   0  0  0  0  0  0  0  0  0  0  0  0
   -2.2027   16.7092   45.6923 N   0  0  0  0  0  0  0  0  0  0  0  0
   -2.6401   17.7519   44.9674 C   0  0  0  0  0  0  0  0  0  0  0  0
   -1.6720   18.1589   44.1355 C   0  0  0  0  0  0  0  0  0  0  0  0
   -1.5156   19.1426   43.2074 C   0  0  0  0  0  0  0  0  0  0  0  0
   -2.5105   20.0284   42.9584 N   0  0  0  0  0  0  0  0  0  0  0  0
    1.1132   19.9797   40.6592 H   0  0  0  0  0  0  0  0  0  0  0  0
    3.2585   20.1391   39.4060 H   0  0  0  0  0  0  0  0  0  0  0  0
    5.1978   18.7304   40.0726 H   0  0  0  0  0  0  0  0  0  0  0  0
    2.8318   16.9894   43.2540 H   0  0  0  0  0  0  0  0  0  0  0  0
   -0.2369   15.4009   46.9424 H   0  0  0  0  0  0  0  0  0  0  0  0
   -0.7190   14.3842   45.5422 H   0  0  0  0  0  0  0  0  0  0  0  0
    0.7599   15.3993   45.4481 H   0  0  0  0  0  0  0  0  0  0  0  0
   -3.6404   18.2029   45.0449 H   0  0  0  0  0  0  0  0  0  0  0  0
   -3.4012   19.9599   43.4711 H   0  0  0  0  0  0  0  0  0  0  0  0
   -2.3759   20.7701   42.2566 H   0  0  0  0  0  0  0  0  0  0  0  0
  1  2  2  0
  1  6  1  0
  2  3  1  0
  3  4  2  0
  4  5  1  0
  5  6  2  0
  6  7  1  0
  7  8  2  0
  7  9  1  0
  8 16  1  0
  9 10  2  0
 10 11  1  0
 10 15  1  0
 11 12  1  0
 11 13  1  0
 13 14  2  0
 14 15  1  0
 15 16  2  0
 16 17  1  0
  1 18  1  0
  2 19  1  0
  3 20  1  0
  5 21  1  0
 12 22  1  0
 12 23  1  0
 12 24  1  0
 14 25  1  0
 17 26  1  0
 17 27  1  0
M  END
>  <mol_id>  (65) 
2026-09-17-6fnk-s0-n100-0065

>  <rmsd_to_ref>  (65) 
3.39285714286077

>  <pose_kind>  (65) 
rigid

$$$$
6fnk.A
     RDKit          3D

 27 29  0  0  0  0  0  0  0  0999 V2000
    3.3085   19.4865   41.7670 C   0  0  0  0  0  0  0  0  0  0  0  0
    4.6852   19.4361   41.8601 C   0  0  0  0  0  0  0  0  0  0  0  0
    5.2322   18.2356   42.3255 C   0  0  0  0  0  0  0  0  0  0  0  0
    4.4690   17.2048   42.6579 N   0  0  0  0  0  0  0  0  0  0  0  0
    3.1423   17.2811   42.5581 C   0  0  0  0  0  0  0  0  0  0  0  0
    2.5056   18.4133   42.1127 C   0  0  0  0  0  0  0  0  0  0  0  0
    1.0574   18.5321   41.9908 C   0  0  0  0  0  0  0  0  0  0  0  0
    0.4825   19.6692   41.5470 N   0  0  0  0  0  0  0  0  0  0  0  0
    0.2730   17.4884   42.3269 N   0  0  0  0  0  0  0  0  0  0  0  0
   -1.0861   17.5625   42.2261 C   0  0  0  0  0  0  0  0  0  0  0  0
   -2.0893   16.7023   42.4836 N   0  0  0  0  0  0  0  0  0  0  0  0
   -1.9442   15.3329   42.9883 C   0  0  0  0  0  0  0  0  0  0  0  0
   -3.2328   17.3061   42.2024 N   0  0  0  0  0  0  0  0  0  0  0  0
   -3.0234   18.5474   41.7634 C   0  0  0  0  0  0  0  0  0  0  0  0
   -1.6572   18.7333   41.7703 C   0  0  0  0  0  0  0  0  0  0  0  0
   -0.8533   19.8049   41.4252 C   0  0  0  0  0  0  0  0  0  0  0  0
   -1.4063   21.0350   40.9488 N   0  0  0  0  0  0  0  0  0  0  0  0
    2.8469   20.4039   41.4090 H   0  0  0  0  0  0  0  0  0  0  0  0
    5.3094   20.2806   41.5877 H   0  0  0  0  0  0  0  0  0  0  0  0
    6.3212   18.2213   42.3899 H   0  0  0  0  0  0  0  0  0  0  0  0
    2.5646   16.4209   42.8387 H   0  0  0  0  0  0  0  0  0  0  0  0
   -2.8893   15.0893   43.5126 H   0  0  0  0  0  0  0  0  0  0  0  0
   -1.8982   14.6083   42.1387 H   0  0  0  0  0  0  0  0  0  0  0  0
   -1.0520   15.2467   43.6143 H   0  0  0  0  0  0  0  0  0  0  0  0
   -3.7239   19.3124   41.4478 H   0  0  0  0  0  0  0  0  0  0  0  0
   -1.0743   21.9448   41.3831 H   0  0  0  0  0  0  0  0  0  0  0  0
   -2.1230   21.0201   40.1867 H   0  0  0  0  0  0  0  0  0  0  0  0
  1  2  2  0
  1  6  1  0
  2  3  1  0
  3  4  2  0
  4  5  1  0
  5  6  2  0
  6  7  1  0
  7  8  2  0
  7  9  1  0
  8 16  1  0
  9 10  2  0
 10 11  1  0
 10 15  1  0
 11 12  1  0
 11 13  1  0
 13 14  2  0
 14 15  1  0
 15 16  2  0
 16 17  1  0
  1 18  1  0
  2 19  1  0
  3 20  1  0
  5 21  1  0
 12 22  1  0
 12 23  1  0
 12 24  1  0
 14 25  1  0
 17 26  1  0
 17 27  1  0
M  END
>  <mol_id>  (66) 
2026-09-17-6fnk-s0-n100-0066

>  <rmsd_to_ref>  (66) 
3.4387755102092874

>  <pose_kind>  (66) 
conformer

$$$$
6fnk.A
     RDKit          3D

 27 29  0  0  0  0  0  0  0  0999 V2000
    3.8365   20.2838   41.1047 C   0  0  0  0  0  0  0  0  0  0  0  0
    4.8214   20.2596   40.1172 C   0  0  0  0  0  0  0  0  0  0  0  0
    4.8836   19.1978   39.2266 C   0  0  0  0  0  0  0  0  0  0  0  0
    3.9570   18.1555   39.3176 N   0  0  0  0  0  0  0  0  0  0  0  0
    2.9683   18.1818   40.3129 C   0  0  0  0  0  0  0  0  0  0  0  0
    2.9061   19.2471   41.2093 C   0  0  0  0  0  0  0  0  0  0  0  0
    1.9209   19.2694   42.2019 C   0  0  0  0  0  0  0  0  0  0  0  0
    1.9462   20.1859   43.1793 N   0  0  0  0  0  0  0  0  0  0  0  0
    0.9322   18.3700   42.1782 N   0  0  0  0  0  0  0  0  0  0  0  0
   -0.0279   18.3545   43.1199 C   0  0  0  0  0  0  0  0  0  0  0  0
   -1.0891   17.5558   43.3098 N   0  0  0  0  0  0  0  0  0  0  0  0
   -1.4807   16.4276   42.4596 C   0  0  0  0  0  0  0  0  0  0  0  0
   -1.7182   17.9027   44.3103 N   0  0  0  0  0  0  0  0  0  0  0  0
   -1.1051   18.9859   44.8153 C   0  0  0  0  0  0  0  0  0  0  0  0
   -0.0172   19.2677   44.0859 C   0  0  0  0  0  0  0  0  0  0  0  0
    0.9796   20.1945   44.1158 C   0  0  0  0  0  0  0  0  0  0  0  0
    1.0235   21.1375   45.0880 N   0  0  0  0  0  0  0  0  0  0  0  0
    3.7920   21.1281   41.8084 H   0  0  0  0  0  0  0  0  0  0  0  0
    5.5484   21.0820   40.0447 H   0  0  0  0  0  0  0  0  0  0  0  0
    5.6617   19.1762   38.4494 H   0  0  0  0  0  0  0  0  0  0  0  0
    2.2409   17.3599   40.3859 H   0  0  0  0  0  0  0  0  0  0  0  0
   -1.6235   15.5318   43.0819 H   0  0  0  0  0  0  0  0  0  0  0  0
   -2.4209   16.6678   41.9416 H   0  0  0  0  0  0  0  0  0  0  0  0
   -0.6916   16.2365   41.7175 H   0  0  0  0  0  0  0  0  0  0  0  0
   -1.4444   19.5547   45.6935 H   0  0  0  0  0  0  0  0  0  0  0  0
    0.2940   21.1624   45.8147 H   0  0  0  0  0  0  0  0  0  0  0  0
    1.7864   21.8295   45.1002 H   0  0  0  0  0  0  0  0  0  0  0  0
  1  2  2  0
  1  6  1  0
  2  3  1  0
  3  4  2  0
  4  5  1  0
  5  6  2  0
  6  7  1  0
  7  8  2  0
  7  9  1  0
  8 16  1  0
  9 10  2  0
 10 11  1  0
 10 15  1  0
 11 12  1  0
 11 13  1  0
 13 14  2  0
 14 15  1  0
 15 16  2  0
 16 17  1  0
  1 18  1  0
  2 19  1  0
  3 20  1  0
  5 21  1  0
 12 22  1  0
 12 23  1  0
 12 24  1  0
 14 25  1  0
 17 26  1  0
 17 27  1  0
M  END
>  <mol_id>  (67) 
2026-09-17-6fnk-s0-n100-0067

>  <rmsd_to_ref>  (67) 
3.484693877556446

>  <pose_kind>  (67) 
rigid

$$$$
6fnk.A
     RDKit          3D

 27 29  0  0  0  0  0  0  0  0999 V2000
    2.8966   16.4281   44.8227 C   0  0  0  0  0  0  0  0  0  0  0  0
    3.3930   15.6971   45.8838 C   0  0  0  0  0  0  0  0  0  0  0  0
    2.7608   15.8861   47.1173 C   0  0  0  0  0  0  0  0  0  0  0  0
    1.7418   16.7213   47.2572 N   0  0  0  0  0  0  0  0  0  0  0  0
    1.2829   17.4144   46.2157 C   0  0  0  0  0  0  0  0  0  0  0  0
    1.8324   17.3022   44.9622 C   0  0  0  0  0  0  0  0  0  0  0  0
    1.3566   18.0444   43.8008 C   0  0  0  0  0  0  0  0  0  0  0  0
    1.9334   17.8964   42.5902 N   0  0  0  0  0  0  0  0  0  0  0  0
    0.3203   18.8964   43.9340 N   0  0  0  0  0  0  0  0  0  0  0  0
   -0.1527   19.6081   42.8697 C   0  0  0  0  0  0  0  0  0  0  0  0
   -1.1446   20.5051   42.7134 N   0  0  0  0  0  0  0  0  0  0  0  0
   -2.0506   20.9819   43.7635 C   0  0  0  0  0  0  0  0  0  0  0  0
   -1.1621   20.8840   41.4456 N   0  0  0  0  0  0  0  0  0  0  0  0
   -0.2091   20.2656   40.7480 C   0  0  0  0  0  0  0  0  0  0  0  0
    0.4493   19.4444   41.6387 C   0  0  0  0  0  0  0  0  0  0  0  0
    1.5127   18.5705   41.5010 C   0  0  0  0  0  0  0  0  0  0  0  0
    2.1633   18.3728   40.2426 N   0  0  0  0  0  0  0  0  0  0  0  0
    3.3628   16.3075   43.8475 H   0  0  0  0  0  0  0  0  0  0  0  0
    4.2275   15.0135   45.7683 H   0  0  0  0  0  0  0  0  0  0  0  0
    3.1714   15.2975   47.9389 H   0  0  0  0  0  0  0  0  0  0  0  0
    0.4554   18.0790   46.3766 H   0  0  0  0  0  0  0  0  0  0  0  0
   -2.3961   21.9864   43.4484 H   0  0  0  0  0  0  0  0  0  0  0  0
   -2.9786   20.3596   43.7883 H   0  0  0  0  0  0  0  0  0  0  0  0
   -1.5527   20.9667   44.7367 H   0  0  0  0  0  0  0  0  0  0  0  0
    0.0578   20.3373   39.6996 H   0  0  0  0  0  0  0  0  0  0  0  0
    3.2231   18.4188   40.2043 H   0  0  0  0  0  0  0  0  0  0  0  0
    1.5907   18.1875   39.3867 H   0  0  0  0  0  0  0  0  0  0  0  0
  1  2  2  0
  1  6  1  0
  2  3  1  0
  3  4  2  0
  4  5  1  0
  5  6  2  0
  6  7  1  0
  7  8  2  0
  7  9  1  0
  8 16  1  0
  9 10  2  0
 10 11  1  0
 10 15  1  0
 11 12  1  0
 11 13  1  0
 13 14  2  0
 14 15  1  0
 15 16  2  0
 16 17  1  0
  1 18  1  0
  2 19  1  0
  3 20  1  0
  5 21  1  0
 12 22  1  0
 12 23  1  0
 12 24  1  0
 14 25  1  0
 17 26  1  0
 17 27  1  0
M  END
>  <mol_id>  (68) 
2026-09-17-6fnk-s0-n100-0068

>  <rmsd_to_ref>  (68) 
3.530612244899808

>  <pose_kind>  (68) 
conformer

$$$$
6fnk.A
     RDKit          3D

 27 29  0  0  0  0  0  0  0  0999 V2000
    4.8173   18.2686   44.5179 C   0  0  0  0  0  0  0  0  0  0  0  0
    5.9914   17.9643   45.2071 C   0  0  0  0  0  0  0  0  0  0  0  0
    6.0305   16.8709   46.0600 C   0  0  0  0  0  0  0  0  0  0  0  0
    4.8947   16.0733   46.2247 N   0  0  0  0  0  0  0  0  0  0  0  0
    3.7147   16.3828   45.5314 C   0  0  0  0  0  0  0  0  0  0  0  0
    3.6737   17.4821   44.6758 C   0  0  0  0  0  0  0  0  0  0  0  0
    2.4954   17.7894   43.9878 C   0  0  0  0  0  0  0  0  0  0  0  0
    2.3757   18.9334   43.3001 N   0  0  0  0  0  0  0  0  0  0  0  0
    1.4708   16.9309   44.0065 N   0  0  0  0  0  0  0  0  0  0  0  0
    0.3190   17.1954   43.3645 C   0  0  0  0  0  0  0  0  0  0  0  0
   -0.8286   16.5089   43.2557 N   0  0  0  0  0  0  0  0  0  0  0  0
   -1.1104   15.2019   43.8569 C   0  0  0  0  0  0  0  0  0  0  0  0
   -1.6373   17.1253   42.5606 N   0  0  0  0  0  0  0  0  0  0  0  0
   -1.0348   18.2521   42.1464 C   0  0  0  0  0  0  0  0  0  0  0  0
    0.1965   18.3222   42.6698 C   0  0  0  0  0  0  0  0  0  0  0  0
    1.2360   19.2005   42.6358 C   0  0  0  0  0  0  0  0  0  0  0  0
    1.1443   20.3601   41.9406 N   0  0  0  0  0  0  0  0  0  0  0  0
    4.7918   19.1369   43.8432 H   0  0  0  0  0  0  0  0  0  0  0  0
    6.8856   18.5910   45.0744 H   0  0  0  0  0  0  0  0  0  0  0  0
    6.9548   16.6317   46.6062 H   0  0  0  0  0  0  0  0  0  0  0  0
    2.8202   15.7564   45.6634 H   0  0  0  0  0  0  0  0  0  0  0  0
   -2.0531   15.2536   44.4214 H   0  0  0  0  0  0  0  0  0  0  0  0
   -1.1990   14.4449   43.0637 H   0  0  0  0  0  0  0  0  0  0  0  0
   -0.2906   14.9266   44.5367 H   0  0  0  0  0  0  0  0  0  0  0  0
   -1.4838   19.0026   41.4792 H   0  0  0  0  0  0  0  0  0  0  0  0
    0.2814   20.5846   41.4251 H   0  0  0  0  0  0  0  0  0  0  0  0
    1.9376   21.0170   41.9278 H   0  0  0  0  0  0  0  0  0  0  0  0
  1  2  2  0
  1  6  1  0
  2  3  1  0
  3  4  2  0
  4  5  1  0
  5  6  2  0
  6  7  1  0
  7  8  2  0
  7  9  1  0
  8 16  1  0
  9 10  2  0
 10 11  1  0
 10 15  1  0
 11 12  1  0
 11 13  1  0
 13 14  2  0
 14 15  1  0
 15 16  2  0
 16 17  1  0
  1 18  1  0
  2 19  1  0
  3 20  1  0
  5 21  1  0
 12 22  1  0
 12 23  1  0
 12 24  1  0
 14 25  1  0
 17 26  1  0
 17 27  1  0
M  END
>  <mol_id>  (69) 
2026-09-17-6fnk-s0-n100-0069

>  <rmsd_to_ref>  (69) 
3.5765306122459477

>  <pose_kind>  (69) 
rigid

$$$$
6fnk.A
     RDKit          3D

 27 29  0  0  0  0  0  0  0  0999 V2000
    3.7885   18.7516   41.9079 C   0  0  0  0  0  0  0  0  0  0  0  0
    5.0669   18.7534   42.4295 C   0  0  0  0  0  0  0  0  0  0  0  0
    5.1716   18.9138   43.8153 C   0  0  0  0  0  0  0  0  0  0  0  0
    4.1011   19.0561   44.5830 N   0  0  0  0  0  0  0  0  0  0  0  0
    2.8786   19.0506   44.0527 C   0  0  0  0  0  0  0  0  0  0  0  0
    2.6661   18.8998   42.7044 C   0  0  0  0  0  0  0  0  0  0  0  0
    1.3438   18.8890   42.0900 C   0  0  0  0  0  0  0  0  0  0  0  0
    1.1912   18.7373   40.7580 N   0  0  0  0  0  0  0  0  0  0  0  0
    0.2490   19.0331   42.8635 N   0  0  0  0  0  0  0  0  0  0  0  0
   -1.0048   19.0281   42.3242 C   0  0  0  0  0  0  0  0  0  0  0  0
   -2.2429   19.1481   42.8395 N   0  0  0  0  0  0  0  0  0  0  0  0
   -2.5741   19.3328   44.2563 C   0  0  0  0  0  0  0  0  0  0  0  0
   -3.1128   19.0706   41.8453 N   0  0  0  0  0  0  0  0  0  0  0  0
   -2.4916   18.9020   40.6778 C   0  0  0  0  0  0  0  0  0  0  0  0
   -1.1423   18.8718   40.9599 C   0  0  0  0  0  0  0  0  0  0  0  0
   -0.0196   18.7239   40.1653 C   0  0  0  0  0  0  0  0  0  0  0  0
   -0.1199   18.5595   38.7480 N   0  0  0  0  0  0  0  0  0  0  0  0
    3.6674   18.6292   40.8340 H   0  0  0  0  0  0  0  0  0  0  0  0
    5.9429   18.6369   41.8001 H   0  0  0  0  0  0  0  0  0  0  0  0
    6.1916   18.9118   44.2023 H   0  0  0  0  0  0  0  0  0  0  0  0
    2.0410   19.1690   44.7136 H   0  0  0  0  0  0  0  0  0  0  0  0
   -3.5566   19.8440   44.2854 H   0  0  0  0  0  0  0  0  0  0  0  0
   -2.7560   18.3443   44.7450 H   0  0  0  0  0  0  0  0  0  0  0  0
   -1.7748   19.8733   44.7704 H   0  0  0  0  0  0  0  0  0  0  0  0
   -2.8895   18.8011   39.6743 H   0  0  0  0  0  0  0  0  0  0  0  0
    0.4885   19.1624   38.1210 H   0  0  0  0  0  0  0  0  0  0  0  0
   -0.7849   17.8544   38.3539 H   0  0  0  0  0  0  0  0  0  0  0  0
  1  2  2  0
  1  6  1  0
  2  3  1  0
  3  4  2  0
  4  5  1  0
  5  6  2  0
  6  7  1  0
  7  8  2  0
  7  9  1  0
  8 16  1  0
  9 10  2  0
 10 11  1  0
 10 15  1  0
 11 12  1  0
 11 13  1  0
 13 14  2  0
 14 15  1  0
 15 16  2  0
 16 17  1  0
  1 18  1  0
  2 19  1  0
  3 20  1  0
  5 21  1  0
 12 22  1  0
 12 23  1  0
 12 24  1  0
 14 25  1  0
 17 26  1  0
 17 27  1  0
M  END
>  <mol_id>  (70) 
2026-09-17-6fnk-s0-n100-0070

>  <rmsd_to_ref>  (70) 
3.6224489795921913

>  <pose_kind>  (70) 
conformer

$$$$
6fnk.A
     RDKit          3D

 27 29  0  0  0  0  0  0  0  0999 V2000
    1.7135   18.2212   40.7831 C   0  0  0  0  0  0  0  0  0  0  0  0
    1.4146   18.0985   39.4261 C   0  0  0  0  0  0  0  0  0  0  0  0
    1.0850   16.8585   38.8987 C   0  0  0  0  0  0  0  0  0  0  0  0
    1.0493   15.7344   39.7283 N   0  0  0  0  0  0  0  0  0  0  0  0
    1.3520   15.8606   41.0926 C   0  0  0  0  0  0  0  0  0  0  0  0
    1.6850   17.1055   41.6232 C   0  0  0  0  0  0  0  0  0  0  0  0
    1.9886   17.2278   42.9830 C   0  0  0  0  0  0  0  0  0  0  0  0
    2.4796   18.3711   43.4807 N   0  0  0  0  0  0  0  0  0  0  0  0
    1.7824   16.1949   43.8062 N   0  0  0  0  0  0  0  0  0  0  0  0
    2.0701   16.2717   45.1177 C   0  0  0  0  0  0  0  0  0  0  0  0
    1.9659   15.3807   46.1154 N   0  0  0  0  0  0  0  0  0  0  0  0
    1.4672   14.0075   45.9949 C   0  0  0  0  0  0  0  0  0  0  0  0
    2.3431   15.8754   47.1785 N   0  0  0  0  0  0  0  0  0  0  0  0
    2.6890   17.1491   46.9289 C   0  0  0  0  0  0  0  0  0  0  0  0
    2.5459   17.4061   45.6218 C   0  0  0  0  0  0  0  0  0  0  0  0
    2.7519   18.4680   44.7952 C   0  0  0  0  0  0  0  0  0  0  0  0
    3.2390   19.6382   45.2746 N   0  0  0  0  0  0  0  0  0  0  0  0
    1.9744   19.2069   41.1960 H   0  0  0  0  0  0  0  0  0  0  0  0
    1.4401   18.9845   38.7746 H   0  0  0  0  0  0  0  0  0  0  0  0
    0.8520   16.7601   37.8281 H   0  0  0  0  0  0  0  0  0  0  0  0
    1.3264   14.9751   41.7447 H   0  0  0  0  0  0  0  0  0  0  0  0
    2.1958   13.3126   46.4377 H   0  0  0  0  0  0  0  0  0  0  0  0
    0.5070   13.9184   46.5242 H   0  0  0  0  0  0  0  0  0  0  0  0
    1.3244   13.7612   44.9324 H   0  0  0  0  0  0  0  0  0  0  0  0
    3.0367   17.8710   47.6826 H   0  0  0  0  0  0  0  0  0  0  0  0
    3.4543   19.7343   46.2772 H   0  0  0  0  0  0  0  0  0  0  0  0
    3.3940   20.4315   44.6362 H   0  0  0  0  0  0  0  0  0  0  0  0
  1  2  2  0
  1  6  1  0
  2  3  1  0
  3  4  2  0
  4  5  1  0
  5  6  2  0
  6  7  1  0
  7  8  2  0
  7  9  1  0
  8 16  1  0
  9 10  2  0
 10 11  1  0
 10 15  1  0
 11 12  1  0
 11 13  1  0
 13 14  2  0
 14 15  1  0
 15 16  2  0
 16 17  1  0
  1 18  1  0
  2 19  1  0
  3 20  1  0
  5 21  1  0
 12 22  1  0
 12 23  1  0
 12 24  1  0
 14 25  1  0
 17 26  1  0
 17 27  1  0
M  END
>  <mol_id>  (71) 
2026-09-17-6fnk-s0-n100-0071

>  <rmsd_to_ref>  (71) 
3.668367346945241

>  <pose_kind>  (71) 
rigid

$$$$
6fnk.A
     RDKit          3D

 27 29  0  0  0  0  0  0  0  0999 V2000
    4.7151   19.3273   44.0429 C   0  0  0  0  0  0  0  0  0  0  0  0
    6.0058   19.3391   44.5335 C   0  0  0  0  0  0  0  0  0  0  0  0
    6.3452   18.3047   45.4120 C   0  0  0  0  0  0  0  0  0  0  0  0
    5.4743   17.3663   45.7530 N   0  0  0  0  0  0  0  0  0  0  0  0
    4.2347   17.3792   45.2642 C   0  0  0  0  0  0  0  0  0  0  0  0
    3.8005   18.3499   44.3952 C   0  0  0  0  0  0  0  0  0  0  0  0
    2.4526   18.3954   43.8410 C   0  0  0  0  0  0  0  0  0  0  0  0
    2.0775   19.3728   42.9900 N   0  0  0  0  0  0  0  0  0  0  0  0
    1.5598   17.4446   44.1825 N   0  0  0  0  0  0  0  0  0  0  0  0
    0.2892   17.4544   43.6841 C   0  0  0  0  0  0  0  0  0  0  0  0
   -0.7829   16.6562   43.8459 N   0  0  0  0  0  0  0  0  0  0  0  0
   -0.8471   15.4568   44.6875 C   0  0  0  0  0  0  0  0  0  0  0  0
   -1.7725   17.1410   43.1131 N   0  0  0  0  0  0  0  0  0  0  0  0
   -1.3928   18.2422   42.4645 C   0  0  0  0  0  0  0  0  0  0  0  0
   -0.0773   18.4616   42.8148 C   0  0  0  0  0  0  0  0  0  0  0  0
    0.8379   19.4377   42.4637 C   0  0  0  0  0  0  0  0  0  0  0  0
    0.4971   20.4978   41.5661 N   0  0  0  0  0  0  0  0  0  0  0  0
    4.4145   20.1160   43.3570 H   0  0  0  0  0  0  0  0  0  0  0  0
    6.7183   20.1080   44.2538 H   0  0  0  0  0  0  0  0  0  0  0  0
    7.3698   18.3366   45.7852 H   0  0  0  0  0  0  0  0  0  0  0  0
    3.5637   16.5985   45.5686 H   0  0  0  0  0  0  0  0  0  0  0  0
   -1.9117   15.3231   44.9637 H   0  0  0  0  0  0  0  0  0  0  0  0
   -0.5950   14.5477   44.0883 H   0  0  0  0  0  0  0  0  0  0  0  0
   -0.1729   15.5512   45.5429 H   0  0  0  0  0  0  0  0  0  0  0  0
   -1.9409   18.8870   41.7867 H   0  0  0  0  0  0  0  0  0  0  0  0
    0.7328   21.4952   41.8427 H   0  0  0  0  0  0  0  0  0  0  0  0
    0.0250   20.2770   40.6588 H   0  0  0  0  0  0  0  0  0  0  0  0
  1  2  2  0
  1  6  1  0
  2  3  1  0
  3  4  2  0
  4  5  1  0
  5  6  2  0
  6  7  1  0
  7  8  2  0
  7  9  1  0
  8 16  1  0
  9 10  2  0
 10 11  1  0
 10 15  1  0
 11 12  1  0
 11 13  1  0
 13 14  2  0
 14 15  1  0
 15 16  2  0
 16 17  1  0
  1 18  1  0
  2 19  1  0
  3 20  1  0
  5 21  1  0
 12 22  1  0
 12 23  1  0
 12 24  1  0
 14 25  1  0
 17 26  1  0
 17 27  1  0
M  END
>  <mol_id>  (72) 
2026-09-17-6fnk-s0-n100-0072

>  <rmsd_to_ref>  (72) 
3.714285714291869

>  <pose_kind>  (72) 
conformer

$$$$
6fnk.A
     RDKit          3D

 27 29  0  0  0  0  0  0  0  0999 V2000
    0.1547   19.7436   40.1938 C   0  0  0  0  0  0  0  0  0  0  0  0
   -0.6640   19.3305   39.1425 C   0  0  0  0  0  0  0  0  0  0  0  0
   -1.0450   18.0004   39.0426 C   0  0  0  0  0  0  0  0  0  0  0  0
   -0.6113   17.0765   39.9974 N   0  0  0  0  0  0  0  0  0  0  0  0
    0.2134   17.4946   41.0529 C   0  0  0  0  0  0  0  0  0  0  0  0
    0.5984   18.8303   41.1533 C   0  0  0  0  0  0  0  0  0  0  0  0
    1.4223   19.2436   42.2051 C   0  0  0  0  0  0  0  0  0  0  0  0
    1.9476   20.4763   42.2273 N   0  0  0  0  0  0  0  0  0  0  0  0
    1.6894   18.4039   43.2104 N   0  0  0  0  0  0  0  0  0  0  0  0
    2.4841   18.7623   44.2346 C   0  0  0  0  0  0  0  0  0  0  0  0
    2.9001   18.1003   45.3250 N   0  0  0  0  0  0  0  0  0  0  0  0
    2.5491   16.7225   45.6819 C   0  0  0  0  0  0  0  0  0  0  0  0
    3.6272   18.8164   46.0147 N   0  0  0  0  0  0  0  0  0  0  0  0
    3.6976   20.0155   45.4135 C   0  0  0  0  0  0  0  0  0  0  0  0
    2.9991   19.9873   44.2706 C   0  0  0  0  0  0  0  0  0  0  0  0
    2.7274   20.8546   43.2571 C   0  0  0  0  0  0  0  0  0  0  0  0
    3.2385   22.1096   43.2598 N   0  0  0  0  0  0  0  0  0  0  0  0
    0.4540   20.7994   40.2681 H   0  0  0  0  0  0  0  0  0  0  0  0
   -1.0072   20.0591   38.3933 H   0  0  0  0  0  0  0  0  0  0  0  0
   -1.6881   17.6730   38.2124 H   0  0  0  0  0  0  0  0  0  0  0  0
    0.5567   16.7667   41.8026 H   0  0  0  0  0  0  0  0  0  0  0  0
    3.4667   16.1524   45.8891 H   0  0  0  0  0  0  0  0  0  0  0  0
    1.9102   16.7271   46.5774 H   0  0  0  0  0  0  0  0  0  0  0  0
    2.0070   16.2542   44.8472 H   0  0  0  0  0  0  0  0  0  0  0  0
    4.2452   20.8875   45.8005 H   0  0  0  0  0  0  0  0  0  0  0  0
    3.8377   22.4200   44.0379 H   0  0  0  0  0  0  0  0  0  0  0  0
    3.0277   22.7532   42.4837 H   0  0  0  0  0  0  0  0  0  0  0  0
  1  2  2  0
  1  6  1  0
  2  3  1  0
  3  4  2  0
  4  5  1  0
  5  6  2  0
  6  7  1  0
  7  8  2  0
  7  9  1  0
  8 16  1  0
  9 10  2  0
 10 11  1  0
 10 15  1  0
 11 12  1  0
 11 13  1  0
 13 14  2  0
 14 15  1  0
 15 16  2  0
 16 17  1  0
  1 18  1  0
  2 19  1  0
  3 20  1  0
  5 21  1  0
 12 22  1  0
 12 23  1  0
 12 24  1  0
 14 25  1  0
 17 26  1  0
 17 27  1  0
M  END
>  <mol_id>  (73) 
2026-09-17-6fnk-s0-n100-0073

>  <rmsd_to_ref>  (73) 
3.7602040816334683

>  <pose_kind>  (73) 
rigid

$$$$
6fnk.A
     RDKit          3D

 27 29  0  0  0  0  0  0  0  0999 V2000
   -1.0081   16.9346   39.4774 C   0  0  0  0  0  0  0  0  0  0  0  0
   -1.8300   16.3565   38.5304 C   0  0  0  0  0  0  0  0  0  0  0  0
   -1.8278   14.9586   38.4770 C   0  0  0  0  0  0  0  0  0  0  0  0
   -1.0774   14.2314   39.2917 N   0  0  0  0  0  0  0  0  0  0  0  0
   -0.2931   14.8159   40.1967 C   0  0  0  0  0  0  0  0  0  0  0  0
   -0.2217   16.1807   40.3314 C   0  0  0  0  0  0  0  0  0  0  0  0
    0.6245   16.8539   41.3095 C   0  0  0  0  0  0  0  0  0  0  0  0
    0.6570   18.1997   41.3997 N   0  0  0  0  0  0  0  0  0  0  0  0
    1.3913   16.1220   42.1424 N   0  0  0  0  0  0  0  0  0  0  0  0
    2.1960   16.7167   43.0707 C   0  0  0  0  0  0  0  0  0  0  0  0
    3.0446   16.2504   44.0062 N   0  0  0  0  0  0  0  0  0  0  0  0
    3.3378   14.8396   44.2795 C   0  0  0  0  0  0  0  0  0  0  0  0
    3.5709   17.2866   44.6391 N   0  0  0  0  0  0  0  0  0  0  0  0
    3.0981   18.4347   44.1534 C   0  0  0  0  0  0  0  0  0  0  0  0
    2.2168   18.0944   43.1490 C   0  0  0  0  0  0  0  0  0  0  0  0
    1.4303   18.8465   42.2949 C   0  0  0  0  0  0  0  0  0  0  0  0
    1.4236   20.2759   42.3444 N   0  0  0  0  0  0  0  0  0  0  0  0
   -0.9832   18.0196   39.5487 H   0  0  0  0  0  0  0  0  0  0  0  0
   -2.4441   16.9528   37.8637 H   0  0  0  0  0  0  0  0  0  0  0  0
   -2.4851   14.5267   37.7210 H   0  0  0  0  0  0  0  0  0  0  0  0
    0.2971   14.1864   40.8352 H   0  0  0  0  0  0  0  0  0  0  0  0
    4.3504   14.8101   44.7281 H   0  0  0  0  0  0  0  0  0  0  0  0
    2.6629   14.4505   45.0808 H   0  0  0  0  0  0  0  0  0  0  0  0
    3.2358   14.2427   43.3692 H   0  0  0  0  0  0  0  0  0  0  0  0
    3.3104   19.4605   44.4330 H   0  0  0  0  0  0  0  0  0  0  0  0
    1.5368   20.8176   41.4385 H   0  0  0  0  0  0  0  0  0  0  0  0
    1.3084   20.7620   43.2637 H   0  0  0  0  0  0  0  0  0  0  0  0
  1  2  2  0
  1  6  1  0
  2  3  1  0
  3  4  2  0
  4  5  1  0
  5  6  2  0
  6  7  1  0
  7  8  2  0
  7  9  1  0
  8 16  1  0
  9 10  2  0
 10 11  1  0
 10 15  1  0
 11 12  1  0
 11 13  1  0
 13 14  2  0
 14 15  1  0
 15 16  2  0
 16 17  1  0
  1 18  1  0
  2 19  1  0
  3 20  1  0
  5 21  1  0
 12 22  1  0
 12 23  1  0
 12 24  1  0
 14 25  1  0
 17 26  1  0
 17 27  1  0
M  END
>  <mol_id>  (74) 
2026-09-17-6fnk-s0-n100-0074

>  <rmsd_to_ref>  (74) 
3.8061224489839853

>  <pose_kind>  (74) 
conformer

$$$$
6fnk.A
     RDKit          3D

 27 29  0  0  0  0  0  0  0  0999 V2000
    2.2854   18.7733   40.5836 C   0  0  0  0  0  0  0  0  0  0  0  0
    3.2678   19.0226   39.6251 C   0  0  0  0  0  0  0  0  0  0  0  0
    3.9913   17.9695   39.0846 C   0  0  0  0  0  0  0  0  0  0  0  0
    3.7324   16.6599   39.4983 N   0  0  0  0  0  0  0  0  0  0  0  0
    2.7447   16.4125   40.4637 C   0  0  0  0  0  0  0  0  0  0  0  0
    2.0185   17.4697   41.0088 C   0  0  0  0  0  0  0  0  0  0  0  0
    1.0362   17.2202   41.9726 C   0  0  0  0  0  0  0  0  0  0  0  0
    0.4495   18.2254   42.6369 N   0  0  0  0  0  0  0  0  0  0  0  0
    0.6671   15.9627   42.2362 N   0  0  0  0  0  0  0  0  0  0  0  0
   -0.2675   15.6828   43.1620 C   0  0  0  0  0  0  0  0  0  0  0  0
   -0.7795   14.5232   43.6016 N   0  0  0  0  0  0  0  0  0  0  0  0
   -0.4111   13.1852   43.1294 C   0  0  0  0  0  0  0  0  0  0  0  0
   -1.6291   14.7269   44.4699 N   0  0  0  0  0  0  0  0  0  0  0  0
   -1.7391   16.0570   44.6206 C   0  0  0  0  0  0  0  0  0  0  0  0
   -0.8632   16.6746   43.8167 C   0  0  0  0  0  0  0  0  0  0  0  0
   -0.5022   17.9601   43.5508 C   0  0  0  0  0  0  0  0  0  0  0  0
   -1.0862   18.9953   44.2019 N   0  0  0  0  0  0  0  0  0  0  0  0
    1.7149   19.6121   41.0090 H   0  0  0  0  0  0  0  0  0  0  0  0
    3.4687   20.0534   39.2981 H   0  0  0  0  0  0  0  0  0  0  0  0
    4.7683   18.1652   38.3310 H   0  0  0  0  0  0  0  0  0  0  0  0
    2.5431   15.3818   40.7910 H   0  0  0  0  0  0  0  0  0  0  0  0
   -0.1565   12.5497   43.9904 H   0  0  0  0  0  0  0  0  0  0  0  0
   -1.2580   12.7425   42.5846 H   0  0  0  0  0  0  0  0  0  0  0  0
    0.4577   13.2594   42.4588 H   0  0  0  0  0  0  0  0  0  0  0  0
   -2.4412   16.5622   45.3003 H   0  0  0  0  0  0  0  0  0  0  0  0
   -1.8167   18.8150   44.9052 H   0  0  0  0  0  0  0  0  0  0  0  0
   -0.7994   19.9623   43.9933 H   0  0  0  0  0  0  0  0  0  0  0  0
  1  2  2  0
  1  6  1  0
  2  3  1  0
  3  4  2  0
  4  5  1  0
  5  6  2  0
  6  7  1  0
  7  8  2  0
  7  9  1  0
  8 16  1  0
  9 10  2  0
 10 11  1  0
 10 15  1  0
 11 12  1  0
 11 13  1  0
 13 14  2  0
 14 15  1  0
 15 16  2  0
 16 17  1  0
  1 18  1  0
  2 19  1  0
  3 20  1  0
  5 21  1  0
 12 22  1  0
 12 23  1  0
 12 24  1  0
 14 25  1  0
 17 26  1  0
 17 27  1  0
M  END
>  <mol_id>  (75) 
2026-09-17-6fnk-s0-n100-0075

>  <rmsd_to_ref>  (75) 
3.8520408163331195

>  <pose_kind>  (75) 
rigid

$$$$
6fnk.A
     RDKit          3D

 27 29  0  0  0  0  0  0  0  0999 V2000
   -0.6781   18.7379   39.6544 C   0  0  0  0  0  0  0  0  0  0  0  0
   -0.9407   18.6648   38.3008 C   0  0  0  0  0  0  0  0  0  0  0  0
   -0.7667   17.4128   37.7016 C   0  0  0  0  0  0  0  0  0  0  0  0
   -0.3714   16.3565   38.3969 N   0  0  0  0  0  0  0  0  0  0  0  0
   -0.1248   16.4556   39.7027 C   0  0  0  0  0  0  0  0  0  0  0  0
   -0.2648   17.6382   40.3865 C   0  0  0  0  0  0  0  0  0  0  0  0
   -0.0040   17.7833   41.8138 C   0  0  0  0  0  0  0  0  0  0  0  0
   -0.1575   18.9700   42.4371 N   0  0  0  0  0  0  0  0  0  0  0  0
    0.3985   16.7138   42.5291 N   0  0  0  0  0  0  0  0  0  0  0  0
    0.6521   16.8112   43.8667 C   0  0  0  0  0  0  0  0  0  0  0  0
    1.0550   15.9352   44.8064 N   0  0  0  0  0  0  0  0  0  0  0  0
    1.3490   14.5143   44.5928 C   0  0  0  0  0  0  0  0  0  0  0  0
    1.1407   16.5780   45.9600 N   0  0  0  0  0  0  0  0  0  0  0  0
    0.8062   17.8608   45.8191 C   0  0  0  0  0  0  0  0  0  0  0  0
    0.4899   18.0328   44.4880 C   0  0  0  0  0  0  0  0  0  0  0  0
    0.0769   19.1308   43.7550 C   0  0  0  0  0  0  0  0  0  0  0  0
   -0.1029   20.4135   44.3617 N   0  0  0  0  0  0  0  0  0  0  0  0
   -0.8023   19.6953   40.1552 H   0  0  0  0  0  0  0  0  0  0  0  0
   -1.2643   19.5303   37.7322 H   0  0  0  0  0  0  0  0  0  0  0  0
   -0.9805   17.3816   36.6322 H   0  0  0  0  0  0  0  0  0  0  0  0
    0.1932   15.5732   40.2249 H   0  0  0  0  0  0  0  0  0  0  0  0
    2.0633   14.2182   45.3862 H   0  0  0  0  0  0  0  0  0  0  0  0
    0.4389   13.8955   44.7875 H   0  0  0  0  0  0  0  0  0  0  0  0
    1.7163   14.3466   43.5768 H   0  0  0  0  0  0  0  0  0  0  0  0
    0.7655   18.6640   46.5463 H   0  0  0  0  0  0  0  0  0  0  0  0
    0.3337   21.2624   43.8974 H   0  0  0  0  0  0  0  0  0  0  0  0
   -0.6567   20.4956   45.2456 H   0  0  0  0  0  0  0  0  0  0  0  0
  1  2  2  0
  1  6  1  0
  2  3  1  0
  3  4  2  0
  4  5  1  0
  5  6  2  0
  6  7  1  0
  7  8  2  0
  7  9  1  0
  8 16  1  0
  9 10  2  0
 10 11  1  0
 10 15  1  0
 11 12  1  0
 11 13  1  0
 13 14  2  0
 14 15  1  0
 15 16  2  0
 16 17  1  0
  1 18  1  0
  2 19  1  0
  3 20  1  0
  5 21  1  0
 12 22  1  0
 12 23  1  0
 12 24  1  0
 14 25  1  0
 17 26  1  0
 17 27  1  0
M  END
>  <mol_id>  (76) 
2026-09-17-6fnk-s0-n100-0076

>  <rmsd_to_ref>  (76) 
3.8979591836735072

>  <pose_kind>  (76) 
conformer

$$$$
6fnk.A
     RDKit          3D

 27 29  0  0  0  0  0  0  0  0999 V2000
    1.2618   17.0721   44.3747 C   0  0  0  0  0  0  0  0  0  0  0  0
    0.7702   15.7762   44.5324 C   0  0  0  0  0  0  0  0  0  0  0  0
   -0.2817   15.3336   43.7438 C   0  0  0  0  0  0  0  0  0  0  0  0
   -0.8452   16.1854   42.7896 N   0  0  0  0  0  0  0  0  0  0  0  0
   -0.3496   17.4889   42.6344 C   0  0  0  0  0  0  0  0  0  0  0  0
    0.7059   17.9353   43.4274 C   0  0  0  0  0  0  0  0  0  0  0  0
    1.1962   19.2359   43.2720 C   0  0  0  0  0  0  0  0  0  0  0  0
    2.0861   19.7460   44.1346 N   0  0  0  0  0  0  0  0  0  0  0  0
    0.7805   19.9854   42.2461 N   0  0  0  0  0  0  0  0  0  0  0  0
    1.2227   21.2431   42.0687 C   0  0  0  0  0  0  0  0  0  0  0  0
    0.9427   22.1731   41.1429 N   0  0  0  0  0  0  0  0  0  0  0  0
    0.0186   22.0153   40.0159 C   0  0  0  0  0  0  0  0  0  0  0  0
    1.5833   23.2031   41.3568 N   0  0  0  0  0  0  0  0  0  0  0  0
    2.3524   22.9816   42.4355 C   0  0  0  0  0  0  0  0  0  0  0  0
    2.1147   21.7525   42.9126 C   0  0  0  0  0  0  0  0  0  0  0  0
    2.5524   20.9959   43.9562 C   0  0  0  0  0  0  0  0  0  0  0  0
    3.4585   21.4845   44.8376 N   0  0  0  0  0  0  0  0  0  0  0  0
    2.0960   17.4180   45.0029 H   0  0  0  0  0  0  0  0  0  0  0  0
    1.2164   15.1057   45.2816 H   0  0  0  0  0  0  0  0  0  0  0  0
   -0.6722   14.3130   43.8693 H   0  0  0  0  0  0  0  0  0  0  0  0
   -0.7951   18.1599   41.8852 H   0  0  0  0  0  0  0  0  0  0  0  0
   -0.6961   22.8514   40.0079 H   0  0  0  0  0  0  0  0  0  0  0  0
    0.5867   22.0094   39.0740 H   0  0  0  0  0  0  0  0  0  0  0  0
   -0.5282   21.0665   40.1202 H   0  0  0  0  0  0  0  0  0  0  0  0
    3.0683   23.6997   42.8620 H   0  0  0  0  0  0  0  0  0  0  0  0
    3.8286   22.4385   44.7201 H   0  0  0  0  0  0  0  0  0  0  0  0
    3.7770   20.9019   45.6250 H   0  0  0  0  0  0  0  0  0  0  0  0
  1  2  2  0
  1  6  1  0
  2  3  1  0
  3  4  2  0
  4  5  1  0
  5  6  2  0
  6  7  1  0
  7  8  2  0
  7  9  1  0
  8 16  1  0
  9 10  2  0
 10 11  1  0
 10 15  1  0
 11 12  1  0
 11 13  1  0
 13 14  2  0
 14 15  1  0
 15 16  2  0
 16 17  1  0
  1 18  1  0
  2 19  1  0
  3 20  1  0
  5 21  1  0
 12 22  1  0
 12 23  1  0
 12 24  1  0
 14 25  1  0
 17 26  1  0
 17 27  1  0
M  END
>  <mol_id>  (77) 
2026-09-17-6fnk-s0-n100-0077

>  <rmsd_to_ref>  (77) 
3.9438775510231

>  <pose_kind>  (77) 
rigid

$$$$
6fnk.A
     RDKit          3D

 27 29  0  0  0  0  0  0  0  0999 V2000
    0.1344   16.1594   42.5068 C   0  0  0  0  0  0  0  0  0  0  0  0
   -1.0438   15.5112   42.1933 C   0  0  0  0  0  0  0  0  0  0  0  0
   -2.1746   15.8913   42.9240 C   0  0  0  0  0  0  0  0  0  0  0  0
   -2.1156   16.8224   43.8648 N   0  0  0  0  0  0  0  0  0  0  0  0
   -0.9647   17.4320   44.1469 C   0  0  0  0  0  0  0  0  0  0  0  0
    0.2027   17.1329   43.4885 C   0  0  0  0  0  0  0  0  0  0  0  0
    1.4790   17.7790   43.7706 C   0  0  0  0  0  0  0  0  0  0  0  0
    2.5975   17.4469   43.0930 N   0  0  0  0  0  0  0  0  0  0  0  0
    1.5483   18.7275   44.7262 N   0  0  0  0  0  0  0  0  0  0  0  0
    2.7251   19.3542   45.0181 C   0  0  0  0  0  0  0  0  0  0  0  0
    3.0803   20.3109   45.8964 N   0  0  0  0  0  0  0  0  0  0  0  0
    2.1904   20.9793   46.8516 C   0  0  0  0  0  0  0  0  0  0  0  0
    4.3743   20.5458   45.7497 N   0  0  0  0  0  0  0  0  0  0  0  0
    4.8962   19.7726   44.7972 C   0  0  0  0  0  0  0  0  0  0  0  0
    3.8593   19.0020   44.3151 C   0  0  0  0  0  0  0  0  0  0  0  0
    3.7894   18.0289   43.3344 C   0  0  0  0  0  0  0  0  0  0  0  0
    4.9418   17.6359   42.5838 N   0  0  0  0  0  0  0  0  0  0  0  0
    1.0350   15.8904   41.9596 H   0  0  0  0  0  0  0  0  0  0  0  0
   -1.0911   14.7489   41.4228 H   0  0  0  0  0  0  0  0  0  0  0  0
   -3.0921   15.3648   42.6575 H   0  0  0  0  0  0  0  0  0  0  0  0
   -0.9650   18.1800   44.9169 H   0  0  0  0  0  0  0  0  0  0  0  0
    2.8297   21.3260   47.6873 H   0  0  0  0  0  0  0  0  0  0  0  0
    1.7757   21.9167   46.4061 H   0  0  0  0  0  0  0  0  0  0  0  0
    1.3819   20.3097   47.1567 H   0  0  0  0  0  0  0  0  0  0  0  0
    5.9107   19.7031   44.4210 H   0  0  0  0  0  0  0  0  0  0  0  0
    5.1548   16.6010   42.4819 H   0  0  0  0  0  0  0  0  0  0  0  0
    5.5520   18.3670   42.1504 H   0  0  0  0  0  0  0  0  0  0  0  0
  1  2  2  0
  1  6  1  0
  2  3  1  0
  3  4  2  0
  4  5  1  0
  5  6  2  0
  6  7  1  0
  7  8  2  0
  7  9  1  0
  8 16  1  0
  9 10  2  0
 10 11  1  0
 10 15  1  0
 11 12  1  0
 11 13  1  0
 13 14  2  0
 14 15  1  0
 15 16  2  0
 16 17  1  0
  1 18  1  0
  2 19  1  0
  3 20  1  0
  5 21  1  0
 12 22  1  0
 12 23  1  0
 12 24  1  0
 14 25  1  0
 17 26  1  0
 17 27  1  0
M  END
>  <mol_id>  (78) 
2026-09-17-6fnk-s0-n100-0078

>  <rmsd_to_ref>  (78) 
3.9897959183702714

>  <pose_kind>  (78) 
conformer

$$$$
6fnk.A
     RDKit          3D

 27 29  0  0  0  0  0  0  0  0999 V2000
   -1.2404   14.5158   42.3856 C   0  0  0  0  0  0  0  0  0  0  0  0
   -2.1513   13.6673   43.0151 C   0  0  0  0  0  0  0  0  0  0  0  0
   -2.6761   14.0098   44.2527 C   0  0  0  0  0  0  0  0  0  0  0  0
   -2.2944   15.2065   44.8656 N   0  0  0  0  0  0  0  0  0  0  0  0
   -1.3768   16.0572   44.2307 C   0  0  0  0  0  0  0  0  0  0  0  0
   -0.8475   15.7132   42.9882 C   0  0  0  0  0  0  0  0  0  0  0  0
    0.0687   16.5621   42.3589 C   0  0  0  0  0  0  0  0  0  0  0  0
    0.7224   16.1756   41.2546 N   0  0  0  0  0  0  0  0  0  0  0  0
    0.2964   17.7816   42.8569 N   0  0  0  0  0  0  0  0  0  0  0  0
    1.1763   18.6226   42.2847 C   0  0  0  0  0  0  0  0  0  0  0  0
    1.5752   19.8627   42.6059 N   0  0  0  0  0  0  0  0  0  0  0  0
    1.0987   20.6525   43.7453 C   0  0  0  0  0  0  0  0  0  0  0  0
    2.4088   20.2723   41.7968 N   0  0  0  0  0  0  0  0  0  0  0  0
    2.5752   19.3136   40.8708 C   0  0  0  0  0  0  0  0  0  0  0  0
    1.8198   18.2518   41.1821 C   0  0  0  0  0  0  0  0  0  0  0  0
    1.5899   17.0156   40.6602 C   0  0  0  0  0  0  0  0  0  0  0  0
    2.2308   16.6036   39.5396 N   0  0  0  0  0  0  0  0  0  0  0  0
   -0.8272   14.2391   41.4044 H   0  0  0  0  0  0  0  0  0  0  0  0
   -2.4533   12.7271   42.5304 H   0  0  0  0  0  0  0  0  0  0  0  0
   -3.3921   13.3401   44.7513 H   0  0  0  0  0  0  0  0  0  0  0  0
   -1.0746   16.9977   44.7146 H   0  0  0  0  0  0  0  0  0  0  0  0
    1.9600   21.0203   44.3222 H   0  0  0  0  0  0  0  0  0  0  0  0
    0.5109   21.5070   43.3789 H   0  0  0  0  0  0  0  0  0  0  0  0
    0.4678   20.0227   44.3897 H   0  0  0  0  0  0  0  0  0  0  0  0
    3.2314   19.3888   39.9913 H   0  0  0  0  0  0  0  0  0  0  0  0
    2.8989   17.2303   39.0685 H   0  0  0  0  0  0  0  0  0  0  0  0
    2.0500   15.6638   39.1589 H   0  0  0  0  0  0  0  0  0  0  0  0
  1  2  2  0
  1  6  1  0
  2  3  1  0
  3  4  2  0
  4  5  1  0
  5  6  2  0
  6  7  1  0
  7  8  2  0
  7  9  1  0
  8 16  1  0
  9 10  2  0
 10 11  1  0
 10 15  1  0
 11 12  1  0
 11 13  1  0
 13 14  2  0
 14 15  1  0
 15 16  2  0
 16 17  1  0
  1 18  1  0
  2 19  1  0
  3 20  1  0
  5 21  1  0
 12 22  1  0
 12 23  1  0
 12 24  1  0
 14 25  1  0
 17 26  1  0
 17 27  1  0
M  END
>  <mol_id>  (79) 
2026-09-17-6fnk-s0-n100-0079

>  <rmsd_to_ref>  (79) 
4.035714285716131

>  <pose_kind>  (79) 
rigid

$$$$
6fnk.A
     RDKit          3D

 27 29  0  0  0  0  0  0  0  0999 V2000
    3.0102   19.3527   38.7099 C   0  0  0  0  0  0  0  0  0  0  0  0
    3.0111   19.6900   37.3709 C   0  0  0  0  0  0  0  0  0  0  0  0
    1.8373   19.4157   36.6611 C   0  0  0  0  0  0  0  0  0  0  0  0
    0.7838   18.8626   37.2438 N   0  0  0  0  0  0  0  0  0  0  0  0
    0.8104   18.5471   38.5383 C   0  0  0  0  0  0  0  0  0  0  0  0
    1.9130   18.7747   39.3247 C   0  0  0  0  0  0  0  0  0  0  0  0
    1.9774   18.4426   40.7430 C   0  0  0  0  0  0  0  0  0  0  0  0
    3.0871   18.6877   41.4703 N   0  0  0  0  0  0  0  0  0  0  0  0
    0.9102   17.8795   41.3443 N   0  0  0  0  0  0  0  0  0  0  0  0
    0.9335   17.5550   42.6698 C   0  0  0  0  0  0  0  0  0  0  0  0
    0.0407   16.9990   43.5103 N   0  0  0  0  0  0  0  0  0  0  0  0
   -1.3160   16.5628   43.1636 C   0  0  0  0  0  0  0  0  0  0  0  0
    0.5988   16.9131   44.7072 N   0  0  0  0  0  0  0  0  0  0  0  0
    1.8412   17.3964   44.6917 C   0  0  0  0  0  0  0  0  0  0  0  0
    2.0768   17.8127   43.3985 C   0  0  0  0  0  0  0  0  0  0  0  0
    3.1725   18.3904   42.7826 C   0  0  0  0  0  0  0  0  0  0  0  0
    4.3755   18.6733   43.5028 N   0  0  0  0  0  0  0  0  0  0  0  0
    3.9055   19.5510   39.2946 H   0  0  0  0  0  0  0  0  0  0  0  0
    3.8743   20.1428   36.8946 H   0  0  0  0  0  0  0  0  0  0  0  0
    1.8635   19.6914   35.6059 H   0  0  0  0  0  0  0  0  0  0  0  0
   -0.0666   18.1009   38.9674 H   0  0  0  0  0  0  0  0  0  0  0  0
   -1.5872   15.7717   43.8903 H   0  0  0  0  0  0  0  0  0  0  0  0
   -2.0492   17.3844   43.3547 H   0  0  0  0  0  0  0  0  0  0  0  0
   -1.3617   16.2435   42.1190 H   0  0  0  0  0  0  0  0  0  0  0  0
    2.5762   17.4804   45.4844 H   0  0  0  0  0  0  0  0  0  0  0  0
    5.3023   18.3637   43.0880 H   0  0  0  0  0  0  0  0  0  0  0  0
    4.3248   19.1763   44.4188 H   0  0  0  0  0  0  0  0  0  0  0  0
  1  2  2  0
  1  6  1  0
  2  3  1  0
  3  4  2  0
  4  5  1  0
  5  6  2  0
  6  7  1  0
  7  8  2  0
  7  9  1  0
  8 16  1  0
  9 10  2  0
 10 11  1  0
 10 15  1  0
 11 12  1  0
 11 13  1  0
 13 14  2  0
 14 15  1  0
 15 16  2  0
 16 17  1  0
  1 18  1  0
  2 19  1  0
  3 20  1  0
  5 21  1  0
 12 22  1  0
 12 23  1  0
 12 24  1  0
 14 25  1  0
 17 26  1  0
 17 27  1  0
M  END
>  <mol_id>  (80) 
2026-09-17-6fnk-s0-n100-0080

>  <rmsd_to_ref>  (80) 
4.08163265306494

>  <pose_kind>  (80) 
conformer

$$$$
6fnk.A
     RDKit          3D

 27 29  0  0  0  0  0  0  0  0999 V2000
    4.0577   13.4350   44.9239 C   0  0  0  0  0  0  0  0  0  0  0  0
    5.0225   12.4280   44.9544 C   0  0  0  0  0  0  0  0  0  0  0  0
    5.6572   12.0410   43.7832 C   0  0  0  0  0  0  0  0  0  0  0  0
    5.3320   12.6631   42.5747 N   0  0  0  0  0  0  0  0  0  0  0  0
    4.3600   13.6747   42.5469 C   0  0  0  0  0  0  0  0  0  0  0  0
    3.7203   14.0630   43.7226 C   0  0  0  0  0  0  0  0  0  0  0  0
    2.7502   15.0700   43.6913 C   0  0  0  0  0  0  0  0  0  0  0  0
    1.9993   15.3390   44.7683 N   0  0  0  0  0  0  0  0  0  0  0  0
    2.5678   15.7837   42.5758 N   0  0  0  0  0  0  0  0  0  0  0  0
    1.6391   16.7539   42.5048 C   0  0  0  0  0  0  0  0  0  0  0  0
    1.2702   17.5753   41.5101 N   0  0  0  0  0  0  0  0  0  0  0  0
    1.8476   17.6099   40.1631 C   0  0  0  0  0  0  0  0  0  0  0  0
    0.3664   18.3254   41.8811 N   0  0  0  0  0  0  0  0  0  0  0  0
    0.1173   18.0473   43.1714 C   0  0  0  0  0  0  0  0  0  0  0  0
    0.8985   17.0355   43.5723 C   0  0  0  0  0  0  0  0  0  0  0  0
    1.0809   16.3216   44.7170 C   0  0  0  0  0  0  0  0  0  0  0  0
    0.3411   16.5794   45.8228 N   0  0  0  0  0  0  0  0  0  0  0  0
    3.5574   13.7378   45.8556 H   0  0  0  0  0  0  0  0  0  0  0  0
    5.2799   11.9410   45.9066 H   0  0  0  0  0  0  0  0  0  0  0  0
    6.4160   11.2449   43.8056 H   0  0  0  0  0  0  0  0  0  0  0  0
    4.1023   14.1623   41.5951 H   0  0  0  0  0  0  0  0  0  0  0  0
    1.0420   17.5438   39.4170 H   0  0  0  0  0  0  0  0  0  0  0  0
    2.3992   18.5515   40.0247 H   0  0  0  0  0  0  0  0  0  0  0  0
    2.5349   16.7604   40.0368 H   0  0  0  0  0  0  0  0  0  0  0  0
   -0.6162   18.5705   43.8025 H   0  0  0  0  0  0  0  0  0  0  0  0
   -0.3673   17.3269   45.8057 H   0  0  0  0  0  0  0  0  0  0  0  0
    0.4873   16.0279   46.6803 H   0  0  0  0  0  0  0  0  0  0  0  0
  1  2  2  0
  1  6  1  0
  2  3  1  0
  3  4  2  0
  4  5  1  0
  5  6  2  0
  6  7  1  0
  7  8  2  0
  7  9  1  0
  8 16  1  0
  9 10  2  0
 10 11  1  0
 10 15  1  0
 11 12  1  0
 11 13  1  0
 13 14  2  0
 14 15  1  0
 15 16  2  0
 16 17  1  0
  1 18  1  0
  2 19  1  0
  3 20  1  0
  5 21  1  0
 12 22  1  0
 12 23  1  0
 12 24  1  0
 14 25  1  0
 17 26  1  0
 17 27  1  0
M  END
>  <mol_id>  (81) 
2026-09-17-6fnk-s0-n100-0081

>  <rmsd_to_ref>  (81) 
4.127551020409601

>  <pose_kind>  (81) 
rigid

$$$$
6fnk.A
     RDKit          3D

 27 29  0  0  0  0  0  0  0  0999 V2000
    3.9329   15.4321   42.7264 C   0  0  0  0  0  0  0  0  0  0  0  0
    4.0594   14.1864   42.1444 C   0  0  0  0  0  0  0  0  0  0  0  0
    4.5888   14.1571   40.8498 C   0  0  0  0  0  0  0  0  0  0  0  0
    4.9483   15.2653   40.2189 N   0  0  0  0  0  0  0  0  0  0  0  0
    4.8151   16.4548   40.8046 C   0  0  0  0  0  0  0  0  0  0  0  0
    4.3065   16.5936   42.0727 C   0  0  0  0  0  0  0  0  0  0  0  0
    4.1467   17.8780   42.7441 C   0  0  0  0  0  0  0  0  0  0  0  0
    3.6409   17.9579   43.9924 N   0  0  0  0  0  0  0  0  0  0  0  0
    4.5098   19.0107   42.1097 N   0  0  0  0  0  0  0  0  0  0  0  0
    4.3750   20.2310   42.7062 C   0  0  0  0  0  0  0  0  0  0  0  0
    4.6468   21.4925   42.3224 N   0  0  0  0  0  0  0  0  0  0  0  0
    5.2137   21.8993   41.0324 C   0  0  0  0  0  0  0  0  0  0  0  0
    4.3136   22.3056   43.3120 N   0  0  0  0  0  0  0  0  0  0  0  0
    3.8260   21.6234   44.3484 C   0  0  0  0  0  0  0  0  0  0  0  0
    3.8558   20.2941   43.9834 C   0  0  0  0  0  0  0  0  0  0  0  0
    3.4829   19.1324   44.6353 C   0  0  0  0  0  0  0  0  0  0  0  0
    2.9411   19.1556   45.9588 N   0  0  0  0  0  0  0  0  0  0  0  0
    3.5250   15.4946   43.7326 H   0  0  0  0  0  0  0  0  0  0  0  0
    3.7648   13.2794   42.6618 H   0  0  0  0  0  0  0  0  0  0  0  0
    4.6785   13.1617   40.4125 H   0  0  0  0  0  0  0  0  0  0  0  0
    5.1197   17.3252   40.2551 H   0  0  0  0  0  0  0  0  0  0  0  0
    4.8831   22.9424   40.8586 H   0  0  0  0  0  0  0  0  0  0  0  0
    6.3273   21.9641   41.1003 H   0  0  0  0  0  0  0  0  0  0  0  0
    4.9177   21.2007   40.2453 H   0  0  0  0  0  0  0  0  0  0  0  0
    3.4615   21.9656   45.3105 H   0  0  0  0  0  0  0  0  0  0  0  0
    2.0512   18.6111   46.1546 H   0  0  0  0  0  0  0  0  0  0  0  0
    3.4251   19.7036   46.7073 H   0  0  0  0  0  0  0  0  0  0  0  0
  1  2  2  0
  1  6  1  0
  2  3  1  0
  3  4  2  0
  4  5  1  0
  5  6  2  0
  6  7  1  0
  7  8  2  0
  7  9  1  0
  8 16  1  0
  9 10  2  0
 10 11  1  0
 10 15  1  0
 11 12  1  0
 11 13  1  0
 13 14  2  0
 14 15  1  0
 15 16  2  0
 16 17  1  0
  1 18  1  0
  2 19  1  0
  3 20  1  0
  5 21  1  0
 12 22  1  0
 12 23  1  0
 12 24  1  0
 14 25  1  0
 17 26  1  0
 17 27  1  0
M  END
>  <mol_id>  (82) 
2026-09-17-6fnk-s0-n100-0082

>  <rmsd_to_ref>  (82) 
4.173469387755513

>  <pose_kind>  (82) 
conformer

$$$$
6fnk.A
     RDKit          3D

 27 29  0  0  0  0  0  0  0  0999 V2000
   -1.4112   18.5962   39.3183 C   0  0  0  0  0  0  0  0  0  0  0  0
   -2.6496   18.2621   38.7699 C   0  0  0  0  0  0  0  0  0  0  0  0
   -3.3812   17.2099   39.3010 C   0  0  0  0  0  0  0  0  0  0  0  0
   -2.8784   16.4884   40.3872 N   0  0  0  0  0  0  0  0  0  0  0  0
   -1.6317   16.8258   40.9357 C   0  0  0  0  0  0  0  0  0  0  0  0
   -0.8950   17.8814   40.4018 C   0  0  0  0  0  0  0  0  0  0  0  0
    0.3484   18.2138   40.9491 C   0  0  0  0  0  0  0  0  0  0  0  0
    1.1514   19.1033   40.3491 N   0  0  0  0  0  0  0  0  0  0  0  0
    0.7461   17.6446   42.0915 N   0  0  0  0  0  0  0  0  0  0  0  0
    1.9382   17.9324   42.6436 C   0  0  0  0  0  0  0  0  0  0  0  0
    2.5478   17.4854   43.7521 N   0  0  0  0  0  0  0  0  0  0  0  0
    2.0058   16.5041   44.6966 C   0  0  0  0  0  0  0  0  0  0  0  0
    3.6474   18.0235   43.8880 N   0  0  0  0  0  0  0  0  0  0  0  0
    3.7998   18.8892   42.8724 C   0  0  0  0  0  0  0  0  0  0  0  0
    2.7355   18.8228   42.0614 C   0  0  0  0  0  0  0  0  0  0  0  0
    2.3379   19.4159   40.9023 C   0  0  0  0  0  0  0  0  0  0  0  0
    3.1269   20.3252   40.2801 N   0  0  0  0  0  0  0  0  0  0  0  0
   -0.8351   19.4313   38.8931 H   0  0  0  0  0  0  0  0  0  0  0  0
   -3.0457   18.8326   37.9169 H   0  0  0  0  0  0  0  0  0  0  0  0
   -4.3565   16.9437   38.8675 H   0  0  0  0  0  0  0  0  0  0  0  0
   -1.2351   16.2559   41.7888 H   0  0  0  0  0  0  0  0  0  0  0  0
    2.7430   15.7036   44.8571 H   0  0  0  0  0  0  0  0  0  0  0  0
    1.7875   16.9989   45.6545 H   0  0  0  0  0  0  0  0  0  0  0  0
    1.0802   16.0734   44.2871 H   0  0  0  0  0  0  0  0  0  0  0  0
    4.6662   19.5515   42.7284 H   0  0  0  0  0  0  0  0  0  0  0  0
    4.0388   20.5792   40.6860 H   0  0  0  0  0  0  0  0  0  0  0  0
    2.8146   20.7623   39.4013 H   0  0  0  0  0  0  0  0  0  0  0  0
  1  2  2  0
  1  6  1  0
  2  3  1  0
  3  4  2  0
  4  5  1  0
  5  6  2  0
  6  7  1  0
  7  8  2  0
  7  9  1  0
  8 16  1  0
  9 10  2  0
 10 11  1  0
 10 15  1  0
 11 12  1  0
 11 13  1  0
 13 14  2  0
 14 15  1  0
 15 16  2  0
 16 17  1  0
  1 18  1  0
  2 19  1  0
  3 20  1  0
  5 21  1  0
 12 22  1  0
 12 23  1  0
 12 24  1  0
 14 25  1  0
 17 26  1  0
 17 27  1  0
M  END
>  <mol_id>  (83) 
2026-09-17-6fnk-s0-n100-0083

>  <rmsd_to_ref>  (83) 
4.219387755102335

>  <pose_kind>  (83) 
rigid

$$$$
6fnk.A
     RDKit          3D

 27 29  0  0  0  0  0  0  0  0999 V2000
   -0.3318   17.6073   41.2307 C   0  0  0  0  0  0  0  0  0  0  0  0
   -1.4076   16.7865   41.5053 C   0  0  0  0  0  0  0  0  0  0  0  0
   -1.3033   15.9887   42.6497 C   0  0  0  0  0  0  0  0  0  0  0  0
   -0.2300   16.0207   43.4259 N   0  0  0  0  0  0  0  0  0  0  0  0
    0.7942   16.8227   43.1370 C   0  0  0  0  0  0  0  0  0  0  0  0
    0.7923   17.6455   42.0375 C   0  0  0  0  0  0  0  0  0  0  0  0
    1.8944   18.5352   41.6909 C   0  0  0  0  0  0  0  0  0  0  0  0
    1.8409   19.3238   40.5975 N   0  0  0  0  0  0  0  0  0  0  0  0
    2.9904   18.5743   42.4749 N   0  0  0  0  0  0  0  0  0  0  0  0
    4.0415   19.3943   42.1825 C   0  0  0  0  0  0  0  0  0  0  0  0
    5.2295   19.6340   42.7690 N   0  0  0  0  0  0  0  0  0  0  0  0
    5.7305   19.0025   43.9942 C   0  0  0  0  0  0  0  0  0  0  0  0
    5.8701   20.5403   42.0481 N   0  0  0  0  0  0  0  0  0  0  0  0
    5.1438   20.9145   40.9946 C   0  0  0  0  0  0  0  0  0  0  0  0
    3.9699   20.1942   41.0602 C   0  0  0  0  0  0  0  0  0  0  0  0
    2.8458   20.1549   40.2550 C   0  0  0  0  0  0  0  0  0  0  0  0
    2.7330   20.9681   39.0837 N   0  0  0  0  0  0  0  0  0  0  0  0
   -0.3767   18.2424   40.3489 H   0  0  0  0  0  0  0  0  0  0  0  0
   -2.2861   16.7609   40.8692 H   0  0  0  0  0  0  0  0  0  0  0  0
   -2.1658   15.3497   42.8444 H   0  0  0  0  0  0  0  0  0  0  0  0
    1.6427   16.8151   43.7946 H   0  0  0  0  0  0  0  0  0  0  0  0
    6.8363   19.0460   43.9408 H   0  0  0  0  0  0  0  0  0  0  0  0
    5.4668   19.6215   44.8864 H   0  0  0  0  0  0  0  0  0  0  0  0
    5.3286   17.9910   44.0970 H   0  0  0  0  0  0  0  0  0  0  0  0
    5.3582   21.6276   40.2064 H   0  0  0  0  0  0  0  0  0  0  0  0
    2.4286   20.5124   38.1745 H   0  0  0  0  0  0  0  0  0  0  0  0
    2.9499   21.9901   39.1396 H   0  0  0  0  0  0  0  0  0  0  0  0
  1  2  2  0
  1  6  1  0
  2  3  1  0
  3  4  2  0
  4  5  1  0
  5  6  2  0
  6  7  1  0
  7  8  2  0
  7  9  1  0
  8 16  1  0
  9 10  2  0
 10 11  1  0
 10 15  1  0
 11 12  1  0
 11 13  1  0
 13 14  2  0
 14 15  1  0
 15 16  2  0
 16 17  1  0
  1 18  1  0
  2 19  1  0
  3 20  1  0
  5 21  1  0
 12 22  1  0
 12 23  1  0
 12 24  1  0
 14 25  1  0
 17 26  1  0
 17 27  1  0
M  END
>  <mol_id>  (84) 
2026-09-17-6fnk-s0-n100-0084

>  <rmsd_to_ref>  (84) 
4.265306122453909

>  <pose_kind>  (84) 
conformer

$$$$
6fnk.A
     RDKit          3D

 27 29  0  0  0  0  0  0  0  0999 V2000
   -2.1193   16.1272   42.6773 C   0  0  0  0  0  0  0  0  0  0  0  0
   -3.3692   15.5525   42.9082 C   0  0  0  0  0  0  0  0  0  0  0  0
   -3.8365   15.4090   44.2065 C   0  0  0  0  0  0  0  0  0  0  0  0
   -3.0560   15.8439   45.2812 N   0  0  0  0  0  0  0  0  0  0  0  0
   -1.7985   16.4202   45.0459 C   0  0  0  0  0  0  0  0  0  0  0  0
   -1.3272   16.5632   43.7422 C   0  0  0  0  0  0  0  0  0  0  0  0
   -0.0724   17.1359   43.5109 C   0  0  0  0  0  0  0  0  0  0  0  0
    0.4769   17.1249   42.2885 N   0  0  0  0  0  0  0  0  0  0  0  0
    0.5925   17.7105   44.5182 N   0  0  0  0  0  0  0  0  0  0  0  0
    1.8048   18.2637   44.3365 C   0  0  0  0  0  0  0  0  0  0  0  0
    2.6524   18.8710   45.1809 N   0  0  0  0  0  0  0  0  0  0  0  0
    2.4293   19.0944   46.6125 C   0  0  0  0  0  0  0  0  0  0  0  0
    3.6672   19.2372   44.5865 N   0  0  0  0  0  0  0  0  0  0  0  0
    3.5158   18.9092   43.2928 C   0  0  0  0  0  0  0  0  0  0  0  0
    2.3514   18.2682   43.1247 C   0  0  0  0  0  0  0  0  0  0  0  0
    1.6802   17.6938   42.0888 C   0  0  0  0  0  0  0  0  0  0  0  0
    2.2091   17.6772   40.8413 N   0  0  0  0  0  0  0  0  0  0  0  0
   -1.7536   16.2383   41.6458 H   0  0  0  0  0  0  0  0  0  0  0  0
   -3.9839   15.2132   42.0614 H   0  0  0  0  0  0  0  0  0  0  0  0
   -4.8207   14.9532   44.3900 H   0  0  0  0  0  0  0  0  0  0  0  0
   -1.1834   16.7599   45.8922 H   0  0  0  0  0  0  0  0  0  0  0  0
    3.2934   18.7200   47.1810 H   0  0  0  0  0  0  0  0  0  0  0  0
    2.3053   20.1710   46.8006 H   0  0  0  0  0  0  0  0  0  0  0  0
    1.5220   18.5597   46.9299 H   0  0  0  0  0  0  0  0  0  0  0  0
    4.2375   19.1328   42.4933 H   0  0  0  0  0  0  0  0  0  0  0  0
    3.1287   18.1068   40.6660 H   0  0  0  0  0  0  0  0  0  0  0  0
    1.6915   17.2350   40.0683 H   0  0  0  0  0  0  0  0  0  0  0  0
  1  2  2  0
  1  6  1  0
  2  3  1  0
  3  4  2  0
  4  5  1  0
  5  6  2  0
  6  7  1  0
  7  8  2  0
  7  9  1  0
  8 16  1  0
  9 10  2  0
 10 11  1  0
 10 15  1  0
 11 12  1  0
 11 13  1  0
 13 14  2  0
 14 15  1  0
 15 16  2  0
 16 17  1  0
  1 18  1  0
  2 19  1  0
  3 20  1  0
  5 21  1  0
 12 22  1  0
 12 23  1  0
 12 24  1  0
 14 25  1  0
 17 26  1  0
 17 27  1  0
M  END
>  <mol_id>  (85) 
2026-09-17-6fnk-s0-n100-0085

>  <rmsd_to_ref>  (85) 
4.311224489798775

>  <pose_kind>  (85) 
rigid

$$$$
6fnk.A
     RDKit          3D

 27 29  0  0  0  0  0  0  0  0999 V2000
    3.7836   20.4131   41.1909 C   0  0  0  0  0  0  0  0  0  0  0  0
    3.9885   20.9263   39.9256 C   0  0  0  0  0  0  0  0  0  0  0  0
    3.5052   20.1602   38.8594 C   0  0  0  0  0  0  0  0  0  0  0  0
    2.8852   19.0058   39.0557 N   0  0  0  0  0  0  0  0  0  0  0  0
    2.7010   18.5340   40.2883 C   0  0  0  0  0  0  0  0  0  0  0  0
    3.1367   19.2078   41.4028 C   0  0  0  0  0  0  0  0  0  0  0  0
    2.9527   18.7220   42.7652 C   0  0  0  0  0  0  0  0  0  0  0  0
    3.4010   19.4247   43.8262 N   0  0  0  0  0  0  0  0  0  0  0  0
    2.3229   17.5485   42.9744 N   0  0  0  0  0  0  0  0  0  0  0  0
    2.1323   17.0618   44.2352 C   0  0  0  0  0  0  0  0  0  0  0  0
    1.5539   15.9509   44.7293 N   0  0  0  0  0  0  0  0  0  0  0  0
    0.9230   14.8842   43.9449 C   0  0  0  0  0  0  0  0  0  0  0  0
    1.6526   15.9863   46.0485 N   0  0  0  0  0  0  0  0  0  0  0  0
    2.2812   17.0905   46.4520 C   0  0  0  0  0  0  0  0  0  0  0  0
    2.5974   17.7937   45.3088 C   0  0  0  0  0  0  0  0  0  0  0  0
    3.2437   18.9980   45.0954 C   0  0  0  0  0  0  0  0  0  0  0  0
    3.7401   19.7858   46.1811 N   0  0  0  0  0  0  0  0  0  0  0  0
    4.1457   20.9808   42.0450 H   0  0  0  0  0  0  0  0  0  0  0  0
    4.4963   21.8716   39.7658 H   0  0  0  0  0  0  0  0  0  0  0  0
    3.6795   20.5872   37.8708 H   0  0  0  0  0  0  0  0  0  0  0  0
    2.1934   17.5946   40.3988 H   0  0  0  0  0  0  0  0  0  0  0  0
    0.9794   13.9653   44.5613 H   0  0  0  0  0  0  0  0  0  0  0  0
   -0.1712   15.0807   43.8311 H   0  0  0  0  0  0  0  0  0  0  0  0
    1.4002   14.7941   42.9654 H   0  0  0  0  0  0  0  0  0  0  0  0
    2.5306   17.4369   47.4487 H   0  0  0  0  0  0  0  0  0  0  0  0
    4.7362   20.1495   46.1329 H   0  0  0  0  0  0  0  0  0  0  0  0
    3.1202   19.9902   46.9989 H   0  0  0  0  0  0  0  0  0  0  0  0
  1  2  2  0
  1  6  1  0
  2  3  1  0
  3  4  2  0
  4  5  1  0
  5  6  2  0
  6  7  1  0
  7  8  2  0
  7  9  1  0
  8 16  1  0
  9 10  2  0
 10 11  1  0
 10 15  1  0
 11 12  1  0
 11 13  1  0
 13 14  2  0
 14 15  1  0
 15 16  2  0
 16 17  1  0
  1 18  1  0
  2 19  1  0
  3 20  1  0
  5 21  1  0
 12 22  1  0
 12 23  1  0
 12 24  1  0
 14 25  1  0
 17 26  1  0
 17 27  1  0
M  END
>  <mol_id>  (86) 
2026-09-17-6fnk-s0-n100-0086

>  <rmsd_to_ref>  (86) 
4.3571428571489275

>  <pose_kind>  (86) 
conformer

$$$$
6fnk.A
     RDKit          3D

 27 29  0  0  0  0  0  0  0  0999 V2000
    2.3238   17.6476   45.4586 C   0  0  0  0  0  0  0  0  0  0  0  0
    1.8451   16.8242   46.4777 C   0  0  0  0  0  0  0  0  0  0  0  0
    0.4812   16.6089   46.6113 C   0  0  0  0  0  0  0  0  0  0  0  0
   -0.4113   17.2143   45.7224 N   0  0  0  0  0  0  0  0  0  0  0  0
    0.0731   18.0433   44.6991 C   0  0  0  0  0  0  0  0  0  0  0  0
    1.4430   18.2618   44.5651 C   0  0  0  0  0  0  0  0  0  0  0  0
    1.9227   19.0905   43.5457 C   0  0  0  0  0  0  0  0  0  0  0  0
    3.2113   19.4560   43.5019 N   0  0  0  0  0  0  0  0  0  0  0  0
    1.0905   19.5233   42.5932 N   0  0  0  0  0  0  0  0  0  0  0  0
    1.5129   20.3283   41.6020 C   0  0  0  0  0  0  0  0  0  0  0  0
    0.8731   20.8914   40.5658 N   0  0  0  0  0  0  0  0  0  0  0  0
   -0.5499   20.7403   40.2474 C   0  0  0  0  0  0  0  0  0  0  0  0
    1.6528   21.5635   39.8894 N   0  0  0  0  0  0  0  0  0  0  0  0
    2.8708   21.4443   40.4429 C   0  0  0  0  0  0  0  0  0  0  0  0
    2.7921   20.6855   41.5442 C   0  0  0  0  0  0  0  0  0  0  0  0
    3.6513   20.2440   42.5034 C   0  0  0  0  0  0  0  0  0  0  0  0
    4.9609   20.5915   42.4774 N   0  0  0  0  0  0  0  0  0  0  0  0
    3.4063   17.8150   45.3574 H   0  0  0  0  0  0  0  0  0  0  0  0
    2.5486   16.3458   47.1750 H   0  0  0  0  0  0  0  0  0  0  0  0
    0.1023   15.9622   47.4165 H   0  0  0  0  0  0  0  0  0  0  0  0
   -0.6298   18.5217   44.0013 H   0  0  0  0  0  0  0  0  0  0  0  0
   -1.0039   21.7337   40.1170 H   0  0  0  0  0  0  0  0  0  0  0  0
   -0.6582   20.1627   39.3175 H   0  0  0  0  0  0  0  0  0  0  0  0
   -1.0552   20.2111   41.0687 H   0  0  0  0  0  0  0  0  0  0  0  0
    3.7923   21.9002   40.0516 H   0  0  0  0  0  0  0  0  0  0  0  0
    5.3190   21.1937   41.7224 H   0  0  0  0  0  0  0  0  0  0  0  0
    5.5981   20.2533   43.2125 H   0  0  0  0  0  0  0  0  0  0  0  0
  1  2  2  0
  1  6  1  0
  2  3  1  0
  3  4  2  0
  4  5  1  0
  5  6  2  0
  6  7  1  0
  7  8  2  0
  7  9  1  0
  8 16  1  0
  9 10  2  0
 10 11  1  0
 10 15  1  0
 11 12  1  0
 11 13  1  0
 13 14  2  0
 14 15  1  0
 15 16  2  0
 16 17  1  0
  1 18  1  0
  2 19  1  0
  3 20  1  0
  5 21  1  0
 12 22  1  0
 12 23  1  0
 12 24  1  0
 14 25  1  0
 17 26  1  0
 17 27  1  0
M  END
>  <mol_id>  (87) 
2026-09-17-6fnk-s0-n100-0087

>  <rmsd_to_ref>  (87) 
4.403061224492224

>  <pose_kind>  (87) 
rigid

$$$$
6fnk.A
     RDKit          3D

 27 29  0  0  0  0  0  0  0  0999 V2000
    3.0345   18.5140   44.9928 C   0  0  0  0  0  0  0  0  0  0  0  0
    4.0092   17.6003   45.3417 C   0  0  0  0  0  0  0  0  0  0  0  0
    5.0047   17.3604   44.3886 C   0  0  0  0  0  0  0  0  0  0  0  0
    5.0098   17.9774   43.2161 N   0  0  0  0  0  0  0  0  0  0  0  0
    4.0563   18.8550   42.9054 C   0  0  0  0  0  0  0  0  0  0  0  0
    3.0341   19.1619   43.7696 C   0  0  0  0  0  0  0  0  0  0  0  0
    1.9749   20.1161   43.4634 C   0  0  0  0  0  0  0  0  0  0  0  0
    0.9929   20.3812   44.3498 N   0  0  0  0  0  0  0  0  0  0  0  0
    1.9722   20.7485   42.2728 N   0  0  0  0  0  0  0  0  0  0  0  0
    0.9975   21.6480   41.9508 C   0  0  0  0  0  0  0  0  0  0  0  0
    0.7493   22.4074   40.8671 N   0  0  0  0  0  0  0  0  0  0  0  0
    1.5549   22.4533   39.6424 C   0  0  0  0  0  0  0  0  0  0  0  0
   -0.3498   23.1077   41.0969 N   0  0  0  0  0  0  0  0  0  0  0  0
   -0.8450   22.8384   42.3050 C   0  0  0  0  0  0  0  0  0  0  0  0
    0.0007   21.9071   42.8695 C   0  0  0  0  0  0  0  0  0  0  0  0
    0.0025   21.2587   44.0915 C   0  0  0  0  0  0  0  0  0  0  0  0
   -1.0124   21.4996   45.0702 N   0  0  0  0  0  0  0  0  0  0  0  0
    2.2437   18.7264   45.7086 H   0  0  0  0  0  0  0  0  0  0  0  0
    4.0042   17.0955   46.3021 H   0  0  0  0  0  0  0  0  0  0  0  0
    5.7624   16.6350   44.6883 H   0  0  0  0  0  0  0  0  0  0  0  0
    4.1014   19.3303   41.9440 H   0  0  0  0  0  0  0  0  0  0  0  0
    0.8733   22.7730   38.8295 H   0  0  0  0  0  0  0  0  0  0  0  0
    2.3166   23.2685   39.7085 H   0  0  0  0  0  0  0  0  0  0  0  0
    2.0394   21.4895   39.4648 H   0  0  0  0  0  0  0  0  0  0  0  0
   -1.7219   23.2262   42.8113 H   0  0  0  0  0  0  0  0  0  0  0  0
   -1.4911   20.6674   45.5231 H   0  0  0  0  0  0  0  0  0  0  0  0
   -1.2656   22.4828   45.3229 H   0  0  0  0  0  0  0  0  0  0  0  0
  1  2  2  0
  1  6  1  0
  2  3  1  0
  3  4  2  0
  4  5  1  0
  5  6  2  0
  6  7  1  0
  7  8  2  0
  7  9  1  0
  8 16  1  0
  9 10  2  0
 10 11  1  0
 10 15  1  0
 11 12  1  0
 11 13  1  0
 13 14  2  0
 14 15  1  0
 15 16  2  0
 16 17  1  0
  1 18  1  0
  2 19  1  0
  3 20  1  0
  5 21  1  0
 12 22  1  0
 12 23  1  0
 12 24  1  0
 14 25  1  0
 17 26  1  0
 17 27  1  0
M  END
>  <mol_id>  (88) 
2026-09-17-6fnk-s0-n100-0088

>  <rmsd_to_ref>  (88) 
4.448979591838181

>  <pose_kind>  (88) 
conformer

$$$$
6fnk.A
     RDKit          3D

 27 29  0  0  0  0  0  0  0  0999 V2000
    4.3338   17.7205   43.6522 C   0  0  0  0  0  0  0  0  0  0  0  0
    5.6888   17.9960   43.4675 C   0  0  0  0  0  0  0  0  0  0  0  0
    6.4454   17.2092   42.6114 C   0  0  0  0  0  0  0  0  0  0  0  0
    5.8482   16.1437   41.9321 N   0  0  0  0  0  0  0  0  0  0  0  0
    4.4855   15.8680   42.1211 C   0  0  0  0  0  0  0  0  0  0  0  0
    3.7248   16.6566   42.9823 C   0  0  0  0  0  0  0  0  0  0  0  0
    2.3673   16.3779   43.1704 C   0  0  0  0  0  0  0  0  0  0  0  0
    1.6586   17.0053   44.1192 N   0  0  0  0  0  0  0  0  0  0  0  0
    1.7587   15.4778   42.3915 N   0  0  0  0  0  0  0  0  0  0  0  0
    0.4573   15.1770   42.5479 C   0  0  0  0  0  0  0  0  0  0  0  0
   -0.3498   14.3150   41.9109 N   0  0  0  0  0  0  0  0  0  0  0  0
    0.0331   13.4355   40.8024 C   0  0  0  0  0  0  0  0  0  0  0  0
   -1.4881   14.3612   42.3792 N   0  0  0  0  0  0  0  0  0  0  0  0
   -1.4887   15.2969   43.3429 C   0  0  0  0  0  0  0  0  0  0  0  0
   -0.2560   15.8036   43.4785 C   0  0  0  0  0  0  0  0  0  0  0  0
    0.3503   16.7287   44.2722 C   0  0  0  0  0  0  0  0  0  0  0  0
   -0.3455   17.3838   45.2330 N   0  0  0  0  0  0  0  0  0  0  0  0
    3.7387   18.3475   44.3324 H   0  0  0  0  0  0  0  0  0  0  0  0
    6.1570   18.8367   44.0004 H   0  0  0  0  0  0  0  0  0  0  0  0
    7.5146   17.4237   42.4674 H   0  0  0  0  0  0  0  0  0  0  0  0
    4.0165   15.0276   41.5883 H   0  0  0  0  0  0  0  0  0  0  0  0
   -0.2667   12.4026   41.0334 H   0  0  0  0  0  0  0  0  0  0  0  0
   -0.4698   13.7660   39.8815 H   0  0  0  0  0  0  0  0  0  0  0  0
    1.1230   13.4778   40.6603 H   0  0  0  0  0  0  0  0  0  0  0  0
   -2.3673   15.6007   43.9309 H   0  0  0  0  0  0  0  0  0  0  0  0
   -1.3477   17.1877   45.3673 H   0  0  0  0  0  0  0  0  0  0  0  0
    0.1279   18.0779   45.8289 H   0  0  0  0  0  0  0  0  0  0  0  0
  1  2  2  0
  1  6  1  0
  2  3  1  0
  3  4  2  0
  4  5  1  0
  5  6  2  0
  6  7  1  0
  7  8  2  0
  7  9  1  0
  8 16  1  0
  9 10  2  0
 10 11  1  0
 10 15  1  0
 11 12  1  0
 11 13  1  0
 13 14  2  0
 14 15  1  0
 15 16  2  0
 16 17  1  0
  1 18  1  0
  2 19  1  0
  3 20  1  0
  5 21  1  0
 12 22  1  0
 12 23  1  0
 12 24  1  0
 14 25  1  0
 17 26  1  0
 17 27  1  0
M  END
>  <mol_id>  (89) 
2026-09-17-6fnk-s0-n100-0089

>  <rmsd_to_ref>  (89) 
4.4948979591841365

>  <pose_kind>  (89) 
rigid

$$$$
6fnk.A
     RDKit          3D

 27 29  0  0  0  0  0  0  0  0999 V2000
    1.0054   14.8096   42.4884 C   0  0  0  0  0  0  0  0  0  0  0  0
    0.0233   14.1202   43.1715 C   0  0  0  0  0  0  0  0  0  0  0  0
   -0.8021   14.8806   44.0068 C   0  0  0  0  0  0  0  0  0  0  0  0
   -0.6477   16.1904   44.1338 N   0  0  0  0  0  0  0  0  0  0  0  0
    0.3089   16.8305   43.4623 C   0  0  0  0  0  0  0  0  0  0  0  0
    1.1719   16.1778   42.6167 C   0  0  0  0  0  0  0  0  0  0  0  0
    2.2293   16.8454   41.8668 C   0  0  0  0  0  0  0  0  0  0  0  0
    3.0507   16.1555   41.0485 N   0  0  0  0  0  0  0  0  0  0  0  0
    2.3936   18.1778   41.9898 N   0  0  0  0  0  0  0  0  0  0  0  0
    3.3722   18.8371   41.3039 C   0  0  0  0  0  0  0  0  0  0  0  0
    3.7573   20.1254   41.2345 N   0  0  0  0  0  0  0  0  0  0  0  0
    3.1510   21.2478   41.9581 C   0  0  0  0  0  0  0  0  0  0  0  0
    4.7802   20.2057   40.3988 N   0  0  0  0  0  0  0  0  0  0  0  0
    5.0911   19.0066   39.9061 C   0  0  0  0  0  0  0  0  0  0  0  0
    4.2034   18.1157   40.4713 C   0  0  0  0  0  0  0  0  0  0  0  0
    4.0357   16.7484   40.3442 C   0  0  0  0  0  0  0  0  0  0  0  0
    4.8761   15.9654   39.4920 N   0  0  0  0  0  0  0  0  0  0  0  0
    1.6667   14.2519   41.8293 H   0  0  0  0  0  0  0  0  0  0  0  0
   -0.1023   13.0477   43.0670 H   0  0  0  0  0  0  0  0  0  0  0  0
   -1.5695   14.3128   44.5348 H   0  0  0  0  0  0  0  0  0  0  0  0
    0.3962   17.8920   43.5966 H   0  0  0  0  0  0  0  0  0  0  0  0
    3.9383   22.0212   42.0554 H   0  0  0  0  0  0  0  0  0  0  0  0
    2.3583   21.7294   41.3346 H   0  0  0  0  0  0  0  0  0  0  0  0
    2.7365   20.9110   42.9120 H   0  0  0  0  0  0  0  0  0  0  0  0
    5.8634   18.7096   39.2054 H   0  0  0  0  0  0  0  0  0  0  0  0
    5.3094   15.0774   39.8801 H   0  0  0  0  0  0  0  0  0  0  0  0
    5.0498   16.2762   38.5081 H   0  0  0  0  0  0  0  0  0  0  0  0
  1  2  2  0
  1  6  1  0
  2  3  1  0
  3  4  2  0
  4  5  1  0
  5  6  2  0
  6  7  1  0
  7  8  2  0
  7  9  1  0
  8 16  1  0
  9 10  2  0
 10 11  1  0
 10 15  1  0
 11 12  1  0
 11 13  1  0
 13 14  2  0
 14 15  1  0
 15 16  2  0
 16 17  1  0
  1 18  1  0
  2 19  1  0
  3 20  1  0
  5 21  1  0
 12 22  1  0
 12 23  1  0
 12 24  1  0
 14 25  1  0
 17 26  1  0
 17 27  1  0
M  END
>  <mol_id>  (90) 
2026-09-17-6fnk-s0-n100-0090

>  <rmsd_to_ref>  (90) 
4.540816326531542

>  <pose_kind>  (90) 
conformer

$$$$
6fnk.A
     RDKit          3D

 27 29  0  0  0  0  0  0  0  0999 V2000
    2.5259   19.7112   42.2929 C   0  0  0  0  0  0  0  0  0  0  0  0
    3.5208   20.5731   41.8313 C   0  0  0  0  0  0  0  0  0  0  0  0
    4.3474   21.2243   42.7353 C   0  0  0  0  0  0  0  0  0  0  0  0
    4.1846   21.0131   44.1073 N   0  0  0  0  0  0  0  0  0  0  0  0
    3.1819   20.1468   44.5687 C   0  0  0  0  0  0  0  0  0  0  0  0
    2.3497   19.4935   43.6615 C   0  0  0  0  0  0  0  0  0  0  0  0
    1.3496   18.6323   44.1245 C   0  0  0  0  0  0  0  0  0  0  0  0
    0.4287   18.1316   43.2896 N   0  0  0  0  0  0  0  0  0  0  0  0
    1.3091   18.2939   45.4171 N   0  0  0  0  0  0  0  0  0  0  0  0
    0.3577   17.4756   45.9010 C   0  0  0  0  0  0  0  0  0  0  0  0
    0.1092   17.0165   47.1370 N   0  0  0  0  0  0  0  0  0  0  0  0
    0.8865   17.3226   48.3416 C   0  0  0  0  0  0  0  0  0  0  0  0
   -0.8758   16.2769   47.1339 N   0  0  0  0  0  0  0  0  0  0  0  0
   -1.3088   16.1892   45.8655 C   0  0  0  0  0  0  0  0  0  0  0  0
   -0.5522   16.9647   45.0774 C   0  0  0  0  0  0  0  0  0  0  0  0
   -0.5162   17.2948   43.7571 C   0  0  0  0  0  0  0  0  0  0  0  0
   -1.4300   16.7953   42.8901 N   0  0  0  0  0  0  0  0  0  0  0  0
    1.8731   19.1976   41.5717 H   0  0  0  0  0  0  0  0  0  0  0  0
    3.6500   20.7362   40.7512 H   0  0  0  0  0  0  0  0  0  0  0  0
    5.1303   21.9065   42.3726 H   0  0  0  0  0  0  0  0  0  0  0  0
    3.0523   19.9829   45.6486 H   0  0  0  0  0  0  0  0  0  0  0  0
    0.2106   17.6763   49.1341 H   0  0  0  0  0  0  0  0  0  0  0  0
    1.4076   16.4156   48.6820 H   0  0  0  0  0  0  0  0  0  0  0  0
    1.6245   18.1055   48.1127 H   0  0  0  0  0  0  0  0  0  0  0  0
   -2.1553   15.5744   45.5256 H   0  0  0  0  0  0  0  0  0  0  0  0
   -2.1618   16.1532   43.2264 H   0  0  0  0  0  0  0  0  0  0  0  0
   -1.3928   17.0576   41.8948 H   0  0  0  0  0  0  0  0  0  0  0  0
  1  2  2  0
  1  6  1  0
  2  3  1  0
  3  4  2  0
  4  5  1  0
  5  6  2  0
  6  7  1  0
  7  8  2  0
  7  9  1  0
  8 16  1  0
  9 10  2  0
 10 11  1  0
 10 15  1  0
 11 12  1  0
 11 13  1  0
 13 14  2  0
 14 15  1  0
 15 16  2  0
 16 17  1  0
  1 18  1  0
  2 19  1  0
  3 20  1  0
  5 21  1  0
 12 22  1  0
 12 23  1  0
 12 24  1  0
 14 25  1  0
 17 26  1  0
 17 27  1  0
M  END
>  <mol_id>  (91) 
2026-09-17-6fnk-s0-n100-0091

>  <rmsd_to_ref>  (91) 
4.586734693878652

>  <pose_kind>  (91) 
rigid

$$$$
6fnk.A
     RDKit          3D

 27 29  0  0  0  0  0  0  0  0999 V2000
   -0.1516   18.3723   42.8567 C   0  0  0  0  0  0  0  0  0  0  0  0
   -1.4241   18.0739   42.4117 C   0  0  0  0  0  0  0  0  0  0  0  0
   -1.8727   16.7692   42.6436 C   0  0  0  0  0  0  0  0  0  0  0  0
   -1.1160   15.8710   43.2570 N   0  0  0  0  0  0  0  0  0  0  0  0
    0.1089   16.1864   43.6763 C   0  0  0  0  0  0  0  0  0  0  0  0
    0.6439   17.4386   43.4981 C   0  0  0  0  0  0  0  0  0  0  0  0
    1.9794   17.8186   43.9435 C   0  0  0  0  0  0  0  0  0  0  0  0
    2.4568   19.0645   43.7429 N   0  0  0  0  0  0  0  0  0  0  0  0
    2.7562   16.9111   44.5684 N   0  0  0  0  0  0  0  0  0  0  0  0
    4.0113   17.2302   44.9994 C   0  0  0  0  0  0  0  0  0  0  0  0
    4.9820   16.5465   45.6343 N   0  0  0  0  0  0  0  0  0  0  0  0
    4.9138   15.1446   46.0598 C   0  0  0  0  0  0  0  0  0  0  0  0
    6.0119   17.3589   45.8094 N   0  0  0  0  0  0  0  0  0  0  0  0
    5.7580   18.5683   45.3092 C   0  0  0  0  0  0  0  0  0  0  0  0
    4.4837   18.5092   44.7858 C   0  0  0  0  0  0  0  0  0  0  0  0
    3.6874   19.4412   44.1447 C   0  0  0  0  0  0  0  0  0  0  0  0
    4.1401   20.7765   43.9045 N   0  0  0  0  0  0  0  0  0  0  0  0
    0.2316   19.3770   42.6942 H   0  0  0  0  0  0  0  0  0  0  0  0
   -2.0430   18.8100   41.9095 H   0  0  0  0  0  0  0  0  0  0  0  0
   -2.8805   16.5590   42.2827 H   0  0  0  0  0  0  0  0  0  0  0  0
    0.6855   15.4263   44.1683 H   0  0  0  0  0  0  0  0  0  0  0  0
    5.9585   14.7784   46.1044 H   0  0  0  0  0  0  0  0  0  0  0  0
    4.5455   15.0754   47.1127 H   0  0  0  0  0  0  0  0  0  0  0  0
    4.2684   14.5707   45.3895 H   0  0  0  0  0  0  0  0  0  0  0  0
    6.3697   19.4630   45.2796 H   0  0  0  0  0  0  0  0  0  0  0  0
    4.0301   21.1844   42.9307 H   0  0  0  0  0  0  0  0  0  0  0  0
    4.5689   21.3264   44.6846 H   0  0  0  0  0  0  0  0  0  0  0  0
  1  2  2  0
  1  6  1  0
  2  3  1  0
  3  4  2  0
  4  5  1  0
  5  6  2  0
  6  7  1  0
  7  8  2  0
  7  9  1  0
  8 16  1  0
  9 10  2  0
 10 11  1  0
 10 15  1  0
 11 12  1  0
 11 13  1  0
 13 14  2  0
 14 15  1  0
 15 16  2  0
 16 17  1  0
  1 18  1  0
  2 19  1  0
  3 20  1  0
  5 21  1  0
 12 22  1  0
 12 23  1  0
 12 24  1  0
 14 25  1  0
 17 26  1  0
 17 27  1  0
M  END
>  <mol_id>  (92) 
2026-09-17-6fnk-s0-n100-0092

>  <rmsd_to_ref>  (92) 
4.632653061226943

>  <pose_kind>  (92) 
conformer

$$$$
6fnk.A
     RDKit          3D

 27 29  0  0  0  0  0  0  0  0999 V2000
    3.1199   17.5335   43.7410 C   0  0  0  0  0  0  0  0  0  0  0  0
    3.9720   18.0559   44.7142 C   0  0  0  0  0  0  0  0  0  0  0  0
    3.5890   18.0468   46.0475 C   0  0  0  0  0  0  0  0  0  0  0  0
    2.3516   17.5109   46.4145 N   0  0  0  0  0  0  0  0  0  0  0  0
    1.4959   16.9875   45.4333 C   0  0  0  0  0  0  0  0  0  0  0  0
    1.8788   16.9978   44.0933 C   0  0  0  0  0  0  0  0  0  0  0  0
    1.0228   16.4776   43.1172 C   0  0  0  0  0  0  0  0  0  0  0  0
    1.2874   16.6333   41.8127 N   0  0  0  0  0  0  0  0  0  0  0  0
   -0.0748   15.8080   43.4834 N   0  0  0  0  0  0  0  0  0  0  0  0
   -0.9261   15.3009   42.5741 C   0  0  0  0  0  0  0  0  0  0  0  0
   -2.0756   14.6202   42.6990 N   0  0  0  0  0  0  0  0  0  0  0  0
   -2.7163   14.2365   43.9605 C   0  0  0  0  0  0  0  0  0  0  0  0
   -2.5356   14.3408   41.5911 N   0  0  0  0  0  0  0  0  0  0  0  0
   -1.6761   14.8063   40.6698 C   0  0  0  0  0  0  0  0  0  0  0  0
   -0.6646   15.4401   41.2781 C   0  0  0  0  0  0  0  0  0  0  0  0
    0.4547   16.1124   40.8926 C   0  0  0  0  0  0  0  0  0  0  0  0
    0.7502   16.2762   39.5803 N   0  0  0  0  0  0  0  0  0  0  0  0
    3.4285   17.5435   42.6853 H   0  0  0  0  0  0  0  0  0  0  0  0
    4.9470   18.4748   44.4245 H   0  0  0  0  0  0  0  0  0  0  0  0
    4.2589   18.4612   46.8153 H   0  0  0  0  0  0  0  0  0  0  0  0
    0.5209   16.5682   45.7223 H   0  0  0  0  0  0  0  0  0  0  0  0
   -3.7670   14.5621   43.9520 H   0  0  0  0  0  0  0  0  0  0  0  0
   -2.6720   13.1435   44.0766 H   0  0  0  0  0  0  0  0  0  0  0  0
   -2.1906   14.7159   44.7994 H   0  0  0  0  0  0  0  0  0  0  0  0
   -1.7861   14.6856   39.5820 H   0  0  0  0  0  0  0  0  0  0  0  0
    0.1267   15.8858   38.8593 H   0  0  0  0  0  0  0  0  0  0  0  0
    1.5983   16.7911   39.3037 H   0  0  0  0  0  0  0  0  0  0  0  0
  1  2  2  0
  1  6  1  0
  2  3  1  0
  3  4  2  0
  4  5  1  0
  5  6  2  0
  6  7  1  0
  7  8  2  0
  7  9  1  0
  8 16  1  0
  9 10  2  0
 10 11  1  0
 10 15  1  0
 11 12  1  0
 11 13  1  0
 13 14  2  0
 14 15  1  0
 15 16  2  0
 16 17  1  0
  1 18  1  0
  2 19  1  0
  3 20  1  0
  5 21  1  0
 12 22  1  0
 12 23  1  0
 12 24  1  0
 14 25  1  0
 17 26  1  0
 17 27  1  0
M  END
>  <mol_id>  (93) 
2026-09-17-6fnk-s0-n100-0093

>  <rmsd_to_ref>  (93) 
4.678571428571712

>  <pose_kind>  (93) 
rigid

$$$$
6fnk.A
     RDKit          3D

 27 29  0  0  0  0  0  0  0  0999 V2000
    4.5654   15.7652   41.5551 C   0  0  0  0  0  0  0  0  0  0  0  0
    5.8486   15.3006   41.7654 C   0  0  0  0  0  0  0  0  0  0  0  0
    6.8248   15.7459   40.8677 C   0  0  0  0  0  0  0  0  0  0  0  0
    6.5316   16.5684   39.8712 N   0  0  0  0  0  0  0  0  0  0  0  0
    5.2842   17.0014   39.6916 C   0  0  0  0  0  0  0  0  0  0  0  0
    4.2527   16.6246   40.5160 C   0  0  0  0  0  0  0  0  0  0  0  0
    2.8769   17.0783   40.3495 C   0  0  0  0  0  0  0  0  0  0  0  0
    1.9002   16.6768   41.1893 N   0  0  0  0  0  0  0  0  0  0  0  0
    2.5696   17.9153   39.3384 N   0  0  0  0  0  0  0  0  0  0  0  0
    1.2932   18.3610   39.1510 C   0  0  0  0  0  0  0  0  0  0  0  0
    0.7125   19.1783   38.2523 N   0  0  0  0  0  0  0  0  0  0  0  0
    1.3867   19.8572   37.1408 C   0  0  0  0  0  0  0  0  0  0  0  0
   -0.5753   19.2644   38.5447 N   0  0  0  0  0  0  0  0  0  0  0  0
   -0.8735   18.5272   39.6148 C   0  0  0  0  0  0  0  0  0  0  0  0
    0.3067   17.9402   40.0195 C   0  0  0  0  0  0  0  0  0  0  0  0
    0.6209   17.0813   41.0574 C   0  0  0  0  0  0  0  0  0  0  0  0
   -0.3725   16.6224   41.9785 N   0  0  0  0  0  0  0  0  0  0  0  0
    3.7794   15.4405   42.2330 H   0  0  0  0  0  0  0  0  0  0  0  0
    6.0877   14.6270   42.5816 H   0  0  0  0  0  0  0  0  0  0  0  0
    7.8295   15.3646   41.0553 H   0  0  0  0  0  0  0  0  0  0  0  0
    5.0939   17.6667   38.8709 H   0  0  0  0  0  0  0  0  0  0  0  0
    0.6133   20.0409   36.3690 H   0  0  0  0  0  0  0  0  0  0  0  0
    1.7208   20.8768   37.4533 H   0  0  0  0  0  0  0  0  0  0  0  0
    2.2366   19.2665   36.7886 H   0  0  0  0  0  0  0  0  0  0  0  0
   -1.8185   18.3691   40.1223 H   0  0  0  0  0  0  0  0  0  0  0  0
   -0.4311   15.5836   42.1888 H   0  0  0  0  0  0  0  0  0  0  0  0
   -1.0205   17.3106   42.4271 H   0  0  0  0  0  0  0  0  0  0  0  0
  1  2  2  0
  1  6  1  0
  2  3  1  0
  3  4  2  0
  4  5  1  0
  5  6  2  0
  6  7  1  0
  7  8  2  0
  7  9  1  0
  8 16  1  0
  9 10  2  0
 10 11  1  0
 10 15  1  0
 11 12  1  0
 11 13  1  0
 13 14  2  0
 14 15  1  0
 15 16  2  0
 16 17  1  0
  1 18  1  0
  2 19  1  0
  3 20  1  0
  5 21  1  0
 12 22  1  0
 12 23  1  0
 12 24  1  0
 14 25  1  0
 17 26  1  0
 17 27  1  0
M  END
>  <mol_id>  (94) 
2026-09-17-6fnk-s0-n100-0094

>  <rmsd_to_ref>  (94) 
4.724489795919655

>  <pose_kind>  (94) 
conformer

$$$$
6fnk.A
     RDKit          3D

 27 29  0  0  0  0  0  0  0  0999 V2000
   -0.0394   14.2961   43.0542 C   0  0  0  0  0  0  0  0  0  0  0  0
   -0.8525   13.7820   44.0644 C   0  0  0  0  0  0  0  0  0  0  0  0
   -0.7898   14.3162   45.3432 C   0  0  0  0  0  0  0  0  0  0  0  0
    0.0850   15.3712   45.6168 N   0  0  0  0  0  0  0  0  0  0  0  0
    0.9027   15.8852   44.5990 C   0  0  0  0  0  0  0  0  0  0  0  0
    0.8421   15.3481   43.3144 C   0  0  0  0  0  0  0  0  0  0  0  0
    1.6601   15.8609   42.3025 C   0  0  0  0  0  0  0  0  0  0  0  0
    1.7493   15.2524   41.1118 N   0  0  0  0  0  0  0  0  0  0  0  0
    2.3618   16.9784   42.5166 N   0  0  0  0  0  0  0  0  0  0  0  0
    3.1657   17.4968   41.5711 C   0  0  0  0  0  0  0  0  0  0  0  0
    3.9629   18.5760   41.5607 N   0  0  0  0  0  0  0  0  0  0  0  0
    4.1507   19.5185   42.6677 C   0  0  0  0  0  0  0  0  0  0  0  0
    4.5274   18.6864   40.4716 N   0  0  0  0  0  0  0  0  0  0  0  0
    4.0939   17.6833   39.6905 C   0  0  0  0  0  0  0  0  0  0  0  0
    3.2504   16.9064   40.3831 C   0  0  0  0  0  0  0  0  0  0  0  0
    2.5337   15.7726   40.1498 C   0  0  0  0  0  0  0  0  0  0  0  0
    2.5990   15.1428   38.9517 N   0  0  0  0  0  0  0  0  0  0  0  0
   -0.0929   13.8686   42.0421 H   0  0  0  0  0  0  0  0  0  0  0  0
   -1.5428   12.9536   43.8472 H   0  0  0  0  0  0  0  0  0  0  0  0
   -1.4284   13.9096   46.1413 H   0  0  0  0  0  0  0  0  0  0  0  0
    1.5931   16.7137   44.8154 H   0  0  0  0  0  0  0  0  0  0  0  0
    5.2255   19.6392   42.8681 H   0  0  0  0  0  0  0  0  0  0  0  0
    3.7164   20.4924   42.3977 H   0  0  0  0  0  0  0  0  0  0  0  0
    3.6511   19.1311   43.5679 H   0  0  0  0  0  0  0  0  0  0  0  0
    4.3867   17.5241   38.6422 H   0  0  0  0  0  0  0  0  0  0  0  0
    3.1931   15.5236   38.2014 H   0  0  0  0  0  0  0  0  0  0  0  0
    2.0545   14.2833   38.7914 H   0  0  0  0  0  0  0  0  0  0  0  0
  1  2  2  0
  1  6  1  0
  2  3  1  0
  3  4  2  0
  4  5  1  0
  5  6  2  0
  6  7  1  0
  7  8  2  0
  7  9  1  0
  8 16  1  0
  9 10  2  0
 10 11  1  0
 10 15  1  0
 11 12  1  0
 11 13  1  0
 13 14  2  0
 14 15  1  0
 15 16  2  0
 16 17  1  0
  1 18  1  0
  2 19  1  0
  3 20  1  0
  5 21  1  0
 12 22  1  0
 12 23  1  0
 12 24  1  0
 14 25  1  0
 17 26  1  0
 17 27  1  0
M  END
>  <mol_id>  (95) 
2026-09-17-6fnk-s0-n100-0095

>  <rmsd_to_ref>  (95) 
4.770408163270917

>  <pose_kind>  (95) 
rigid

$$$$
6fnk.A
     RDKit          3D

 27 29  0  0  0  0  0  0  0  0999 V2000
    2.4243   17.2969   43.6931 C   0  0  0  0  0  0  0  0  0  0  0  0
    2.9239   16.9840   44.9417 C   0  0  0  0  0  0  0  0  0  0  0  0
    3.0566   15.6223   45.2337 C   0  0  0  0  0  0  0  0  0  0  0  0
    2.7205   14.6861   44.3584 N   0  0  0  0  0  0  0  0  0  0  0  0
    2.2405   15.0167   43.1600 C   0  0  0  0  0  0  0  0  0  0  0  0
    2.0714   16.3238   42.7742 C   0  0  0  0  0  0  0  0  0  0  0  0
    1.5494   16.7219   41.4722 C   0  0  0  0  0  0  0  0  0  0  0  0
    1.4031   18.0223   41.1438 N   0  0  0  0  0  0  0  0  0  0  0  0
    1.2049   15.7761   40.5754 N   0  0  0  0  0  0  0  0  0  0  0  0
    0.7130   16.1105   39.3470 C   0  0  0  0  0  0  0  0  0  0  0  0
    0.2989   15.3984   38.2820 N   0  0  0  0  0  0  0  0  0  0  0  0
    0.2754   13.9357   38.1777 C   0  0  0  0  0  0  0  0  0  0  0  0
   -0.0848   16.2473   37.3420 N   0  0  0  0  0  0  0  0  0  0  0  0
    0.0609   17.5088   37.7480 C   0  0  0  0  0  0  0  0  0  0  0  0
    0.5699   17.4456   39.0279 C   0  0  0  0  0  0  0  0  0  0  0  0
    0.9231   18.4169   39.9473 C   0  0  0  0  0  0  0  0  0  0  0  0
    0.7899   19.8107   39.6549 N   0  0  0  0  0  0  0  0  0  0  0  0
    2.3070   18.3457   43.4301 H   0  0  0  0  0  0  0  0  0  0  0  0
    3.1989   17.7513   45.6578 H   0  0  0  0  0  0  0  0  0  0  0  0
    3.4532   15.4017   46.2257 H   0  0  0  0  0  0  0  0  0  0  0  0
    1.9817   14.2243   42.4836 H   0  0  0  0  0  0  0  0  0  0  0  0
   -0.5085   13.6859   37.4357 H   0  0  0  0  0  0  0  0  0  0  0  0
    1.2250   13.5633   37.7210 H   0  0  0  0  0  0  0  0  0  0  0  0
    0.1195   13.4830   39.1606 H   0  0  0  0  0  0  0  0  0  0  0  0
   -0.1521   18.4430   37.2405 H   0  0  0  0  0  0  0  0  0  0  0  0
    0.3104   20.4367   40.3655 H   0  0  0  0  0  0  0  0  0  0  0  0
    1.1634   20.1890   38.7538 H   0  0  0  0  0  0  0  0  0  0  0  0
  1  2  2  0
  1  6  1  0
  2  3  1  0
  3  4  2  0
  4  5  1  0
  5  6  2  0
  6  7  1  0
  7  8  2  0
  7  9  1  0
  8 16  1  0
  9 10  2  0
 10 11  1  0
 10 15  1  0
 11 12  1  0
 11 13  1  0
 13 14  2  0
 14 15  1  0
 15 16  2  0
 16 17  1  0
  1 18  1  0
  2 19  1  0
  3 20  1  0
  5 21  1  0
 12 22  1  0
 12 23  1  0
 12 24  1  0
 14 25  1  0
 17 26  1  0
 17 27  1  0
M  END
>  <mol_id>  (96) 
2026-09-17-6fnk-s0-n100-0096

>  <rmsd_to_ref>  (96) 
4.816326530616163

>  <pose_kind>  (96) 
conformer

$$$$
6fnk.A
     RDKit          3D

 27 29  0  0  0  0  0  0  0  0999 V2000
   -0.6256   15.3818   45.7504 C   0  0  0  0  0  0  0  0  0  0  0  0
   -1.2592   14.9658   46.9215 C   0  0  0  0  0  0  0  0  0  0  0  0
   -1.5254   15.8824   47.9283 C   0  0  0  0  0  0  0  0  0  0  0  0
   -1.1619   17.2221   47.7663 N   0  0  0  0  0  0  0  0  0  0  0  0
   -0.5234   17.6373   46.5879 C   0  0  0  0  0  0  0  0  0  0  0  0
   -0.2537   16.7171   45.5766 C   0  0  0  0  0  0  0  0  0  0  0  0
    0.3850   17.1335   44.4041 C   0  0  0  0  0  0  0  0  0  0  0  0
    0.8114   16.2440   43.4969 N   0  0  0  0  0  0  0  0  0  0  0  0
    0.5707   18.4373   44.1747 N   0  0  0  0  0  0  0  0  0  0  0  0
    1.1883   18.8754   43.0632 C   0  0  0  0  0  0  0  0  0  0  0  0
    1.4966   20.1079   42.6316 N   0  0  0  0  0  0  0  0  0  0  0  0
    1.2004   21.3633   43.3282 C   0  0  0  0  0  0  0  0  0  0  0  0
    2.0676   20.0543   41.5416 N   0  0  0  0  0  0  0  0  0  0  0  0
    2.1334   18.7610   41.1852 C   0  0  0  0  0  0  0  0  0  0  0  0
    1.6033   18.0005   42.1525 C   0  0  0  0  0  0  0  0  0  0  0  0
    1.4120   16.6704   42.3704 C   0  0  0  0  0  0  0  0  0  0  0  0
    1.8256   15.7507   41.4651 N   0  0  0  0  0  0  0  0  0  0  0  0
   -0.4167   14.6508   44.9555 H   0  0  0  0  0  0  0  0  0  0  0  0
   -1.5474   13.9117   47.0466 H   0  0  0  0  0  0  0  0  0  0  0  0
   -2.0222   15.5549   48.8534 H   0  0  0  0  0  0  0  0  0  0  0  0
   -0.2351   18.6914   46.4620 H   0  0  0  0  0  0  0  0  0  0  0  0
    2.1194   21.9619   43.4117 H   0  0  0  0  0  0  0  0  0  0  0  0
    0.4453   21.9278   42.7614 H   0  0  0  0  0  0  0  0  0  0  0  0
    0.8141   21.1422   44.3341 H   0  0  0  0  0  0  0  0  0  0  0  0
    2.5577   18.3838   40.2430 H   0  0  0  0  0  0  0  0  0  0  0  0
    2.2876   16.0549   40.5962 H   0  0  0  0  0  0  0  0  0  0  0  0
    1.6780   14.7475   41.6459 H   0  0  0  0  0  0  0  0  0  0  0  0
  1  2  2  0
  1  6  1  0
  2  3  1  0
  3  4  2  0
  4  5  1  0
  5  6  2  0
  6  7  1  0
  7  8  2  0
  7  9  1  0
  8 16  1  0
  9 10  2  0
 10 11  1  0
 10 15  1  0
 11 12  1  0
 11 13  1  0
 13 14  2  0
 14 15  1  0
 15 16  2  0
 16 17  1  0
  1 18  1  0
  2 19  1  0
  3 20  1  0
  5 21  1  0
 12 22  1  0
 12 23  1  0
 12 24  1  0
 14 25  1  0
 17 26  1  0
 17 27  1  0
M  END
>  <mol_id>  (97) 
2026-09-17-6fnk-s0-n100-0097

>  <rmsd_to_ref>  (97) 
4.862244897960793

>  <pose_kind>  (97) 
rigid

$$$$
6fnk.A
     RDKit          3D

 27 29  0  0  0  0  0  0  0  0999 V2000
   -0.0958   19.7980   41.4789 C   0  0  0  0  0  0  0  0  0  0  0  0
    0.4150   20.6180   40.4923 C   0  0  0  0  0  0  0  0  0  0  0  0
    1.4672   20.0945   39.7335 C   0  0  0  0  0  0  0  0  0  0  0  0
    1.9456   18.8783   39.9514 N   0  0  0  0  0  0  0  0  0  0  0  0
    1.4334   18.1080   40.9106 C   0  0  0  0  0  0  0  0  0  0  0  0
    0.3994   18.5265   41.7116 C   0  0  0  0  0  0  0  0  0  0  0  0
   -0.1853   17.7113   42.7698 C   0  0  0  0  0  0  0  0  0  0  0  0
   -1.2014   18.1718   43.5286 N   0  0  0  0  0  0  0  0  0  0  0  0
    0.2952   16.4726   42.9985 N   0  0  0  0  0  0  0  0  0  0  0  0
   -0.2266   15.6806   43.9800 C   0  0  0  0  0  0  0  0  0  0  0  0
    0.0463   14.4378   44.4201 N   0  0  0  0  0  0  0  0  0  0  0  0
    1.0814   13.5430   43.8922 C   0  0  0  0  0  0  0  0  0  0  0  0
   -0.7822   14.1610   45.4142 N   0  0  0  0  0  0  0  0  0  0  0  0
   -1.6030   15.1842   45.6523 C   0  0  0  0  0  0  0  0  0  0  0  0
   -1.2657   16.1677   44.7466 C   0  0  0  0  0  0  0  0  0  0  0  0
   -1.7595   17.4386   44.5128 C   0  0  0  0  0  0  0  0  0  0  0  0
   -2.8350   17.9796   45.2851 N   0  0  0  0  0  0  0  0  0  0  0  0
   -0.9149   20.1708   42.0895 H   0  0  0  0  0  0  0  0  0  0  0  0
    0.0227   21.6137   40.3146 H   0  0  0  0  0  0  0  0  0  0  0  0
    1.8529   20.7615   38.9612 H   0  0  0  0  0  0  0  0  0  0  0  0
    1.8530   17.1299   41.0507 H   0  0  0  0  0  0  0  0  0  0  0  0
    1.3520   12.8542   44.7167 H   0  0  0  0  0  0  0  0  0  0  0  0
    0.6550   12.8803   43.0996 H   0  0  0  0  0  0  0  0  0  0  0  0
    1.9229   14.1191   43.4982 H   0  0  0  0  0  0  0  0  0  0  0  0
   -2.3948   15.2990   46.3841 H   0  0  0  0  0  0  0  0  0  0  0  0
   -2.7302   18.9544   45.6917 H   0  0  0  0  0  0  0  0  0  0  0  0
   -3.7009   17.4120   45.4364 H   0  0  0  0  0  0  0  0  0  0  0  0
  1  2  2  0
  1  6  1  0
  2  3  1  0
  3  4  2  0
  4  5  1  0
  5  6  2  0
  6  7  1  0
  7  8  2  0
  7  9  1  0
  8 16  1  0
  9 10  2  0
 10 11  1  0
 10 15  1  0
 11 12  1  0
 11 13  1  0
 13 14  2  0
 14 15  1  0
 15 16  2  0
 16 17  1  0
  1 18  1  0
  2 19  1  0
  3 20  1  0
  5 21  1  0
 12 22  1  0
 12 23  1  0
 12 24  1  0
 14 25  1  0
 17 26  1  0
 17 27  1  0
M  END
>  <mol_id>  (98) 
2026-09-17-6fnk-s0-n100-0098

>  <rmsd_to_ref>  (98) 
4.908163265308384

>  <pose_kind>  (98) 
conformer

$$$$
6fnk.A
     RDKit          3D

 27 29  0  0  0  0  0  0  0  0999 V2000
   -0.6752   15.9407   38.6213 C   0  0  0  0  0  0  0  0  0  0  0  0
   -1.8516   16.0572   37.8807 C   0  0  0  0  0  0  0  0  0  0  0  0
   -2.6879   17.1467   38.0756 C   0  0  0  0  0  0  0  0  0  0  0  0
   -2.3490   18.1281   39.0111 N   0  0  0  0  0  0  0  0  0  0  0  0
   -1.1658   18.0074   39.7558 C   0  0  0  0  0  0  0  0  0  0  0  0
   -0.3258   16.9124   39.5621 C   0  0  0  0  0  0  0  0  0  0  0  0
    0.8517   16.7936   40.3075 C   0  0  0  0  0  0  0  0  0  0  0  0
    1.5834   15.6715   40.2684 N   0  0  0  0  0  0  0  0  0  0  0  0
    1.2634   17.8131   41.0678 N   0  0  0  0  0  0  0  0  0  0  0  0
    2.3854   17.7331   41.8051 C   0  0  0  0  0  0  0  0  0  0  0  0
    2.9776   18.6011   42.6394 N   0  0  0  0  0  0  0  0  0  0  0  0
    2.5006   19.9497   42.9597 C   0  0  0  0  0  0  0  0  0  0  0  0
    4.0069   18.1152   43.1101 N   0  0  0  0  0  0  0  0  0  0  0  0
    4.1579   16.8940   42.5715 C   0  0  0  0  0  0  0  0  0  0  0  0
    3.1235   16.6283   41.7626 C   0  0  0  0  0  0  0  0  0  0  0  0
    2.7194   15.5864   40.9851 C   0  0  0  0  0  0  0  0  0  0  0  0
    3.4456   14.4440   40.9207 N   0  0  0  0  0  0  0  0  0  0  0  0
   -0.0158   15.0746   38.4628 H   0  0  0  0  0  0  0  0  0  0  0  0
   -2.1159   15.2857   37.1425 H   0  0  0  0  0  0  0  0  0  0  0  0
   -3.6173   17.2381   37.4943 H   0  0  0  0  0  0  0  0  0  0  0  0
   -0.9008   18.7787   40.4939 H   0  0  0  0  0  0  0  0  0  0  0  0
    2.4485   20.0705   44.0518 H   0  0  0  0  0  0  0  0  0  0  0  0
    3.1949   20.6933   42.5413 H   0  0  0  0  0  0  0  0  0  0  0  0
    1.5004   20.0974   42.5263 H   0  0  0  0  0  0  0  0  0  0  0  0
    5.0020   16.2157   42.7650 H   0  0  0  0  0  0  0  0  0  0  0  0
    4.3182   14.3573   41.4610 H   0  0  0  0  0  0  0  0  0  0  0  0
    3.1248   13.6624   40.3316 H   0  0  0  0  0  0  0  0  0  0  0  0
  1  2  2  0
  1  6  1  0
  2  3  1  0
  3  4  2  0
  4  5  1  0
  5  6  2  0
  6  7  1  0
  7  8  2  0
  7  9  1  0
  8 16  1  0
  9 10  2  0
 10 11  1  0
 10 15  1  0
 11 12  1  0
 11 13  1  0
 13 14  2  0
 14 15  1  0
 15 16  2  0
 16 17  1  0
  1 18  1  0
  2 19  1  0
  3 20  1  0
  5 21  1  0
 12 22  1  0
 12 23  1  0
 12 24  1  0
 14 25  1  0
 17 26  1  0
 17 27  1  0
M  END
>  <mol_id>  (99) 
2026-09-17-6fnk-s0-n100-0099

>  <rmsd_to_ref>  (99) 
4.954081632656076

>  <pose_kind>  (99) 
rigid

$$$$
6fnk.A
     RDKit          3D

 27 29  0  0  0  0  0  0  0  0999 V2000
    5.7830   18.1856   41.6337 C   0  0  0  0  0  0  0  0  0  0  0  0
    6.4586   18.9497   40.7029 C   0  0  0  0  0  0  0  0  0  0  0  0
    6.3049   20.3361   40.8088 C   0  0  0  0  0  0  0  0  0  0  0  0
    5.5519   20.8837   41.7514 N   0  0  0  0  0  0  0  0  0  0  0  0
    4.9108   20.1220   42.6373 C   0  0  0  0  0  0  0  0  0  0  0  0
    4.9947   18.7514   42.6209 C   0  0  0  0  0  0  0  0  0  0  0  0
    4.3076   17.8874   43.5735 C   0  0  0  0  0  0  0  0  0  0  0  0
    4.4244   16.5446   43.5124 N   0  0  0  0  0  0  0  0  0  0  0  0
    3.5393   18.4359   44.5360 N   0  0  0  0  0  0  0  0  0  0  0  0
    2.8810   17.6593   45.4451 C   0  0  0  0  0  0  0  0  0  0  0  0
    2.0680   17.9253   46.4848 N   0  0  0  0  0  0  0  0  0  0  0  0
    1.6516   19.2571   46.9364 C   0  0  0  0  0  0  0  0  0  0  0  0
    1.7077   16.7753   47.0315 N   0  0  0  0  0  0  0  0  0  0  0  0
    2.2570   15.7458   46.3866 C   0  0  0  0  0  0  0  0  0  0  0  0
    3.0118   16.2876   45.3678 C   0  0  0  0  0  0  0  0  0  0  0  0
    3.7999   15.7238   44.3806 C   0  0  0  0  0  0  0  0  0  0  0  0
    3.9610   14.3071   44.2670 N   0  0  0  0  0  0  0  0  0  0  0  0
    5.8783   17.1034   41.5829 H   0  0  0  0  0  0  0  0  0  0  0  0
    7.0749   18.5004   39.9313 H   0  0  0  0  0  0  0  0  0  0  0  0
    6.8485   20.9169   40.0622 H   0  0  0  0  0  0  0  0  0  0  0  0
    4.3122   20.6098   43.3830 H   0  0  0  0  0  0  0  0  0  0  0  0
    0.6820   19.1241   47.4557 H   0  0  0  0  0  0  0  0  0  0  0  0
    2.3455   19.6340   47.7272 H   0  0  0  0  0  0  0  0  0  0  0  0
    1.6148   19.9540   46.0949 H   0  0  0  0  0  0  0  0  0  0  0  0
    2.1776   14.6789   46.5623 H   0  0  0  0  0  0  0  0  0  0  0  0
    3.8312   13.8543   43.3158 H   0  0  0  0  0  0  0  0  0  0  0  0
    4.2022   13.7434   45.1149 H   0  0  0  0  0  0  0  0  0  0  0  0
  1  2  2  0
  1  6  1  0
  2  3  1  0
  3  4  2  0
  4  5  1  0
  5  6  2  0
  6  7  1  0
  7  8  2  0
  7  9  1  0
  8 16  1  0
  9 10  2  0
 10 11  1  0
 10 15  1  0
 11 12  1  0
 11 13  1  0
 13 14  2  0
 14 15  1  0
 15 16  2  0
 16 17  1  0
  1 18  1  0
  2 19  1  0
  3 20  1  0
  5 21  1  0
 12 22  1  0
 12 23  1  0
 12 24  1  0
 14 25  1  0
 17 26  1  0
 17 27  1  0
M  END
>  <mol_id>  (100) 
2026-09-17-6fnk-s0-n100-0100

>  <rmsd_to_ref>  (100) 
5.000000000000223

>  <pose_kind>  (100) 
conformer

$$$$
