6fnk.A
     RDKit          3D

 27 29  0  0  0  0  0  0  0  0999 V2000
    2.9034   16.1161   40.7342 C   0  0  0  0  0  0  0  0  0  0  0  0
    3.3991   14.8730   40.3406 C   0  0  0  0  0  0  0  0  0  0  0  0
    3.2111   13.7637   41.1521 C   0  0  0  0  0  0  0  0  0  0  0  0
    2.5220   13.8922   42.3612 N   0  0  0  0  0  0  0  0  0  0  0  0
    2.0259   15.1442   42.7552 C   0  0  0  0  0  0  0  0  0  0  0  0
    2.2158   16.2597   41.9417 C   0  0  0  0  0  0  0  0  0  0  0  0
    1.7222   17.5068   42.3382 C   0  0  0  0  0  0  0  0  0  0  0  0
    2.0408   18.6212   41.6654 N   0  0  0  0  0  0  0  0  0  0  0  0
    0.9145   17.5957   43.3997 N   0  0  0  0  0  0  0  0  0  0  0  0
    0.4272   18.7780   43.8163 C   0  0  0  0  0  0  0  0  0  0  0  0
   -0.3708   19.1111   44.8422 N   0  0  0  0  0  0  0  0  0  0  0  0
   -0.9468   18.1844   45.8212 C   0  0  0  0  0  0  0  0  0  0  0  0
   -0.5738   20.3259   44.8557 N   0  0  0  0  0  0  0  0  0  0  0  0
    0.0681   20.8526   43.7999 C   0  0  0  0  0  0  0  0  0  0  0  0
    0.7283   19.8866   43.1473 C   0  0  0  0  0  0  0  0  0  0  0  0
    1.5428   19.8079   42.0593 C   0  0  0  0  0  0  0  0  0  0  0  0
    1.8732   20.9182   41.3561 N   0  0  0  0  0  0  0  0  0  0  0  0
    3.0555   16.9924   40.0870 H   0  0  0  0  0  0  0  0  0  0  0  0
    3.9387   14.7724   39.3873 H   0  0  0  0  0  0  0  0  0  0  0  0
    3.6041   12.7836   40.8441 H   0  0  0  0  0  0  0  0  0  0  0  0
    1.4860   15.2454   43.7082 H   0  0  0  0  0  0  0  0  0  0  0  0
   -0.7252   18.5408   46.8380 H   0  0  0  0  0  0  0  0  0  0  0  0
   -2.0365   18.1326   45.6801 H   0  0  0  0  0  0  0  0  0  0  0  0
   -0.5109   17.1844   45.6801 H   0  0  0  0  0  0  0  0  0  0  0  0
    0.0539   21.9149   43.5146 H   0  0  0  0  0  0  0  0  0  0  0  0
    1.5034   21.8366   41.6400 H   0  0  0  0  0  0  0  0  0  0  0  0
    2.4942   20.8437   40.5377 H   0  0  0  0  0  0  0  0  0  0  0  0
  1  2  2  0
  1  6  1  0
  2  3  1  0
  3  4  2  0
  4  5  1  0
  5  6  2  0
  6  7  1  0
  7  8  2  0
  7  9  1  0
  8 16  1  0
  9 10  2  0
 10 11  1  0
 10 15  1  0
 11 12  1  0
 11 13  1  0
 13 14  2  0
 14 15  1  0
 15 16  2  0
 16 17  1  0
  1 18  1  0
  2 19  1  0
  3 20  1  0
  5 21  1  0
 12 22  1  0
 12 23  1  0
 12 24  1  0
 14 25  1  0
 17 26  1  0
 17 27  1  0
M  END
>  <mol_id>  (1) 
2026-09-18-6fnk-s0-n100-r9-0001

>  <rmsd_to_ref>  (1) 
0.0

>  <pose_kind>  (1) 
native

$$$$
6fnk.A
     RDKit          3D

 27 29  0  0  0  0  0  0  0  0999 V2000
    3.6269   16.2617   41.1593 C   0  0  0  0  0  0  0  0  0  0  0  0
    4.2845   15.0741   40.8356 C   0  0  0  0  0  0  0  0  0  0  0  0
    3.9274   13.9073   41.4806 C   0  0  0  0  0  0  0  0  0  0  0  0
    2.9625   13.8514   42.4213 N   0  0  0  0  0  0  0  0  0  0  0  0
    2.3079   14.9994   42.7524 C   0  0  0  0  0  0  0  0  0  0  0  0
    2.6405   16.1926   42.1241 C   0  0  0  0  0  0  0  0  0  0  0  0
    1.9459   17.4459   42.4662 C   0  0  0  0  0  0  0  0  0  0  0  0
    2.2481   18.6163   41.8730 N   0  0  0  0  0  0  0  0  0  0  0  0
    0.9664   17.4376   43.4086 N   0  0  0  0  0  0  0  0  0  0  0  0
    0.2997   18.5401   43.7629 C   0  0  0  0  0  0  0  0  0  0  0  0
   -0.6947   18.8331   44.6417 N   0  0  0  0  0  0  0  0  0  0  0  0
   -1.3280   17.8536   45.5032 C   0  0  0  0  0  0  0  0  0  0  0  0
   -0.9484   20.1332   44.5484 N   0  0  0  0  0  0  0  0  0  0  0  0
   -0.1528   20.7162   43.6337 C   0  0  0  0  0  0  0  0  0  0  0  0
    0.6447   19.7329   43.1229 C   0  0  0  0  0  0  0  0  0  0  0  0
    1.6327   19.7782   42.1627 C   0  0  0  0  0  0  0  0  0  0  0  0
    2.0166   20.9666   41.4865 N   0  0  0  0  0  0  0  0  0  0  0  0
    3.8984   17.1817   40.6604 H   0  0  0  0  0  0  0  0  0  0  0  0
    5.0655   15.0852   40.0830 H   0  0  0  0  0  0  0  0  0  0  0  0
    4.4318   12.9782   41.2371 H   0  0  0  0  0  0  0  0  0  0  0  0
    1.5301   14.9806   43.5040 H   0  0  0  0  0  0  0  0  0  0  0  0
   -2.1432   18.3814   46.0493 H   0  0  0  0  0  0  0  0  0  0  0  0
   -0.6051   17.3712   46.1954 H   0  0  0  0  0  0  0  0  0  0  0  0
   -1.8320   17.0548   44.9138 H   0  0  0  0  0  0  0  0  0  0  0  0
   -0.1344   21.7731   43.3423 H   0  0  0  0  0  0  0  0  0  0  0  0
    2.0137   21.8697   42.0336 H   0  0  0  0  0  0  0  0  0  0  0  0
    2.3006   20.9856   40.4747 H   0  0  0  0  0  0  0  0  0  0  0  0
  1  2  2  0
  1  6  1  0
  2  3  1  0
  3  4  2  0
  4  5  1  0
  5  6  2  0
  6  7  1  0
  7  8  2  0
  7  9  1  0
  8 16  1  0
  9 10  2  0
 10 11  1  0
 10 15  1  0
 11 12  1  0
 11 13  1  0
 13 14  2  0
 14 15  1  0
 15 16  2  0
 16 17  1  0
  1 18  1  0
  2 19  1  0
  3 20  1  0
  5 21  1  0
 12 22  1  0
 12 23  1  0
 12 24  1  0
 14 25  1  0
 17 26  1  0
 17 27  1  0
M  END
>  <mol_id>  (2) 
2026-09-18-6fnk-s0-n100-r9-0002

>  <rmsd_to_ref>  (2) 
0.5000000000003756

>  <pose_kind>  (2) 
conformer

$$$$
6fnk.A
     RDKit          3D

 27 29  0  0  0  0  0  0  0  0999 V2000
    2.5363   16.0666   40.7620 C   0  0  0  0  0  0  0  0  0  0  0  0
    2.7988   14.7677   40.3261 C   0  0  0  0  0  0  0  0  0  0  0  0
    2.2993   13.6848   41.0349 C   0  0  0  0  0  0  0  0  0  0  0  0
    1.5307   13.8966   42.1827 N   0  0  0  0  0  0  0  0  0  0  0  0
    1.2697   15.2042   42.6197 C   0  0  0  0  0  0  0  0  0  0  0  0
    1.7725   16.2928   41.9096 C   0  0  0  0  0  0  0  0  0  0  0  0
    1.5126   17.5949   42.3489 C   0  0  0  0  0  0  0  0  0  0  0  0
    2.1257   18.6475   41.7901 N   0  0  0  0  0  0  0  0  0  0  0  0
    0.6357   17.8012   43.3366 N   0  0  0  0  0  0  0  0  0  0  0  0
    0.3663   19.0378   43.7918 C   0  0  0  0  0  0  0  0  0  0  0  0
   -0.4464   19.4819   44.7626 N   0  0  0  0  0  0  0  0  0  0  0  0
   -1.3022   18.6522   45.6159 C   0  0  0  0  0  0  0  0  0  0  0  0
   -0.3907   20.7096   44.8455 N   0  0  0  0  0  0  0  0  0  0  0  0
    0.4534   21.1391   43.8930 C   0  0  0  0  0  0  0  0  0  0  0  0
    0.9607   20.0883   43.2347 C   0  0  0  0  0  0  0  0  0  0  0  0
    1.8491   19.8918   42.2221 C   0  0  0  0  0  0  0  0  0  0  0  0
    2.4760   20.9394   41.6338 N   0  0  0  0  0  0  0  0  0  0  0  0
    2.9350   16.9215   40.1963 H   0  0  0  0  0  0  0  0  0  0  0  0
    3.4014   14.6023   39.4208 H   0  0  0  0  0  0  0  0  0  0  0  0
    2.5082   12.6602   40.6937 H   0  0  0  0  0  0  0  0  0  0  0  0
    0.6669   15.3704   43.5248 H   0  0  0  0  0  0  0  0  0  0  0  0
   -1.1177   18.8998   46.6717 H   0  0  0  0  0  0  0  0  0  0  0  0
   -2.3579   18.8438   45.3734 H   0  0  0  0  0  0  0  0  0  0  0  0
   -1.0732   17.5903   45.4429 H   0  0  0  0  0  0  0  0  0  0  0  0
    0.6917   22.1926   43.6852 H   0  0  0  0  0  0  0  0  0  0  0  0
    2.2793   21.9001   41.9487 H   0  0  0  0  0  0  0  0  0  0  0  0
    3.1491   20.7749   40.8717 H   0  0  0  0  0  0  0  0  0  0  0  0
  1  2  2  0
  1  6  1  0
  2  3  1  0
  3  4  2  0
  4  5  1  0
  5  6  2  0
  6  7  1  0
  7  8  2  0
  7  9  1  0
  8 16  1  0
  9 10  2  0
 10 11  1  0
 10 15  1  0
 11 12  1  0
 11 13  1  0
 13 14  2  0
 14 15  1  0
 15 16  2  0
 16 17  1  0
  1 18  1  0
  2 19  1  0
  3 20  1  0
  5 21  1  0
 12 22  1  0
 12 23  1  0
 12 24  1  0
 14 25  1  0
 17 26  1  0
 17 27  1  0
M  END
>  <mol_id>  (3) 
2026-09-18-6fnk-s0-n100-r9-0003

>  <rmsd_to_ref>  (3) 
0.5459183673516851

>  <pose_kind>  (3) 
rigid

$$$$
6fnk.A
     RDKit          3D

 27 29  0  0  0  0  0  0  0  0999 V2000
    2.8387   16.6549   40.3839 C   0  0  0  0  0  0  0  0  0  0  0  0
    3.2970   15.4892   39.7778 C   0  0  0  0  0  0  0  0  0  0  0  0
    3.0228   14.2478   40.3309 C   0  0  0  0  0  0  0  0  0  0  0  0
    2.3034   14.1973   41.4674 N   0  0  0  0  0  0  0  0  0  0  0  0
    1.8389   15.2826   42.0912 C   0  0  0  0  0  0  0  0  0  0  0  0
    2.0989   16.5297   41.5598 C   0  0  0  0  0  0  0  0  0  0  0  0
    1.6092   17.7424   42.2108 C   0  0  0  0  0  0  0  0  0  0  0  0
    1.8368   18.9752   41.7317 N   0  0  0  0  0  0  0  0  0  0  0  0
    0.8932   17.6261   43.3482 N   0  0  0  0  0  0  0  0  0  0  0  0
    0.3994   18.6715   44.0222 C   0  0  0  0  0  0  0  0  0  0  0  0
   -0.3313   18.8127   45.1574 N   0  0  0  0  0  0  0  0  0  0  0  0
   -0.7669   17.6824   45.9535 C   0  0  0  0  0  0  0  0  0  0  0  0
   -0.5424   20.1117   45.3618 N   0  0  0  0  0  0  0  0  0  0  0  0
    0.0440   20.8320   44.3688 C   0  0  0  0  0  0  0  0  0  0  0  0
    0.6539   19.9299   43.4983 C   0  0  0  0  0  0  0  0  0  0  0  0
    1.3834   20.0904   42.3353 C   0  0  0  0  0  0  0  0  0  0  0  0
    1.6405   21.3864   41.8035 N   0  0  0  0  0  0  0  0  0  0  0  0
    3.0597   17.6170   39.9418 H   0  0  0  0  0  0  0  0  0  0  0  0
    3.8790   15.5512   38.8564 H   0  0  0  0  0  0  0  0  0  0  0  0
    3.4042   13.3946   39.8150 H   0  0  0  0  0  0  0  0  0  0  0  0
    1.2581   15.1595   43.0167 H   0  0  0  0  0  0  0  0  0  0  0  0
   -1.6584   18.0070   46.5280 H   0  0  0  0  0  0  0  0  0  0  0  0
   -1.0347   16.8066   45.3354 H   0  0  0  0  0  0  0  0  0  0  0  0
    0.0929   17.4126   46.6003 H   0  0  0  0  0  0  0  0  0  0  0  0
    0.0480   21.9161   44.2560 H   0  0  0  0  0  0  0  0  0  0  0  0
    2.5868   21.8220   41.8735 H   0  0  0  0  0  0  0  0  0  0  0  0
    0.8208   21.8593   41.3451 H   0  0  0  0  0  0  0  0  0  0  0  0
  1  2  2  0
  1  6  1  0
  2  3  1  0
  3  4  2  0
  4  5  1  0
  5  6  2  0
  6  7  1  0
  7  8  2  0
  7  9  1  0
  8 16  1  0
  9 10  2  0
 10 11  1  0
 10 15  1  0
 11 12  1  0
 11 13  1  0
 13 14  2  0
 14 15  1  0
 15 16  2  0
 16 17  1  0
  1 18  1  0
  2 19  1  0
  3 20  1  0
  5 21  1  0
 12 22  1  0
 12 23  1  0
 12 24  1  0
 14 25  1  0
 17 26  1  0
 17 27  1  0
M  END
>  <mol_id>  (4) 
2026-09-18-6fnk-s0-n100-r9-0004

>  <rmsd_to_ref>  (4) 
0.5918367347002043

>  <pose_kind>  (4) 
conformer

$$$$
6fnk.A
     RDKit          3D

 27 29  0  0  0  0  0  0  0  0999 V2000
    2.9386   16.8093   40.5111 C   0  0  0  0  0  0  0  0  0  0  0  0
    3.4941   15.6934   39.8849 C   0  0  0  0  0  0  0  0  0  0  0  0
    3.2994   14.4291   40.4218 C   0  0  0  0  0  0  0  0  0  0  0  0
    2.5436   14.2746   41.5872 N   0  0  0  0  0  0  0  0  0  0  0  0
    1.9874   15.3991   42.2157 C   0  0  0  0  0  0  0  0  0  0  0  0
    2.1840   16.6699   41.6784 C   0  0  0  0  0  0  0  0  0  0  0  0
    1.6303   17.7891   42.3084 C   0  0  0  0  0  0  0  0  0  0  0  0
    1.9479   19.0303   41.9155 N   0  0  0  0  0  0  0  0  0  0  0  0
    0.7652   17.6261   43.3145 N   0  0  0  0  0  0  0  0  0  0  0  0
    0.2188   18.6778   43.9503 C   0  0  0  0  0  0  0  0  0  0  0  0
   -0.6425   18.7610   44.9757 N   0  0  0  0  0  0  0  0  0  0  0  0
   -1.2393   17.6303   45.6929 C   0  0  0  0  0  0  0  0  0  0  0  0
   -0.8850   19.9387   45.2426 N   0  0  0  0  0  0  0  0  0  0  0  0
   -0.2055   20.6976   44.3670 C   0  0  0  0  0  0  0  0  0  0  0  0
    0.5190   19.9122   43.5587 C   0  0  0  0  0  0  0  0  0  0  0  0
    1.3919   20.0911   42.5295 C   0  0  0  0  0  0  0  0  0  0  0  0
    1.7230   21.3353   42.1067 N   0  0  0  0  0  0  0  0  0  0  0  0
    3.0964   17.8094   40.0813 H   0  0  0  0  0  0  0  0  0  0  0  0
    4.0863   15.8158   38.9660 H   0  0  0  0  0  0  0  0  0  0  0  0
    3.7395   13.5488   39.9305 H   0  0  0  0  0  0  0  0  0  0  0  0
    1.3949   15.2773   43.1345 H   0  0  0  0  0  0  0  0  0  0  0  0
   -1.0833   17.7584   46.7742 H   0  0  0  0  0  0  0  0  0  0  0  0
   -2.3178   17.5893   45.4803 H   0  0  0  0  0  0  0  0  0  0  0  0
   -0.7646   16.6947   45.3623 H   0  0  0  0  0  0  0  0  0  0  0  0
   -0.2388   21.7961   44.3206 H   0  0  0  0  0  0  0  0  0  0  0  0
    1.3093   22.1612   42.5624 H   0  0  0  0  0  0  0  0  0  0  0  0
    2.3884   21.4551   41.3296 H   0  0  0  0  0  0  0  0  0  0  0  0
  1  2  2  0
  1  6  1  0
  2  3  1  0
  3  4  2  0
  4  5  1  0
  5  6  2  0
  6  7  1  0
  7  8  2  0
  7  9  1  0
  8 16  1  0
  9 10  2  0
 10 11  1  0
 10 15  1  0
 11 12  1  0
 11 13  1  0
 13 14  2  0
 14 15  1  0
 15 16  2  0
 16 17  1  0
  1 18  1  0
  2 19  1  0
  3 20  1  0
  5 21  1  0
 12 22  1  0
 12 23  1  0
 12 24  1  0
 14 25  1  0
 17 26  1  0
 17 27  1  0
M  END
>  <mol_id>  (5) 
2026-09-18-6fnk-s0-n100-r9-0005

>  <rmsd_to_ref>  (5) 
0.637755102045914

>  <pose_kind>  (5) 
rigid

$$$$
6fnk.A
     RDKit          3D

 27 29  0  0  0  0  0  0  0  0999 V2000
    3.3180   16.7043   40.7259 C   0  0  0  0  0  0  0  0  0  0  0  0
    4.0051   15.5804   40.2778 C   0  0  0  0  0  0  0  0  0  0  0  0
    3.7322   14.3266   40.8032 C   0  0  0  0  0  0  0  0  0  0  0  0
    2.7875   14.2229   41.7563 N   0  0  0  0  0  0  0  0  0  0  0  0
    2.0979   15.2666   42.2233 C   0  0  0  0  0  0  0  0  0  0  0  0
    2.3516   16.5249   41.7158 C   0  0  0  0  0  0  0  0  0  0  0  0
    1.6197   17.6932   42.1991 C   0  0  0  0  0  0  0  0  0  0  0  0
    1.8318   18.9348   41.7361 N   0  0  0  0  0  0  0  0  0  0  0  0
    0.6842   17.5244   43.1563 N   0  0  0  0  0  0  0  0  0  0  0  0
   -0.0412   18.5262   43.6672 C   0  0  0  0  0  0  0  0  0  0  0  0
   -1.0144   18.6121   44.6096 N   0  0  0  0  0  0  0  0  0  0  0  0
   -1.5080   17.4567   45.3325 C   0  0  0  0  0  0  0  0  0  0  0  0
   -1.3852   19.8869   44.7149 N   0  0  0  0  0  0  0  0  0  0  0  0
   -0.6637   20.6461   43.8480 C   0  0  0  0  0  0  0  0  0  0  0  0
    0.2046   19.7953   43.1654 C   0  0  0  0  0  0  0  0  0  0  0  0
    1.1547   20.0091   42.1846 C   0  0  0  0  0  0  0  0  0  0  0  0
    1.4013   21.3157   41.6743 N   0  0  0  0  0  0  0  0  0  0  0  0
    3.5407   17.6765   40.3076 H   0  0  0  0  0  0  0  0  0  0  0  0
    4.7678   15.6852   39.5040 H   0  0  0  0  0  0  0  0  0  0  0  0
    4.2957   13.5074   40.4148 H   0  0  0  0  0  0  0  0  0  0  0  0
    1.3411   15.1010   43.0036 H   0  0  0  0  0  0  0  0  0  0  0  0
   -2.5306   17.7005   45.6863 H   0  0  0  0  0  0  0  0  0  0  0  0
   -1.5501   16.5493   44.7036 H   0  0  0  0  0  0  0  0  0  0  0  0
   -0.7910   17.2833   46.1609 H   0  0  0  0  0  0  0  0  0  0  0  0
   -0.7357   21.7234   43.6989 H   0  0  0  0  0  0  0  0  0  0  0  0
    2.2641   21.8437   41.9330 H   0  0  0  0  0  0  0  0  0  0  0  0
    0.6627   21.6981   41.0310 H   0  0  0  0  0  0  0  0  0  0  0  0
  1  2  2  0
  1  6  1  0
  2  3  1  0
  3  4  2  0
  4  5  1  0
  5  6  2  0
  6  7  1  0
  7  8  2  0
  7  9  1  0
  8 16  1  0
  9 10  2  0
 10 11  1  0
 10 15  1  0
 11 12  1  0
 11 13  1  0
 13 14  2  0
 14 15  1  0
 15 16  2  0
 16 17  1  0
  1 18  1  0
  2 19  1  0
  3 20  1  0
  5 21  1  0
 12 22  1  0
 12 23  1  0
 12 24  1  0
 14 25  1  0
 17 26  1  0
 17 27  1  0
M  END
>  <mol_id>  (6) 
2026-09-18-6fnk-s0-n100-r9-0006

>  <rmsd_to_ref>  (6) 
0.6836734693910115

>  <pose_kind>  (6) 
conformer

$$$$
6fnk.A
     RDKit          3D

 27 29  0  0  0  0  0  0  0  0999 V2000
    2.9030   15.6075   41.2966 C   0  0  0  0  0  0  0  0  0  0  0  0
    3.2322   14.2594   41.1546 C   0  0  0  0  0  0  0  0  0  0  0  0
    2.8517   13.3470   42.1278 C   0  0  0  0  0  0  0  0  0  0  0  0
    2.1356   13.7790   43.2476 N   0  0  0  0  0  0  0  0  0  0  0  0
    1.8073   15.1359   43.3885 C   0  0  0  0  0  0  0  0  0  0  0  0
    2.1907   16.0537   42.4124 C   0  0  0  0  0  0  0  0  0  0  0  0
    1.8640   17.4060   42.5568 C   0  0  0  0  0  0  0  0  0  0  0  0
    2.3684   18.3305   41.7279 N   0  0  0  0  0  0  0  0  0  0  0  0
    1.0316   17.7890   43.5301 N   0  0  0  0  0  0  0  0  0  0  0  0
    0.7009   19.0808   43.7057 C   0  0  0  0  0  0  0  0  0  0  0  0
   -0.0854   19.6943   44.6032 N   0  0  0  0  0  0  0  0  0  0  0  0
   -0.8308   19.0415   45.6836 C   0  0  0  0  0  0  0  0  0  0  0  0
   -0.1126   20.9082   44.3964 N   0  0  0  0  0  0  0  0  0  0  0  0
    0.6440   21.1485   43.3129 C   0  0  0  0  0  0  0  0  0  0  0  0
    1.1869   20.0026   42.8804 C   0  0  0  0  0  0  0  0  0  0  0  0
    2.0288   19.6240   41.8797 C   0  0  0  0  0  0  0  0  0  0  0  0
    2.5455   20.5375   41.0225 N   0  0  0  0  0  0  0  0  0  0  0  0
    3.2075   16.3266   40.5220 H   0  0  0  0  0  0  0  0  0  0  0  0
    3.7933   13.9200   40.2713 H   0  0  0  0  0  0  0  0  0  0  0  0
    3.1133   12.2842   42.0183 H   0  0  0  0  0  0  0  0  0  0  0  0
    1.2461   15.4760   44.2714 H   0  0  0  0  0  0  0  0  0  0  0  0
   -0.6053   19.5401   46.6379 H   0  0  0  0  0  0  0  0  0  0  0  0
   -1.9093   19.1114   45.4793 H   0  0  0  0  0  0  0  0  0  0  0  0
   -0.5369   17.9832   45.7444 H   0  0  0  0  0  0  0  0  0  0  0  0
    0.7947   22.1355   42.8511 H   0  0  0  0  0  0  0  0  0  0  0  0
    2.2990   21.5328   41.1204 H   0  0  0  0  0  0  0  0  0  0  0  0
    3.1847   20.2366   40.2730 H   0  0  0  0  0  0  0  0  0  0  0  0
  1  2  2  0
  1  6  1  0
  2  3  1  0
  3  4  2  0
  4  5  1  0
  5  6  2  0
  6  7  1  0
  7  8  2  0
  7  9  1  0
  8 16  1  0
  9 10  2  0
 10 11  1  0
 10 15  1  0
 11 12  1  0
 11 13  1  0
 13 14  2  0
 14 15  1  0
 15 16  2  0
 16 17  1  0
  1 18  1  0
  2 19  1  0
  3 20  1  0
  5 21  1  0
 12 22  1  0
 12 23  1  0
 12 24  1  0
 14 25  1  0
 17 26  1  0
 17 27  1  0
M  END
>  <mol_id>  (7) 
2026-09-18-6fnk-s0-n100-r9-0007

>  <rmsd_to_ref>  (7) 
0.7295918367384501

>  <pose_kind>  (7) 
rigid

$$$$
6fnk.A
     RDKit          3D

 27 29  0  0  0  0  0  0  0  0999 V2000
    3.9227   16.2737   41.1674 C   0  0  0  0  0  0  0  0  0  0  0  0
    4.6322   15.1187   40.8305 C   0  0  0  0  0  0  0  0  0  0  0  0
    4.1635   13.8880   41.3027 C   0  0  0  0  0  0  0  0  0  0  0  0
    3.0455   13.8160   42.0705 N   0  0  0  0  0  0  0  0  0  0  0  0
    2.3622   14.9533   42.3918 C   0  0  0  0  0  0  0  0  0  0  0  0
    2.7768   16.1951   41.9550 C   0  0  0  0  0  0  0  0  0  0  0  0
    2.0766   17.4317   42.2753 C   0  0  0  0  0  0  0  0  0  0  0  0
    2.5133   18.6268   41.8293 N   0  0  0  0  0  0  0  0  0  0  0  0
    0.9629   17.4016   43.0350 N   0  0  0  0  0  0  0  0  0  0  0  0
    0.3108   18.5541   43.3332 C   0  0  0  0  0  0  0  0  0  0  0  0
   -0.7918   18.8365   44.0461 N   0  0  0  0  0  0  0  0  0  0  0  0
   -1.6316   17.8767   44.7362 C   0  0  0  0  0  0  0  0  0  0  0  0
   -1.0160   20.1565   44.0330 N   0  0  0  0  0  0  0  0  0  0  0  0
   -0.0759   20.7757   43.3174 C   0  0  0  0  0  0  0  0  0  0  0  0
    0.7775   19.7772   42.8633 C   0  0  0  0  0  0  0  0  0  0  0  0
    1.9080   19.7888   42.0946 C   0  0  0  0  0  0  0  0  0  0  0  0
    2.4260   21.0052   41.5906 N   0  0  0  0  0  0  0  0  0  0  0  0
    4.2752   17.2507   40.8059 H   0  0  0  0  0  0  0  0  0  0  0  0
    5.5286   15.1713   40.2156 H   0  0  0  0  0  0  0  0  0  0  0  0
    4.7112   12.9861   41.0439 H   0  0  0  0  0  0  0  0  0  0  0  0
    1.4696   14.9328   43.0002 H   0  0  0  0  0  0  0  0  0  0  0  0
   -1.6032   16.9088   44.2081 H   0  0  0  0  0  0  0  0  0  0  0  0
   -2.6935   18.2515   44.6816 H   0  0  0  0  0  0  0  0  0  0  0  0
   -1.4195   17.8045   45.8147 H   0  0  0  0  0  0  0  0  0  0  0  0
    0.0320   21.8287   43.1123 H   0  0  0  0  0  0  0  0  0  0  0  0
    2.7590   21.7047   42.2725 H   0  0  0  0  0  0  0  0  0  0  0  0
    2.4596   21.1670   40.5454 H   0  0  0  0  0  0  0  0  0  0  0  0
  1  2  2  0
  1  6  1  0
  2  3  1  0
  3  4  2  0
  4  5  1  0
  5  6  2  0
  6  7  1  0
  7  8  2  0
  7  9  1  0
  8 16  1  0
  9 10  2  0
 10 11  1  0
 10 15  1  0
 11 12  1  0
 11 13  1  0
 13 14  2  0
 14 15  1  0
 15 16  2  0
 16 17  1  0
  1 18  1  0
  2 19  1  0
  3 20  1  0
  5 21  1  0
 12 22  1  0
 12 23  1  0
 12 24  1  0
 14 25  1  0
 17 26  1  0
 17 27  1  0
M  END
>  <mol_id>  (8) 
2026-09-18-6fnk-s0-n100-r9-0008

>  <rmsd_to_ref>  (8) 
0.7755102040836047

>  <pose_kind>  (8) 
conformer

$$$$
6fnk.A
     RDKit          3D

 27 29  0  0  0  0  0  0  0  0999 V2000
    2.8733   15.4193   41.0798 C   0  0  0  0  0  0  0  0  0  0  0  0
    3.1766   14.0623   40.9688 C   0  0  0  0  0  0  0  0  0  0  0  0
    2.7904   13.1820   41.9689 C   0  0  0  0  0  0  0  0  0  0  0  0
    2.0946   13.6552   43.0848 N   0  0  0  0  0  0  0  0  0  0  0  0
    1.7922   15.0210   43.1945 C   0  0  0  0  0  0  0  0  0  0  0  0
    2.1814   15.9066   42.1913 C   0  0  0  0  0  0  0  0  0  0  0  0
    1.8806   17.2678   42.3045 C   0  0  0  0  0  0  0  0  0  0  0  0
    2.3923   18.1617   41.4471 N   0  0  0  0  0  0  0  0  0  0  0  0
    1.0659   17.6905   43.2764 N   0  0  0  0  0  0  0  0  0  0  0  0
    0.7605   18.9921   43.4224 C   0  0  0  0  0  0  0  0  0  0  0  0
   -0.0048   19.6424   44.3122 N   0  0  0  0  0  0  0  0  0  0  0  0
   -0.7499   19.0309   45.4167 C   0  0  0  0  0  0  0  0  0  0  0  0
   -0.0124   20.8510   44.0748 N   0  0  0  0  0  0  0  0  0  0  0  0
    0.7364   21.0500   42.9776 C   0  0  0  0  0  0  0  0  0  0  0  0
    1.2539   19.8838   42.5688 C   0  0  0  0  0  0  0  0  0  0  0  0
    2.0778   19.4646   41.5694 C   0  0  0  0  0  0  0  0  0  0  0  0
    2.6014   20.3465   40.6837 N   0  0  0  0  0  0  0  0  0  0  0  0
    3.1821   16.1130   40.2839 H   0  0  0  0  0  0  0  0  0  0  0  0
    3.7217   13.6904   40.0887 H   0  0  0  0  0  0  0  0  0  0  0  0
    3.0317   12.1121   41.8838 H   0  0  0  0  0  0  0  0  0  0  0  0
    1.2469   15.3935   44.0742 H   0  0  0  0  0  0  0  0  0  0  0  0
   -0.5051   19.5493   46.3555 H   0  0  0  0  0  0  0  0  0  0  0  0
   -1.8292   19.1153   45.2220 H   0  0  0  0  0  0  0  0  0  0  0  0
   -0.4745   17.9693   45.5015 H   0  0  0  0  0  0  0  0  0  0  0  0
    0.8998   22.0220   42.4893 H   0  0  0  0  0  0  0  0  0  0  0  0
    2.3739   21.3483   40.7588 H   0  0  0  0  0  0  0  0  0  0  0  0
    3.2269   20.0151   39.9355 H   0  0  0  0  0  0  0  0  0  0  0  0
  1  2  2  0
  1  6  1  0
  2  3  1  0
  3  4  2  0
  4  5  1  0
  5  6  2  0
  6  7  1  0
  7  8  2  0
  7  9  1  0
  8 16  1  0
  9 10  2  0
 10 11  1  0
 10 15  1  0
 11 12  1  0
 11 13  1  0
 13 14  2  0
 14 15  1  0
 15 16  2  0
 16 17  1  0
  1 18  1  0
  2 19  1  0
  3 20  1  0
  5 21  1  0
 12 22  1  0
 12 23  1  0
 12 24  1  0
 14 25  1  0
 17 26  1  0
 17 27  1  0
M  END
>  <mol_id>  (9) 
2026-09-18-6fnk-s0-n100-r9-0009

>  <rmsd_to_ref>  (9) 
0.8214285714348556

>  <pose_kind>  (9) 
rigid

$$$$
6fnk.A
     RDKit          3D

 27 29  0  0  0  0  0  0  0  0999 V2000
    2.4457   15.9638   40.8931 C   0  0  0  0  0  0  0  0  0  0  0  0
    2.6816   14.8064   40.2142 C   0  0  0  0  0  0  0  0  0  0  0  0
    1.9959   13.6718   40.6396 C   0  0  0  0  0  0  0  0  0  0  0  0
    1.1427   13.7294   41.6745 N   0  0  0  0  0  0  0  0  0  0  0  0
    0.9201   14.8973   42.3412 C   0  0  0  0  0  0  0  0  0  0  0  0
    1.5690   16.0412   41.9628 C   0  0  0  0  0  0  0  0  0  0  0  0
    1.3907   17.3325   42.6193 C   0  0  0  0  0  0  0  0  0  0  0  0
    2.0565   18.4300   42.2048 N   0  0  0  0  0  0  0  0  0  0  0  0
    0.5536   17.4703   43.6627 N   0  0  0  0  0  0  0  0  0  0  0  0
    0.3810   18.6564   44.2762 C   0  0  0  0  0  0  0  0  0  0  0  0
   -0.3783   19.0630   45.3195 N   0  0  0  0  0  0  0  0  0  0  0  0
   -1.2628   18.2382   46.0881 C   0  0  0  0  0  0  0  0  0  0  0  0
   -0.1812   20.3688   45.5343 N   0  0  0  0  0  0  0  0  0  0  0  0
    0.7180   20.8442   44.6281 C   0  0  0  0  0  0  0  0  0  0  0  0
    1.0693   19.7907   43.8476 C   0  0  0  0  0  0  0  0  0  0  0  0
    1.9251   19.6395   42.7774 C   0  0  0  0  0  0  0  0  0  0  0  0
    2.6759   20.7492   42.2659 N   0  0  0  0  0  0  0  0  0  0  0  0
    2.9746   16.8555   40.5706 H   0  0  0  0  0  0  0  0  0  0  0  0
    3.3759   14.7778   39.3782 H   0  0  0  0  0  0  0  0  0  0  0  0
    2.1788   12.7455   40.1033 H   0  0  0  0  0  0  0  0  0  0  0  0
    0.2362   14.9203   43.1629 H   0  0  0  0  0  0  0  0  0  0  0  0
   -0.6906   17.6241   46.7824 H   0  0  0  0  0  0  0  0  0  0  0  0
   -1.8670   17.6489   45.3585 H   0  0  0  0  0  0  0  0  0  0  0  0
   -1.9564   18.8697   46.6963 H   0  0  0  0  0  0  0  0  0  0  0  0
    1.0885   21.8715   44.5407 H   0  0  0  0  0  0  0  0  0  0  0  0
    3.3909   21.1797   42.8822 H   0  0  0  0  0  0  0  0  0  0  0  0
    2.5150   21.1212   41.3006 H   0  0  0  0  0  0  0  0  0  0  0  0
  1  2  2  0
  1  6  1  0
  2  3  1  0
  3  4  2  0
  4  5  1  0
  5  6  2  0
  6  7  1  0
  7  8  2  0
  7  9  1  0
  8 16  1  0
  9 10  2  0
 10 11  1  0
 10 15  1  0
 11 12  1  0
 11 13  1  0
 13 14  2  0
 14 15  1  0
 15 16  2  0
 16 17  1  0
  1 18  1  0
  2 19  1  0
  3 20  1  0
  5 21  1  0
 12 22  1  0
 12 23  1  0
 12 24  1  0
 14 25  1  0
 17 26  1  0
 17 27  1  0
M  END
>  <mol_id>  (10) 
2026-09-18-6fnk-s0-n100-r9-0010

>  <rmsd_to_ref>  (10) 
0.8673469387782311

>  <pose_kind>  (10) 
conformer

$$$$
6fnk.A
     RDKit          3D

 27 29  0  0  0  0  0  0  0  0999 V2000
    2.7010   15.5467   40.9840 C   0  0  0  0  0  0  0  0  0  0  0  0
    3.0014   14.1860   40.9195 C   0  0  0  0  0  0  0  0  0  0  0  0
    2.6420   13.3470   41.9642 C   0  0  0  0  0  0  0  0  0  0  0  0
    1.9761   13.8654   43.0782 N   0  0  0  0  0  0  0  0  0  0  0  0
    1.6767   15.2348   43.1410 C   0  0  0  0  0  0  0  0  0  0  0  0
    2.0389   16.0790   42.0930 C   0  0  0  0  0  0  0  0  0  0  0  0
    1.7412   17.4439   42.1594 C   0  0  0  0  0  0  0  0  0  0  0  0
    2.2299   18.3021   41.2534 N   0  0  0  0  0  0  0  0  0  0  0  0
    0.9526   17.9061   43.1348 N   0  0  0  0  0  0  0  0  0  0  0  0
    0.6511   19.2129   43.2365 C   0  0  0  0  0  0  0  0  0  0  0  0
   -0.0903   19.8992   44.1195 N   0  0  0  0  0  0  0  0  0  0  0  0
   -0.8057   19.3333   45.2671 C   0  0  0  0  0  0  0  0  0  0  0  0
   -0.1043   21.0972   43.8339 N   0  0  0  0  0  0  0  0  0  0  0  0
    0.6150   21.2512   42.7101 C   0  0  0  0  0  0  0  0  0  0  0  0
    1.1216   20.0690   42.3349 C   0  0  0  0  0  0  0  0  0  0  0  0
    1.9186   19.6092   41.3316 C   0  0  0  0  0  0  0  0  0  0  0  0
    2.4184   20.4543   40.3976 N   0  0  0  0  0  0  0  0  0  0  0  0
    2.9885   16.2075   40.1529 H   0  0  0  0  0  0  0  0  0  0  0  0
    3.5229   13.7786   40.0409 H   0  0  0  0  0  0  0  0  0  0  0  0
    2.8810   12.2744   41.9157 H   0  0  0  0  0  0  0  0  0  0  0  0
    1.1549   15.6428   44.0192 H   0  0  0  0  0  0  0  0  0  0  0  0
   -0.5360   19.8887   46.1774 H   0  0  0  0  0  0  0  0  0  0  0  0
   -1.8898   19.4108   45.0979 H   0  0  0  0  0  0  0  0  0  0  0  0
   -0.5280   18.2757   45.3870 H   0  0  0  0  0  0  0  0  0  0  0  0
    0.7653   22.2027   42.1789 H   0  0  0  0  0  0  0  0  0  0  0  0
    2.1929   21.4585   40.4384 H   0  0  0  0  0  0  0  0  0  0  0  0
    3.0238   20.0925   39.6469 H   0  0  0  0  0  0  0  0  0  0  0  0
  1  2  2  0
  1  6  1  0
  2  3  1  0
  3  4  2  0
  4  5  1  0
  5  6  2  0
  6  7  1  0
  7  8  2  0
  7  9  1  0
  8 16  1  0
  9 10  2  0
 10 11  1  0
 10 15  1  0
 11 12  1  0
 11 13  1  0
 13 14  2  0
 14 15  1  0
 15 16  2  0
 16 17  1  0
  1 18  1  0
  2 19  1  0
  3 20  1  0
  5 21  1  0
 12 22  1  0
 12 23  1  0
 12 24  1  0
 14 25  1  0
 17 26  1  0
 17 27  1  0
M  END
>  <mol_id>  (11) 
2026-09-18-6fnk-s0-n100-r9-0011

>  <rmsd_to_ref>  (11) 
0.9132653061283924

>  <pose_kind>  (11) 
rigid

$$$$
6fnk.A
     RDKit          3D

 27 29  0  0  0  0  0  0  0  0999 V2000
    2.5541   16.6235   40.3457 C   0  0  0  0  0  0  0  0  0  0  0  0
    2.9440   15.5526   39.5733 C   0  0  0  0  0  0  0  0  0  0  0  0
    2.5531   14.2811   39.9337 C   0  0  0  0  0  0  0  0  0  0  0  0
    1.7905   14.0418   41.0325 N   0  0  0  0  0  0  0  0  0  0  0  0
    1.4030   15.1016   41.7993 C   0  0  0  0  0  0  0  0  0  0  0  0
    1.7827   16.4024   41.4609 C   0  0  0  0  0  0  0  0  0  0  0  0
    1.3626   17.5314   42.2888 C   0  0  0  0  0  0  0  0  0  0  0  0
    1.7139   18.7923   41.9858 N   0  0  0  0  0  0  0  0  0  0  0  0
    0.5995   17.2891   43.3877 N   0  0  0  0  0  0  0  0  0  0  0  0
    0.1914   18.3121   44.1791 C   0  0  0  0  0  0  0  0  0  0  0  0
   -0.5508   18.3590   45.2979 N   0  0  0  0  0  0  0  0  0  0  0  0
   -1.1044   17.1638   45.9150 C   0  0  0  0  0  0  0  0  0  0  0  0
   -0.6730   19.6277   45.7047 N   0  0  0  0  0  0  0  0  0  0  0  0
    0.0045   20.4204   44.8311 C   0  0  0  0  0  0  0  0  0  0  0  0
    0.5590   19.6041   43.8572 C   0  0  0  0  0  0  0  0  0  0  0  0
    1.3413   19.8488   42.7299 C   0  0  0  0  0  0  0  0  0  0  0  0
    1.7202   21.1775   42.3976 N   0  0  0  0  0  0  0  0  0  0  0  0
    2.8804   17.6083   40.0313 H   0  0  0  0  0  0  0  0  0  0  0  0
    3.5580   15.7100   38.6824 H   0  0  0  0  0  0  0  0  0  0  0  0
    2.8820   13.4723   39.2988 H   0  0  0  0  0  0  0  0  0  0  0  0
    0.7947   14.9688   42.6861 H   0  0  0  0  0  0  0  0  0  0  0  0
   -0.3544   16.3513   45.9125 H   0  0  0  0  0  0  0  0  0  0  0  0
   -1.9446   16.8076   45.2491 H   0  0  0  0  0  0  0  0  0  0  0  0
   -1.5671   17.3657   46.8942 H   0  0  0  0  0  0  0  0  0  0  0  0
    0.1138   21.5012   44.8584 H   0  0  0  0  0  0  0  0  0  0  0  0
    2.6876   21.5421   42.5415 H   0  0  0  0  0  0  0  0  0  0  0  0
    1.0330   21.8733   41.9823 H   0  0  0  0  0  0  0  0  0  0  0  0
  1  2  2  0
  1  6  1  0
  2  3  1  0
  3  4  2  0
  4  5  1  0
  5  6  2  0
  6  7  1  0
  7  8  2  0
  7  9  1  0
  8 16  1  0
  9 10  2  0
 10 11  1  0
 10 15  1  0
 11 12  1  0
 11 13  1  0
 13 14  2  0
 14 15  1  0
 15 16  2  0
 16 17  1  0
  1 18  1  0
  2 19  1  0
  3 20  1  0
  5 21  1  0
 12 22  1  0
 12 23  1  0
 12 24  1  0
 14 25  1  0
 17 26  1  0
 17 27  1  0
M  END
>  <mol_id>  (12) 
2026-09-18-6fnk-s0-n100-r9-0012

>  <rmsd_to_ref>  (12) 
0.959183673471679

>  <pose_kind>  (12) 
conformer

$$$$
6fnk.A
     RDKit          3D

 27 29  0  0  0  0  0  0  0  0999 V2000
    2.9008   16.8687   40.2826 C   0  0  0  0  0  0  0  0  0  0  0  0
    3.6212   15.8818   39.6096 C   0  0  0  0  0  0  0  0  0  0  0  0
    3.6777   14.5941   40.1225 C   0  0  0  0  0  0  0  0  0  0  0  0
    3.0096   14.2862   41.3109 N   0  0  0  0  0  0  0  0  0  0  0  0
    2.2870   15.2814   41.9864 C   0  0  0  0  0  0  0  0  0  0  0  0
    2.2311   16.5759   41.4731 C   0  0  0  0  0  0  0  0  0  0  0  0
    1.5120   17.5663   42.1499 C   0  0  0  0  0  0  0  0  0  0  0  0
    1.5862   18.8510   41.7756 N   0  0  0  0  0  0  0  0  0  0  0  0
    0.7315   17.2332   43.1828 N   0  0  0  0  0  0  0  0  0  0  0  0
    0.0319   18.1584   43.8635 C   0  0  0  0  0  0  0  0  0  0  0  0
   -0.7882   18.0678   44.9215 N   0  0  0  0  0  0  0  0  0  0  0  0
   -1.1435   16.8361   45.6326 C   0  0  0  0  0  0  0  0  0  0  0  0
   -1.2265   19.1781   45.2255 N   0  0  0  0  0  0  0  0  0  0  0  0
   -0.7298   20.0616   44.3442 C   0  0  0  0  0  0  0  0  0  0  0  0
    0.0902   19.4333   43.4911 C   0  0  0  0  0  0  0  0  0  0  0  0
    0.8747   19.7838   42.4351 C   0  0  0  0  0  0  0  0  0  0  0  0
    0.9604   21.0744   42.0307 N   0  0  0  0  0  0  0  0  0  0  0  0
    2.8595   17.8882   39.8715 H   0  0  0  0  0  0  0  0  0  0  0  0
    4.1442   16.1245   38.6728 H   0  0  0  0  0  0  0  0  0  0  0  0
    4.2480   13.8158   39.5942 H   0  0  0  0  0  0  0  0  0  0  0  0
    1.7635   15.0394   42.9231 H   0  0  0  0  0  0  0  0  0  0  0  0
   -0.9693   16.9716   46.7102 H   0  0  0  0  0  0  0  0  0  0  0  0
   -2.2049   16.6056   45.4588 H   0  0  0  0  0  0  0  0  0  0  0  0
   -0.5228   16.0069   45.2623 H   0  0  0  0  0  0  0  0  0  0  0  0
   -0.9610   21.1369   44.3256 H   0  0  0  0  0  0  0  0  0  0  0  0
    0.4244   21.8045   42.5211 H   0  0  0  0  0  0  0  0  0  0  0  0
    1.5616   21.3251   41.2328 H   0  0  0  0  0  0  0  0  0  0  0  0
  1  2  2  0
  1  6  1  0
  2  3  1  0
  3  4  2  0
  4  5  1  0
  5  6  2  0
  6  7  1  0
  7  8  2  0
  7  9  1  0
  8 16  1  0
  9 10  2  0
 10 11  1  0
 10 15  1  0
 11 12  1  0
 11 13  1  0
 13 14  2  0
 14 15  1  0
 15 16  2  0
 16 17  1  0
  1 18  1  0
  2 19  1  0
  3 20  1  0
  5 21  1  0
 12 22  1  0
 12 23  1  0
 12 24  1  0
 14 25  1  0
 17 26  1  0
 17 27  1  0
M  END
>  <mol_id>  (13) 
2026-09-18-6fnk-s0-n100-r9-0013

>  <rmsd_to_ref>  (13) 
1.0051020408206413

>  <pose_kind>  (13) 
rigid

$$$$
6fnk.A
     RDKit          3D

 27 29  0  0  0  0  0  0  0  0999 V2000
    3.9876   16.5621   41.2658 C   0  0  0  0  0  0  0  0  0  0  0  0
    4.5549   15.3419   40.9841 C   0  0  0  0  0  0  0  0  0  0  0  0
    3.9239   14.1519   41.2389 C   0  0  0  0  0  0  0  0  0  0  0  0
    2.6802   14.1930   41.7958 N   0  0  0  0  0  0  0  0  0  0  0  0
    2.0826   15.3525   42.0897 C   0  0  0  0  0  0  0  0  0  0  0  0
    2.7120   16.5682   41.8362 C   0  0  0  0  0  0  0  0  0  0  0  0
    2.0705   17.8491   42.1525 C   0  0  0  0  0  0  0  0  0  0  0  0
    2.7183   19.0022   41.8893 N   0  0  0  0  0  0  0  0  0  0  0  0
    0.8408   17.8097   42.7014 N   0  0  0  0  0  0  0  0  0  0  0  0
    0.2403   18.9768   42.9967 C   0  0  0  0  0  0  0  0  0  0  0  0
   -0.9684   19.2508   43.5435 N   0  0  0  0  0  0  0  0  0  0  0  0
   -1.9429   18.2343   43.9559 C   0  0  0  0  0  0  0  0  0  0  0  0
   -1.0968   20.5557   43.6309 N   0  0  0  0  0  0  0  0  0  0  0  0
   -0.0140   21.1562   43.1605 C   0  0  0  0  0  0  0  0  0  0  0  0
    0.8636   20.1764   42.7455 C   0  0  0  0  0  0  0  0  0  0  0  0
    2.1226   20.1704   42.1825 C   0  0  0  0  0  0  0  0  0  0  0  0
    2.7916   21.3942   41.9114 N   0  0  0  0  0  0  0  0  0  0  0  0
    4.5123   17.5060   41.0529 H   0  0  0  0  0  0  0  0  0  0  0  0
    5.5430   15.3377   40.5422 H   0  0  0  0  0  0  0  0  0  0  0  0
    4.3891   13.1959   41.0089 H   0  0  0  0  0  0  0  0  0  0  0  0
    1.0784   15.3834   42.5394 H   0  0  0  0  0  0  0  0  0  0  0  0
   -1.5419   17.7012   44.8245 H   0  0  0  0  0  0  0  0  0  0  0  0
   -2.0018   17.5130   43.1162 H   0  0  0  0  0  0  0  0  0  0  0  0
   -2.9048   18.7443   44.1600 H   0  0  0  0  0  0  0  0  0  0  0  0
    0.1892   22.2054   43.0937 H   0  0  0  0  0  0  0  0  0  0  0  0
    3.7984   21.5571   42.1510 H   0  0  0  0  0  0  0  0  0  0  0  0
    2.2057   22.1491   41.4443 H   0  0  0  0  0  0  0  0  0  0  0  0
  1  2  2  0
  1  6  1  0
  2  3  1  0
  3  4  2  0
  4  5  1  0
  5  6  2  0
  6  7  1  0
  7  8  2  0
  7  9  1  0
  8 16  1  0
  9 10  2  0
 10 11  1  0
 10 15  1  0
 11 12  1  0
 11 13  1  0
 13 14  2  0
 14 15  1  0
 15 16  2  0
 16 17  1  0
  1 18  1  0
  2 19  1  0
  3 20  1  0
  5 21  1  0
 12 22  1  0
 12 23  1  0
 12 24  1  0
 14 25  1  0
 17 26  1  0
 17 27  1  0
M  END
>  <mol_id>  (14) 
2026-09-18-6fnk-s0-n100-r9-0014

>  <rmsd_to_ref>  (14) 
1.0510204081674153

>  <pose_kind>  (14) 
conformer

$$$$
6fnk.A
     RDKit          3D

 27 29  0  0  0  0  0  0  0  0999 V2000
    2.5271   16.3234   40.0945 C   0  0  0  0  0  0  0  0  0  0  0  0
    2.6660   15.1755   39.3141 C   0  0  0  0  0  0  0  0  0  0  0  0
    2.3364   13.9354   39.8412 C   0  0  0  0  0  0  0  0  0  0  0  0
    1.8620   13.8380   41.1522 N   0  0  0  0  0  0  0  0  0  0  0  0
    1.7248   14.9942   41.9353 C   0  0  0  0  0  0  0  0  0  0  0  0
    2.0574   16.2404   41.4075 C   0  0  0  0  0  0  0  0  0  0  0  0
    1.9219   17.3908   42.1913 C   0  0  0  0  0  0  0  0  0  0  0  0
    2.3969   18.5718   41.7722 N   0  0  0  0  0  0  0  0  0  0  0  0
    1.3044   17.3204   43.3749 N   0  0  0  0  0  0  0  0  0  0  0  0
    1.1627   18.4030   44.1602 C   0  0  0  0  0  0  0  0  0  0  0  0
    0.6062   18.5706   45.3696 N   0  0  0  0  0  0  0  0  0  0  0  0
   -0.0330   17.5261   46.1755 C   0  0  0  0  0  0  0  0  0  0  0  0
    0.6926   19.7463   45.7264 N   0  0  0  0  0  0  0  0  0  0  0  0
    1.2929   20.4245   44.7345 C   0  0  0  0  0  0  0  0  0  0  0  0
    1.6200   19.5807   43.7466 C   0  0  0  0  0  0  0  0  0  0  0  0
    2.2428   19.6670   42.5391 C   0  0  0  0  0  0  0  0  0  0  0  0
    2.7242   20.8506   42.0879 N   0  0  0  0  0  0  0  0  0  0  0  0
    2.7901   17.3042   39.6716 H   0  0  0  0  0  0  0  0  0  0  0  0
    3.0366   15.2537   38.2813 H   0  0  0  0  0  0  0  0  0  0  0  0
    2.4484   13.0293   39.2277 H   0  0  0  0  0  0  0  0  0  0  0  0
    1.3540   14.9168   42.9680 H   0  0  0  0  0  0  0  0  0  0  0  0
    0.3975   17.5290   47.1877 H   0  0  0  0  0  0  0  0  0  0  0  0
   -1.1141   17.7201   46.2363 H   0  0  0  0  0  0  0  0  0  0  0  0
    0.1378   16.5456   45.7072 H   0  0  0  0  0  0  0  0  0  0  0  0
    1.4865   21.5073   44.7335 H   0  0  0  0  0  0  0  0  0  0  0  0
    2.6172   21.7013   42.6586 H   0  0  0  0  0  0  0  0  0  0  0  0
    3.1972   20.8996   41.1742 H   0  0  0  0  0  0  0  0  0  0  0  0
  1  2  2  0
  1  6  1  0
  2  3  1  0
  3  4  2  0
  4  5  1  0
  5  6  2  0
  6  7  1  0
  7  8  2  0
  7  9  1  0
  8 16  1  0
  9 10  2  0
 10 11  1  0
 10 15  1  0
 11 12  1  0
 11 13  1  0
 13 14  2  0
 14 15  1  0
 15 16  2  0
 16 17  1  0
  1 18  1  0
  2 19  1  0
  3 20  1  0
  5 21  1  0
 12 22  1  0
 12 23  1  0
 12 24  1  0
 14 25  1  0
 17 26  1  0
 17 27  1  0
M  END
>  <mol_id>  (15) 
2026-09-18-6fnk-s0-n100-r9-0015

>  <rmsd_to_ref>  (15) 
1.0969387755141193

>  <pose_kind>  (15) 
rigid

$$$$
6fnk.A
     RDKit          3D

 27 29  0  0  0  0  0  0  0  0999 V2000
    2.6842   16.9395   40.2611 C   0  0  0  0  0  0  0  0  0  0  0  0
    2.9155   15.8398   39.4366 C   0  0  0  0  0  0  0  0  0  0  0  0
    2.5519   14.5780   39.8482 C   0  0  0  0  0  0  0  0  0  0  0  0
    1.9686   14.3638   41.0439 N   0  0  0  0  0  0  0  0  0  0  0  0
    1.7226   15.4108   41.8847 C   0  0  0  0  0  0  0  0  0  0  0  0
    2.0858   16.6986   41.4818 C   0  0  0  0  0  0  0  0  0  0  0  0
    1.8268   17.8393   42.3783 C   0  0  0  0  0  0  0  0  0  0  0  0
    2.1702   19.1076   42.0122 N   0  0  0  0  0  0  0  0  0  0  0  0
    1.2436   17.6253   43.5737 N   0  0  0  0  0  0  0  0  0  0  0  0
    0.9782   18.6173   44.4401 C   0  0  0  0  0  0  0  0  0  0  0  0
    0.4280   18.7275   45.6603 N   0  0  0  0  0  0  0  0  0  0  0  0
   -0.0730   17.6019   46.4086 C   0  0  0  0  0  0  0  0  0  0  0  0
    0.4294   19.9978   46.0329 N   0  0  0  0  0  0  0  0  0  0  0  0
    0.9861   20.7404   45.0509 C   0  0  0  0  0  0  0  0  0  0  0  0
    1.3383   19.8987   44.0418 C   0  0  0  0  0  0  0  0  0  0  0  0
    1.9375   20.1560   42.8245 C   0  0  0  0  0  0  0  0  0  0  0  0
    2.2964   21.4685   42.4381 N   0  0  0  0  0  0  0  0  0  0  0  0
    2.9549   17.9475   39.9751 H   0  0  0  0  0  0  0  0  0  0  0  0
    3.3867   16.0481   38.4810 H   0  0  0  0  0  0  0  0  0  0  0  0
    2.7489   13.7596   39.1808 H   0  0  0  0  0  0  0  0  0  0  0  0
    1.2504   15.2273   42.8499 H   0  0  0  0  0  0  0  0  0  0  0  0
   -0.5872   16.8646   45.7709 H   0  0  0  0  0  0  0  0  0  0  0  0
   -0.7953   17.9697   47.1563 H   0  0  0  0  0  0  0  0  0  0  0  0
    0.7647   17.0457   46.8861 H   0  0  0  0  0  0  0  0  0  0  0  0
    1.0935   21.8096   45.1354 H   0  0  0  0  0  0  0  0  0  0  0  0
    1.9820   22.2710   43.0527 H   0  0  0  0  0  0  0  0  0  0  0  0
    2.8526   21.6152   41.5723 H   0  0  0  0  0  0  0  0  0  0  0  0
  1  2  2  0
  1  6  1  0
  2  3  1  0
  3  4  2  0
  4  5  1  0
  5  6  2  0
  6  7  1  0
  7  8  2  0
  7  9  1  0
  8 16  1  0
  9 10  2  0
 10 11  1  0
 10 15  1  0
 11 12  1  0
 11 13  1  0
 13 14  2  0
 14 15  1  0
 15 16  2  0
 16 17  1  0
  1 18  1  0
  2 19  1  0
  3 20  1  0
  5 21  1  0
 12 22  1  0
 12 23  1  0
 12 24  1  0
 14 25  1  0
 17 26  1  0
 17 27  1  0
M  END
>  <mol_id>  (16) 
2026-09-18-6fnk-s0-n100-r9-0016

>  <rmsd_to_ref>  (16) 
1.14285714286119

>  <pose_kind>  (16) 
conformer

$$$$
6fnk.A
     RDKit          3D

 27 29  0  0  0  0  0  0  0  0999 V2000
    2.6895   16.2307   40.5878 C   0  0  0  0  0  0  0  0  0  0  0  0
    2.7449   15.0730   39.8116 C   0  0  0  0  0  0  0  0  0  0  0  0
    2.1201   13.9145   40.2498 C   0  0  0  0  0  0  0  0  0  0  0  0
    1.4328   13.9098   41.4667 N   0  0  0  0  0  0  0  0  0  0  0  0
    1.3801   15.0754   42.2461 C   0  0  0  0  0  0  0  0  0  0  0  0
    2.0090   16.2392   41.8078 C   0  0  0  0  0  0  0  0  0  0  0  0
    1.9567   17.3988   42.5880 C   0  0  0  0  0  0  0  0  0  0  0  0
    2.6950   18.4735   42.2779 N   0  0  0  0  0  0  0  0  0  0  0  0
    1.1557   17.4458   43.6572 N   0  0  0  0  0  0  0  0  0  0  0  0
    1.0851   18.5398   44.4363 C   0  0  0  0  0  0  0  0  0  0  0  0
    0.3814   18.8100   45.5463 N   0  0  0  0  0  0  0  0  0  0  0  0
   -0.5538   17.9009   46.2155 C   0  0  0  0  0  0  0  0  0  0  0  0
    0.6174   19.9528   45.9406 N   0  0  0  0  0  0  0  0  0  0  0  0
    1.4794   20.5077   45.0727 C   0  0  0  0  0  0  0  0  0  0  0  0
    1.8047   19.6144   44.1287 C   0  0  0  0  0  0  0  0  0  0  0  0
    2.6176   19.5821   43.0372 C   0  0  0  0  0  0  0  0  0  0  0  0
    3.3677   20.6581   42.6965 N   0  0  0  0  0  0  0  0  0  0  0  0
    3.1869   17.1464   40.2357 H   0  0  0  0  0  0  0  0  0  0  0  0
    3.2836   15.0787   38.8525 H   0  0  0  0  0  0  0  0  0  0  0  0
    2.1656   13.0002   39.6399 H   0  0  0  0  0  0  0  0  0  0  0  0
    0.8413   15.0704   43.2051 H   0  0  0  0  0  0  0  0  0  0  0  0
   -0.2969   17.8311   47.2828 H   0  0  0  0  0  0  0  0  0  0  0  0
   -1.5787   18.2860   46.1095 H   0  0  0  0  0  0  0  0  0  0  0  0
   -0.4875   16.9035   45.7565 H   0  0  0  0  0  0  0  0  0  0  0  0
    1.8601   21.5382   45.1286 H   0  0  0  0  0  0  0  0  0  0  0  0
    3.3239   21.5168   43.2636 H   0  0  0  0  0  0  0  0  0  0  0  0
    3.9815   20.6172   41.8704 H   0  0  0  0  0  0  0  0  0  0  0  0
  1  2  2  0
  1  6  1  0
  2  3  1  0
  3  4  2  0
  4  5  1  0
  5  6  2  0
  6  7  1  0
  7  8  2  0
  7  9  1  0
  8 16  1  0
  9 10  2  0
 10 11  1  0
 10 15  1  0
 11 12  1  0
 11 13  1  0
 13 14  2  0
 14 15  1  0
 15 16  2  0
 16 17  1  0
  1 18  1  0
  2 19  1  0
  3 20  1  0
  5 21  1  0
 12 22  1  0
 12 23  1  0
 12 24  1  0
 14 25  1  0
 17 26  1  0
 17 27  1  0
M  END
>  <mol_id>  (17) 
2026-09-18-6fnk-s0-n100-r9-0017

>  <rmsd_to_ref>  (17) 
1.188775510209985

>  <pose_kind>  (17) 
rigid

$$$$
6fnk.A
     RDKit          3D

 27 29  0  0  0  0  0  0  0  0999 V2000
    2.1923   15.2390   42.3106 C   0  0  0  0  0  0  0  0  0  0  0  0
    2.8338   14.1405   41.7796 C   0  0  0  0  0  0  0  0  0  0  0  0
    3.6995   14.2824   40.6930 C   0  0  0  0  0  0  0  0  0  0  0  0
    3.9170   15.5124   40.1479 N   0  0  0  0  0  0  0  0  0  0  0  0
    3.2914   16.6062   40.6606 C   0  0  0  0  0  0  0  0  0  0  0  0
    2.4360   16.4677   41.7339 C   0  0  0  0  0  0  0  0  0  0  0  0
    1.7782   17.6501   42.2656 C   0  0  0  0  0  0  0  0  0  0  0  0
    1.9945   18.8632   41.7259 N   0  0  0  0  0  0  0  0  0  0  0  0
    0.9359   17.5861   43.3059 N   0  0  0  0  0  0  0  0  0  0  0  0
    0.3229   18.6745   43.8045 C   0  0  0  0  0  0  0  0  0  0  0  0
   -0.5427   18.8978   44.8078 N   0  0  0  0  0  0  0  0  0  0  0  0
   -1.0860   17.8833   45.7005 C   0  0  0  0  0  0  0  0  0  0  0  0
   -0.8465   20.1872   44.8841 N   0  0  0  0  0  0  0  0  0  0  0  0
   -0.1889   20.8832   43.9247 C   0  0  0  0  0  0  0  0  0  0  0  0
    0.5463   19.9280   43.2470 C   0  0  0  0  0  0  0  0  0  0  0  0
    1.4175   19.9781   42.1746 C   0  0  0  0  0  0  0  0  0  0  0  0
    1.6894   21.2350   41.5571 N   0  0  0  0  0  0  0  0  0  0  0  0
    1.5142   15.1167   43.1642 H   0  0  0  0  0  0  0  0  0  0  0  0
    2.7015   13.1442   42.1676 H   0  0  0  0  0  0  0  0  0  0  0  0
    4.1907   13.3907   40.2979 H   0  0  0  0  0  0  0  0  0  0  0  0
    3.5046   17.5575   40.1843 H   0  0  0  0  0  0  0  0  0  0  0  0
   -1.7404   17.1708   45.1643 H   0  0  0  0  0  0  0  0  0  0  0  0
   -0.2004   17.3241   46.1207 H   0  0  0  0  0  0  0  0  0  0  0  0
   -1.5918   18.3363   46.5597 H   0  0  0  0  0  0  0  0  0  0  0  0
   -0.2219   21.9431   43.7234 H   0  0  0  0  0  0  0  0  0  0  0  0
    1.3750   22.1291   41.9970 H   0  0  0  0  0  0  0  0  0  0  0  0
    2.2103   21.2558   40.6529 H   0  0  0  0  0  0  0  0  0  0  0  0
  1  2  2  0
  1  6  1  0
  2  3  1  0
  3  4  2  0
  4  5  1  0
  5  6  2  0
  6  7  1  0
  7  8  2  0
  7  9  1  0
  8 16  1  0
  9 10  2  0
 10 11  1  0
 10 15  1  0
 11 12  1  0
 11 13  1  0
 13 14  2  0
 14 15  1  0
 15 16  2  0
 16 17  1  0
  1 18  1  0
  2 19  1  0
  3 20  1  0
  5 21  1  0
 12 22  1  0
 12 23  1  0
 12 24  1  0
 14 25  1  0
 17 26  1  0
 17 27  1  0
M  END
>  <mol_id>  (18) 
2026-09-18-6fnk-s0-n100-r9-0018

>  <rmsd_to_ref>  (18) 
1.2346938775512908

>  <pose_kind>  (18) 
conformer

$$$$
6fnk.A
     RDKit          3D

 27 29  0  0  0  0  0  0  0  0999 V2000
    3.9321   17.2393   41.6957 C   0  0  0  0  0  0  0  0  0  0  0  0
    4.8281   16.1965   41.4599 C   0  0  0  0  0  0  0  0  0  0  0  0
    4.5946   14.9447   42.0101 C   0  0  0  0  0  0  0  0  0  0  0  0
    3.4598   14.7288   42.7969 N   0  0  0  0  0  0  0  0  0  0  0  0
    2.5611   15.7801   43.0336 C   0  0  0  0  0  0  0  0  0  0  0  0
    2.7957   17.0386   42.4830 C   0  0  0  0  0  0  0  0  0  0  0  0
    1.8994   18.0852   42.7226 C   0  0  0  0  0  0  0  0  0  0  0  0
    2.1894   19.3407   42.3543 N   0  0  0  0  0  0  0  0  0  0  0  0
    0.7307   17.8360   43.3219 N   0  0  0  0  0  0  0  0  0  0  0  0
   -0.1529   18.8174   43.5769 C   0  0  0  0  0  0  0  0  0  0  0  0
   -1.3569   18.8126   44.1689 N   0  0  0  0  0  0  0  0  0  0  0  0
   -2.0444   17.6376   44.7127 C   0  0  0  0  0  0  0  0  0  0  0  0
   -1.8323   19.9487   44.1920 N   0  0  0  0  0  0  0  0  0  0  0  0
   -0.9593   20.7624   43.5755 C   0  0  0  0  0  0  0  0  0  0  0  0
    0.1216   20.0635   43.2039 C   0  0  0  0  0  0  0  0  0  0  0  0
    1.3047   20.3285   42.5847 C   0  0  0  0  0  0  0  0  0  0  0  0
    1.6186   21.5876   42.1942 N   0  0  0  0  0  0  0  0  0  0  0  0
    4.1223   18.2300   41.2571 H   0  0  0  0  0  0  0  0  0  0  0  0
    5.7194   16.3667   40.8380 H   0  0  0  0  0  0  0  0  0  0  0  0
    5.3020   14.1224   41.8273 H   0  0  0  0  0  0  0  0  0  0  0  0
    1.6696   15.6105   43.6552 H   0  0  0  0  0  0  0  0  0  0  0  0
   -2.3540   17.8406   45.7485 H   0  0  0  0  0  0  0  0  0  0  0  0
   -2.9317   17.4164   44.1014 H   0  0  0  0  0  0  0  0  0  0  0  0
   -1.3632   16.7740   44.6963 H   0  0  0  0  0  0  0  0  0  0  0  0
   -1.1090   21.8383   43.4023 H   0  0  0  0  0  0  0  0  0  0  0  0
    0.9563   22.3586   42.3606 H   0  0  0  0  0  0  0  0  0  0  0  0
    2.5196   21.7736   41.7309 H   0  0  0  0  0  0  0  0  0  0  0  0
  1  2  2  0
  1  6  1  0
  2  3  1  0
  3  4  2  0
  4  5  1  0
  5  6  2  0
  6  7  1  0
  7  8  2  0
  7  9  1  0
  8 16  1  0
  9 10  2  0
 10 11  1  0
 10 15  1  0
 11 12  1  0
 11 13  1  0
 13 14  2  0
 14 15  1  0
 15 16  2  0
 16 17  1  0
  1 18  1  0
  2 19  1  0
  3 20  1  0
  5 21  1  0
 12 22  1  0
 12 23  1  0
 12 24  1  0
 14 25  1  0
 17 26  1  0
 17 27  1  0
M  END
>  <mol_id>  (19) 
2026-09-18-6fnk-s0-n100-r9-0019

>  <rmsd_to_ref>  (19) 
1.2806122449029738

>  <pose_kind>  (19) 
rigid

$$$$
6fnk.A
     RDKit          3D

 27 29  0  0  0  0  0  0  0  0999 V2000
    1.6370   14.8874   42.6384 C   0  0  0  0  0  0  0  0  0  0  0  0
    1.8858   13.5813   42.2448 C   0  0  0  0  0  0  0  0  0  0  0  0
    2.5761   13.3215   41.0612 C   0  0  0  0  0  0  0  0  0  0  0  0
    3.0035   14.3511   40.2961 N   0  0  0  0  0  0  0  0  0  0  0  0
    2.7629   15.6220   40.6763 C   0  0  0  0  0  0  0  0  0  0  0  0
    2.0809   15.9099   41.8449 C   0  0  0  0  0  0  0  0  0  0  0  0
    1.8333   17.2903   42.2346 C   0  0  0  0  0  0  0  0  0  0  0  0
    2.2556   18.3211   41.4780 N   0  0  0  0  0  0  0  0  0  0  0  0
    1.1783   17.5759   43.3565 N   0  0  0  0  0  0  0  0  0  0  0  0
    0.9397   18.8380   43.7337 C   0  0  0  0  0  0  0  0  0  0  0  0
    0.3115   19.3625   44.8030 N   0  0  0  0  0  0  0  0  0  0  0  0
   -0.3178   18.6584   45.9075 C   0  0  0  0  0  0  0  0  0  0  0  0
    0.3338   20.6888   44.7283 N   0  0  0  0  0  0  0  0  0  0  0  0
    0.9766   21.0753   43.6091 C   0  0  0  0  0  0  0  0  0  0  0  0
    1.3633   19.9274   42.9734 C   0  0  0  0  0  0  0  0  0  0  0  0
    2.0437   19.6110   41.8084 C   0  0  0  0  0  0  0  0  0  0  0  0
    2.5115   20.6655   40.9728 N   0  0  0  0  0  0  0  0  0  0  0  0
    1.1091   15.1433   43.5421 H   0  0  0  0  0  0  0  0  0  0  0  0
    1.5360   12.7826   42.8698 H   0  0  0  0  0  0  0  0  0  0  0  0
    2.7790   12.3091   40.7388 H   0  0  0  0  0  0  0  0  0  0  0  0
    3.1133   16.4437   40.0496 H   0  0  0  0  0  0  0  0  0  0  0  0
   -0.0315   19.1157   46.8747 H   0  0  0  0  0  0  0  0  0  0  0  0
   -1.4119   18.5221   45.7785 H   0  0  0  0  0  0  0  0  0  0  0  0
    0.0956   17.6130   45.9392 H   0  0  0  0  0  0  0  0  0  0  0  0
    1.1711   22.0809   43.2463 H   0  0  0  0  0  0  0  0  0  0  0  0
    2.3783   20.5653   39.9229 H   0  0  0  0  0  0  0  0  0  0  0  0
    2.9728   21.5148   41.3749 H   0  0  0  0  0  0  0  0  0  0  0  0
  1  2  2  0
  1  6  1  0
  2  3  1  0
  3  4  2  0
  4  5  1  0
  5  6  2  0
  6  7  1  0
  7  8  2  0
  7  9  1  0
  8 16  1  0
  9 10  2  0
 10 11  1  0
 10 15  1  0
 11 12  1  0
 11 13  1  0
 13 14  2  0
 14 15  1  0
 15 16  2  0
 16 17  1  0
  1 18  1  0
  2 19  1  0
  3 20  1  0
  5 21  1  0
 12 22  1  0
 12 23  1  0
 12 24  1  0
 14 25  1  0
 17 26  1  0
 17 27  1  0
M  END
>  <mol_id>  (20) 
2026-09-18-6fnk-s0-n100-r9-0020

>  <rmsd_to_ref>  (20) 
1.3265306122472083

>  <pose_kind>  (20) 
conformer

$$$$
6fnk.A
     RDKit          3D

 27 29  0  0  0  0  0  0  0  0999 V2000
    2.4684   15.9827   39.9300 C   0  0  0  0  0  0  0  0  0  0  0  0
    2.4202   14.8386   39.1333 C   0  0  0  0  0  0  0  0  0  0  0  0
    1.7212   13.7215   39.5668 C   0  0  0  0  0  0  0  0  0  0  0  0
    1.0629   13.7451   40.7995 N   0  0  0  0  0  0  0  0  0  0  0  0
    1.1144   14.8968   41.5993 C   0  0  0  0  0  0  0  0  0  0  0  0
    1.8180   16.0189   41.1658 C   0  0  0  0  0  0  0  0  0  0  0  0
    1.8695   17.1646   41.9663 C   0  0  0  0  0  0  0  0  0  0  0  0
    2.6784   18.1874   41.6568 N   0  0  0  0  0  0  0  0  0  0  0  0
    1.0984   17.2508   43.0549 N   0  0  0  0  0  0  0  0  0  0  0  0
    1.1268   18.3325   43.8537 C   0  0  0  0  0  0  0  0  0  0  0  0
    0.4703   18.6333   44.9845 N   0  0  0  0  0  0  0  0  0  0  0  0
   -0.5146   17.7836   45.6605 C   0  0  0  0  0  0  0  0  0  0  0  0
    0.7992   19.7481   45.3922 N   0  0  0  0  0  0  0  0  0  0  0  0
    1.6803   20.2538   44.5135 C   0  0  0  0  0  0  0  0  0  0  0  0
    1.9171   19.3565   43.5472 C   0  0  0  0  0  0  0  0  0  0  0  0
    2.7006   19.2844   42.4362 C   0  0  0  0  0  0  0  0  0  0  0  0
    3.5206   20.3082   42.0958 N   0  0  0  0  0  0  0  0  0  0  0  0
    3.0244   16.8655   39.5815 H   0  0  0  0  0  0  0  0  0  0  0  0
    2.9362   14.8222   38.1620 H   0  0  0  0  0  0  0  0  0  0  0  0
    1.6850   12.8178   38.9408 H   0  0  0  0  0  0  0  0  0  0  0  0
    0.5985   14.9139   42.5706 H   0  0  0  0  0  0  0  0  0  0  0  0
   -0.2396   17.6753   46.7200 H   0  0  0  0  0  0  0  0  0  0  0  0
   -1.5102   18.2451   45.5853 H   0  0  0  0  0  0  0  0  0  0  0  0
   -0.5329   16.7926   45.1833 H   0  0  0  0  0  0  0  0  0  0  0  0
    2.1376   21.2522   44.5775 H   0  0  0  0  0  0  0  0  0  0  0  0
    3.5535   21.1572   42.6781 H   0  0  0  0  0  0  0  0  0  0  0  0
    4.1110   20.2374   41.2548 H   0  0  0  0  0  0  0  0  0  0  0  0
  1  2  2  0
  1  6  1  0
  2  3  1  0
  3  4  2  0
  4  5  1  0
  5  6  2  0
  6  7  1  0
  7  8  2  0
  7  9  1  0
  8 16  1  0
  9 10  2  0
 10 11  1  0
 10 15  1  0
 11 12  1  0
 11 13  1  0
 13 14  2  0
 14 15  1  0
 15 16  2  0
 16 17  1  0
  1 18  1  0
  2 19  1  0
  3 20  1  0
  5 21  1  0
 12 22  1  0
 12 23  1  0
 12 24  1  0
 14 25  1  0
 17 26  1  0
 17 27  1  0
M  END
>  <mol_id>  (21) 
2026-09-18-6fnk-s0-n100-r9-0021

>  <rmsd_to_ref>  (21) 
1.3724489795978627

>  <pose_kind>  (21) 
rigid

$$$$
6fnk.A
     RDKit          3D

 27 29  0  0  0  0  0  0  0  0999 V2000
    3.2755   16.6480   41.5193 C   0  0  0  0  0  0  0  0  0  0  0  0
    4.2375   15.6342   41.5366 C   0  0  0  0  0  0  0  0  0  0  0  0
    4.4381   14.9433   42.7269 C   0  0  0  0  0  0  0  0  0  0  0  0
    3.7333   15.2304   43.8422 N   0  0  0  0  0  0  0  0  0  0  0  0
    2.7910   16.2174   43.8403 C   0  0  0  0  0  0  0  0  0  0  0  0
    2.5695   16.9206   42.6738 C   0  0  0  0  0  0  0  0  0  0  0  0
    1.5651   17.9899   42.6287 C   0  0  0  0  0  0  0  0  0  0  0  0
    1.3309   18.6932   41.4947 N   0  0  0  0  0  0  0  0  0  0  0  0
    0.8592   18.2708   43.7622 N   0  0  0  0  0  0  0  0  0  0  0  0
   -0.0697   19.2413   43.7664 C   0  0  0  0  0  0  0  0  0  0  0  0
   -0.9036   19.7230   44.7344 N   0  0  0  0  0  0  0  0  0  0  0  0
   -0.9726   19.2351   46.1209 C   0  0  0  0  0  0  0  0  0  0  0  0
   -1.6302   20.6887   44.2264 N   0  0  0  0  0  0  0  0  0  0  0  0
   -1.3220   20.8940   42.9196 C   0  0  0  0  0  0  0  0  0  0  0  0
   -0.3424   19.9868   42.6276 C   0  0  0  0  0  0  0  0  0  0  0  0
    0.3929   19.6823   41.4765 C   0  0  0  0  0  0  0  0  0  0  0  0
    0.1660   20.4065   40.2715 N   0  0  0  0  0  0  0  0  0  0  0  0
    3.0930   17.2089   40.6038 H   0  0  0  0  0  0  0  0  0  0  0  0
    4.8149   15.3824   40.6639 H   0  0  0  0  0  0  0  0  0  0  0  0
    5.2010   14.1498   42.7147 H   0  0  0  0  0  0  0  0  0  0  0  0
    2.2159   16.4658   44.7155 H   0  0  0  0  0  0  0  0  0  0  0  0
   -0.4905   19.9049   46.8317 H   0  0  0  0  0  0  0  0  0  0  0  0
   -0.4692   18.2506   46.2103 H   0  0  0  0  0  0  0  0  0  0  0  0
   -2.0394   19.0379   46.4112 H   0  0  0  0  0  0  0  0  0  0  0  0
   -1.7475   21.6180   42.2299 H   0  0  0  0  0  0  0  0  0  0  0  0
   -0.1712   19.9304   39.3835 H   0  0  0  0  0  0  0  0  0  0  0  0
    0.3278   21.4555   40.2201 H   0  0  0  0  0  0  0  0  0  0  0  0
  1  2  2  0
  1  6  1  0
  2  3  1  0
  3  4  2  0
  4  5  1  0
  5  6  2  0
  6  7  1  0
  7  8  2  0
  7  9  1  0
  8 16  1  0
  9 10  2  0
 10 11  1  0
 10 15  1  0
 11 12  1  0
 11 13  1  0
 13 14  2  0
 14 15  1  0
 15 16  2  0
 16 17  1  0
  1 18  1  0
  2 19  1  0
  3 20  1  0
  5 21  1  0
 12 22  1  0
 12 23  1  0
 12 24  1  0
 14 25  1  0
 17 26  1  0
 17 27  1  0
M  END
>  <mol_id>  (22) 
2026-09-18-6fnk-s0-n100-r9-0022

>  <rmsd_to_ref>  (22) 
1.4183673469425437

>  <pose_kind>  (22) 
conformer

$$$$
6fnk.A
     RDKit          3D

 27 29  0  0  0  0  0  0  0  0999 V2000
    2.3795   17.3208   39.7105 C   0  0  0  0  0  0  0  0  0  0  0  0
    3.0170   16.3658   38.9183 C   0  0  0  0  0  0  0  0  0  0  0  0
    3.6451   15.2807   39.5120 C   0  0  0  0  0  0  0  0  0  0  0  0
    3.6352   15.1437   40.9028 N   0  0  0  0  0  0  0  0  0  0  0  0
    2.9945   16.1067   41.6971 C   0  0  0  0  0  0  0  0  0  0  0  0
    2.3648   17.1982   41.1020 C   0  0  0  0  0  0  0  0  0  0  0  0
    1.7290   18.1578   41.8965 C   0  0  0  0  0  0  0  0  0  0  0  0
    1.2713   19.3002   41.3660 N   0  0  0  0  0  0  0  0  0  0  0  0
    1.5659   17.9362   43.2047 N   0  0  0  0  0  0  0  0  0  0  0  0
    0.9674   18.8388   44.0022 C   0  0  0  0  0  0  0  0  0  0  0  0
    0.7102   18.8454   45.3190 N   0  0  0  0  0  0  0  0  0  0  0  0
    1.0451   17.7787   46.2671 C   0  0  0  0  0  0  0  0  0  0  0  0
    0.1327   19.8843   45.6418 N   0  0  0  0  0  0  0  0  0  0  0  0
   -0.0480   20.6078   44.5246 C   0  0  0  0  0  0  0  0  0  0  0  0
    0.4996   19.9691   43.4819 C   0  0  0  0  0  0  0  0  0  0  0  0
    0.6517   20.2024   42.1493 C   0  0  0  0  0  0  0  0  0  0  0  0
    0.1901   21.3453   41.5862 N   0  0  0  0  0  0  0  0  0  0  0  0
    1.8832   18.1794   39.2345 H   0  0  0  0  0  0  0  0  0  0  0  0
    3.0216   16.4731   37.8236 H   0  0  0  0  0  0  0  0  0  0  0  0
    4.1506   14.5286   38.8885 H   0  0  0  0  0  0  0  0  0  0  0  0
    2.9892   15.9999   42.7919 H   0  0  0  0  0  0  0  0  0  0  0  0
    1.5933   18.2051   47.1201 H   0  0  0  0  0  0  0  0  0  0  0  0
    0.1202   17.3036   46.6261 H   0  0  0  0  0  0  0  0  0  0  0  0
    1.6730   17.0269   45.7665 H   0  0  0  0  0  0  0  0  0  0  0  0
   -0.5663   21.5766   44.4735 H   0  0  0  0  0  0  0  0  0  0  0  0
   -0.2871   22.0494   42.1670 H   0  0  0  0  0  0  0  0  0  0  0  0
    0.3165   21.5099   40.5773 H   0  0  0  0  0  0  0  0  0  0  0  0
  1  2  2  0
  1  6  1  0
  2  3  1  0
  3  4  2  0
  4  5  1  0
  5  6  2  0
  6  7  1  0
  7  8  2  0
  7  9  1  0
  8 16  1  0
  9 10  2  0
 10 11  1  0
 10 15  1  0
 11 12  1  0
 11 13  1  0
 13 14  2  0
 14 15  1  0
 15 16  2  0
 16 17  1  0
  1 18  1  0
  2 19  1  0
  3 20  1  0
  5 21  1  0
 12 22  1  0
 12 23  1  0
 12 24  1  0
 14 25  1  0
 17 26  1  0
 17 27  1  0
M  END
>  <mol_id>  (23) 
2026-09-18-6fnk-s0-n100-r9-0023

>  <rmsd_to_ref>  (23) 
1.464285714287586

>  <pose_kind>  (23) 
rigid

$$$$
6fnk.A
     RDKit          3D

 27 29  0  0  0  0  0  0  0  0999 V2000
    2.6513   15.2992   42.7246 C   0  0  0  0  0  0  0  0  0  0  0  0
    3.4786   14.1855   42.5634 C   0  0  0  0  0  0  0  0  0  0  0  0
    4.5277   14.2489   41.6728 C   0  0  0  0  0  0  0  0  0  0  0  0
    4.7823   15.3662   40.9442 N   0  0  0  0  0  0  0  0  0  0  0  0
    3.9898   16.4603   41.0859 C   0  0  0  0  0  0  0  0  0  0  0  0
    2.9290   16.4225   41.9743 C   0  0  0  0  0  0  0  0  0  0  0  0
    2.0852   17.6085   42.1153 C   0  0  0  0  0  0  0  0  0  0  0  0
    2.3430   18.7118   41.3906 N   0  0  0  0  0  0  0  0  0  0  0  0
    1.0467   17.6056   42.9692 N   0  0  0  0  0  0  0  0  0  0  0  0
    0.2713   18.6722   43.1095 C   0  0  0  0  0  0  0  0  0  0  0  0
   -0.7861   18.9013   43.8710 N   0  0  0  0  0  0  0  0  0  0  0  0
   -1.4170   17.9927   44.8114 C   0  0  0  0  0  0  0  0  0  0  0  0
   -1.2109   20.1376   43.6446 N   0  0  0  0  0  0  0  0  0  0  0  0
   -0.4231   20.7173   42.7284 C   0  0  0  0  0  0  0  0  0  0  0  0
    0.5315   19.7909   42.3757 C   0  0  0  0  0  0  0  0  0  0  0  0
    1.5956   19.8125   41.4922 C   0  0  0  0  0  0  0  0  0  0  0  0
    1.8526   20.9900   40.7336 N   0  0  0  0  0  0  0  0  0  0  0  0
    1.8301   15.2423   43.4252 H   0  0  0  0  0  0  0  0  0  0  0  0
    3.2626   13.2982   43.1535 H   0  0  0  0  0  0  0  0  0  0  0  0
    5.1773   13.3995   41.5346 H   0  0  0  0  0  0  0  0  0  0  0  0
    4.1997   17.3602   40.4951 H   0  0  0  0  0  0  0  0  0  0  0  0
   -2.4082   17.6786   44.3945 H   0  0  0  0  0  0  0  0  0  0  0  0
   -1.6370   18.5951   45.7181 H   0  0  0  0  0  0  0  0  0  0  0  0
   -0.7689   17.1291   45.0401 H   0  0  0  0  0  0  0  0  0  0  0  0
   -0.5456   21.7246   42.3605 H   0  0  0  0  0  0  0  0  0  0  0  0
    1.1867   21.7728   40.7440 H   0  0  0  0  0  0  0  0  0  0  0  0
    2.7071   21.0888   40.1576 H   0  0  0  0  0  0  0  0  0  0  0  0
  1  2  2  0
  1  6  1  0
  2  3  1  0
  3  4  2  0
  4  5  1  0
  5  6  2  0
  6  7  1  0
  7  8  2  0
  7  9  1  0
  8 16  1  0
  9 10  2  0
 10 11  1  0
 10 15  1  0
 11 12  1  0
 11 13  1  0
 13 14  2  0
 14 15  1  0
 15 16  2  0
 16 17  1  0
  1 18  1  0
  2 19  1  0
  3 20  1  0
  5 21  1  0
 12 22  1  0
 12 23  1  0
 12 24  1  0
 14 25  1  0
 17 26  1  0
 17 27  1  0
M  END
>  <mol_id>  (24) 
2026-09-18-6fnk-s0-n100-r9-0024

>  <rmsd_to_ref>  (24) 
1.5102040816352722

>  <pose_kind>  (24) 
conformer

$$$$
6fnk.A
     RDKit          3D

 27 29  0  0  0  0  0  0  0  0999 V2000
    2.6449   16.0994   41.7235 C   0  0  0  0  0  0  0  0  0  0  0  0
    3.4518   14.9618   41.6966 C   0  0  0  0  0  0  0  0  0  0  0  0
    4.1009   14.5455   42.8498 C   0  0  0  0  0  0  0  0  0  0  0  0
    3.9425   15.2641   44.0380 N   0  0  0  0  0  0  0  0  0  0  0  0
    3.1314   16.4089   44.0615 C   0  0  0  0  0  0  0  0  0  0  0  0
    2.4804   16.8292   42.9032 C   0  0  0  0  0  0  0  0  0  0  0  0
    1.6745   17.9720   42.9292 C   0  0  0  0  0  0  0  0  0  0  0  0
    1.1817   18.4952   41.7981 N   0  0  0  0  0  0  0  0  0  0  0  0
    1.3817   18.5531   44.0969 N   0  0  0  0  0  0  0  0  0  0  0  0
    0.6174   19.6579   44.1613 C   0  0  0  0  0  0  0  0  0  0  0  0
    0.2101   20.4113   45.1941 N   0  0  0  0  0  0  0  0  0  0  0  0
    0.5265   20.1794   46.6066 C   0  0  0  0  0  0  0  0  0  0  0  0
   -0.4907   21.3441   44.7993 N   0  0  0  0  0  0  0  0  0  0  0  0
   -0.6045   21.2254   43.4662 C   0  0  0  0  0  0  0  0  0  0  0  0
    0.1144   20.1761   43.0452 C   0  0  0  0  0  0  0  0  0  0  0  0
    0.3982   19.5883   41.8505 C   0  0  0  0  0  0  0  0  0  0  0  0
   -0.0948   20.0919   40.6931 N   0  0  0  0  0  0  0  0  0  0  0  0
    2.1328   16.4251   40.8061 H   0  0  0  0  0  0  0  0  0  0  0  0
    3.5734   14.3952   40.7616 H   0  0  0  0  0  0  0  0  0  0  0  0
    4.7398   13.6503   42.8291 H   0  0  0  0  0  0  0  0  0  0  0  0
    3.0092   16.9758   44.9962 H   0  0  0  0  0  0  0  0  0  0  0  0
    0.9324   21.1018   47.0476 H   0  0  0  0  0  0  0  0  0  0  0  0
   -0.3879   19.8876   47.1440 H   0  0  0  0  0  0  0  0  0  0  0  0
    1.2722   19.3749   46.6880 H   0  0  0  0  0  0  0  0  0  0  0  0
   -1.1973   21.8884   42.8190 H   0  0  0  0  0  0  0  0  0  0  0  0
   -0.6965   20.9277   40.7101 H   0  0  0  0  0  0  0  0  0  0  0  0
    0.1322   19.6389   39.7963 H   0  0  0  0  0  0  0  0  0  0  0  0
  1  2  2  0
  1  6  1  0
  2  3  1  0
  3  4  2  0
  4  5  1  0
  5  6  2  0
  6  7  1  0
  7  8  2  0
  7  9  1  0
  8 16  1  0
  9 10  2  0
 10 11  1  0
 10 15  1  0
 11 12  1  0
 11 13  1  0
 13 14  2  0
 14 15  1  0
 15 16  2  0
 16 17  1  0
  1 18  1  0
  2 19  1  0
  3 20  1  0
  5 21  1  0
 12 22  1  0
 12 23  1  0
 12 24  1  0
 14 25  1  0
 17 26  1  0
 17 27  1  0
M  END
>  <mol_id>  (25) 
2026-09-18-6fnk-s0-n100-r9-0025

>  <rmsd_to_ref>  (25) 
1.5561224489812993

>  <pose_kind>  (25) 
rigid

$$$$
6fnk.A
     RDKit          3D

 27 29  0  0  0  0  0  0  0  0999 V2000
    2.6929   15.6324   42.1938 C   0  0  0  0  0  0  0  0  0  0  0  0
    3.5378   14.6693   41.7195 C   0  0  0  0  0  0  0  0  0  0  0  0
    4.6744   15.0623   41.0439 C   0  0  0  0  0  0  0  0  0  0  0  0
    4.9789   16.3683   40.8363 N   0  0  0  0  0  0  0  0  0  0  0  0
    4.1307   17.3254   41.3127 C   0  0  0  0  0  0  0  0  0  0  0  0
    2.9851   16.9821   41.9923 C   0  0  0  0  0  0  0  0  0  0  0  0
    2.0915   18.0161   42.4936 C   0  0  0  0  0  0  0  0  0  0  0  0
    2.4628   19.3004   42.2471 N   0  0  0  0  0  0  0  0  0  0  0  0
    0.9720   17.7004   43.1572 N   0  0  0  0  0  0  0  0  0  0  0  0
    0.1606   18.6709   43.6115 C   0  0  0  0  0  0  0  0  0  0  0  0
   -0.9962   18.6497   44.2905 N   0  0  0  0  0  0  0  0  0  0  0  0
   -1.6967   17.4454   44.7281 C   0  0  0  0  0  0  0  0  0  0  0  0
   -1.3583   19.9049   44.4748 N   0  0  0  0  0  0  0  0  0  0  0  0
   -0.4743   20.7645   43.9372 C   0  0  0  0  0  0  0  0  0  0  0  0
    0.5262   19.9995   43.3674 C   0  0  0  0  0  0  0  0  0  0  0  0
    1.6853   20.2982   42.6809 C   0  0  0  0  0  0  0  0  0  0  0  0
    2.0550   21.6492   42.4339 N   0  0  0  0  0  0  0  0  0  0  0  0
    1.7829   15.4062   42.7327 H   0  0  0  0  0  0  0  0  0  0  0  0
    3.2733   13.6346   41.8975 H   0  0  0  0  0  0  0  0  0  0  0  0
    5.3320   14.2839   40.6754 H   0  0  0  0  0  0  0  0  0  0  0  0
    4.4232   18.3491   41.1183 H   0  0  0  0  0  0  0  0  0  0  0  0
   -0.9909   16.6991   45.1807 H   0  0  0  0  0  0  0  0  0  0  0  0
   -2.1752   16.9361   43.8662 H   0  0  0  0  0  0  0  0  0  0  0  0
   -2.4191   17.6919   45.5504 H   0  0  0  0  0  0  0  0  0  0  0  0
   -0.4844   21.8467   43.9189 H   0  0  0  0  0  0  0  0  0  0  0  0
    1.8440   22.4160   43.0885 H   0  0  0  0  0  0  0  0  0  0  0  0
    2.5634   21.8344   41.5356 H   0  0  0  0  0  0  0  0  0  0  0  0
  1  2  2  0
  1  6  1  0
  2  3  1  0
  3  4  2  0
  4  5  1  0
  5  6  2  0
  6  7  1  0
  7  8  2  0
  7  9  1  0
  8 16  1  0
  9 10  2  0
 10 11  1  0
 10 15  1  0
 11 12  1  0
 11 13  1  0
 13 14  2  0
 14 15  1  0
 15 16  2  0
 16 17  1  0
  1 18  1  0
  2 19  1  0
  3 20  1  0
  5 21  1  0
 12 22  1  0
 12 23  1  0
 12 24  1  0
 14 25  1  0
 17 26  1  0
 17 27  1  0
M  END
>  <mol_id>  (26) 
2026-09-18-6fnk-s0-n100-r9-0026

>  <rmsd_to_ref>  (26) 
1.6020408163286946

>  <pose_kind>  (26) 
conformer

$$$$
6fnk.A
     RDKit          3D

 27 29  0  0  0  0  0  0  0  0999 V2000
    3.4010   16.3302   42.1161 C   0  0  0  0  0  0  0  0  0  0  0  0
    4.3625   15.3431   42.3330 C   0  0  0  0  0  0  0  0  0  0  0  0
    4.2973   14.5503   43.4695 C   0  0  0  0  0  0  0  0  0  0  0  0
    3.2661   14.7390   44.3939 N   0  0  0  0  0  0  0  0  0  0  0  0
    2.3013   15.7338   44.1738 C   0  0  0  0  0  0  0  0  0  0  0  0
    2.3669   16.5321   43.0333 C   0  0  0  0  0  0  0  0  0  0  0  0
    1.4051   17.5244   42.8179 C   0  0  0  0  0  0  0  0  0  0  0  0
    1.5431   18.4162   41.8271 N   0  0  0  0  0  0  0  0  0  0  0  0
    0.3257   17.5866   43.6041 N   0  0  0  0  0  0  0  0  0  0  0  0
   -0.6160   18.5315   43.4333 C   0  0  0  0  0  0  0  0  0  0  0  0
   -1.7534   18.7978   44.0932 N   0  0  0  0  0  0  0  0  0  0  0  0
   -2.2763   18.0538   45.2430 C   0  0  0  0  0  0  0  0  0  0  0  0
   -2.3265   19.7671   43.5940 N   0  0  0  0  0  0  0  0  0  0  0  0
   -1.5935   20.1701   42.5429 C   0  0  0  0  0  0  0  0  0  0  0  0
   -0.4930   19.4123   42.4452 C   0  0  0  0  0  0  0  0  0  0  0  0
    0.5974   19.3538   41.6322 C   0  0  0  0  0  0  0  0  0  0  0  0
    0.7566   20.2379   40.6175 N   0  0  0  0  0  0  0  0  0  0  0  0
    3.4577   16.9562   41.2133 H   0  0  0  0  0  0  0  0  0  0  0  0
    5.1719   15.1934   41.6033 H   0  0  0  0  0  0  0  0  0  0  0  0
    5.0566   13.7736   43.6430 H   0  0  0  0  0  0  0  0  0  0  0  0
    1.4915   15.8838   44.9029 H   0  0  0  0  0  0  0  0  0  0  0  0
   -2.5043   18.7542   46.0600 H   0  0  0  0  0  0  0  0  0  0  0  0
   -3.1932   17.5219   44.9493 H   0  0  0  0  0  0  0  0  0  0  0  0
   -1.5235   17.3271   45.5825 H   0  0  0  0  0  0  0  0  0  0  0  0
   -1.8567   20.9961   41.8659 H   0  0  0  0  0  0  0  0  0  0  0  0
    0.0451   20.9636   40.4504 H   0  0  0  0  0  0  0  0  0  0  0  0
    1.5891   20.1840   40.0134 H   0  0  0  0  0  0  0  0  0  0  0  0
  1  2  2  0
  1  6  1  0
  2  3  1  0
  3  4  2  0
  4  5  1  0
  5  6  2  0
  6  7  1  0
  7  8  2  0
  7  9  1  0
  8 16  1  0
  9 10  2  0
 10 11  1  0
 10 15  1  0
 11 12  1  0
 11 13  1  0
 13 14  2  0
 14 15  1  0
 15 16  2  0
 16 17  1  0
  1 18  1  0
  2 19  1  0
  3 20  1  0
  5 21  1  0
 12 22  1  0
 12 23  1  0
 12 24  1  0
 14 25  1  0
 17 26  1  0
 17 27  1  0
M  END
>  <mol_id>  (27) 
2026-09-18-6fnk-s0-n100-r9-0027

>  <rmsd_to_ref>  (27) 
1.6479591836811116

>  <pose_kind>  (27) 
rigid

$$$$
6fnk.A
     RDKit          3D

 27 29  0  0  0  0  0  0  0  0999 V2000
    3.9596   17.6694   40.2232 C   0  0  0  0  0  0  0  0  0  0  0  0
    4.7486   16.8330   39.4528 C   0  0  0  0  0  0  0  0  0  0  0  0
    4.6148   15.4437   39.5042 C   0  0  0  0  0  0  0  0  0  0  0  0
    3.6893   14.8879   40.3282 N   0  0  0  0  0  0  0  0  0  0  0  0
    2.9102   15.6878   41.0875 C   0  0  0  0  0  0  0  0  0  0  0  0
    3.0214   17.0707   41.0568 C   0  0  0  0  0  0  0  0  0  0  0  0
    2.1630   17.9063   41.8911 C   0  0  0  0  0  0  0  0  0  0  0  0
    2.2255   19.2484   41.9031 N   0  0  0  0  0  0  0  0  0  0  0  0
    1.2590   17.3156   42.6934 N   0  0  0  0  0  0  0  0  0  0  0  0
    0.4157   17.9713   43.5045 C   0  0  0  0  0  0  0  0  0  0  0  0
   -0.5494   17.5669   44.3728 N   0  0  0  0  0  0  0  0  0  0  0  0
   -0.9088   16.1709   44.6316 C   0  0  0  0  0  0  0  0  0  0  0  0
   -1.0557   18.6627   44.8962 N   0  0  0  0  0  0  0  0  0  0  0  0
   -0.4706   19.7634   44.4141 C   0  0  0  0  0  0  0  0  0  0  0  0
    0.4893   19.3564   43.5085 C   0  0  0  0  0  0  0  0  0  0  0  0
    1.4106   19.9797   42.6919 C   0  0  0  0  0  0  0  0  0  0  0  0
    1.4697   21.4026   42.7111 N   0  0  0  0  0  0  0  0  0  0  0  0
    4.0483   18.7474   40.1974 H   0  0  0  0  0  0  0  0  0  0  0  0
    5.4714   17.3188   38.8120 H   0  0  0  0  0  0  0  0  0  0  0  0
    5.2522   14.8285   38.8849 H   0  0  0  0  0  0  0  0  0  0  0  0
    2.1749   15.1901   41.7393 H   0  0  0  0  0  0  0  0  0  0  0  0
   -0.0175   15.6921   45.0789 H   0  0  0  0  0  0  0  0  0  0  0  0
   -1.7868   16.2049   45.3183 H   0  0  0  0  0  0  0  0  0  0  0  0
   -1.2075   15.7043   43.6863 H   0  0  0  0  0  0  0  0  0  0  0  0
   -0.6933   20.7923   44.6726 H   0  0  0  0  0  0  0  0  0  0  0  0
    1.5279   21.9425   43.6096 H   0  0  0  0  0  0  0  0  0  0  0  0
    1.4554   21.9340   41.8072 H   0  0  0  0  0  0  0  0  0  0  0  0
  1  2  2  0
  1  6  1  0
  2  3  1  0
  3  4  2  0
  4  5  1  0
  5  6  2  0
  6  7  1  0
  7  8  2  0
  7  9  1  0
  8 16  1  0
  9 10  2  0
 10 11  1  0
 10 15  1  0
 11 12  1  0
 11 13  1  0
 13 14  2  0
 14 15  1  0
 15 16  2  0
 16 17  1  0
  1 18  1  0
  2 19  1  0
  3 20  1  0
  5 21  1  0
 12 22  1  0
 12 23  1  0
 12 24  1  0
 14 25  1  0
 17 26  1  0
 17 27  1  0
M  END
>  <mol_id>  (28) 
2026-09-18-6fnk-s0-n100-r9-0028

>  <rmsd_to_ref>  (28) 
1.6938775510266912

>  <pose_kind>  (28) 
conformer

$$$$
6fnk.A
     RDKit          3D

 27 29  0  0  0  0  0  0  0  0999 V2000
    1.4516   15.8637   40.4906 C   0  0  0  0  0  0  0  0  0  0  0  0
    1.1731   14.7104   39.7569 C   0  0  0  0  0  0  0  0  0  0  0  0
    0.6420   13.5970   40.3914 C   0  0  0  0  0  0  0  0  0  0  0  0
    0.3831   13.6334   41.7644 N   0  0  0  0  0  0  0  0  0  0  0  0
    0.6657   14.7943   42.5001 C   0  0  0  0  0  0  0  0  0  0  0  0
    1.2010   15.9128   41.8640 C   0  0  0  0  0  0  0  0  0  0  0  0
    1.4839   17.0677   42.6004 C   0  0  0  0  0  0  0  0  0  0  0  0
    2.1574   18.0885   42.0522 N   0  0  0  0  0  0  0  0  0  0  0  0
    1.0738   17.1649   43.8691 N   0  0  0  0  0  0  0  0  0  0  0  0
    1.3344   18.2557   44.6114 C   0  0  0  0  0  0  0  0  0  0  0  0
    1.0451   18.5682   45.8838 N   0  0  0  0  0  0  0  0  0  0  0  0
    0.3126   17.7243   46.8326 C   0  0  0  0  0  0  0  0  0  0  0  0
    1.4751   19.6883   46.1627 N   0  0  0  0  0  0  0  0  0  0  0  0
    2.0498   20.1856   45.0551 C   0  0  0  0  0  0  0  0  0  0  0  0
    1.9910   19.2778   44.0716 C   0  0  0  0  0  0  0  0  0  0  0  0
    2.4062   19.1945   42.7778 C   0  0  0  0  0  0  0  0  0  0  0  0
    3.0811   20.2159   42.1968 N   0  0  0  0  0  0  0  0  0  0  0  0
    1.8729   16.7436   39.9824 H   0  0  0  0  0  0  0  0  0  0  0  0
    1.3745   14.6839   38.6758 H   0  0  0  0  0  0  0  0  0  0  0  0
    0.4248   12.6860   39.8144 H   0  0  0  0  0  0  0  0  0  0  0  0
    0.4644   14.8216   43.5811 H   0  0  0  0  0  0  0  0  0  0  0  0
    0.8929   17.6288   47.7621 H   0  0  0  0  0  0  0  0  0  0  0  0
   -0.6623   18.1830   47.0544 H   0  0  0  0  0  0  0  0  0  0  0  0
    0.1575   16.7279   46.3931 H   0  0  0  0  0  0  0  0  0  0  0  0
    2.4999   21.1856   44.9688 H   0  0  0  0  0  0  0  0  0  0  0  0
    3.2823   21.0716   42.7336 H   0  0  0  0  0  0  0  0  0  0  0  0
    3.3928   20.1366   41.2183 H   0  0  0  0  0  0  0  0  0  0  0  0
  1  2  2  0
  1  6  1  0
  2  3  1  0
  3  4  2  0
  4  5  1  0
  5  6  2  0
  6  7  1  0
  7  8  2  0
  7  9  1  0
  8 16  1  0
  9 10  2  0
 10 11  1  0
 10 15  1  0
 11 12  1  0
 11 13  1  0
 13 14  2  0
 14 15  1  0
 15 16  2  0
 16 17  1  0
  1 18  1  0
  2 19  1  0
  3 20  1  0
  5 21  1  0
 12 22  1  0
 12 23  1  0
 12 24  1  0
 14 25  1  0
 17 26  1  0
 17 27  1  0
M  END
>  <mol_id>  (29) 
2026-09-18-6fnk-s0-n100-r9-0029

>  <rmsd_to_ref>  (29) 
1.739795918372959

>  <pose_kind>  (29) 
rigid

$$$$
6fnk.A
     RDKit          3D

 27 29  0  0  0  0  0  0  0  0999 V2000
    2.7561   14.8533   41.2749 C   0  0  0  0  0  0  0  0  0  0  0  0
    3.4614   13.6877   41.4697 C   0  0  0  0  0  0  0  0  0  0  0  0
    3.6406   13.2516   42.7715 C   0  0  0  0  0  0  0  0  0  0  0  0
    3.1303   13.9628   43.8125 N   0  0  0  0  0  0  0  0  0  0  0  0
    2.4387   15.1095   43.5892 C   0  0  0  0  0  0  0  0  0  0  0  0
    2.2324   15.5847   42.3293 C   0  0  0  0  0  0  0  0  0  0  0  0
    1.5000   16.8075   42.0168 C   0  0  0  0  0  0  0  0  0  0  0  0
    1.3266   17.2294   40.7595 N   0  0  0  0  0  0  0  0  0  0  0  0
    0.9734   17.5494   43.0194 N   0  0  0  0  0  0  0  0  0  0  0  0
    0.2871   18.6917   42.7575 C   0  0  0  0  0  0  0  0  0  0  0  0
   -0.3363   19.6189   43.5072 N   0  0  0  0  0  0  0  0  0  0  0  0
   -0.4278   19.6049   44.9584 C   0  0  0  0  0  0  0  0  0  0  0  0
   -0.8650   20.5621   42.7386 N   0  0  0  0  0  0  0  0  0  0  0  0
   -0.6170   20.3054   41.4388 C   0  0  0  0  0  0  0  0  0  0  0  0
    0.1094   19.1266   41.4451 C   0  0  0  0  0  0  0  0  0  0  0  0
    0.6564   18.3526   40.4331 C   0  0  0  0  0  0  0  0  0  0  0  0
    0.5226   18.7240   39.0537 N   0  0  0  0  0  0  0  0  0  0  0  0
    2.6168   15.1916   40.2690 H   0  0  0  0  0  0  0  0  0  0  0  0
    3.8787   13.1029   40.6472 H   0  0  0  0  0  0  0  0  0  0  0  0
    4.1958   12.3311   42.9501 H   0  0  0  0  0  0  0  0  0  0  0  0
    2.0357   15.6690   44.4302 H   0  0  0  0  0  0  0  0  0  0  0  0
   -1.2626   18.9103   45.2667 H   0  0  0  0  0  0  0  0  0  0  0  0
   -0.6559   20.6101   45.3656 H   0  0  0  0  0  0  0  0  0  0  0  0
    0.5177   19.2199   45.4071 H   0  0  0  0  0  0  0  0  0  0  0  0
   -0.8992   20.8619   40.5543 H   0  0  0  0  0  0  0  0  0  0  0  0
    1.3609   18.7182   38.4258 H   0  0  0  0  0  0  0  0  0  0  0  0
   -0.4371   18.9910   38.7320 H   0  0  0  0  0  0  0  0  0  0  0  0
  1  2  2  0
  1  6  1  0
  2  3  1  0
  3  4  2  0
  4  5  1  0
  5  6  2  0
  6  7  1  0
  7  8  2  0
  7  9  1  0
  8 16  1  0
  9 10  2  0
 10 11  1  0
 10 15  1  0
 11 12  1  0
 11 13  1  0
 13 14  2  0
 14 15  1  0
 15 16  2  0
 16 17  1  0
  1 18  1  0
  2 19  1  0
  3 20  1  0
  5 21  1  0
 12 22  1  0
 12 23  1  0
 12 24  1  0
 14 25  1  0
 17 26  1  0
 17 27  1  0
M  END
>  <mol_id>  (30) 
2026-09-18-6fnk-s0-n100-r9-0030

>  <rmsd_to_ref>  (30) 
1.785714285720236

>  <pose_kind>  (30) 
conformer

$$$$
6fnk.A
     RDKit          3D

 27 29  0  0  0  0  0  0  0  0999 V2000
    3.9439   17.1920   41.4485 C   0  0  0  0  0  0  0  0  0  0  0  0
    4.6017   16.3817   40.5230 C   0  0  0  0  0  0  0  0  0  0  0  0
    4.1597   15.0859   40.2991 C   0  0  0  0  0  0  0  0  0  0  0  0
    3.0536   14.5952   40.9984 N   0  0  0  0  0  0  0  0  0  0  0  0
    2.3949   15.4121   41.9299 C   0  0  0  0  0  0  0  0  0  0  0  0
    2.8392   16.7133   42.1570 C   0  0  0  0  0  0  0  0  0  0  0  0
    2.1820   17.5244   43.0878 C   0  0  0  0  0  0  0  0  0  0  0  0
    2.6908   18.7096   43.4518 N   0  0  0  0  0  0  0  0  0  0  0  0
    1.0249   17.1209   43.6221 N   0  0  0  0  0  0  0  0  0  0  0  0
    0.3684   17.8692   44.5265 C   0  0  0  0  0  0  0  0  0  0  0  0
   -0.7756   17.6702   45.1987 N   0  0  0  0  0  0  0  0  0  0  0  0
   -1.6471   16.4967   45.0868 C   0  0  0  0  0  0  0  0  0  0  0  0
   -1.0161   18.6269   45.9363 N   0  0  0  0  0  0  0  0  0  0  0  0
   -0.0385   19.5300   45.7551 C   0  0  0  0  0  0  0  0  0  0  0  0
    0.8598   19.0516   44.8838 C   0  0  0  0  0  0  0  0  0  0  0  0
    2.0329   19.4776   44.3400 C   0  0  0  0  0  0  0  0  0  0  0  0
    2.5645   20.6757   44.6841 N   0  0  0  0  0  0  0  0  0  0  0  0
    4.2987   18.2186   41.6223 H   0  0  0  0  0  0  0  0  0  0  0  0
    5.4703   16.7699   39.9710 H   0  0  0  0  0  0  0  0  0  0  0  0
    4.6795   14.4451   39.5717 H   0  0  0  0  0  0  0  0  0  0  0  0
    1.5260   15.0246   42.4821 H   0  0  0  0  0  0  0  0  0  0  0  0
   -1.8485   16.0927   46.0899 H   0  0  0  0  0  0  0  0  0  0  0  0
   -2.5954   16.7882   44.6117 H   0  0  0  0  0  0  0  0  0  0  0  0
   -1.1513   15.7288   44.4749 H   0  0  0  0  0  0  0  0  0  0  0  0
    0.0163   20.5124   46.2470 H   0  0  0  0  0  0  0  0  0  0  0  0
    2.0778   21.2794   45.3620 H   0  0  0  0  0  0  0  0  0  0  0  0
    3.4551   20.9826   44.2677 H   0  0  0  0  0  0  0  0  0  0  0  0
  1  2  2  0
  1  6  1  0
  2  3  1  0
  3  4  2  0
  4  5  1  0
  5  6  2  0
  6  7  1  0
  7  8  2  0
  7  9  1  0
  8 16  1  0
  9 10  2  0
 10 11  1  0
 10 15  1  0
 11 12  1  0
 11 13  1  0
 13 14  2  0
 14 15  1  0
 15 16  2  0
 16 17  1  0
  1 18  1  0
  2 19  1  0
  3 20  1  0
  5 21  1  0
 12 22  1  0
 12 23  1  0
 12 24  1  0
 14 25  1  0
 17 26  1  0
 17 27  1  0
M  END
>  <mol_id>  (31) 
2026-09-18-6fnk-s0-n100-r9-0031

>  <rmsd_to_ref>  (31) 
1.8316326530667655

>  <pose_kind>  (31) 
rigid

$$$$
6fnk.A
     RDKit          3D

 27 29  0  0  0  0  0  0  0  0999 V2000
    1.0859   15.4824   43.1274 C   0  0  0  0  0  0  0  0  0  0  0  0
    1.0177   14.1384   42.8214 C   0  0  0  0  0  0  0  0  0  0  0  0
    1.6236   13.6188   41.6773 C   0  0  0  0  0  0  0  0  0  0  0  0
    2.3058   14.4286   40.8215 N   0  0  0  0  0  0  0  0  0  0  0  0
    2.3737   15.7437   41.1191 C   0  0  0  0  0  0  0  0  0  0  0  0
    1.7846   16.2857   42.2428 C   0  0  0  0  0  0  0  0  0  0  0  0
    1.9099   17.7185   42.4836 C   0  0  0  0  0  0  0  0  0  0  0  0
    2.5971   18.4669   41.6008 N   0  0  0  0  0  0  0  0  0  0  0  0
    1.3523   18.2915   43.5660 N   0  0  0  0  0  0  0  0  0  0  0  0
    1.4564   19.6168   43.8079 C   0  0  0  0  0  0  0  0  0  0  0  0
    1.0160   20.4421   44.7781 N   0  0  0  0  0  0  0  0  0  0  0  0
    0.2274   20.0549   45.9374 C   0  0  0  0  0  0  0  0  0  0  0  0
    1.3978   21.6869   44.5444 N   0  0  0  0  0  0  0  0  0  0  0  0
    2.1089   21.6873   43.3909 C   0  0  0  0  0  0  0  0  0  0  0  0
    2.1676   20.3903   42.8937 C   0  0  0  0  0  0  0  0  0  0  0  0
    2.7446   19.8119   41.7783 C   0  0  0  0  0  0  0  0  0  0  0  0
    3.4703   20.6116   40.8489 N   0  0  0  0  0  0  0  0  0  0  0  0
    0.6122   15.8708   44.0163 H   0  0  0  0  0  0  0  0  0  0  0  0
    0.4725   13.4681   43.4981 H   0  0  0  0  0  0  0  0  0  0  0  0
    1.5466   12.5408   41.4681 H   0  0  0  0  0  0  0  0  0  0  0  0
    2.9344   16.3529   40.3984 H   0  0  0  0  0  0  0  0  0  0  0  0
   -0.0985   18.9964   45.8670 H   0  0  0  0  0  0  0  0  0  0  0  0
   -0.6979   20.6617   46.0119 H   0  0  0  0  0  0  0  0  0  0  0  0
    0.8516   20.2221   46.8422 H   0  0  0  0  0  0  0  0  0  0  0  0
    2.5755   22.5196   42.8919 H   0  0  0  0  0  0  0  0  0  0  0  0
    4.5002   20.4699   40.7293 H   0  0  0  0  0  0  0  0  0  0  0  0
    3.0254   21.3524   40.2622 H   0  0  0  0  0  0  0  0  0  0  0  0
  1  2  2  0
  1  6  1  0
  2  3  1  0
  3  4  2  0
  4  5  1  0
  5  6  2  0
  6  7  1  0
  7  8  2  0
  7  9  1  0
  8 16  1  0
  9 10  2  0
 10 11  1  0
 10 15  1  0
 11 12  1  0
 11 13  1  0
 13 14  2  0
 14 15  1  0
 15 16  2  0
 16 17  1  0
  1 18  1  0
  2 19  1  0
  3 20  1  0
  5 21  1  0
 12 22  1  0
 12 23  1  0
 12 24  1  0
 14 25  1  0
 17 26  1  0
 17 27  1  0
M  END
>  <mol_id>  (32) 
2026-09-18-6fnk-s0-n100-r9-0032

>  <rmsd_to_ref>  (32) 
1.8775510204134505

>  <pose_kind>  (32) 
conformer

$$$$
6fnk.A
     RDKit          3D

 27 29  0  0  0  0  0  0  0  0999 V2000
    3.3812   17.2629   40.6279 C   0  0  0  0  0  0  0  0  0  0  0  0
    4.3664   16.6217   39.8768 C   0  0  0  0  0  0  0  0  0  0  0  0
    5.0205   15.5133   40.3945 C   0  0  0  0  0  0  0  0  0  0  0  0
    4.6890   15.0382   41.6664 N   0  0  0  0  0  0  0  0  0  0  0  0
    3.6987   15.6862   42.4201 C   0  0  0  0  0  0  0  0  0  0  0  0
    3.0422   16.8009   41.9019 C   0  0  0  0  0  0  0  0  0  0  0  0
    2.0572   17.4462   42.6565 C   0  0  0  0  0  0  0  0  0  0  0  0
    1.5381   18.6159   42.2586 N   0  0  0  0  0  0  0  0  0  0  0  0
    1.6171   16.8906   43.7900 N   0  0  0  0  0  0  0  0  0  0  0  0
    0.6775   17.4852   44.5467 C   0  0  0  0  0  0  0  0  0  0  0  0
    0.1024   17.1347   45.7072 N   0  0  0  0  0  0  0  0  0  0  0  0
    0.3860   15.9193   46.4762 C   0  0  0  0  0  0  0  0  0  0  0  0
   -0.7243   17.9797   46.0529 N   0  0  0  0  0  0  0  0  0  0  0  0
   -0.7538   18.9266   45.1006 C   0  0  0  0  0  0  0  0  0  0  0  0
    0.1485   18.6394   44.1529 C   0  0  0  0  0  0  0  0  0  0  0  0
    0.5821   19.2108   42.9958 C   0  0  0  0  0  0  0  0  0  0  0  0
    0.0674   20.3885   42.5662 N   0  0  0  0  0  0  0  0  0  0  0  0
    2.8659   18.1415   40.2126 H   0  0  0  0  0  0  0  0  0  0  0  0
    4.6244   16.9947   38.8747 H   0  0  0  0  0  0  0  0  0  0  0  0
    5.7997   15.0087   39.8043 H   0  0  0  0  0  0  0  0  0  0  0  0
    3.4400   15.3136   43.4222 H   0  0  0  0  0  0  0  0  0  0  0  0
    0.6117   16.1892   47.5184 H   0  0  0  0  0  0  0  0  0  0  0  0
   -0.4914   15.2563   46.4509 H   0  0  0  0  0  0  0  0  0  0  0  0
    1.2505   15.4005   46.0364 H   0  0  0  0  0  0  0  0  0  0  0  0
   -1.4175   19.8038   45.0992 H   0  0  0  0  0  0  0  0  0  0  0  0
   -0.6651   20.8612   43.1149 H   0  0  0  0  0  0  0  0  0  0  0  0
    0.4086   20.8110   41.6910 H   0  0  0  0  0  0  0  0  0  0  0  0
  1  2  2  0
  1  6  1  0
  2  3  1  0
  3  4  2  0
  4  5  1  0
  5  6  2  0
  6  7  1  0
  7  8  2  0
  7  9  1  0
  8 16  1  0
  9 10  2  0
 10 11  1  0
 10 15  1  0
 11 12  1  0
 11 13  1  0
 13 14  2  0
 14 15  1  0
 15 16  2  0
 16 17  1  0
  1 18  1  0
  2 19  1  0
  3 20  1  0
  5 21  1  0
 12 22  1  0
 12 23  1  0
 12 24  1  0
 14 25  1  0
 17 26  1  0
 17 27  1  0
M  END
>  <mol_id>  (33) 
2026-09-18-6fnk-s0-n100-r9-0033

>  <rmsd_to_ref>  (33) 
1.9234693877601974

>  <pose_kind>  (33) 
rigid

$$$$
6fnk.A
     RDKit          3D

 27 29  0  0  0  0  0  0  0  0999 V2000
    3.7250   18.0958   40.8617 C   0  0  0  0  0  0  0  0  0  0  0  0
    4.8955   17.3946   40.5459 C   0  0  0  0  0  0  0  0  0  0  0  0
    5.0900   16.1142   41.0222 C   0  0  0  0  0  0  0  0  0  0  0  0
    4.1639   15.4906   41.8073 N   0  0  0  0  0  0  0  0  0  0  0  0
    3.0149   16.1520   42.1295 C   0  0  0  0  0  0  0  0  0  0  0  0
    2.8063   17.4396   41.6576 C   0  0  0  0  0  0  0  0  0  0  0  0
    1.5690   18.1486   42.0060 C   0  0  0  0  0  0  0  0  0  0  0  0
    1.3325   19.4170   41.5580 N   0  0  0  0  0  0  0  0  0  0  0  0
    0.6325   17.5667   42.7778 N   0  0  0  0  0  0  0  0  0  0  0  0
   -0.5231   18.1611   43.1340 C   0  0  0  0  0  0  0  0  0  0  0  0
   -1.5768   17.7745   43.8806 N   0  0  0  0  0  0  0  0  0  0  0  0
   -1.7026   16.4820   44.5358 C   0  0  0  0  0  0  0  0  0  0  0  0
   -2.4301   18.7867   43.8833 N   0  0  0  0  0  0  0  0  0  0  0  0
   -1.9750   19.8282   43.1635 C   0  0  0  0  0  0  0  0  0  0  0  0
   -0.7356   19.4455   42.6658 C   0  0  0  0  0  0  0  0  0  0  0  0
    0.2054   20.0632   41.8752 C   0  0  0  0  0  0  0  0  0  0  0  0
   -0.0206   21.3845   41.3976 N   0  0  0  0  0  0  0  0  0  0  0  0
    3.5641   19.0980   40.4935 H   0  0  0  0  0  0  0  0  0  0  0  0
    5.6146   17.9105   39.9219 H   0  0  0  0  0  0  0  0  0  0  0  0
    6.0173   15.5894   40.7581 H   0  0  0  0  0  0  0  0  0  0  0  0
    2.2717   15.6483   42.7610 H   0  0  0  0  0  0  0  0  0  0  0  0
   -2.6397   16.5156   45.1324 H   0  0  0  0  0  0  0  0  0  0  0  0
   -0.8982   16.3070   45.2788 H   0  0  0  0  0  0  0  0  0  0  0  0
   -1.7800   15.6386   43.8164 H   0  0  0  0  0  0  0  0  0  0  0  0
   -2.4506   20.7845   42.9869 H   0  0  0  0  0  0  0  0  0  0  0  0
   -0.2102   22.1366   42.0783 H   0  0  0  0  0  0  0  0  0  0  0  0
    0.0209   21.5131   40.3563 H   0  0  0  0  0  0  0  0  0  0  0  0
  1  2  2  0
  1  6  1  0
  2  3  1  0
  3  4  2  0
  4  5  1  0
  5  6  2  0
  6  7  1  0
  7  8  2  0
  7  9  1  0
  8 16  1  0
  9 10  2  0
 10 11  1  0
 10 15  1  0
 11 12  1  0
 11 13  1  0
 13 14  2  0
 14 15  1  0
 15 16  2  0
 16 17  1  0
  1 18  1  0
  2 19  1  0
  3 20  1  0
  5 21  1  0
 12 22  1  0
 12 23  1  0
 12 24  1  0
 14 25  1  0
 17 26  1  0
 17 27  1  0
M  END
>  <mol_id>  (34) 
2026-09-18-6fnk-s0-n100-r9-0034

>  <rmsd_to_ref>  (34) 
1.9693877551071517

>  <pose_kind>  (34) 
conformer

$$$$
6fnk.A
     RDKit          3D

 27 29  0  0  0  0  0  0  0  0999 V2000
    2.7092   16.0085   40.5084 C   0  0  0  0  0  0  0  0  0  0  0  0
    3.5760   14.9169   40.4537 C   0  0  0  0  0  0  0  0  0  0  0  0
    4.5358   14.7443   41.4403 C   0  0  0  0  0  0  0  0  0  0  0  0
    4.6307   15.6623   42.4899 N   0  0  0  0  0  0  0  0  0  0  0  0
    3.7585   16.7602   42.5414 C   0  0  0  0  0  0  0  0  0  0  0  0
    2.7951   16.9357   41.5499 C   0  0  0  0  0  0  0  0  0  0  0  0
    1.9286   18.0323   41.6026 C   0  0  0  0  0  0  0  0  0  0  0  0
    1.1156   18.3199   40.5768 N   0  0  0  0  0  0  0  0  0  0  0  0
    1.9006   18.8062   42.6923 N   0  0  0  0  0  0  0  0  0  0  0  0
    1.0874   19.8741   42.7764 C   0  0  0  0  0  0  0  0  0  0  0  0
    0.8995   20.7882   43.7404 N   0  0  0  0  0  0  0  0  0  0  0  0
    1.5910   20.8317   45.0323 C   0  0  0  0  0  0  0  0  0  0  0  0
    0.0427   21.6053   43.4008 N   0  0  0  0  0  0  0  0  0  0  0  0
   -0.4031   21.2398   42.1876 C   0  0  0  0  0  0  0  0  0  0  0  0
    0.2689   20.1592   41.7684 C   0  0  0  0  0  0  0  0  0  0  0  0
    0.2817   19.3733   40.6569 C   0  0  0  0  0  0  0  0  0  0  0  0
   -0.5366   19.6368   39.6093 N   0  0  0  0  0  0  0  0  0  0  0  0
    1.9502   16.1407   39.7233 H   0  0  0  0  0  0  0  0  0  0  0  0
    3.4985   14.1934   39.6288 H   0  0  0  0  0  0  0  0  0  0  0  0
    5.2218   13.8856   41.3966 H   0  0  0  0  0  0  0  0  0  0  0  0
    3.8352   17.4839   43.3663 H   0  0  0  0  0  0  0  0  0  0  0  0
    2.0169   21.8341   45.1867 H   0  0  0  0  0  0  0  0  0  0  0  0
    0.8764   20.6089   45.8384 H   0  0  0  0  0  0  0  0  0  0  0  0
    2.3985   20.0849   45.0414 H   0  0  0  0  0  0  0  0  0  0  0  0
   -1.1985   21.7497   41.6243 H   0  0  0  0  0  0  0  0  0  0  0  0
   -1.1827   20.4380   39.6494 H   0  0  0  0  0  0  0  0  0  0  0  0
   -0.5125   19.0360   38.7731 H   0  0  0  0  0  0  0  0  0  0  0  0
  1  2  2  0
  1  6  1  0
  2  3  1  0
  3  4  2  0
  4  5  1  0
  5  6  2  0
  6  7  1  0
  7  8  2  0
  7  9  1  0
  8 16  1  0
  9 10  2  0
 10 11  1  0
 10 15  1  0
 11 12  1  0
 11 13  1  0
 13 14  2  0
 14 15  1  0
 15 16  2  0
 16 17  1  0
  1 18  1  0
  2 19  1  0
  3 20  1  0
  5 21  1  0
 12 22  1  0
 12 23  1  0
 12 24  1  0
 14 25  1  0
 17 26  1  0
 17 27  1  0
M  END
>  <mol_id>  (35) 
2026-09-18-6fnk-s0-n100-r9-0035

>  <rmsd_to_ref>  (35) 
2.0153061224491142

>  <pose_kind>  (35) 
rigid

$$$$
6fnk.A
     RDKit          3D

 27 29  0  0  0  0  0  0  0  0999 V2000
    4.0499   17.7842   42.5598 C   0  0  0  0  0  0  0  0  0  0  0  0
    5.1036   16.9851   42.1005 C   0  0  0  0  0  0  0  0  0  0  0  0
    4.8612   15.6252   41.9430 C   0  0  0  0  0  0  0  0  0  0  0  0
    3.6514   15.1351   42.2304 N   0  0  0  0  0  0  0  0  0  0  0  0
    2.6368   15.8767   42.6680 C   0  0  0  0  0  0  0  0  0  0  0  0
    2.8101   17.2336   42.8461 C   0  0  0  0  0  0  0  0  0  0  0  0
    1.7237   18.0945   43.3260 C   0  0  0  0  0  0  0  0  0  0  0  0
    1.8945   19.4181   43.4993 N   0  0  0  0  0  0  0  0  0  0  0  0
    0.5322   17.5115   43.5920 N   0  0  0  0  0  0  0  0  0  0  0  0
   -0.5100   18.2390   44.0357 C   0  0  0  0  0  0  0  0  0  0  0  0
   -1.7721   17.9107   44.3668 N   0  0  0  0  0  0  0  0  0  0  0  0
   -2.3242   16.5761   44.3086 C   0  0  0  0  0  0  0  0  0  0  0  0
   -2.3854   19.0015   44.7409 N   0  0  0  0  0  0  0  0  0  0  0  0
   -1.5554   20.0596   44.6668 C   0  0  0  0  0  0  0  0  0  0  0  0
   -0.3343   19.5869   44.2117 C   0  0  0  0  0  0  0  0  0  0  0  0
    0.8831   20.1979   43.9425 C   0  0  0  0  0  0  0  0  0  0  0  0
    1.0072   21.5824   44.1405 N   0  0  0  0  0  0  0  0  0  0  0  0
    4.2605   18.8284   42.6732 H   0  0  0  0  0  0  0  0  0  0  0  0
    6.0712   17.4116   41.8765 H   0  0  0  0  0  0  0  0  0  0  0  0
    5.6466   14.9551   41.5880 H   0  0  0  0  0  0  0  0  0  0  0  0
    1.6695   15.4555   42.8928 H   0  0  0  0  0  0  0  0  0  0  0  0
   -2.0736   15.9500   45.1826 H   0  0  0  0  0  0  0  0  0  0  0  0
   -3.4223   16.6187   44.0989 H   0  0  0  0  0  0  0  0  0  0  0  0
   -1.8939   16.0363   43.4236 H   0  0  0  0  0  0  0  0  0  0  0  0
   -1.7842   21.0743   44.9100 H   0  0  0  0  0  0  0  0  0  0  0  0
    0.5680   21.9934   44.9925 H   0  0  0  0  0  0  0  0  0  0  0  0
    1.5308   22.1411   43.4311 H   0  0  0  0  0  0  0  0  0  0  0  0
  1  2  2  0
  1  6  1  0
  2  3  1  0
  3  4  2  0
  4  5  1  0
  5  6  2  0
  6  7  1  0
  7  8  2  0
  7  9  1  0
  8 16  1  0
  9 10  2  0
 10 11  1  0
 10 15  1  0
 11 12  1  0
 11 13  1  0
 13 14  2  0
 14 15  1  0
 15 16  2  0
 16 17  1  0
  1 18  1  0
  2 19  1  0
  3 20  1  0
  5 21  1  0
 12 22  1  0
 12 23  1  0
 12 24  1  0
 14 25  1  0
 17 26  1  0
 17 27  1  0
M  END
>  <mol_id>  (36) 
2026-09-18-6fnk-s0-n100-r9-0036

>  <rmsd_to_ref>  (36) 
2.061224489797894

>  <pose_kind>  (36) 
conformer

$$$$
6fnk.A
     RDKit          3D

 27 29  0  0  0  0  0  0  0  0999 V2000
    4.7533   17.6700   42.3944 C   0  0  0  0  0  0  0  0  0  0  0  0
    5.9159   16.9015   42.4554 C   0  0  0  0  0  0  0  0  0  0  0  0
    5.9361   15.7342   43.2047 C   0  0  0  0  0  0  0  0  0  0  0  0
    4.7906   15.3276   43.8944 N   0  0  0  0  0  0  0  0  0  0  0  0
    3.6231   16.1035   43.8324 C   0  0  0  0  0  0  0  0  0  0  0  0
    3.6021   17.2773   43.0815 C   0  0  0  0  0  0  0  0  0  0  0  0
    2.4377   18.0498   43.0234 C   0  0  0  0  0  0  0  0  0  0  0  0
    2.4423   19.2644   42.4571 N   0  0  0  0  0  0  0  0  0  0  0  0
    1.2972   17.5734   43.5328 N   0  0  0  0  0  0  0  0  0  0  0  0
    0.1596   18.2903   43.5034 C   0  0  0  0  0  0  0  0  0  0  0  0
   -1.0773   18.0340   43.9557 N   0  0  0  0  0  0  0  0  0  0  0  0
   -1.5087   16.8094   44.6365 C   0  0  0  0  0  0  0  0  0  0  0  0
   -1.8308   18.9778   43.7135 N   0  0  0  0  0  0  0  0  0  0  0  0
   -1.1171   19.9019   43.0496 C   0  0  0  0  0  0  0  0  0  0  0  0
    0.1526   19.4908   42.9325 C   0  0  0  0  0  0  0  0  0  0  0  0
    1.3058   19.9832   42.4023 C   0  0  0  0  0  0  0  0  0  0  0  0
    1.3357   21.2046   41.8160 N   0  0  0  0  0  0  0  0  0  0  0  0
    4.7428   18.5948   41.7989 H   0  0  0  0  0  0  0  0  0  0  0  0
    6.8160   17.2209   41.9098 H   0  0  0  0  0  0  0  0  0  0  0  0
    6.8532   15.1290   43.2560 H   0  0  0  0  0  0  0  0  0  0  0  0
    2.7225   15.7845   44.3775 H   0  0  0  0  0  0  0  0  0  0  0  0
   -2.0156   17.0718   45.5768 H   0  0  0  0  0  0  0  0  0  0  0  0
   -2.2028   16.2546   43.9881 H   0  0  0  0  0  0  0  0  0  0  0  0
   -0.6313   16.1830   44.8552 H   0  0  0  0  0  0  0  0  0  0  0  0
   -1.5144   20.8514   42.6614 H   0  0  0  0  0  0  0  0  0  0  0  0
    0.4775   21.7717   41.7632 H   0  0  0  0  0  0  0  0  0  0  0  0
    2.2167   21.5659   41.4232 H   0  0  0  0  0  0  0  0  0  0  0  0
  1  2  2  0
  1  6  1  0
  2  3  1  0
  3  4  2  0
  4  5  1  0
  5  6  2  0
  6  7  1  0
  7  8  2  0
  7  9  1  0
  8 16  1  0
  9 10  2  0
 10 11  1  0
 10 15  1  0
 11 12  1  0
 11 13  1  0
 13 14  2  0
 14 15  1  0
 15 16  2  0
 16 17  1  0
  1 18  1  0
  2 19  1  0
  3 20  1  0
  5 21  1  0
 12 22  1  0
 12 23  1  0
 12 24  1  0
 14 25  1  0
 17 26  1  0
 17 27  1  0
M  END
>  <mol_id>  (37) 
2026-09-18-6fnk-s0-n100-r9-0037

>  <rmsd_to_ref>  (37) 
2.1071428571474398

>  <pose_kind>  (37) 
rigid

$$$$
6fnk.A
     RDKit          3D

 27 29  0  0  0  0  0  0  0  0999 V2000
    1.5162   15.4388   39.9726 C   0  0  0  0  0  0  0  0  0  0  0  0
    0.9605   14.2218   39.5794 C   0  0  0  0  0  0  0  0  0  0  0  0
   -0.0921   13.6753   40.2808 C   0  0  0  0  0  0  0  0  0  0  0  0
   -0.5907   14.3280   41.3625 N   0  0  0  0  0  0  0  0  0  0  0  0
   -0.0880   15.4954   41.7728 C   0  0  0  0  0  0  0  0  0  0  0  0
    0.9802   16.0818   41.0872 C   0  0  0  0  0  0  0  0  0  0  0  0
    1.5396   17.3555   41.5230 C   0  0  0  0  0  0  0  0  0  0  0  0
    2.5653   17.9644   40.9024 N   0  0  0  0  0  0  0  0  0  0  0  0
    1.0071   17.9589   42.6012 N   0  0  0  0  0  0  0  0  0  0  0  0
    1.4408   19.1334   43.0928 C   0  0  0  0  0  0  0  0  0  0  0  0
    1.0400   19.8757   44.1413 N   0  0  0  0  0  0  0  0  0  0  0  0
   -0.0307   19.6078   45.0916 C   0  0  0  0  0  0  0  0  0  0  0  0
    1.8100   20.9532   44.1855 N   0  0  0  0  0  0  0  0  0  0  0  0
    2.7109   20.9179   43.1717 C   0  0  0  0  0  0  0  0  0  0  0  0
    2.4930   19.7542   42.4530 C   0  0  0  0  0  0  0  0  0  0  0  0
    3.0553   19.1568   41.3470 C   0  0  0  0  0  0  0  0  0  0  0  0
    4.1306   19.7858   40.6887 N   0  0  0  0  0  0  0  0  0  0  0  0
    2.3454   15.8553   39.4085 H   0  0  0  0  0  0  0  0  0  0  0  0
    1.3445   13.6750   38.7101 H   0  0  0  0  0  0  0  0  0  0  0  0
   -0.5657   12.7364   40.0265 H   0  0  0  0  0  0  0  0  0  0  0  0
   -0.5033   16.0078   42.6482 H   0  0  0  0  0  0  0  0  0  0  0  0
   -0.6368   20.5113   45.3099 H   0  0  0  0  0  0  0  0  0  0  0  0
    0.4332   19.2482   46.0113 H   0  0  0  0  0  0  0  0  0  0  0  0
   -0.7090   18.8114   44.7253 H   0  0  0  0  0  0  0  0  0  0  0  0
    3.4842   21.6586   42.9353 H   0  0  0  0  0  0  0  0  0  0  0  0
    4.1119   20.0434   39.6917 H   0  0  0  0  0  0  0  0  0  0  0  0
    4.9936   20.0077   41.2230 H   0  0  0  0  0  0  0  0  0  0  0  0
  1  2  2  0
  1  6  1  0
  2  3  1  0
  3  4  2  0
  4  5  1  0
  5  6  2  0
  6  7  1  0
  7  8  2  0
  7  9  1  0
  8 16  1  0
  9 10  2  0
 10 11  1  0
 10 15  1  0
 11 12  1  0
 11 13  1  0
 13 14  2  0
 14 15  1  0
 15 16  2  0
 16 17  1  0
  1 18  1  0
  2 19  1  0
  3 20  1  0
  5 21  1  0
 12 22  1  0
 12 23  1  0
 12 24  1  0
 14 25  1  0
 17 26  1  0
 17 27  1  0
M  END
>  <mol_id>  (38) 
2026-09-18-6fnk-s0-n100-r9-0038

>  <rmsd_to_ref>  (38) 
2.1530612244920095

>  <pose_kind>  (38) 
conformer

$$$$
6fnk.A
     RDKit          3D

 27 29  0  0  0  0  0  0  0  0999 V2000
    4.1009   15.5158   41.3391 C   0  0  0  0  0  0  0  0  0  0  0  0
    5.1842   14.7158   41.7030 C   0  0  0  0  0  0  0  0  0  0  0  0
    5.4660   14.4993   43.0439 C   0  0  0  0  0  0  0  0  0  0  0  0
    4.6619   15.0799   44.0286 N   0  0  0  0  0  0  0  0  0  0  0  0
    3.5739   15.8854   43.6596 C   0  0  0  0  0  0  0  0  0  0  0  0
    3.2909   16.1051   42.3128 C   0  0  0  0  0  0  0  0  0  0  0  0
    2.2071   16.9104   41.9481 C   0  0  0  0  0  0  0  0  0  0  0  0
    2.0190   17.2791   40.6734 N   0  0  0  0  0  0  0  0  0  0  0  0
    1.3377   17.3172   42.8785 N   0  0  0  0  0  0  0  0  0  0  0  0
    0.2886   18.0992   42.5676 C   0  0  0  0  0  0  0  0  0  0  0  0
   -0.6874   18.6348   43.3164 N   0  0  0  0  0  0  0  0  0  0  0  0
   -0.8503   18.4712   44.7640 C   0  0  0  0  0  0  0  0  0  0  0  0
   -1.4581   19.2928   42.6163 N   0  0  0  0  0  0  0  0  0  0  0  0
   -1.0335   19.1913   41.3460 C   0  0  0  0  0  0  0  0  0  0  0  0
    0.0877   18.4592   41.3038 C   0  0  0  0  0  0  0  0  0  0  0  0
    0.9612   18.0440   40.3457 C   0  0  0  0  0  0  0  0  0  0  0  0
    0.7889   18.3952   39.0482 N   0  0  0  0  0  0  0  0  0  0  0  0
    3.8822   15.6843   40.2743 H   0  0  0  0  0  0  0  0  0  0  0  0
    5.8146   14.2569   40.9271 H   0  0  0  0  0  0  0  0  0  0  0  0
    6.3218   13.8711   43.3320 H   0  0  0  0  0  0  0  0  0  0  0  0
    2.9429   16.3443   44.4350 H   0  0  0  0  0  0  0  0  0  0  0  0
   -0.9558   19.4596   45.2352 H   0  0  0  0  0  0  0  0  0  0  0  0
   -1.7496   17.8708   44.9663 H   0  0  0  0  0  0  0  0  0  0  0  0
    0.0321   17.9604   45.1769 H   0  0  0  0  0  0  0  0  0  0  0  0
   -1.5305   19.6406   40.4736 H   0  0  0  0  0  0  0  0  0  0  0  0
   -0.0137   18.9801   38.7752 H   0  0  0  0  0  0  0  0  0  0  0  0
    1.4606   18.0772   38.3351 H   0  0  0  0  0  0  0  0  0  0  0  0
  1  2  2  0
  1  6  1  0
  2  3  1  0
  3  4  2  0
  4  5  1  0
  5  6  2  0
  6  7  1  0
  7  8  2  0
  7  9  1  0
  8 16  1  0
  9 10  2  0
 10 11  1  0
 10 15  1  0
 11 12  1  0
 11 13  1  0
 13 14  2  0
 14 15  1  0
 15 16  2  0
 16 17  1  0
  1 18  1  0
  2 19  1  0
  3 20  1  0
  5 21  1  0
 12 22  1  0
 12 23  1  0
 12 24  1  0
 14 25  1  0
 17 26  1  0
 17 27  1  0
M  END
>  <mol_id>  (39) 
2026-09-18-6fnk-s0-n100-r9-0039

>  <rmsd_to_ref>  (39) 
2.198979591839028

>  <pose_kind>  (39) 
rigid

$$$$
6fnk.A
     RDKit          3D

 27 29  0  0  0  0  0  0  0  0999 V2000
    0.4914   15.8434   44.0323 C   0  0  0  0  0  0  0  0  0  0  0  0
    0.4041   14.4526   44.1022 C   0  0  0  0  0  0  0  0  0  0  0  0
    1.1084   13.6464   43.2176 C   0  0  0  0  0  0  0  0  0  0  0  0
    1.8990   14.1804   42.2631 N   0  0  0  0  0  0  0  0  0  0  0  0
    2.0070   15.5325   42.1670 C   0  0  0  0  0  0  0  0  0  0  0  0
    1.3067   16.3470   43.0468 C   0  0  0  0  0  0  0  0  0  0  0  0
    1.4579   17.7985   42.9003 C   0  0  0  0  0  0  0  0  0  0  0  0
    2.2696   18.2700   41.9181 N   0  0  0  0  0  0  0  0  0  0  0  0
    0.8037   18.6381   43.7242 N   0  0  0  0  0  0  0  0  0  0  0  0
    0.9388   19.9869   43.5945 C   0  0  0  0  0  0  0  0  0  0  0  0
    0.4161   21.0458   44.2631 N   0  0  0  0  0  0  0  0  0  0  0  0
   -0.5062   20.9455   45.3905 C   0  0  0  0  0  0  0  0  0  0  0  0
    0.9028   22.1409   43.6958 N   0  0  0  0  0  0  0  0  0  0  0  0
    1.7256   21.8244   42.6791 C   0  0  0  0  0  0  0  0  0  0  0  0
    1.7733   20.4565   42.5844 C   0  0  0  0  0  0  0  0  0  0  0  0
    2.4462   19.5992   41.7370 C   0  0  0  0  0  0  0  0  0  0  0  0
    3.2864   20.1315   40.7215 N   0  0  0  0  0  0  0  0  0  0  0  0
   -0.0511   16.4766   44.7140 H   0  0  0  0  0  0  0  0  0  0  0  0
   -0.2347   13.9943   44.8727 H   0  0  0  0  0  0  0  0  0  0  0  0
    0.9908   12.5790   43.3331 H   0  0  0  0  0  0  0  0  0  0  0  0
    2.6493   15.9453   41.3911 H   0  0  0  0  0  0  0  0  0  0  0  0
   -0.3711   19.9752   45.9085 H   0  0  0  0  0  0  0  0  0  0  0  0
   -1.5679   21.0096   45.0498 H   0  0  0  0  0  0  0  0  0  0  0  0
   -0.3484   21.8023   46.0610 H   0  0  0  0  0  0  0  0  0  0  0  0
    2.2342   22.5475   42.0751 H   0  0  0  0  0  0  0  0  0  0  0  0
    4.1469   20.6659   40.9856 H   0  0  0  0  0  0  0  0  0  0  0  0
    3.0652   20.0020   39.6909 H   0  0  0  0  0  0  0  0  0  0  0  0
  1  2  2  0
  1  6  1  0
  2  3  1  0
  3  4  2  0
  4  5  1  0
  5  6  2  0
  6  7  1  0
  7  8  2  0
  7  9  1  0
  8 16  1  0
  9 10  2  0
 10 11  1  0
 10 15  1  0
 11 12  1  0
 11 13  1  0
 13 14  2  0
 14 15  1  0
 15 16  2  0
 16 17  1  0
  1 18  1  0
  2 19  1  0
  3 20  1  0
  5 21  1  0
 12 22  1  0
 12 23  1  0
 12 24  1  0
 14 25  1  0
 17 26  1  0
 17 27  1  0
M  END
>  <mol_id>  (40) 
2026-09-18-6fnk-s0-n100-r9-0040

>  <rmsd_to_ref>  (40) 
2.244897959185943

>  <pose_kind>  (40) 
conformer

$$$$
6fnk.A
     RDKit          3D

 27 29  0  0  0  0  0  0  0  0999 V2000
    3.6213   16.0519   43.4706 C   0  0  0  0  0  0  0  0  0  0  0  0
    3.7506   14.6756   43.2836 C   0  0  0  0  0  0  0  0  0  0  0  0
    2.6238   13.8980   43.0601 C   0  0  0  0  0  0  0  0  0  0  0  0
    1.3608   14.4949   43.0189 N   0  0  0  0  0  0  0  0  0  0  0  0
    1.2337   15.8794   43.2090 C   0  0  0  0  0  0  0  0  0  0  0  0
    2.3648   16.6613   43.4354 C   0  0  0  0  0  0  0  0  0  0  0  0
    2.2348   18.0407   43.6268 C   0  0  0  0  0  0  0  0  0  0  0  0
    3.2783   18.7849   44.0184 N   0  0  0  0  0  0  0  0  0  0  0  0
    1.0563   18.6340   43.4117 N   0  0  0  0  0  0  0  0  0  0  0  0
    0.8904   19.9562   43.5934 C   0  0  0  0  0  0  0  0  0  0  0  0
   -0.1788   20.7557   43.4591 N   0  0  0  0  0  0  0  0  0  0  0  0
   -1.5204   20.3366   43.0428 C   0  0  0  0  0  0  0  0  0  0  0  0
    0.1161   21.9211   43.7273 N   0  0  0  0  0  0  0  0  0  0  0  0
    1.4256   21.9463   44.0251 C   0  0  0  0  0  0  0  0  0  0  0  0
    1.9233   20.7036   43.9697 C   0  0  0  0  0  0  0  0  0  0  0  0
    3.1308   20.1124   44.1834 C   0  0  0  0  0  0  0  0  0  0  0  0
    4.2041   20.8433   44.5711 N   0  0  0  0  0  0  0  0  0  0  0  0
    4.5182   16.6637   43.6477 H   0  0  0  0  0  0  0  0  0  0  0  0
    4.7455   14.2072   43.3132 H   0  0  0  0  0  0  0  0  0  0  0  0
    2.7243   12.8122   42.9155 H   0  0  0  0  0  0  0  0  0  0  0  0
    0.2392   16.3484   43.1792 H   0  0  0  0  0  0  0  0  0  0  0  0
   -2.2606   20.7012   43.7703 H   0  0  0  0  0  0  0  0  0  0  0  0
   -1.7441   20.7558   42.0507 H   0  0  0  0  0  0  0  0  0  0  0  0
   -1.5633   19.2385   42.9950 H   0  0  0  0  0  0  0  0  0  0  0  0
    2.0015   22.8493   44.2760 H   0  0  0  0  0  0  0  0  0  0  0  0
    4.1137   21.8608   44.7034 H   0  0  0  0  0  0  0  0  0  0  0  0
    5.1103   20.3814   44.7333 H   0  0  0  0  0  0  0  0  0  0  0  0
  1  2  2  0
  1  6  1  0
  2  3  1  0
  3  4  2  0
  4  5  1  0
  5  6  2  0
  6  7  1  0
  7  8  2  0
  7  9  1  0
  8 16  1  0
  9 10  2  0
 10 11  1  0
 10 15  1  0
 11 12  1  0
 11 13  1  0
 13 14  2  0
 14 15  1  0
 15 16  2  0
 16 17  1  0
  1 18  1  0
  2 19  1  0
  3 20  1  0
  5 21  1  0
 12 22  1  0
 12 23  1  0
 12 24  1  0
 14 25  1  0
 17 26  1  0
 17 27  1  0
M  END
>  <mol_id>  (41) 
2026-09-18-6fnk-s0-n100-r9-0041

>  <rmsd_to_ref>  (41) 
2.2908163265315253

>  <pose_kind>  (41) 
rigid

$$$$
6fnk.A
     RDKit          3D

 27 29  0  0  0  0  0  0  0  0999 V2000
   -0.4641   14.9512   42.9756 C   0  0  0  0  0  0  0  0  0  0  0  0
   -0.8311   13.6569   42.6468 C   0  0  0  0  0  0  0  0  0  0  0  0
    0.0224   12.8692   41.8901 C   0  0  0  0  0  0  0  0  0  0  0  0
    1.2147   13.3025   41.4474 N   0  0  0  0  0  0  0  0  0  0  0  0
    1.5745   14.5659   41.7675 C   0  0  0  0  0  0  0  0  0  0  0  0
    0.7618   15.3908   42.5181 C   0  0  0  0  0  0  0  0  0  0  0  0
    1.2063   16.7450   42.8309 C   0  0  0  0  0  0  0  0  0  0  0  0
    2.4010   17.1795   42.3875 N   0  0  0  0  0  0  0  0  0  0  0  0
    0.4257   17.5624   43.5619 N   0  0  0  0  0  0  0  0  0  0  0  0
    0.8394   18.8183   43.8512 C   0  0  0  0  0  0  0  0  0  0  0  0
    0.2434   19.7992   44.5523 N   0  0  0  0  0  0  0  0  0  0  0  0
   -1.0519   19.7400   45.1981 C   0  0  0  0  0  0  0  0  0  0  0  0
    1.0310   20.8584   44.5696 N   0  0  0  0  0  0  0  0  0  0  0  0
    2.1645   20.5669   43.8670 C   0  0  0  0  0  0  0  0  0  0  0  0
    2.0508   19.2666   43.4048 C   0  0  0  0  0  0  0  0  0  0  0  0
    2.8487   18.4283   42.6565 C   0  0  0  0  0  0  0  0  0  0  0  0
    4.1012   18.9156   42.2044 N   0  0  0  0  0  0  0  0  0  0  0  0
   -1.1154   15.5841   43.5659 H   0  0  0  0  0  0  0  0  0  0  0  0
   -1.7641   13.2793   42.9778 H   0  0  0  0  0  0  0  0  0  0  0  0
   -0.2853   11.8597   41.6447 H   0  0  0  0  0  0  0  0  0  0  0  0
    2.5547   14.9013   41.3952 H   0  0  0  0  0  0  0  0  0  0  0  0
   -1.7931   20.1503   44.4655 H   0  0  0  0  0  0  0  0  0  0  0  0
   -1.3077   18.7292   45.5618 H   0  0  0  0  0  0  0  0  0  0  0  0
   -1.0805   20.4124   46.0851 H   0  0  0  0  0  0  0  0  0  0  0  0
    3.0190   21.2039   43.6805 H   0  0  0  0  0  0  0  0  0  0  0  0
    4.4776   18.6992   41.2358 H   0  0  0  0  0  0  0  0  0  0  0  0
    4.6421   19.5053   42.8795 H   0  0  0  0  0  0  0  0  0  0  0  0
  1  2  2  0
  1  6  1  0
  2  3  1  0
  3  4  2  0
  4  5  1  0
  5  6  2  0
  6  7  1  0
  7  8  2  0
  7  9  1  0
  8 16  1  0
  9 10  2  0
 10 11  1  0
 10 15  1  0
 11 12  1  0
 11 13  1  0
 13 14  2  0
 14 15  1  0
 15 16  2  0
 16 17  1  0
  1 18  1  0
  2 19  1  0
  3 20  1  0
  5 21  1  0
 12 22  1  0
 12 23  1  0
 12 24  1  0
 14 25  1  0
 17 26  1  0
 17 27  1  0
M  END
>  <mol_id>  (42) 
2026-09-18-6fnk-s0-n100-r9-0042

>  <rmsd_to_ref>  (42) 
2.336734693881317

>  <pose_kind>  (42) 
conformer

$$$$
6fnk.A
     RDKit          3D

 27 29  0  0  0  0  0  0  0  0999 V2000
    4.5507   18.3195   42.7235 C   0  0  0  0  0  0  0  0  0  0  0  0
    5.5848   17.4737   42.3221 C   0  0  0  0  0  0  0  0  0  0  0  0
    5.3045   16.1703   41.9387 C   0  0  0  0  0  0  0  0  0  0  0  0
    3.9859   15.7073   41.9514 N   0  0  0  0  0  0  0  0  0  0  0  0
    2.9479   16.5599   42.3571 C   0  0  0  0  0  0  0  0  0  0  0  0
    3.2285   17.8689   42.7443 C   0  0  0  0  0  0  0  0  0  0  0  0
    2.1921   18.7157   43.1505 C   0  0  0  0  0  0  0  0  0  0  0  0
    2.4514   19.9140   43.6915 N   0  0  0  0  0  0  0  0  0  0  0  0
    0.9207   18.3335   42.9938 N   0  0  0  0  0  0  0  0  0  0  0  0
   -0.1023   19.1164   43.3801 C   0  0  0  0  0  0  0  0  0  0  0  0
   -1.4323   18.9439   43.3399 N   0  0  0  0  0  0  0  0  0  0  0  0
   -2.1326   17.7672   42.8166 C   0  0  0  0  0  0  0  0  0  0  0  0
   -2.0104   19.9286   43.8019 N   0  0  0  0  0  0  0  0  0  0  0  0
   -1.0692   20.8238   44.1438 C   0  0  0  0  0  0  0  0  0  0  0  0
    0.1458   20.3117   43.9063 C   0  0  0  0  0  0  0  0  0  0  0  0
    1.4363   20.7160   44.0628 C   0  0  0  0  0  0  0  0  0  0  0  0
    1.7257   21.9265   44.5989 N   0  0  0  0  0  0  0  0  0  0  0  0
    4.7787   19.3520   43.0268 H   0  0  0  0  0  0  0  0  0  0  0  0
    6.6220   17.8400   42.3097 H   0  0  0  0  0  0  0  0  0  0  0  0
    6.1196   15.5016   41.6248 H   0  0  0  0  0  0  0  0  0  0  0  0
    1.9105   16.1943   42.3695 H   0  0  0  0  0  0  0  0  0  0  0  0
   -2.8486   17.4024   43.5678 H   0  0  0  0  0  0  0  0  0  0  0  0
   -2.6723   18.0402   41.8978 H   0  0  0  0  0  0  0  0  0  0  0  0
   -1.4023   16.9759   42.5916 H   0  0  0  0  0  0  0  0  0  0  0  0
   -1.2660   21.8245   44.5559 H   0  0  0  0  0  0  0  0  0  0  0  0
    0.9644   22.5562   44.8899 H   0  0  0  0  0  0  0  0  0  0  0  0
    2.7071   22.2169   44.7153 H   0  0  0  0  0  0  0  0  0  0  0  0
  1  2  2  0
  1  6  1  0
  2  3  1  0
  3  4  2  0
  4  5  1  0
  5  6  2  0
  6  7  1  0
  7  8  2  0
  7  9  1  0
  8 16  1  0
  9 10  2  0
 10 11  1  0
 10 15  1  0
 11 12  1  0
 11 13  1  0
 13 14  2  0
 14 15  1  0
 15 16  2  0
 16 17  1  0
  1 18  1  0
  2 19  1  0
  3 20  1  0
  5 21  1  0
 12 22  1  0
 12 23  1  0
 12 24  1  0
 14 25  1  0
 17 26  1  0
 17 27  1  0
M  END
>  <mol_id>  (43) 
2026-09-18-6fnk-s0-n100-r9-0043

>  <rmsd_to_ref>  (43) 
2.382653061225979

>  <pose_kind>  (43) 
rigid

$$$$
6fnk.A
     RDKit          3D

 27 29  0  0  0  0  0  0  0  0999 V2000
    3.3499   16.2871   41.1169 C   0  0  0  0  0  0  0  0  0  0  0  0
    4.1486   15.8223   40.0716 C   0  0  0  0  0  0  0  0  0  0  0  0
    4.6416   16.6914   39.1072 C   0  0  0  0  0  0  0  0  0  0  0  0
    4.3651   18.0116   39.1491 N   0  0  0  0  0  0  0  0  0  0  0  0
    3.5895   18.4982   40.1544 C   0  0  0  0  0  0  0  0  0  0  0  0
    3.0918   17.6373   41.1234 C   0  0  0  0  0  0  0  0  0  0  0  0
    2.2605   18.2130   42.1858 C   0  0  0  0  0  0  0  0  0  0  0  0
    2.0208   19.5502   42.1687 N   0  0  0  0  0  0  0  0  0  0  0  0
    1.7502   17.4276   43.1525 N   0  0  0  0  0  0  0  0  0  0  0  0
    0.9775   17.9545   44.1422 C   0  0  0  0  0  0  0  0  0  0  0  0
    0.3459   17.4200   45.2177 N   0  0  0  0  0  0  0  0  0  0  0  0
    0.3671   16.0051   45.5773 C   0  0  0  0  0  0  0  0  0  0  0  0
   -0.2665   18.4164   45.8422 N   0  0  0  0  0  0  0  0  0  0  0  0
   -0.0513   19.5815   45.2043 C   0  0  0  0  0  0  0  0  0  0  0  0
    0.7397   19.3256   44.1128 C   0  0  0  0  0  0  0  0  0  0  0  0
    1.2610   20.1350   43.1234 C   0  0  0  0  0  0  0  0  0  0  0  0
    0.9873   21.5297   43.1403 N   0  0  0  0  0  0  0  0  0  0  0  0
    2.9631   15.6206   41.8693 H   0  0  0  0  0  0  0  0  0  0  0  0
    4.3876   14.7491   40.0168 H   0  0  0  0  0  0  0  0  0  0  0  0
    5.2527   16.2584   38.3289 H   0  0  0  0  0  0  0  0  0  0  0  0
    3.3769   19.5658   40.1720 H   0  0  0  0  0  0  0  0  0  0  0  0
    1.2804   15.5231   45.1752 H   0  0  0  0  0  0  0  0  0  0  0  0
   -0.5186   15.4692   45.1581 H   0  0  0  0  0  0  0  0  0  0  0  0
    0.2919   15.9110   46.6700 H   0  0  0  0  0  0  0  0  0  0  0  0
   -0.4482   20.5218   45.5278 H   0  0  0  0  0  0  0  0  0  0  0  0
    1.3533   22.1223   43.9219 H   0  0  0  0  0  0  0  0  0  0  0  0
    0.4160   21.9946   42.3752 H   0  0  0  0  0  0  0  0  0  0  0  0
  1  2  2  0
  1  6  1  0
  2  3  1  0
  3  4  2  0
  4  5  1  0
  5  6  2  0
  6  7  1  0
  7  8  2  0
  7  9  1  0
  8 16  1  0
  9 10  2  0
 10 11  1  0
 10 15  1  0
 11 12  1  0
 11 13  1  0
 13 14  2  0
 14 15  1  0
 15 16  2  0
 16 17  1  0
  1 18  1  0
  2 19  1  0
  3 20  1  0
  5 21  1  0
 12 22  1  0
 12 23  1  0
 12 24  1  0
 14 25  1  0
 17 26  1  0
 17 27  1  0
M  END
>  <mol_id>  (44) 
2026-09-18-6fnk-s0-n100-r9-0044

>  <rmsd_to_ref>  (44) 
2.4285714285765687

>  <pose_kind>  (44) 
conformer

$$$$
6fnk.A
     RDKit          3D

 27 29  0  0  0  0  0  0  0  0999 V2000
    3.4914   18.1092   41.5408 C   0  0  0  0  0  0  0  0  0  0  0  0
    4.6408   17.6929   40.8689 C   0  0  0  0  0  0  0  0  0  0  0  0
    5.1564   16.4255   41.0979 C   0  0  0  0  0  0  0  0  0  0  0  0
    4.5214   15.5660   41.9987 N   0  0  0  0  0  0  0  0  0  0  0  0
    3.3662   15.9881   42.6742 C   0  0  0  0  0  0  0  0  0  0  0  0
    2.8485   17.2618   42.4464 C   0  0  0  0  0  0  0  0  0  0  0  0
    1.6983   17.6806   43.1229 C   0  0  0  0  0  0  0  0  0  0  0  0
    1.2826   18.9530   43.0561 N   0  0  0  0  0  0  0  0  0  0  0  0
    0.9938   16.8027   43.8441 N   0  0  0  0  0  0  0  0  0  0  0  0
   -0.1123   17.1698   44.5153 C   0  0  0  0  0  0  0  0  0  0  0  0
   -0.9565   16.4848   45.3017 N   0  0  0  0  0  0  0  0  0  0  0  0
   -0.8615   15.0595   45.6312 C   0  0  0  0  0  0  0  0  0  0  0  0
   -1.8530   17.2198   45.7177 N   0  0  0  0  0  0  0  0  0  0  0  0
   -1.6530   18.4377   45.1876 C   0  0  0  0  0  0  0  0  0  0  0  0
   -0.5384   18.4271   44.4444 C   0  0  0  0  0  0  0  0  0  0  0  0
    0.1655   19.3286   43.7060 C   0  0  0  0  0  0  0  0  0  0  0  0
   -0.2380   20.6190   43.6146 N   0  0  0  0  0  0  0  0  0  0  0  0
    3.0870   19.1153   41.3556 H   0  0  0  0  0  0  0  0  0  0  0  0
    5.1381   18.3691   40.1580 H   0  0  0  0  0  0  0  0  0  0  0  0
    6.0644   16.0972   40.5709 H   0  0  0  0  0  0  0  0  0  0  0  0
    2.8683   15.3124   43.3851 H   0  0  0  0  0  0  0  0  0  0  0  0
   -0.9079   14.9317   46.7228 H   0  0  0  0  0  0  0  0  0  0  0  0
   -1.6969   14.5184   45.1628 H   0  0  0  0  0  0  0  0  0  0  0  0
    0.0915   14.6590   45.2553 H   0  0  0  0  0  0  0  0  0  0  0  0
   -2.3048   19.3104   45.3404 H   0  0  0  0  0  0  0  0  0  0  0  0
   -1.0901   20.9281   44.1039 H   0  0  0  0  0  0  0  0  0  0  0  0
    0.3073   21.2908   43.0558 H   0  0  0  0  0  0  0  0  0  0  0  0
  1  2  2  0
  1  6  1  0
  2  3  1  0
  3  4  2  0
  4  5  1  0
  5  6  2  0
  6  7  1  0
  7  8  2  0
  7  9  1  0
  8 16  1  0
  9 10  2  0
 10 11  1  0
 10 15  1  0
 11 12  1  0
 11 13  1  0
 13 14  2  0
 14 15  1  0
 15 16  2  0
 16 17  1  0
  1 18  1  0
  2 19  1  0
  3 20  1  0
  5 21  1  0
 12 22  1  0
 12 23  1  0
 12 24  1  0
 14 25  1  0
 17 26  1  0
 17 27  1  0
M  END
>  <mol_id>  (45) 
2026-09-18-6fnk-s0-n100-r9-0045

>  <rmsd_to_ref>  (45) 
2.474489795924206

>  <pose_kind>  (45) 
rigid

$$$$
6fnk.A
     RDKit          3D

 27 29  0  0  0  0  0  0  0  0999 V2000
    0.3064   14.5548   42.5907 C   0  0  0  0  0  0  0  0  0  0  0  0
    0.3139   13.2146   42.2130 C   0  0  0  0  0  0  0  0  0  0  0  0
    1.4382   12.4528   42.5213 C   0  0  0  0  0  0  0  0  0  0  0  0
    2.4931   12.9938   43.1678 N   0  0  0  0  0  0  0  0  0  0  0  0
    2.4848   14.2958   43.5343 C   0  0  0  0  0  0  0  0  0  0  0  0
    1.3898   15.0931   43.2498 C   0  0  0  0  0  0  0  0  0  0  0  0
    1.4192   16.4967   43.6628 C   0  0  0  0  0  0  0  0  0  0  0  0
    2.5154   16.9441   44.3019 N   0  0  0  0  0  0  0  0  0  0  0  0
    0.3751   17.3045   43.4050 N   0  0  0  0  0  0  0  0  0  0  0  0
    0.4043   18.5895   43.7842 C   0  0  0  0  0  0  0  0  0  0  0  0
   -0.4764   19.5967   43.6595 N   0  0  0  0  0  0  0  0  0  0  0  0
   -1.7983   19.5698   43.0346 C   0  0  0  0  0  0  0  0  0  0  0  0
    0.0061   20.7078   44.2010 N   0  0  0  0  0  0  0  0  0  0  0  0
    1.2263   20.4101   44.6860 C   0  0  0  0  0  0  0  0  0  0  0  0
    1.4999   19.0790   44.4351 C   0  0  0  0  0  0  0  0  0  0  0  0
    2.5615   18.2347   44.6906 C   0  0  0  0  0  0  0  0  0  0  0  0
    3.7068   18.7447   45.3705 N   0  0  0  0  0  0  0  0  0  0  0  0
   -0.5486   15.1989   42.3747 H   0  0  0  0  0  0  0  0  0  0  0  0
   -0.5425   12.8326   41.7045 H   0  0  0  0  0  0  0  0  0  0  0  0
    1.4011   11.4219   42.2108 H   0  0  0  0  0  0  0  0  0  0  0  0
    3.3631   14.6771   44.0528 H   0  0  0  0  0  0  0  0  0  0  0  0
   -1.9927   18.5745   42.5916 H   0  0  0  0  0  0  0  0  0  0  0  0
   -2.5245   19.6863   43.8776 H   0  0  0  0  0  0  0  0  0  0  0  0
   -1.9275   20.3616   42.2792 H   0  0  0  0  0  0  0  0  0  0  0  0
    1.9213   21.0549   45.1940 H   0  0  0  0  0  0  0  0  0  0  0  0
    4.5492   18.1472   45.5171 H   0  0  0  0  0  0  0  0  0  0  0  0
    3.7291   19.7026   45.7282 H   0  0  0  0  0  0  0  0  0  0  0  0
  1  2  2  0
  1  6  1  0
  2  3  1  0
  3  4  2  0
  4  5  1  0
  5  6  2  0
  6  7  1  0
  7  8  2  0
  7  9  1  0
  8 16  1  0
  9 10  2  0
 10 11  1  0
 10 15  1  0
 11 12  1  0
 11 13  1  0
 13 14  2  0
 14 15  1  0
 15 16  2  0
 16 17  1  0
  1 18  1  0
  2 19  1  0
  3 20  1  0
  5 21  1  0
 12 22  1  0
 12 23  1  0
 12 24  1  0
 14 25  1  0
 17 26  1  0
 17 27  1  0
M  END
>  <mol_id>  (46) 
2026-09-18-6fnk-s0-n100-r9-0046

>  <rmsd_to_ref>  (46) 
2.5204081632663544

>  <pose_kind>  (46) 
conformer

$$$$
6fnk.A
     RDKit          3D

 27 29  0  0  0  0  0  0  0  0999 V2000
    4.5589   16.2543   42.5027 C   0  0  0  0  0  0  0  0  0  0  0  0
    5.6184   15.5183   43.0335 C   0  0  0  0  0  0  0  0  0  0  0  0
    5.3973   14.6520   44.0942 C   0  0  0  0  0  0  0  0  0  0  0  0
    4.1126   14.5148   44.6272 N   0  0  0  0  0  0  0  0  0  0  0  0
    3.0492   15.2576   44.0921 C   0  0  0  0  0  0  0  0  0  0  0  0
    3.2705   16.1296   43.0278 C   0  0  0  0  0  0  0  0  0  0  0  0
    2.2089   16.8704   42.4981 C   0  0  0  0  0  0  0  0  0  0  0  0
    2.4246   17.8395   41.5979 N   0  0  0  0  0  0  0  0  0  0  0  0
    0.9566   16.6093   42.8861 N   0  0  0  0  0  0  0  0  0  0  0  0
   -0.0888   17.3059   42.4058 C   0  0  0  0  0  0  0  0  0  0  0  0
   -1.4057   17.2372   42.6532 N   0  0  0  0  0  0  0  0  0  0  0  0
   -2.0611   16.3055   43.5758 C   0  0  0  0  0  0  0  0  0  0  0  0
   -2.0158   18.0716   41.9833 N   0  0  0  0  0  0  0  0  0  0  0  0
   -1.1135   18.7175   41.2265 C   0  0  0  0  0  0  0  0  0  0  0  0
    0.1151   18.2604   41.5033 C   0  0  0  0  0  0  0  0  0  0  0  0
    1.3851   18.5298   41.0936 C   0  0  0  0  0  0  0  0  0  0  0  0
    1.6298   19.4983   40.1778 N   0  0  0  0  0  0  0  0  0  0  0  0
    4.7400   16.9400   41.6618 H   0  0  0  0  0  0  0  0  0  0  0  0
    6.6286   15.6249   42.6113 H   0  0  0  0  0  0  0  0  0  0  0  0
    6.2326   14.0734   44.5155 H   0  0  0  0  0  0  0  0  0  0  0  0
    2.0387   15.1513   44.5136 H   0  0  0  0  0  0  0  0  0  0  0  0
   -2.7089   16.8669   44.2652 H   0  0  0  0  0  0  0  0  0  0  0  0
   -2.6686   15.5891   43.0034 H   0  0  0  0  0  0  0  0  0  0  0  0
   -1.2977   15.7613   44.1512 H   0  0  0  0  0  0  0  0  0  0  0  0
   -1.3474   19.5019   40.4918 H   0  0  0  0  0  0  0  0  0  0  0  0
    0.8491   20.0388   39.7788 H   0  0  0  0  0  0  0  0  0  0  0  0
    2.5965   19.6938   39.8808 H   0  0  0  0  0  0  0  0  0  0  0  0
  1  2  2  0
  1  6  1  0
  2  3  1  0
  3  4  2  0
  4  5  1  0
  5  6  2  0
  6  7  1  0
  7  8  2  0
  7  9  1  0
  8 16  1  0
  9 10  2  0
 10 11  1  0
 10 15  1  0
 11 12  1  0
 11 13  1  0
 13 14  2  0
 14 15  1  0
 15 16  2  0
 16 17  1  0
  1 18  1  0
  2 19  1  0
  3 20  1  0
  5 21  1  0
 12 22  1  0
 12 23  1  0
 12 24  1  0
 14 25  1  0
 17 26  1  0
 17 27  1  0
M  END
>  <mol_id>  (47) 
2026-09-18-6fnk-s0-n100-r9-0047

>  <rmsd_to_ref>  (47) 
2.566326530613406

>  <pose_kind>  (47) 
rigid

$$$$
6fnk.A
     RDKit          3D

 27 29  0  0  0  0  0  0  0  0999 V2000
    2.2421   15.0856   40.1178 C   0  0  0  0  0  0  0  0  0  0  0  0
    3.1590   14.5157   39.2426 C   0  0  0  0  0  0  0  0  0  0  0  0
    4.4953   14.8547   39.2895 C   0  0  0  0  0  0  0  0  0  0  0  0
    4.9595   15.7605   40.1969 N   0  0  0  0  0  0  0  0  0  0  0  0
    4.0833   16.3372   41.0695 C   0  0  0  0  0  0  0  0  0  0  0  0
    2.7410   16.0070   41.0341 C   0  0  0  0  0  0  0  0  0  0  0  0
    1.8386   16.6465   41.9842 C   0  0  0  0  0  0  0  0  0  0  0  0
    2.3452   17.5335   42.8596 N   0  0  0  0  0  0  0  0  0  0  0  0
    0.5242   16.3586   41.9896 N   0  0  0  0  0  0  0  0  0  0  0  0
   -0.3060   16.9479   42.8649 C   0  0  0  0  0  0  0  0  0  0  0  0
   -1.6399   16.8766   43.1201 N   0  0  0  0  0  0  0  0  0  0  0  0
   -2.5751   16.0399   42.4094 C   0  0  0  0  0  0  0  0  0  0  0  0
   -1.9403   17.6831   44.1075 N   0  0  0  0  0  0  0  0  0  0  0  0
   -0.8452   18.3255   44.5583 C   0  0  0  0  0  0  0  0  0  0  0  0
    0.1971   17.8677   43.7783 C   0  0  0  0  0  0  0  0  0  0  0  0
    1.5436   18.1597   43.7695 C   0  0  0  0  0  0  0  0  0  0  0  0
    2.0626   19.1009   44.7031 N   0  0  0  0  0  0  0  0  0  0  0  0
    1.1925   14.8152   40.0762 H   0  0  0  0  0  0  0  0  0  0  0  0
    2.8574   13.7837   38.4908 H   0  0  0  0  0  0  0  0  0  0  0  0
    5.2427   14.4368   38.6289 H   0  0  0  0  0  0  0  0  0  0  0  0
    4.5039   17.0470   41.7662 H   0  0  0  0  0  0  0  0  0  0  0  0
   -2.0896   15.3390   41.7186 H   0  0  0  0  0  0  0  0  0  0  0  0
   -3.2601   16.7009   41.8540 H   0  0  0  0  0  0  0  0  0  0  0  0
   -3.2220   15.4419   43.1144 H   0  0  0  0  0  0  0  0  0  0  0  0
   -0.7671   19.0595   45.3685 H   0  0  0  0  0  0  0  0  0  0  0  0
    1.9616   20.1103   44.4657 H   0  0  0  0  0  0  0  0  0  0  0  0
    2.5278   18.7891   45.5940 H   0  0  0  0  0  0  0  0  0  0  0  0
  1  2  2  0
  1  6  1  0
  2  3  1  0
  3  4  2  0
  4  5  1  0
  5  6  2  0
  6  7  1  0
  7  8  2  0
  7  9  1  0
  8 16  1  0
  9 10  2  0
 10 11  1  0
 10 15  1  0
 11 12  1  0
 11 13  1  0
 13 14  2  0
 14 15  1  0
 15 16  2  0
 16 17  1  0
  1 18  1  0
  2 19  1  0
  3 20  1  0
  5 21  1  0
 12 22  1  0
 12 23  1  0
 12 24  1  0
 14 25  1  0
 17 26  1  0
 17 27  1  0
M  END
>  <mol_id>  (48) 
2026-09-18-6fnk-s0-n100-r9-0048

>  <rmsd_to_ref>  (48) 
2.612244897959539

>  <pose_kind>  (48) 
conformer

$$$$
6fnk.A
     RDKit          3D

 27 29  0  0  0  0  0  0  0  0999 V2000
    0.3508   18.2735   40.2023 C   0  0  0  0  0  0  0  0  0  0  0  0
    0.0884   17.4055   39.1422 C   0  0  0  0  0  0  0  0  0  0  0  0
    0.3167   16.0450   39.2881 C   0  0  0  0  0  0  0  0  0  0  0  0
    0.8058   15.5452   40.4982 N   0  0  0  0  0  0  0  0  0  0  0  0
    1.0702   16.4209   41.5622 C   0  0  0  0  0  0  0  0  0  0  0  0
    0.8431   17.7881   41.4162 C   0  0  0  0  0  0  0  0  0  0  0  0
    1.1098   18.6588   42.4777 C   0  0  0  0  0  0  0  0  0  0  0  0
    1.0679   19.9875   42.3081 N   0  0  0  0  0  0  0  0  0  0  0  0
    1.4056   18.1656   43.6845 N   0  0  0  0  0  0  0  0  0  0  0  0
    1.6764   18.9710   44.7270 C   0  0  0  0  0  0  0  0  0  0  0  0
    2.0078   18.7126   46.0012 N   0  0  0  0  0  0  0  0  0  0  0  0
    2.1566   17.3826   46.5995 C   0  0  0  0  0  0  0  0  0  0  0  0
    2.1672   19.7610   46.6278 N   0  0  0  0  0  0  0  0  0  0  0  0
    1.9117   20.7757   45.7857 C   0  0  0  0  0  0  0  0  0  0  0  0
    1.6249   20.2901   44.5704 C   0  0  0  0  0  0  0  0  0  0  0  0
    1.3162   20.8046   43.3484 C   0  0  0  0  0  0  0  0  0  0  0  0
    1.2583   22.1442   43.1522 N   0  0  0  0  0  0  0  0  0  0  0  0
    0.1682   19.3514   40.0810 H   0  0  0  0  0  0  0  0  0  0  0  0
   -0.2993   17.7996   38.1913 H   0  0  0  0  0  0  0  0  0  0  0  0
    0.1130   15.3600   38.4519 H   0  0  0  0  0  0  0  0  0  0  0  0
    1.4577   16.0274   42.5135 H   0  0  0  0  0  0  0  0  0  0  0  0
    3.1310   17.3152   47.1055 H   0  0  0  0  0  0  0  0  0  0  0  0
    1.3515   17.2173   47.3306 H   0  0  0  0  0  0  0  0  0  0  0  0
    2.0990   16.6175   45.8114 H   0  0  0  0  0  0  0  0  0  0  0  0
    1.9345   21.8425   46.0530 H   0  0  0  0  0  0  0  0  0  0  0  0
    1.4447   22.7878   43.9345 H   0  0  0  0  0  0  0  0  0  0  0  0
    1.0278   22.5188   42.2209 H   0  0  0  0  0  0  0  0  0  0  0  0
  1  2  2  0
  1  6  1  0
  2  3  1  0
  3  4  2  0
  4  5  1  0
  5  6  2  0
  6  7  1  0
  7  8  2  0
  7  9  1  0
  8 16  1  0
  9 10  2  0
 10 11  1  0
 10 15  1  0
 11 12  1  0
 11 13  1  0
 13 14  2  0
 14 15  1  0
 15 16  2  0
 16 17  1  0
  1 18  1  0
  2 19  1  0
  3 20  1  0
  5 21  1  0
 12 22  1  0
 12 23  1  0
 12 24  1  0
 14 25  1  0
 17 26  1  0
 17 27  1  0
M  END
>  <mol_id>  (49) 
2026-09-18-6fnk-s0-n100-r9-0049

>  <rmsd_to_ref>  (49) 
2.6581632653107374

>  <pose_kind>  (49) 
rigid

$$$$
6fnk.A
     RDKit          3D

 27 29  0  0  0  0  0  0  0  0999 V2000
   -0.0561   16.0804   43.0261 C   0  0  0  0  0  0  0  0  0  0  0  0
   -0.6571   15.0118   42.3897 C   0  0  0  0  0  0  0  0  0  0  0  0
   -0.4859   14.7910   41.0272 C   0  0  0  0  0  0  0  0  0  0  0  0
    0.2850   15.6336   40.2915 N   0  0  0  0  0  0  0  0  0  0  0  0
    0.8908   16.6956   40.8879 C   0  0  0  0  0  0  0  0  0  0  0  0
    0.7178   16.9106   42.2406 C   0  0  0  0  0  0  0  0  0  0  0  0
    1.3848   18.0593   42.8376 C   0  0  0  0  0  0  0  0  0  0  0  0
    2.1389   18.8630   42.0568 N   0  0  0  0  0  0  0  0  0  0  0  0
    1.2556   18.3219   44.1477 N   0  0  0  0  0  0  0  0  0  0  0  0
    1.8828   19.3948   44.6870 C   0  0  0  0  0  0  0  0  0  0  0  0
    1.9450   19.9045   45.9260 N   0  0  0  0  0  0  0  0  0  0  0  0
    1.2834   19.3659   47.1000 C   0  0  0  0  0  0  0  0  0  0  0  0
    2.7054   20.9844   45.9308 N   0  0  0  0  0  0  0  0  0  0  0  0
    3.1741   21.2269   44.6901 C   0  0  0  0  0  0  0  0  0  0  0  0
    2.6522   20.2133   43.8862 C   0  0  0  0  0  0  0  0  0  0  0  0
    2.7889   19.9486   42.5386 C   0  0  0  0  0  0  0  0  0  0  0  0
    3.5748   20.7707   41.6793 N   0  0  0  0  0  0  0  0  0  0  0  0
   -0.1991   16.2399   44.0907 H   0  0  0  0  0  0  0  0  0  0  0  0
   -1.2818   14.3131   42.9398 H   0  0  0  0  0  0  0  0  0  0  0  0
   -0.9441   13.9637   40.5054 H   0  0  0  0  0  0  0  0  0  0  0  0
    1.5044   17.3559   40.2711 H   0  0  0  0  0  0  0  0  0  0  0  0
    0.5771   20.0940   47.5617 H   0  0  0  0  0  0  0  0  0  0  0  0
    1.9770   18.9653   47.8577 H   0  0  0  0  0  0  0  0  0  0  0  0
    0.6192   18.5090   46.7936 H   0  0  0  0  0  0  0  0  0  0  0  0
    3.8194   22.0318   44.3669 H   0  0  0  0  0  0  0  0  0  0  0  0
    3.3280   20.9259   40.6783 H   0  0  0  0  0  0  0  0  0  0  0  0
    4.4345   21.2261   42.1037 H   0  0  0  0  0  0  0  0  0  0  0  0
  1  2  2  0
  1  6  1  0
  2  3  1  0
  3  4  2  0
  4  5  1  0
  5  6  2  0
  6  7  1  0
  7  8  2  0
  7  9  1  0
  8 16  1  0
  9 10  2  0
 10 11  1  0
 10 15  1  0
 11 12  1  0
 11 13  1  0
 13 14  2  0
 14 15  1  0
 15 16  2  0
 16 17  1  0
  1 18  1  0
  2 19  1  0
  3 20  1  0
  5 21  1  0
 12 22  1  0
 12 23  1  0
 12 24  1  0
 14 25  1  0
 17 26  1  0
 17 27  1  0
M  END
>  <mol_id>  (50) 
2026-09-18-6fnk-s0-n100-r9-0050

>  <rmsd_to_ref>  (50) 
2.704081632658893

>  <pose_kind>  (50) 
conformer

$$$$
6fnk.A
     RDKit          3D

 27 29  0  0  0  0  0  0  0  0999 V2000
    2.5489   13.7721   42.6617 C   0  0  0  0  0  0  0  0  0  0  0  0
    3.2470   12.7354   43.2812 C   0  0  0  0  0  0  0  0  0  0  0  0
    3.8124   12.9318   44.5327 C   0  0  0  0  0  0  0  0  0  0  0  0
    3.6786   14.1669   45.1729 N   0  0  0  0  0  0  0  0  0  0  0  0
    2.9771   15.2083   44.5466 C   0  0  0  0  0  0  0  0  0  0  0  0
    2.4103   15.0128   43.2886 C   0  0  0  0  0  0  0  0  0  0  0  0
    1.7137   16.0535   42.6658 C   0  0  0  0  0  0  0  0  0  0  0  0
    1.3129   15.9504   41.3911 N   0  0  0  0  0  0  0  0  0  0  0  0
    1.4341   17.1686   43.3480 N   0  0  0  0  0  0  0  0  0  0  0  0
    0.7739   18.1939   42.7807 C   0  0  0  0  0  0  0  0  0  0  0  0
    0.4013   19.3942   43.2505 N   0  0  0  0  0  0  0  0  0  0  0  0
    0.6434   19.9020   44.6042 C   0  0  0  0  0  0  0  0  0  0  0  0
   -0.1950   20.0326   42.3822 N   0  0  0  0  0  0  0  0  0  0  0  0
   -0.2710   19.2531   41.2909 C   0  0  0  0  0  0  0  0  0  0  0  0
    0.3620   18.0949   41.5206 C   0  0  0  0  0  0  0  0  0  0  0  0
    0.6330   16.9607   40.8181 C   0  0  0  0  0  0  0  0  0  0  0  0
    0.2312   16.8273   39.5308 N   0  0  0  0  0  0  0  0  0  0  0  0
    2.1028   13.6110   41.6692 H   0  0  0  0  0  0  0  0  0  0  0  0
    3.3491   11.7628   42.7776 H   0  0  0  0  0  0  0  0  0  0  0  0
    4.3656   12.1159   45.0208 H   0  0  0  0  0  0  0  0  0  0  0  0
    2.8743   16.1811   45.0497 H   0  0  0  0  0  0  0  0  0  0  0  0
    1.1172   20.8930   44.5448 H   0  0  0  0  0  0  0  0  0  0  0  0
   -0.3129   19.9844   45.1414 H   0  0  0  0  0  0  0  0  0  0  0  0
    1.3078   19.2097   45.1422 H   0  0  0  0  0  0  0  0  0  0  0  0
   -0.7758   19.5243   40.3520 H   0  0  0  0  0  0  0  0  0  0  0  0
   -0.2905   17.5881   39.0726 H   0  0  0  0  0  0  0  0  0  0  0  0
    0.4474   15.9650   39.0105 H   0  0  0  0  0  0  0  0  0  0  0  0
  1  2  2  0
  1  6  1  0
  2  3  1  0
  3  4  2  0
  4  5  1  0
  5  6  2  0
  6  7  1  0
  7  8  2  0
  7  9  1  0
  8 16  1  0
  9 10  2  0
 10 11  1  0
 10 15  1  0
 11 12  1  0
 11 13  1  0
 13 14  2  0
 14 15  1  0
 15 16  2  0
 16 17  1  0
  1 18  1  0
  2 19  1  0
  3 20  1  0
  5 21  1  0
 12 22  1  0
 12 23  1  0
 12 24  1  0
 14 25  1  0
 17 26  1  0
 17 27  1  0
M  END
>  <mol_id>  (51) 
2026-09-18-6fnk-s0-n100-r9-0051

>  <rmsd_to_ref>  (51) 
2.7500000000019504

>  <pose_kind>  (51) 
rigid

$$$$
6fnk.A
     RDKit          3D

 27 29  0  0  0  0  0  0  0  0999 V2000
    3.6350   16.2746   44.6474 C   0  0  0  0  0  0  0  0  0  0  0  0
    3.9637   15.1510   45.3994 C   0  0  0  0  0  0  0  0  0  0  0  0
    2.9820   14.4283   46.0600 C   0  0  0  0  0  0  0  0  0  0  0  0
    1.7045   14.8394   45.9565 N   0  0  0  0  0  0  0  0  0  0  0  0
    1.3324   15.9091   45.2493 C   0  0  0  0  0  0  0  0  0  0  0  0
    2.2916   16.6447   44.5829 C   0  0  0  0  0  0  0  0  0  0  0  0
    1.9270   17.8218   43.7982 C   0  0  0  0  0  0  0  0  0  0  0  0
    2.8238   18.5672   43.1341 N   0  0  0  0  0  0  0  0  0  0  0  0
    0.6289   18.1834   43.7330 N   0  0  0  0  0  0  0  0  0  0  0  0
    0.1894   19.2427   43.0434 C   0  0  0  0  0  0  0  0  0  0  0  0
   -1.0301   19.7987   42.8279 N   0  0  0  0  0  0  0  0  0  0  0  0
   -2.2488   19.2562   43.3951 C   0  0  0  0  0  0  0  0  0  0  0  0
   -0.8729   20.8646   42.0451 N   0  0  0  0  0  0  0  0  0  0  0  0
    0.4432   21.0182   41.7405 C   0  0  0  0  0  0  0  0  0  0  0  0
    1.1436   19.9898   42.3695 C   0  0  0  0  0  0  0  0  0  0  0  0
    2.4831   19.6517   42.4118 C   0  0  0  0  0  0  0  0  0  0  0  0
    3.4572   20.4242   41.7170 N   0  0  0  0  0  0  0  0  0  0  0  0
    4.4106   16.8294   44.1371 H   0  0  0  0  0  0  0  0  0  0  0  0
    5.0056   14.8336   45.4711 H   0  0  0  0  0  0  0  0  0  0  0  0
    3.3029   13.5772   46.6188 H   0  0  0  0  0  0  0  0  0  0  0  0
    0.2678   16.1817   45.2129 H   0  0  0  0  0  0  0  0  0  0  0  0
   -3.0893   19.5913   42.7537 H   0  0  0  0  0  0  0  0  0  0  0  0
   -2.2429   18.1521   43.4353 H   0  0  0  0  0  0  0  0  0  0  0  0
   -2.3078   19.6502   44.4304 H   0  0  0  0  0  0  0  0  0  0  0  0
    0.8891   21.7957   41.1204 H   0  0  0  0  0  0  0  0  0  0  0  0
    4.1084   21.0605   42.2281 H   0  0  0  0  0  0  0  0  0  0  0  0
    3.4686   20.3060   40.6722 H   0  0  0  0  0  0  0  0  0  0  0  0
  1  2  2  0
  1  6  1  0
  2  3  1  0
  3  4  2  0
  4  5  1  0
  5  6  2  0
  6  7  1  0
  7  8  2  0
  7  9  1  0
  8 16  1  0
  9 10  2  0
 10 11  1  0
 10 15  1  0
 11 12  1  0
 11 13  1  0
 13 14  2  0
 14 15  1  0
 15 16  2  0
 16 17  1  0
  1 18  1  0
  2 19  1  0
  3 20  1  0
  5 21  1  0
 12 22  1  0
 12 23  1  0
 12 24  1  0
 14 25  1  0
 17 26  1  0
 17 27  1  0
M  END
>  <mol_id>  (52) 
2026-09-18-6fnk-s0-n100-r9-0052

>  <rmsd_to_ref>  (52) 
2.7959183673531727

>  <pose_kind>  (52) 
conformer

$$$$
6fnk.A
     RDKit          3D

 27 29  0  0  0  0  0  0  0  0999 V2000
    1.6534   17.8545   40.3089 C   0  0  0  0  0  0  0  0  0  0  0  0
    2.1223   17.1396   39.2066 C   0  0  0  0  0  0  0  0  0  0  0  0
    3.3924   16.5823   39.2316 C   0  0  0  0  0  0  0  0  0  0  0  0
    4.1993   16.7346   40.3626 N   0  0  0  0  0  0  0  0  0  0  0  0
    3.7255   17.4555   41.4692 C   0  0  0  0  0  0  0  0  0  0  0  0
    2.4505   18.0174   41.4446 C   0  0  0  0  0  0  0  0  0  0  0  0
    1.9819   18.7375   42.5483 C   0  0  0  0  0  0  0  0  0  0  0  0
    0.8377   19.4323   42.4842 N   0  0  0  0  0  0  0  0  0  0  0  0
    2.6772   18.7320   43.6900 N   0  0  0  0  0  0  0  0  0  0  0  0
    2.2631   19.4191   44.7695 C   0  0  0  0  0  0  0  0  0  0  0  0
    2.7897   19.5740   45.9939 N   0  0  0  0  0  0  0  0  0  0  0  0
    4.0374   18.9747   46.4767 C   0  0  0  0  0  0  0  0  0  0  0  0
    2.0703   20.2954   46.6861 N   0  0  0  0  0  0  0  0  0  0  0  0
    1.0012   20.6278   45.9441 C   0  0  0  0  0  0  0  0  0  0  0  0
    1.1231   20.1009   44.7184 C   0  0  0  0  0  0  0  0  0  0  0  0
    0.4015   20.1070   43.5640 C   0  0  0  0  0  0  0  0  0  0  0  0
   -0.7632   20.7941   43.4755 N   0  0  0  0  0  0  0  0  0  0  0  0
    0.6456   18.2945   40.2837 H   0  0  0  0  0  0  0  0  0  0  0  0
    1.4853   17.0179   38.3182 H   0  0  0  0  0  0  0  0  0  0  0  0
    3.7643   16.0209   38.3618 H   0  0  0  0  0  0  0  0  0  0  0  0
    4.3619   17.5774   42.3581 H   0  0  0  0  0  0  0  0  0  0  0  0
    4.6784   19.7586   46.9064 H   0  0  0  0  0  0  0  0  0  0  0  0
    3.8092   18.2241   47.2477 H   0  0  0  0  0  0  0  0  0  0  0  0
    4.5607   18.4918   45.6383 H   0  0  0  0  0  0  0  0  0  0  0  0
    0.1548   21.2394   46.2900 H   0  0  0  0  0  0  0  0  0  0  0  0
   -1.1157   21.3173   44.2897 H   0  0  0  0  0  0  0  0  0  0  0  0
   -1.2960   20.7931   42.5940 H   0  0  0  0  0  0  0  0  0  0  0  0
  1  2  2  0
  1  6  1  0
  2  3  1  0
  3  4  2  0
  4  5  1  0
  5  6  2  0
  6  7  1  0
  7  8  2  0
  7  9  1  0
  8 16  1  0
  9 10  2  0
 10 11  1  0
 10 15  1  0
 11 12  1  0
 11 13  1  0
 13 14  2  0
 14 15  1  0
 15 16  2  0
 16 17  1  0
  1 18  1  0
  2 19  1  0
  3 20  1  0
  5 21  1  0
 12 22  1  0
 12 23  1  0
 12 24  1  0
 14 25  1  0
 17 26  1  0
 17 27  1  0
M  END
>  <mol_id>  (53) 
2026-09-18-6fnk-s0-n100-r9-0053

>  <rmsd_to_ref>  (53) 
2.841836734697028

>  <pose_kind>  (53) 
rigid

$$$$
6fnk.A
     RDKit          3D

 27 29  0  0  0  0  0  0  0  0999 V2000
    2.5454   15.6635   40.9546 C   0  0  0  0  0  0  0  0  0  0  0  0
    3.3381   15.2945   39.8750 C   0  0  0  0  0  0  0  0  0  0  0  0
    4.5873   15.8970   39.7326 C   0  0  0  0  0  0  0  0  0  0  0  0
    4.9811   16.8150   40.6464 N   0  0  0  0  0  0  0  0  0  0  0  0
    4.2233   17.1812   41.6961 C   0  0  0  0  0  0  0  0  0  0  0  0
    3.0007   16.6042   41.8522 C   0  0  0  0  0  0  0  0  0  0  0  0
    2.1465   16.9781   42.9845 C   0  0  0  0  0  0  0  0  0  0  0  0
    2.5602   17.8926   43.8788 N   0  0  0  0  0  0  0  0  0  0  0  0
    0.9368   16.4158   43.1503 N   0  0  0  0  0  0  0  0  0  0  0  0
    0.1058   16.7135   44.1648 C   0  0  0  0  0  0  0  0  0  0  0  0
   -1.1192   16.3081   44.5487 N   0  0  0  0  0  0  0  0  0  0  0  0
   -1.9219   15.3234   43.8533 C   0  0  0  0  0  0  0  0  0  0  0  0
   -1.4434   16.9622   45.6527 N   0  0  0  0  0  0  0  0  0  0  0  0
   -0.4515   17.7990   46.0116 C   0  0  0  0  0  0  0  0  0  0  0  0
    0.5570   17.6590   45.0718 C   0  0  0  0  0  0  0  0  0  0  0  0
    1.8025   18.2559   44.9247 C   0  0  0  0  0  0  0  0  0  0  0  0
    2.1980   19.2120   45.8874 N   0  0  0  0  0  0  0  0  0  0  0  0
    1.5707   15.2255   41.1080 H   0  0  0  0  0  0  0  0  0  0  0  0
    3.0003   14.5563   39.1559 H   0  0  0  0  0  0  0  0  0  0  0  0
    5.2196   15.6280   38.9048 H   0  0  0  0  0  0  0  0  0  0  0  0
    4.6199   17.9274   42.3817 H   0  0  0  0  0  0  0  0  0  0  0  0
   -1.4187   14.3366   43.8260 H   0  0  0  0  0  0  0  0  0  0  0  0
   -2.1830   15.6064   42.8170 H   0  0  0  0  0  0  0  0  0  0  0  0
   -2.8725   15.1548   44.3989 H   0  0  0  0  0  0  0  0  0  0  0  0
   -0.4487   18.4496   46.8661 H   0  0  0  0  0  0  0  0  0  0  0  0
    2.0716   19.0826   46.9268 H   0  0  0  0  0  0  0  0  0  0  0  0
    2.6429   20.1078   45.5963 H   0  0  0  0  0  0  0  0  0  0  0  0
  1  2  2  0
  1  6  1  0
  2  3  1  0
  3  4  2  0
  4  5  1  0
  5  6  2  0
  6  7  1  0
  7  8  2  0
  7  9  1  0
  8 16  1  0
  9 10  2  0
 10 11  1  0
 10 15  1  0
 11 12  1  0
 11 13  1  0
 13 14  2  0
 14 15  1  0
 15 16  2  0
 16 17  1  0
  1 18  1  0
  2 19  1  0
  3 20  1  0
  5 21  1  0
 12 22  1  0
 12 23  1  0
 12 24  1  0
 14 25  1  0
 17 26  1  0
 17 27  1  0
M  END
>  <mol_id>  (54) 
2026-09-18-6fnk-s0-n100-r9-0054

>  <rmsd_to_ref>  (54) 
2.887755102042675

>  <pose_kind>  (54) 
conformer

$$$$
6fnk.A
     RDKit          3D

 27 29  0  0  0  0  0  0  0  0999 V2000
    4.6440   18.0891   40.3570 C   0  0  0  0  0  0  0  0  0  0  0  0
    5.3474   17.5611   39.2743 C   0  0  0  0  0  0  0  0  0  0  0  0
    4.6610   16.9645   38.2268 C   0  0  0  0  0  0  0  0  0  0  0  0
    3.2653   16.8966   38.2557 N   0  0  0  0  0  0  0  0  0  0  0  0
    2.5606   17.4272   39.3469 C   0  0  0  0  0  0  0  0  0  0  0  0
    3.2492   18.0250   40.4007 C   0  0  0  0  0  0  0  0  0  0  0  0
    2.5441   18.5509   41.4881 C   0  0  0  0  0  0  0  0  0  0  0  0
    3.1841   18.9704   42.5883 N   0  0  0  0  0  0  0  0  0  0  0  0
    1.2117   18.6458   41.4339 N   0  0  0  0  0  0  0  0  0  0  0  0
    0.4988   19.1378   42.4627 C   0  0  0  0  0  0  0  0  0  0  0  0
   -0.8195   19.3122   42.6420 N   0  0  0  0  0  0  0  0  0  0  0  0
   -1.8708   18.9846   41.6743 C   0  0  0  0  0  0  0  0  0  0  0  0
   -1.0443   19.8044   43.7485 N   0  0  0  0  0  0  0  0  0  0  0  0
    0.1413   20.0096   44.3457 C   0  0  0  0  0  0  0  0  0  0  0  0
    1.1266   19.5675   43.5529 C   0  0  0  0  0  0  0  0  0  0  0  0
    2.4840   19.4843   43.6165 C   0  0  0  0  0  0  0  0  0  0  0  0
    3.1561   19.9096   44.7137 N   0  0  0  0  0  0  0  0  0  0  0  0
    5.1933   18.5608   41.1851 H   0  0  0  0  0  0  0  0  0  0  0  0
    6.4457   17.6178   39.2512 H   0  0  0  0  0  0  0  0  0  0  0  0
    5.2148   16.5451   37.3739 H   0  0  0  0  0  0  0  0  0  0  0  0
    1.4623   17.3711   39.3705 H   0  0  0  0  0  0  0  0  0  0  0  0
   -2.6346   18.3597   42.1603 H   0  0  0  0  0  0  0  0  0  0  0  0
   -2.3346   19.9126   41.3086 H   0  0  0  0  0  0  0  0  0  0  0  0
   -1.4321   18.4357   40.8280 H   0  0  0  0  0  0  0  0  0  0  0  0
    0.2817   20.4703   45.3346 H   0  0  0  0  0  0  0  0  0  0  0  0
    2.6402   20.3063   45.5120 H   0  0  0  0  0  0  0  0  0  0  0  0
    4.1829   19.8362   44.7492 H   0  0  0  0  0  0  0  0  0  0  0  0
  1  2  2  0
  1  6  1  0
  2  3  1  0
  3  4  2  0
  4  5  1  0
  5  6  2  0
  6  7  1  0
  7  8  2  0
  7  9  1  0
  8 16  1  0
  9 10  2  0
 10 11  1  0
 10 15  1  0
 11 12  1  0
 11 13  1  0
 13 14  2  0
 14 15  1  0
 15 16  2  0
 16 17  1  0
  1 18  1  0
  2 19  1  0
  3 20  1  0
  5 21  1  0
 12 22  1  0
 12 23  1  0
 12 24  1  0
 14 25  1  0
 17 26  1  0
 17 27  1  0
M  END
>  <mol_id>  (55) 
2026-09-18-6fnk-s0-n100-r9-0055

>  <rmsd_to_ref>  (55) 
2.9336734693909374

>  <pose_kind>  (55) 
rigid

$$$$
6fnk.A
     RDKit          3D

 27 29  0  0  0  0  0  0  0  0999 V2000
    0.4300   15.1690   40.4062 C   0  0  0  0  0  0  0  0  0  0  0  0
   -0.3538   14.3811   39.5758 C   0  0  0  0  0  0  0  0  0  0  0  0
   -1.6729   14.1374   39.9395 C   0  0  0  0  0  0  0  0  0  0  0  0
   -2.1905   14.6558   41.0813 N   0  0  0  0  0  0  0  0  0  0  0  0
   -1.4205   15.4260   41.8907 C   0  0  0  0  0  0  0  0  0  0  0  0
   -0.1042   15.6961   41.5717 C   0  0  0  0  0  0  0  0  0  0  0  0
    0.7277   16.5253   42.4414 C   0  0  0  0  0  0  0  0  0  0  0  0
    2.0288   16.8002   42.1390 N   0  0  0  0  0  0  0  0  0  0  0  0
    0.1906   17.0278   43.5686 N   0  0  0  0  0  0  0  0  0  0  0  0
    0.8764   17.7975   44.4257 C   0  0  0  0  0  0  0  0  0  0  0  0
    0.5899   18.4115   45.5899 N   0  0  0  0  0  0  0  0  0  0  0  0
   -0.6950   18.3482   46.2273 C   0  0  0  0  0  0  0  0  0  0  0  0
    1.6663   19.0670   46.0362 N   0  0  0  0  0  0  0  0  0  0  0  0
    2.6664   18.8647   45.1306 C   0  0  0  0  0  0  0  0  0  0  0  0
    2.1902   18.0753   44.1208 C   0  0  0  0  0  0  0  0  0  0  0  0
    2.7777   17.5735   42.9657 C   0  0  0  0  0  0  0  0  0  0  0  0
    4.1352   17.8597   42.6492 N   0  0  0  0  0  0  0  0  0  0  0  0
    1.4760   15.3781   40.1436 H   0  0  0  0  0  0  0  0  0  0  0  0
    0.0469   13.9526   38.6478 H   0  0  0  0  0  0  0  0  0  0  0  0
   -2.2414   13.5226   39.2667 H   0  0  0  0  0  0  0  0  0  0  0  0
   -1.8708   15.8243   42.7982 H   0  0  0  0  0  0  0  0  0  0  0  0
   -0.9845   17.2896   46.2787 H   0  0  0  0  0  0  0  0  0  0  0  0
   -1.4772   18.8548   45.5936 H   0  0  0  0  0  0  0  0  0  0  0  0
   -0.6823   18.7527   47.2438 H   0  0  0  0  0  0  0  0  0  0  0  0
    3.6723   19.2862   45.2369 H   0  0  0  0  0  0  0  0  0  0  0  0
    4.8638   17.4061   43.2385 H   0  0  0  0  0  0  0  0  0  0  0  0
    4.3787   18.5086   41.8454 H   0  0  0  0  0  0  0  0  0  0  0  0
  1  2  2  0
  1  6  1  0
  2  3  1  0
  3  4  2  0
  4  5  1  0
  5  6  2  0
  6  7  1  0
  7  8  2  0
  7  9  1  0
  8 16  1  0
  9 10  2  0
 10 11  1  0
 10 15  1  0
 11 12  1  0
 11 13  1  0
 13 14  2  0
 14 15  1  0
 15 16  2  0
 16 17  1  0
  1 18  1  0
  2 19  1  0
  3 20  1  0
  5 21  1  0
 12 22  1  0
 12 23  1  0
 12 24  1  0
 14 25  1  0
 17 26  1  0
 17 27  1  0
M  END
>  <mol_id>  (56) 
2026-09-18-6fnk-s0-n100-r9-0056

>  <rmsd_to_ref>  (56) 
2.9795918367388485

>  <pose_kind>  (56) 
conformer

$$$$
6fnk.A
     RDKit          3D

 27 29  0  0  0  0  0  0  0  0999 V2000
    2.3747   15.8337   44.4349 C   0  0  0  0  0  0  0  0  0  0  0  0
    2.3627   14.4931   44.0494 C   0  0  0  0  0  0  0  0  0  0  0  0
    1.3761   14.0274   43.1926 C   0  0  0  0  0  0  0  0  0  0  0  0
    0.3975   14.9027   42.7137 N   0  0  0  0  0  0  0  0  0  0  0  0
    0.4112   16.2503   43.1044 C   0  0  0  0  0  0  0  0  0  0  0  0
    1.4008   16.7189   43.9666 C   0  0  0  0  0  0  0  0  0  0  0  0
    1.4105   18.0622   44.3561 C   0  0  0  0  0  0  0  0  0  0  0  0
    2.2393   18.4970   45.3152 N   0  0  0  0  0  0  0  0  0  0  0  0
    0.5878   18.9329   43.7627 N   0  0  0  0  0  0  0  0  0  0  0  0
    0.5622   20.2303   44.1161 C   0  0  0  0  0  0  0  0  0  0  0  0
   -0.1728   21.2662   43.6839 N   0  0  0  0  0  0  0  0  0  0  0  0
   -1.1969   21.2177   42.6362 C   0  0  0  0  0  0  0  0  0  0  0  0
    0.1338   22.2956   44.2868 N   0  0  0  0  0  0  0  0  0  0  0  0
    1.1260   21.9835   45.1367 C   0  0  0  0  0  0  0  0  0  0  0  0
    1.3897   20.6723   45.0579 C   0  0  0  0  0  0  0  0  0  0  0  0
    2.2386   19.7971   45.6635 C   0  0  0  0  0  0  0  0  0  0  0  0
    3.0930   20.2126   46.6298 N   0  0  0  0  0  0  0  0  0  0  0  0
    3.1592   16.1976   45.1147 H   0  0  0  0  0  0  0  0  0  0  0  0
    3.1352   13.8057   44.4247 H   0  0  0  0  0  0  0  0  0  0  0  0
    1.3640   12.9698   42.8904 H   0  0  0  0  0  0  0  0  0  0  0  0
   -0.3608   16.9384   42.7293 H   0  0  0  0  0  0  0  0  0  0  0  0
   -2.1286   21.6648   43.0131 H   0  0  0  0  0  0  0  0  0  0  0  0
   -0.8494   21.7807   41.7574 H   0  0  0  0  0  0  0  0  0  0  0  0
   -1.3812   20.1712   42.3518 H   0  0  0  0  0  0  0  0  0  0  0  0
    1.6430   22.6957   45.7966 H   0  0  0  0  0  0  0  0  0  0  0  0
    3.1091   21.2030   46.9119 H   0  0  0  0  0  0  0  0  0  0  0  0
    3.7262   19.5378   47.0822 H   0  0  0  0  0  0  0  0  0  0  0  0
  1  2  2  0
  1  6  1  0
  2  3  1  0
  3  4  2  0
  4  5  1  0
  5  6  2  0
  6  7  1  0
  7  8  2  0
  7  9  1  0
  8 16  1  0
  9 10  2  0
 10 11  1  0
 10 15  1  0
 11 12  1  0
 11 13  1  0
 13 14  2  0
 14 15  1  0
 15 16  2  0
 16 17  1  0
  1 18  1  0
  2 19  1  0
  3 20  1  0
  5 21  1  0
 12 22  1  0
 12 23  1  0
 12 24  1  0
 14 25  1  0
 17 26  1  0
 17 27  1  0
M  END
>  <mol_id>  (57) 
2026-09-18-6fnk-s0-n100-r9-0057

>  <rmsd_to_ref>  (57) 
3.0255102040837505

>  <pose_kind>  (57) 
rigid

$$$$
6fnk.A
     RDKit          3D

 27 29  0  0  0  0  0  0  0  0999 V2000
    1.1420   15.9948   43.5055 C   0  0  0  0  0  0  0  0  0  0  0  0
    1.0100   14.7162   44.0528 C   0  0  0  0  0  0  0  0  0  0  0  0
    2.0243   13.7764   43.9291 C   0  0  0  0  0  0  0  0  0  0  0  0
    3.1248   14.1321   43.2734 N   0  0  0  0  0  0  0  0  0  0  0  0
    3.3207   15.3429   42.7216 C   0  0  0  0  0  0  0  0  0  0  0  0
    2.3215   16.2677   42.8438 C   0  0  0  0  0  0  0  0  0  0  0  0
    2.5139   17.5983   42.2482 C   0  0  0  0  0  0  0  0  0  0  0  0
    3.6599   17.8785   41.5996 N   0  0  0  0  0  0  0  0  0  0  0  0
    1.5393   18.5383   42.3530 N   0  0  0  0  0  0  0  0  0  0  0  0
    1.7163   19.7720   41.8015 C   0  0  0  0  0  0  0  0  0  0  0  0
    0.9683   20.8890   41.7319 N   0  0  0  0  0  0  0  0  0  0  0  0
   -0.3697   21.0538   42.3026 C   0  0  0  0  0  0  0  0  0  0  0  0
    1.6084   21.8398   41.0685 N   0  0  0  0  0  0  0  0  0  0  0  0
    2.8185   21.3928   40.6653 C   0  0  0  0  0  0  0  0  0  0  0  0
    2.8971   20.0873   41.1231 C   0  0  0  0  0  0  0  0  0  0  0  0
    3.8683   19.0962   41.0393 C   0  0  0  0  0  0  0  0  0  0  0  0
    5.0950   19.3642   40.3572 N   0  0  0  0  0  0  0  0  0  0  0  0
    0.3390   16.7330   43.6056 H   0  0  0  0  0  0  0  0  0  0  0  0
    0.1141   14.4235   44.5878 H   0  0  0  0  0  0  0  0  0  0  0  0
    1.8937   12.7887   44.3655 H   0  0  0  0  0  0  0  0  0  0  0  0
    4.2657   15.5286   42.2040 H   0  0  0  0  0  0  0  0  0  0  0  0
   -0.3769   20.4523   43.2372 H   0  0  0  0  0  0  0  0  0  0  0  0
   -1.0990   20.6939   41.5500 H   0  0  0  0  0  0  0  0  0  0  0  0
   -0.5447   22.1003   42.5857 H   0  0  0  0  0  0  0  0  0  0  0  0
    3.5777   21.9283   40.1030 H   0  0  0  0  0  0  0  0  0  0  0  0
    5.8964   18.7007   40.4754 H   0  0  0  0  0  0  0  0  0  0  0  0
    5.1636   20.2162   39.7564 H   0  0  0  0  0  0  0  0  0  0  0  0
  1  2  2  0
  1  6  1  0
  2  3  1  0
  3  4  2  0
  4  5  1  0
  5  6  2  0
  6  7  1  0
  7  8  2  0
  7  9  1  0
  8 16  1  0
  9 10  2  0
 10 11  1  0
 10 15  1  0
 11 12  1  0
 11 13  1  0
 13 14  2  0
 14 15  1  0
 15 16  2  0
 16 17  1  0
  1 18  1  0
  2 19  1  0
  3 20  1  0
  5 21  1  0
 12 22  1  0
 12 23  1  0
 12 24  1  0
 14 25  1  0
 17 26  1  0
 17 27  1  0
M  END
>  <mol_id>  (58) 
2026-09-18-6fnk-s0-n100-r9-0058

>  <rmsd_to_ref>  (58) 
3.071428571431594

>  <pose_kind>  (58) 
conformer

$$$$
6fnk.A
     RDKit          3D

 27 29  0  0  0  0  0  0  0  0999 V2000
    2.6616   15.7158   44.5809 C   0  0  0  0  0  0  0  0  0  0  0  0
    2.9633   14.7334   45.5242 C   0  0  0  0  0  0  0  0  0  0  0  0
    2.0629   14.4489   46.5405 C   0  0  0  0  0  0  0  0  0  0  0  0
    0.8529   15.1443   46.6158 N   0  0  0  0  0  0  0  0  0  0  0  0
    0.5529   16.1330   45.6664 C   0  0  0  0  0  0  0  0  0  0  0  0
    1.4575   16.4210   44.6461 C   0  0  0  0  0  0  0  0  0  0  0  0
    1.1566   17.4087   43.7027 C   0  0  0  0  0  0  0  0  0  0  0  0
    2.0768   17.8255   42.8221 N   0  0  0  0  0  0  0  0  0  0  0  0
   -0.0673   17.9452   43.6685 N   0  0  0  0  0  0  0  0  0  0  0  0
   -0.3913   18.9031   42.7817 C   0  0  0  0  0  0  0  0  0  0  0  0
   -1.5257   19.5881   42.5716 N   0  0  0  0  0  0  0  0  0  0  0  0
   -2.7772   19.4314   43.3188 C   0  0  0  0  0  0  0  0  0  0  0  0
   -1.3857   20.3818   41.6401 N   0  0  0  0  0  0  0  0  0  0  0  0
   -0.1384   20.2289   41.1657 C   0  0  0  0  0  0  0  0  0  0  0  0
    0.5117   19.3135   41.8967 C   0  0  0  0  0  0  0  0  0  0  0  0
    1.7590   18.7684   41.9157 C   0  0  0  0  0  0  0  0  0  0  0  0
    2.7052   19.1656   41.0306 N   0  0  0  0  0  0  0  0  0  0  0  0
    3.3793   15.9374   43.7774 H   0  0  0  0  0  0  0  0  0  0  0  0
    3.9146   14.1846   45.4623 H   0  0  0  0  0  0  0  0  0  0  0  0
    2.3011   13.6765   47.2866 H   0  0  0  0  0  0  0  0  0  0  0  0
   -0.3984   16.6820   45.7276 H   0  0  0  0  0  0  0  0  0  0  0  0
   -3.1174   20.4151   43.6745 H   0  0  0  0  0  0  0  0  0  0  0  0
   -3.5438   18.9936   42.6625 H   0  0  0  0  0  0  0  0  0  0  0  0
   -2.6094   18.7680   44.1800 H   0  0  0  0  0  0  0  0  0  0  0  0
    0.2847   20.7722   40.3079 H   0  0  0  0  0  0  0  0  0  0  0  0
    2.4836   19.8858   40.3284 H   0  0  0  0  0  0  0  0  0  0  0  0
    3.6460   18.7473   41.0600 H   0  0  0  0  0  0  0  0  0  0  0  0
  1  2  2  0
  1  6  1  0
  2  3  1  0
  3  4  2  0
  4  5  1  0
  5  6  2  0
  6  7  1  0
  7  8  2  0
  7  9  1  0
  8 16  1  0
  9 10  2  0
 10 11  1  0
 10 15  1  0
 11 12  1  0
 11 13  1  0
 13 14  2  0
 14 15  1  0
 15 16  2  0
 16 17  1  0
  1 18  1  0
  2 19  1  0
  3 20  1  0
  5 21  1  0
 12 22  1  0
 12 23  1  0
 12 24  1  0
 14 25  1  0
 17 26  1  0
 17 27  1  0
M  END
>  <mol_id>  (59) 
2026-09-18-6fnk-s0-n100-r9-0059

>  <rmsd_to_ref>  (59) 
3.1173469387767128

>  <pose_kind>  (59) 
rigid

$$$$
6fnk.A
     RDKit          3D

 27 29  0  0  0  0  0  0  0  0999 V2000
    0.3085   15.9853   40.1110 C   0  0  0  0  0  0  0  0  0  0  0  0
   -0.5771   14.9272   40.0698 C   0  0  0  0  0  0  0  0  0  0  0  0
   -1.1778   14.4584   41.2211 C   0  0  0  0  0  0  0  0  0  0  0  0
   -0.8890   15.0514   42.4095 N   0  0  0  0  0  0  0  0  0  0  0  0
   -0.0312   16.0851   42.4916 C   0  0  0  0  0  0  0  0  0  0  0  0
    0.5903   16.5793   41.3434 C   0  0  0  0  0  0  0  0  0  0  0  0
    1.5298   17.7062   41.4088 C   0  0  0  0  0  0  0  0  0  0  0  0
    2.1085   18.1509   40.2665 N   0  0  0  0  0  0  0  0  0  0  0  0
    1.7743   18.2493   42.6103 N   0  0  0  0  0  0  0  0  0  0  0  0
    2.6291   19.2832   42.7103 C   0  0  0  0  0  0  0  0  0  0  0  0
    3.0584   20.0147   43.7673 N   0  0  0  0  0  0  0  0  0  0  0  0
    2.6511   19.8276   45.1678 C   0  0  0  0  0  0  0  0  0  0  0  0
    3.9025   20.9241   43.3378 N   0  0  0  0  0  0  0  0  0  0  0  0
    4.0535   20.8227   42.0086 C   0  0  0  0  0  0  0  0  0  0  0  0
    3.2524   19.7832   41.5800 C   0  0  0  0  0  0  0  0  0  0  0  0
    2.9627   19.1850   40.3711 C   0  0  0  0  0  0  0  0  0  0  0  0
    3.5904   19.6814   39.1986 N   0  0  0  0  0  0  0  0  0  0  0  0
    0.7747   16.3466   39.2057 H   0  0  0  0  0  0  0  0  0  0  0  0
   -0.7718   14.4937   39.1086 H   0  0  0  0  0  0  0  0  0  0  0  0
   -1.8761   13.6215   41.1766 H   0  0  0  0  0  0  0  0  0  0  0  0
    0.1854   16.5470   43.4644 H   0  0  0  0  0  0  0  0  0  0  0  0
    3.2765   19.0029   45.6160 H   0  0  0  0  0  0  0  0  0  0  0  0
    1.5758   19.5213   45.1276 H   0  0  0  0  0  0  0  0  0  0  0  0
    2.7121   20.7611   45.7388 H   0  0  0  0  0  0  0  0  0  0  0  0
    4.6626   21.4000   41.3250 H   0  0  0  0  0  0  0  0  0  0  0  0
    4.3531   20.3906   39.2461 H   0  0  0  0  0  0  0  0  0  0  0  0
    3.2999   19.3440   38.2489 H   0  0  0  0  0  0  0  0  0  0  0  0
  1  2  2  0
  1  6  1  0
  2  3  1  0
  3  4  2  0
  4  5  1  0
  5  6  2  0
  6  7  1  0
  7  8  2  0
  7  9  1  0
  8 16  1  0
  9 10  2  0
 10 11  1  0
 10 15  1  0
 11 12  1  0
 11 13  1  0
 13 14  2  0
 14 15  1  0
 15 16  2  0
 16 17  1  0
  1 18  1  0
  2 19  1  0
  3 20  1  0
  5 21  1  0
 12 22  1  0
 12 23  1  0
 12 24  1  0
 14 25  1  0
 17 26  1  0
 17 27  1  0
M  END
>  <mol_id>  (60) 
2026-09-18-6fnk-s0-n100-r9-0060

>  <rmsd_to_ref>  (60) 
3.1632653061267484

>  <pose_kind>  (60) 
conformer

$$$$
6fnk.A
     RDKit          3D

 27 29  0  0  0  0  0  0  0  0999 V2000
    2.3650   19.0854   39.0561 C   0  0  0  0  0  0  0  0  0  0  0  0
    2.3726   18.8866   37.6754 C   0  0  0  0  0  0  0  0  0  0  0  0
    1.4930   17.9805   37.1012 C   0  0  0  0  0  0  0  0  0  0  0  0
    0.5977   17.2708   37.9063 N   0  0  0  0  0  0  0  0  0  0  0  0
    0.5935   17.4718   39.2950 C   0  0  0  0  0  0  0  0  0  0  0  0
    1.4780   18.3804   39.8732 C   0  0  0  0  0  0  0  0  0  0  0  0
    1.4731   18.5769   41.2579 C   0  0  0  0  0  0  0  0  0  0  0  0
    2.4244   19.3079   41.8550 N   0  0  0  0  0  0  0  0  0  0  0  0
    0.5041   18.0357   42.0032 N   0  0  0  0  0  0  0  0  0  0  0  0
    0.4707   18.1953   43.3382 C   0  0  0  0  0  0  0  0  0  0  0  0
   -0.3746   17.7441   44.2774 N   0  0  0  0  0  0  0  0  0  0  0  0
   -1.5568   16.9097   44.0426 C   0  0  0  0  0  0  0  0  0  0  0  0
   -0.0307   18.1361   45.3933 N   0  0  0  0  0  0  0  0  0  0  0  0
    1.0592   18.9042   45.2314 C   0  0  0  0  0  0  0  0  0  0  0  0
    1.4036   18.9292   43.9369 C   0  0  0  0  0  0  0  0  0  0  0  0
    2.3906   19.4928   43.1877 C   0  0  0  0  0  0  0  0  0  0  0  0
    3.3594   20.2439   43.7654 N   0  0  0  0  0  0  0  0  0  0  0  0
    3.0648   19.8049   39.5062 H   0  0  0  0  0  0  0  0  0  0  0  0
    3.0756   19.4479   37.0424 H   0  0  0  0  0  0  0  0  0  0  0  0
    1.5002   17.8207   36.0129 H   0  0  0  0  0  0  0  0  0  0  0  0
   -0.1094   16.9110   39.9285 H   0  0  0  0  0  0  0  0  0  0  0  0
   -1.5207   16.0291   44.7009 H   0  0  0  0  0  0  0  0  0  0  0  0
   -2.4650   17.4916   44.2582 H   0  0  0  0  0  0  0  0  0  0  0  0
   -1.5718   16.5821   42.9926 H   0  0  0  0  0  0  0  0  0  0  0  0
    1.5883   19.4322   46.0385 H   0  0  0  0  0  0  0  0  0  0  0  0
    3.3528   20.3983   44.7838 H   0  0  0  0  0  0  0  0  0  0  0  0
    4.1024   20.6603   43.1862 H   0  0  0  0  0  0  0  0  0  0  0  0
  1  2  2  0
  1  6  1  0
  2  3  1  0
  3  4  2  0
  4  5  1  0
  5  6  2  0
  6  7  1  0
  7  8  2  0
  7  9  1  0
  8 16  1  0
  9 10  2  0
 10 11  1  0
 10 15  1  0
 11 12  1  0
 11 13  1  0
 13 14  2  0
 14 15  1  0
 15 16  2  0
 16 17  1  0
  1 18  1  0
  2 19  1  0
  3 20  1  0
  5 21  1  0
 12 22  1  0
 12 23  1  0
 12 24  1  0
 14 25  1  0
 17 26  1  0
 17 27  1  0
M  END
>  <mol_id>  (61) 
2026-09-18-6fnk-s0-n100-r9-0061

>  <rmsd_to_ref>  (61) 
3.2091836734730195

>  <pose_kind>  (61) 
rigid

$$$$
6fnk.A
     RDKit          3D

 27 29  0  0  0  0  0  0  0  0999 V2000
    0.8685   17.1574   44.7431 C   0  0  0  0  0  0  0  0  0  0  0  0
    0.7264   16.0489   45.5282 C   0  0  0  0  0  0  0  0  0  0  0  0
    1.0197   14.8216   44.9410 C   0  0  0  0  0  0  0  0  0  0  0  0
    1.4198   14.7914   43.6567 N   0  0  0  0  0  0  0  0  0  0  0  0
    1.5604   15.8821   42.8820 C   0  0  0  0  0  0  0  0  0  0  0  0
    1.2793   17.1183   43.4272 C   0  0  0  0  0  0  0  0  0  0  0  0
    1.4125   18.3384   42.6384 C   0  0  0  0  0  0  0  0  0  0  0  0
    1.8077   18.2933   41.3743 N   0  0  0  0  0  0  0  0  0  0  0  0
    1.1252   19.5177   43.2203 N   0  0  0  0  0  0  0  0  0  0  0  0
    1.2328   20.6897   42.5283 C   0  0  0  0  0  0  0  0  0  0  0  0
    1.0171   21.9824   42.8455 N   0  0  0  0  0  0  0  0  0  0  0  0
    0.5723   22.4286   44.1518 C   0  0  0  0  0  0  0  0  0  0  0  0
    1.2828   22.7296   41.7675 N   0  0  0  0  0  0  0  0  0  0  0  0
    1.6713   21.9365   40.7450 C   0  0  0  0  0  0  0  0  0  0  0  0
    1.6497   20.6478   41.1932 C   0  0  0  0  0  0  0  0  0  0  0  0
    1.9430   19.4122   40.6084 C   0  0  0  0  0  0  0  0  0  0  0  0
    2.3708   19.3402   39.2470 N   0  0  0  0  0  0  0  0  0  0  0  0
    0.6450   18.1201   45.1825 H   0  0  0  0  0  0  0  0  0  0  0  0
    0.4062   16.0755   46.5553 H   0  0  0  0  0  0  0  0  0  0  0  0
    0.9421   13.8848   45.4670 H   0  0  0  0  0  0  0  0  0  0  0  0
    1.8868   15.7776   41.8577 H   0  0  0  0  0  0  0  0  0  0  0  0
    0.9768   21.7324   44.9403 H   0  0  0  0  0  0  0  0  0  0  0  0
   -0.5395   22.3535   44.2547 H   0  0  0  0  0  0  0  0  0  0  0  0
    0.8983   23.4831   44.3375 H   0  0  0  0  0  0  0  0  0  0  0  0
    1.9558   22.2245   39.7410 H   0  0  0  0  0  0  0  0  0  0  0  0
    3.3742   19.4243   39.0403 H   0  0  0  0  0  0  0  0  0  0  0  0
    1.6987   19.2056   38.4619 H   0  0  0  0  0  0  0  0  0  0  0  0
  1  2  2  0
  1  6  1  0
  2  3  1  0
  3  4  2  0
  4  5  1  0
  5  6  2  0
  6  7  1  0
  7  8  2  0
  7  9  1  0
  8 16  1  0
  9 10  2  0
 10 11  1  0
 10 15  1  0
 11 12  1  0
 11 13  1  0
 13 14  2  0
 14 15  1  0
 15 16  2  0
 16 17  1  0
  1 18  1  0
  2 19  1  0
  3 20  1  0
  5 21  1  0
 12 22  1  0
 12 23  1  0
 12 24  1  0
 14 25  1  0
 17 26  1  0
 17 27  1  0
M  END
>  <mol_id>  (62) 
2026-09-18-6fnk-s0-n100-r9-0062

>  <rmsd_to_ref>  (62) 
3.2551020408203946

>  <pose_kind>  (62) 
conformer

$$$$
6fnk.A
     RDKit          3D

 27 29  0  0  0  0  0  0  0  0999 V2000
    1.1628   18.3784   40.9678 C   0  0  0  0  0  0  0  0  0  0  0  0
    1.2630   17.9976   39.6296 C   0  0  0  0  0  0  0  0  0  0  0  0
    1.9700   16.8547   39.2856 C   0  0  0  0  0  0  0  0  0  0  0  0
    2.5778   16.0841   40.2806 N   0  0  0  0  0  0  0  0  0  0  0  0
    2.4766   16.4705   41.6257 C   0  0  0  0  0  0  0  0  0  0  0  0
    1.7682   17.6196   41.9723 C   0  0  0  0  0  0  0  0  0  0  0  0
    1.6711   18.0035   43.3137 C   0  0  0  0  0  0  0  0  0  0  0  0
    1.1497   19.1895   43.6564 N   0  0  0  0  0  0  0  0  0  0  0  0
    2.0967   17.1773   44.2746 N   0  0  0  0  0  0  0  0  0  0  0  0
    2.0277   17.5150   45.5747 C   0  0  0  0  0  0  0  0  0  0  0  0
    2.3988   16.8718   46.6922 N   0  0  0  0  0  0  0  0  0  0  0  0
    3.0094   15.5407   46.7572 C   0  0  0  0  0  0  0  0  0  0  0  0
    2.1476   17.5531   47.6871 N   0  0  0  0  0  0  0  0  0  0  0  0
    1.5593   18.6835   47.2624 C   0  0  0  0  0  0  0  0  0  0  0  0
    1.5007   18.6843   45.9239 C   0  0  0  0  0  0  0  0  0  0  0  0
    1.0555   19.5307   44.9550 C   0  0  0  0  0  0  0  0  0  0  0  0
    0.5160   20.7319   45.2749 N   0  0  0  0  0  0  0  0  0  0  0  0
    0.6012   19.2858   41.2349 H   0  0  0  0  0  0  0  0  0  0  0  0
    0.7818   18.6033   38.8475 H   0  0  0  0  0  0  0  0  0  0  0  0
    2.0522   16.5551   38.2304 H   0  0  0  0  0  0  0  0  0  0  0  0
    2.9574   15.8652   42.4083 H   0  0  0  0  0  0  0  0  0  0  0  0
    3.9279   15.5877   47.3607 H   0  0  0  0  0  0  0  0  0  0  0  0
    2.3029   14.8353   47.2190 H   0  0  0  0  0  0  0  0  0  0  0  0
    3.2556   15.2002   45.7406 H   0  0  0  0  0  0  0  0  0  0  0  0
    1.1832   19.4859   47.9140 H   0  0  0  0  0  0  0  0  0  0  0  0
    0.4342   21.0132   46.2624 H   0  0  0  0  0  0  0  0  0  0  0  0
    0.1876   21.3637   44.5306 H   0  0  0  0  0  0  0  0  0  0  0  0
  1  2  2  0
  1  6  1  0
  2  3  1  0
  3  4  2  0
  4  5  1  0
  5  6  2  0
  6  7  1  0
  7  8  2  0
  7  9  1  0
  8 16  1  0
  9 10  2  0
 10 11  1  0
 10 15  1  0
 11 12  1  0
 11 13  1  0
 13 14  2  0
 14 15  1  0
 15 16  2  0
 16 17  1  0
  1 18  1  0
  2 19  1  0
  3 20  1  0
  5 21  1  0
 12 22  1  0
 12 23  1  0
 12 24  1  0
 14 25  1  0
 17 26  1  0
 17 27  1  0
M  END
>  <mol_id>  (63) 
2026-09-18-6fnk-s0-n100-r9-0063

>  <rmsd_to_ref>  (63) 
3.3010204081697894

>  <pose_kind>  (63) 
rigid

$$$$
6fnk.A
     RDKit          3D

 27 29  0  0  0  0  0  0  0  0999 V2000
    1.5796   16.8943   40.8556 C   0  0  0  0  0  0  0  0  0  0  0  0
    1.8772   16.6912   39.5282 C   0  0  0  0  0  0  0  0  0  0  0  0
    1.3589   17.5619   38.5916 C   0  0  0  0  0  0  0  0  0  0  0  0
    0.5754   18.5955   38.9516 N   0  0  0  0  0  0  0  0  0  0  0  0
    0.2646   18.8223   40.2449 C   0  0  0  0  0  0  0  0  0  0  0  0
    0.7726   17.9603   41.2164 C   0  0  0  0  0  0  0  0  0  0  0  0
    0.4294   18.2175   42.6029 C   0  0  0  0  0  0  0  0  0  0  0  0
   -0.3612   19.2749   42.8754 N   0  0  0  0  0  0  0  0  0  0  0  0
    0.8887   17.4214   43.5869 N   0  0  0  0  0  0  0  0  0  0  0  0
    0.5478   17.6922   44.8674 C   0  0  0  0  0  0  0  0  0  0  0  0
    0.8169   17.1287   46.0531 N   0  0  0  0  0  0  0  0  0  0  0  0
    1.6537   15.9361   46.2259 C   0  0  0  0  0  0  0  0  0  0  0  0
    0.2214   17.8025   47.0298 N   0  0  0  0  0  0  0  0  0  0  0  0
   -0.4665   18.8403   46.5275 C   0  0  0  0  0  0  0  0  0  0  0  0
   -0.2711   18.7858   45.1598 C   0  0  0  0  0  0  0  0  0  0  0  0
   -0.7281   19.5852   44.1351 C   0  0  0  0  0  0  0  0  0  0  0  0
   -1.5533   20.6920   44.4004 N   0  0  0  0  0  0  0  0  0  0  0  0
    1.9825   16.2133   41.6093 H   0  0  0  0  0  0  0  0  0  0  0  0
    2.5087   15.8535   39.2678 H   0  0  0  0  0  0  0  0  0  0  0  0
    1.5784   17.4227   37.5464 H   0  0  0  0  0  0  0  0  0  0  0  0
   -0.3705   19.6663   40.4974 H   0  0  0  0  0  0  0  0  0  0  0  0
    1.1696   15.0379   45.7982 H   0  0  0  0  0  0  0  0  0  0  0  0
    2.6436   16.0848   45.7172 H   0  0  0  0  0  0  0  0  0  0  0  0
    1.8931   15.7835   47.3000 H   0  0  0  0  0  0  0  0  0  0  0  0
   -1.0619   19.5809   47.0825 H   0  0  0  0  0  0  0  0  0  0  0  0
   -1.8333   20.9404   45.3620 H   0  0  0  0  0  0  0  0  0  0  0  0
   -1.8989   21.2880   43.6019 H   0  0  0  0  0  0  0  0  0  0  0  0
  1  2  2  0
  1  6  1  0
  2  3  1  0
  3  4  2  0
  4  5  1  0
  5  6  2  0
  6  7  1  0
  7  8  2  0
  7  9  1  0
  8 16  1  0
  9 10  2  0
 10 11  1  0
 10 15  1  0
 11 12  1  0
 11 13  1  0
 13 14  2  0
 14 15  1  0
 15 16  2  0
 16 17  1  0
  1 18  1  0
  2 19  1  0
  3 20  1  0
  5 21  1  0
 12 22  1  0
 12 23  1  0
 12 24  1  0
 14 25  1  0
 17 26  1  0
 17 27  1  0
M  END
>  <mol_id>  (64) 
2026-09-18-6fnk-s0-n100-r9-0064

>  <rmsd_to_ref>  (64) 
3.3469387755144604

>  <pose_kind>  (64) 
conformer

$$$$
6fnk.A
     RDKit          3D

 27 29  0  0  0  0  0  0  0  0999 V2000
    0.6099   16.6889   39.5896 C   0  0  0  0  0  0  0  0  0  0  0  0
   -0.2387   16.1850   38.6038 C   0  0  0  0  0  0  0  0  0  0  0  0
   -1.0831   15.1231   38.8931 C   0  0  0  0  0  0  0  0  0  0  0  0
   -1.0853   14.5619   40.1731 N   0  0  0  0  0  0  0  0  0  0  0  0
   -0.2295   15.0699   41.1623 C   0  0  0  0  0  0  0  0  0  0  0  0
    0.6206   16.1354   40.8722 C   0  0  0  0  0  0  0  0  0  0  0  0
    1.4742   16.6381   41.8595 C   0  0  0  0  0  0  0  0  0  0  0  0
    2.4203   17.5390   41.5610 N   0  0  0  0  0  0  0  0  0  0  0  0
    1.3463   16.2230   43.1238 N   0  0  0  0  0  0  0  0  0  0  0  0
    2.1539   16.6769   44.0988 C   0  0  0  0  0  0  0  0  0  0  0  0
    2.2251   16.4002   45.4098 N   0  0  0  0  0  0  0  0  0  0  0  0
    1.3631   15.4668   46.1409 C   0  0  0  0  0  0  0  0  0  0  0  0
    3.1243   17.0529   45.9415 N   0  0  0  0  0  0  0  0  0  0  0  0
    3.6746   17.8271   44.9918 C   0  0  0  0  0  0  0  0  0  0  0  0
    3.0868   17.5799   43.8136 C   0  0  0  0  0  0  0  0  0  0  0  0
    3.2212   18.0171   42.5313 C   0  0  0  0  0  0  0  0  0  0  0  0
    4.1638   18.9342   42.2044 N   0  0  0  0  0  0  0  0  0  0  0  0
    1.2776   17.5309   39.3546 H   0  0  0  0  0  0  0  0  0  0  0  0
   -0.2382   16.6294   37.5975 H   0  0  0  0  0  0  0  0  0  0  0  0
   -1.7505   14.7230   38.1157 H   0  0  0  0  0  0  0  0  0  0  0  0
   -0.2296   14.6261   42.1688 H   0  0  0  0  0  0  0  0  0  0  0  0
    1.9862   14.7607   46.7094 H   0  0  0  0  0  0  0  0  0  0  0  0
    0.7195   16.0282   46.8341 H   0  0  0  0  0  0  0  0  0  0  0  0
    0.7366   14.9109   45.4277 H   0  0  0  0  0  0  0  0  0  0  0  0
    4.4843   18.5533   45.1564 H   0  0  0  0  0  0  0  0  0  0  0  0
    4.7874   19.3134   42.9312 H   0  0  0  0  0  0  0  0  0  0  0  0
    4.2566   19.2521   41.2291 H   0  0  0  0  0  0  0  0  0  0  0  0
  1  2  2  0
  1  6  1  0
  2  3  1  0
  3  4  2  0
  4  5  1  0
  5  6  2  0
  6  7  1  0
  7  8  2  0
  7  9  1  0
  8 16  1  0
  9 10  2  0
 10 11  1  0
 10 15  1  0
 11 12  1  0
 11 13  1  0
 13 14  2  0
 14 15  1  0
 15 16  2  0
 16 17  1  0
  1 18  1  0
  2 19  1  0
  3 20  1  0
  5 21  1  0
 12 22  1  0
 12 23  1  0
 12 24  1  0
 14 25  1  0
 17 26  1  0
 17 27  1  0
M  END
>  <mol_id>  (65) 
2026-09-18-6fnk-s0-n100-r9-0065

>  <rmsd_to_ref>  (65) 
3.3928571428634826

>  <pose_kind>  (65) 
rigid

$$$$
6fnk.A
     RDKit          3D

 27 29  0  0  0  0  0  0  0  0999 V2000
   -1.0268   15.4819   43.6473 C   0  0  0  0  0  0  0  0  0  0  0  0
   -1.3266   14.1860   44.0314 C   0  0  0  0  0  0  0  0  0  0  0  0
   -0.6044   13.5527   45.0431 C   0  0  0  0  0  0  0  0  0  0  0  0
    0.4020   14.1878   45.6701 N   0  0  0  0  0  0  0  0  0  0  0  0
    0.7131   15.4621   45.3080 C   0  0  0  0  0  0  0  0  0  0  0  0
    0.0173   16.1229   44.3071 C   0  0  0  0  0  0  0  0  0  0  0  0
    0.3664   17.4883   43.9339 C   0  0  0  0  0  0  0  0  0  0  0  0
   -0.2747   18.1590   42.9800 N   0  0  0  0  0  0  0  0  0  0  0  0
    1.3781   18.1033   44.5763 N   0  0  0  0  0  0  0  0  0  0  0  0
    1.7772   19.3571   44.3082 C   0  0  0  0  0  0  0  0  0  0  0  0
    2.7433   20.1780   44.8011 N   0  0  0  0  0  0  0  0  0  0  0  0
    3.6829   19.8286   45.8724 C   0  0  0  0  0  0  0  0  0  0  0  0
    2.6847   21.3413   44.1455 N   0  0  0  0  0  0  0  0  0  0  0  0
    1.6839   21.2744   43.2309 C   0  0  0  0  0  0  0  0  0  0  0  0
    1.0855   20.0329   43.3036 C   0  0  0  0  0  0  0  0  0  0  0  0
    0.0401   19.4212   42.6277 C   0  0  0  0  0  0  0  0  0  0  0  0
   -0.6614   20.1243   41.5997 N   0  0  0  0  0  0  0  0  0  0  0  0
   -1.6004   15.9456   42.8641 H   0  0  0  0  0  0  0  0  0  0  0  0
   -2.1280   13.6066   43.5701 H   0  0  0  0  0  0  0  0  0  0  0  0
   -0.8296   12.5340   45.3549 H   0  0  0  0  0  0  0  0  0  0  0  0
    1.5323   15.9972   45.8090 H   0  0  0  0  0  0  0  0  0  0  0  0
    4.6401   19.4358   45.4879 H   0  0  0  0  0  0  0  0  0  0  0  0
    3.1745   19.0514   46.5002 H   0  0  0  0  0  0  0  0  0  0  0  0
    3.8880   20.7425   46.4495 H   0  0  0  0  0  0  0  0  0  0  0  0
    1.3620   22.0452   42.5280 H   0  0  0  0  0  0  0  0  0  0  0  0
   -1.1525   21.0107   41.8095 H   0  0  0  0  0  0  0  0  0  0  0  0
   -0.6979   19.7613   40.6036 H   0  0  0  0  0  0  0  0  0  0  0  0
  1  2  2  0
  1  6  1  0
  2  3  1  0
  3  4  2  0
  4  5  1  0
  5  6  2  0
  6  7  1  0
  7  8  2  0
  7  9  1  0
  8 16  1  0
  9 10  2  0
 10 11  1  0
 10 15  1  0
 11 12  1  0
 11 13  1  0
 13 14  2  0
 14 15  1  0
 15 16  2  0
 16 17  1  0
  1 18  1  0
  2 19  1  0
  3 20  1  0
  5 21  1  0
 12 22  1  0
 12 23  1  0
 12 24  1  0
 14 25  1  0
 17 26  1  0
 17 27  1  0
M  END
>  <mol_id>  (66) 
2026-09-18-6fnk-s0-n100-r9-0066

>  <rmsd_to_ref>  (66) 
3.4387755102063458

>  <pose_kind>  (66) 
conformer

$$$$
6fnk.A
     RDKit          3D

 27 29  0  0  0  0  0  0  0  0999 V2000
   -0.5265   15.0310   43.9218 C   0  0  0  0  0  0  0  0  0  0  0  0
   -0.4716   13.8850   44.7152 C   0  0  0  0  0  0  0  0  0  0  0  0
    0.2429   13.8992   45.9042 C   0  0  0  0  0  0  0  0  0  0  0  0
    0.9037   15.0628   46.3075 N   0  0  0  0  0  0  0  0  0  0  0  0
    0.8479   16.2135   45.5066 C   0  0  0  0  0  0  0  0  0  0  0  0
    0.1320   16.1999   44.3110 C   0  0  0  0  0  0  0  0  0  0  0  0
    0.0802   17.3478   43.5136 C   0  0  0  0  0  0  0  0  0  0  0  0
   -0.4497   17.3105   42.2832 N   0  0  0  0  0  0  0  0  0  0  0  0
    0.5587   18.5050   43.9815 N   0  0  0  0  0  0  0  0  0  0  0  0
    0.5343   19.6275   43.2411 C   0  0  0  0  0  0  0  0  0  0  0  0
    0.9609   20.8759   43.4854 N   0  0  0  0  0  0  0  0  0  0  0  0
    1.5987   21.3417   44.7204 C   0  0  0  0  0  0  0  0  0  0  0  0
    0.7361   21.6068   42.5197 N   0  0  0  0  0  0  0  0  0  0  0  0
    0.1103   20.8650   41.5912 C   0  0  0  0  0  0  0  0  0  0  0  0
   -0.0008   19.6021   42.0244 C   0  0  0  0  0  0  0  0  0  0  0  0
   -0.4995   18.4315   41.5401 C   0  0  0  0  0  0  0  0  0  0  0  0
   -1.0488   18.3686   40.3029 N   0  0  0  0  0  0  0  0  0  0  0  0
   -1.0944   15.0141   42.9798 H   0  0  0  0  0  0  0  0  0  0  0  0
   -0.9945   12.9706   44.3982 H   0  0  0  0  0  0  0  0  0  0  0  0
    0.2894   12.9952   46.5292 H   0  0  0  0  0  0  0  0  0  0  0  0
    1.3703   17.1284   45.8231 H   0  0  0  0  0  0  0  0  0  0  0  0
    2.5391   21.8573   44.4756 H   0  0  0  0  0  0  0  0  0  0  0  0
    0.9243   22.0370   45.2417 H   0  0  0  0  0  0  0  0  0  0  0  0
    1.8114   20.4804   45.3707 H   0  0  0  0  0  0  0  0  0  0  0  0
   -0.2553   21.2375   40.6228 H   0  0  0  0  0  0  0  0  0  0  0  0
   -1.0971   19.2145   39.7172 H   0  0  0  0  0  0  0  0  0  0  0  0
   -1.4179   17.4748   39.9482 H   0  0  0  0  0  0  0  0  0  0  0  0
  1  2  2  0
  1  6  1  0
  2  3  1  0
  3  4  2  0
  4  5  1  0
  5  6  2  0
  6  7  1  0
  7  8  2  0
  7  9  1  0
  8 16  1  0
  9 10  2  0
 10 11  1  0
 10 15  1  0
 11 12  1  0
 11 13  1  0
 13 14  2  0
 14 15  1  0
 15 16  2  0
 16 17  1  0
  1 18  1  0
  2 19  1  0
  3 20  1  0
  5 21  1  0
 12 22  1  0
 12 23  1  0
 12 24  1  0
 14 25  1  0
 17 26  1  0
 17 27  1  0
M  END
>  <mol_id>  (67) 
2026-09-18-6fnk-s0-n100-r9-0067

>  <rmsd_to_ref>  (67) 
3.484693877553584

>  <pose_kind>  (67) 
rigid

$$$$
6fnk.A
     RDKit          3D

 27 29  0  0  0  0  0  0  0  0999 V2000
    1.6974   17.9376   40.6580 C   0  0  0  0  0  0  0  0  0  0  0  0
    1.5936   17.8391   39.2781 C   0  0  0  0  0  0  0  0  0  0  0  0
    0.9698   16.7219   38.7353 C   0  0  0  0  0  0  0  0  0  0  0  0
    0.4705   15.7438   39.5318 N   0  0  0  0  0  0  0  0  0  0  0  0
    0.5742   15.8441   40.8811 C   0  0  0  0  0  0  0  0  0  0  0  0
    1.1854   16.9352   41.4670 C   0  0  0  0  0  0  0  0  0  0  0  0
    1.2987   17.0461   42.9199 C   0  0  0  0  0  0  0  0  0  0  0  0
    1.8995   18.1176   43.5121 N   0  0  0  0  0  0  0  0  0  0  0  0
    0.7952   16.0624   43.6883 N   0  0  0  0  0  0  0  0  0  0  0  0
    0.8529   16.0781   45.0276 C   0  0  0  0  0  0  0  0  0  0  0  0
    0.4409   15.2493   46.0062 N   0  0  0  0  0  0  0  0  0  0  0  0
   -0.2388   14.0081   45.7636 C   0  0  0  0  0  0  0  0  0  0  0  0
    0.7604   15.7595   47.1999 N   0  0  0  0  0  0  0  0  0  0  0  0
    1.3938   16.9467   46.9751 C   0  0  0  0  0  0  0  0  0  0  0  0
    1.4594   17.1598   45.6260 C   0  0  0  0  0  0  0  0  0  0  0  0
    1.9903   18.1938   44.8642 C   0  0  0  0  0  0  0  0  0  0  0  0
    2.6174   19.3123   45.4812 N   0  0  0  0  0  0  0  0  0  0  0  0
    2.1854   18.8096   41.1144 H   0  0  0  0  0  0  0  0  0  0  0  0
    1.9913   18.6200   38.6169 H   0  0  0  0  0  0  0  0  0  0  0  0
    0.9125   16.6885   37.6632 H   0  0  0  0  0  0  0  0  0  0  0  0
    0.1617   15.0396   41.4873 H   0  0  0  0  0  0  0  0  0  0  0  0
    0.3492   13.4511   45.0212 H   0  0  0  0  0  0  0  0  0  0  0  0
   -1.2444   14.1929   45.2899 H   0  0  0  0  0  0  0  0  0  0  0  0
   -0.3294   13.3934   46.6642 H   0  0  0  0  0  0  0  0  0  0  0  0
    1.7716   17.5914   47.7766 H   0  0  0  0  0  0  0  0  0  0  0  0
    3.5407   19.1470   45.9329 H   0  0  0  0  0  0  0  0  0  0  0  0
    2.1526   20.2664   45.4732 H   0  0  0  0  0  0  0  0  0  0  0  0
  1  2  2  0
  1  6  1  0
  2  3  1  0
  3  4  2  0
  4  5  1  0
  5  6  2  0
  6  7  1  0
  7  8  2  0
  7  9  1  0
  8 16  1  0
  9 10  2  0
 10 11  1  0
 10 15  1  0
 11 12  1  0
 11 13  1  0
 13 14  2  0
 14 15  1  0
 15 16  2  0
 16 17  1  0
  1 18  1  0
  2 19  1  0
  3 20  1  0
  5 21  1  0
 12 22  1  0
 12 23  1  0
 12 24  1  0
 14 25  1  0
 17 26  1  0
 17 27  1  0
M  END
>  <mol_id>  (68) 
2026-09-18-6fnk-s0-n100-r9-0068

>  <rmsd_to_ref>  (68) 
3.5306122449014254

>  <pose_kind>  (68) 
conformer

$$$$
6fnk.A
     RDKit          3D

 27 29  0  0  0  0  0  0  0  0999 V2000
    2.4427   19.1399   40.7996 C   0  0  0  0  0  0  0  0  0  0  0  0
    3.7181   19.2513   40.2457 C   0  0  0  0  0  0  0  0  0  0  0  0
    4.5903   18.1735   40.2923 C   0  0  0  0  0  0  0  0  0  0  0  0
    4.1886   16.9761   40.8909 N   0  0  0  0  0  0  0  0  0  0  0  0
    2.9057   16.8675   41.4486 C   0  0  0  0  0  0  0  0  0  0  0  0
    2.0293   17.9502   41.4041 C   0  0  0  0  0  0  0  0  0  0  0  0
    0.7520   17.8397   41.9629 C   0  0  0  0  0  0  0  0  0  0  0  0
   -0.0414   18.9124   42.0897 N   0  0  0  0  0  0  0  0  0  0  0  0
    0.3062   16.6481   42.3732 N   0  0  0  0  0  0  0  0  0  0  0  0
   -0.9126   16.5039   42.9234 C   0  0  0  0  0  0  0  0  0  0  0  0
   -1.5576   15.4345   43.4138 N   0  0  0  0  0  0  0  0  0  0  0  0
   -1.0404   14.0636   43.4602 C   0  0  0  0  0  0  0  0  0  0  0  0
   -2.6743   15.7533   43.8241 N   0  0  0  0  0  0  0  0  0  0  0  0
   -2.8296   17.0665   43.5882 C   0  0  0  0  0  0  0  0  0  0  0  0
   -1.7106   17.5605   43.0416 C   0  0  0  0  0  0  0  0  0  0  0  0
   -1.2714   18.7779   42.6192 C   0  0  0  0  0  0  0  0  0  0  0  0
   -2.0570   19.8768   42.7277 N   0  0  0  0  0  0  0  0  0  0  0  0
    1.7553   19.9977   40.7601 H   0  0  0  0  0  0  0  0  0  0  0  0
    4.0321   20.1932   39.7722 H   0  0  0  0  0  0  0  0  0  0  0  0
    5.5973   18.2612   39.8585 H   0  0  0  0  0  0  0  0  0  0  0  0
    2.5909   15.9258   41.9221 H   0  0  0  0  0  0  0  0  0  0  0  0
   -1.1370   13.6696   44.4826 H   0  0  0  0  0  0  0  0  0  0  0  0
   -1.6154   13.4312   42.7677 H   0  0  0  0  0  0  0  0  0  0  0  0
    0.0192   14.0612   43.1649 H   0  0  0  0  0  0  0  0  0  0  0  0
   -3.7369   17.6475   43.8099 H   0  0  0  0  0  0  0  0  0  0  0  0
   -3.0018   19.7967   43.1300 H   0  0  0  0  0  0  0  0  0  0  0  0
   -1.7093   20.7921   42.4080 H   0  0  0  0  0  0  0  0  0  0  0  0
  1  2  2  0
  1  6  1  0
  2  3  1  0
  3  4  2  0
  4  5  1  0
  5  6  2  0
  6  7  1  0
  7  8  2  0
  7  9  1  0
  8 16  1  0
  9 10  2  0
 10 11  1  0
 10 15  1  0
 11 12  1  0
 11 13  1  0
 13 14  2  0
 14 15  1  0
 15 16  2  0
 16 17  1  0
  1 18  1  0
  2 19  1  0
  3 20  1  0
  5 21  1  0
 12 22  1  0
 12 23  1  0
 12 24  1  0
 14 25  1  0
 17 26  1  0
 17 27  1  0
M  END
>  <mol_id>  (69) 
2026-09-18-6fnk-s0-n100-r9-0069

>  <rmsd_to_ref>  (69) 
3.576530612247197

>  <pose_kind>  (69) 
rigid

$$$$
6fnk.A
     RDKit          3D

 27 29  0  0  0  0  0  0  0  0999 V2000
    0.7420   15.5840   44.2431 C   0  0  0  0  0  0  0  0  0  0  0  0
    0.5763   14.5207   45.1351 C   0  0  0  0  0  0  0  0  0  0  0  0
    0.6936   14.7842   46.4957 C   0  0  0  0  0  0  0  0  0  0  0  0
    0.9593   16.0244   46.9586 N   0  0  0  0  0  0  0  0  0  0  0  0
    1.1236   17.0721   46.0997 C   0  0  0  0  0  0  0  0  0  0  0  0
    1.0130   16.8416   44.7436 C   0  0  0  0  0  0  0  0  0  0  0  0
    1.1826   17.9406   43.7857 C   0  0  0  0  0  0  0  0  0  0  0  0
    1.0784   17.7375   42.4503 N   0  0  0  0  0  0  0  0  0  0  0  0
    1.4509   19.1894   44.2656 N   0  0  0  0  0  0  0  0  0  0  0  0
    1.6136   20.2247   43.4251 C   0  0  0  0  0  0  0  0  0  0  0  0
    1.8831   21.5482   43.6248 N   0  0  0  0  0  0  0  0  0  0  0  0
    2.0726   22.1919   44.9343 C   0  0  0  0  0  0  0  0  0  0  0  0
    1.9449   22.1489   42.4612 N   0  0  0  0  0  0  0  0  0  0  0  0
    1.7239   21.2717   41.4481 C   0  0  0  0  0  0  0  0  0  0  0  0
    1.5155   20.0624   42.0499 C   0  0  0  0  0  0  0  0  0  0  0  0
    1.2398   18.7736   41.5792 C   0  0  0  0  0  0  0  0  0  0  0  0
    1.1252   18.5333   40.1803 N   0  0  0  0  0  0  0  0  0  0  0  0
    0.6567   15.4127   43.1710 H   0  0  0  0  0  0  0  0  0  0  0  0
    0.3638   13.5214   44.7964 H   0  0  0  0  0  0  0  0  0  0  0  0
    0.5588   13.9304   47.1773 H   0  0  0  0  0  0  0  0  0  0  0  0
    1.3360   18.0698   46.4429 H   0  0  0  0  0  0  0  0  0  0  0  0
    3.1174   22.4058   45.1556 H   0  0  0  0  0  0  0  0  0  0  0  0
    1.6967   21.5360   45.7461 H   0  0  0  0  0  0  0  0  0  0  0  0
    1.4463   23.1214   45.0052 H   0  0  0  0  0  0  0  0  0  0  0  0
    1.7099   21.4631   40.3785 H   0  0  0  0  0  0  0  0  0  0  0  0
    0.2268   18.1720   39.7429 H   0  0  0  0  0  0  0  0  0  0  0  0
    1.9410   18.7088   39.5222 H   0  0  0  0  0  0  0  0  0  0  0  0
  1  2  2  0
  1  6  1  0
  2  3  1  0
  3  4  2  0
  4  5  1  0
  5  6  2  0
  6  7  1  0
  7  8  2  0
  7  9  1  0
  8 16  1  0
  9 10  2  0
 10 11  1  0
 10 15  1  0
 11 12  1  0
 11 13  1  0
 13 14  2  0
 14 15  1  0
 15 16  2  0
 16 17  1  0
  1 18  1  0
  2 19  1  0
  3 20  1  0
  5 21  1  0
 12 22  1  0
 12 23  1  0
 12 24  1  0
 14 25  1  0
 17 26  1  0
 17 27  1  0
M  END
>  <mol_id>  (70) 
2026-09-18-6fnk-s0-n100-r9-0070

>  <rmsd_to_ref>  (70) 
3.6224489795980124

>  <pose_kind>  (70) 
conformer

$$$$
6fnk.A
     RDKit          3D

 27 29  0  0  0  0  0  0  0  0999 V2000
    2.5692   14.4616   42.4445 C   0  0  0  0  0  0  0  0  0  0  0  0
    3.4276   13.3674   42.3354 C   0  0  0  0  0  0  0  0  0  0  0  0
    3.5658   12.7137   41.1197 C   0  0  0  0  0  0  0  0  0  0  0  0
    2.8477   13.1545   40.0047 N   0  0  0  0  0  0  0  0  0  0  0  0
    1.9838   14.2545   40.1178 C   0  0  0  0  0  0  0  0  0  0  0  0
    1.8427   14.9108   41.3391 C   0  0  0  0  0  0  0  0  0  0  0  0
    0.9791   16.0054   41.4493 C   0  0  0  0  0  0  0  0  0  0  0  0
    0.6927   16.5413   42.6438 N   0  0  0  0  0  0  0  0  0  0  0  0
    0.4323   16.5347   40.3502 N   0  0  0  0  0  0  0  0  0  0  0  0
   -0.4093   17.5816   40.4170 C   0  0  0  0  0  0  0  0  0  0  0  0
   -1.0795   18.2589   39.4724 N   0  0  0  0  0  0  0  0  0  0  0  0
   -1.0392   17.9944   38.0311 C   0  0  0  0  0  0  0  0  0  0  0  0
   -1.7454   19.1631   39.9787 N   0  0  0  0  0  0  0  0  0  0  0  0
   -1.5136   19.1409   41.3015 C   0  0  0  0  0  0  0  0  0  0  0  0
   -0.6891   18.1270   41.5967 C   0  0  0  0  0  0  0  0  0  0  0  0
   -0.1315   17.6025   42.7224 C   0  0  0  0  0  0  0  0  0  0  0  0
   -0.3975   18.1311   43.9415 N   0  0  0  0  0  0  0  0  0  0  0  0
    2.4633   14.9760   43.4109 H   0  0  0  0  0  0  0  0  0  0  0  0
    3.9946   13.0231   43.2129 H   0  0  0  0  0  0  0  0  0  0  0  0
    4.2401   11.8489   41.0333 H   0  0  0  0  0  0  0  0  0  0  0  0
    1.4167   14.5994   39.2406 H   0  0  0  0  0  0  0  0  0  0  0  0
   -2.0655   17.8979   37.6472 H   0  0  0  0  0  0  0  0  0  0  0  0
   -0.5331   18.8265   37.5197 H   0  0  0  0  0  0  0  0  0  0  0  0
   -0.4887   17.0605   37.8450 H   0  0  0  0  0  0  0  0  0  0  0  0
   -1.9363   19.8473   42.0311 H   0  0  0  0  0  0  0  0  0  0  0  0
   -1.0255   18.9433   44.0248 H   0  0  0  0  0  0  0  0  0  0  0  0
    0.0282   17.7207   44.7848 H   0  0  0  0  0  0  0  0  0  0  0  0
  1  2  2  0
  1  6  1  0
  2  3  1  0
  3  4  2  0
  4  5  1  0
  5  6  2  0
  6  7  1  0
  7  8  2  0
  7  9  1  0
  8 16  1  0
  9 10  2  0
 10 11  1  0
 10 15  1  0
 11 12  1  0
 11 13  1  0
 13 14  2  0
 14 15  1  0
 15 16  2  0
 16 17  1  0
  1 18  1  0
  2 19  1  0
  3 20  1  0
  5 21  1  0
 12 22  1  0
 12 23  1  0
 12 24  1  0
 14 25  1  0
 17 26  1  0
 17 27  1  0
M  END
>  <mol_id>  (71) 
2026-09-18-6fnk-s0-n100-r9-0071

>  <rmsd_to_ref>  (71) 
3.6683673469409834

>  <pose_kind>  (71) 
rigid

$$$$
6fnk.A
     RDKit          3D

 27 29  0  0  0  0  0  0  0  0999 V2000
    0.1111   15.0607   44.8124 C   0  0  0  0  0  0  0  0  0  0  0  0
   -0.2950   13.9407   45.5079 C   0  0  0  0  0  0  0  0  0  0  0  0
   -0.9031   12.8637   44.8648 C   0  0  0  0  0  0  0  0  0  0  0  0
   -1.0968   12.9210   43.5349 N   0  0  0  0  0  0  0  0  0  0  0  0
   -0.7041   14.0179   42.8235 C   0  0  0  0  0  0  0  0  0  0  0  0
   -0.1013   15.0904   43.4480 C   0  0  0  0  0  0  0  0  0  0  0  0
    0.3101   16.2518   42.6676 C   0  0  0  0  0  0  0  0  0  0  0  0
    0.1104   16.2929   41.3479 N   0  0  0  0  0  0  0  0  0  0  0  0
    0.8978   17.2955   43.2820 N   0  0  0  0  0  0  0  0  0  0  0  0
    1.2803   18.3709   42.5699 C   0  0  0  0  0  0  0  0  0  0  0  0
    1.8763   19.5063   42.9766 N   0  0  0  0  0  0  0  0  0  0  0  0
    2.2762   19.8840   44.3280 C   0  0  0  0  0  0  0  0  0  0  0  0
    2.0576   20.2740   41.9146 N   0  0  0  0  0  0  0  0  0  0  0  0
    1.5789   19.6397   40.8080 C   0  0  0  0  0  0  0  0  0  0  0  0
    1.0772   18.4197   41.2074 C   0  0  0  0  0  0  0  0  0  0  0  0
    0.4733   17.3431   40.5880 C   0  0  0  0  0  0  0  0  0  0  0  0
    0.2642   17.3953   39.1807 N   0  0  0  0  0  0  0  0  0  0  0  0
    0.5862   15.8948   45.3358 H   0  0  0  0  0  0  0  0  0  0  0  0
   -0.1139   13.9496   46.5756 H   0  0  0  0  0  0  0  0  0  0  0  0
   -1.2107   11.9917   45.4582 H   0  0  0  0  0  0  0  0  0  0  0  0
   -0.8980   13.9803   41.7591 H   0  0  0  0  0  0  0  0  0  0  0  0
    3.3423   20.1962   44.3356 H   0  0  0  0  0  0  0  0  0  0  0  0
    2.2004   19.0075   44.9948 H   0  0  0  0  0  0  0  0  0  0  0  0
    1.6395   20.6845   44.7576 H   0  0  0  0  0  0  0  0  0  0  0  0
    1.5679   19.9798   39.7874 H   0  0  0  0  0  0  0  0  0  0  0  0
    0.6470   16.7387   38.4977 H   0  0  0  0  0  0  0  0  0  0  0  0
   -0.3455   18.1952   38.8385 H   0  0  0  0  0  0  0  0  0  0  0  0
  1  2  2  0
  1  6  1  0
  2  3  1  0
  3  4  2  0
  4  5  1  0
  5  6  2  0
  6  7  1  0
  7  8  2  0
  7  9  1  0
  8 16  1  0
  9 10  2  0
 10 11  1  0
 10 15  1  0
 11 12  1  0
 11 13  1  0
 13 14  2  0
 14 15  1  0
 15 16  2  0
 16 17  1  0
  1 18  1  0
  2 19  1  0
  3 20  1  0
  5 21  1  0
 12 22  1  0
 12 23  1  0
 12 24  1  0
 14 25  1  0
 17 26  1  0
 17 27  1  0
M  END
>  <mol_id>  (72) 
2026-09-18-6fnk-s0-n100-r9-0072

>  <rmsd_to_ref>  (72) 
3.714285714288171

>  <pose_kind>  (72) 
conformer

$$$$
6fnk.A
     RDKit          3D

 27 29  0  0  0  0  0  0  0  0999 V2000
    0.4851   15.3975   42.9829 C   0  0  0  0  0  0  0  0  0  0  0  0
    0.7014   14.5304   44.0540 C   0  0  0  0  0  0  0  0  0  0  0  0
    1.0280   15.0395   45.3025 C   0  0  0  0  0  0  0  0  0  0  0  0
    1.1362   16.4207   45.4864 N   0  0  0  0  0  0  0  0  0  0  0  0
    0.9195   17.2903   44.4068 C   0  0  0  0  0  0  0  0  0  0  0  0
    0.5933   16.7800   43.1517 C   0  0  0  0  0  0  0  0  0  0  0  0
    0.3802   17.6492   42.0769 C   0  0  0  0  0  0  0  0  0  0  0  0
    0.2395   17.1823   40.8286 N   0  0  0  0  0  0  0  0  0  0  0  0
    0.3082   18.9668   42.2911 N   0  0  0  0  0  0  0  0  0  0  0  0
    0.1132   19.8343   41.2820 C   0  0  0  0  0  0  0  0  0  0  0  0
    0.0237   21.1726   41.2507 N   0  0  0  0  0  0  0  0  0  0  0  0
    0.1198   22.0693   42.4064 C   0  0  0  0  0  0  0  0  0  0  0  0
   -0.1641   21.5669   40.0990 N   0  0  0  0  0  0  0  0  0  0  0  0
   -0.2399   20.4824   39.3101 C   0  0  0  0  0  0  0  0  0  0  0  0
   -0.0397   19.3786   40.0426 C   0  0  0  0  0  0  0  0  0  0  0  0
    0.0227   18.0382   39.8129 C   0  0  0  0  0  0  0  0  0  0  0  0
   -0.1253   17.5394   38.5616 N   0  0  0  0  0  0  0  0  0  0  0  0
    0.2266   14.9884   41.9951 H   0  0  0  0  0  0  0  0  0  0  0  0
    0.6130   13.4436   43.9088 H   0  0  0  0  0  0  0  0  0  0  0  0
    1.2017   14.3565   46.1471 H   0  0  0  0  0  0  0  0  0  0  0  0
    1.0075   18.3772   44.5514 H   0  0  0  0  0  0  0  0  0  0  0  0
    0.8670   22.8506   42.2032 H   0  0  0  0  0  0  0  0  0  0  0  0
   -0.8588   22.5368   42.5902 H   0  0  0  0  0  0  0  0  0  0  0  0
    0.4233   21.4934   43.2931 H   0  0  0  0  0  0  0  0  0  0  0  0
   -0.4363   20.4981   38.2279 H   0  0  0  0  0  0  0  0  0  0  0  0
   -0.2919   18.1764   37.7696 H   0  0  0  0  0  0  0  0  0  0  0  0
   -0.0711   16.5232   38.4026 H   0  0  0  0  0  0  0  0  0  0  0  0
  1  2  2  0
  1  6  1  0
  2  3  1  0
  3  4  2  0
  4  5  1  0
  5  6  2  0
  6  7  1  0
  7  8  2  0
  7  9  1  0
  8 16  1  0
  9 10  2  0
 10 11  1  0
 10 15  1  0
 11 12  1  0
 11 13  1  0
 13 14  2  0
 14 15  1  0
 15 16  2  0
 16 17  1  0
  1 18  1  0
  2 19  1  0
  3 20  1  0
  5 21  1  0
 12 22  1  0
 12 23  1  0
 12 24  1  0
 14 25  1  0
 17 26  1  0
 17 27  1  0
M  END
>  <mol_id>  (73) 
2026-09-18-6fnk-s0-n100-r9-0073

>  <rmsd_to_ref>  (73) 
3.760204081634015

>  <pose_kind>  (73) 
rigid

$$$$
6fnk.A
     RDKit          3D

 27 29  0  0  0  0  0  0  0  0999 V2000
    3.0790   15.8478   45.4189 C   0  0  0  0  0  0  0  0  0  0  0  0
    4.1912   15.6792   46.2501 C   0  0  0  0  0  0  0  0  0  0  0  0
    5.3746   16.3419   45.9098 C   0  0  0  0  0  0  0  0  0  0  0  0
    5.4257   17.1161   44.8106 N   0  0  0  0  0  0  0  0  0  0  0  0
    4.3694   17.2930   43.9967 C   0  0  0  0  0  0  0  0  0  0  0  0
    3.1788   16.6601   44.2898 C   0  0  0  0  0  0  0  0  0  0  0  0
    2.0221   16.8399   43.4190 C   0  0  0  0  0  0  0  0  0  0  0  0
    2.1657   17.6342   42.3394 N   0  0  0  0  0  0  0  0  0  0  0  0
    0.8639   16.2202   43.7104 N   0  0  0  0  0  0  0  0  0  0  0  0
   -0.1888   16.4019   42.8919 C   0  0  0  0  0  0  0  0  0  0  0  0
   -1.4552   15.9019   42.9526 N   0  0  0  0  0  0  0  0  0  0  0  0
   -1.9503   15.0046   43.9970 C   0  0  0  0  0  0  0  0  0  0  0  0
   -2.0982   16.3878   41.9074 N   0  0  0  0  0  0  0  0  0  0  0  0
   -1.3137   17.1759   41.1741 C   0  0  0  0  0  0  0  0  0  0  0  0
   -0.0677   17.2127   41.7764 C   0  0  0  0  0  0  0  0  0  0  0  0
    1.1375   17.8374   41.5024 C   0  0  0  0  0  0  0  0  0  0  0  0
    1.1968   18.6521   40.3487 N   0  0  0  0  0  0  0  0  0  0  0  0
    2.1304   15.3444   45.6512 H   0  0  0  0  0  0  0  0  0  0  0  0
    4.1171   15.0499   47.1266 H   0  0  0  0  0  0  0  0  0  0  0  0
    6.2115   16.1864   46.5771 H   0  0  0  0  0  0  0  0  0  0  0  0
    4.5094   17.9280   43.1468 H   0  0  0  0  0  0  0  0  0  0  0  0
   -1.2961   14.1169   44.1076 H   0  0  0  0  0  0  0  0  0  0  0  0
   -2.9831   14.7569   43.7287 H   0  0  0  0  0  0  0  0  0  0  0  0
   -1.8738   15.5563   44.9686 H   0  0  0  0  0  0  0  0  0  0  0  0
   -1.5189   17.7303   40.2598 H   0  0  0  0  0  0  0  0  0  0  0  0
    1.1003   18.1844   39.4017 H   0  0  0  0  0  0  0  0  0  0  0  0
    1.3317   19.6955   40.3903 H   0  0  0  0  0  0  0  0  0  0  0  0
  1  2  2  0
  1  6  1  0
  2  3  1  0
  3  4  2  0
  4  5  1  0
  5  6  2  0
  6  7  1  0
  7  8  2  0
  7  9  1  0
  8 16  1  0
  9 10  2  0
 10 11  1  0
 10 15  1  0
 11 12  1  0
 11 13  1  0
 13 14  2  0
 14 15  1  0
 15 16  2  0
 16 17  1  0
  1 18  1  0
  2 19  1  0
  3 20  1  0
  5 21  1  0
 12 22  1  0
 12 23  1  0
 12 24  1  0
 14 25  1  0
 17 26  1  0
 17 27  1  0
M  END
>  <mol_id>  (74) 
2026-09-18-6fnk-s0-n100-r9-0074

>  <rmsd_to_ref>  (74) 
3.8061224489809837

>  <pose_kind>  (74) 
conformer

$$$$
6fnk.A
     RDKit          3D

 27 29  0  0  0  0  0  0  0  0999 V2000
    4.2599   15.4731   39.3111 C   0  0  0  0  0  0  0  0  0  0  0  0
    5.1504   15.0133   38.3408 C   0  0  0  0  0  0  0  0  0  0  0  0
    6.0086   15.9028   37.7110 C   0  0  0  0  0  0  0  0  0  0  0  0
    5.9826   17.2579   38.0521 N   0  0  0  0  0  0  0  0  0  0  0  0
    5.0846   17.7177   39.0273 C   0  0  0  0  0  0  0  0  0  0  0  0
    4.2207   16.8253   39.6594 C   0  0  0  0  0  0  0  0  0  0  0  0
    3.3251   17.2870   40.6294 C   0  0  0  0  0  0  0  0  0  0  0  0
    2.3691   16.4878   41.1228 N   0  0  0  0  0  0  0  0  0  0  0  0
    3.4220   18.5415   41.0810 N   0  0  0  0  0  0  0  0  0  0  0  0
    2.5738   19.0239   42.0066 C   0  0  0  0  0  0  0  0  0  0  0  0
    2.4671   20.2281   42.5886 N   0  0  0  0  0  0  0  0  0  0  0  0
    3.3260   21.3879   42.3314 C   0  0  0  0  0  0  0  0  0  0  0  0
    1.5372   20.2374   43.3962 N   0  0  0  0  0  0  0  0  0  0  0  0
    1.0002   19.0062   43.4054 C   0  0  0  0  0  0  0  0  0  0  0  0
    1.6306   18.2340   42.5103 C   0  0  0  0  0  0  0  0  0  0  0  0
    1.5273   16.9517   42.0649 C   0  0  0  0  0  0  0  0  0  0  0  0
    0.5755   16.1202   42.5538 N   0  0  0  0  0  0  0  0  0  0  0  0
    3.5814   14.7634   39.8072 H   0  0  0  0  0  0  0  0  0  0  0  0
    5.1721   13.9460   38.0752 H   0  0  0  0  0  0  0  0  0  0  0  0
    6.7092   15.5418   36.9436 H   0  0  0  0  0  0  0  0  0  0  0  0
    5.0626   18.7848   39.2936 H   0  0  0  0  0  0  0  0  0  0  0  0
    2.7010   22.2627   42.0991 H   0  0  0  0  0  0  0  0  0  0  0  0
    3.9345   21.5984   43.2233 H   0  0  0  0  0  0  0  0  0  0  0  0
    3.9870   21.1728   41.4789 H   0  0  0  0  0  0  0  0  0  0  0  0
    0.1697   18.6816   44.0495 H   0  0  0  0  0  0  0  0  0  0  0  0
   -0.0792   16.4545   43.2752 H   0  0  0  0  0  0  0  0  0  0  0  0
    0.5067   15.1539   42.2039 H   0  0  0  0  0  0  0  0  0  0  0  0
  1  2  2  0
  1  6  1  0
  2  3  1  0
  3  4  2  0
  4  5  1  0
  5  6  2  0
  6  7  1  0
  7  8  2  0
  7  9  1  0
  8 16  1  0
  9 10  2  0
 10 11  1  0
 10 15  1  0
 11 12  1  0
 11 13  1  0
 13 14  2  0
 14 15  1  0
 15 16  2  0
 16 17  1  0
  1 18  1  0
  2 19  1  0
  3 20  1  0
  5 21  1  0
 12 22  1  0
 12 23  1  0
 12 24  1  0
 14 25  1  0
 17 26  1  0
 17 27  1  0
M  END
>  <mol_id>  (75) 
2026-09-18-6fnk-s0-n100-r9-0075

>  <rmsd_to_ref>  (75) 
3.852040816327284

>  <pose_kind>  (75) 
rigid

$$$$
6fnk.A
     RDKit          3D

 27 29  0  0  0  0  0  0  0  0999 V2000
    3.7655   16.2922   40.9954 C   0  0  0  0  0  0  0  0  0  0  0  0
    4.9844   16.6280   40.4186 C   0  0  0  0  0  0  0  0  0  0  0  0
    5.3306   17.9451   40.1989 C   0  0  0  0  0  0  0  0  0  0  0  0
    4.4869   18.9603   40.5410 N   0  0  0  0  0  0  0  0  0  0  0  0
    3.2828   18.6620   41.1092 C   0  0  0  0  0  0  0  0  0  0  0  0
    2.9225   17.3463   41.3354 C   0  0  0  0  0  0  0  0  0  0  0  0
    1.6267   17.0713   41.9447 C   0  0  0  0  0  0  0  0  0  0  0  0
    0.8302   18.1073   42.2641 N   0  0  0  0  0  0  0  0  0  0  0  0
    1.2306   15.8080   42.1850 N   0  0  0  0  0  0  0  0  0  0  0  0
    0.0372   15.5557   42.7461 C   0  0  0  0  0  0  0  0  0  0  0  0
   -0.6349   14.4300   43.1072 N   0  0  0  0  0  0  0  0  0  0  0  0
   -0.1440   13.0841   42.9427 C   0  0  0  0  0  0  0  0  0  0  0  0
   -1.7923   14.7584   43.6252 N   0  0  0  0  0  0  0  0  0  0  0  0
   -1.9547   16.0958   43.6387 C   0  0  0  0  0  0  0  0  0  0  0  0
   -0.8015   16.6121   43.0840 C   0  0  0  0  0  0  0  0  0  0  0  0
   -0.3920   17.9042   42.8363 C   0  0  0  0  0  0  0  0  0  0  0  0
   -1.2478   18.9886   43.1808 N   0  0  0  0  0  0  0  0  0  0  0  0
    3.4988   15.2547   41.1657 H   0  0  0  0  0  0  0  0  0  0  0  0
    5.7082   15.8669   40.1201 H   0  0  0  0  0  0  0  0  0  0  0  0
    6.2672   18.2520   39.7535 H   0  0  0  0  0  0  0  0  0  0  0  0
    2.6541   19.5033   41.3603 H   0  0  0  0  0  0  0  0  0  0  0  0
    0.9049   13.0427   42.6227 H   0  0  0  0  0  0  0  0  0  0  0  0
   -0.7838   12.5833   42.1980 H   0  0  0  0  0  0  0  0  0  0  0  0
   -0.2421   12.4831   43.8925 H   0  0  0  0  0  0  0  0  0  0  0  0
   -2.8079   16.6781   44.0050 H   0  0  0  0  0  0  0  0  0  0  0  0
   -2.0082   19.2252   42.5092 H   0  0  0  0  0  0  0  0  0  0  0  0
   -1.1167   19.5269   44.0755 H   0  0  0  0  0  0  0  0  0  0  0  0
  1  2  2  0
  1  6  1  0
  2  3  1  0
  3  4  2  0
  4  5  1  0
  5  6  2  0
  6  7  1  0
  7  8  2  0
  7  9  1  0
  8 16  1  0
  9 10  2  0
 10 11  1  0
 10 15  1  0
 11 12  1  0
 11 13  1  0
 13 14  2  0
 14 15  1  0
 15 16  2  0
 16 17  1  0
  1 18  1  0
  2 19  1  0
  3 20  1  0
  5 21  1  0
 12 22  1  0
 12 23  1  0
 12 24  1  0
 14 25  1  0
 17 26  1  0
 17 27  1  0
M  END
>  <mol_id>  (76) 
2026-09-18-6fnk-s0-n100-r9-0076

>  <rmsd_to_ref>  (76) 
3.897959183674696

>  <pose_kind>  (76) 
conformer

$$$$
6fnk.A
     RDKit          3D

 27 29  0  0  0  0  0  0  0  0999 V2000
    2.4939   18.9116   44.4707 C   0  0  0  0  0  0  0  0  0  0  0  0
    3.2072   18.0557   45.3101 C   0  0  0  0  0  0  0  0  0  0  0  0
    3.0256   16.6836   45.2165 C   0  0  0  0  0  0  0  0  0  0  0  0
    2.1312   16.1603   44.2788 N   0  0  0  0  0  0  0  0  0  0  0  0
    1.4140   17.0238   43.4369 C   0  0  0  0  0  0  0  0  0  0  0  0
    1.5941   18.4025   43.5312 C   0  0  0  0  0  0  0  0  0  0  0  0
    0.8760   19.2608   42.6923 C   0  0  0  0  0  0  0  0  0  0  0  0
    0.8980   20.5876   42.8797 N   0  0  0  0  0  0  0  0  0  0  0  0
    0.1597   18.7578   41.6818 N   0  0  0  0  0  0  0  0  0  0  0  0
   -0.5505   19.5505   40.8596 C   0  0  0  0  0  0  0  0  0  0  0  0
   -1.3409   19.2799   39.8097 N   0  0  0  0  0  0  0  0  0  0  0  0
   -1.6300   17.9478   39.2703 C   0  0  0  0  0  0  0  0  0  0  0  0
   -1.8001   20.3194   39.3345 N   0  0  0  0  0  0  0  0  0  0  0  0
   -1.2972   21.3426   40.0446 C   0  0  0  0  0  0  0  0  0  0  0  0
   -0.5243   20.8686   41.0309 C   0  0  0  0  0  0  0  0  0  0  0  0
    0.2087   21.3935   42.0510 C   0  0  0  0  0  0  0  0  0  0  0  0
    0.2551   22.7321   42.2570 N   0  0  0  0  0  0  0  0  0  0  0  0
    2.6415   19.9988   44.5493 H   0  0  0  0  0  0  0  0  0  0  0  0
    3.9131   18.4686   46.0457 H   0  0  0  0  0  0  0  0  0  0  0  0
    3.5854   16.0079   45.8800 H   0  0  0  0  0  0  0  0  0  0  0  0
    0.7080   16.6116   42.7008 H   0  0  0  0  0  0  0  0  0  0  0  0
   -2.7187   17.8148   39.1859 H   0  0  0  0  0  0  0  0  0  0  0  0
   -1.1701   17.8470   38.2761 H   0  0  0  0  0  0  0  0  0  0  0  0
   -1.2182   17.1821   39.9441 H   0  0  0  0  0  0  0  0  0  0  0  0
   -1.4904   22.4072   39.8466 H   0  0  0  0  0  0  0  0  0  0  0  0
   -0.2649   23.3672   41.6348 H   0  0  0  0  0  0  0  0  0  0  0  0
    0.8104   23.1143   43.0357 H   0  0  0  0  0  0  0  0  0  0  0  0
  1  2  2  0
  1  6  1  0
  2  3  1  0
  3  4  2  0
  4  5  1  0
  5  6  2  0
  6  7  1  0
  7  8  2  0
  7  9  1  0
  8 16  1  0
  9 10  2  0
 10 11  1  0
 10 15  1  0
 11 12  1  0
 11 13  1  0
 13 14  2  0
 14 15  1  0
 15 16  2  0
 16 17  1  0
  1 18  1  0
  2 19  1  0
  3 20  1  0
  5 21  1  0
 12 22  1  0
 12 23  1  0
 12 24  1  0
 14 25  1  0
 17 26  1  0
 17 27  1  0
M  END
>  <mol_id>  (77) 
2026-09-18-6fnk-s0-n100-r9-0077

>  <rmsd_to_ref>  (77) 
3.9438775510228994

>  <pose_kind>  (77) 
rigid

$$$$
6fnk.A
     RDKit          3D

 27 29  0  0  0  0  0  0  0  0999 V2000
    5.0325   16.4392   39.5947 C   0  0  0  0  0  0  0  0  0  0  0  0
    6.3900   16.6772   39.3450 C   0  0  0  0  0  0  0  0  0  0  0  0
    7.0271   17.7528   39.9293 C   0  0  0  0  0  0  0  0  0  0  0  0
    6.3699   18.6133   40.7602 N   0  0  0  0  0  0  0  0  0  0  0  0
    5.0470   18.4037   41.0197 C   0  0  0  0  0  0  0  0  0  0  0  0
    4.3939   17.3264   40.4392 C   0  0  0  0  0  0  0  0  0  0  0  0
    2.9704   17.1034   40.7203 C   0  0  0  0  0  0  0  0  0  0  0  0
    2.2977   16.0525   40.1650 N   0  0  0  0  0  0  0  0  0  0  0  0
    2.2887   17.9303   41.5344 N   0  0  0  0  0  0  0  0  0  0  0  0
    0.9831   17.7825   41.8334 C   0  0  0  0  0  0  0  0  0  0  0  0
    0.1212   18.4742   42.6053 N   0  0  0  0  0  0  0  0  0  0  0  0
    0.4591   19.6660   43.3675 C   0  0  0  0  0  0  0  0  0  0  0  0
   -1.0456   17.8547   42.5179 N   0  0  0  0  0  0  0  0  0  0  0  0
   -0.9826   16.7776   41.7143 C   0  0  0  0  0  0  0  0  0  0  0  0
    0.3274   16.7094   41.2567 C   0  0  0  0  0  0  0  0  0  0  0  0
    1.0008   15.8491   40.4209 C   0  0  0  0  0  0  0  0  0  0  0  0
    0.3192   14.7477   39.8316 N   0  0  0  0  0  0  0  0  0  0  0  0
    4.5255   15.6002   39.1420 H   0  0  0  0  0  0  0  0  0  0  0  0
    6.8890   15.9808   38.6828 H   0  0  0  0  0  0  0  0  0  0  0  0
    8.0916   17.9140   39.7150 H   0  0  0  0  0  0  0  0  0  0  0  0
    4.5208   19.0971   41.6883 H   0  0  0  0  0  0  0  0  0  0  0  0
   -0.4861   20.0341   43.8215 H   0  0  0  0  0  0  0  0  0  0  0  0
    0.8056   20.4960   42.7187 H   0  0  0  0  0  0  0  0  0  0  0  0
    1.1816   19.4641   44.1874 H   0  0  0  0  0  0  0  0  0  0  0  0
   -1.7716   16.0834   41.4548 H   0  0  0  0  0  0  0  0  0  0  0  0
   -0.5262   14.9268   39.2675 H   0  0  0  0  0  0  0  0  0  0  0  0
    0.7306   13.7988   40.0130 H   0  0  0  0  0  0  0  0  0  0  0  0
  1  2  2  0
  1  6  1  0
  2  3  1  0
  3  4  2  0
  4  5  1  0
  5  6  2  0
  6  7  1  0
  7  8  2  0
  7  9  1  0
  8 16  1  0
  9 10  2  0
 10 11  1  0
 10 15  1  0
 11 12  1  0
 11 13  1  0
 13 14  2  0
 14 15  1  0
 15 16  2  0
 16 17  1  0
  1 18  1  0
  2 19  1  0
  3 20  1  0
  5 21  1  0
 12 22  1  0
 12 23  1  0
 12 24  1  0
 14 25  1  0
 17 26  1  0
 17 27  1  0
M  END
>  <mol_id>  (78) 
2026-09-18-6fnk-s0-n100-r9-0078

>  <rmsd_to_ref>  (78) 
3.9897959183692704

>  <pose_kind>  (78) 
conformer

$$$$
6fnk.A
     RDKit          3D

 27 29  0  0  0  0  0  0  0  0999 V2000
   -0.0190   18.7918   38.9226 C   0  0  0  0  0  0  0  0  0  0  0  0
   -1.1844   18.5536   38.1939 C   0  0  0  0  0  0  0  0  0  0  0  0
   -2.2668   17.9341   38.8013 C   0  0  0  0  0  0  0  0  0  0  0  0
   -2.1897   17.5528   40.1437 N   0  0  0  0  0  0  0  0  0  0  0  0
   -1.0156   17.7924   40.8737 C   0  0  0  0  0  0  0  0  0  0  0  0
    0.0732   18.4129   40.2640 C   0  0  0  0  0  0  0  0  0  0  0  0
    1.2430   18.6483   40.9936 C   0  0  0  0  0  0  0  0  0  0  0  0
    2.3585   19.0802   40.3893 N   0  0  0  0  0  0  0  0  0  0  0  0
    1.2544   18.4478   42.3152 N   0  0  0  0  0  0  0  0  0  0  0  0
    2.3624   18.6548   43.0490 C   0  0  0  0  0  0  0  0  0  0  0  0
    2.6143   18.5095   44.3588 N   0  0  0  0  0  0  0  0  0  0  0  0
    1.6579   18.0604   45.3749 C   0  0  0  0  0  0  0  0  0  0  0  0
    3.7797   18.8177   44.6121 N   0  0  0  0  0  0  0  0  0  0  0  0
    4.3486   19.2180   43.4630 C   0  0  0  0  0  0  0  0  0  0  0  0
    3.4696   19.0950   42.4594 C   0  0  0  0  0  0  0  0  0  0  0  0
    3.4680   19.3114   41.1153 C   0  0  0  0  0  0  0  0  0  0  0  0
    4.5798   19.7565   40.4812 N   0  0  0  0  0  0  0  0  0  0  0  0
    0.8364   19.2832   38.4359 H   0  0  0  0  0  0  0  0  0  0  0  0
   -1.2450   18.8568   37.1382 H   0  0  0  0  0  0  0  0  0  0  0  0
   -3.1852   17.7430   38.2268 H   0  0  0  0  0  0  0  0  0  0  0  0
   -0.9543   17.4897   41.9295 H   0  0  0  0  0  0  0  0  0  0  0  0
    2.0966   17.2321   45.9507 H   0  0  0  0  0  0  0  0  0  0  0  0
    1.4242   18.8947   46.0527 H   0  0  0  0  0  0  0  0  0  0  0  0
    0.7353   17.7174   44.8839 H   0  0  0  0  0  0  0  0  0  0  0  0
    5.3788   19.5899   43.3615 H   0  0  0  0  0  0  0  0  0  0  0  0
    5.4399   19.9399   41.0173 H   0  0  0  0  0  0  0  0  0  0  0  0
    4.5648   19.9113   39.4630 H   0  0  0  0  0  0  0  0  0  0  0  0
  1  2  2  0
  1  6  1  0
  2  3  1  0
  3  4  2  0
  4  5  1  0
  5  6  2  0
  6  7  1  0
  7  8  2  0
  7  9  1  0
  8 16  1  0
  9 10  2  0
 10 11  1  0
 10 15  1  0
 11 12  1  0
 11 13  1  0
 13 14  2  0
 14 15  1  0
 15 16  2  0
 16 17  1  0
  1 18  1  0
  2 19  1  0
  3 20  1  0
  5 21  1  0
 12 22  1  0
 12 23  1  0
 12 24  1  0
 14 25  1  0
 17 26  1  0
 17 27  1  0
M  END
>  <mol_id>  (79) 
2026-09-18-6fnk-s0-n100-r9-0079

>  <rmsd_to_ref>  (79) 
4.035714285719678

>  <pose_kind>  (79) 
rigid

$$$$
6fnk.A
     RDKit          3D

 27 29  0  0  0  0  0  0  0  0999 V2000
    1.8153   20.3905   41.5653 C   0  0  0  0  0  0  0  0  0  0  0  0
    3.0711   20.7750   41.1588 C   0  0  0  0  0  0  0  0  0  0  0  0
    4.1811   19.9891   41.3297 C   0  0  0  0  0  0  0  0  0  0  0  0
    4.0202   18.7756   41.9300 N   0  0  0  0  0  0  0  0  0  0  0  0
    2.8213   18.3529   42.3443 C   0  0  0  0  0  0  0  0  0  0  0  0
    1.6858   19.1409   42.1770 C   0  0  0  0  0  0  0  0  0  0  0  0
    0.3631   18.6922   42.6256 C   0  0  0  0  0  0  0  0  0  0  0  0
   -0.7091   19.4894   42.4426 N   0  0  0  0  0  0  0  0  0  0  0  0
    0.2828   17.4811   43.2104 N   0  0  0  0  0  0  0  0  0  0  0  0
   -0.9240   17.0566   43.6269 C   0  0  0  0  0  0  0  0  0  0  0  0
   -1.3107   15.9102   44.2362 N   0  0  0  0  0  0  0  0  0  0  0  0
   -0.4047   14.8118   44.5909 C   0  0  0  0  0  0  0  0  0  0  0  0
   -2.6073   15.9679   44.4417 N   0  0  0  0  0  0  0  0  0  0  0  0
   -3.0935   17.1138   43.9892 C   0  0  0  0  0  0  0  0  0  0  0  0
   -2.0443   17.8364   43.4606 C   0  0  0  0  0  0  0  0  0  0  0  0
   -1.9164   19.0697   42.8569 C   0  0  0  0  0  0  0  0  0  0  0  0
   -3.0561   19.8978   42.6714 N   0  0  0  0  0  0  0  0  0  0  0  0
    0.9372   21.0376   41.4181 H   0  0  0  0  0  0  0  0  0  0  0  0
    3.1709   21.7431   40.6850 H   0  0  0  0  0  0  0  0  0  0  0  0
    5.1670   20.3107   41.0014 H   0  0  0  0  0  0  0  0  0  0  0  0
    2.6936   17.3728   42.8288 H   0  0  0  0  0  0  0  0  0  0  0  0
    0.2557   15.1527   45.3954 H   0  0  0  0  0  0  0  0  0  0  0  0
    0.2219   14.6345   43.6938 H   0  0  0  0  0  0  0  0  0  0  0  0
   -1.0214   13.9355   44.8713 H   0  0  0  0  0  0  0  0  0  0  0  0
   -4.1064   17.4607   44.0076 H   0  0  0  0  0  0  0  0  0  0  0  0
   -3.0562   20.9223   42.8900 H   0  0  0  0  0  0  0  0  0  0  0  0
   -3.9239   19.4136   42.2922 H   0  0  0  0  0  0  0  0  0  0  0  0
  1  2  2  0
  1  6  1  0
  2  3  1  0
  3  4  2  0
  4  5  1  0
  5  6  2  0
  6  7  1  0
  7  8  2  0
  7  9  1  0
  8 16  1  0
  9 10  2  0
 10 11  1  0
 10 15  1  0
 11 12  1  0
 11 13  1  0
 13 14  2  0
 14 15  1  0
 15 16  2  0
 16 17  1  0
  1 18  1  0
  2 19  1  0
  3 20  1  0
  5 21  1  0
 12 22  1  0
 12 23  1  0
 12 24  1  0
 14 25  1  0
 17 26  1  0
 17 27  1  0
M  END
>  <mol_id>  (80) 
2026-09-18-6fnk-s0-n100-r9-0080

>  <rmsd_to_ref>  (80) 
4.081632653064032

>  <pose_kind>  (80) 
conformer

$$$$
6fnk.A
     RDKit          3D

 27 29  0  0  0  0  0  0  0  0999 V2000
    2.9826   14.7819   44.3393 C   0  0  0  0  0  0  0  0  0  0  0  0
    2.5803   14.0049   45.4257 C   0  0  0  0  0  0  0  0  0  0  0  0
    1.5959   14.4717   46.2845 C   0  0  0  0  0  0  0  0  0  0  0  0
    1.0058   15.7182   46.0579 N   0  0  0  0  0  0  0  0  0  0  0  0
    1.4137   16.4982   44.9652 C   0  0  0  0  0  0  0  0  0  0  0  0
    2.4039   16.0312   44.1029 C   0  0  0  0  0  0  0  0  0  0  0  0
    2.8100   16.8119   43.0159 C   0  0  0  0  0  0  0  0  0  0  0  0
    3.8749   16.4682   42.2784 N   0  0  0  0  0  0  0  0  0  0  0  0
    2.1267   17.9159   42.6976 N   0  0  0  0  0  0  0  0  0  0  0  0
    2.4918   18.6965   41.6650 C   0  0  0  0  0  0  0  0  0  0  0  0
    1.9821   19.8367   41.1748 N   0  0  0  0  0  0  0  0  0  0  0  0
    0.8093   20.5480   41.6920 C   0  0  0  0  0  0  0  0  0  0  0  0
    2.6340   20.2191   40.2022 N   0  0  0  0  0  0  0  0  0  0  0  0
    3.6015   19.3130   39.9852 C   0  0  0  0  0  0  0  0  0  0  0  0
    3.5394   18.3561   40.9208 C   0  0  0  0  0  0  0  0  0  0  0  0
    4.2382   17.2292   41.2295 C   0  0  0  0  0  0  0  0  0  0  0  0
    5.3133   16.8543   40.4946 N   0  0  0  0  0  0  0  0  0  0  0  0
    3.7638   14.4070   43.6616 H   0  0  0  0  0  0  0  0  0  0  0  0
    3.0433   13.0227   45.6013 H   0  0  0  0  0  0  0  0  0  0  0  0
    1.2799   13.8612   47.1432 H   0  0  0  0  0  0  0  0  0  0  0  0
    0.9509   17.4804   44.7888 H   0  0  0  0  0  0  0  0  0  0  0  0
    1.0678   21.6028   41.8670 H   0  0  0  0  0  0  0  0  0  0  0  0
   -0.0088   20.4878   40.9591 H   0  0  0  0  0  0  0  0  0  0  0  0
    0.4887   20.0873   42.6380 H   0  0  0  0  0  0  0  0  0  0  0  0
    4.3330   19.3508   39.1645 H   0  0  0  0  0  0  0  0  0  0  0  0
    5.6088   17.4221   39.6876 H   0  0  0  0  0  0  0  0  0  0  0  0
    5.8348   16.0016   40.7430 H   0  0  0  0  0  0  0  0  0  0  0  0
  1  2  2  0
  1  6  1  0
  2  3  1  0
  3  4  2  0
  4  5  1  0
  5  6  2  0
  6  7  1  0
  7  8  2  0
  7  9  1  0
  8 16  1  0
  9 10  2  0
 10 11  1  0
 10 15  1  0
 11 12  1  0
 11 13  1  0
 13 14  2  0
 14 15  1  0
 15 16  2  0
 16 17  1  0
  1 18  1  0
  2 19  1  0
  3 20  1  0
  5 21  1  0
 12 22  1  0
 12 23  1  0
 12 24  1  0
 14 25  1  0
 17 26  1  0
 17 27  1  0
M  END
>  <mol_id>  (81) 
2026-09-18-6fnk-s0-n100-r9-0081

>  <rmsd_to_ref>  (81) 
4.127551020408332

>  <pose_kind>  (81) 
rigid

$$$$
6fnk.A
     RDKit          3D

 27 29  0  0  0  0  0  0  0  0999 V2000
    2.7405   18.7712   40.7663 C   0  0  0  0  0  0  0  0  0  0  0  0
    3.7360   19.1979   39.8827 C   0  0  0  0  0  0  0  0  0  0  0  0
    4.4879   18.2287   39.2272 C   0  0  0  0  0  0  0  0  0  0  0  0
    4.2760   16.9103   39.4265 N   0  0  0  0  0  0  0  0  0  0  0  0
    3.3078   16.4788   40.2861 C   0  0  0  0  0  0  0  0  0  0  0  0
    2.5454   17.4172   40.9512 C   0  0  0  0  0  0  0  0  0  0  0  0
    1.4938   16.9956   41.8844 C   0  0  0  0  0  0  0  0  0  0  0  0
    0.7332   17.8992   42.5482 N   0  0  0  0  0  0  0  0  0  0  0  0
    1.2891   15.6605   42.0775 N   0  0  0  0  0  0  0  0  0  0  0  0
    0.3375   15.2297   42.9224 C   0  0  0  0  0  0  0  0  0  0  0  0
   -0.0744   13.9833   43.2978 N   0  0  0  0  0  0  0  0  0  0  0  0
    0.4907   12.7153   42.8101 C   0  0  0  0  0  0  0  0  0  0  0  0
   -1.0533   14.1023   44.1617 N   0  0  0  0  0  0  0  0  0  0  0  0
   -1.3363   15.4092   44.3998 C   0  0  0  0  0  0  0  0  0  0  0  0
   -0.4647   16.1199   43.6231 C   0  0  0  0  0  0  0  0  0  0  0  0
   -0.2380   17.4843   43.4102 C   0  0  0  0  0  0  0  0  0  0  0  0
   -1.0235   18.4545   44.0954 N   0  0  0  0  0  0  0  0  0  0  0  0
    2.1333   19.5036   41.2961 H   0  0  0  0  0  0  0  0  0  0  0  0
    3.9284   20.2415   39.7031 H   0  0  0  0  0  0  0  0  0  0  0  0
    5.2653   18.5903   38.5368 H   0  0  0  0  0  0  0  0  0  0  0  0
    3.1189   15.4340   40.4626 H   0  0  0  0  0  0  0  0  0  0  0  0
    1.1404   12.2315   43.5383 H   0  0  0  0  0  0  0  0  0  0  0  0
    1.0977   12.8875   41.8977 H   0  0  0  0  0  0  0  0  0  0  0  0
   -0.3311   12.0245   42.4802 H   0  0  0  0  0  0  0  0  0  0  0  0
   -2.0894   15.8286   45.0615 H   0  0  0  0  0  0  0  0  0  0  0  0
   -1.6379   19.1494   43.5772 H   0  0  0  0  0  0  0  0  0  0  0  0
   -1.0213   18.5161   45.1563 H   0  0  0  0  0  0  0  0  0  0  0  0
  1  2  2  0
  1  6  1  0
  2  3  1  0
  3  4  2  0
  4  5  1  0
  5  6  2  0
  6  7  1  0
  7  8  2  0
  7  9  1  0
  8 16  1  0
  9 10  2  0
 10 11  1  0
 10 15  1  0
 11 12  1  0
 11 13  1  0
 13 14  2  0
 14 15  1  0
 15 16  2  0
 16 17  1  0
  1 18  1  0
  2 19  1  0
  3 20  1  0
  5 21  1  0
 12 22  1  0
 12 23  1  0
 12 24  1  0
 14 25  1  0
 17 26  1  0
 17 27  1  0
M  END
>  <mol_id>  (82) 
2026-09-18-6fnk-s0-n100-r9-0082

>  <rmsd_to_ref>  (82) 
4.17346938775977

>  <pose_kind>  (82) 
conformer

$$$$
6fnk.A
     RDKit          3D

 27 29  0  0  0  0  0  0  0  0999 V2000
   -0.3517   16.2984   43.4223 C   0  0  0  0  0  0  0  0  0  0  0  0
   -1.2707   15.5108   44.1159 C   0  0  0  0  0  0  0  0  0  0  0  0
   -2.1073   16.0903   45.0587 C   0  0  0  0  0  0  0  0  0  0  0  0
   -2.0309   17.4630   45.3097 N   0  0  0  0  0  0  0  0  0  0  0  0
   -1.1044   18.2524   44.6116 C   0  0  0  0  0  0  0  0  0  0  0  0
   -0.2622   17.6711   43.6657 C   0  0  0  0  0  0  0  0  0  0  0  0
    0.6619   18.4601   42.9731 C   0  0  0  0  0  0  0  0  0  0  0  0
    1.5973   17.9027   42.1918 N   0  0  0  0  0  0  0  0  0  0  0  0
    0.6136   19.7916   43.0821 N   0  0  0  0  0  0  0  0  0  0  0  0
    1.4904   20.5827   42.4385 C   0  0  0  0  0  0  0  0  0  0  0  0
    1.6458   21.9151   42.4078 N   0  0  0  0  0  0  0  0  0  0  0  0
    0.8228   22.8947   43.1233 C   0  0  0  0  0  0  0  0  0  0  0  0
    2.5867   22.2242   41.6755 N   0  0  0  0  0  0  0  0  0  0  0  0
    3.0821   21.0887   41.1564 C   0  0  0  0  0  0  0  0  0  0  0  0
    2.4136   20.0386   41.6518 C   0  0  0  0  0  0  0  0  0  0  0  0
    2.4674   18.6842   41.5256 C   0  0  0  0  0  0  0  0  0  0  0  0
    3.3975   18.0957   40.7351 N   0  0  0  0  0  0  0  0  0  0  0  0
    0.3094   15.8337   42.6760 H   0  0  0  0  0  0  0  0  0  0  0  0
   -1.3320   14.4310   43.9154 H   0  0  0  0  0  0  0  0  0  0  0  0
   -2.8303   15.4696   45.6083 H   0  0  0  0  0  0  0  0  0  0  0  0
   -1.0428   19.3323   44.8115 H   0  0  0  0  0  0  0  0  0  0  0  0
    1.4736   23.5714   43.6966 H   0  0  0  0  0  0  0  0  0  0  0  0
    0.2343   23.4777   42.3996 H   0  0  0  0  0  0  0  0  0  0  0  0
    0.1430   22.3701   43.8108 H   0  0  0  0  0  0  0  0  0  0  0  0
    3.9101   21.0299   40.4347 H   0  0  0  0  0  0  0  0  0  0  0  0
    4.0732   18.6747   40.2163 H   0  0  0  0  0  0  0  0  0  0  0  0
    3.4289   17.0695   40.6531 H   0  0  0  0  0  0  0  0  0  0  0  0
  1  2  2  0
  1  6  1  0
  2  3  1  0
  3  4  2  0
  4  5  1  0
  5  6  2  0
  6  7  1  0
  7  8  2  0
  7  9  1  0
  8 16  1  0
  9 10  2  0
 10 11  1  0
 10 15  1  0
 11 12  1  0
 11 13  1  0
 13 14  2  0
 14 15  1  0
 15 16  2  0
 16 17  1  0
  1 18  1  0
  2 19  1  0
  3 20  1  0
  5 21  1  0
 12 22  1  0
 12 23  1  0
 12 24  1  0
 14 25  1  0
 17 26  1  0
 17 27  1  0
M  END
>  <mol_id>  (83) 
2026-09-18-6fnk-s0-n100-r9-0083

>  <rmsd_to_ref>  (83) 
4.2193877551043375

>  <pose_kind>  (83) 
rigid

$$$$
6fnk.A
     RDKit          3D

 27 29  0  0  0  0  0  0  0  0999 V2000
    0.3904   15.2865   42.9469 C   0  0  0  0  0  0  0  0  0  0  0  0
   -0.8344   14.7102   42.6706 C   0  0  0  0  0  0  0  0  0  0  0  0
   -1.4905   14.9975   41.4690 C   0  0  0  0  0  0  0  0  0  0  0  0
   -0.9421   15.8342   40.5702 N   0  0  0  0  0  0  0  0  0  0  0  0
    0.2508   16.3887   40.8514 C   0  0  0  0  0  0  0  0  0  0  0  0
    0.9457   16.1441   42.0184 C   0  0  0  0  0  0  0  0  0  0  0  0
    2.2266   16.7807   42.2475 C   0  0  0  0  0  0  0  0  0  0  0  0
    2.7260   17.6086   41.3123 N   0  0  0  0  0  0  0  0  0  0  0  0
    2.9189   16.5573   43.3742 N   0  0  0  0  0  0  0  0  0  0  0  0
    4.1076   17.1511   43.5815 C   0  0  0  0  0  0  0  0  0  0  0  0
    4.9807   17.0924   44.6084 N   0  0  0  0  0  0  0  0  0  0  0  0
    4.8521   16.3212   45.8354 C   0  0  0  0  0  0  0  0  0  0  0  0
    6.0370   17.8718   44.3476 N   0  0  0  0  0  0  0  0  0  0  0  0
    5.8403   18.4423   43.1314 C   0  0  0  0  0  0  0  0  0  0  0  0
    4.6363   18.0087   42.6247 C   0  0  0  0  0  0  0  0  0  0  0  0
    3.9103   18.2317   41.4630 C   0  0  0  0  0  0  0  0  0  0  0  0
    4.4395   19.1092   40.4716 N   0  0  0  0  0  0  0  0  0  0  0  0
    0.9185   15.0807   43.8691 H   0  0  0  0  0  0  0  0  0  0  0  0
   -1.2867   14.0305   43.3936 H   0  0  0  0  0  0  0  0  0  0  0  0
   -2.4577   14.5484   41.2403 H   0  0  0  0  0  0  0  0  0  0  0  0
    0.6928   17.0687   40.1169 H   0  0  0  0  0  0  0  0  0  0  0  0
    5.8895   16.0279   46.1729 H   0  0  0  0  0  0  0  0  0  0  0  0
    4.2095   15.4401   45.6955 H   0  0  0  0  0  0  0  0  0  0  0  0
    4.4393   16.9164   46.6808 H   0  0  0  0  0  0  0  0  0  0  0  0
    6.4808   19.1298   42.5935 H   0  0  0  0  0  0  0  0  0  0  0  0
    4.2354   20.1455   40.5424 H   0  0  0  0  0  0  0  0  0  0  0  0
    5.0216   18.7639   39.6780 H   0  0  0  0  0  0  0  0  0  0  0  0
  1  2  2  0
  1  6  1  0
  2  3  1  0
  3  4  2  0
  4  5  1  0
  5  6  2  0
  6  7  1  0
  7  8  2  0
  7  9  1  0
  8 16  1  0
  9 10  2  0
 10 11  1  0
 10 15  1  0
 11 12  1  0
 11 13  1  0
 13 14  2  0
 14 15  1  0
 15 16  2  0
 16 17  1  0
  1 18  1  0
  2 19  1  0
  3 20  1  0
  5 21  1  0
 12 22  1  0
 12 23  1  0
 12 24  1  0
 14 25  1  0
 17 26  1  0
 17 27  1  0
M  END
>  <mol_id>  (84) 
2026-09-18-6fnk-s0-n100-r9-0084

>  <rmsd_to_ref>  (84) 
4.265306122453325

>  <pose_kind>  (84) 
conformer

$$$$
6fnk.A
     RDKit          3D

 27 29  0  0  0  0  0  0  0  0999 V2000
    5.2078   18.8081   41.9700 C   0  0  0  0  0  0  0  0  0  0  0  0
    6.3998   19.5007   41.7575 C   0  0  0  0  0  0  0  0  0  0  0  0
    6.9315   20.2904   42.7665 C   0  0  0  0  0  0  0  0  0  0  0  0
    6.2743   20.3879   43.9960 N   0  0  0  0  0  0  0  0  0  0  0  0
    5.0746   19.6912   44.2063 C   0  0  0  0  0  0  0  0  0  0  0  0
    4.5384   18.8992   43.1927 C   0  0  0  0  0  0  0  0  0  0  0  0
    3.3412   18.2078   43.4045 C   0  0  0  0  0  0  0  0  0  0  0  0
    2.7162   17.5844   42.3961 N   0  0  0  0  0  0  0  0  0  0  0  0
    2.8094   18.1582   44.6300 N   0  0  0  0  0  0  0  0  0  0  0  0
    1.6555   17.5107   44.8708 C   0  0  0  0  0  0  0  0  0  0  0  0
    0.9355   17.3413   45.9903 N   0  0  0  0  0  0  0  0  0  0  0  0
    1.2737   17.8615   47.3185 C   0  0  0  0  0  0  0  0  0  0  0  0
   -0.0695   16.6674   45.7605 N   0  0  0  0  0  0  0  0  0  0  0  0
   -0.0386   16.3296   44.4608 C   0  0  0  0  0  0  0  0  0  0  0  0
    1.0356   16.8793   43.8787 C   0  0  0  0  0  0  0  0  0  0  0  0
    1.5718   16.9150   42.6279 C   0  0  0  0  0  0  0  0  0  0  0  0
    0.9648   16.2856   41.5927 N   0  0  0  0  0  0  0  0  0  0  0  0
    4.7905   18.1836   41.1663 H   0  0  0  0  0  0  0  0  0  0  0  0
    6.9178   19.4209   40.7904 H   0  0  0  0  0  0  0  0  0  0  0  0
    7.8699   20.8394   42.5990 H   0  0  0  0  0  0  0  0  0  0  0  0
    4.5561   19.7704   45.1733 H   0  0  0  0  0  0  0  0  0  0  0  0
    0.4125   18.4101   47.7275 H   0  0  0  0  0  0  0  0  0  0  0  0
    1.5263   17.0249   47.9865 H   0  0  0  0  0  0  0  0  0  0  0  0
    2.1359   18.5398   47.2380 H   0  0  0  0  0  0  0  0  0  0  0  0
   -0.7818   15.6980   43.9521 H   0  0  0  0  0  0  0  0  0  0  0  0
    0.0881   15.7675   41.7476 H   0  0  0  0  0  0  0  0  0  0  0  0
    1.3800   16.3252   40.6510 H   0  0  0  0  0  0  0  0  0  0  0  0
  1  2  2  0
  1  6  1  0
  2  3  1  0
  3  4  2  0
  4  5  1  0
  5  6  2  0
  6  7  1  0
  7  8  2  0
  7  9  1  0
  8 16  1  0
  9 10  2  0
 10 11  1  0
 10 15  1  0
 11 12  1  0
 11 13  1  0
 13 14  2  0
 14 15  1  0
 15 16  2  0
 16 17  1  0
  1 18  1  0
  2 19  1  0
  3 20  1  0
  5 21  1  0
 12 22  1  0
 12 23  1  0
 12 24  1  0
 14 25  1  0
 17 26  1  0
 17 27  1  0
M  END
>  <mol_id>  (85) 
2026-09-18-6fnk-s0-n100-r9-0085

>  <rmsd_to_ref>  (85) 
4.311224489796365

>  <pose_kind>  (85) 
rigid

$$$$
6fnk.A
     RDKit          3D

 27 29  0  0  0  0  0  0  0  0999 V2000
    5.6278   15.3575   42.1972 C   0  0  0  0  0  0  0  0  0  0  0  0
    6.9617   15.7762   42.1874 C   0  0  0  0  0  0  0  0  0  0  0  0
    7.2445   17.0257   42.6930 C   0  0  0  0  0  0  0  0  0  0  0  0
    6.3145   17.8502   43.1881 N   0  0  0  0  0  0  0  0  0  0  0  0
    5.0433   17.4530   43.1982 C   0  0  0  0  0  0  0  0  0  0  0  0
    4.6525   16.2024   42.7077 C   0  0  0  0  0  0  0  0  0  0  0  0
    3.2588   15.7721   42.7211 C   0  0  0  0  0  0  0  0  0  0  0  0
    2.9048   14.5472   42.2367 N   0  0  0  0  0  0  0  0  0  0  0  0
    2.3474   16.6258   43.2262 N   0  0  0  0  0  0  0  0  0  0  0  0
    1.0426   16.3188   43.2807 C   0  0  0  0  0  0  0  0  0  0  0  0
   -0.0342   16.9832   43.7270 N   0  0  0  0  0  0  0  0  0  0  0  0
    0.0350   18.3174   44.3003 C   0  0  0  0  0  0  0  0  0  0  0  0
   -1.1127   16.2176   43.5482 N   0  0  0  0  0  0  0  0  0  0  0  0
   -0.7363   15.0364   42.9773 C   0  0  0  0  0  0  0  0  0  0  0  0
    0.6370   15.0900   42.8021 C   0  0  0  0  0  0  0  0  0  0  0  0
    1.5938   14.2375   42.2909 C   0  0  0  0  0  0  0  0  0  0  0  0
    1.1847   12.9499   41.7870 N   0  0  0  0  0  0  0  0  0  0  0  0
    5.3796   14.3812   41.8061 H   0  0  0  0  0  0  0  0  0  0  0  0
    7.7524   15.1419   41.7957 H   0  0  0  0  0  0  0  0  0  0  0  0
    8.2749   17.4065   42.7107 H   0  0  0  0  0  0  0  0  0  0  0  0
    4.2509   18.0753   43.5850 H   0  0  0  0  0  0  0  0  0  0  0  0
   -0.9734   18.7773   44.3641 H   0  0  0  0  0  0  0  0  0  0  0  0
    0.4935   18.3532   45.2961 H   0  0  0  0  0  0  0  0  0  0  0  0
    0.7023   18.9103   43.6167 H   0  0  0  0  0  0  0  0  0  0  0  0
   -1.3762   14.1980   42.7032 H   0  0  0  0  0  0  0  0  0  0  0  0
    0.8860   12.8089   40.8007 H   0  0  0  0  0  0  0  0  0  0  0  0
    1.2172   12.1778   42.5037 H   0  0  0  0  0  0  0  0  0  0  0  0
  1  2  2  0
  1  6  1  0
  2  3  1  0
  3  4  2  0
  4  5  1  0
  5  6  2  0
  6  7  1  0
  7  8  2  0
  7  9  1  0
  8 16  1  0
  9 10  2  0
 10 11  1  0
 10 15  1  0
 11 12  1  0
 11 13  1  0
 13 14  2  0
 14 15  1  0
 15 16  2  0
 16 17  1  0
  1 18  1  0
  2 19  1  0
  3 20  1  0
  5 21  1  0
 12 22  1  0
 12 23  1  0
 12 24  1  0
 14 25  1  0
 17 26  1  0
 17 27  1  0
M  END
>  <mol_id>  (86) 
2026-09-18-6fnk-s0-n100-r9-0086

>  <rmsd_to_ref>  (86) 
4.357142857145959

>  <pose_kind>  (86) 
conformer

$$$$
6fnk.A
     RDKit          3D

 27 29  0  0  0  0  0  0  0  0999 V2000
    4.4955   16.4413   46.3334 C   0  0  0  0  0  0  0  0  0  0  0  0
    5.8588   16.1470   46.3626 C   0  0  0  0  0  0  0  0  0  0  0  0
    6.5170   15.7965   45.1929 C   0  0  0  0  0  0  0  0  0  0  0  0
    5.8144   15.7424   43.9860 N   0  0  0  0  0  0  0  0  0  0  0  0
    4.4429   16.0374   43.9600 C   0  0  0  0  0  0  0  0  0  0  0  0
    3.7801   16.3878   45.1347 C   0  0  0  0  0  0  0  0  0  0  0  0
    2.4124   16.6791   45.1060 C   0  0  0  0  0  0  0  0  0  0  0  0
    1.7180   16.8459   46.2401 N   0  0  0  0  0  0  0  0  0  0  0  0
    1.7826   16.8009   43.9332 N   0  0  0  0  0  0  0  0  0  0  0  0
    0.4670   17.0717   43.8655 C   0  0  0  0  0  0  0  0  0  0  0  0
   -0.3686   17.2212   42.8264 N   0  0  0  0  0  0  0  0  0  0  0  0
   -0.0068   17.1213   41.4093 C   0  0  0  0  0  0  0  0  0  0  0  0
   -1.5089   17.4692   43.2204 N   0  0  0  0  0  0  0  0  0  0  0  0
   -1.4673   17.5267   44.5617 C   0  0  0  0  0  0  0  0  0  0  0  0
   -0.2266   17.2508   44.9854 C   0  0  0  0  0  0  0  0  0  0  0  0
    0.4054   17.1381   46.1859 C   0  0  0  0  0  0  0  0  0  0  0  0
   -0.2715   17.3109   47.3471 N   0  0  0  0  0  0  0  0  0  0  0  0
    3.9785   16.7184   47.2639 H   0  0  0  0  0  0  0  0  0  0  0  0
    6.4114   16.1928   47.3126 H   0  0  0  0  0  0  0  0  0  0  0  0
    7.5914   15.5613   45.2153 H   0  0  0  0  0  0  0  0  0  0  0  0
    3.8897   15.9921   43.0103 H   0  0  0  0  0  0  0  0  0  0  0  0
   -0.6860   16.4173   40.9062 H   0  0  0  0  0  0  0  0  0  0  0  0
   -0.0911   18.1119   40.9387 H   0  0  0  0  0  0  0  0  0  0  0  0
    1.0282   16.7597   41.3197 H   0  0  0  0  0  0  0  0  0  0  0  0
   -2.3215   17.7641   45.2129 H   0  0  0  0  0  0  0  0  0  0  0  0
   -1.2767   17.5350   47.3288 H   0  0  0  0  0  0  0  0  0  0  0  0
    0.2191   17.2180   48.2479 H   0  0  0  0  0  0  0  0  0  0  0  0
  1  2  2  0
  1  6  1  0
  2  3  1  0
  3  4  2  0
  4  5  1  0
  5  6  2  0
  6  7  1  0
  7  8  2  0
  7  9  1  0
  8 16  1  0
  9 10  2  0
 10 11  1  0
 10 15  1  0
 11 12  1  0
 11 13  1  0
 13 14  2  0
 14 15  1  0
 15 16  2  0
 16 17  1  0
  1 18  1  0
  2 19  1  0
  3 20  1  0
  5 21  1  0
 12 22  1  0
 12 23  1  0
 12 24  1  0
 14 25  1  0
 17 26  1  0
 17 27  1  0
M  END
>  <mol_id>  (87) 
2026-09-18-6fnk-s0-n100-r9-0087

>  <rmsd_to_ref>  (87) 
4.403061224492882

>  <pose_kind>  (87) 
rigid

$$$$
6fnk.A
     RDKit          3D

 27 29  0  0  0  0  0  0  0  0999 V2000
   -0.8043   19.8372   41.5381 C   0  0  0  0  0  0  0  0  0  0  0  0
   -2.0573   19.5331   41.0572 C   0  0  0  0  0  0  0  0  0  0  0  0
   -2.6580   18.3708   41.5103 C   0  0  0  0  0  0  0  0  0  0  0  0
   -2.0178   17.5668   42.4011 N   0  0  0  0  0  0  0  0  0  0  0  0
   -0.7817   17.8930   42.8579 C   0  0  0  0  0  0  0  0  0  0  0  0
   -0.1441   19.0242   42.4460 C   0  0  0  0  0  0  0  0  0  0  0  0
    1.1820   19.4354   42.8947 C   0  0  0  0  0  0  0  0  0  0  0  0
    1.7629   20.5581   42.4575 N   0  0  0  0  0  0  0  0  0  0  0  0
    1.8588   18.6678   43.7812 N   0  0  0  0  0  0  0  0  0  0  0  0
    3.0944   19.0264   44.2159 C   0  0  0  0  0  0  0  0  0  0  0  0
    3.9941   18.4965   45.0645 N   0  0  0  0  0  0  0  0  0  0  0  0
    3.8237   17.2568   45.8050 C   0  0  0  0  0  0  0  0  0  0  0  0
    5.0738   19.2639   45.1390 N   0  0  0  0  0  0  0  0  0  0  0  0
    4.9418   20.3425   44.3414 C   0  0  0  0  0  0  0  0  0  0  0  0
    3.6950   20.1976   43.7568 C   0  0  0  0  0  0  0  0  0  0  0  0
    2.9853   20.9694   42.8495 C   0  0  0  0  0  0  0  0  0  0  0  0
    3.5259   22.1903   42.3241 N   0  0  0  0  0  0  0  0  0  0  0  0
   -0.3387   20.7354   41.1888 H   0  0  0  0  0  0  0  0  0  0  0  0
   -2.5873   20.1656   40.3419 H   0  0  0  0  0  0  0  0  0  0  0  0
   -3.6502   18.1095   41.1433 H   0  0  0  0  0  0  0  0  0  0  0  0
   -0.2804   17.2416   43.5701 H   0  0  0  0  0  0  0  0  0  0  0  0
    3.1981   17.4605   46.7224 H   0  0  0  0  0  0  0  0  0  0  0  0
    4.7947   16.8428   46.1426 H   0  0  0  0  0  0  0  0  0  0  0  0
    3.2842   16.5018   45.1866 H   0  0  0  0  0  0  0  0  0  0  0  0
    5.6250   21.1630   44.1633 H   0  0  0  0  0  0  0  0  0  0  0  0
    3.4969   22.3754   41.2936 H   0  0  0  0  0  0  0  0  0  0  0  0
    3.9359   22.8576   43.0187 H   0  0  0  0  0  0  0  0  0  0  0  0
  1  2  2  0
  1  6  1  0
  2  3  1  0
  3  4  2  0
  4  5  1  0
  5  6  2  0
  6  7  1  0
  7  8  2  0
  7  9  1  0
  8 16  1  0
  9 10  2  0
 10 11  1  0
 10 15  1  0
 11 12  1  0
 11 13  1  0
 13 14  2  0
 14 15  1  0
 15 16  2  0
 16 17  1  0
  1 18  1  0
  2 19  1  0
  3 20  1  0
  5 21  1  0
 12 22  1  0
 12 23  1  0
 12 24  1  0
 14 25  1  0
 17 26  1  0
 17 27  1  0
M  END
>  <mol_id>  (88) 
2026-09-18-6fnk-s0-n100-r9-0088

>  <rmsd_to_ref>  (88) 
4.4489795918414154

>  <pose_kind>  (88) 
conformer

$$$$
6fnk.A
     RDKit          3D

 27 29  0  0  0  0  0  0  0  0999 V2000
   -0.1513   15.0650   44.9933 C   0  0  0  0  0  0  0  0  0  0  0  0
    0.8758   14.1584   45.2559 C   0  0  0  0  0  0  0  0  0  0  0  0
    1.8625   13.9354   44.3065 C   0  0  0  0  0  0  0  0  0  0  0  0
    1.8282   14.6220   43.0897 N   0  0  0  0  0  0  0  0  0  0  0  0
    0.7929   15.5322   42.8278 C   0  0  0  0  0  0  0  0  0  0  0  0
   -0.1999   15.7557   43.7800 C   0  0  0  0  0  0  0  0  0  0  0  0
   -1.2319   16.6617   43.5151 C   0  0  0  0  0  0  0  0  0  0  0  0
   -2.2878   16.7643   44.3340 N   0  0  0  0  0  0  0  0  0  0  0  0
   -1.1680   17.4453   42.4339 N   0  0  0  0  0  0  0  0  0  0  0  0
   -2.1449   18.3223   42.1415 C   0  0  0  0  0  0  0  0  0  0  0  0
   -2.3058   19.1842   41.1259 N   0  0  0  0  0  0  0  0  0  0  0  0
   -1.3729   19.3884   40.0138 C   0  0  0  0  0  0  0  0  0  0  0  0
   -3.3604   19.8083   41.2511 N   0  0  0  0  0  0  0  0  0  0  0  0
   -3.9362   19.3996   42.3937 C   0  0  0  0  0  0  0  0  0  0  0  0
   -3.1897   18.4391   42.9551 C   0  0  0  0  0  0  0  0  0  0  0  0
   -3.2619   17.6529   44.0641 C   0  0  0  0  0  0  0  0  0  0  0  0
   -4.3142   17.7431   44.9132 N   0  0  0  0  0  0  0  0  0  0  0  0
   -0.9312   15.2379   45.7495 H   0  0  0  0  0  0  0  0  0  0  0  0
    0.9035   13.6208   46.2151 H   0  0  0  0  0  0  0  0  0  0  0  0
    2.6713   13.2185   44.5113 H   0  0  0  0  0  0  0  0  0  0  0  0
    0.7648   16.0704   41.8689 H   0  0  0  0  0  0  0  0  0  0  0  0
   -1.9154   19.3067   39.0604 H   0  0  0  0  0  0  0  0  0  0  0  0
   -0.9203   20.3878   40.0936 H   0  0  0  0  0  0  0  0  0  0  0  0
   -0.5829   18.6240   40.0528 H   0  0  0  0  0  0  0  0  0  0  0  0
   -4.8770   19.7935   42.8057 H   0  0  0  0  0  0  0  0  0  0  0  0
   -5.0709   18.4163   44.7259 H   0  0  0  0  0  0  0  0  0  0  0  0
   -4.3573   17.1384   45.7459 H   0  0  0  0  0  0  0  0  0  0  0  0
  1  2  2  0
  1  6  1  0
  2  3  1  0
  3  4  2  0
  4  5  1  0
  5  6  2  0
  6  7  1  0
  7  8  2  0
  7  9  1  0
  8 16  1  0
  9 10  2  0
 10 11  1  0
 10 15  1  0
 11 12  1  0
 11 13  1  0
 13 14  2  0
 14 15  1  0
 15 16  2  0
 16 17  1  0
  1 18  1  0
  2 19  1  0
  3 20  1  0
  5 21  1  0
 12 22  1  0
 12 23  1  0
 12 24  1  0
 14 25  1  0
 17 26  1  0
 17 27  1  0
M  END
>  <mol_id>  (89) 
2026-09-18-6fnk-s0-n100-r9-0089

>  <rmsd_to_ref>  (89) 
4.494897959185503

>  <pose_kind>  (89) 
rigid

$$$$
6fnk.A
     RDKit          3D

 27 29  0  0  0  0  0  0  0  0999 V2000
    4.1918   18.4385   44.5875 C   0  0  0  0  0  0  0  0  0  0  0  0
    5.4642   18.8849   44.9405 C   0  0  0  0  0  0  0  0  0  0  0  0
    5.6269   20.1221   45.5208 C   0  0  0  0  0  0  0  0  0  0  0  0
    4.5789   20.9333   45.7646 N   0  0  0  0  0  0  0  0  0  0  0  0
    3.3142   20.5381   45.4357 C   0  0  0  0  0  0  0  0  0  0  0  0
    3.1318   19.2846   44.8457 C   0  0  0  0  0  0  0  0  0  0  0  0
    1.7726   18.8435   44.4849 C   0  0  0  0  0  0  0  0  0  0  0  0
    1.5635   17.6255   43.9078 N   0  0  0  0  0  0  0  0  0  0  0  0
    0.7248   19.6545   44.7286 N   0  0  0  0  0  0  0  0  0  0  0  0
   -0.5401   19.3173   44.4260 C   0  0  0  0  0  0  0  0  0  0  0  0
   -1.7545   19.8800   44.5375 N   0  0  0  0  0  0  0  0  0  0  0  0
   -1.9734   21.1872   45.1044 C   0  0  0  0  0  0  0  0  0  0  0  0
   -2.6702   19.0547   44.0550 N   0  0  0  0  0  0  0  0  0  0  0  0
   -2.0592   17.9316   43.6179 C   0  0  0  0  0  0  0  0  0  0  0  0
   -0.7242   18.0714   43.8393 C   0  0  0  0  0  0  0  0  0  0  0  0
    0.3255   17.2139   43.5746 C   0  0  0  0  0  0  0  0  0  0  0  0
    0.1163   15.9494   42.9765 N   0  0  0  0  0  0  0  0  0  0  0  0
    4.0210   17.4730   44.1295 H   0  0  0  0  0  0  0  0  0  0  0  0
    6.2853   18.2066   44.7301 H   0  0  0  0  0  0  0  0  0  0  0  0
    6.6252   20.4255   45.7765 H   0  0  0  0  0  0  0  0  0  0  0  0
    2.4730   21.2014   45.6369 H   0  0  0  0  0  0  0  0  0  0  0  0
   -1.3272   21.3847   45.9751 H   0  0  0  0  0  0  0  0  0  0  0  0
   -3.0231   21.2560   45.4353 H   0  0  0  0  0  0  0  0  0  0  0  0
   -1.7232   21.9809   44.3651 H   0  0  0  0  0  0  0  0  0  0  0  0
   -2.6111   17.1147   43.1822 H   0  0  0  0  0  0  0  0  0  0  0  0
   -0.8813   15.6194   42.8476 H   0  0  0  0  0  0  0  0  0  0  0  0
    0.9337   15.3795   42.6805 H   0  0  0  0  0  0  0  0  0  0  0  0
  1  2  2  0
  1  6  1  0
  2  3  1  0
  3  4  2  0
  4  5  1  0
  5  6  2  0
  6  7  1  0
  7  8  2  0
  7  9  1  0
  8 16  1  0
  9 10  2  0
 10 11  1  0
 10 15  1  0
 11 12  1  0
 11 13  1  0
 13 14  2  0
 14 15  1  0
 15 16  2  0
 16 17  1  0
  1 18  1  0
  2 19  1  0
  3 20  1  0
  5 21  1  0
 12 22  1  0
 12 23  1  0
 12 24  1  0
 14 25  1  0
 17 26  1  0
 17 27  1  0
M  END
>  <mol_id>  (90) 
2026-09-18-6fnk-s0-n100-r9-0090

>  <rmsd_to_ref>  (90) 
4.540816326532664

>  <pose_kind>  (90) 
conformer

$$$$
6fnk.A
     RDKit          3D

 27 29  0  0  0  0  0  0  0  0999 V2000
    2.4226   19.9352   43.8327 C   0  0  0  0  0  0  0  0  0  0  0  0
    3.5152   20.5012   43.1755 C   0  0  0  0  0  0  0  0  0  0  0  0
    4.1802   19.7833   42.1922 C   0  0  0  0  0  0  0  0  0  0  0  0
    3.7524   18.4953   41.8587 N   0  0  0  0  0  0  0  0  0  0  0  0
    2.6541   17.9279   42.5225 C   0  0  0  0  0  0  0  0  0  0  0  0
    1.9864   18.6474   43.5118 C   0  0  0  0  0  0  0  0  0  0  0  0
    0.8935   18.0784   44.1734 C   0  0  0  0  0  0  0  0  0  0  0  0
    0.3468   18.6740   45.2423 N   0  0  0  0  0  0  0  0  0  0  0  0
    0.3766   16.9262   43.7349 N   0  0  0  0  0  0  0  0  0  0  0  0
   -0.6684   16.3442   44.3500 C   0  0  0  0  0  0  0  0  0  0  0  0
   -1.3345   15.2050   44.1078 N   0  0  0  0  0  0  0  0  0  0  0  0
   -1.0561   14.2587   43.0233 C   0  0  0  0  0  0  0  0  0  0  0  0
   -2.2414   15.0516   44.9270 N   0  0  0  0  0  0  0  0  0  0  0  0
   -2.2327   16.1198   45.7412 C   0  0  0  0  0  0  0  0  0  0  0  0
   -1.2243   16.9346   45.4034 C   0  0  0  0  0  0  0  0  0  0  0  0
   -0.7125   18.1128   45.8542 C   0  0  0  0  0  0  0  0  0  0  0  0
   -1.2521   18.7402   46.9273 N   0  0  0  0  0  0  0  0  0  0  0  0
    1.8991   20.5088   44.6117 H   0  0  0  0  0  0  0  0  0  0  0  0
    3.8492   21.5162   43.4367 H   0  0  0  0  0  0  0  0  0  0  0  0
    5.0437   20.2275   41.6754 H   0  0  0  0  0  0  0  0  0  0  0  0
    2.3194   16.9131   42.2616 H   0  0  0  0  0  0  0  0  0  0  0  0
   -0.9527   13.2453   43.4385 H   0  0  0  0  0  0  0  0  0  0  0  0
   -1.8848   14.2758   42.3001 H   0  0  0  0  0  0  0  0  0  0  0  0
   -0.1221   14.5448   42.5177 H   0  0  0  0  0  0  0  0  0  0  0  0
   -2.9449   16.2984   46.5603 H   0  0  0  0  0  0  0  0  0  0  0  0
   -2.0631   18.3284   47.4106 H   0  0  0  0  0  0  0  0  0  0  0  0
   -0.8512   19.6288   47.2597 H   0  0  0  0  0  0  0  0  0  0  0  0
  1  2  2  0
  1  6  1  0
  2  3  1  0
  3  4  2  0
  4  5  1  0
  5  6  2  0
  6  7  1  0
  7  8  2  0
  7  9  1  0
  8 16  1  0
  9 10  2  0
 10 11  1  0
 10 15  1  0
 11 12  1  0
 11 13  1  0
 13 14  2  0
 14 15  1  0
 15 16  2  0
 16 17  1  0
  1 18  1  0
  2 19  1  0
  3 20  1  0
  5 21  1  0
 12 22  1  0
 12 23  1  0
 12 24  1  0
 14 25  1  0
 17 26  1  0
 17 27  1  0
M  END
>  <mol_id>  (91) 
2026-09-18-6fnk-s0-n100-r9-0091

>  <rmsd_to_ref>  (91) 
4.586734693882998

>  <pose_kind>  (91) 
rigid

$$$$
6fnk.A
     RDKit          3D

 27 29  0  0  0  0  0  0  0  0999 V2000
    0.3317   17.1458   43.0109 C   0  0  0  0  0  0  0  0  0  0  0  0
   -0.7646   16.5514   42.3819 C   0  0  0  0  0  0  0  0  0  0  0  0
   -1.6655   17.3736   41.6968 C   0  0  0  0  0  0  0  0  0  0  0  0
   -1.4802   18.7181   41.6434 N   0  0  0  0  0  0  0  0  0  0  0  0
   -0.4041   19.2852   42.2629 C   0  0  0  0  0  0  0  0  0  0  0  0
    0.5177   18.5249   42.9536 C   0  0  0  0  0  0  0  0  0  0  0  0
    1.6784   19.0907   43.6277 C   0  0  0  0  0  0  0  0  0  0  0  0
    2.5573   18.3142   44.2928 N   0  0  0  0  0  0  0  0  0  0  0  0
    1.8969   20.4210   43.5975 N   0  0  0  0  0  0  0  0  0  0  0  0
    2.9787   20.9478   44.2258 C   0  0  0  0  0  0  0  0  0  0  0  0
    3.4494   22.1975   44.3682 N   0  0  0  0  0  0  0  0  0  0  0  0
    2.8503   23.4025   43.8281 C   0  0  0  0  0  0  0  0  0  0  0  0
    4.5744   22.1796   45.0942 N   0  0  0  0  0  0  0  0  0  0  0  0
    4.8739   20.9287   45.4475 C   0  0  0  0  0  0  0  0  0  0  0  0
    3.8738   20.1295   44.9067 C   0  0  0  0  0  0  0  0  0  0  0  0
    3.6366   18.7832   44.9270 C   0  0  0  0  0  0  0  0  0  0  0  0
    4.5152   17.9054   45.6049 N   0  0  0  0  0  0  0  0  0  0  0  0
    1.0512   16.5164   43.5547 H   0  0  0  0  0  0  0  0  0  0  0  0
   -0.9173   15.4746   42.4219 H   0  0  0  0  0  0  0  0  0  0  0  0
   -2.5202   16.9169   41.2055 H   0  0  0  0  0  0  0  0  0  0  0  0
   -0.2261   20.3506   42.2407 H   0  0  0  0  0  0  0  0  0  0  0  0
    2.3144   23.1658   42.8935 H   0  0  0  0  0  0  0  0  0  0  0  0
    3.6873   24.1082   43.5590 H   0  0  0  0  0  0  0  0  0  0  0  0
    2.2458   23.9583   44.5621 H   0  0  0  0  0  0  0  0  0  0  0  0
    5.7088   20.5736   46.0302 H   0  0  0  0  0  0  0  0  0  0  0  0
    4.6030   18.0089   46.6279 H   0  0  0  0  0  0  0  0  0  0  0  0
    5.0522   17.1761   45.0575 H   0  0  0  0  0  0  0  0  0  0  0  0
  1  2  2  0
  1  6  1  0
  2  3  1  0
  3  4  2  0
  4  5  1  0
  5  6  2  0
  6  7  1  0
  7  8  2  0
  7  9  1  0
  8 16  1  0
  9 10  2  0
 10 11  1  0
 10 15  1  0
 11 12  1  0
 11 13  1  0
 13 14  2  0
 14 15  1  0
 15 16  2  0
 16 17  1  0
  1 18  1  0
  2 19  1  0
  3 20  1  0
  5 21  1  0
 12 22  1  0
 12 23  1  0
 12 24  1  0
 14 25  1  0
 17 26  1  0
 17 27  1  0
M  END
>  <mol_id>  (92) 
2026-09-18-6fnk-s0-n100-r9-0092

>  <rmsd_to_ref>  (92) 
4.632653061224539

>  <pose_kind>  (92) 
conformer

$$$$
6fnk.A
     RDKit          3D

 27 29  0  0  0  0  0  0  0  0999 V2000
    3.3875   14.6821   41.5842 C   0  0  0  0  0  0  0  0  0  0  0  0
    3.3244   14.4454   40.2109 C   0  0  0  0  0  0  0  0  0  0  0  0
    3.5690   15.4784   39.3179 C   0  0  0  0  0  0  0  0  0  0  0  0
    3.8822   16.7541   39.7952 N   0  0  0  0  0  0  0  0  0  0  0  0
    3.9435   16.9895   41.1771 C   0  0  0  0  0  0  0  0  0  0  0  0
    3.6960   15.9530   42.0752 C   0  0  0  0  0  0  0  0  0  0  0  0
    3.7555   16.1913   43.4521 C   0  0  0  0  0  0  0  0  0  0  0  0
    3.3527   15.2637   44.3314 N   0  0  0  0  0  0  0  0  0  0  0  0
    4.2263   17.3574   43.9057 N   0  0  0  0  0  0  0  0  0  0  0  0
    4.2907   17.6263   45.2219 C   0  0  0  0  0  0  0  0  0  0  0  0
    4.7017   18.7086   45.9000 N   0  0  0  0  0  0  0  0  0  0  0  0
    5.2237   19.9460   45.3124 C   0  0  0  0  0  0  0  0  0  0  0  0
    4.5922   18.5264   47.1132 N   0  0  0  0  0  0  0  0  0  0  0  0
    4.1252   17.2798   47.2921 C   0  0  0  0  0  0  0  0  0  0  0  0
    3.9047   16.7070   46.1012 C   0  0  0  0  0  0  0  0  0  0  0  0
    3.4317   15.5121   45.6518 C   0  0  0  0  0  0  0  0  0  0  0  0
    3.0264   14.5537   46.5199 N   0  0  0  0  0  0  0  0  0  0  0  0
    3.1924   13.8594   42.2878 H   0  0  0  0  0  0  0  0  0  0  0  0
    3.0807   13.4402   39.8363 H   0  0  0  0  0  0  0  0  0  0  0  0
    3.5165   15.2936   38.2348 H   0  0  0  0  0  0  0  0  0  0  0  0
    4.1873   17.9944   41.5523 H   0  0  0  0  0  0  0  0  0  0  0  0
    4.6757   20.8067   45.7233 H   0  0  0  0  0  0  0  0  0  0  0  0
    6.2927   20.0434   45.5524 H   0  0  0  0  0  0  0  0  0  0  0  0
    5.0943   19.9164   44.2204 H   0  0  0  0  0  0  0  0  0  0  0  0
    3.9504   16.8021   48.2674 H   0  0  0  0  0  0  0  0  0  0  0  0
    3.0782   14.7227   47.5346 H   0  0  0  0  0  0  0  0  0  0  0  0
    2.6665   13.6563   46.1650 H   0  0  0  0  0  0  0  0  0  0  0  0
  1  2  2  0
  1  6  1  0
  2  3  1  0
  3  4  2  0
  4  5  1  0
  5  6  2  0
  6  7  1  0
  7  8  2  0
  7  9  1  0
  8 16  1  0
  9 10  2  0
 10 11  1  0
 10 15  1  0
 11 12  1  0
 11 13  1  0
 13 14  2  0
 14 15  1  0
 15 16  2  0
 16 17  1  0
  1 18  1  0
  2 19  1  0
  3 20  1  0
  5 21  1  0
 12 22  1  0
 12 23  1  0
 12 24  1  0
 14 25  1  0
 17 26  1  0
 17 27  1  0
M  END
>  <mol_id>  (93) 
2026-09-18-6fnk-s0-n100-r9-0093

>  <rmsd_to_ref>  (93) 
4.678571428572219

>  <pose_kind>  (93) 
rigid

$$$$
6fnk.A
     RDKit          3D

 27 29  0  0  0  0  0  0  0  0999 V2000
   -2.2016   14.9839   43.5764 C   0  0  0  0  0  0  0  0  0  0  0  0
   -2.6755   14.3352   44.7002 C   0  0  0  0  0  0  0  0  0  0  0  0
   -2.1090   14.5744   45.9525 C   0  0  0  0  0  0  0  0  0  0  0  0
   -1.0901   15.4451   46.0728 N   0  0  0  0  0  0  0  0  0  0  0  0
   -0.6049   16.0956   44.9885 C   0  0  0  0  0  0  0  0  0  0  0  0
   -1.1561   15.8667   43.7511 C   0  0  0  0  0  0  0  0  0  0  0  0
   -0.6238   16.5766   42.5799 C   0  0  0  0  0  0  0  0  0  0  0  0
   -1.1410   16.3788   41.3369 N   0  0  0  0  0  0  0  0  0  0  0  0
    0.3950   17.4428   42.7215 N   0  0  0  0  0  0  0  0  0  0  0  0
    0.9251   18.1199   41.6996 C   0  0  0  0  0  0  0  0  0  0  0  0
    1.9316   19.0266   41.5930 N   0  0  0  0  0  0  0  0  0  0  0  0
    2.7581   19.5266   42.6887 C   0  0  0  0  0  0  0  0  0  0  0  0
    2.0562   19.3987   40.3214 N   0  0  0  0  0  0  0  0  0  0  0  0
    1.1277   18.7366   39.5767 C   0  0  0  0  0  0  0  0  0  0  0  0
    0.4071   17.9258   40.4349 C   0  0  0  0  0  0  0  0  0  0  0  0
   -0.6431   17.0380   40.2641 C   0  0  0  0  0  0  0  0  0  0  0  0
   -1.1542   16.8605   38.9487 N   0  0  0  0  0  0  0  0  0  0  0  0
   -2.6604   14.7790   42.6164 H   0  0  0  0  0  0  0  0  0  0  0  0
   -3.4974   13.6396   44.5708 H   0  0  0  0  0  0  0  0  0  0  0  0
   -2.5039   14.0473   46.8239 H   0  0  0  0  0  0  0  0  0  0  0  0
    0.2236   16.8083   45.0634 H   0  0  0  0  0  0  0  0  0  0  0  0
    2.7046   18.7858   43.4918 H   0  0  0  0  0  0  0  0  0  0  0  0
    2.3914   20.5145   43.0734 H   0  0  0  0  0  0  0  0  0  0  0  0
    3.7896   19.6788   42.2894 H   0  0  0  0  0  0  0  0  0  0  0  0
    1.0000   18.8410   38.5274 H   0  0  0  0  0  0  0  0  0  0  0  0
   -2.1731   16.8813   38.7154 H   0  0  0  0  0  0  0  0  0  0  0  0
   -0.4378   16.7023   38.1965 H   0  0  0  0  0  0  0  0  0  0  0  0
  1  2  2  0
  1  6  1  0
  2  3  1  0
  3  4  2  0
  4  5  1  0
  5  6  2  0
  6  7  1  0
  7  8  2  0
  7  9  1  0
  8 16  1  0
  9 10  2  0
 10 11  1  0
 10 15  1  0
 11 12  1  0
 11 13  1  0
 13 14  2  0
 14 15  1  0
 15 16  2  0
 16 17  1  0
  1 18  1  0
  2 19  1  0
  3 20  1  0
  5 21  1  0
 12 22  1  0
 12 23  1  0
 12 24  1  0
 14 25  1  0
 17 26  1  0
 17 27  1  0
M  END
>  <mol_id>  (94) 
2026-09-18-6fnk-s0-n100-r9-0094

>  <rmsd_to_ref>  (94) 
4.724489795923018

>  <pose_kind>  (94) 
conformer

$$$$
6fnk.A
     RDKit          3D

 27 29  0  0  0  0  0  0  0  0999 V2000
   -0.3975   19.0659   39.3271 C   0  0  0  0  0  0  0  0  0  0  0  0
   -0.8020   19.6582   38.1306 C   0  0  0  0  0  0  0  0  0  0  0  0
   -1.8028   20.6187   38.1368 C   0  0  0  0  0  0  0  0  0  0  0  0
   -2.4020   20.9947   39.3422 N   0  0  0  0  0  0  0  0  0  0  0  0
   -1.9941   20.3961   40.5439 C   0  0  0  0  0  0  0  0  0  0  0  0
   -0.9901   19.4296   40.5387 C   0  0  0  0  0  0  0  0  0  0  0  0
   -0.5873   18.8330   41.7379 C   0  0  0  0  0  0  0  0  0  0  0  0
    0.2455   17.7830   41.7411 N   0  0  0  0  0  0  0  0  0  0  0  0
   -1.0304   19.3159   42.9029 N   0  0  0  0  0  0  0  0  0  0  0  0
   -0.6722   18.7636   44.0758 C   0  0  0  0  0  0  0  0  0  0  0  0
   -0.9946   19.0577   45.3445 N   0  0  0  0  0  0  0  0  0  0  0  0
   -1.8800   20.1425   45.7787 C   0  0  0  0  0  0  0  0  0  0  0  0
   -0.4317   18.2876   46.1236 N   0  0  0  0  0  0  0  0  0  0  0  0
    0.3264   17.4563   45.3898 C   0  0  0  0  0  0  0  0  0  0  0  0
    0.1632   17.7297   44.0885 C   0  0  0  0  0  0  0  0  0  0  0  0
    0.6285   17.2343   42.9089 C   0  0  0  0  0  0  0  0  0  0  0  0
    1.4785   16.1792   42.8846 N   0  0  0  0  0  0  0  0  0  0  0  0
    0.3964   18.3046   39.3164 H   0  0  0  0  0  0  0  0  0  0  0  0
   -0.3277   19.3637   37.1828 H   0  0  0  0  0  0  0  0  0  0  0  0
   -2.1247   21.0843   37.1935 H   0  0  0  0  0  0  0  0  0  0  0  0
   -2.4678   20.6903   41.4921 H   0  0  0  0  0  0  0  0  0  0  0  0
   -2.6503   19.7396   46.4527 H   0  0  0  0  0  0  0  0  0  0  0  0
   -1.2917   20.9059   46.3089 H   0  0  0  0  0  0  0  0  0  0  0  0
   -2.3622   20.5960   44.9002 H   0  0  0  0  0  0  0  0  0  0  0  0
    0.9811   16.6709   45.7955 H   0  0  0  0  0  0  0  0  0  0  0  0
    1.7845   15.7439   43.7665 H   0  0  0  0  0  0  0  0  0  0  0  0
    1.8186   15.8124   41.9841 H   0  0  0  0  0  0  0  0  0  0  0  0
  1  2  2  0
  1  6  1  0
  2  3  1  0
  3  4  2  0
  4  5  1  0
  5  6  2  0
  6  7  1  0
  7  8  2  0
  7  9  1  0
  8 16  1  0
  9 10  2  0
 10 11  1  0
 10 15  1  0
 11 12  1  0
 11 13  1  0
 13 14  2  0
 14 15  1  0
 15 16  2  0
 16 17  1  0
  1 18  1  0
  2 19  1  0
  3 20  1  0
  5 21  1  0
 12 22  1  0
 12 23  1  0
 12 24  1  0
 14 25  1  0
 17 26  1  0
 17 27  1  0
M  END
>  <mol_id>  (95) 
2026-09-18-6fnk-s0-n100-r9-0095

>  <rmsd_to_ref>  (95) 
4.770408163267479

>  <pose_kind>  (95) 
rigid

$$$$
6fnk.A
     RDKit          3D

 27 29  0  0  0  0  0  0  0  0999 V2000
    1.7062   17.0160   39.4760 C   0  0  0  0  0  0  0  0  0  0  0  0
    0.9511   15.8582   39.3948 C   0  0  0  0  0  0  0  0  0  0  0  0
    0.2849   15.3851   40.5024 C   0  0  0  0  0  0  0  0  0  0  0  0
    0.3273   16.0082   41.7068 N   0  0  0  0  0  0  0  0  0  0  0  0
    1.0646   17.1454   41.8005 C   0  0  0  0  0  0  0  0  0  0  0  0
    1.7415   17.6401   40.7053 C   0  0  0  0  0  0  0  0  0  0  0  0
    2.5187   18.8651   40.8605 C   0  0  0  0  0  0  0  0  0  0  0  0
    2.5815   19.5055   42.0372 N   0  0  0  0  0  0  0  0  0  0  0  0
    3.2018   19.4007   39.8332 N   0  0  0  0  0  0  0  0  0  0  0  0
    3.9284   20.5211   39.9251 C   0  0  0  0  0  0  0  0  0  0  0  0
    4.6794   21.2383   39.0719 N   0  0  0  0  0  0  0  0  0  0  0  0
    4.9051   20.9170   37.6612 C   0  0  0  0  0  0  0  0  0  0  0  0
    5.1939   22.2958   39.7046 N   0  0  0  0  0  0  0  0  0  0  0  0
    4.7839   22.2884   40.9962 C   0  0  0  0  0  0  0  0  0  0  0  0
    3.9863   21.1719   41.1395 C   0  0  0  0  0  0  0  0  0  0  0  0
    3.2957   20.6441   42.2074 C   0  0  0  0  0  0  0  0  0  0  0  0
    3.3147   21.2683   43.4888 N   0  0  0  0  0  0  0  0  0  0  0  0
    2.2329   17.3940   38.6092 H   0  0  0  0  0  0  0  0  0  0  0  0
    0.9183   15.3611   38.4307 H   0  0  0  0  0  0  0  0  0  0  0  0
   -0.3069   14.4830   40.4502 H   0  0  0  0  0  0  0  0  0  0  0  0
    1.0980   17.6493   42.7773 H   0  0  0  0  0  0  0  0  0  0  0  0
    4.0602   21.2325   37.0409 H   0  0  0  0  0  0  0  0  0  0  0  0
    5.1411   19.8302   37.5451 H   0  0  0  0  0  0  0  0  0  0  0  0
    5.8113   21.4512   37.3158 H   0  0  0  0  0  0  0  0  0  0  0  0
    5.0107   22.9932   41.7884 H   0  0  0  0  0  0  0  0  0  0  0  0
    2.6890   22.0969   43.7068 H   0  0  0  0  0  0  0  0  0  0  0  0
    3.9745   20.8674   44.1964 H   0  0  0  0  0  0  0  0  0  0  0  0
  1  2  2  0
  1  6  1  0
  2  3  1  0
  3  4  2  0
  4  5  1  0
  5  6  2  0
  6  7  1  0
  7  8  2  0
  7  9  1  0
  8 16  1  0
  9 10  2  0
 10 11  1  0
 10 15  1  0
 11 12  1  0
 11 13  1  0
 13 14  2  0
 14 15  1  0
 15 16  2  0
 16 17  1  0
  1 18  1  0
  2 19  1  0
  3 20  1  0
  5 21  1  0
 12 22  1  0
 12 23  1  0
 12 24  1  0
 14 25  1  0
 17 26  1  0
 17 27  1  0
M  END
>  <mol_id>  (96) 
2026-09-18-6fnk-s0-n100-r9-0096

>  <rmsd_to_ref>  (96) 
4.816326530612871

>  <pose_kind>  (96) 
conformer

$$$$
6fnk.A
     RDKit          3D

 27 29  0  0  0  0  0  0  0  0999 V2000
    2.2719   18.6893   42.9779 C   0  0  0  0  0  0  0  0  0  0  0  0
    2.8107   18.9978   44.2271 C   0  0  0  0  0  0  0  0  0  0  0  0
    2.1900   18.5420   45.3810 C   0  0  0  0  0  0  0  0  0  0  0  0
    1.0277   17.7712   45.2904 N   0  0  0  0  0  0  0  0  0  0  0  0
    0.4872   17.4638   44.0325 C   0  0  0  0  0  0  0  0  0  0  0  0
    1.1089   17.9227   42.8727 C   0  0  0  0  0  0  0  0  0  0  0  0
    0.5665   17.6167   41.6204 C   0  0  0  0  0  0  0  0  0  0  0  0
    1.0403   18.1878   40.5044 N   0  0  0  0  0  0  0  0  0  0  0  0
   -0.4359   16.7371   41.5264 N   0  0  0  0  0  0  0  0  0  0  0  0
   -0.9888   16.4241   40.3411 C   0  0  0  0  0  0  0  0  0  0  0  0
   -1.9933   15.5999   40.0065 N   0  0  0  0  0  0  0  0  0  0  0  0
   -2.7788   14.7793   40.9331 C   0  0  0  0  0  0  0  0  0  0  0  0
   -2.1740   15.6103   38.7881 N   0  0  0  0  0  0  0  0  0  0  0  0
   -1.2576   16.4336   38.2528 C   0  0  0  0  0  0  0  0  0  0  0  0
   -0.5166   16.9766   39.2280 C   0  0  0  0  0  0  0  0  0  0  0  0
    0.5098   17.8672   39.3097 C   0  0  0  0  0  0  0  0  0  0  0  0
    1.0134   18.4521   38.1958 N   0  0  0  0  0  0  0  0  0  0  0  0
    2.7681   19.0534   42.0662 H   0  0  0  0  0  0  0  0  0  0  0  0
    3.7272   19.6020   44.2971 H   0  0  0  0  0  0  0  0  0  0  0  0
    2.6123   18.7872   46.3666 H   0  0  0  0  0  0  0  0  0  0  0  0
   -0.4291   16.8594   43.9617 H   0  0  0  0  0  0  0  0  0  0  0  0
   -3.8507   14.9592   40.7638 H   0  0  0  0  0  0  0  0  0  0  0  0
   -2.5540   13.7161   40.7623 H   0  0  0  0  0  0  0  0  0  0  0  0
   -2.5211   15.0467   41.9685 H   0  0  0  0  0  0  0  0  0  0  0  0
   -1.1343   16.6318   37.1779 H   0  0  0  0  0  0  0  0  0  0  0  0
    0.6224   18.2213   37.2713 H   0  0  0  0  0  0  0  0  0  0  0  0
    1.7872   19.1274   38.2738 H   0  0  0  0  0  0  0  0  0  0  0  0
  1  2  2  0
  1  6  1  0
  2  3  1  0
  3  4  2  0
  4  5  1  0
  5  6  2  0
  6  7  1  0
  7  8  2  0
  7  9  1  0
  8 16  1  0
  9 10  2  0
 10 11  1  0
 10 15  1  0
 11 12  1  0
 11 13  1  0
 13 14  2  0
 14 15  1  0
 15 16  2  0
 16 17  1  0
  1 18  1  0
  2 19  1  0
  3 20  1  0
  5 21  1  0
 12 22  1  0
 12 23  1  0
 12 24  1  0
 14 25  1  0
 17 26  1  0
 17 27  1  0
M  END
>  <mol_id>  (97) 
2026-09-18-6fnk-s0-n100-r9-0097

>  <rmsd_to_ref>  (97) 
4.862244897959198

>  <pose_kind>  (97) 
rigid

$$$$
6fnk.A
     RDKit          3D

 27 29  0  0  0  0  0  0  0  0999 V2000
    0.3199   17.0498   44.4658 C   0  0  0  0  0  0  0  0  0  0  0  0
   -0.6078   16.3553   45.2434 C   0  0  0  0  0  0  0  0  0  0  0  0
   -0.1573   15.5006   46.2290 C   0  0  0  0  0  0  0  0  0  0  0  0
    1.1511   15.2968   46.4856 N   0  0  0  0  0  0  0  0  0  0  0  0
    2.0735   15.9649   45.7381 C   0  0  0  0  0  0  0  0  0  0  0  0
    1.6570   16.8333   44.7374 C   0  0  0  0  0  0  0  0  0  0  0  0
    2.6369   17.5661   43.9170 C   0  0  0  0  0  0  0  0  0  0  0  0
    2.2610   18.4139   42.9406 N   0  0  0  0  0  0  0  0  0  0  0  0
    3.9664   17.3922   44.1399 N   0  0  0  0  0  0  0  0  0  0  0  0
    4.9038   18.0274   43.4304 C   0  0  0  0  0  0  0  0  0  0  0  0
    6.2625   18.0557   43.4224 N   0  0  0  0  0  0  0  0  0  0  0  0
    7.0935   17.2810   44.3235 C   0  0  0  0  0  0  0  0  0  0  0  0
    6.6451   18.8961   42.4682 N   0  0  0  0  0  0  0  0  0  0  0  0
    5.5821   19.4292   41.8393 C   0  0  0  0  0  0  0  0  0  0  0  0
    4.4706   18.8977   42.4272 C   0  0  0  0  0  0  0  0  0  0  0  0
    3.1305   19.0982   42.1737 C   0  0  0  0  0  0  0  0  0  0  0  0
    2.6444   19.9722   41.1653 N   0  0  0  0  0  0  0  0  0  0  0  0
   -0.0217   17.7220   43.6909 H   0  0  0  0  0  0  0  0  0  0  0  0
   -1.6678   16.4971   45.0622 H   0  0  0  0  0  0  0  0  0  0  0  0
   -0.8694   14.9555   46.8396 H   0  0  0  0  0  0  0  0  0  0  0  0
    3.1290   15.8184   45.9246 H   0  0  0  0  0  0  0  0  0  0  0  0
    8.1499   17.5701   44.1193 H   0  0  0  0  0  0  0  0  0  0  0  0
    6.9301   16.1877   44.2122 H   0  0  0  0  0  0  0  0  0  0  0  0
    6.9094   17.5541   45.3870 H   0  0  0  0  0  0  0  0  0  0  0  0
    5.5882   20.1510   41.0139 H   0  0  0  0  0  0  0  0  0  0  0  0
    3.1884   20.0368   40.2627 H   0  0  0  0  0  0  0  0  0  0  0  0
    1.7748   20.5517   41.2779 H   0  0  0  0  0  0  0  0  0  0  0  0
  1  2  2  0
  1  6  1  0
  2  3  1  0
  3  4  2  0
  4  5  1  0
  5  6  2  0
  6  7  1  0
  7  8  2  0
  7  9  1  0
  8 16  1  0
  9 10  2  0
 10 11  1  0
 10 15  1  0
 11 12  1  0
 11 13  1  0
 13 14  2  0
 14 15  1  0
 15 16  2  0
 16 17  1  0
  1 18  1  0
  2 19  1  0
  3 20  1  0
  5 21  1  0
 12 22  1  0
 12 23  1  0
 12 24  1  0
 14 25  1  0
 17 26  1  0
 17 27  1  0
M  END
>  <mol_id>  (98) 
2026-09-18-6fnk-s0-n100-r9-0098

>  <rmsd_to_ref>  (98) 
4.908163265309395

>  <pose_kind>  (98) 
conformer

$$$$
6fnk.A
     RDKit          3D

 27 29  0  0  0  0  0  0  0  0999 V2000
   -0.1909   19.2741   43.0488 C   0  0  0  0  0  0  0  0  0  0  0  0
   -0.9970   19.5442   41.9428 C   0  0  0  0  0  0  0  0  0  0  0  0
   -1.1253   18.6022   40.9325 C   0  0  0  0  0  0  0  0  0  0  0  0
   -0.4500   17.3822   41.0259 N   0  0  0  0  0  0  0  0  0  0  0  0
    0.3613   17.1140   42.1389 C   0  0  0  0  0  0  0  0  0  0  0  0
    0.4926   18.0603   43.1535 C   0  0  0  0  0  0  0  0  0  0  0  0
    1.3038   17.7910   44.2605 C   0  0  0  0  0  0  0  0  0  0  0  0
    1.5857   18.7451   45.1584 N   0  0  0  0  0  0  0  0  0  0  0  0
    1.8041   16.5638   44.4358 N   0  0  0  0  0  0  0  0  0  0  0  0
    2.5949   16.2690   45.4830 C   0  0  0  0  0  0  0  0  0  0  0  0
    3.2140   15.1375   45.8526 N   0  0  0  0  0  0  0  0  0  0  0  0
    3.1603   13.8555   45.1436 C   0  0  0  0  0  0  0  0  0  0  0  0
    3.8443   15.3103   46.8966 N   0  0  0  0  0  0  0  0  0  0  0  0
    3.6381   16.5794   47.2854 C   0  0  0  0  0  0  0  0  0  0  0  0
    2.8694   17.2063   46.3849 C   0  0  0  0  0  0  0  0  0  0  0  0
    2.3585   18.4577   46.2222 C   0  0  0  0  0  0  0  0  0  0  0  0
    2.6208   19.4381   47.1201 N   0  0  0  0  0  0  0  0  0  0  0  0
   -0.0925   20.0247   43.8469 H   0  0  0  0  0  0  0  0  0  0  0  0
   -1.5304   20.5036   41.8718 H   0  0  0  0  0  0  0  0  0  0  0  0
   -1.7583   18.8154   40.0585 H   0  0  0  0  0  0  0  0  0  0  0  0
    0.8949   16.1547   42.2107 H   0  0  0  0  0  0  0  0  0  0  0  0
    4.1829   13.4884   44.9719 H   0  0  0  0  0  0  0  0  0  0  0  0
    2.6052   13.1244   45.7496 H   0  0  0  0  0  0  0  0  0  0  0  0
    2.6526   13.9919   44.1774 H   0  0  0  0  0  0  0  0  0  0  0  0
    4.0391   17.0344   48.2031 H   0  0  0  0  0  0  0  0  0  0  0  0
    3.2099   19.2401   47.9415 H   0  0  0  0  0  0  0  0  0  0  0  0
    2.2309   20.3814   46.9813 H   0  0  0  0  0  0  0  0  0  0  0  0
  1  2  2  0
  1  6  1  0
  2  3  1  0
  3  4  2  0
  4  5  1  0
  5  6  2  0
  6  7  1  0
  7  8  2  0
  7  9  1  0
  8 16  1  0
  9 10  2  0
 10 11  1  0
 10 15  1  0
 11 12  1  0
 11 13  1  0
 13 14  2  0
 14 15  1  0
 15 16  2  0
 16 17  1  0
  1 18  1  0
  2 19  1  0
  3 20  1  0
  5 21  1  0
 12 22  1  0
 12 23  1  0
 12 24  1  0
 14 25  1  0
 17 26  1  0
 17 27  1  0
M  END
>  <mol_id>  (99) 
2026-09-18-6fnk-s0-n100-r9-0099

>  <rmsd_to_ref>  (99) 
4.954081632654571

>  <pose_kind>  (99) 
rigid

$$$$
6fnk.A
     RDKit          3D

 27 29  0  0  0  0  0  0  0  0999 V2000
   -0.1211   17.2274   46.5860 C   0  0  0  0  0  0  0  0  0  0  0  0
   -0.0504   17.1228   47.9749 C   0  0  0  0  0  0  0  0  0  0  0  0
    0.9617   16.4238   48.5938 C   0  0  0  0  0  0  0  0  0  0  0  0
    1.9126   15.8221   47.8464 N   0  0  0  0  0  0  0  0  0  0  0  0
    1.8551   15.9165   46.4918 C   0  0  0  0  0  0  0  0  0  0  0  0
    0.8488   16.6125   45.8519 C   0  0  0  0  0  0  0  0  0  0  0  0
    0.8717   16.6578   44.3906 C   0  0  0  0  0  0  0  0  0  0  0  0
    1.8802   16.0133   43.7535 N   0  0  0  0  0  0  0  0  0  0  0  0
   -0.0813   17.3204   43.6990 N   0  0  0  0  0  0  0  0  0  0  0  0
   -0.0527   17.3579   42.3369 C   0  0  0  0  0  0  0  0  0  0  0  0
   -0.8232   17.9091   41.4041 N   0  0  0  0  0  0  0  0  0  0  0  0
   -2.0192   18.6961   41.6129 C   0  0  0  0  0  0  0  0  0  0  0  0
   -0.3562   17.6491   40.1813 N   0  0  0  0  0  0  0  0  0  0  0  0
    0.7505   16.9059   40.3472 C   0  0  0  0  0  0  0  0  0  0  0  0
    0.9786   16.6985   41.6911 C   0  0  0  0  0  0  0  0  0  0  0  0
    1.9594   16.0163   42.4090 C   0  0  0  0  0  0  0  0  0  0  0  0
    3.0079   15.3461   41.7463 N   0  0  0  0  0  0  0  0  0  0  0  0
   -0.9201   17.7784   46.1171 H   0  0  0  0  0  0  0  0  0  0  0  0
   -0.7979   17.5936   48.6152 H   0  0  0  0  0  0  0  0  0  0  0  0
    1.0343   16.3303   49.6862 H   0  0  0  0  0  0  0  0  0  0  0  0
    2.6548   15.4072   45.9438 H   0  0  0  0  0  0  0  0  0  0  0  0
   -1.8890   19.2490   42.5565 H   0  0  0  0  0  0  0  0  0  0  0  0
   -2.9133   18.0572   41.7074 H   0  0  0  0  0  0  0  0  0  0  0  0
   -2.2104   19.4048   40.7767 H   0  0  0  0  0  0  0  0  0  0  0  0
    1.4133   16.4968   39.5759 H   0  0  0  0  0  0  0  0  0  0  0  0
    2.9815   15.1883   40.7176 H   0  0  0  0  0  0  0  0  0  0  0  0
    3.8237   15.0032   42.2986 H   0  0  0  0  0  0  0  0  0  0  0  0
  1  2  2  0
  1  6  1  0
  2  3  1  0
  3  4  2  0
  4  5  1  0
  5  6  2  0
  6  7  1  0
  7  8  2  0
  7  9  1  0
  8 16  1  0
  9 10  2  0
 10 11  1  0
 10 15  1  0
 11 12  1  0
 11 13  1  0
 13 14  2  0
 14 15  1  0
 15 16  2  0
 16 17  1  0
  1 18  1  0
  2 19  1  0
  3 20  1  0
  5 21  1  0
 12 22  1  0
 12 23  1  0
 12 24  1  0
 14 25  1  0
 17 26  1  0
 17 27  1  0
M  END
>  <mol_id>  (100) 
2026-09-18-6fnk-s0-n100-r9-0100

>  <rmsd_to_ref>  (100) 
5.000000000003391

>  <pose_kind>  (100) 
conformer

$$$$
