6tgu.A
     RDKit          3D

 32 34  0  0  0  0  0  0  0  0999 V2000
    3.2704   20.0816   36.9100 C   0  0  0  0  0  0  0  0  0  0  0  0
    2.7239   19.8375   38.3194 C   0  0  0  0  0  0  0  0  0  0  0  0
    1.9745   20.8172   38.9669 C   0  0  0  0  0  0  0  0  0  0  0  0
    1.3019   20.5646   40.1670 C   0  0  0  0  0  0  0  0  0  0  0  0
    1.5079   19.3565   40.8488 C   0  0  0  0  0  0  0  0  0  0  0  0
    0.4444   17.8615   42.6087 C   0  0  0  0  0  0  0  0  0  0  0  0
    0.4288   15.6073   42.9153 C   0  0  0  0  0  0  0  0  0  0  0  0
    0.8553   14.2304   42.6635 C   0  0  0  0  0  0  0  0  0  0  0  0
    0.2328   13.1351   43.2790 C   0  0  0  0  0  0  0  0  0  0  0  0
    0.6322   11.8319   42.9995 C   0  0  0  0  0  0  0  0  0  0  0  0
    1.6306   11.6302   42.0652 C   0  0  0  0  0  0  0  0  0  0  0  0
    2.2690   12.6840   41.4288 C   0  0  0  0  0  0  0  0  0  0  0  0
    1.8629   13.9810   41.7304 C   0  0  0  0  0  0  0  0  0  0  0  0
   -0.5843   15.9508   43.7709 C   0  0  0  0  0  0  0  0  0  0  0  0
    2.2504   18.3557   40.2060 C   0  0  0  0  0  0  0  0  0  0  0  0
    2.8437   18.6148   38.9691 C   0  0  0  0  0  0  0  0  0  0  0  0
    0.7803   19.0569   42.0413 N   0  0  0  0  0  0  0  0  0  0  0  0
    0.9791   16.6716   42.1626 N   0  0  0  0  0  0  0  0  0  0  0  0
    2.8674   21.1275   36.3211 O   0  0  0  0  0  0  0  0  0  0  0  0
    4.0035   19.1925   36.4244 O   0  0  0  0  0  0  0  0  0  0  0  0
    3.4800   17.5959   38.3007 O   0  0  0  0  0  0  0  0  0  0  0  0
   -0.9334   17.6347   43.6687 S   0  0  0  0  0  0  0  0  0  0  0  0
    2.1103   10.0114   41.6767 Cl  0  0  0  0  0  0  0  0  0  0  0  0
    1.9097   21.8205   38.5206 H   0  0  0  0  0  0  0  0  0  0  0  0
    0.6099   21.3151   40.5769 H   0  0  0  0  0  0  0  0  0  0  0  0
   -0.5845   13.3089   43.9944 H   0  0  0  0  0  0  0  0  0  0  0  0
    0.1628   10.9792   43.5119 H   0  0  0  0  0  0  0  0  0  0  0  0
    3.0758   12.4998   40.7041 H   0  0  0  0  0  0  0  0  0  0  0  0
    2.3468   14.8280   41.2221 H   0  0  0  0  0  0  0  0  0  0  0  0
   -1.1055   15.2454   44.4348 H   0  0  0  0  0  0  0  0  0  0  0  0
    2.3653   17.3677   40.6757 H   0  0  0  0  0  0  0  0  0  0  0  0
    0.4535   19.8836   42.5615 H   0  0  0  0  0  0  0  0  0  0  0  0
  1  2  1  0
  1 19  1  0
  1 20  2  0
  2  3  1  0
  2 16  2  0
  3  4  2  0
  4  5  1  0
  5 15  2  0
  5 17  1  0
  6 17  1  0
  6 18  2  0
  6 22  1  0
  7  8  1  0
  7 14  2  0
  7 18  1  0
  8  9  1  0
  8 13  2  0
  9 10  2  0
 10 11  1  0
 11 12  2  0
 11 23  1  0
 12 13  1  0
 14 22  1  0
 15 16  1  0
 16 21  1  0
  3 24  1  0
  4 25  1  0
  9 26  1  0
 10 27  1  0
 12 28  1  0
 13 29  1  0
 14 30  1  0
 15 31  1  0
 17 32  1  0
M  CHG  2  19  -1  21  -1
M  END
>  <mol_id>  (1) 
2026-08-23-6tgu-s0-n100-r6-0001

>  <rmsd_to_ref>  (1) 
0.0

$$$$
6tgu.A
     RDKit          3D

 32 34  0  0  0  0  0  0  0  0999 V2000
    3.6345   20.0437   37.3038 C   0  0  0  0  0  0  0  0  0  0  0  0
    2.9120   19.8525   38.5487 C   0  0  0  0  0  0  0  0  0  0  0  0
    2.4533   20.9244   39.2826 C   0  0  0  0  0  0  0  0  0  0  0  0
    1.7724   20.7025   40.4577 C   0  0  0  0  0  0  0  0  0  0  0  0
    1.5206   19.4198   40.9491 C   0  0  0  0  0  0  0  0  0  0  0  0
    0.5680   17.9353   42.6494 C   0  0  0  0  0  0  0  0  0  0  0  0
    0.3566   15.7450   43.1157 C   0  0  0  0  0  0  0  0  0  0  0  0
    0.6456   14.3584   42.6878 C   0  0  0  0  0  0  0  0  0  0  0  0
    0.2351   13.2780   43.4416 C   0  0  0  0  0  0  0  0  0  0  0  0
    0.4960   11.9785   43.0574 C   0  0  0  0  0  0  0  0  0  0  0  0
    1.1829   11.7306   41.8946 C   0  0  0  0  0  0  0  0  0  0  0  0
    1.6087   12.7898   41.1158 C   0  0  0  0  0  0  0  0  0  0  0  0
    1.3325   14.0724   41.5267 C   0  0  0  0  0  0  0  0  0  0  0  0
   -0.3324   15.9968   44.2818 C   0  0  0  0  0  0  0  0  0  0  0  0
    2.0009   18.3827   40.1767 C   0  0  0  0  0  0  0  0  0  0  0  0
    2.6871   18.5695   38.9941 C   0  0  0  0  0  0  0  0  0  0  0  0
    0.8158   19.2367   42.1634 N   0  0  0  0  0  0  0  0  0  0  0  0
    0.7126   16.8129   42.4559 N   0  0  0  0  0  0  0  0  0  0  0  0
    3.8687   21.3507   36.8414 O   0  0  0  0  0  0  0  0  0  0  0  0
    4.0425   19.0611   36.6523 O   0  0  0  0  0  0  0  0  0  0  0  0
    3.1442   17.4645   38.2646 O   0  0  0  0  0  0  0  0  0  0  0  0
   -0.3909   17.8746   44.2920 S   0  0  0  0  0  0  0  0  0  0  0  0
    1.5255   10.0804   41.3876 Cl  0  0  0  0  0  0  0  0  0  0  0  0
    2.6506   21.9156   38.8981 H   0  0  0  0  0  0  0  0  0  0  0  0
    1.4283   21.5760   41.0051 H   0  0  0  0  0  0  0  0  0  0  0  0
   -0.3141   13.4414   44.3729 H   0  0  0  0  0  0  0  0  0  0  0  0
    0.1455   11.1778   43.6951 H   0  0  0  0  0  0  0  0  0  0  0  0
    2.1533   12.6198   40.1924 H   0  0  0  0  0  0  0  0  0  0  0  0
    1.6657   14.8952   40.9175 H   0  0  0  0  0  0  0  0  0  0  0  0
   -0.7633   15.4260   45.0459 H   0  0  0  0  0  0  0  0  0  0  0  0
    1.8508   17.3567   40.4819 H   0  0  0  0  0  0  0  0  0  0  0  0
    0.5048   20.1181   42.6531 H   0  0  0  0  0  0  0  0  0  0  0  0
  1  2  1  0
  1 19  1  0
  1 20  2  0
  2  3  1  0
  2 16  2  0
  3  4  2  0
  4  5  1  0
  5 15  2  0
  5 17  1  0
  6 17  1  0
  6 18  2  0
  6 22  1  0
  7  8  1  0
  7 14  2  0
  7 18  1  0
  8  9  1  0
  8 13  2  0
  9 10  2  0
 10 11  1  0
 11 12  2  0
 11 23  1  0
 12 13  1  0
 14 22  1  0
 15 16  1  0
 16 21  1  0
  3 24  1  0
  4 25  1  0
  9 26  1  0
 10 27  1  0
 12 28  1  0
 13 29  1  0
 14 30  1  0
 15 31  1  0
 17 32  1  0
M  CHG  2  19  -1  21  -1
M  END
>  <mol_id>  (2) 
2026-08-23-6tgu-s0-n100-r6-0002

>  <rmsd_to_ref>  (2) 
0.5000000000049151

$$$$
6tgu.A
     RDKit          3D

 32 34  0  0  0  0  0  0  0  0999 V2000
    2.6409   20.4068   36.7967 C   0  0  0  0  0  0  0  0  0  0  0  0
    2.3250   20.0530   38.2526 C   0  0  0  0  0  0  0  0  0  0  0  0
    1.6608   20.9619   39.0732 C   0  0  0  0  0  0  0  0  0  0  0  0
    1.1882   20.6088   40.3415 C   0  0  0  0  0  0  0  0  0  0  0  0
    1.5267   19.3670   40.8984 C   0  0  0  0  0  0  0  0  0  0  0  0
    0.7851   17.7249   42.6919 C   0  0  0  0  0  0  0  0  0  0  0  0
    0.8724   15.4564   42.8402 C   0  0  0  0  0  0  0  0  0  0  0  0
    1.2886   14.1144   42.4314 C   0  0  0  0  0  0  0  0  0  0  0  0
    0.7958   12.9605   43.0572 C   0  0  0  0  0  0  0  0  0  0  0  0
    1.1790   11.6929   42.6303 C   0  0  0  0  0  0  0  0  0  0  0  0
    2.0257   11.5871   41.5429 C   0  0  0  0  0  0  0  0  0  0  0  0
    2.5320   12.7016   40.8912 C   0  0  0  0  0  0  0  0  0  0  0  0
    2.1456   13.9613   41.3405 C   0  0  0  0  0  0  0  0  0  0  0  0
   -0.0044   15.7082   43.8621 C   0  0  0  0  0  0  0  0  0  0  0  0
    2.1853   18.4364   40.0820 C   0  0  0  0  0  0  0  0  0  0  0  0
    2.5738   18.7957   38.7900 C   0  0  0  0  0  0  0  0  0  0  0  0
    0.9998   18.9655   42.1642 N   0  0  0  0  0  0  0  0  0  0  0  0
    1.2735   16.5858   42.0880 N   0  0  0  0  0  0  0  0  0  0  0  0
    2.1262   21.4739   36.3502 O   0  0  0  0  0  0  0  0  0  0  0  0
    3.3117   19.5771   36.1444 O   0  0  0  0  0  0  0  0  0  0  0  0
    3.1239   17.8450   37.9633 O   0  0  0  0  0  0  0  0  0  0  0  0
   -0.4063   17.3819   43.9314 S   0  0  0  0  0  0  0  0  0  0  0  0
    2.4792   10.0146   40.9745 Cl  0  0  0  0  0  0  0  0  0  0  0  0
    1.5032   21.9891   38.7127 H   0  0  0  0  0  0  0  0  0  0  0  0
    0.5497   21.3065   40.9031 H   0  0  0  0  0  0  0  0  0  0  0  0
    0.0948   13.0590   43.8992 H   0  0  0  0  0  0  0  0  0  0  0  0
    0.8155   10.7929   43.1479 H   0  0  0  0  0  0  0  0  0  0  0  0
    3.2213   12.5930   40.0409 H   0  0  0  0  0  0  0  0  0  0  0  0
    2.5242   14.8559   40.8243 H   0  0  0  0  0  0  0  0  0  0  0  0
   -0.3992   14.9435   44.5472 H   0  0  0  0  0  0  0  0  0  0  0  0
    2.3956   17.4247   40.4590 H   0  0  0  0  0  0  0  0  0  0  0  0
    0.7372   19.7449   42.7843 H   0  0  0  0  0  0  0  0  0  0  0  0
  1  2  1  0
  1 19  1  0
  1 20  2  0
  2  3  1  0
  2 16  2  0
  3  4  2  0
  4  5  1  0
  5 15  2  0
  5 17  1  0
  6 17  1  0
  6 18  2  0
  6 22  1  0
  7  8  1  0
  7 14  2  0
  7 18  1  0
  8  9  1  0
  8 13  2  0
  9 10  2  0
 10 11  1  0
 11 12  2  0
 11 23  1  0
 12 13  1  0
 14 22  1  0
 15 16  1  0
 16 21  1  0
  3 24  1  0
  4 25  1  0
  9 26  1  0
 10 27  1  0
 12 28  1  0
 13 29  1  0
 14 30  1  0
 15 31  1  0
 17 32  1  0
M  CHG  2  19  -1  21  -1
M  END
>  <mol_id>  (3) 
2026-08-23-6tgu-s0-n100-r6-0003

>  <rmsd_to_ref>  (3) 
0.545918367354178

$$$$
6tgu.A
     RDKit          3D

 32 34  0  0  0  0  0  0  0  0999 V2000
    3.6573   19.5515   36.8846 C   0  0  0  0  0  0  0  0  0  0  0  0
    2.9016   19.5061   38.1236 C   0  0  0  0  0  0  0  0  0  0  0  0
    2.3563   20.6461   38.6724 C   0  0  0  0  0  0  0  0  0  0  0  0
    1.6466   20.5624   39.8483 C   0  0  0  0  0  0  0  0  0  0  0  0
    1.4499   19.3554   40.5226 C   0  0  0  0  0  0  0  0  0  0  0  0
    0.5212   18.0884   42.4026 C   0  0  0  0  0  0  0  0  0  0  0  0
    0.4173   15.9845   43.1917 C   0  0  0  0  0  0  0  0  0  0  0  0
    0.7998   14.5698   42.9887 C   0  0  0  0  0  0  0  0  0  0  0  0
    0.4237   13.5922   43.8869 C   0  0  0  0  0  0  0  0  0  0  0  0
    0.7717   12.2682   43.7130 C   0  0  0  0  0  0  0  0  0  0  0  0
    1.5137   11.8906   42.6210 C   0  0  0  0  0  0  0  0  0  0  0  0
    1.9070   12.8444   41.7018 C   0  0  0  0  0  0  0  0  0  0  0  0
    1.5438   14.1548   41.9043 C   0  0  0  0  0  0  0  0  0  0  0  0
   -0.3272   16.3664   44.2863 C   0  0  0  0  0  0  0  0  0  0  0  0
    2.0161   18.2452   39.9311 C   0  0  0  0  0  0  0  0  0  0  0  0
    2.7336   18.2935   38.7532 C   0  0  0  0  0  0  0  0  0  0  0  0
    0.7125   19.3144   41.7307 N   0  0  0  0  0  0  0  0  0  0  0  0
    0.7361   16.9607   42.3867 N   0  0  0  0  0  0  0  0  0  0  0  0
    3.8339   20.7858   36.2347 O   0  0  0  0  0  0  0  0  0  0  0  0
    4.1439   18.5089   36.4023 O   0  0  0  0  0  0  0  0  0  0  0  0
    3.2789   17.1214   38.2139 O   0  0  0  0  0  0  0  0  0  0  0  0
   -0.4922   18.2171   44.0081 S   0  0  0  0  0  0  0  0  0  0  0  0
    1.9675   10.2070   42.3816 Cl  0  0  0  0  0  0  0  0  0  0  0  0
    2.5112   21.5782   38.1467 H   0  0  0  0  0  0  0  0  0  0  0  0
    1.2336   21.4855   40.2462 H   0  0  0  0  0  0  0  0  0  0  0  0
   -0.1676   13.8600   44.7669 H   0  0  0  0  0  0  0  0  0  0  0  0
    0.4440   11.5527   44.4555 H   0  0  0  0  0  0  0  0  0  0  0  0
    2.4939   12.5710   40.8305 H   0  0  0  0  0  0  0  0  0  0  0  0
    1.8520   14.8954   41.1861 H   0  0  0  0  0  0  0  0  0  0  0  0
   -0.7528   15.8919   45.1164 H   0  0  0  0  0  0  0  0  0  0  0  0
    1.9133   17.2697   40.3851 H   0  0  0  0  0  0  0  0  0  0  0  0
    0.3345   20.2387   42.0713 H   0  0  0  0  0  0  0  0  0  0  0  0
  1  2  1  0
  1 19  1  0
  1 20  2  0
  2  3  1  0
  2 16  2  0
  3  4  2  0
  4  5  1  0
  5 15  2  0
  5 17  1  0
  6 17  1  0
  6 18  2  0
  6 22  1  0
  7  8  1  0
  7 14  2  0
  7 18  1  0
  8  9  1  0
  8 13  2  0
  9 10  2  0
 10 11  1  0
 11 12  2  0
 11 23  1  0
 12 13  1  0
 14 22  1  0
 15 16  1  0
 16 21  1  0
  3 24  1  0
  4 25  1  0
  9 26  1  0
 10 27  1  0
 12 28  1  0
 13 29  1  0
 14 30  1  0
 15 31  1  0
 17 32  1  0
M  CHG  2  19  -1  21  -1
M  END
>  <mol_id>  (4) 
2026-08-23-6tgu-s0-n100-r6-0004

>  <rmsd_to_ref>  (4) 
0.5918367347029568

$$$$
6tgu.A
     RDKit          3D

 32 34  0  0  0  0  0  0  0  0999 V2000
    2.5432   19.8658   36.6430 C   0  0  0  0  0  0  0  0  0  0  0  0
    2.3110   19.6890   38.1461 C   0  0  0  0  0  0  0  0  0  0  0  0
    1.8922   20.7630   38.9282 C   0  0  0  0  0  0  0  0  0  0  0  0
    1.4886   20.6001   40.2575 C   0  0  0  0  0  0  0  0  0  0  0  0
    1.6618   19.3654   40.8996 C   0  0  0  0  0  0  0  0  0  0  0  0
    0.8245   18.0271   42.8924 C   0  0  0  0  0  0  0  0  0  0  0  0
    0.5377   15.7980   43.2451 C   0  0  0  0  0  0  0  0  0  0  0  0
    0.6784   14.3756   42.9320 C   0  0  0  0  0  0  0  0  0  0  0  0
    0.0578   13.3804   43.7003 C   0  0  0  0  0  0  0  0  0  0  0  0
    0.1773   12.0353   43.3650 C   0  0  0  0  0  0  0  0  0  0  0  0
    0.8866   11.6957   42.2283 C   0  0  0  0  0  0  0  0  0  0  0  0
    1.5113   12.6477   41.4369 C   0  0  0  0  0  0  0  0  0  0  0  0
    1.3896   13.9874   41.7955 C   0  0  0  0  0  0  0  0  0  0  0  0
   -0.1826   16.2810   44.3054 C   0  0  0  0  0  0  0  0  0  0  0  0
    2.0718   18.2715   40.1241 C   0  0  0  0  0  0  0  0  0  0  0  0
    2.3916   18.4535   38.7774 C   0  0  0  0  0  0  0  0  0  0  0  0
    1.1965   19.1645   42.2354 N   0  0  0  0  0  0  0  0  0  0  0  0
    1.0522   16.7755   42.3609 N   0  0  0  0  0  0  0  0  0  0  0  0
    2.1778   20.9692   36.1408 O   0  0  0  0  0  0  0  0  0  0  0  0
    2.9980   18.8815   36.0200 O   0  0  0  0  0  0  0  0  0  0  0  0
    2.6910   17.3584   38.0023 O   0  0  0  0  0  0  0  0  0  0  0  0
   -0.2851   17.9998   44.2494 S   0  0  0  0  0  0  0  0  0  0  0  0
    1.0096   10.0280   41.7754 Cl  0  0  0  0  0  0  0  0  0  0  0  0
    1.8784   21.7705   38.4867 H   0  0  0  0  0  0  0  0  0  0  0  0
    1.0344   21.4421   40.8004 H   0  0  0  0  0  0  0  0  0  0  0  0
   -0.5332   13.6676   44.5825 H   0  0  0  0  0  0  0  0  0  0  0  0
   -0.2836   11.2577   43.9918 H   0  0  0  0  0  0  0  0  0  0  0  0
    2.0884   12.3519   40.5484 H   0  0  0  0  0  0  0  0  0  0  0  0
    1.8645   14.7571   41.1693 H   0  0  0  0  0  0  0  0  0  0  0  0
   -0.6353   15.6549   45.0884 H   0  0  0  0  0  0  0  0  0  0  0  0
    2.1414   17.2711   40.5763 H   0  0  0  0  0  0  0  0  0  0  0  0
    1.1304   20.0243   42.7987 H   0  0  0  0  0  0  0  0  0  0  0  0
  1  2  1  0
  1 19  1  0
  1 20  2  0
  2  3  1  0
  2 16  2  0
  3  4  2  0
  4  5  1  0
  5 15  2  0
  5 17  1  0
  6 17  1  0
  6 18  2  0
  6 22  1  0
  7  8  1  0
  7 14  2  0
  7 18  1  0
  8  9  1  0
  8 13  2  0
  9 10  2  0
 10 11  1  0
 11 12  2  0
 11 23  1  0
 12 13  1  0
 14 22  1  0
 15 16  1  0
 16 21  1  0
  3 24  1  0
  4 25  1  0
  9 26  1  0
 10 27  1  0
 12 28  1  0
 13 29  1  0
 14 30  1  0
 15 31  1  0
 17 32  1  0
M  CHG  2  19  -1  21  -1
M  END
>  <mol_id>  (5) 
2026-08-23-6tgu-s0-n100-r6-0005

>  <rmsd_to_ref>  (5) 
0.6377551020452902

$$$$
6tgu.A
     RDKit          3D

 32 34  0  0  0  0  0  0  0  0999 V2000
    3.8864   19.7443   37.1462 C   0  0  0  0  0  0  0  0  0  0  0  0
    2.9290   19.6436   38.2332 C   0  0  0  0  0  0  0  0  0  0  0  0
    2.1778   20.7286   38.6290 C   0  0  0  0  0  0  0  0  0  0  0  0
    1.2806   20.5936   39.6636 C   0  0  0  0  0  0  0  0  0  0  0  0
    1.0931   19.3877   40.3425 C   0  0  0  0  0  0  0  0  0  0  0  0
   -0.0211   18.0685   42.0805 C   0  0  0  0  0  0  0  0  0  0  0  0
   -0.0449   15.9844   42.9263 C   0  0  0  0  0  0  0  0  0  0  0  0
    0.5137   14.6162   42.8533 C   0  0  0  0  0  0  0  0  0  0  0  0
    0.0864   13.6236   43.7112 C   0  0  0  0  0  0  0  0  0  0  0  0
    0.5965   12.3425   43.6570 C   0  0  0  0  0  0  0  0  0  0  0  0
    1.5582   12.0246   42.7299 C   0  0  0  0  0  0  0  0  0  0  0  0
    2.0087   12.9950   41.8553 C   0  0  0  0  0  0  0  0  0  0  0  0
    1.4800   14.2616   41.9356 C   0  0  0  0  0  0  0  0  0  0  0  0
   -1.0100   16.3063   43.8553 C   0  0  0  0  0  0  0  0  0  0  0  0
    1.8694   18.3337   39.9073 C   0  0  0  0  0  0  0  0  0  0  0  0
    2.7781   18.4344   38.8735 C   0  0  0  0  0  0  0  0  0  0  0  0
    0.1588   19.2928   41.4022 N   0  0  0  0  0  0  0  0  0  0  0  0
    0.3098   16.9714   42.1500 N   0  0  0  0  0  0  0  0  0  0  0  0
    4.0471   20.9757   36.4866 O   0  0  0  0  0  0  0  0  0  0  0  0
    4.5581   18.7512   36.8014 O   0  0  0  0  0  0  0  0  0  0  0  0
    3.5311   17.3178   38.4884 O   0  0  0  0  0  0  0  0  0  0  0  0
   -1.3148   18.1207   43.4751 S   0  0  0  0  0  0  0  0  0  0  0  0
    2.2212   10.3964   42.6449 Cl  0  0  0  0  0  0  0  0  0  0  0  0
    2.3264   21.6600   38.1003 H   0  0  0  0  0  0  0  0  0  0  0  0
    0.7086   21.4742   39.9434 H   0  0  0  0  0  0  0  0  0  0  0  0
   -0.6783   13.8442   44.4610 H   0  0  0  0  0  0  0  0  0  0  0  0
    0.2171   11.6120   44.3593 H   0  0  0  0  0  0  0  0  0  0  0  0
    2.7681   12.7685   41.1136 H   0  0  0  0  0  0  0  0  0  0  0  0
    1.8332   15.0153   41.2527 H   0  0  0  0  0  0  0  0  0  0  0  0
   -1.5260   15.8065   44.6164 H   0  0  0  0  0  0  0  0  0  0  0  0
    1.7891   17.3633   40.3764 H   0  0  0  0  0  0  0  0  0  0  0  0
   -0.3690   20.1771   41.6318 H   0  0  0  0  0  0  0  0  0  0  0  0
  1  2  1  0
  1 19  1  0
  1 20  2  0
  2  3  1  0
  2 16  2  0
  3  4  2  0
  4  5  1  0
  5 15  2  0
  5 17  1  0
  6 17  1  0
  6 18  2  0
  6 22  1  0
  7  8  1  0
  7 14  2  0
  7 18  1  0
  8  9  1  0
  8 13  2  0
  9 10  2  0
 10 11  1  0
 11 12  2  0
 11 23  1  0
 12 13  1  0
 14 22  1  0
 15 16  1  0
 16 21  1  0
  3 24  1  0
  4 25  1  0
  9 26  1  0
 10 27  1  0
 12 28  1  0
 13 29  1  0
 14 30  1  0
 15 31  1  0
 17 32  1  0
M  CHG  2  19  -1  21  -1
M  END
>  <mol_id>  (6) 
2026-08-23-6tgu-s0-n100-r6-0006

>  <rmsd_to_ref>  (6) 
0.683673469392118

$$$$
6tgu.A
     RDKit          3D

 32 34  0  0  0  0  0  0  0  0999 V2000
    2.5066   20.6739   36.9877 C   0  0  0  0  0  0  0  0  0  0  0  0
    2.0701   20.2659   38.3975 C   0  0  0  0  0  0  0  0  0  0  0  0
    1.1977   21.0695   39.1282 C   0  0  0  0  0  0  0  0  0  0  0  0
    0.6293   20.6432   40.3330 C   0  0  0  0  0  0  0  0  0  0  0  0
    1.0621   19.4519   40.9331 C   0  0  0  0  0  0  0  0  0  0  0  0
    0.3386   17.7068   42.6346 C   0  0  0  0  0  0  0  0  0  0  0  0
    0.7100   15.4688   42.8047 C   0  0  0  0  0  0  0  0  0  0  0  0
    1.3473   14.1986   42.4557 C   0  0  0  0  0  0  0  0  0  0  0  0
    0.9422   12.9828   43.0247 C   0  0  0  0  0  0  0  0  0  0  0  0
    1.5394   11.7821   42.6535 C   0  0  0  0  0  0  0  0  0  0  0  0
    2.5157   11.8016   41.6753 C   0  0  0  0  0  0  0  0  0  0  0  0
    2.9423   12.9804   41.0824 C   0  0  0  0  0  0  0  0  0  0  0  0
    2.3406   14.1726   41.4755 C   0  0  0  0  0  0  0  0  0  0  0  0
   -0.3077   15.5907   43.7134 C   0  0  0  0  0  0  0  0  0  0  0  0
    1.9313   18.6260   40.2061 C   0  0  0  0  0  0  0  0  0  0  0  0
    2.4190   19.0474   38.9677 C   0  0  0  0  0  0  0  0  0  0  0  0
    0.4468   18.9705   42.1294 N   0  0  0  0  0  0  0  0  0  0  0  0
    1.0431   16.6494   42.0994 N   0  0  0  0  0  0  0  0  0  0  0  0
    1.9106   21.6675   36.4772 O   0  0  0  0  0  0  0  0  0  0  0  0
    3.3549   19.9480   36.4246 O   0  0  0  0  0  0  0  0  0  0  0  0
    3.1855   18.1873   38.2176 O   0  0  0  0  0  0  0  0  0  0  0  0
   -0.9350   17.1951   43.7251 S   0  0  0  0  0  0  0  0  0  0  0  0
    3.2395   10.3096   41.1735 Cl  0  0  0  0  0  0  0  0  0  0  0  0
    0.9483   22.0703   38.7458 H   0  0  0  0  0  0  0  0  0  0  0  0
   -0.1589   21.2437   40.8108 H   0  0  0  0  0  0  0  0  0  0  0  0
    0.1394   12.9781   43.7766 H   0  0  0  0  0  0  0  0  0  0  0  0
    1.2405   10.8363   43.1290 H   0  0  0  0  0  0  0  0  0  0  0  0
    3.7361   12.9735   40.3209 H   0  0  0  0  0  0  0  0  0  0  0  0
    2.6549   15.1150   41.0032 H   0  0  0  0  0  0  0  0  0  0  0  0
   -0.6754   14.7730   44.3508 H   0  0  0  0  0  0  0  0  0  0  0  0
    2.2286   17.6474   40.6110 H   0  0  0  0  0  0  0  0  0  0  0  0
    0.0107   19.7013   42.7095 H   0  0  0  0  0  0  0  0  0  0  0  0
  1  2  1  0
  1 19  1  0
  1 20  2  0
  2  3  1  0
  2 16  2  0
  3  4  2  0
  4  5  1  0
  5 15  2  0
  5 17  1  0
  6 17  1  0
  6 18  2  0
  6 22  1  0
  7  8  1  0
  7 14  2  0
  7 18  1  0
  8  9  1  0
  8 13  2  0
  9 10  2  0
 10 11  1  0
 11 12  2  0
 11 23  1  0
 12 13  1  0
 14 22  1  0
 15 16  1  0
 16 21  1  0
  3 24  1  0
  4 25  1  0
  9 26  1  0
 10 27  1  0
 12 28  1  0
 13 29  1  0
 14 30  1  0
 15 31  1  0
 17 32  1  0
M  CHG  2  19  -1  21  -1
M  END
>  <mol_id>  (7) 
2026-08-23-6tgu-s0-n100-r6-0007

>  <rmsd_to_ref>  (7) 
0.7295918367406566

$$$$
6tgu.A
     RDKit          3D

 32 34  0  0  0  0  0  0  0  0999 V2000
    3.7009   20.0346   37.6585 C   0  0  0  0  0  0  0  0  0  0  0  0
    2.7079   19.7172   38.6691 C   0  0  0  0  0  0  0  0  0  0  0  0
    1.7565   20.6370   39.0525 C   0  0  0  0  0  0  0  0  0  0  0  0
    0.8320   20.2986   40.0139 C   0  0  0  0  0  0  0  0  0  0  0  0
    0.8130   19.0453   40.6295 C   0  0  0  0  0  0  0  0  0  0  0  0
   -0.1649   17.4687   42.2296 C   0  0  0  0  0  0  0  0  0  0  0  0
    0.1183   15.3702   42.9885 C   0  0  0  0  0  0  0  0  0  0  0  0
    0.9087   14.1224   42.9018 C   0  0  0  0  0  0  0  0  0  0  0  0
    0.6057   13.0290   43.6870 C   0  0  0  0  0  0  0  0  0  0  0  0
    1.3322   11.8577   43.6190 C   0  0  0  0  0  0  0  0  0  0  0  0
    2.3917   11.7558   42.7514 C   0  0  0  0  0  0  0  0  0  0  0  0
    2.7224   12.8322   41.9505 C   0  0  0  0  0  0  0  0  0  0  0  0
    1.9784   13.9847   42.0425 C   0  0  0  0  0  0  0  0  0  0  0  0
   -0.9453   15.4754   43.8579 C   0  0  0  0  0  0  0  0  0  0  0  0
    1.7862   18.1623   40.2098 C   0  0  0  0  0  0  0  0  0  0  0  0
    2.7279   18.4687   39.2487 C   0  0  0  0  0  0  0  0  0  0  0  0
   -0.1566   18.7388   41.6148 N   0  0  0  0  0  0  0  0  0  0  0  0
    0.3457   16.4416   42.2793 N   0  0  0  0  0  0  0  0  0  0  0  0
    3.6879   21.3075   37.0612 O   0  0  0  0  0  0  0  0  0  0  0  0
    4.5550   19.1891   37.3238 O   0  0  0  0  0  0  0  0  0  0  0  0
    3.6858   17.5176   38.8748 O   0  0  0  0  0  0  0  0  0  0  0  0
   -1.5345   17.2288   43.5287 S   0  0  0  0  0  0  0  0  0  0  0  0
    3.3304   10.2704   42.6500 Cl  0  0  0  0  0  0  0  0  0  0  0  0
    1.7752   21.6060   38.5730 H   0  0  0  0  0  0  0  0  0  0  0  0
    0.0996   21.0538   40.2866 H   0  0  0  0  0  0  0  0  0  0  0  0
   -0.2320   13.0778   44.3881 H   0  0  0  0  0  0  0  0  0  0  0  0
    1.0408   11.0384   44.2628 H   0  0  0  0  0  0  0  0  0  0  0  0
    3.5554   12.7763   41.2568 H   0  0  0  0  0  0  0  0  0  0  0  0
    2.2389   14.8214   41.4170 H   0  0  0  0  0  0  0  0  0  0  0  0
   -1.4146   14.8569   44.5596 H   0  0  0  0  0  0  0  0  0  0  0  0
    1.8452   17.1696   40.6333 H   0  0  0  0  0  0  0  0  0  0  0  0
   -0.8430   19.5076   41.8407 H   0  0  0  0  0  0  0  0  0  0  0  0
  1  2  1  0
  1 19  1  0
  1 20  2  0
  2  3  1  0
  2 16  2  0
  3  4  2  0
  4  5  1  0
  5 15  2  0
  5 17  1  0
  6 17  1  0
  6 18  2  0
  6 22  1  0
  7  8  1  0
  7 14  2  0
  7 18  1  0
  8  9  1  0
  8 13  2  0
  9 10  2  0
 10 11  1  0
 11 12  2  0
 11 23  1  0
 12 13  1  0
 14 22  1  0
 15 16  1  0
 16 21  1  0
  3 24  1  0
  4 25  1  0
  9 26  1  0
 10 27  1  0
 12 28  1  0
 13 29  1  0
 14 30  1  0
 15 31  1  0
 17 32  1  0
M  CHG  2  19  -1  21  -1
M  END
>  <mol_id>  (8) 
2026-08-23-6tgu-s0-n100-r6-0008

>  <rmsd_to_ref>  (8) 
0.7755102040854741

$$$$
6tgu.A
     RDKit          3D

 32 34  0  0  0  0  0  0  0  0999 V2000
    3.1481   19.6287   36.5499 C   0  0  0  0  0  0  0  0  0  0  0  0
    2.5566   19.5217   37.9582 C   0  0  0  0  0  0  0  0  0  0  0  0
    1.5997   20.4351   38.3947 C   0  0  0  0  0  0  0  0  0  0  0  0
    0.9006   20.2615   39.5937 C   0  0  0  0  0  0  0  0  0  0  0  0
    1.2719   19.2436   40.4841 C   0  0  0  0  0  0  0  0  0  0  0  0
    0.3732   17.8859   42.4366 C   0  0  0  0  0  0  0  0  0  0  0  0
    0.7414   15.7515   43.1327 C   0  0  0  0  0  0  0  0  0  0  0  0
    1.4251   14.4578   43.1428 C   0  0  0  0  0  0  0  0  0  0  0  0
    0.9678   13.3814   43.9163 C   0  0  0  0  0  0  0  0  0  0  0  0
    1.6136   12.1494   43.8851 C   0  0  0  0  0  0  0  0  0  0  0  0
    2.6952   11.9887   43.0397 C   0  0  0  0  0  0  0  0  0  0  0  0
    3.1770   13.0245   42.2535 C   0  0  0  0  0  0  0  0  0  0  0  0
    2.5242   14.2529   42.3073 C   0  0  0  0  0  0  0  0  0  0  0  0
   -0.3746   16.0336   43.8753 C   0  0  0  0  0  0  0  0  0  0  0  0
    2.2255   18.3092   40.0557 C   0  0  0  0  0  0  0  0  0  0  0  0
    2.8482   18.4680   38.8163 C   0  0  0  0  0  0  0  0  0  0  0  0
    0.5279   19.0128   41.6818 N   0  0  0  0  0  0  0  0  0  0  0  0
    1.1431   16.7615   42.2269 N   0  0  0  0  0  0  0  0  0  0  0  0
    2.6062   20.4676   35.7718 O   0  0  0  0  0  0  0  0  0  0  0  0
    4.0614   18.8265   36.2563 O   0  0  0  0  0  0  0  0  0  0  0  0
    3.7026   17.4918   38.3618 O   0  0  0  0  0  0  0  0  0  0  0  0
   -1.0125   17.5807   43.4662 S   0  0  0  0  0  0  0  0  0  0  0  0
    3.4841   10.4483   42.9597 Cl  0  0  0  0  0  0  0  0  0  0  0  0
    1.3872   21.3204   37.7773 H   0  0  0  0  0  0  0  0  0  0  0  0
    0.0580   20.9248   39.8388 H   0  0  0  0  0  0  0  0  0  0  0  0
    0.0843   13.5132   44.5582 H   0  0  0  0  0  0  0  0  0  0  0  0
    1.2701   11.3197   44.5206 H   0  0  0  0  0  0  0  0  0  0  0  0
    4.0527   12.8791   41.6039 H   0  0  0  0  0  0  0  0  0  0  0  0
    2.8826   15.0804   41.6773 H   0  0  0  0  0  0  0  0  0  0  0  0
   -0.8059   15.3618   44.6320 H   0  0  0  0  0  0  0  0  0  0  0  0
    2.4827   17.4521   40.6954 H   0  0  0  0  0  0  0  0  0  0  0  0
    0.0221   19.8372   42.0361 H   0  0  0  0  0  0  0  0  0  0  0  0
  1  2  1  0
  1 19  1  0
  1 20  2  0
  2  3  1  0
  2 16  2  0
  3  4  2  0
  4  5  1  0
  5 15  2  0
  5 17  1  0
  6 17  1  0
  6 18  2  0
  6 22  1  0
  7  8  1  0
  7 14  2  0
  7 18  1  0
  8  9  1  0
  8 13  2  0
  9 10  2  0
 10 11  1  0
 11 12  2  0
 11 23  1  0
 12 13  1  0
 14 22  1  0
 15 16  1  0
 16 21  1  0
  3 24  1  0
  4 25  1  0
  9 26  1  0
 10 27  1  0
 12 28  1  0
 13 29  1  0
 14 30  1  0
 15 31  1  0
 17 32  1  0
M  CHG  2  19  -1  21  -1
M  END
>  <mol_id>  (9) 
2026-08-23-6tgu-s0-n100-r6-0009

>  <rmsd_to_ref>  (9) 
0.8214285714328089

$$$$
6tgu.A
     RDKit          3D

 32 34  0  0  0  0  0  0  0  0999 V2000
    4.2653   20.3392   37.8655 C   0  0  0  0  0  0  0  0  0  0  0  0
    3.2100   19.9522   38.7846 C   0  0  0  0  0  0  0  0  0  0  0  0
    2.2612   20.8570   39.2079 C   0  0  0  0  0  0  0  0  0  0  0  0
    1.2764   20.4522   40.0796 C   0  0  0  0  0  0  0  0  0  0  0  0
    1.1926   19.1448   40.5632 C   0  0  0  0  0  0  0  0  0  0  0  0
    0.0886   17.4462   41.9410 C   0  0  0  0  0  0  0  0  0  0  0  0
    0.2778   15.2749   42.4975 C   0  0  0  0  0  0  0  0  0  0  0  0
    1.0413   14.0191   42.3270 C   0  0  0  0  0  0  0  0  0  0  0  0
    0.6683   12.8622   42.9802 C   0  0  0  0  0  0  0  0  0  0  0  0
    1.3688   11.6824   42.8326 C   0  0  0  0  0  0  0  0  0  0  0  0
    2.4724   11.6360   42.0168 C   0  0  0  0  0  0  0  0  0  0  0  0
    2.8734   12.7767   41.3478 C   0  0  0  0  0  0  0  0  0  0  0  0
    2.1537   13.9359   41.5164 C   0  0  0  0  0  0  0  0  0  0  0  0
   -0.8298   15.3245   43.3152 C   0  0  0  0  0  0  0  0  0  0  0  0
    2.1660   18.2794   40.1086 C   0  0  0  0  0  0  0  0  0  0  0  0
    3.1672   18.6520   39.2349 C   0  0  0  0  0  0  0  0  0  0  0  0
    0.1622   18.7705   41.4594 N   0  0  0  0  0  0  0  0  0  0  0  0
    0.5706   16.4045   41.9136 N   0  0  0  0  0  0  0  0  0  0  0  0
    4.3167   21.6651   37.4005 O   0  0  0  0  0  0  0  0  0  0  0  0
    5.1160   19.5061   37.4929 O   0  0  0  0  0  0  0  0  0  0  0  0
    4.1210   17.7148   38.8182 O   0  0  0  0  0  0  0  0  0  0  0  0
   -1.3570   17.1188   43.1345 S   0  0  0  0  0  0  0  0  0  0  0  0
    3.3789   10.1409   41.8156 Cl  0  0  0  0  0  0  0  0  0  0  0  0
    2.3303   21.8681   38.8308 H   0  0  0  0  0  0  0  0  0  0  0  0
    0.5485   21.1978   40.3880 H   0  0  0  0  0  0  0  0  0  0  0  0
   -0.2058   12.8658   43.6370 H   0  0  0  0  0  0  0  0  0  0  0  0
    1.0221   10.8120   43.3738 H   0  0  0  0  0  0  0  0  0  0  0  0
    3.7423   12.7656   40.6973 H   0  0  0  0  0  0  0  0  0  0  0  0
    2.4690   14.8228   40.9936 H   0  0  0  0  0  0  0  0  0  0  0  0
   -1.3526   14.6533   43.9247 H   0  0  0  0  0  0  0  0  0  0  0  0
    2.1770   17.2481   40.4319 H   0  0  0  0  0  0  0  0  0  0  0  0
   -0.5169   19.5331   41.7251 H   0  0  0  0  0  0  0  0  0  0  0  0
  1  2  1  0
  1 19  1  0
  1 20  2  0
  2  3  1  0
  2 16  2  0
  3  4  2  0
  4  5  1  0
  5 15  2  0
  5 17  1  0
  6 17  1  0
  6 18  2  0
  6 22  1  0
  7  8  1  0
  7 14  2  0
  7 18  1  0
  8  9  1  0
  8 13  2  0
  9 10  2  0
 10 11  1  0
 11 12  2  0
 11 23  1  0
 12 13  1  0
 14 22  1  0
 15 16  1  0
 16 21  1  0
  3 24  1  0
  4 25  1  0
  9 26  1  0
 10 27  1  0
 12 28  1  0
 13 29  1  0
 14 30  1  0
 15 31  1  0
 17 32  1  0
M  CHG  2  19  -1  21  -1
M  END
>  <mol_id>  (10) 
2026-08-23-6tgu-s0-n100-r6-0010

>  <rmsd_to_ref>  (10) 
0.867346938777156

$$$$
6tgu.A
     RDKit          3D

 32 34  0  0  0  0  0  0  0  0999 V2000
    4.3047   19.1412   36.8559 C   0  0  0  0  0  0  0  0  0  0  0  0
    3.5078   19.1702   38.1631 C   0  0  0  0  0  0  0  0  0  0  0  0
    2.7190   20.2721   38.4862 C   0  0  0  0  0  0  0  0  0  0  0  0
    1.8340   20.2590   39.5693 C   0  0  0  0  0  0  0  0  0  0  0  0
    1.8438   19.1871   40.4736 C   0  0  0  0  0  0  0  0  0  0  0  0
    0.4009   18.0644   42.2402 C   0  0  0  0  0  0  0  0  0  0  0  0
    0.1937   15.9032   42.9199 C   0  0  0  0  0  0  0  0  0  0  0  0
    0.5719   14.4913   42.9891 C   0  0  0  0  0  0  0  0  0  0  0  0
   -0.2142   13.5432   43.6593 C   0  0  0  0  0  0  0  0  0  0  0  0
    0.1467   12.1997   43.6842 C   0  0  0  0  0  0  0  0  0  0  0  0
    1.2779   11.8040   42.9955 C   0  0  0  0  0  0  0  0  0  0  0  0
    2.0807   12.7071   42.3150 C   0  0  0  0  0  0  0  0  0  0  0  0
    1.7090   14.0487   42.3114 C   0  0  0  0  0  0  0  0  0  0  0  0
   -0.9295   16.4246   43.5055 C   0  0  0  0  0  0  0  0  0  0  0  0
    2.6236   18.0655   40.1573 C   0  0  0  0  0  0  0  0  0  0  0  0
    3.4375   18.0808   39.0231 C   0  0  0  0  0  0  0  0  0  0  0  0
    0.9031   19.1281   41.5474 N   0  0  0  0  0  0  0  0  0  0  0  0
    0.9307   16.7983   42.1090 N   0  0  0  0  0  0  0  0  0  0  0  0
    4.0752   20.0761   36.0334 O   0  0  0  0  0  0  0  0  0  0  0  0
    5.0549   18.1579   36.6710 O   0  0  0  0  0  0  0  0  0  0  0  0
    4.1163   16.9400   38.6658 O   0  0  0  0  0  0  0  0  0  0  0  0
   -1.1513   18.0726   43.0550 S   0  0  0  0  0  0  0  0  0  0  0  0
    1.7173   10.1282   42.9834 Cl  0  0  0  0  0  0  0  0  0  0  0  0
    2.7946   21.1806   37.8706 H   0  0  0  0  0  0  0  0  0  0  0  0
    1.1289   21.0911   39.7120 H   0  0  0  0  0  0  0  0  0  0  0  0
   -1.1311   13.8668   44.1738 H   0  0  0  0  0  0  0  0  0  0  0  0
   -0.4561   11.4671   44.2409 H   0  0  0  0  0  0  0  0  0  0  0  0
    2.9882   12.3719   41.7914 H   0  0  0  0  0  0  0  0  0  0  0  0
    2.3250   14.7760   41.7622 H   0  0  0  0  0  0  0  0  0  0  0  0
   -1.6005   15.8656   44.1743 H   0  0  0  0  0  0  0  0  0  0  0  0
    2.5942   17.1748   40.8021 H   0  0  0  0  0  0  0  0  0  0  0  0
    0.5425   20.0441   41.8503 H   0  0  0  0  0  0  0  0  0  0  0  0
  1  2  1  0
  1 19  1  0
  1 20  2  0
  2  3  1  0
  2 16  2  0
  3  4  2  0
  4  5  1  0
  5 15  2  0
  5 17  1  0
  6 17  1  0
  6 18  2  0
  6 22  1  0
  7  8  1  0
  7 14  2  0
  7 18  1  0
  8  9  1  0
  8 13  2  0
  9 10  2  0
 10 11  1  0
 11 12  2  0
 11 23  1  0
 12 13  1  0
 14 22  1  0
 15 16  1  0
 16 21  1  0
  3 24  1  0
  4 25  1  0
  9 26  1  0
 10 27  1  0
 12 28  1  0
 13 29  1  0
 14 30  1  0
 15 31  1  0
 17 32  1  0
M  CHG  2  19  -1  21  -1
M  END
>  <mol_id>  (11) 
2026-08-23-6tgu-s0-n100-r6-0011

>  <rmsd_to_ref>  (11) 
0.9132653061319562

$$$$
6tgu.A
     RDKit          3D

 32 34  0  0  0  0  0  0  0  0999 V2000
    3.2523   20.6764   37.8911 C   0  0  0  0  0  0  0  0  0  0  0  0
    2.5112   20.1597   39.0277 C   0  0  0  0  0  0  0  0  0  0  0  0
    1.7754   20.9928   39.8418 C   0  0  0  0  0  0  0  0  0  0  0  0
    1.0863   20.4653   40.9097 C   0  0  0  0  0  0  0  0  0  0  0  0
    1.0982   19.1019   41.2118 C   0  0  0  0  0  0  0  0  0  0  0  0
    0.3949   17.2213   42.6156 C   0  0  0  0  0  0  0  0  0  0  0  0
    0.6524   14.9931   42.7840 C   0  0  0  0  0  0  0  0  0  0  0  0
    1.2739   13.7760   42.2169 C   0  0  0  0  0  0  0  0  0  0  0  0
    1.0687   12.5368   42.7880 C   0  0  0  0  0  0  0  0  0  0  0  0
    1.6404   11.3916   42.2723 C   0  0  0  0  0  0  0  0  0  0  0  0
    2.4405   11.4647   41.1587 C   0  0  0  0  0  0  0  0  0  0  0  0
    2.6669   12.6902   40.5617 C   0  0  0  0  0  0  0  0  0  0  0  0
    2.0824   13.8120   41.1004 C   0  0  0  0  0  0  0  0  0  0  0  0
   -0.1509   14.9229   43.9012 C   0  0  0  0  0  0  0  0  0  0  0  0
    1.8496   18.3125   40.3661 C   0  0  0  0  0  0  0  0  0  0  0  0
    2.5524   18.8084   39.2868 C   0  0  0  0  0  0  0  0  0  0  0  0
    0.3745   18.6011   42.3209 N   0  0  0  0  0  0  0  0  0  0  0  0
    0.8011   16.1952   42.2990 N   0  0  0  0  0  0  0  0  0  0  0  0
    3.2158   22.0555   37.6190 O   0  0  0  0  0  0  0  0  0  0  0  0
    3.9132   19.9070   37.1647 O   0  0  0  0  0  0  0  0  0  0  0  0
    3.2936   17.9423   38.4729 O   0  0  0  0  0  0  0  0  0  0  0  0
   -0.6315   16.7235   44.1387 S   0  0  0  0  0  0  0  0  0  0  0  0
    3.1787   10.0155   40.4859 Cl  0  0  0  0  0  0  0  0  0  0  0  0
    1.7692   22.0476   39.6040 H   0  0  0  0  0  0  0  0  0  0  0  0
    0.5189   21.1577   41.5259 H   0  0  0  0  0  0  0  0  0  0  0  0
    0.4368   12.4445   43.6756 H   0  0  0  0  0  0  0  0  0  0  0  0
    1.4382   10.4520   42.7691 H   0  0  0  0  0  0  0  0  0  0  0  0
    3.2954   12.7741   39.6807 H   0  0  0  0  0  0  0  0  0  0  0  0
    2.2609   14.7652   40.6327 H   0  0  0  0  0  0  0  0  0  0  0  0
   -0.4913   14.1702   44.5438 H   0  0  0  0  0  0  0  0  0  0  0  0
    1.9149   17.2455   40.5258 H   0  0  0  0  0  0  0  0  0  0  0  0
   -0.1586   19.3165   42.8843 H   0  0  0  0  0  0  0  0  0  0  0  0
  1  2  1  0
  1 19  1  0
  1 20  2  0
  2  3  1  0
  2 16  2  0
  3  4  2  0
  4  5  1  0
  5 15  2  0
  5 17  1  0
  6 17  1  0
  6 18  2  0
  6 22  1  0
  7  8  1  0
  7 14  2  0
  7 18  1  0
  8  9  1  0
  8 13  2  0
  9 10  2  0
 10 11  1  0
 11 12  2  0
 11 23  1  0
 12 13  1  0
 14 22  1  0
 15 16  1  0
 16 21  1  0
  3 24  1  0
  4 25  1  0
  9 26  1  0
 10 27  1  0
 12 28  1  0
 13 29  1  0
 14 30  1  0
 15 31  1  0
 17 32  1  0
M  CHG  2  19  -1  21  -1
M  END
>  <mol_id>  (12) 
2026-08-23-6tgu-s0-n100-r6-0012

>  <rmsd_to_ref>  (12) 
0.9591836734748784

$$$$
6tgu.A
     RDKit          3D

 32 34  0  0  0  0  0  0  0  0999 V2000
    2.8514   18.8683   36.1310 C   0  0  0  0  0  0  0  0  0  0  0  0
    2.3868   18.9596   37.5872 C   0  0  0  0  0  0  0  0  0  0  0  0
    1.6404   20.0516   38.0243 C   0  0  0  0  0  0  0  0  0  0  0  0
    1.0394   20.0819   39.2869 C   0  0  0  0  0  0  0  0  0  0  0  0
    1.3195   19.0772   40.2244 C   0  0  0  0  0  0  0  0  0  0  0  0
    0.3975   18.0288   42.3490 C   0  0  0  0  0  0  0  0  0  0  0  0
    0.4710   15.9144   43.1855 C   0  0  0  0  0  0  0  0  0  0  0  0
    0.9284   14.5257   43.2455 C   0  0  0  0  0  0  0  0  0  0  0  0
    0.3745   13.5987   44.1398 C   0  0  0  0  0  0  0  0  0  0  0  0
    0.8010   12.2744   44.1569 C   0  0  0  0  0  0  0  0  0  0  0  0
    1.7557   11.8733   43.2415 C   0  0  0  0  0  0  0  0  0  0  0  0
    2.3258   12.7553   42.3360 C   0  0  0  0  0  0  0  0  0  0  0  0
    1.8940   14.0788   42.3421 C   0  0  0  0  0  0  0  0  0  0  0  0
   -0.5071   16.4339   43.9916 C   0  0  0  0  0  0  0  0  0  0  0  0
    2.0598   17.9657   39.7972 C   0  0  0  0  0  0  0  0  0  0  0  0
    2.5796   17.9313   38.5020 C   0  0  0  0  0  0  0  0  0  0  0  0
    0.6646   19.0590   41.4941 N   0  0  0  0  0  0  0  0  0  0  0  0
    0.9468   16.7770   42.1698 N   0  0  0  0  0  0  0  0  0  0  0  0
    2.3847   19.7342   35.3338 O   0  0  0  0  0  0  0  0  0  0  0  0
    3.5869   17.9028   35.8301 O   0  0  0  0  0  0  0  0  0  0  0  0
    3.2133   16.7940   38.0605 O   0  0  0  0  0  0  0  0  0  0  0  0
   -0.9155   18.0370   43.5106 S   0  0  0  0  0  0  0  0  0  0  0  0
    2.2670   10.2180   43.2237 Cl  0  0  0  0  0  0  0  0  0  0  0  0
    1.5201   20.9169   37.3558 H   0  0  0  0  0  0  0  0  0  0  0  0
    0.3455   20.8955   39.5451 H   0  0  0  0  0  0  0  0  0  0  0  0
   -0.4100   13.9236   44.8391 H   0  0  0  0  0  0  0  0  0  0  0  0
    0.3866   11.5609   44.8844 H   0  0  0  0  0  0  0  0  0  0  0  0
    3.0996   12.4178   41.6307 H   0  0  0  0  0  0  0  0  0  0  0  0
    2.3232   14.7879   41.6190 H   0  0  0  0  0  0  0  0  0  0  0  0
   -0.9701   15.8989   44.8338 H   0  0  0  0  0  0  0  0  0  0  0  0
    2.2309   17.1218   40.4818 H   0  0  0  0  0  0  0  0  0  0  0  0
    0.3385   19.9801   41.8199 H   0  0  0  0  0  0  0  0  0  0  0  0
  1  2  1  0
  1 19  1  0
  1 20  2  0
  2  3  1  0
  2 16  2  0
  3  4  2  0
  4  5  1  0
  5 15  2  0
  5 17  1  0
  6 17  1  0
  6 18  2  0
  6 22  1  0
  7  8  1  0
  7 14  2  0
  7 18  1  0
  8  9  1  0
  8 13  2  0
  9 10  2  0
 10 11  1  0
 11 12  2  0
 11 23  1  0
 12 13  1  0
 14 22  1  0
 15 16  1  0
 16 21  1  0
  3 24  1  0
  4 25  1  0
  9 26  1  0
 10 27  1  0
 12 28  1  0
 13 29  1  0
 14 30  1  0
 15 31  1  0
 17 32  1  0
M  CHG  2  19  -1  21  -1
M  END
>  <mol_id>  (13) 
2026-08-23-6tgu-s0-n100-r6-0013

>  <rmsd_to_ref>  (13) 
1.0051020408216653

$$$$
6tgu.A
     RDKit          3D

 32 34  0  0  0  0  0  0  0  0999 V2000
    3.2676   20.4338   37.2703 C   0  0  0  0  0  0  0  0  0  0  0  0
    2.5717   20.0018   38.4806 C   0  0  0  0  0  0  0  0  0  0  0  0
    2.7432   20.7560   39.6167 C   0  0  0  0  0  0  0  0  0  0  0  0
    2.1185   20.4020   40.7875 C   0  0  0  0  0  0  0  0  0  0  0  0
    1.3167   19.2711   40.7946 C   0  0  0  0  0  0  0  0  0  0  0  0
    0.2002   17.6124   42.1575 C   0  0  0  0  0  0  0  0  0  0  0  0
   -0.0082   15.3910   42.3500 C   0  0  0  0  0  0  0  0  0  0  0  0
    0.6865   14.0890   42.4442 C   0  0  0  0  0  0  0  0  0  0  0  0
    2.0739   14.0032   42.4194 C   0  0  0  0  0  0  0  0  0  0  0  0
    2.7562   12.8122   42.5044 C   0  0  0  0  0  0  0  0  0  0  0  0
    2.0709   11.6345   42.6190 C   0  0  0  0  0  0  0  0  0  0  0  0
    0.6892   11.6955   42.6456 C   0  0  0  0  0  0  0  0  0  0  0  0
    0.0058   12.9046   42.5604 C   0  0  0  0  0  0  0  0  0  0  0  0
   -1.3794   15.5014   42.3704 C   0  0  0  0  0  0  0  0  0  0  0  0
    1.1286   18.5000   39.6719 C   0  0  0  0  0  0  0  0  0  0  0  0
    1.7656   18.8787   38.5163 C   0  0  0  0  0  0  0  0  0  0  0  0
    0.7013   18.9453   42.0557 N   0  0  0  0  0  0  0  0  0  0  0  0
    0.6257   16.5334   42.2392 N   0  0  0  0  0  0  0  0  0  0  0  0
    3.1056   19.7035   36.0738 O   0  0  0  0  0  0  0  0  0  0  0  0
    4.0259   21.4646   37.2646 O   0  0  0  0  0  0  0  0  0  0  0  0
    1.5909   18.1246   37.3913 O   0  0  0  0  0  0  0  0  0  0  0  0
   -1.6543   17.2936   42.2234 S   0  0  0  0  0  0  0  0  0  0  0  0
    2.9636   10.1325   42.7311 Cl  0  0  0  0  0  0  0  0  0  0  0  0
    3.3603   21.6298   39.6264 H   0  0  0  0  0  0  0  0  0  0  0  0
    2.2654   21.0134   41.6712 H   0  0  0  0  0  0  0  0  0  0  0  0
    2.6021   14.9485   42.3291 H   0  0  0  0  0  0  0  0  0  0  0  0
    3.8474   12.8618   42.4753 H   0  0  0  0  0  0  0  0  0  0  0  0
    0.1359   10.7804   42.7341 H   0  0  0  0  0  0  0  0  0  0  0  0
   -1.0726   12.8864   42.5880 H   0  0  0  0  0  0  0  0  0  0  0  0
   -2.1602   14.7751   42.4469 H   0  0  0  0  0  0  0  0  0  0  0  0
    0.4927   17.6164   39.7006 H   0  0  0  0  0  0  0  0  0  0  0  0
    0.6332   19.6450   42.8229 H   0  0  0  0  0  0  0  0  0  0  0  0
  1  2  1  0
  1 19  1  0
  1 20  2  0
  2  3  1  0
  2 16  2  0
  3  4  2  0
  4  5  1  0
  5 15  2  0
  5 17  1  0
  6 17  1  0
  6 18  2  0
  6 22  1  0
  7  8  1  0
  7 14  2  0
  7 18  1  0
  8  9  1  0
  8 13  2  0
  9 10  2  0
 10 11  1  0
 11 12  2  0
 11 23  1  0
 12 13  1  0
 14 22  1  0
 15 16  1  0
 16 21  1  0
  3 24  1  0
  4 25  1  0
  9 26  1  0
 10 27  1  0
 12 28  1  0
 13 29  1  0
 14 30  1  0
 15 31  1  0
 17 32  1  0
M  CHG  2  19  -1  21  -1
M  END
>  <mol_id>  (14) 
2026-08-23-6tgu-s0-n100-r6-0014

>  <rmsd_to_ref>  (14) 
1.0510204081643932

$$$$
6tgu.A
     RDKit          3D

 32 34  0  0  0  0  0  0  0  0999 V2000
    4.4271   20.4784   37.8850 C   0  0  0  0  0  0  0  0  0  0  0  0
    3.5654   20.0296   39.0686 C   0  0  0  0  0  0  0  0  0  0  0  0
    2.7283   20.9347   39.7174 C   0  0  0  0  0  0  0  0  0  0  0  0
    1.7912   20.5258   40.6718 C   0  0  0  0  0  0  0  0  0  0  0  0
    1.7884   19.2016   41.1336 C   0  0  0  0  0  0  0  0  0  0  0  0
    0.2940   17.5062   42.2979 C   0  0  0  0  0  0  0  0  0  0  0  0
    0.1189   15.2428   42.1495 C   0  0  0  0  0  0  0  0  0  0  0  0
    0.5360   13.9036   41.7326 C   0  0  0  0  0  0  0  0  0  0  0  0
   -0.2533   12.7703   41.9745 C   0  0  0  0  0  0  0  0  0  0  0  0
    0.1466   11.5106   41.5396 C   0  0  0  0  0  0  0  0  0  0  0  0
    1.3223   11.3993   40.8213 C   0  0  0  0  0  0  0  0  0  0  0  0
    2.1302   12.4944   40.5548 C   0  0  0  0  0  0  0  0  0  0  0  0
    1.7184   13.7446   41.0082 C   0  0  0  0  0  0  0  0  0  0  0  0
   -1.0474   15.5084   42.8169 C   0  0  0  0  0  0  0  0  0  0  0  0
    2.6168   18.2756   40.4838 C   0  0  0  0  0  0  0  0  0  0  0  0
    3.4855   18.7040   39.4783 C   0  0  0  0  0  0  0  0  0  0  0  0
    0.7975   18.7526   42.0598 N   0  0  0  0  0  0  0  0  0  0  0  0
    0.8680   16.3764   41.7548 N   0  0  0  0  0  0  0  0  0  0  0  0
    4.2106   21.6431   37.4381 O   0  0  0  0  0  0  0  0  0  0  0  0
    5.2151   19.6342   37.4053 O   0  0  0  0  0  0  0  0  0  0  0  0
    4.2157   17.7737   38.7776 O   0  0  0  0  0  0  0  0  0  0  0  0
   -1.2965   17.2060   42.9714 S   0  0  0  0  0  0  0  0  0  0  0  0
    1.8125    9.8434   40.2380 Cl  0  0  0  0  0  0  0  0  0  0  0  0
    2.8068   22.0039   39.4714 H   0  0  0  0  0  0  0  0  0  0  0  0
    1.0548   21.2443   41.0609 H   0  0  0  0  0  0  0  0  0  0  0  0
   -1.2042   12.8788   42.5169 H   0  0  0  0  0  0  0  0  0  0  0  0
   -0.4607   10.6210   41.7629 H   0  0  0  0  0  0  0  0  0  0  0  0
    3.0724   12.3782   39.9992 H   0  0  0  0  0  0  0  0  0  0  0  0
    2.3387   14.6267   40.7908 H   0  0  0  0  0  0  0  0  0  0  0  0
   -1.7336   14.7401   43.2028 H   0  0  0  0  0  0  0  0  0  0  0  0
    2.5824   17.2129   40.7658 H   0  0  0  0  0  0  0  0  0  0  0  0
    0.3945   19.4958   42.6481 H   0  0  0  0  0  0  0  0  0  0  0  0
  1  2  1  0
  1 19  1  0
  1 20  2  0
  2  3  1  0
  2 16  2  0
  3  4  2  0
  4  5  1  0
  5 15  2  0
  5 17  1  0
  6 17  1  0
  6 18  2  0
  6 22  1  0
  7  8  1  0
  7 14  2  0
  7 18  1  0
  8  9  1  0
  8 13  2  0
  9 10  2  0
 10 11  1  0
 11 12  2  0
 11 23  1  0
 12 13  1  0
 14 22  1  0
 15 16  1  0
 16 21  1  0
  3 24  1  0
  4 25  1  0
  9 26  1  0
 10 27  1  0
 12 28  1  0
 13 29  1  0
 14 30  1  0
 15 31  1  0
 17 32  1  0
M  CHG  2  19  -1  21  -1
M  END
>  <mol_id>  (15) 
2026-08-23-6tgu-s0-n100-r6-0015

>  <rmsd_to_ref>  (15) 
1.0969387755135764

$$$$
6tgu.A
     RDKit          3D

 32 34  0  0  0  0  0  0  0  0999 V2000
    2.6109   20.8489   37.8773 C   0  0  0  0  0  0  0  0  0  0  0  0
    1.8093   20.2857   38.9490 C   0  0  0  0  0  0  0  0  0  0  0  0
    0.8421   21.0306   39.5876 C   0  0  0  0  0  0  0  0  0  0  0  0
    0.1028   20.4614   40.5990 C   0  0  0  0  0  0  0  0  0  0  0  0
    0.2904   19.1417   41.0152 C   0  0  0  0  0  0  0  0  0  0  0  0
   -0.2933   17.2605   42.4722 C   0  0  0  0  0  0  0  0  0  0  0  0
    0.2916   15.1238   42.8618 C   0  0  0  0  0  0  0  0  0  0  0  0
    1.1739   13.9973   42.4853 C   0  0  0  0  0  0  0  0  0  0  0  0
    1.0915   12.7795   43.1289 C   0  0  0  0  0  0  0  0  0  0  0  0
    1.9064   11.7185   42.7906 C   0  0  0  0  0  0  0  0  0  0  0  0
    2.8334   11.8569   41.7871 C   0  0  0  0  0  0  0  0  0  0  0  0
    2.9424   13.0632   41.1219 C   0  0  0  0  0  0  0  0  0  0  0  0
    2.1155   14.1005   41.4832 C   0  0  0  0  0  0  0  0  0  0  0  0
   -0.6395   14.9879   43.8681 C   0  0  0  0  0  0  0  0  0  0  0  0
    1.2703   18.4404   40.3437 C   0  0  0  0  0  0  0  0  0  0  0  0
    2.0297   18.9801   39.3256 C   0  0  0  0  0  0  0  0  0  0  0  0
   -0.4929   18.5954   42.0607 N   0  0  0  0  0  0  0  0  0  0  0  0
    0.3126   16.3009   42.2992 N   0  0  0  0  0  0  0  0  0  0  0  0
    2.3926   22.1817   37.4862 O   0  0  0  0  0  0  0  0  0  0  0  0
    3.4824   20.1593   37.3103 O   0  0  0  0  0  0  0  0  0  0  0  0
    3.0075   18.2038   38.6907 O   0  0  0  0  0  0  0  0  0  0  0  0
   -1.4312   16.6916   43.8873 S   0  0  0  0  0  0  0  0  0  0  0  0
    3.8818   10.5154   41.3410 Cl  0  0  0  0  0  0  0  0  0  0  0  0
    0.7006   22.0519   39.2618 H   0  0  0  0  0  0  0  0  0  0  0  0
   -0.6495   21.0843   41.0756 H   0  0  0  0  0  0  0  0  0  0  0  0
    0.3637   12.6367   43.9324 H   0  0  0  0  0  0  0  0  0  0  0  0
    1.7894   10.7912   43.3356 H   0  0  0  0  0  0  0  0  0  0  0  0
    3.6672   13.1975   40.3252 H   0  0  0  0  0  0  0  0  0  0  0  0
    2.2031   15.0389   40.9628 H   0  0  0  0  0  0  0  0  0  0  0  0
   -0.9421   14.2301   44.5234 H   0  0  0  0  0  0  0  0  0  0  0  0
    1.4826   17.4123   40.6010 H   0  0  0  0  0  0  0  0  0  0  0  0
   -1.2079   19.2434   42.4876 H   0  0  0  0  0  0  0  0  0  0  0  0
  1  2  1  0
  1 19  1  0
  1 20  2  0
  2  3  1  0
  2 16  2  0
  3  4  2  0
  4  5  1  0
  5 15  2  0
  5 17  1  0
  6 17  1  0
  6 18  2  0
  6 22  1  0
  7  8  1  0
  7 14  2  0
  7 18  1  0
  8  9  1  0
  8 13  2  0
  9 10  2  0
 10 11  1  0
 11 12  2  0
 11 23  1  0
 12 13  1  0
 14 22  1  0
 15 16  1  0
 16 21  1  0
  3 24  1  0
  4 25  1  0
  9 26  1  0
 10 27  1  0
 12 28  1  0
 13 29  1  0
 14 30  1  0
 15 31  1  0
 17 32  1  0
M  CHG  2  19  -1  21  -1
M  END
>  <mol_id>  (16) 
2026-08-23-6tgu-s0-n100-r6-0016

>  <rmsd_to_ref>  (16) 
1.1428571428649523

$$$$
6tgu.A
     RDKit          3D

 32 34  0  0  0  0  0  0  0  0999 V2000
    2.8362   20.8078   37.7166 C   0  0  0  0  0  0  0  0  0  0  0  0
    2.1469   20.1781   38.9303 C   0  0  0  0  0  0  0  0  0  0  0  0
    1.0777   20.8218   39.5493 C   0  0  0  0  0  0  0  0  0  0  0  0
    0.3046   20.1970   40.5334 C   0  0  0  0  0  0  0  0  0  0  0  0
    0.6966   18.9550   41.0536 C   0  0  0  0  0  0  0  0  0  0  0  0
   -0.2249   16.9472   42.3118 C   0  0  0  0  0  0  0  0  0  0  0  0
    0.2830   14.7301   42.2664 C   0  0  0  0  0  0  0  0  0  0  0  0
    1.0806   13.5582   41.9039 C   0  0  0  0  0  0  0  0  0  0  0  0
    0.6650   12.2536   42.2063 C   0  0  0  0  0  0  0  0  0  0  0  0
    1.4226   11.1515   41.8225 C   0  0  0  0  0  0  0  0  0  0  0  0
    2.5783   11.3624   41.0942 C   0  0  0  0  0  0  0  0  0  0  0  0
    3.0231   12.6348   40.7686 C   0  0  0  0  0  0  0  0  0  0  0  0
    2.2570   13.7252   41.1715 C   0  0  0  0  0  0  0  0  0  0  0  0
   -0.9099   14.6669   42.9368 C   0  0  0  0  0  0  0  0  0  0  0  0
    1.7638   18.2887   40.4345 C   0  0  0  0  0  0  0  0  0  0  0  0
    2.4656   18.9094   39.3995 C   0  0  0  0  0  0  0  0  0  0  0  0
   -0.1158   18.2746   42.0119 N   0  0  0  0  0  0  0  0  0  0  0  0
    0.6601   16.0159   41.8118 N   0  0  0  0  0  0  0  0  0  0  0  0
    2.2824   21.8331   37.2213 O   0  0  0  0  0  0  0  0  0  0  0  0
    3.8403   20.2154   37.2644 O   0  0  0  0  0  0  0  0  0  0  0  0
    3.4404   18.2073   38.7311 O   0  0  0  0  0  0  0  0  0  0  0  0
   -1.6539   16.2185   43.0191 S   0  0  0  0  0  0  0  0  0  0  0  0
    3.5105    9.9978   40.5741 Cl  0  0  0  0  0  0  0  0  0  0  0  0
    0.8339   21.8533   39.2551 H   0  0  0  0  0  0  0  0  0  0  0  0
   -0.6127   20.6808   40.9000 H   0  0  0  0  0  0  0  0  0  0  0  0
   -0.2752   12.0990   42.7560 H   0  0  0  0  0  0  0  0  0  0  0  0
    1.1081   10.1328   42.0932 H   0  0  0  0  0  0  0  0  0  0  0  0
    3.9574   12.7790   40.2062 H   0  0  0  0  0  0  0  0  0  0  0  0
    2.5861   14.7409   40.9068 H   0  0  0  0  0  0  0  0  0  0  0  0
   -1.3360   13.7478   43.3655 H   0  0  0  0  0  0  0  0  0  0  0  0
    2.0476   17.2783   40.7639 H   0  0  0  0  0  0  0  0  0  0  0  0
   -0.7224   18.8905   42.5719 H   0  0  0  0  0  0  0  0  0  0  0  0
  1  2  1  0
  1 19  1  0
  1 20  2  0
  2  3  1  0
  2 16  2  0
  3  4  2  0
  4  5  1  0
  5 15  2  0
  5 17  1  0
  6 17  1  0
  6 18  2  0
  6 22  1  0
  7  8  1  0
  7 14  2  0
  7 18  1  0
  8  9  1  0
  8 13  2  0
  9 10  2  0
 10 11  1  0
 11 12  2  0
 11 23  1  0
 12 13  1  0
 14 22  1  0
 15 16  1  0
 16 21  1  0
  3 24  1  0
  4 25  1  0
  9 26  1  0
 10 27  1  0
 12 28  1  0
 13 29  1  0
 14 30  1  0
 15 31  1  0
 17 32  1  0
M  CHG  2  19  -1  21  -1
M  END
>  <mol_id>  (17) 
2026-08-23-6tgu-s0-n100-r6-0017

>  <rmsd_to_ref>  (17) 
1.1887755102125517

$$$$
6tgu.A
     RDKit          3D

 32 34  0  0  0  0  0  0  0  0999 V2000
    2.4219   20.1835   36.8981 C   0  0  0  0  0  0  0  0  0  0  0  0
    1.9832   19.8266   38.2457 C   0  0  0  0  0  0  0  0  0  0  0  0
    2.2799   20.7009   39.2638 C   0  0  0  0  0  0  0  0  0  0  0  0
    1.8976   20.4225   40.5533 C   0  0  0  0  0  0  0  0  0  0  0  0
    1.2104   19.2441   40.8004 C   0  0  0  0  0  0  0  0  0  0  0  0
    0.4917   17.6554   42.4782 C   0  0  0  0  0  0  0  0  0  0  0  0
    0.5134   15.4552   42.8952 C   0  0  0  0  0  0  0  0  0  0  0  0
    1.3246   14.2215   42.9757 C   0  0  0  0  0  0  0  0  0  0  0  0
    2.6895   14.2318   42.7115 C   0  0  0  0  0  0  0  0  0  0  0  0
    3.4773   13.1064   42.7758 C   0  0  0  0  0  0  0  0  0  0  0  0
    2.9268   11.9007   43.1116 C   0  0  0  0  0  0  0  0  0  0  0  0
    1.5700   11.8662   43.3788 C   0  0  0  0  0  0  0  0  0  0  0  0
    0.7795   13.0096   43.3129 C   0  0  0  0  0  0  0  0  0  0  0  0
   -0.8385   15.4700   43.1500 C   0  0  0  0  0  0  0  0  0  0  0  0
    0.9011   18.3533   39.7998 C   0  0  0  0  0  0  0  0  0  0  0  0
    1.2959   18.6586   38.5210 C   0  0  0  0  0  0  0  0  0  0  0  0
    0.8501   19.0034   42.1743 N   0  0  0  0  0  0  0  0  0  0  0  0
    1.0172   16.6227   42.5753 N   0  0  0  0  0  0  0  0  0  0  0  0
    2.1222   19.3276   35.8170 O   0  0  0  0  0  0  0  0  0  0  0  0
    3.0755   21.2595   36.6686 O   0  0  0  0  0  0  0  0  0  0  0  0
    0.9980   17.7853   37.5142 O   0  0  0  0  0  0  0  0  0  0  0  0
   -1.2894   17.2146   42.9006 S   0  0  0  0  0  0  0  0  0  0  0  0
    3.9528   10.4842   43.1917 Cl  0  0  0  0  0  0  0  0  0  0  0  0
    2.8112   21.6126   39.0881 H   0  0  0  0  0  0  0  0  0  0  0  0
    2.1395   21.1280   41.3407 H   0  0  0  0  0  0  0  0  0  0  0  0
    3.1102   15.1982   42.4476 H   0  0  0  0  0  0  0  0  0  0  0  0
    4.5390   13.2298   42.5485 H   0  0  0  0  0  0  0  0  0  0  0  0
    1.1217   10.9278   43.6429 H   0  0  0  0  0  0  0  0  0  0  0  0
   -0.2727   12.9181   43.5338 H   0  0  0  0  0  0  0  0  0  0  0  0
   -1.5285   14.7017   43.4266 H   0  0  0  0  0  0  0  0  0  0  0  0
    0.3588   17.4344   40.0174 H   0  0  0  0  0  0  0  0  0  0  0  0
    0.8534   19.7698   42.8783 H   0  0  0  0  0  0  0  0  0  0  0  0
  1  2  1  0
  1 19  1  0
  1 20  2  0
  2  3  1  0
  2 16  2  0
  3  4  2  0
  4  5  1  0
  5 15  2  0
  5 17  1  0
  6 17  1  0
  6 18  2  0
  6 22  1  0
  7  8  1  0
  7 14  2  0
  7 18  1  0
  8  9  1  0
  8 13  2  0
  9 10  2  0
 10 11  1  0
 11 12  2  0
 11 23  1  0
 12 13  1  0
 14 22  1  0
 15 16  1  0
 16 21  1  0
  3 24  1  0
  4 25  1  0
  9 26  1  0
 10 27  1  0
 12 28  1  0
 13 29  1  0
 14 30  1  0
 15 31  1  0
 17 32  1  0
M  CHG  2  19  -1  21  -1
M  END
>  <mol_id>  (18) 
2026-08-23-6tgu-s0-n100-r6-0018

>  <rmsd_to_ref>  (18) 
1.2346938775523792

$$$$
6tgu.A
     RDKit          3D

 32 34  0  0  0  0  0  0  0  0999 V2000
    4.1528   18.5666   36.5523 C   0  0  0  0  0  0  0  0  0  0  0  0
    3.3186   18.7297   37.8260 C   0  0  0  0  0  0  0  0  0  0  0  0
    2.5453   19.8714   38.0236 C   0  0  0  0  0  0  0  0  0  0  0  0
    1.6287   19.9740   39.0752 C   0  0  0  0  0  0  0  0  0  0  0  0
    1.5882   18.9887   40.0724 C   0  0  0  0  0  0  0  0  0  0  0  0
    0.0695   18.0593   41.8871 C   0  0  0  0  0  0  0  0  0  0  0  0
   -0.2055   15.9733   42.7522 C   0  0  0  0  0  0  0  0  0  0  0  0
    0.1392   14.5665   42.9604 C   0  0  0  0  0  0  0  0  0  0  0  0
   -0.6871   13.6986   43.6885 C   0  0  0  0  0  0  0  0  0  0  0  0
   -0.3569   12.3562   43.8458 C   0  0  0  0  0  0  0  0  0  0  0  0
    0.7850   11.8777   43.2313 C   0  0  0  0  0  0  0  0  0  0  0  0
    1.6273   12.6995   42.4976 C   0  0  0  0  0  0  0  0  0  0  0  0
    1.2856   14.0421   42.3613 C   0  0  0  0  0  0  0  0  0  0  0  0
   -1.3336   16.5675   43.2529 C   0  0  0  0  0  0  0  0  0  0  0  0
    2.3519   17.8282   39.8832 C   0  0  0  0  0  0  0  0  0  0  0  0
    3.1990   17.7245   38.7783 C   0  0  0  0  0  0  0  0  0  0  0  0
    0.6153   19.0457   41.1171 N   0  0  0  0  0  0  0  0  0  0  0  0
    0.5747   16.7766   41.8873 N   0  0  0  0  0  0  0  0  0  0  0  0
    3.9683   19.4271   35.6421 O   0  0  0  0  0  0  0  0  0  0  0  0
    4.8861   17.5562   36.4805 O   0  0  0  0  0  0  0  0  0  0  0  0
    3.8625   16.5430   38.5468 O   0  0  0  0  0  0  0  0  0  0  0  0
   -1.5055   18.1716   42.6488 S   0  0  0  0  0  0  0  0  0  0  0  0
    1.1873   10.1995   43.3842 Cl  0  0  0  0  0  0  0  0  0  0  0  0
    2.6590   20.7186   37.3312 H   0  0  0  0  0  0  0  0  0  0  0  0
    0.9383   20.8291   39.1201 H   0  0  0  0  0  0  0  0  0  0  0  0
   -1.6113   14.0854   44.1427 H   0  0  0  0  0  0  0  0  0  0  0  0
   -0.9919   11.6890   44.4471 H   0  0  0  0  0  0  0  0  0  0  0  0
    2.5421   12.3005   42.0350 H   0  0  0  0  0  0  0  0  0  0  0  0
    1.9335   14.7044   41.7683 H   0  0  0  0  0  0  0  0  0  0  0  0
   -2.0362   16.0846   43.9481 H   0  0  0  0  0  0  0  0  0  0  0  0
    2.2838   17.0004   40.6044 H   0  0  0  0  0  0  0  0  0  0  0  0
    0.2662   19.9923   41.3247 H   0  0  0  0  0  0  0  0  0  0  0  0
  1  2  1  0
  1 19  1  0
  1 20  2  0
  2  3  1  0
  2 16  2  0
  3  4  2  0
  4  5  1  0
  5 15  2  0
  5 17  1  0
  6 17  1  0
  6 18  2  0
  6 22  1  0
  7  8  1  0
  7 14  2  0
  7 18  1  0
  8  9  1  0
  8 13  2  0
  9 10  2  0
 10 11  1  0
 11 12  2  0
 11 23  1  0
 12 13  1  0
 14 22  1  0
 15 16  1  0
 16 21  1  0
  3 24  1  0
  4 25  1  0
  9 26  1  0
 10 27  1  0
 12 28  1  0
 13 29  1  0
 14 30  1  0
 15 31  1  0
 17 32  1  0
M  CHG  2  19  -1  21  -1
M  END
>  <mol_id>  (19) 
2026-08-23-6tgu-s0-n100-r6-0019

>  <rmsd_to_ref>  (19) 
1.28061224490793

$$$$
6tgu.A
     RDKit          3D

 32 34  0  0  0  0  0  0  0  0999 V2000
    3.5687   21.0246   37.1376 C   0  0  0  0  0  0  0  0  0  0  0  0
    2.9026   20.4813   38.3147 C   0  0  0  0  0  0  0  0  0  0  0  0
    2.7408   21.2627   39.4290 C   0  0  0  0  0  0  0  0  0  0  0  0
    2.1059   20.7134   40.5215 C   0  0  0  0  0  0  0  0  0  0  0  0
    1.6292   19.4035   40.5273 C   0  0  0  0  0  0  0  0  0  0  0  0
    0.4758   17.5624   41.7716 C   0  0  0  0  0  0  0  0  0  0  0  0
    0.1896   15.3484   42.1306 C   0  0  0  0  0  0  0  0  0  0  0  0
    0.7251   14.0426   42.5889 C   0  0  0  0  0  0  0  0  0  0  0  0
    2.0148   13.9216   43.0647 C   0  0  0  0  0  0  0  0  0  0  0  0
    2.5510   12.7276   43.5003 C   0  0  0  0  0  0  0  0  0  0  0  0
    1.7751   11.5931   43.4651 C   0  0  0  0  0  0  0  0  0  0  0  0
    0.4899   11.7119   42.9913 C   0  0  0  0  0  0  0  0  0  0  0  0
   -0.0400   12.8993   42.5592 C   0  0  0  0  0  0  0  0  0  0  0  0
   -1.1125   15.4506   41.6564 C   0  0  0  0  0  0  0  0  0  0  0  0
    1.8040   18.6501   39.4056 C   0  0  0  0  0  0  0  0  0  0  0  0
    2.4454   19.1827   38.2816 C   0  0  0  0  0  0  0  0  0  0  0  0
    0.9791   18.8757   41.6736 N   0  0  0  0  0  0  0  0  0  0  0  0
    0.8695   16.4472   42.1396 N   0  0  0  0  0  0  0  0  0  0  0  0
    4.0489   22.3270   37.1161 O   0  0  0  0  0  0  0  0  0  0  0  0
    3.7142   20.2931   36.1088 O   0  0  0  0  0  0  0  0  0  0  0  0
    2.6342   18.4373   37.1321 O   0  0  0  0  0  0  0  0  0  0  0  0
   -1.2971   17.1860   41.2328 S   0  0  0  0  0  0  0  0  0  0  0  0
    2.4426   10.0727   44.0147 Cl  0  0  0  0  0  0  0  0  0  0  0  0
    3.1021   22.2879   39.4545 H   0  0  0  0  0  0  0  0  0  0  0  0
    1.9450   21.2762   41.4358 H   0  0  0  0  0  0  0  0  0  0  0  0
    2.6731   14.8032   43.1115 H   0  0  0  0  0  0  0  0  0  0  0  0
    3.5800   12.7062   43.8645 H   0  0  0  0  0  0  0  0  0  0  0  0
   -0.1302   10.8253   42.9589 H   0  0  0  0  0  0  0  0  0  0  0  0
   -1.0556   12.9226   42.1995 H   0  0  0  0  0  0  0  0  0  0  0  0
   -1.8692   14.6944   41.5497 H   0  0  0  0  0  0  0  0  0  0  0  0
    1.4701   17.6441   39.3291 H   0  0  0  0  0  0  0  0  0  0  0  0
    0.8550   19.4946   42.5201 H   0  0  0  0  0  0  0  0  0  0  0  0
  1  2  1  0
  1 19  1  0
  1 20  2  0
  2  3  1  0
  2 16  2  0
  3  4  2  0
  4  5  1  0
  5 15  2  0
  5 17  1  0
  6 17  1  0
  6 18  2  0
  6 22  1  0
  7  8  1  0
  7 14  2  0
  7 18  1  0
  8  9  1  0
  8 13  2  0
  9 10  2  0
 10 11  1  0
 11 12  2  0
 11 23  1  0
 12 13  1  0
 14 22  1  0
 15 16  1  0
 16 21  1  0
  3 24  1  0
  4 25  1  0
  9 26  1  0
 10 27  1  0
 12 28  1  0
 13 29  1  0
 14 30  1  0
 15 31  1  0
 17 32  1  0
M  CHG  2  19  -1  21  -1
M  END
>  <mol_id>  (20) 
2026-08-23-6tgu-s0-n100-r6-0020

>  <rmsd_to_ref>  (20) 
1.3265306122454437

$$$$
6tgu.A
     RDKit          3D

 32 34  0  0  0  0  0  0  0  0999 V2000
    4.1989   20.7698   38.1869 C   0  0  0  0  0  0  0  0  0  0  0  0
    3.0619   20.3616   39.1278 C   0  0  0  0  0  0  0  0  0  0  0  0
    1.9905   21.2219   39.3573 C   0  0  0  0  0  0  0  0  0  0  0  0
    0.8479   20.8146   40.0537 C   0  0  0  0  0  0  0  0  0  0  0  0
    0.8224   19.5691   40.6977 C   0  0  0  0  0  0  0  0  0  0  0  0
   -0.7984   17.8491   41.6347 C   0  0  0  0  0  0  0  0  0  0  0  0
   -0.7186   15.5815   41.8006 C   0  0  0  0  0  0  0  0  0  0  0  0
   -0.0775   14.2677   41.7376 C   0  0  0  0  0  0  0  0  0  0  0  0
   -0.7992   13.0791   41.9175 C   0  0  0  0  0  0  0  0  0  0  0  0
   -0.1760   11.8389   41.8201 C   0  0  0  0  0  0  0  0  0  0  0  0
    1.1673   11.7953   41.4974 C   0  0  0  0  0  0  0  0  0  0  0  0
    1.9175   12.9457   41.3056 C   0  0  0  0  0  0  0  0  0  0  0  0
    1.2783   14.1772   41.4185 C   0  0  0  0  0  0  0  0  0  0  0  0
   -2.0513   15.7720   42.0536 C   0  0  0  0  0  0  0  0  0  0  0  0
    1.8878   18.6869   40.4680 C   0  0  0  0  0  0  0  0  0  0  0  0
    2.9792   19.0981   39.7006 C   0  0  0  0  0  0  0  0  0  0  0  0
   -0.3590   19.1117   41.3583 N   0  0  0  0  0  0  0  0  0  0  0  0
    0.0113   16.7463   41.4646 N   0  0  0  0  0  0  0  0  0  0  0  0
    4.0259   21.8314   37.5190 O   0  0  0  0  0  0  0  0  0  0  0  0
    5.1671   19.9838   38.0934 O   0  0  0  0  0  0  0  0  0  0  0  0
    3.9672   18.1923   39.3952 O   0  0  0  0  0  0  0  0  0  0  0  0
   -2.4851   17.4280   41.8606 S   0  0  0  0  0  0  0  0  0  0  0  0
    1.9475   10.2572   41.3324 Cl  0  0  0  0  0  0  0  0  0  0  0  0
    2.0448   22.2534   38.9791 H   0  0  0  0  0  0  0  0  0  0  0  0
   -0.0326   21.4726   40.0963 H   0  0  0  0  0  0  0  0  0  0  0  0
   -1.8756   13.1279   42.1392 H   0  0  0  0  0  0  0  0  0  0  0  0
   -0.7410   10.9117   41.9965 H   0  0  0  0  0  0  0  0  0  0  0  0
    2.9904   12.8866   41.0701 H   0  0  0  0  0  0  0  0  0  0  0  0
    1.8544   15.0995   41.2526 H   0  0  0  0  0  0  0  0  0  0  0  0
   -2.7513   14.9738   42.3417 H   0  0  0  0  0  0  0  0  0  0  0  0
    1.8637   17.6721   40.8919 H   0  0  0  0  0  0  0  0  0  0  0  0
   -0.9859   19.8625   41.6810 H   0  0  0  0  0  0  0  0  0  0  0  0
  1  2  1  0
  1 19  1  0
  1 20  2  0
  2  3  1  0
  2 16  2  0
  3  4  2  0
  4  5  1  0
  5 15  2  0
  5 17  1  0
  6 17  1  0
  6 18  2  0
  6 22  1  0
  7  8  1  0
  7 14  2  0
  7 18  1  0
  8  9  1  0
  8 13  2  0
  9 10  2  0
 10 11  1  0
 11 12  2  0
 11 23  1  0
 12 13  1  0
 14 22  1  0
 15 16  1  0
 16 21  1  0
  3 24  1  0
  4 25  1  0
  9 26  1  0
 10 27  1  0
 12 28  1  0
 13 29  1  0
 14 30  1  0
 15 31  1  0
 17 32  1  0
M  CHG  2  19  -1  21  -1
M  END
>  <mol_id>  (21) 
2026-08-23-6tgu-s0-n100-r6-0021

>  <rmsd_to_ref>  (21) 
1.3724489795950556

$$$$
6tgu.A
     RDKit          3D

 32 34  0  0  0  0  0  0  0  0999 V2000
    3.2282   20.0488   37.0589 C   0  0  0  0  0  0  0  0  0  0  0  0
    2.7586   19.8169   38.4131 C   0  0  0  0  0  0  0  0  0  0  0  0
    2.8266   20.8023   39.3735 C   0  0  0  0  0  0  0  0  0  0  0  0
    2.3712   20.5442   40.6461 C   0  0  0  0  0  0  0  0  0  0  0  0
    1.8343   19.3091   41.0156 C   0  0  0  0  0  0  0  0  0  0  0  0
    0.8370   17.8334   42.6979 C   0  0  0  0  0  0  0  0  0  0  0  0
    0.0448   15.7394   42.9152 C   0  0  0  0  0  0  0  0  0  0  0  0
   -0.2161   14.4433   42.2510 C   0  0  0  0  0  0  0  0  0  0  0  0
   -0.7811   13.3891   42.9390 C   0  0  0  0  0  0  0  0  0  0  0  0
   -1.0313   12.1737   42.3353 C   0  0  0  0  0  0  0  0  0  0  0  0
   -0.7166   11.9863   41.0119 C   0  0  0  0  0  0  0  0  0  0  0  0
   -0.1495   13.0214   40.2932 C   0  0  0  0  0  0  0  0  0  0  0  0
    0.0869   14.2197   40.9244 C   0  0  0  0  0  0  0  0  0  0  0  0
   -0.2699   15.9305   44.2428 C   0  0  0  0  0  0  0  0  0  0  0  0
    1.7892   18.3581   40.0173 C   0  0  0  0  0  0  0  0  0  0  0  0
    2.2369   18.5834   38.7315 C   0  0  0  0  0  0  0  0  0  0  0  0
    1.3772   19.0861   42.3371 N   0  0  0  0  0  0  0  0  0  0  0  0
    0.5750   16.7780   42.3297 N   0  0  0  0  0  0  0  0  0  0  0  0
    3.7625   21.3057   36.7248 O   0  0  0  0  0  0  0  0  0  0  0  0
    3.1587   19.1445   36.2021 O   0  0  0  0  0  0  0  0  0  0  0  0
    2.1578   17.5665   37.7715 O   0  0  0  0  0  0  0  0  0  0  0  0
    0.2729   17.7090   44.5110 S   0  0  0  0  0  0  0  0  0  0  0  0
   -1.0280   10.4436   40.2239 Cl  0  0  0  0  0  0  0  0  0  0  0  0
    3.2430   21.7569   39.0827 H   0  0  0  0  0  0  0  0  0  0  0  0
    2.4435   21.3492   41.3726 H   0  0  0  0  0  0  0  0  0  0  0  0
   -1.0433   13.5059   43.9941 H   0  0  0  0  0  0  0  0  0  0  0  0
   -1.4763   11.3891   42.9328 H   0  0  0  0  0  0  0  0  0  0  0  0
    0.1082   12.8980   39.2461 H   0  0  0  0  0  0  0  0  0  0  0  0
    0.5289   15.0240   40.3615 H   0  0  0  0  0  0  0  0  0  0  0  0
   -0.6901   15.3586   45.0120 H   0  0  0  0  0  0  0  0  0  0  0  0
    1.3890   17.3738   40.2155 H   0  0  0  0  0  0  0  0  0  0  0  0
    1.4707   19.9011   43.0007 H   0  0  0  0  0  0  0  0  0  0  0  0
  1  2  1  0
  1 19  1  0
  1 20  2  0
  2  3  1  0
  2 16  2  0
  3  4  2  0
  4  5  1  0
  5 15  2  0
  5 17  1  0
  6 17  1  0
  6 18  2  0
  6 22  1  0
  7  8  1  0
  7 14  2  0
  7 18  1  0
  8  9  1  0
  8 13  2  0
  9 10  2  0
 10 11  1  0
 11 12  2  0
 11 23  1  0
 12 13  1  0
 14 22  1  0
 15 16  1  0
 16 21  1  0
  3 24  1  0
  4 25  1  0
  9 26  1  0
 10 27  1  0
 12 28  1  0
 13 29  1  0
 14 30  1  0
 15 31  1  0
 17 32  1  0
M  CHG  2  19  -1  21  -1
M  END
>  <mol_id>  (22) 
2026-08-23-6tgu-s0-n100-r6-0022

>  <rmsd_to_ref>  (22) 
1.4183673469412716

$$$$
6tgu.A
     RDKit          3D

 32 34  0  0  0  0  0  0  0  0999 V2000
    2.3104   21.3723   37.9343 C   0  0  0  0  0  0  0  0  0  0  0  0
    2.1207   20.6858   39.2898 C   0  0  0  0  0  0  0  0  0  0  0  0
    1.4462   21.3336   40.3224 C   0  0  0  0  0  0  0  0  0  0  0  0
    1.0880   20.6744   41.5029 C   0  0  0  0  0  0  0  0  0  0  0  0
    1.5562   19.3767   41.7546 C   0  0  0  0  0  0  0  0  0  0  0  0
    1.0631   17.3269   43.1754 C   0  0  0  0  0  0  0  0  0  0  0  0
    1.3317   15.0968   42.8147 C   0  0  0  0  0  0  0  0  0  0  0  0
    1.8198   13.9171   42.0997 C   0  0  0  0  0  0  0  0  0  0  0  0
    1.4590   12.6162   42.4786 C   0  0  0  0  0  0  0  0  0  0  0  0
    1.9076   11.5097   41.7641 C   0  0  0  0  0  0  0  0  0  0  0  0
    2.6849   11.7167   40.6401 C   0  0  0  0  0  0  0  0  0  0  0  0
    3.0604   12.9860   40.2266 C   0  0  0  0  0  0  0  0  0  0  0  0
    2.6109   14.0797   40.9613 C   0  0  0  0  0  0  0  0  0  0  0  0
    0.5089   15.0432   43.9086 C   0  0  0  0  0  0  0  0  0  0  0  0
    2.2270   18.7065   40.7217 C   0  0  0  0  0  0  0  0  0  0  0  0
    2.4995   19.3693   39.5235 C   0  0  0  0  0  0  0  0  0  0  0  0
    1.1473   18.6662   42.9248 N   0  0  0  0  0  0  0  0  0  0  0  0
    1.5946   16.3929   42.3117 N   0  0  0  0  0  0  0  0  0  0  0  0
    1.6876   22.4608   37.7602 O   0  0  0  0  0  0  0  0  0  0  0  0
    2.9969   20.7659   37.0830 O   0  0  0  0  0  0  0  0  0  0  0  0
    3.0633   18.6722   38.4814 O   0  0  0  0  0  0  0  0  0  0  0  0
   -0.0130   16.6202   44.3653 S   0  0  0  0  0  0  0  0  0  0  0  0
    3.2169   10.3506   39.7170 Cl  0  0  0  0  0  0  0  0  0  0  0  0
    1.1874   22.3963   40.2058 H   0  0  0  0  0  0  0  0  0  0  0  0
    0.4376   21.1750   42.2354 H   0  0  0  0  0  0  0  0  0  0  0  0
    0.8107   12.4680   43.3549 H   0  0  0  0  0  0  0  0  0  0  0  0
    1.6488   10.4906   42.0874 H   0  0  0  0  0  0  0  0  0  0  0  0
    3.6973   13.1251   39.3406 H   0  0  0  0  0  0  0  0  0  0  0  0
    2.8851   15.0946   40.6375 H   0  0  0  0  0  0  0  0  0  0  0  0
    0.2200   14.1167   44.4264 H   0  0  0  0  0  0  0  0  0  0  0  0
    2.5381   17.6599   40.8552 H   0  0  0  0  0  0  0  0  0  0  0  0
    0.8686   19.2669   43.7138 H   0  0  0  0  0  0  0  0  0  0  0  0
  1  2  1  0
  1 19  1  0
  1 20  2  0
  2  3  1  0
  2 16  2  0
  3  4  2  0
  4  5  1  0
  5 15  2  0
  5 17  1  0
  6 17  1  0
  6 18  2  0
  6 22  1  0
  7  8  1  0
  7 14  2  0
  7 18  1  0
  8  9  1  0
  8 13  2  0
  9 10  2  0
 10 11  1  0
 11 12  2  0
 11 23  1  0
 12 13  1  0
 14 22  1  0
 15 16  1  0
 16 21  1  0
  3 24  1  0
  4 25  1  0
  9 26  1  0
 10 27  1  0
 12 28  1  0
 13 29  1  0
 14 30  1  0
 15 31  1  0
 17 32  1  0
M  CHG  2  19  -1  21  -1
M  END
>  <mol_id>  (23) 
2026-08-23-6tgu-s0-n100-r6-0023

>  <rmsd_to_ref>  (23) 
1.4642857142935495

$$$$
6tgu.A
     RDKit          3D

 32 34  0  0  0  0  0  0  0  0999 V2000
    2.1750   20.4934   36.4865 C   0  0  0  0  0  0  0  0  0  0  0  0
    2.0131   20.1091   37.8831 C   0  0  0  0  0  0  0  0  0  0  0  0
    2.3151   21.0036   38.8766 C   0  0  0  0  0  0  0  0  0  0  0  0
    2.1487   20.6031   40.1844 C   0  0  0  0  0  0  0  0  0  0  0  0
    1.6883   19.3316   40.5230 C   0  0  0  0  0  0  0  0  0  0  0  0
    1.0806   17.6944   42.3170 C   0  0  0  0  0  0  0  0  0  0  0  0
    0.9171   15.5475   43.0075 C   0  0  0  0  0  0  0  0  0  0  0  0
    1.5652   14.2621   43.3676 C   0  0  0  0  0  0  0  0  0  0  0  0
    2.9358   14.1092   43.3173 C   0  0  0  0  0  0  0  0  0  0  0  0
    3.5777   12.9326   43.6438 C   0  0  0  0  0  0  0  0  0  0  0  0
    2.8292   11.8498   44.0407 C   0  0  0  0  0  0  0  0  0  0  0  0
    1.4634   12.0005   44.0914 C   0  0  0  0  0  0  0  0  0  0  0  0
    0.8287   13.1705   43.7665 C   0  0  0  0  0  0  0  0  0  0  0  0
   -0.4646   15.6828   43.0662 C   0  0  0  0  0  0  0  0  0  0  0  0
    1.3960   18.4634   39.5144 C   0  0  0  0  0  0  0  0  0  0  0  0
    1.5557   18.8438   38.1772 C   0  0  0  0  0  0  0  0  0  0  0  0
    1.5294   18.9586   41.8834 N   0  0  0  0  0  0  0  0  0  0  0  0
    1.5664   16.5982   42.6278 N   0  0  0  0  0  0  0  0  0  0  0  0
    2.6323   21.7558   36.1332 O   0  0  0  0  0  0  0  0  0  0  0  0
    1.8926   19.6579   35.5719 O   0  0  0  0  0  0  0  0  0  0  0  0
    1.2655   17.9800   37.1369 O   0  0  0  0  0  0  0  0  0  0  0  0
   -0.7683   17.3768   42.5532 S   0  0  0  0  0  0  0  0  0  0  0  0
    3.6305   10.3520   44.4577 Cl  0  0  0  0  0  0  0  0  0  0  0  0
    2.6763   22.0024   38.6438 H   0  0  0  0  0  0  0  0  0  0  0  0
    2.3691   21.2609   41.0195 H   0  0  0  0  0  0  0  0  0  0  0  0
    3.5759   14.9492   43.0052 H   0  0  0  0  0  0  0  0  0  0  0  0
    4.6665   12.8837   43.5810 H   0  0  0  0  0  0  0  0  0  0  0  0
    0.8640   11.1546   44.4024 H   0  0  0  0  0  0  0  0  0  0  0  0
   -0.2461   13.2208   43.8279 H   0  0  0  0  0  0  0  0  0  0  0  0
   -1.2164   14.9676   43.3474 H   0  0  0  0  0  0  0  0  0  0  0  0
    1.0403   17.4771   39.6879 H   0  0  0  0  0  0  0  0  0  0  0  0
    1.7581   19.6633   42.6359 H   0  0  0  0  0  0  0  0  0  0  0  0
  1  2  1  0
  1 19  1  0
  1 20  2  0
  2  3  1  0
  2 16  2  0
  3  4  2  0
  4  5  1  0
  5 15  2  0
  5 17  1  0
  6 17  1  0
  6 18  2  0
  6 22  1  0
  7  8  1  0
  7 14  2  0
  7 18  1  0
  8  9  1  0
  8 13  2  0
  9 10  2  0
 10 11  1  0
 11 12  2  0
 11 23  1  0
 12 13  1  0
 14 22  1  0
 15 16  1  0
 16 21  1  0
  3 24  1  0
  4 25  1  0
  9 26  1  0
 10 27  1  0
 12 28  1  0
 13 29  1  0
 14 30  1  0
 15 31  1  0
 17 32  1  0
M  CHG  2  19  -1  21  -1
M  END
>  <mol_id>  (24) 
2026-08-23-6tgu-s0-n100-r6-0024

>  <rmsd_to_ref>  (24) 
1.5102040816357993

$$$$
6tgu.A
     RDKit          3D

 32 34  0  0  0  0  0  0  0  0999 V2000
    1.1579   20.7530   37.4210 C   0  0  0  0  0  0  0  0  0  0  0  0
    1.1183   20.1522   38.8289 C   0  0  0  0  0  0  0  0  0  0  0  0
    0.4657   20.8181   39.8639 C   0  0  0  0  0  0  0  0  0  0  0  0
    0.2443   20.2191   41.1084 C   0  0  0  0  0  0  0  0  0  0  0  0
    0.8330   18.9823   41.4092 C   0  0  0  0  0  0  0  0  0  0  0  0
    0.6076   17.0070   42.9937 C   0  0  0  0  0  0  0  0  0  0  0  0
    1.0319   14.7841   42.7609 C   0  0  0  0  0  0  0  0  0  0  0  0
    1.5644   13.5974   42.0906 C   0  0  0  0  0  0  0  0  0  0  0  0
    1.3378   12.3030   42.5795 C   0  0  0  0  0  0  0  0  0  0  0  0
    1.8251   11.1862   41.9078 C   0  0  0  0  0  0  0  0  0  0  0  0
    2.5039   11.3717   40.7181 C   0  0  0  0  0  0  0  0  0  0  0  0
    2.7453   12.6334   40.1957 C   0  0  0  0  0  0  0  0  0  0  0  0
    2.2595   13.7389   40.8885 C   0  0  0  0  0  0  0  0  0  0  0  0
    0.2933   14.7456   43.9139 C   0  0  0  0  0  0  0  0  0  0  0  0
    1.4838   18.2938   40.3755 C   0  0  0  0  0  0  0  0  0  0  0  0
    1.6184   18.8885   39.1196 C   0  0  0  0  0  0  0  0  0  0  0  0
    0.5648   18.3277   42.6504 N   0  0  0  0  0  0  0  0  0  0  0  0
    1.1530   16.0575   42.1561 N   0  0  0  0  0  0  0  0  0  0  0  0
    0.4378   21.7753   37.2226 O   0  0  0  0  0  0  0  0  0  0  0  0
    1.8314   20.1419   36.5627 O   0  0  0  0  0  0  0  0  0  0  0  0
    2.1643   18.1643   38.0865 O   0  0  0  0  0  0  0  0  0  0  0  0
   -0.3230   16.3063   44.3038 S   0  0  0  0  0  0  0  0  0  0  0  0
    3.0810    9.9882   39.8495 Cl  0  0  0  0  0  0  0  0  0  0  0  0
    0.1137   21.8469   39.6974 H   0  0  0  0  0  0  0  0  0  0  0  0
   -0.3929   20.7192   41.8526 H   0  0  0  0  0  0  0  0  0  0  0  0
    0.7655   12.1682   43.5092 H   0  0  0  0  0  0  0  0  0  0  0  0
    1.6731   10.1758   42.3153 H   0  0  0  0  0  0  0  0  0  0  0  0
    3.3064   12.7575   39.2578 H   0  0  0  0  0  0  0  0  0  0  0  0
    2.4271   14.7461   40.4795 H   0  0  0  0  0  0  0  0  0  0  0  0
    0.1172   13.8388   44.5112 H   0  0  0  0  0  0  0  0  0  0  0  0
    1.8878   17.2863   40.5538 H   0  0  0  0  0  0  0  0  0  0  0  0
    0.2929   18.9598   43.4168 H   0  0  0  0  0  0  0  0  0  0  0  0
  1  2  1  0
  1 19  1  0
  1 20  2  0
  2  3  1  0
  2 16  2  0
  3  4  2  0
  4  5  1  0
  5 15  2  0
  5 17  1  0
  6 17  1  0
  6 18  2  0
  6 22  1  0
  7  8  1  0
  7 14  2  0
  7 18  1  0
  8  9  1  0
  8 13  2  0
  9 10  2  0
 10 11  1  0
 11 12  2  0
 11 23  1  0
 12 13  1  0
 14 22  1  0
 15 16  1  0
 16 21  1  0
  3 24  1  0
  4 25  1  0
  9 26  1  0
 10 27  1  0
 12 28  1  0
 13 29  1  0
 14 30  1  0
 15 31  1  0
 17 32  1  0
M  CHG  2  19  -1  21  -1
M  END
>  <mol_id>  (25) 
2026-08-23-6tgu-s0-n100-r6-0025

>  <rmsd_to_ref>  (25) 
1.5561224489860692

$$$$
6tgu.A
     RDKit          3D

 32 34  0  0  0  0  0  0  0  0999 V2000
    2.1978   19.3079   36.4655 C   0  0  0  0  0  0  0  0  0  0  0  0
    2.0645   19.3876   37.9234 C   0  0  0  0  0  0  0  0  0  0  0  0
    3.0422   18.8164   38.7346 C   0  0  0  0  0  0  0  0  0  0  0  0
    2.8782   18.8997   40.1008 C   0  0  0  0  0  0  0  0  0  0  0  0
    1.7665   19.5392   40.6338 C   0  0  0  0  0  0  0  0  0  0  0  0
    0.9726   18.3834   42.5817 C   0  0  0  0  0  0  0  0  0  0  0  0
    0.5850   16.2127   43.0232 C   0  0  0  0  0  0  0  0  0  0  0  0
    1.0549   14.8169   42.8211 C   0  0  0  0  0  0  0  0  0  0  0  0
    0.3722   13.7410   43.3364 C   0  0  0  0  0  0  0  0  0  0  0  0
    0.8166   12.4554   43.1106 C   0  0  0  0  0  0  0  0  0  0  0  0
    1.9548   12.1743   42.3676 C   0  0  0  0  0  0  0  0  0  0  0  0
    2.6348   13.2610   41.8570 C   0  0  0  0  0  0  0  0  0  0  0  0
    2.1873   14.5320   42.0838 C   0  0  0  0  0  0  0  0  0  0  0  0
   -0.5108   16.5253   43.6902 C   0  0  0  0  0  0  0  0  0  0  0  0
    0.7935   20.1099   39.8433 C   0  0  0  0  0  0  0  0  0  0  0  0
    0.9563   20.0262   38.4784 C   0  0  0  0  0  0  0  0  0  0  0  0
    1.5499   19.5987   42.0558 N   0  0  0  0  0  0  0  0  0  0  0  0
    1.2315   17.2437   42.5222 N   0  0  0  0  0  0  0  0  0  0  0  0
    1.2405   19.8537   35.6356 O   0  0  0  0  0  0  0  0  0  0  0  0
    3.1860   18.7427   35.9161 O   0  0  0  0  0  0  0  0  0  0  0  0
   -0.0338   20.6026   37.6894 O   0  0  0  0  0  0  0  0  0  0  0  0
   -0.5841   18.3930   43.5671 S   0  0  0  0  0  0  0  0  0  0  0  0
    2.5139   10.5508   42.0704 Cl  0  0  0  0  0  0  0  0  0  0  0  0
    3.9097   18.3144   38.3251 H   0  0  0  0  0  0  0  0  0  0  0  0
    3.6252   18.4611   40.7884 H   0  0  0  0  0  0  0  0  0  0  0  0
   -0.5229   13.9293   43.9278 H   0  0  0  0  0  0  0  0  0  0  0  0
    0.2362   11.6373   43.5393 H   0  0  0  0  0  0  0  0  0  0  0  0
    3.5431   13.1483   41.2609 H   0  0  0  0  0  0  0  0  0  0  0  0
    2.7420   15.3743   41.6712 H   0  0  0  0  0  0  0  0  0  0  0  0
   -1.3201   15.9743   44.2510 H   0  0  0  0  0  0  0  0  0  0  0  0
   -0.0436   20.5938   40.3147 H   0  0  0  0  0  0  0  0  0  0  0  0
    1.7767   20.4180   42.6408 H   0  0  0  0  0  0  0  0  0  0  0  0
  1  2  1  0
  1 19  1  0
  1 20  2  0
  2  3  1  0
  2 16  2  0
  3  4  2  0
  4  5  1  0
  5 15  2  0
  5 17  1  0
  6 17  1  0
  6 18  2  0
  6 22  1  0
  7  8  1  0
  7 14  2  0
  7 18  1  0
  8  9  1  0
  8 13  2  0
  9 10  2  0
 10 11  1  0
 11 12  2  0
 11 23  1  0
 12 13  1  0
 14 22  1  0
 15 16  1  0
 16 21  1  0
  3 24  1  0
  4 25  1  0
  9 26  1  0
 10 27  1  0
 12 28  1  0
 13 29  1  0
 14 30  1  0
 15 31  1  0
 17 32  1  0
M  CHG  2  19  -1  21  -1
M  END
>  <mol_id>  (26) 
2026-08-23-6tgu-s0-n100-r6-0026

>  <rmsd_to_ref>  (26) 
1.6020408163280895

$$$$
6tgu.A
     RDKit          3D

 32 34  0  0  0  0  0  0  0  0999 V2000
    2.1892   20.9145   38.0442 C   0  0  0  0  0  0  0  0  0  0  0  0
    2.0666   20.1516   39.3662 C   0  0  0  0  0  0  0  0  0  0  0  0
    1.7282   20.8208   40.5402 C   0  0  0  0  0  0  0  0  0  0  0  0
    1.4220   20.1377   41.7217 C   0  0  0  0  0  0  0  0  0  0  0  0
    1.6189   18.7517   41.8049 C   0  0  0  0  0  0  0  0  0  0  0  0
    0.9074   16.7211   43.1591 C   0  0  0  0  0  0  0  0  0  0  0  0
    0.6050   14.5323   42.6175 C   0  0  0  0  0  0  0  0  0  0  0  0
    0.6946   13.3536   41.7550 C   0  0  0  0  0  0  0  0  0  0  0  0
    0.1141   12.1274   42.1094 C   0  0  0  0  0  0  0  0  0  0  0  0
    0.1823   11.0283   41.2589 C   0  0  0  0  0  0  0  0  0  0  0  0
    0.7981   11.1775   40.0305 C   0  0  0  0  0  0  0  0  0  0  0  0
    1.3801   12.3733   39.6376 C   0  0  0  0  0  0  0  0  0  0  0  0
    1.3113   13.4582   40.5073 C   0  0  0  0  0  0  0  0  0  0  0  0
   -0.0247   14.5449   43.8339 C   0  0  0  0  0  0  0  0  0  0  0  0
    1.9488   18.0615   40.6298 C   0  0  0  0  0  0  0  0  0  0  0  0
    2.1705   18.7681   39.4463 C   0  0  0  0  0  0  0  0  0  0  0  0
    1.2510   18.0304   42.9820 N   0  0  0  0  0  0  0  0  0  0  0  0
    1.0706   15.7870   42.1583 N   0  0  0  0  0  0  0  0  0  0  0  0
    1.8086   22.1221   38.0514 O   0  0  0  0  0  0  0  0  0  0  0  0
    2.5772   20.2649   37.0486 O   0  0  0  0  0  0  0  0  0  0  0  0
    2.3900   18.0753   38.2793 O   0  0  0  0  0  0  0  0  0  0  0  0
   -0.0980   16.1428   44.4737 S   0  0  0  0  0  0  0  0  0  0  0  0
    0.8549    9.8291   38.9441 Cl  0  0  0  0  0  0  0  0  0  0  0  0
    1.7008   21.9205   40.5379 H   0  0  0  0  0  0  0  0  0  0  0  0
    1.0259   20.6887   42.5874 H   0  0  0  0  0  0  0  0  0  0  0  0
   -0.4037   12.0329   43.0753 H   0  0  0  0  0  0  0  0  0  0  0  0
   -0.2452   10.0600   41.5582 H   0  0  0  0  0  0  0  0  0  0  0  0
    1.8834   12.4623   38.6635 H   0  0  0  0  0  0  0  0  0  0  0  0
    1.7527   14.4191   40.2044 H   0  0  0  0  0  0  0  0  0  0  0  0
   -0.4295   13.6536   44.3355 H   0  0  0  0  0  0  0  0  0  0  0  0
    2.0328   16.9648   40.6403 H   0  0  0  0  0  0  0  0  0  0  0  0
    1.2437   18.5944   43.8439 H   0  0  0  0  0  0  0  0  0  0  0  0
  1  2  1  0
  1 19  1  0
  1 20  2  0
  2  3  1  0
  2 16  2  0
  3  4  2  0
  4  5  1  0
  5 15  2  0
  5 17  1  0
  6 17  1  0
  6 18  2  0
  6 22  1  0
  7  8  1  0
  7 14  2  0
  7 18  1  0
  8  9  1  0
  8 13  2  0
  9 10  2  0
 10 11  1  0
 11 12  2  0
 11 23  1  0
 12 13  1  0
 14 22  1  0
 15 16  1  0
 16 21  1  0
  3 24  1  0
  4 25  1  0
  9 26  1  0
 10 27  1  0
 12 28  1  0
 13 29  1  0
 14 30  1  0
 15 31  1  0
 17 32  1  0
M  CHG  2  19  -1  21  -1
M  END
>  <mol_id>  (27) 
2026-08-23-6tgu-s0-n100-r6-0027

>  <rmsd_to_ref>  (27) 
1.647959183676317

$$$$
6tgu.A
     RDKit          3D

 32 34  0  0  0  0  0  0  0  0999 V2000
    3.8333   21.6104   38.0315 C   0  0  0  0  0  0  0  0  0  0  0  0
    3.0104   20.8867   38.9960 C   0  0  0  0  0  0  0  0  0  0  0  0
    2.6748   21.5144   40.1899 C   0  0  0  0  0  0  0  0  0  0  0  0
    1.9039   20.8112   41.0862 C   0  0  0  0  0  0  0  0  0  0  0  0
    1.4685   19.5195   40.8214 C   0  0  0  0  0  0  0  0  0  0  0  0
    0.1847   17.5481   41.6701 C   0  0  0  0  0  0  0  0  0  0  0  0
   -0.2124   15.3304   41.7214 C   0  0  0  0  0  0  0  0  0  0  0  0
    0.1786   13.9988   42.1810 C   0  0  0  0  0  0  0  0  0  0  0  0
    1.3243   13.8115   42.9776 C   0  0  0  0  0  0  0  0  0  0  0  0
    1.6922   12.5651   43.4313 C   0  0  0  0  0  0  0  0  0  0  0  0
    0.9035   11.4618   43.0889 C   0  0  0  0  0  0  0  0  0  0  0  0
   -0.2157   11.6046   42.3169 C   0  0  0  0  0  0  0  0  0  0  0  0
   -0.5340   12.8755   41.8921 C   0  0  0  0  0  0  0  0  0  0  0  0
   -1.3466   15.5170   40.9372 C   0  0  0  0  0  0  0  0  0  0  0  0
    1.7931   18.8857   39.6443 C   0  0  0  0  0  0  0  0  0  0  0  0
    2.5725   19.6093   38.7498 C   0  0  0  0  0  0  0  0  0  0  0  0
    0.6733   18.8741   41.8001 N   0  0  0  0  0  0  0  0  0  0  0  0
    0.3992   16.4613   41.9685 N   0  0  0  0  0  0  0  0  0  0  0  0
    4.2572   22.9208   38.3227 O   0  0  0  0  0  0  0  0  0  0  0  0
    4.1868   21.1101   36.9336 O   0  0  0  0  0  0  0  0  0  0  0  0
    2.9125   18.9763   37.5419 O   0  0  0  0  0  0  0  0  0  0  0  0
   -1.4226   17.2964   40.6336 S   0  0  0  0  0  0  0  0  0  0  0  0
    1.4132    9.9124   43.6991 Cl  0  0  0  0  0  0  0  0  0  0  0  0
    2.9881   22.5068   40.4365 H   0  0  0  0  0  0  0  0  0  0  0  0
    1.6279   21.2677   42.0125 H   0  0  0  0  0  0  0  0  0  0  0  0
    1.8961   14.6851   43.2122 H   0  0  0  0  0  0  0  0  0  0  0  0
    2.5747   12.4373   44.0422 H   0  0  0  0  0  0  0  0  0  0  0  0
   -0.8419   10.7540   42.0422 H   0  0  0  0  0  0  0  0  0  0  0  0
   -1.4227   12.9698   41.2822 H   0  0  0  0  0  0  0  0  0  0  0  0
   -2.0934   14.7644   40.5413 H   0  0  0  0  0  0  0  0  0  0  0  0
    1.4471   17.8870   39.4575 H   0  0  0  0  0  0  0  0  0  0  0  0
    0.4083   19.3693   42.6968 H   0  0  0  0  0  0  0  0  0  0  0  0
  1  2  1  0
  1 19  1  0
  1 20  2  0
  2  3  1  0
  2 16  2  0
  3  4  2  0
  4  5  1  0
  5 15  2  0
  5 17  1  0
  6 17  1  0
  6 18  2  0
  6 22  1  0
  7  8  1  0
  7 14  2  0
  7 18  1  0
  8  9  1  0
  8 13  2  0
  9 10  2  0
 10 11  1  0
 11 12  2  0
 11 23  1  0
 12 13  1  0
 14 22  1  0
 15 16  1  0
 16 21  1  0
  3 24  1  0
  4 25  1  0
  9 26  1  0
 10 27  1  0
 12 28  1  0
 13 29  1  0
 14 30  1  0
 15 31  1  0
 17 32  1  0
M  CHG  2  19  -1  21  -1
M  END
>  <mol_id>  (28) 
2026-08-23-6tgu-s0-n100-r6-0028

>  <rmsd_to_ref>  (28) 
1.6938775510238764

$$$$
6tgu.A
     RDKit          3D

 32 34  0  0  0  0  0  0  0  0999 V2000
    4.3549   18.7364   36.3908 C   0  0  0  0  0  0  0  0  0  0  0  0
    3.5030   19.0500   37.6239 C   0  0  0  0  0  0  0  0  0  0  0  0
    2.6505   20.1517   37.6330 C   0  0  0  0  0  0  0  0  0  0  0  0
    1.7221   20.3631   38.6577 C   0  0  0  0  0  0  0  0  0  0  0  0
    1.7440   19.5568   39.8049 C   0  0  0  0  0  0  0  0  0  0  0  0
    0.2820   18.8377   41.7566 C   0  0  0  0  0  0  0  0  0  0  0  0
    0.1479   16.9102   42.9576 C   0  0  0  0  0  0  0  0  0  0  0  0
    0.5886   15.5852   43.3949 C   0  0  0  0  0  0  0  0  0  0  0  0
   -0.1797   14.7946   44.2613 C   0  0  0  0  0  0  0  0  0  0  0  0
    0.2424   13.5234   44.6377 C   0  0  0  0  0  0  0  0  0  0  0  0
    1.4190   13.0306   44.1054 C   0  0  0  0  0  0  0  0  0  0  0  0
    2.2066   13.7760   43.2411 C   0  0  0  0  0  0  0  0  0  0  0  0
    1.7728   15.0501   42.8853 C   0  0  0  0  0  0  0  0  0  0  0  0
   -1.0223   17.4988   43.3584 C   0  0  0  0  0  0  0  0  0  0  0  0
    2.5882   18.4372   39.8072 C   0  0  0  0  0  0  0  0  0  0  0  0
    3.4477   18.2111   38.7305 C   0  0  0  0  0  0  0  0  0  0  0  0
    0.7626   19.7182   40.8306 N   0  0  0  0  0  0  0  0  0  0  0  0
    0.8757   17.6113   41.9673 N   0  0  0  0  0  0  0  0  0  0  0  0
    4.1168   19.4188   35.3512 O   0  0  0  0  0  0  0  0  0  0  0  0
    5.1576   17.7820   36.4841 O   0  0  0  0  0  0  0  0  0  0  0  0
    4.1937   17.0570   38.6952 O   0  0  0  0  0  0  0  0  0  0  0  0
   -1.3019   18.9644   42.4971 S   0  0  0  0  0  0  0  0  0  0  0  0
    1.9366   11.4335   44.5330 Cl  0  0  0  0  0  0  0  0  0  0  0  0
    2.7093   20.8780   36.8089 H   0  0  0  0  0  0  0  0  0  0  0  0
    0.9734   21.1634   38.5634 H   0  0  0  0  0  0  0  0  0  0  0  0
   -1.1317   15.1857   44.6496 H   0  0  0  0  0  0  0  0  0  0  0  0
   -0.3483   12.9226   45.3448 H   0  0  0  0  0  0  0  0  0  0  0  0
    3.1501   13.3709   42.8465 H   0  0  0  0  0  0  0  0  0  0  0  0
    2.3767   15.6485   42.1872 H   0  0  0  0  0  0  0  0  0  0  0  0
   -1.6940   17.0902   44.1278 H   0  0  0  0  0  0  0  0  0  0  0  0
    2.5734   17.7381   40.6563 H   0  0  0  0  0  0  0  0  0  0  0  0
    0.3469   20.6593   40.8799 H   0  0  0  0  0  0  0  0  0  0  0  0
  1  2  1  0
  1 19  1  0
  1 20  2  0
  2  3  1  0
  2 16  2  0
  3  4  2  0
  4  5  1  0
  5 15  2  0
  5 17  1  0
  6 17  1  0
  6 18  2  0
  6 22  1  0
  7  8  1  0
  7 14  2  0
  7 18  1  0
  8  9  1  0
  8 13  2  0
  9 10  2  0
 10 11  1  0
 11 12  2  0
 11 23  1  0
 12 13  1  0
 14 22  1  0
 15 16  1  0
 16 21  1  0
  3 24  1  0
  4 25  1  0
  9 26  1  0
 10 27  1  0
 12 28  1  0
 13 29  1  0
 14 30  1  0
 15 31  1  0
 17 32  1  0
M  CHG  2  19  -1  21  -1
M  END
>  <mol_id>  (29) 
2026-08-23-6tgu-s0-n100-r6-0029

>  <rmsd_to_ref>  (29) 
1.7397959183735057

$$$$
6tgu.A
     RDKit          3D

 32 34  0  0  0  0  0  0  0  0999 V2000
    2.3620   21.2553   37.2445 C   0  0  0  0  0  0  0  0  0  0  0  0
    2.1295   20.5647   38.4993 C   0  0  0  0  0  0  0  0  0  0  0  0
    2.3752   19.2272   38.6453 C   0  0  0  0  0  0  0  0  0  0  0  0
    2.1215   18.6004   39.8549 C   0  0  0  0  0  0  0  0  0  0  0  0
    1.6248   19.2713   40.9354 C   0  0  0  0  0  0  0  0  0  0  0  0
    0.9543   17.3240   42.3858 C   0  0  0  0  0  0  0  0  0  0  0  0
    0.7719   15.0845   42.4825 C   0  0  0  0  0  0  0  0  0  0  0  0
    1.3233   13.7553   42.1274 C   0  0  0  0  0  0  0  0  0  0  0  0
    0.6610   12.6090   42.5307 C   0  0  0  0  0  0  0  0  0  0  0  0
    1.1703   11.3736   42.1679 C   0  0  0  0  0  0  0  0  0  0  0  0
    2.3135   11.3063   41.4176 C   0  0  0  0  0  0  0  0  0  0  0  0
    3.0086   12.4296   40.9934 C   0  0  0  0  0  0  0  0  0  0  0  0
    2.4990   13.6572   41.3588 C   0  0  0  0  0  0  0  0  0  0  0  0
   -0.4076   15.2216   43.1595 C   0  0  0  0  0  0  0  0  0  0  0  0
    1.3842   20.6407   40.7531 C   0  0  0  0  0  0  0  0  0  0  0  0
    1.6264   21.2775   39.5737 C   0  0  0  0  0  0  0  0  0  0  0  0
    1.3027   18.7347   42.1831 N   0  0  0  0  0  0  0  0  0  0  0  0
    1.3651   16.2226   42.1444 N   0  0  0  0  0  0  0  0  0  0  0  0
    2.8869   20.5825   36.1446 O   0  0  0  0  0  0  0  0  0  0  0  0
    2.1028   22.4583   37.1169 O   0  0  0  0  0  0  0  0  0  0  0  0
    1.3673   22.6293   39.4668 O   0  0  0  0  0  0  0  0  0  0  0  0
   -0.6439   17.0711   43.3035 S   0  0  0  0  0  0  0  0  0  0  0  0
    2.9375    9.7384   40.9591 Cl  0  0  0  0  0  0  0  0  0  0  0  0
    2.7744   18.6668   37.7873 H   0  0  0  0  0  0  0  0  0  0  0  0
    2.3344   17.5495   39.9476 H   0  0  0  0  0  0  0  0  0  0  0  0
   -0.2478   12.6619   43.1318 H   0  0  0  0  0  0  0  0  0  0  0  0
    0.6672   10.4864   42.4762 H   0  0  0  0  0  0  0  0  0  0  0  0
    3.9074   12.3844   40.4082 H   0  0  0  0  0  0  0  0  0  0  0  0
    2.9925   14.5609   41.0644 H   0  0  0  0  0  0  0  0  0  0  0  0
   -1.1379   14.5307   43.5833 H   0  0  0  0  0  0  0  0  0  0  0  0
    0.9808   21.2146   41.6033 H   0  0  0  0  0  0  0  0  0  0  0  0
    1.3046   19.3216   43.0401 H   0  0  0  0  0  0  0  0  0  0  0  0
  1  2  1  0
  1 19  1  0
  1 20  2  0
  2  3  1  0
  2 16  2  0
  3  4  2  0
  4  5  1  0
  5 15  2  0
  5 17  1  0
  6 17  1  0
  6 18  2  0
  6 22  1  0
  7  8  1  0
  7 14  2  0
  7 18  1  0
  8  9  1  0
  8 13  2  0
  9 10  2  0
 10 11  1  0
 11 12  2  0
 11 23  1  0
 12 13  1  0
 14 22  1  0
 15 16  1  0
 16 21  1  0
  3 24  1  0
  4 25  1  0
  9 26  1  0
 10 27  1  0
 12 28  1  0
 13 29  1  0
 14 30  1  0
 15 31  1  0
 17 32  1  0
M  CHG  2  19  -1  21  -1
M  END
>  <mol_id>  (30) 
2026-08-23-6tgu-s0-n100-r6-0030

>  <rmsd_to_ref>  (30) 
1.7857142857183996

$$$$
6tgu.A
     RDKit          3D

 32 34  0  0  0  0  0  0  0  0999 V2000
    1.1660   20.9906   37.2187 C   0  0  0  0  0  0  0  0  0  0  0  0
    1.4990   20.5238   38.6385 C   0  0  0  0  0  0  0  0  0  0  0  0
    1.1809   21.3190   39.7372 C   0  0  0  0  0  0  0  0  0  0  0  0
    1.2941   20.8500   41.0501 C   0  0  0  0  0  0  0  0  0  0  0  0
    1.9028   19.6127   41.3058 C   0  0  0  0  0  0  0  0  0  0  0  0
    2.0619   17.8069   43.0882 C   0  0  0  0  0  0  0  0  0  0  0  0
    2.3329   15.5506   42.9809 C   0  0  0  0  0  0  0  0  0  0  0  0
    2.6200   14.2782   42.3179 C   0  0  0  0  0  0  0  0  0  0  0  0
    2.4961   13.0495   42.9819 C   0  0  0  0  0  0  0  0  0  0  0  0
    2.7416   11.8491   42.3226 C   0  0  0  0  0  0  0  0  0  0  0  0
    3.0694   11.8846   40.9803 C   0  0  0  0  0  0  0  0  0  0  0  0
    3.1972   13.0769   40.2837 C   0  0  0  0  0  0  0  0  0  0  0  0
    2.9586   14.2679   40.9639 C   0  0  0  0  0  0  0  0  0  0  0  0
    1.9422   15.6614   44.2891 C   0  0  0  0  0  0  0  0  0  0  0  0
    2.2188   18.7954   40.2112 C   0  0  0  0  0  0  0  0  0  0  0  0
    2.0189   19.2642   38.9115 C   0  0  0  0  0  0  0  0  0  0  0  0
    1.9684   19.0910   42.6343 N   0  0  0  0  0  0  0  0  0  0  0  0
    2.3226   16.7542   42.2370 N   0  0  0  0  0  0  0  0  0  0  0  0
    0.4525   22.0318   37.1190 O   0  0  0  0  0  0  0  0  0  0  0  0
    1.5549   20.2648   36.2775 O   0  0  0  0  0  0  0  0  0  0  0  0
    2.2332   18.4178   37.8498 O   0  0  0  0  0  0  0  0  0  0  0  0
    1.5090   17.2852   44.6680 S   0  0  0  0  0  0  0  0  0  0  0  0
    3.3380   10.3959   40.1360 Cl  0  0  0  0  0  0  0  0  0  0  0  0
    0.8300   22.3475   39.5671 H   0  0  0  0  0  0  0  0  0  0  0  0
    0.9048   21.4529   41.8838 H   0  0  0  0  0  0  0  0  0  0  0  0
    2.2000   13.0343   44.0412 H   0  0  0  0  0  0  0  0  0  0  0  0
    2.6760   10.8909   42.8589 H   0  0  0  0  0  0  0  0  0  0  0  0
    3.4799   13.0814   39.2206 H   0  0  0  0  0  0  0  0  0  0  0  0
    3.0387   15.2219   40.4222 H   0  0  0  0  0  0  0  0  0  0  0  0
    1.9094   14.8249   45.0028 H   0  0  0  0  0  0  0  0  0  0  0  0
    2.6235   17.7860   40.3764 H   0  0  0  0  0  0  0  0  0  0  0  0
    1.9402   19.8054   43.3758 H   0  0  0  0  0  0  0  0  0  0  0  0
  1  2  1  0
  1 19  1  0
  1 20  2  0
  2  3  1  0
  2 16  2  0
  3  4  2  0
  4  5  1  0
  5 15  2  0
  5 17  1  0
  6 17  1  0
  6 18  2  0
  6 22  1  0
  7  8  1  0
  7 14  2  0
  7 18  1  0
  8  9  1  0
  8 13  2  0
  9 10  2  0
 10 11  1  0
 11 12  2  0
 11 23  1  0
 12 13  1  0
 14 22  1  0
 15 16  1  0
 16 21  1  0
  3 24  1  0
  4 25  1  0
  9 26  1  0
 10 27  1  0
 12 28  1  0
 13 29  1  0
 14 30  1  0
 15 31  1  0
 17 32  1  0
M  CHG  2  19  -1  21  -1
M  END
>  <mol_id>  (31) 
2026-08-23-6tgu-s0-n100-r6-0031

>  <rmsd_to_ref>  (31) 
1.831632653067221

$$$$
6tgu.A
     RDKit          3D

 32 34  0  0  0  0  0  0  0  0999 V2000
    3.9150   21.7879   39.1682 C   0  0  0  0  0  0  0  0  0  0  0  0
    2.8982   20.8872   39.6951 C   0  0  0  0  0  0  0  0  0  0  0  0
    1.5620   21.1591   39.4832 C   0  0  0  0  0  0  0  0  0  0  0  0
    0.5874   20.2930   39.9886 C   0  0  0  0  0  0  0  0  0  0  0  0
    0.9616   19.1616   40.7023 C   0  0  0  0  0  0  0  0  0  0  0  0
    0.3921   17.1219   41.9767 C   0  0  0  0  0  0  0  0  0  0  0  0
    1.0613   14.9302   42.2517 C   0  0  0  0  0  0  0  0  0  0  0  0
    1.4249   13.5590   41.7689 C   0  0  0  0  0  0  0  0  0  0  0  0
    1.7915   12.5770   42.6458 C   0  0  0  0  0  0  0  0  0  0  0  0
    2.1169   11.3390   42.1414 C   0  0  0  0  0  0  0  0  0  0  0  0
    2.0957   11.0273   40.7992 C   0  0  0  0  0  0  0  0  0  0  0  0
    1.7250   12.0200   39.9131 C   0  0  0  0  0  0  0  0  0  0  0  0
    1.4004   13.2573   40.4241 C   0  0  0  0  0  0  0  0  0  0  0  0
    1.1091   15.1865   43.6150 C   0  0  0  0  0  0  0  0  0  0  0  0
    2.3207   18.8983   40.9098 C   0  0  0  0  0  0  0  0  0  0  0  0
    3.2816   19.7698   40.4006 C   0  0  0  0  0  0  0  0  0  0  0  0
   -0.0088   18.2484   41.2326 N   0  0  0  0  0  0  0  0  0  0  0  0
    0.7141   15.8633   41.4442 N   0  0  0  0  0  0  0  0  0  0  0  0
    3.5654   22.9223   38.4521 O   0  0  0  0  0  0  0  0  0  0  0  0
    5.1388   21.5116   39.3791 O   0  0  0  0  0  0  0  0  0  0  0  0
    4.6028   19.4388   40.6486 O   0  0  0  0  0  0  0  0  0  0  0  0
    0.6018   16.9422   43.7110 S   0  0  0  0  0  0  0  0  0  0  0  0
    2.5230    9.4271   40.2251 Cl  0  0  0  0  0  0  0  0  0  0  0  0
    1.2430   22.0506   38.9198 H   0  0  0  0  0  0  0  0  0  0  0  0
   -0.4724   20.5021   39.8247 H   0  0  0  0  0  0  0  0  0  0  0  0
    1.8302   12.7502   43.7109 H   0  0  0  0  0  0  0  0  0  0  0  0
    2.4021   10.5847   42.8548 H   0  0  0  0  0  0  0  0  0  0  0  0
    1.6944   11.8202   38.8520 H   0  0  0  0  0  0  0  0  0  0  0  0
    1.1091   14.0352   39.7154 H   0  0  0  0  0  0  0  0  0  0  0  0
    1.3621   14.5831   44.4553 H   0  0  0  0  0  0  0  0  0  0  0  0
    2.6212   18.0031   41.4747 H   0  0  0  0  0  0  0  0  0  0  0  0
   -1.0150   18.4658   41.0373 H   0  0  0  0  0  0  0  0  0  0  0  0
  1  2  1  0
  1 19  1  0
  1 20  2  0
  2  3  1  0
  2 16  2  0
  3  4  2  0
  4  5  1  0
  5 15  2  0
  5 17  1  0
  6 17  1  0
  6 18  2  0
  6 22  1  0
  7  8  1  0
  7 14  2  0
  7 18  1  0
  8  9  1  0
  8 13  2  0
  9 10  2  0
 10 11  1  0
 11 12  2  0
 11 23  1  0
 12 13  1  0
 14 22  1  0
 15 16  1  0
 16 21  1  0
  3 24  1  0
  4 25  1  0
  9 26  1  0
 10 27  1  0
 12 28  1  0
 13 29  1  0
 14 30  1  0
 15 31  1  0
 17 32  1  0
M  CHG  2  19  -1  21  -1
M  END
>  <mol_id>  (32) 
2026-08-23-6tgu-s0-n100-r6-0032

>  <rmsd_to_ref>  (32) 
1.8775510204109607

$$$$
6tgu.A
     RDKit          3D

 32 34  0  0  0  0  0  0  0  0999 V2000
    1.2737   21.6860   37.9942 C   0  0  0  0  0  0  0  0  0  0  0  0
    1.4207   20.9906   39.3505 C   0  0  0  0  0  0  0  0  0  0  0  0
    0.9482   21.5981   40.5117 C   0  0  0  0  0  0  0  0  0  0  0  0
    0.8917   20.9198   41.7336 C   0  0  0  0  0  0  0  0  0  0  0  0
    1.4777   19.6523   41.8631 C   0  0  0  0  0  0  0  0  0  0  0  0
    1.4224   17.5780   43.3320 C   0  0  0  0  0  0  0  0  0  0  0  0
    1.7361   15.3675   42.8952 C   0  0  0  0  0  0  0  0  0  0  0  0
    2.1264   14.2182   42.0779 C   0  0  0  0  0  0  0  0  0  0  0  0
    1.9319   12.8985   42.5099 C   0  0  0  0  0  0  0  0  0  0  0  0
    2.2796   11.8201   41.7024 C   0  0  0  0  0  0  0  0  0  0  0  0
    2.7830   12.0719   40.4400 C   0  0  0  0  0  0  0  0  0  0  0  0
    2.9861   13.3609   39.9706 C   0  0  0  0  0  0  0  0  0  0  0  0
    2.6427   14.4266   40.7979 C   0  0  0  0  0  0  0  0  0  0  0  0
    1.1730   15.2660   44.1398 C   0  0  0  0  0  0  0  0  0  0  0  0
    1.9479   19.0223   40.7021 C   0  0  0  0  0  0  0  0  0  0  0  0
    1.9168   19.6990   39.4814 C   0  0  0  0  0  0  0  0  0  0  0  0
    1.3727   18.9198   43.0853 N   0  0  0  0  0  0  0  0  0  0  0  0
    1.8087   16.6765   42.3630 N   0  0  0  0  0  0  0  0  0  0  0  0
    0.5657   22.7355   37.9713 O   0  0  0  0  0  0  0  0  0  0  0  0
    1.7945   21.1207   37.0079 O   0  0  0  0  0  0  0  0  0  0  0  0
    2.2823   19.0358   38.3341 O   0  0  0  0  0  0  0  0  0  0  0  0
    0.6710   16.8096   44.7171 S   0  0  0  0  0  0  0  0  0  0  0  0
    3.1820   10.7391   39.4076 Cl  0  0  0  0  0  0  0  0  0  0  0  0
    0.6090   22.6435   40.4662 H   0  0  0  0  0  0  0  0  0  0  0  0
    0.3865   21.3814   42.5948 H   0  0  0  0  0  0  0  0  0  0  0  0
    1.4975   12.7128   43.5032 H   0  0  0  0  0  0  0  0  0  0  0  0
    2.1562   10.7877   42.0614 H   0  0  0  0  0  0  0  0  0  0  0  0
    3.4080   13.5368   38.9701 H   0  0  0  0  0  0  0  0  0  0  0  0
    2.7813   15.4557   40.4349 H   0  0  0  0  0  0  0  0  0  0  0  0
    1.0568   14.3244   44.6965 H   0  0  0  0  0  0  0  0  0  0  0  0
    2.3409   17.9961   40.7529 H   0  0  0  0  0  0  0  0  0  0  0  0
    1.2361   19.5035   43.9229 H   0  0  0  0  0  0  0  0  0  0  0  0
  1  2  1  0
  1 19  1  0
  1 20  2  0
  2  3  1  0
  2 16  2  0
  3  4  2  0
  4  5  1  0
  5 15  2  0
  5 17  1  0
  6 17  1  0
  6 18  2  0
  6 22  1  0
  7  8  1  0
  7 14  2  0
  7 18  1  0
  8  9  1  0
  8 13  2  0
  9 10  2  0
 10 11  1  0
 11 12  2  0
 11 23  1  0
 12 13  1  0
 14 22  1  0
 15 16  1  0
 16 21  1  0
  3 24  1  0
  4 25  1  0
  9 26  1  0
 10 27  1  0
 12 28  1  0
 13 29  1  0
 14 30  1  0
 15 31  1  0
 17 32  1  0
M  CHG  2  19  -1  21  -1
M  END
>  <mol_id>  (33) 
2026-08-23-6tgu-s0-n100-r6-0033

>  <rmsd_to_ref>  (33) 
1.9234693877561155

$$$$
6tgu.A
     RDKit          3D

 32 34  0  0  0  0  0  0  0  0999 V2000
    4.4138   18.7067   37.1693 C   0  0  0  0  0  0  0  0  0  0  0  0
    3.7740   18.8075   38.4756 C   0  0  0  0  0  0  0  0  0  0  0  0
    3.1499   17.6832   38.9719 C   0  0  0  0  0  0  0  0  0  0  0  0
    2.5465   17.7899   40.2110 C   0  0  0  0  0  0  0  0  0  0  0  0
    2.5423   18.9475   40.9558 C   0  0  0  0  0  0  0  0  0  0  0  0
    1.2523   17.9309   42.8137 C   0  0  0  0  0  0  0  0  0  0  0  0
    0.3091   15.9949   43.4134 C   0  0  0  0  0  0  0  0  0  0  0  0
    0.0318   14.5865   43.0559 C   0  0  0  0  0  0  0  0  0  0  0  0
    0.4568   14.0236   41.8723 C   0  0  0  0  0  0  0  0  0  0  0  0
    0.2028   12.7138   41.5322 C   0  0  0  0  0  0  0  0  0  0  0  0
   -0.5017   11.9127   42.3905 C   0  0  0  0  0  0  0  0  0  0  0  0
   -0.9326   12.4605   43.5760 C   0  0  0  0  0  0  0  0  0  0  0  0
   -0.6761   13.7695   43.9106 C   0  0  0  0  0  0  0  0  0  0  0  0
   -0.1205   16.5363   44.5922 C   0  0  0  0  0  0  0  0  0  0  0  0
    3.1847   20.0412   40.4046 C   0  0  0  0  0  0  0  0  0  0  0  0
    3.8031   19.9958   39.1750 C   0  0  0  0  0  0  0  0  0  0  0  0
    1.9364   19.0863   42.2205 N   0  0  0  0  0  0  0  0  0  0  0  0
    0.9739   16.8319   42.6551 N   0  0  0  0  0  0  0  0  0  0  0  0
    5.0616   19.7900   36.6012 O   0  0  0  0  0  0  0  0  0  0  0  0
    4.4085   17.6264   36.4923 O   0  0  0  0  0  0  0  0  0  0  0  0
    4.4404   21.1392   38.6654 O   0  0  0  0  0  0  0  0  0  0  0  0
    0.4788   18.2475   44.5172 S   0  0  0  0  0  0  0  0  0  0  0  0
   -0.8123   10.2508   41.9364 Cl  0  0  0  0  0  0  0  0  0  0  0  0
    3.1235   16.7360   38.4204 H   0  0  0  0  0  0  0  0  0  0  0  0
    2.0634   16.9000   40.5828 H   0  0  0  0  0  0  0  0  0  0  0  0
    1.0122   14.6598   41.1987 H   0  0  0  0  0  0  0  0  0  0  0  0
    0.5682   12.3394   40.5845 H   0  0  0  0  0  0  0  0  0  0  0  0
   -1.4885   11.8196   44.2476 H   0  0  0  0  0  0  0  0  0  0  0  0
   -1.0361   14.1638   44.8606 H   0  0  0  0  0  0  0  0  0  0  0  0
   -0.6806   16.1275   45.4200 H   0  0  0  0  0  0  0  0  0  0  0  0
    3.2321   21.0068   40.9269 H   0  0  0  0  0  0  0  0  0  0  0  0
    1.9790   19.9958   42.7162 H   0  0  0  0  0  0  0  0  0  0  0  0
  1  2  1  0
  1 19  1  0
  1 20  2  0
  2  3  1  0
  2 16  2  0
  3  4  2  0
  4  5  1  0
  5 15  2  0
  5 17  1  0
  6 17  1  0
  6 18  2  0
  6 22  1  0
  7  8  1  0
  7 14  2  0
  7 18  1  0
  8  9  1  0
  8 13  2  0
  9 10  2  0
 10 11  1  0
 11 12  2  0
 11 23  1  0
 12 13  1  0
 14 22  1  0
 15 16  1  0
 16 21  1  0
  3 24  1  0
  4 25  1  0
  9 26  1  0
 10 27  1  0
 12 28  1  0
 13 29  1  0
 14 30  1  0
 15 31  1  0
 17 32  1  0
M  CHG  2  19  -1  21  -1
M  END
>  <mol_id>  (34) 
2026-08-23-6tgu-s0-n100-r6-0034

>  <rmsd_to_ref>  (34) 
1.9693877551060668

$$$$
6tgu.A
     RDKit          3D

 32 34  0  0  0  0  0  0  0  0999 V2000
    5.0123   18.2491   36.9158 C   0  0  0  0  0  0  0  0  0  0  0  0
    4.2387   18.6516   38.1745 C   0  0  0  0  0  0  0  0  0  0  0  0
    3.7776   19.9565   38.3342 C   0  0  0  0  0  0  0  0  0  0  0  0
    2.9104   20.3152   39.3713 C   0  0  0  0  0  0  0  0  0  0  0  0
    2.6163   19.3993   40.3918 C   0  0  0  0  0  0  0  0  0  0  0  0
    0.9012   18.9324   42.2094 C   0  0  0  0  0  0  0  0  0  0  0  0
    0.1030   17.0072   43.1219 C   0  0  0  0  0  0  0  0  0  0  0  0
    0.0800   15.5651   43.3688 C   0  0  0  0  0  0  0  0  0  0  0  0
   -0.9431   14.9538   44.1075 C   0  0  0  0  0  0  0  0  0  0  0  0
   -0.9636   13.5762   44.3018 C   0  0  0  0  0  0  0  0  0  0  0  0
    0.0241   12.8087   43.7137 C   0  0  0  0  0  0  0  0  0  0  0  0
    1.0510   13.3713   42.9707 C   0  0  0  0  0  0  0  0  0  0  0  0
    1.0603   14.7525   42.7972 C   0  0  0  0  0  0  0  0  0  0  0  0
   -0.8414   17.8801   43.5936 C   0  0  0  0  0  0  0  0  0  0  0  0
    3.0633   18.0789   40.2408 C   0  0  0  0  0  0  0  0  0  0  0  0
    3.8633   17.7352   39.1495 C   0  0  0  0  0  0  0  0  0  0  0  0
    1.6830   19.7280   41.4225 N   0  0  0  0  0  0  0  0  0  0  0  0
    1.0661   17.5641   42.2475 N   0  0  0  0  0  0  0  0  0  0  0  0
    5.0566   19.1036   35.9825 O   0  0  0  0  0  0  0  0  0  0  0  0
    5.4671   17.0848   36.8781 O   0  0  0  0  0  0  0  0  0  0  0  0
    4.2083   16.4187   38.9555 O   0  0  0  0  0  0  0  0  0  0  0  0
   -0.5989   19.4589   42.9482 S   0  0  0  0  0  0  0  0  0  0  0  0
   -0.0114   11.0880   43.9128 Cl  0  0  0  0  0  0  0  0  0  0  0  0
    4.1058   20.7286   37.6228 H   0  0  0  0  0  0  0  0  0  0  0  0
    2.4581   21.3178   39.3866 H   0  0  0  0  0  0  0  0  0  0  0  0
   -1.7424   15.5733   44.5403 H   0  0  0  0  0  0  0  0  0  0  0  0
   -1.7502   13.1072   44.9113 H   0  0  0  0  0  0  0  0  0  0  0  0
    1.8382   12.7421   42.5297 H   0  0  0  0  0  0  0  0  0  0  0  0
    1.8580   15.2137   42.1964 H   0  0  0  0  0  0  0  0  0  0  0  0
   -1.6473   17.6090   44.2915 H   0  0  0  0  0  0  0  0  0  0  0  0
    2.7840   17.3148   40.9812 H   0  0  0  0  0  0  0  0  0  0  0  0
    1.5831   20.7373   41.6024 H   0  0  0  0  0  0  0  0  0  0  0  0
  1  2  1  0
  1 19  1  0
  1 20  2  0
  2  3  1  0
  2 16  2  0
  3  4  2  0
  4  5  1  0
  5 15  2  0
  5 17  1  0
  6 17  1  0
  6 18  2  0
  6 22  1  0
  7  8  1  0
  7 14  2  0
  7 18  1  0
  8  9  1  0
  8 13  2  0
  9 10  2  0
 10 11  1  0
 11 12  2  0
 11 23  1  0
 12 13  1  0
 14 22  1  0
 15 16  1  0
 16 21  1  0
  3 24  1  0
  4 25  1  0
  9 26  1  0
 10 27  1  0
 12 28  1  0
 13 29  1  0
 14 30  1  0
 15 31  1  0
 17 32  1  0
M  CHG  2  19  -1  21  -1
M  END
>  <mol_id>  (35) 
2026-08-23-6tgu-s0-n100-r6-0035

>  <rmsd_to_ref>  (35) 
2.0153061224543785

$$$$
6tgu.A
     RDKit          3D

 32 34  0  0  0  0  0  0  0  0999 V2000
    2.1037   21.2868   37.7767 C   0  0  0  0  0  0  0  0  0  0  0  0
    1.6394   20.5705   38.9575 C   0  0  0  0  0  0  0  0  0  0  0  0
    1.7743   19.2063   39.0698 C   0  0  0  0  0  0  0  0  0  0  0  0
    1.3141   18.5872   40.2140 C   0  0  0  0  0  0  0  0  0  0  0  0
    0.7239   19.2706   41.2535 C   0  0  0  0  0  0  0  0  0  0  0  0
    0.2967   17.2956   42.7209 C   0  0  0  0  0  0  0  0  0  0  0  0
    0.6716   15.0412   42.5875 C   0  0  0  0  0  0  0  0  0  0  0  0
    1.1776   13.8326   41.8766 C   0  0  0  0  0  0  0  0  0  0  0  0
    1.0819   12.5843   42.4386 C   0  0  0  0  0  0  0  0  0  0  0  0
    1.5670   11.5036   41.7345 C   0  0  0  0  0  0  0  0  0  0  0  0
    2.1475   11.6024   40.4891 C   0  0  0  0  0  0  0  0  0  0  0  0
    2.2439   12.8558   39.9243 C   0  0  0  0  0  0  0  0  0  0  0  0
    1.7591   13.9280   40.6302 C   0  0  0  0  0  0  0  0  0  0  0  0
    0.0925   14.9005   43.8421 C   0  0  0  0  0  0  0  0  0  0  0  0
    0.6122   20.6502   41.0881 C   0  0  0  0  0  0  0  0  0  0  0  0
    1.0565   21.3061   39.9665 C   0  0  0  0  0  0  0  0  0  0  0  0
    0.2440   18.6582   42.4370 N   0  0  0  0  0  0  0  0  0  0  0  0
    0.7466   16.2270   42.0871 N   0  0  0  0  0  0  0  0  0  0  0  0
    2.7045   20.6715   36.6952 O   0  0  0  0  0  0  0  0  0  0  0  0
    1.9520   22.5388   37.7320 O   0  0  0  0  0  0  0  0  0  0  0  0
    0.9132   22.6820   39.8684 O   0  0  0  0  0  0  0  0  0  0  0  0
   -0.3416   16.6021   44.2596 S   0  0  0  0  0  0  0  0  0  0  0  0
    2.7286   10.1559   39.6899 Cl  0  0  0  0  0  0  0  0  0  0  0  0
    2.2403   18.6596   38.2513 H   0  0  0  0  0  0  0  0  0  0  0  0
    1.4343   17.5259   40.2694 H   0  0  0  0  0  0  0  0  0  0  0  0
    0.6379   12.4347   43.4126 H   0  0  0  0  0  0  0  0  0  0  0  0
    1.4715   10.5368   42.2145 H   0  0  0  0  0  0  0  0  0  0  0  0
    2.6997   12.9326   38.9467 H   0  0  0  0  0  0  0  0  0  0  0  0
    1.8292   14.9320   40.1926 H   0  0  0  0  0  0  0  0  0  0  0  0
   -0.0664   14.0466   44.4224 H   0  0  0  0  0  0  0  0  0  0  0  0
    0.1509   21.2533   41.8806 H   0  0  0  0  0  0  0  0  0  0  0  0
   -0.1896   19.3112   43.1569 H   0  0  0  0  0  0  0  0  0  0  0  0
  1  2  1  0
  1 19  1  0
  1 20  2  0
  2  3  1  0
  2 16  2  0
  3  4  2  0
  4  5  1  0
  5 15  2  0
  5 17  1  0
  6 17  1  0
  6 18  2  0
  6 22  1  0
  7  8  1  0
  7 14  2  0
  7 18  1  0
  8  9  1  0
  8 13  2  0
  9 10  2  0
 10 11  1  0
 11 12  2  0
 11 23  1  0
 12 13  1  0
 14 22  1  0
 15 16  1  0
 16 21  1  0
  3 24  1  0
  4 25  1  0
  9 26  1  0
 10 27  1  0
 12 28  1  0
 13 29  1  0
 14 30  1  0
 15 31  1  0
 17 32  1  0
M  CHG  2  19  -1  21  -1
M  END
>  <mol_id>  (36) 
2026-08-23-6tgu-s0-n100-r6-0036

>  <rmsd_to_ref>  (36) 
2.061224489797731

$$$$
6tgu.A
     RDKit          3D

 32 34  0  0  0  0  0  0  0  0999 V2000
    2.8515   19.9623   37.6701 C   0  0  0  0  0  0  0  0  0  0  0  0
    1.9355   19.3021   38.7043 C   0  0  0  0  0  0  0  0  0  0  0  0
    0.5602   19.5220   38.6737 C   0  0  0  0  0  0  0  0  0  0  0  0
   -0.3257   18.7941   39.4749 C   0  0  0  0  0  0  0  0  0  0  0  0
    0.1667   17.9352   40.4682 C   0  0  0  0  0  0  0  0  0  0  0  0
   -0.5251   15.9548   41.9044 C   0  0  0  0  0  0  0  0  0  0  0  0
    0.6260   14.1852   42.7525 C   0  0  0  0  0  0  0  0  0  0  0  0
    1.8281   13.4200   43.0852 C   0  0  0  0  0  0  0  0  0  0  0  0
    1.7608   12.1288   43.6276 C   0  0  0  0  0  0  0  0  0  0  0  0
    2.9165   11.4055   43.9053 C   0  0  0  0  0  0  0  0  0  0  0  0
    4.1408   11.9669   43.5949 C   0  0  0  0  0  0  0  0  0  0  0  0
    4.2530   13.2382   43.0525 C   0  0  0  0  0  0  0  0  0  0  0  0
    3.0855   13.9505   42.7925 C   0  0  0  0  0  0  0  0  0  0  0  0
   -0.6507   13.7305   42.9516 C   0  0  0  0  0  0  0  0  0  0  0  0
    1.5476   17.6943   40.5054 C   0  0  0  0  0  0  0  0  0  0  0  0
    2.3977   18.3802   39.6360 C   0  0  0  0  0  0  0  0  0  0  0  0
   -0.7228   17.1370   41.2510 N   0  0  0  0  0  0  0  0  0  0  0  0
    0.7347   15.4192   42.0687 N   0  0  0  0  0  0  0  0  0  0  0  0
    2.2816   20.5634   36.7126 O   0  0  0  0  0  0  0  0  0  0  0  0
    4.0819   19.7871   37.8089 O   0  0  0  0  0  0  0  0  0  0  0  0
    3.7344   18.0604   39.6092 O   0  0  0  0  0  0  0  0  0  0  0  0
   -1.8041   14.8124   42.2683 S   0  0  0  0  0  0  0  0  0  0  0  0
    5.5868   11.0618   43.8971 Cl  0  0  0  0  0  0  0  0  0  0  0  0
    0.1585   20.2919   37.9985 H   0  0  0  0  0  0  0  0  0  0  0  0
   -1.4107   18.8956   39.3256 H   0  0  0  0  0  0  0  0  0  0  0  0
    0.7784   11.6803   43.8369 H   0  0  0  0  0  0  0  0  0  0  0  0
    2.8571   10.4069   44.3627 H   0  0  0  0  0  0  0  0  0  0  0  0
    5.2394   13.6728   42.8333 H   0  0  0  0  0  0  0  0  0  0  0  0
    3.1554   14.9536   42.3464 H   0  0  0  0  0  0  0  0  0  0  0  0
   -0.9055   12.7987   43.4777 H   0  0  0  0  0  0  0  0  0  0  0  0
    1.9604   16.9657   41.2186 H   0  0  0  0  0  0  0  0  0  0  0  0
   -1.6757   17.5186   41.3371 H   0  0  0  0  0  0  0  0  0  0  0  0
  1  2  1  0
  1 19  1  0
  1 20  2  0
  2  3  1  0
  2 16  2  0
  3  4  2  0
  4  5  1  0
  5 15  2  0
  5 17  1  0
  6 17  1  0
  6 18  2  0
  6 22  1  0
  7  8  1  0
  7 14  2  0
  7 18  1  0
  8  9  1  0
  8 13  2  0
  9 10  2  0
 10 11  1  0
 11 12  2  0
 11 23  1  0
 12 13  1  0
 14 22  1  0
 15 16  1  0
 16 21  1  0
  3 24  1  0
  4 25  1  0
  9 26  1  0
 10 27  1  0
 12 28  1  0
 13 29  1  0
 14 30  1  0
 15 31  1  0
 17 32  1  0
M  CHG  2  19  -1  21  -1
M  END
>  <mol_id>  (37) 
2026-08-23-6tgu-s0-n100-r6-0037

>  <rmsd_to_ref>  (37) 
2.1071428571465742

$$$$
6tgu.A
     RDKit          3D

 32 34  0  0  0  0  0  0  0  0999 V2000
    4.0466   17.7672   36.7354 C   0  0  0  0  0  0  0  0  0  0  0  0
    3.2077   18.1960   37.8565 C   0  0  0  0  0  0  0  0  0  0  0  0
    2.7355   17.2103   38.6965 C   0  0  0  0  0  0  0  0  0  0  0  0
    1.9416   17.5750   39.7645 C   0  0  0  0  0  0  0  0  0  0  0  0
    1.5992   18.8963   40.0269 C   0  0  0  0  0  0  0  0  0  0  0  0
    0.2714   18.3089   42.0169 C   0  0  0  0  0  0  0  0  0  0  0  0
   -0.3511   16.5122   43.2084 C   0  0  0  0  0  0  0  0  0  0  0  0
   -0.2849   15.0420   43.3642 C   0  0  0  0  0  0  0  0  0  0  0  0
   -0.9355   14.4019   44.3992 C   0  0  0  0  0  0  0  0  0  0  0  0
   -0.8620   13.0286   44.5280 C   0  0  0  0  0  0  0  0  0  0  0  0
   -0.1456   12.2532   43.6399 C   0  0  0  0  0  0  0  0  0  0  0  0
    0.5111   12.8795   42.5985 C   0  0  0  0  0  0  0  0  0  0  0  0
    0.4225   14.2402   42.4933 C   0  0  0  0  0  0  0  0  0  0  0  0
   -1.0654   17.2876   44.0935 C   0  0  0  0  0  0  0  0  0  0  0  0
    2.1045   19.8333   39.1482 C   0  0  0  0  0  0  0  0  0  0  0  0
    2.8982   19.5217   38.0713 C   0  0  0  0  0  0  0  0  0  0  0  0
    0.7856   19.2796   41.1197 N   0  0  0  0  0  0  0  0  0  0  0  0
    0.2333   17.1943   42.2606 N   0  0  0  0  0  0  0  0  0  0  0  0
    4.5331   18.7683   35.8725 O   0  0  0  0  0  0  0  0  0  0  0  0
    4.3402   16.5617   36.5227 O   0  0  0  0  0  0  0  0  0  0  0  0
    3.3898   20.5134   37.2028 O   0  0  0  0  0  0  0  0  0  0  0  0
   -0.7990   19.0071   43.4219 S   0  0  0  0  0  0  0  0  0  0  0  0
   -0.0402   10.5062   43.7868 Cl  0  0  0  0  0  0  0  0  0  0  0  0
    2.9827   16.1696   38.5219 H   0  0  0  0  0  0  0  0  0  0  0  0
    1.5926   16.7756   40.3974 H   0  0  0  0  0  0  0  0  0  0  0  0
   -1.5042   14.9974   45.1076 H   0  0  0  0  0  0  0  0  0  0  0  0
   -1.3712   12.5262   45.3383 H   0  0  0  0  0  0  0  0  0  0  0  0
    1.0940   12.3145   41.8647 H   0  0  0  0  0  0  0  0  0  0  0  0
    0.9331   14.7296   41.6833 H   0  0  0  0  0  0  0  0  0  0  0  0
   -1.6398   17.1006   44.9429 H   0  0  0  0  0  0  0  0  0  0  0  0
    1.8640   20.8746   39.3132 H   0  0  0  0  0  0  0  0  0  0  0  0
    0.5963   20.3143   41.2133 H   0  0  0  0  0  0  0  0  0  0  0  0
  1  2  1  0
  1 19  1  0
  1 20  2  0
  2  3  1  0
  2 16  2  0
  3  4  2  0
  4  5  1  0
  5 15  2  0
  5 17  1  0
  6 17  1  0
  6 18  2  0
  6 22  1  0
  7  8  1  0
  7 14  2  0
  7 18  1  0
  8  9  1  0
  8 13  2  0
  9 10  2  0
 10 11  1  0
 11 12  2  0
 11 23  1  0
 12 13  1  0
 14 22  1  0
 15 16  1  0
 16 21  1  0
  3 24  1  0
  4 25  1  0
  9 26  1  0
 10 27  1  0
 12 28  1  0
 13 29  1  0
 14 30  1  0
 15 31  1  0
 17 32  1  0
M  CHG  2  19  -1  21  -1
M  END
>  <mol_id>  (38) 
2026-08-23-6tgu-s0-n100-r6-0038

>  <rmsd_to_ref>  (38) 
2.1530612244921397

$$$$
6tgu.A
     RDKit          3D

 32 34  0  0  0  0  0  0  0  0999 V2000
    4.2088   19.3094   37.6804 C   0  0  0  0  0  0  0  0  0  0  0  0
    3.7522   19.0974   39.1265 C   0  0  0  0  0  0  0  0  0  0  0  0
    3.8570   20.1268   40.0594 C   0  0  0  0  0  0  0  0  0  0  0  0
    3.2809   20.0373   41.3308 C   0  0  0  0  0  0  0  0  0  0  0  0
    2.7252   18.8263   41.7684 C   0  0  0  0  0  0  0  0  0  0  0  0
    1.1043   17.8905   43.4889 C   0  0  0  0  0  0  0  0  0  0  0  0
   -0.3194   16.1162   43.4645 C   0  0  0  0  0  0  0  0  0  0  0  0
   -0.8918   14.8807   42.9285 C   0  0  0  0  0  0  0  0  0  0  0  0
   -2.0155   14.2712   43.5043 C   0  0  0  0  0  0  0  0  0  0  0  0
   -2.5639   13.1148   42.9583 C   0  0  0  0  0  0  0  0  0  0  0  0
   -2.0059   12.5969   41.8048 C   0  0  0  0  0  0  0  0  0  0  0  0
   -0.8981   13.1707   41.1993 C   0  0  0  0  0  0  0  0  0  0  0  0
   -0.3570   14.3208   41.7672 C   0  0  0  0  0  0  0  0  0  0  0  0
   -0.8049   16.7702   44.5658 C   0  0  0  0  0  0  0  0  0  0  0  0
    2.6021   17.7840   40.8386 C   0  0  0  0  0  0  0  0  0  0  0  0
    3.1185   17.9355   39.5504 C   0  0  0  0  0  0  0  0  0  0  0  0
    2.0764   18.7364   43.0381 N   0  0  0  0  0  0  0  0  0  0  0  0
    0.7179   16.7805   42.7682 N   0  0  0  0  0  0  0  0  0  0  0  0
    4.5180   20.4929   37.3533 O   0  0  0  0  0  0  0  0  0  0  0  0
    4.1628   18.3175   36.9203 O   0  0  0  0  0  0  0  0  0  0  0  0
    2.9004   16.9499   38.6172 O   0  0  0  0  0  0  0  0  0  0  0  0
   -0.0071   18.2810   44.7873 S   0  0  0  0  0  0  0  0  0  0  0  0
   -2.7031   11.1809   41.0904 Cl  0  0  0  0  0  0  0  0  0  0  0  0
    4.4099   21.0381   39.7876 H   0  0  0  0  0  0  0  0  0  0  0  0
    3.2637   20.9186   41.9888 H   0  0  0  0  0  0  0  0  0  0  0  0
   -2.4710   14.7143   44.4022 H   0  0  0  0  0  0  0  0  0  0  0  0
   -3.4244   12.6227   43.4352 H   0  0  0  0  0  0  0  0  0  0  0  0
   -0.4582   12.7285   40.2933 H   0  0  0  0  0  0  0  0  0  0  0  0
    0.5113   14.7989   41.2902 H   0  0  0  0  0  0  0  0  0  0  0  0
   -1.5985   16.3825   45.2215 H   0  0  0  0  0  0  0  0  0  0  0  0
    2.0993   16.8482   41.1238 H   0  0  0  0  0  0  0  0  0  0  0  0
    2.3967   19.4274   43.7315 H   0  0  0  0  0  0  0  0  0  0  0  0
  1  2  1  0
  1 19  1  0
  1 20  2  0
  2  3  1  0
  2 16  2  0
  3  4  2  0
  4  5  1  0
  5 15  2  0
  5 17  1  0
  6 17  1  0
  6 18  2  0
  6 22  1  0
  7  8  1  0
  7 14  2  0
  7 18  1  0
  8  9  1  0
  8 13  2  0
  9 10  2  0
 10 11  1  0
 11 12  2  0
 11 23  1  0
 12 13  1  0
 14 22  1  0
 15 16  1  0
 16 21  1  0
  3 24  1  0
  4 25  1  0
  9 26  1  0
 10 27  1  0
 12 28  1  0
 13 29  1  0
 14 30  1  0
 15 31  1  0
 17 32  1  0
M  CHG  2  19  -1  21  -1
M  END
>  <mol_id>  (39) 
2026-08-23-6tgu-s0-n100-r6-0039

>  <rmsd_to_ref>  (39) 
2.1989795918382495

$$$$
6tgu.A
     RDKit          3D

 32 34  0  0  0  0  0  0  0  0999 V2000
    2.1021   22.1878   37.2292 C   0  0  0  0  0  0  0  0  0  0  0  0
    2.2395   20.9948   38.0422 C   0  0  0  0  0  0  0  0  0  0  0  0
    1.2014   20.5956   38.8499 C   0  0  0  0  0  0  0  0  0  0  0  0
    1.2966   19.4513   39.6456 C   0  0  0  0  0  0  0  0  0  0  0  0
    2.4179   18.6625   39.6715 C   0  0  0  0  0  0  0  0  0  0  0  0
    1.5976   16.6433   40.9215 C   0  0  0  0  0  0  0  0  0  0  0  0
    0.6210   14.9176   42.0032 C   0  0  0  0  0  0  0  0  0  0  0  0
    0.7711   13.6966   42.8281 C   0  0  0  0  0  0  0  0  0  0  0  0
    2.0057   13.2329   43.2292 C   0  0  0  0  0  0  0  0  0  0  0  0
    2.0894   12.0754   44.0018 C   0  0  0  0  0  0  0  0  0  0  0  0
    0.9262   11.4049   44.3572 C   0  0  0  0  0  0  0  0  0  0  0  0
   -0.3191   11.8498   43.9680 C   0  0  0  0  0  0  0  0  0  0  0  0
   -0.3550   12.9997   43.2036 C   0  0  0  0  0  0  0  0  0  0  0  0
   -0.6263   15.3753   41.6040 C   0  0  0  0  0  0  0  0  0  0  0  0
    3.4673   19.0811   38.8446 C   0  0  0  0  0  0  0  0  0  0  0  0
    3.3770   20.2071   38.0598 C   0  0  0  0  0  0  0  0  0  0  0  0
    2.6100   17.4977   40.4042 N   0  0  0  0  0  0  0  0  0  0  0  0
    1.6255   15.6405   41.5946 N   0  0  0  0  0  0  0  0  0  0  0  0
    3.1670   22.5889   36.4065 O   0  0  0  0  0  0  0  0  0  0  0  0
    1.0450   22.8819   37.2391 O   0  0  0  0  0  0  0  0  0  0  0  0
    4.4542   20.5914   37.2440 O   0  0  0  0  0  0  0  0  0  0  0  0
   -0.1678   16.8904   40.6243 S   0  0  0  0  0  0  0  0  0  0  0  0
    1.0102    9.9405   45.3325 Cl  0  0  0  0  0  0  0  0  0  0  0  0
    0.3093   21.1848   38.8563 H   0  0  0  0  0  0  0  0  0  0  0  0
    0.4570   19.2229   40.2441 H   0  0  0  0  0  0  0  0  0  0  0  0
    2.9135   13.7651   42.9451 H   0  0  0  0  0  0  0  0  0  0  0  0
    3.0344   11.6708   44.3412 H   0  0  0  0  0  0  0  0  0  0  0  0
   -1.2321   11.3375   44.2393 H   0  0  0  0  0  0  0  0  0  0  0  0
   -1.3662   13.3265   42.9104 H   0  0  0  0  0  0  0  0  0  0  0  0
   -1.6001   15.0581   41.7443 H   0  0  0  0  0  0  0  0  0  0  0  0
    4.3783   18.5188   38.8088 H   0  0  0  0  0  0  0  0  0  0  0  0
    3.6040   17.1863   40.6195 H   0  0  0  0  0  0  0  0  0  0  0  0
  1  2  1  0
  1 19  1  0
  1 20  2  0
  2  3  1  0
  2 16  2  0
  3  4  2  0
  4  5  1  0
  5 15  2  0
  5 17  1  0
  6 17  1  0
  6 18  2  0
  6 22  1  0
  7  8  1  0
  7 14  2  0
  7 18  1  0
  8  9  1  0
  8 13  2  0
  9 10  2  0
 10 11  1  0
 11 12  2  0
 11 23  1  0
 12 13  1  0
 14 22  1  0
 15 16  1  0
 16 21  1  0
  3 24  1  0
  4 25  1  0
  9 26  1  0
 10 27  1  0
 12 28  1  0
 13 29  1  0
 14 30  1  0
 15 31  1  0
 17 32  1  0
M  CHG  2  19  -1  21  -1
M  END
>  <mol_id>  (40) 
2026-08-23-6tgu-s0-n100-r6-0040

>  <rmsd_to_ref>  (40) 
2.244897959184323

$$$$
6tgu.A
     RDKit          3D

 32 34  0  0  0  0  0  0  0  0999 V2000
   -0.0066   18.8253   36.7141 C   0  0  0  0  0  0  0  0  0  0  0  0
    0.2528   18.8549   38.2229 C   0  0  0  0  0  0  0  0  0  0  0  0
   -0.4158   19.7657   39.0378 C   0  0  0  0  0  0  0  0  0  0  0  0
   -0.3509   19.6996   40.4334 C   0  0  0  0  0  0  0  0  0  0  0  0
    0.5386   18.8116   41.0556 C   0  0  0  0  0  0  0  0  0  0  0  0
    0.9570   17.6490   43.2775 C   0  0  0  0  0  0  0  0  0  0  0  0
    1.8563   15.6307   43.8191 C   0  0  0  0  0  0  0  0  0  0  0  0
    2.5707   14.3815   43.5538 C   0  0  0  0  0  0  0  0  0  0  0  0
    2.7069   13.3819   44.5276 C   0  0  0  0  0  0  0  0  0  0  0  0
    3.3612   12.1872   44.2436 C   0  0  0  0  0  0  0  0  0  0  0  0
    3.8403   11.9815   42.9635 C   0  0  0  0  0  0  0  0  0  0  0  0
    3.7222   12.9406   41.9689 C   0  0  0  0  0  0  0  0  0  0  0  0
    3.0743   14.1339   42.2759 C   0  0  0  0  0  0  0  0  0  0  0  0
    1.2813   15.9432   45.0225 C   0  0  0  0  0  0  0  0  0  0  0  0
    1.2108   17.8807   40.2508 C   0  0  0  0  0  0  0  0  0  0  0  0
    1.0617   17.9238   38.8634 C   0  0  0  0  0  0  0  0  0  0  0  0
    0.5708   18.6864   42.4785 N   0  0  0  0  0  0  0  0  0  0  0  0
    1.6101   16.5464   42.7689 N   0  0  0  0  0  0  0  0  0  0  0  0
   -0.9618   19.5406   36.2910 O   0  0  0  0  0  0  0  0  0  0  0  0
    0.6894   18.0395   36.0345 O   0  0  0  0  0  0  0  0  0  0  0  0
    1.6410   16.9436   38.0930 O   0  0  0  0  0  0  0  0  0  0  0  0
    0.3677   17.3994   44.9096 S   0  0  0  0  0  0  0  0  0  0  0  0
    4.6211   10.4823   42.5839 Cl  0  0  0  0  0  0  0  0  0  0  0  0
   -1.0133   20.5616   38.5692 H   0  0  0  0  0  0  0  0  0  0  0  0
   -0.9988   20.3453   41.0443 H   0  0  0  0  0  0  0  0  0  0  0  0
    2.2897   13.5448   45.5323 H   0  0  0  0  0  0  0  0  0  0  0  0
    3.4945   11.4218   45.0223 H   0  0  0  0  0  0  0  0  0  0  0  0
    4.1301   12.7629   40.9629 H   0  0  0  0  0  0  0  0  0  0  0  0
    2.9567   14.8987   41.4940 H   0  0  0  0  0  0  0  0  0  0  0  0
    1.3886   15.3442   45.9388 H   0  0  0  0  0  0  0  0  0  0  0  0
    1.8548   17.1175   40.7120 H   0  0  0  0  0  0  0  0  0  0  0  0
    0.2477   19.5210   42.9883 H   0  0  0  0  0  0  0  0  0  0  0  0
  1  2  1  0
  1 19  1  0
  1 20  2  0
  2  3  1  0
  2 16  2  0
  3  4  2  0
  4  5  1  0
  5 15  2  0
  5 17  1  0
  6 17  1  0
  6 18  2  0
  6 22  1  0
  7  8  1  0
  7 14  2  0
  7 18  1  0
  8  9  1  0
  8 13  2  0
  9 10  2  0
 10 11  1  0
 11 12  2  0
 11 23  1  0
 12 13  1  0
 14 22  1  0
 15 16  1  0
 16 21  1  0
  3 24  1  0
  4 25  1  0
  9 26  1  0
 10 27  1  0
 12 28  1  0
 13 29  1  0
 14 30  1  0
 15 31  1  0
 17 32  1  0
M  CHG  2  19  -1  21  -1
M  END
>  <mol_id>  (41) 
2026-08-23-6tgu-s0-n100-r6-0041

>  <rmsd_to_ref>  (41) 
2.290816326531621

$$$$
6tgu.A
     RDKit          3D

 32 34  0  0  0  0  0  0  0  0999 V2000
    2.6732   22.5701   38.0577 C   0  0  0  0  0  0  0  0  0  0  0  0
    2.6543   21.2757   38.7296 C   0  0  0  0  0  0  0  0  0  0  0  0
    1.5992   20.9074   39.5220 C   0  0  0  0  0  0  0  0  0  0  0  0
    1.5818   19.6714   40.1639 C   0  0  0  0  0  0  0  0  0  0  0  0
    2.6038   18.7676   40.0404 C   0  0  0  0  0  0  0  0  0  0  0  0
    1.5845   16.6799   41.0268 C   0  0  0  0  0  0  0  0  0  0  0  0
    0.2914   15.0281   41.8475 C   0  0  0  0  0  0  0  0  0  0  0  0
    0.2286   13.7367   42.5532 C   0  0  0  0  0  0  0  0  0  0  0  0
    1.3522   13.0731   42.9926 C   0  0  0  0  0  0  0  0  0  0  0  0
    1.2474   11.8527   43.6573 C   0  0  0  0  0  0  0  0  0  0  0  0
    0.0244   11.2721   43.8965 C   0  0  0  0  0  0  0  0  0  0  0  0
   -1.0958   11.9383   43.4560 C   0  0  0  0  0  0  0  0  0  0  0  0
   -0.9855   13.1413   42.8010 C   0  0  0  0  0  0  0  0  0  0  0  0
   -0.8021   15.6879   41.4122 C   0  0  0  0  0  0  0  0  0  0  0  0
    3.6675   19.1638   39.2291 C   0  0  0  0  0  0  0  0  0  0  0  0
    3.6920   20.3783   38.5946 C   0  0  0  0  0  0  0  0  0  0  0  0
    2.6783   17.5026   40.6209 N   0  0  0  0  0  0  0  0  0  0  0  0
    1.3917   15.6828   41.5615 N   0  0  0  0  0  0  0  0  0  0  0  0
    1.6197   23.4445   38.2135 O   0  0  0  0  0  0  0  0  0  0  0  0
    3.6797   22.8580   37.3350 O   0  0  0  0  0  0  0  0  0  0  0  0
    4.7726   20.7568   37.7830 O   0  0  0  0  0  0  0  0  0  0  0  0
   -0.1847   17.2122   40.6165 S   0  0  0  0  0  0  0  0  0  0  0  0
   -0.1808    9.7528   44.7190 Cl  0  0  0  0  0  0  0  0  0  0  0  0
    0.7802   21.5927   39.6406 H   0  0  0  0  0  0  0  0  0  0  0  0
    0.7239   19.4726   40.7733 H   0  0  0  0  0  0  0  0  0  0  0  0
    2.3238   13.5230   42.8092 H   0  0  0  0  0  0  0  0  0  0  0  0
    2.1230   11.3298   44.0023 H   0  0  0  0  0  0  0  0  0  0  0  0
   -2.1040   11.5286   43.6151 H   0  0  0  0  0  0  0  0  0  0  0  0
   -1.9109   13.6344   42.4686 H   0  0  0  0  0  0  0  0  0  0  0  0
   -1.9330   15.4518   41.4670 H   0  0  0  0  0  0  0  0  0  0  0  0
    4.5235   18.5147   39.0710 H   0  0  0  0  0  0  0  0  0  0  0  0
    3.6284   17.0700   40.7974 H   0  0  0  0  0  0  0  0  0  0  0  0
  1  2  1  0
  1 19  1  0
  1 20  2  0
  2  3  1  0
  2 16  2  0
  3  4  2  0
  4  5  1  0
  5 15  2  0
  5 17  1  0
  6 17  1  0
  6 18  2  0
  6 22  1  0
  7  8  1  0
  7 14  2  0
  7 18  1  0
  8  9  1  0
  8 13  2  0
  9 10  2  0
 10 11  1  0
 11 12  2  0
 11 23  1  0
 12 13  1  0
 14 22  1  0
 15 16  1  0
 16 21  1  0
  3 24  1  0
  4 25  1  0
  9 26  1  0
 10 27  1  0
 12 28  1  0
 13 29  1  0
 14 30  1  0
 15 31  1  0
 17 32  1  0
M  CHG  2  19  -1  21  -1
M  END
>  <mol_id>  (42) 
2026-08-23-6tgu-s0-n100-r6-0042

>  <rmsd_to_ref>  (42) 
2.336734693877685

$$$$
6tgu.A
     RDKit          3D

 32 34  0  0  0  0  0  0  0  0999 V2000
    6.3398   18.8675   38.6010 C   0  0  0  0  0  0  0  0  0  0  0  0
    5.2356   18.7915   39.6591 C   0  0  0  0  0  0  0  0  0  0  0  0
    4.7612   19.9497   40.2708 C   0  0  0  0  0  0  0  0  0  0  0  0
    3.6318   19.9438   41.0960 C   0  0  0  0  0  0  0  0  0  0  0  0
    3.0425   18.7287   41.4742 C   0  0  0  0  0  0  0  0  0  0  0  0
    0.8656   17.7703   42.3720 C   0  0  0  0  0  0  0  0  0  0  0  0
   -0.1841   15.7747   42.0696 C   0  0  0  0  0  0  0  0  0  0  0  0
   -0.2931   14.3871   41.6182 C   0  0  0  0  0  0  0  0  0  0  0  0
   -1.4937   13.6685   41.7077 C   0  0  0  0  0  0  0  0  0  0  0  0
   -1.5842   12.3607   41.2414 C   0  0  0  0  0  0  0  0  0  0  0  0
   -0.4754   11.7914   40.6440 C   0  0  0  0  0  0  0  0  0  0  0  0
    0.7297   12.4679   40.5297 C   0  0  0  0  0  0  0  0  0  0  0  0
    0.8034   13.7716   41.0125 C   0  0  0  0  0  0  0  0  0  0  0  0
   -1.2165   16.4820   42.6268 C   0  0  0  0  0  0  0  0  0  0  0  0
    3.5008   17.5548   40.8593 C   0  0  0  0  0  0  0  0  0  0  0  0
    4.5818   17.6071   39.9774 C   0  0  0  0  0  0  0  0  0  0  0  0
    1.8517   18.7082   42.2634 N   0  0  0  0  0  0  0  0  0  0  0  0
    0.9983   16.5121   41.8242 N   0  0  0  0  0  0  0  0  0  0  0  0
    6.6642   20.0256   38.2052 O   0  0  0  0  0  0  0  0  0  0  0  0
    6.7739   17.7826   38.1557 O   0  0  0  0  0  0  0  0  0  0  0  0
    4.9553   16.4698   39.3015 O   0  0  0  0  0  0  0  0  0  0  0  0
   -0.7797   18.1325   42.8569 S   0  0  0  0  0  0  0  0  0  0  0  0
   -0.5850   10.1782   40.0219 Cl  0  0  0  0  0  0  0  0  0  0  0  0
    5.2911   20.8983   40.0994 H   0  0  0  0  0  0  0  0  0  0  0  0
    3.2051   20.8941   41.4491 H   0  0  0  0  0  0  0  0  0  0  0  0
   -2.3785   14.1463   42.1537 H   0  0  0  0  0  0  0  0  0  0  0  0
   -2.5194   11.7912   41.3461 H   0  0  0  0  0  0  0  0  0  0  0  0
    1.6052   11.9867   40.0692 H   0  0  0  0  0  0  0  0  0  0  0  0
    1.7467   14.3289   40.9145 H   0  0  0  0  0  0  0  0  0  0  0  0
   -2.1941   16.0532   42.8920 H   0  0  0  0  0  0  0  0  0  0  0  0
    3.0092   16.5939   41.0715 H   0  0  0  0  0  0  0  0  0  0  0  0
    1.7137   19.5432   42.8503 H   0  0  0  0  0  0  0  0  0  0  0  0
  1  2  1  0
  1 19  1  0
  1 20  2  0
  2  3  1  0
  2 16  2  0
  3  4  2  0
  4  5  1  0
  5 15  2  0
  5 17  1  0
  6 17  1  0
  6 18  2  0
  6 22  1  0
  7  8  1  0
  7 14  2  0
  7 18  1  0
  8  9  1  0
  8 13  2  0
  9 10  2  0
 10 11  1  0
 11 12  2  0
 11 23  1  0
 12 13  1  0
 14 22  1  0
 15 16  1  0
 16 21  1  0
  3 24  1  0
  4 25  1  0
  9 26  1  0
 10 27  1  0
 12 28  1  0
 13 29  1  0
 14 30  1  0
 15 31  1  0
 17 32  1  0
M  CHG  2  19  -1  21  -1
M  END
>  <mol_id>  (43) 
2026-08-23-6tgu-s0-n100-r6-0043

>  <rmsd_to_ref>  (43) 
2.382653061224708

$$$$
6tgu.A
     RDKit          3D

 32 34  0  0  0  0  0  0  0  0999 V2000
    0.9447   22.5889   38.2132 C   0  0  0  0  0  0  0  0  0  0  0  0
    1.3212   21.2716   38.6957 C   0  0  0  0  0  0  0  0  0  0  0  0
    0.7990   20.7876   39.8783 C   0  0  0  0  0  0  0  0  0  0  0  0
    1.1538   19.5195   40.3529 C   0  0  0  0  0  0  0  0  0  0  0  0
    2.0224   18.6953   39.6890 C   0  0  0  0  0  0  0  0  0  0  0  0
    1.7624   16.5440   40.9476 C   0  0  0  0  0  0  0  0  0  0  0  0
    1.3208   14.6951   42.2050 C   0  0  0  0  0  0  0  0  0  0  0  0
    1.7170   13.3556   42.7011 C   0  0  0  0  0  0  0  0  0  0  0  0
    0.8953   12.6630   43.5526 C   0  0  0  0  0  0  0  0  0  0  0  0
    1.3163   11.4204   43.9816 C   0  0  0  0  0  0  0  0  0  0  0  0
    2.5175   10.8539   43.5921 C   0  0  0  0  0  0  0  0  0  0  0  0
    3.3502   11.5574   42.7281 C   0  0  0  0  0  0  0  0  0  0  0  0
    2.9105   12.7897   42.3155 C   0  0  0  0  0  0  0  0  0  0  0  0
    0.0578   15.2551   42.6336 C   0  0  0  0  0  0  0  0  0  0  0  0
    2.5474   19.1935   38.4913 C   0  0  0  0  0  0  0  0  0  0  0  0
    2.1980   20.4391   38.0268 C   0  0  0  0  0  0  0  0  0  0  0  0
    2.4162   17.4077   40.0805 N   0  0  0  0  0  0  0  0  0  0  0  0
    1.9962   15.4222   41.4199 N   0  0  0  0  0  0  0  0  0  0  0  0
    1.5040   23.0306   37.0045 O   0  0  0  0  0  0  0  0  0  0  0  0
    0.1366   23.3313   38.8509 O   0  0  0  0  0  0  0  0  0  0  0  0
    2.7280   20.9213   36.8348 O   0  0  0  0  0  0  0  0  0  0  0  0
    0.1071   16.8909   41.7189 S   0  0  0  0  0  0  0  0  0  0  0  0
    3.0047    9.2623   44.1715 Cl  0  0  0  0  0  0  0  0  0  0  0  0
    0.0997   21.4008   40.4510 H   0  0  0  0  0  0  0  0  0  0  0  0
    0.7187   19.2268   41.2699 H   0  0  0  0  0  0  0  0  0  0  0  0
   -0.0555   13.0514   43.8934 H   0  0  0  0  0  0  0  0  0  0  0  0
    0.6787   10.8675   44.6503 H   0  0  0  0  0  0  0  0  0  0  0  0
    4.2837   11.1795   42.3911 H   0  0  0  0  0  0  0  0  0  0  0  0
    3.5303   13.3645   41.6451 H   0  0  0  0  0  0  0  0  0  0  0  0
   -0.6767   14.9354   43.2325 H   0  0  0  0  0  0  0  0  0  0  0  0
    3.2400   18.5964   37.9151 H   0  0  0  0  0  0  0  0  0  0  0  0
    3.3320   17.0410   39.6670 H   0  0  0  0  0  0  0  0  0  0  0  0
  1  2  1  0
  1 19  1  0
  1 20  2  0
  2  3  1  0
  2 16  2  0
  3  4  2  0
  4  5  1  0
  5 15  2  0
  5 17  1  0
  6 17  1  0
  6 18  2  0
  6 22  1  0
  7  8  1  0
  7 14  2  0
  7 18  1  0
  8  9  1  0
  8 13  2  0
  9 10  2  0
 10 11  1  0
 11 12  2  0
 11 23  1  0
 12 13  1  0
 14 22  1  0
 15 16  1  0
 16 21  1  0
  3 24  1  0
  4 25  1  0
  9 26  1  0
 10 27  1  0
 12 28  1  0
 13 29  1  0
 14 30  1  0
 15 31  1  0
 17 32  1  0
M  CHG  2  19  -1  21  -1
M  END
>  <mol_id>  (44) 
2026-08-23-6tgu-s0-n100-r6-0044

>  <rmsd_to_ref>  (44) 
2.428571428571976

$$$$
6tgu.A
     RDKit          3D

 32 34  0  0  0  0  0  0  0  0999 V2000
    3.0976   18.0976   35.9573 C   0  0  0  0  0  0  0  0  0  0  0  0
    3.1953   18.5003   37.4314 C   0  0  0  0  0  0  0  0  0  0  0  0
    3.3371   19.8387   37.7911 C   0  0  0  0  0  0  0  0  0  0  0  0
    3.2395   20.2642   39.1199 C   0  0  0  0  0  0  0  0  0  0  0  0
    3.1690   19.3231   40.1572 C   0  0  0  0  0  0  0  0  0  0  0  0
    2.4673   19.0961   42.5902 C   0  0  0  0  0  0  0  0  0  0  0  0
    1.5931   17.3730   43.7911 C   0  0  0  0  0  0  0  0  0  0  0  0
    1.2014   15.9828   44.0260 C   0  0  0  0  0  0  0  0  0  0  0  0
    0.5077   15.5908   45.1797 C   0  0  0  0  0  0  0  0  0  0  0  0
    0.1152   14.2691   45.3673 C   0  0  0  0  0  0  0  0  0  0  0  0
    0.3834   13.3499   44.3706 C   0  0  0  0  0  0  0  0  0  0  0  0
    1.0618   13.6955   43.2115 C   0  0  0  0  0  0  0  0  0  0  0  0
    1.4562   15.0205   43.0476 C   0  0  0  0  0  0  0  0  0  0  0  0
    1.3411   18.3976   44.6647 C   0  0  0  0  0  0  0  0  0  0  0  0
    3.0146   17.9728   39.8122 C   0  0  0  0  0  0  0  0  0  0  0  0
    3.0370   17.5902   38.4697 C   0  0  0  0  0  0  0  0  0  0  0  0
    3.0044   19.7411   41.5135 N   0  0  0  0  0  0  0  0  0  0  0  0
    2.1557   17.7537   42.5499 N   0  0  0  0  0  0  0  0  0  0  0  0
    2.9848   19.0409   35.1202 O   0  0  0  0  0  0  0  0  0  0  0  0
    3.0558   16.8734   35.7056 O   0  0  0  0  0  0  0  0  0  0  0  0
    2.7807   16.2810   38.1381 O   0  0  0  0  0  0  0  0  0  0  0  0
    1.7707   19.9163   43.9742 S   0  0  0  0  0  0  0  0  0  0  0  0
   -0.1353   11.7092   44.5719 Cl  0  0  0  0  0  0  0  0  0  0  0  0
    3.5319   20.5838   37.0057 H   0  0  0  0  0  0  0  0  0  0  0  0
    3.2180   21.3393   39.3518 H   0  0  0  0  0  0  0  0  0  0  0  0
    0.2698   16.3402   45.9489 H   0  0  0  0  0  0  0  0  0  0  0  0
   -0.3983   13.9620   46.2903 H   0  0  0  0  0  0  0  0  0  0  0  0
    1.2827   12.9419   42.4413 H   0  0  0  0  0  0  0  0  0  0  0  0
    1.9802   15.3157   42.1265 H   0  0  0  0  0  0  0  0  0  0  0  0
    0.9205   18.2679   45.6728 H   0  0  0  0  0  0  0  0  0  0  0  0
    2.8759   17.2159   40.5983 H   0  0  0  0  0  0  0  0  0  0  0  0
    3.3497   20.6907   41.7128 H   0  0  0  0  0  0  0  0  0  0  0  0
  1  2  1  0
  1 19  1  0
  1 20  2  0
  2  3  1  0
  2 16  2  0
  3  4  2  0
  4  5  1  0
  5 15  2  0
  5 17  1  0
  6 17  1  0
  6 18  2  0
  6 22  1  0
  7  8  1  0
  7 14  2  0
  7 18  1  0
  8  9  1  0
  8 13  2  0
  9 10  2  0
 10 11  1  0
 11 12  2  0
 11 23  1  0
 12 13  1  0
 14 22  1  0
 15 16  1  0
 16 21  1  0
  3 24  1  0
  4 25  1  0
  9 26  1  0
 10 27  1  0
 12 28  1  0
 13 29  1  0
 14 30  1  0
 15 31  1  0
 17 32  1  0
M  CHG  2  19  -1  21  -1
M  END
>  <mol_id>  (45) 
2026-08-23-6tgu-s0-n100-r6-0045

>  <rmsd_to_ref>  (45) 
2.4744897959191405

$$$$
6tgu.A
     RDKit          3D

 32 34  0  0  0  0  0  0  0  0999 V2000
    5.5158   19.7374   38.9282 C   0  0  0  0  0  0  0  0  0  0  0  0
    4.1377   19.2506   39.0814 C   0  0  0  0  0  0  0  0  0  0  0  0
    3.9422   18.0142   39.6492 C   0  0  0  0  0  0  0  0  0  0  0  0
    2.6529   17.5431   39.7999 C   0  0  0  0  0  0  0  0  0  0  0  0
    1.5366   18.2556   39.4062 C   0  0  0  0  0  0  0  0  0  0  0  0
   -0.0424   16.5367   40.1246 C   0  0  0  0  0  0  0  0  0  0  0  0
   -0.0720   14.4908   41.0796 C   0  0  0  0  0  0  0  0  0  0  0  0
    0.6964   13.3617   41.6489 C   0  0  0  0  0  0  0  0  0  0  0  0
    0.0613   12.2416   42.1383 C   0  0  0  0  0  0  0  0  0  0  0  0
    0.8077   11.2146   42.6586 C   0  0  0  0  0  0  0  0  0  0  0  0
    2.1866   11.2432   42.7196 C   0  0  0  0  0  0  0  0  0  0  0  0
    2.8249   12.3583   42.2328 C   0  0  0  0  0  0  0  0  0  0  0  0
    2.0738   13.3731   41.7178 C   0  0  0  0  0  0  0  0  0  0  0  0
   -1.4598   14.4507   41.0234 C   0  0  0  0  0  0  0  0  0  0  0  0
    1.7999   19.5055   38.8357 C   0  0  0  0  0  0  0  0  0  0  0  0
    3.0695   19.9945   38.6756 C   0  0  0  0  0  0  0  0  0  0  0  0
    0.2237   17.7932   39.5516 N   0  0  0  0  0  0  0  0  0  0  0  0
    0.4616   15.5709   40.6034 N   0  0  0  0  0  0  0  0  0  0  0  0
    5.7466   20.9807   38.3591 O   0  0  0  0  0  0  0  0  0  0  0  0
    6.5080   19.0464   39.3051 O   0  0  0  0  0  0  0  0  0  0  0  0
    3.3040   21.2492   38.1013 O   0  0  0  0  0  0  0  0  0  0  0  0
   -1.8721   16.0507   40.2531 S   0  0  0  0  0  0  0  0  0  0  0  0
    3.1304    9.9338   43.3827 Cl  0  0  0  0  0  0  0  0  0  0  0  0
    4.7892   17.4154   39.9752 H   0  0  0  0  0  0  0  0  0  0  0  0
    2.5524   16.5674   40.2509 H   0  0  0  0  0  0  0  0  0  0  0  0
   -1.0102   12.1543   42.1213 H   0  0  0  0  0  0  0  0  0  0  0  0
    0.3055   10.3304   43.0449 H   0  0  0  0  0  0  0  0  0  0  0  0
    3.8998   12.3870   42.2773 H   0  0  0  0  0  0  0  0  0  0  0  0
    2.5981   14.2484   41.3369 H   0  0  0  0  0  0  0  0  0  0  0  0
   -2.1729   13.7154   41.3287 H   0  0  0  0  0  0  0  0  0  0  0  0
    0.9772   20.1218   38.5029 H   0  0  0  0  0  0  0  0  0  0  0  0
   -0.5476   18.4408   39.2072 H   0  0  0  0  0  0  0  0  0  0  0  0
  1  2  1  0
  1 19  1  0
  1 20  2  0
  2  3  1  0
  2 16  2  0
  3  4  2  0
  4  5  1  0
  5 15  2  0
  5 17  1  0
  6 17  1  0
  6 18  2  0
  6 22  1  0
  7  8  1  0
  7 14  2  0
  7 18  1  0
  8  9  1  0
  8 13  2  0
  9 10  2  0
 10 11  1  0
 11 12  2  0
 11 23  1  0
 12 13  1  0
 14 22  1  0
 15 16  1  0
 16 21  1  0
  3 24  1  0
  4 25  1  0
  9 26  1  0
 10 27  1  0
 12 28  1  0
 13 29  1  0
 14 30  1  0
 15 31  1  0
 17 32  1  0
M  CHG  2  19  -1  21  -1
M  END
>  <mol_id>  (46) 
2026-08-23-6tgu-s0-n100-r6-0046

>  <rmsd_to_ref>  (46) 
2.5204081632693507

$$$$
6tgu.A
     RDKit          3D

 32 34  0  0  0  0  0  0  0  0999 V2000
    1.3470   20.5483   35.9871 C   0  0  0  0  0  0  0  0  0  0  0  0
    0.7563   19.9307   37.2576 C   0  0  0  0  0  0  0  0  0  0  0  0
   -0.6106   20.0118   37.5139 C   0  0  0  0  0  0  0  0  0  0  0  0
   -1.2131   19.3024   38.5581 C   0  0  0  0  0  0  0  0  0  0  0  0
   -0.4224   18.6194   39.4935 C   0  0  0  0  0  0  0  0  0  0  0  0
   -0.5520   16.7665   41.2295 C   0  0  0  0  0  0  0  0  0  0  0  0
    0.9564   15.2298   41.9636 C   0  0  0  0  0  0  0  0  0  0  0  0
    2.2846   14.6292   42.0909 C   0  0  0  0  0  0  0  0  0  0  0  0
    2.4891   13.4112   42.7548 C   0  0  0  0  0  0  0  0  0  0  0  0
    3.7557   12.8410   42.8350 C   0  0  0  0  0  0  0  0  0  0  0  0
    4.8102   13.4769   42.2073 C   0  0  0  0  0  0  0  0  0  0  0  0
    4.6517   14.6794   41.5352 C   0  0  0  0  0  0  0  0  0  0  0  0
    3.3787   15.2398   41.4758 C   0  0  0  0  0  0  0  0  0  0  0  0
   -0.1853   14.6811   42.4850 C   0  0  0  0  0  0  0  0  0  0  0  0
    0.9538   18.5188   39.2443 C   0  0  0  0  0  0  0  0  0  0  0  0
    1.5123   19.1752   38.1459 C   0  0  0  0  0  0  0  0  0  0  0  0
   -1.0239   17.8380   40.5274 N   0  0  0  0  0  0  0  0  0  0  0  0
    0.7690   16.3784   41.1587 N   0  0  0  0  0  0  0  0  0  0  0  0
    0.5195   20.9734   35.1282 O   0  0  0  0  0  0  0  0  0  0  0  0
    2.5908   20.5104   35.8638 O   0  0  0  0  0  0  0  0  0  0  0  0
    2.8416   18.9848   37.8521 O   0  0  0  0  0  0  0  0  0  0  0  0
   -1.5785   15.5577   41.9766 S   0  0  0  0  0  0  0  0  0  0  0  0
    6.3855   12.7578   42.2638 Cl  0  0  0  0  0  0  0  0  0  0  0  0
   -1.2355   20.6535   36.8754 H   0  0  0  0  0  0  0  0  0  0  0  0
   -2.3094   19.2803   38.6458 H   0  0  0  0  0  0  0  0  0  0  0  0
    1.6343   12.8982   43.2198 H   0  0  0  0  0  0  0  0  0  0  0  0
    3.9147   11.9028   43.3870 H   0  0  0  0  0  0  0  0  0  0  0  0
    5.5100   15.1779   41.0611 H   0  0  0  0  0  0  0  0  0  0  0  0
    3.2318   16.1846   40.9321 H   0  0  0  0  0  0  0  0  0  0  0  0
   -0.2093   13.7983   43.1408 H   0  0  0  0  0  0  0  0  0  0  0  0
    1.5926   17.9236   39.9134 H   0  0  0  0  0  0  0  0  0  0  0  0
   -1.9758   18.1334   40.7873 H   0  0  0  0  0  0  0  0  0  0  0  0
  1  2  1  0
  1 19  1  0
  1 20  2  0
  2  3  1  0
  2 16  2  0
  3  4  2  0
  4  5  1  0
  5 15  2  0
  5 17  1  0
  6 17  1  0
  6 18  2  0
  6 22  1  0
  7  8  1  0
  7 14  2  0
  7 18  1  0
  8  9  1  0
  8 13  2  0
  9 10  2  0
 10 11  1  0
 11 12  2  0
 11 23  1  0
 12 13  1  0
 14 22  1  0
 15 16  1  0
 16 21  1  0
  3 24  1  0
  4 25  1  0
  9 26  1  0
 10 27  1  0
 12 28  1  0
 13 29  1  0
 14 30  1  0
 15 31  1  0
 17 32  1  0
M  CHG  2  19  -1  21  -1
M  END
>  <mol_id>  (47) 
2026-08-23-6tgu-s0-n100-r6-0047

>  <rmsd_to_ref>  (47) 
2.566326530614861

$$$$
6tgu.A
     RDKit          3D

 32 34  0  0  0  0  0  0  0  0999 V2000
    2.4521   22.1458   38.6901 C   0  0  0  0  0  0  0  0  0  0  0  0
    1.7378   21.0263   39.2882 C   0  0  0  0  0  0  0  0  0  0  0  0
    2.4719   19.9724   39.8063 C   0  0  0  0  0  0  0  0  0  0  0  0
    1.8776   18.8652   40.3953 C   0  0  0  0  0  0  0  0  0  0  0  0
    0.5048   18.8184   40.4647 C   0  0  0  0  0  0  0  0  0  0  0  0
    0.6753   16.6310   41.5780 C   0  0  0  0  0  0  0  0  0  0  0  0
    1.6143   14.6135   41.9439 C   0  0  0  0  0  0  0  0  0  0  0  0
    1.7103   13.1754   41.6275 C   0  0  0  0  0  0  0  0  0  0  0  0
    0.9082   12.5991   40.6451 C   0  0  0  0  0  0  0  0  0  0  0  0
    1.0255   11.2302   40.3812 C   0  0  0  0  0  0  0  0  0  0  0  0
    1.9114   10.4259   41.0625 C   0  0  0  0  0  0  0  0  0  0  0  0
    2.7058   10.9981   42.0360 C   0  0  0  0  0  0  0  0  0  0  0  0
    2.5746   12.3468   42.2797 C   0  0  0  0  0  0  0  0  0  0  0  0
    2.4112   15.1939   42.9405 C   0  0  0  0  0  0  0  0  0  0  0  0
   -0.2236   19.8782   39.9425 C   0  0  0  0  0  0  0  0  0  0  0  0
    0.3578   20.9784   39.3574 C   0  0  0  0  0  0  0  0  0  0  0  0
   -0.1104   17.6950   41.0758 N   0  0  0  0  0  0  0  0  0  0  0  0
    0.8086   15.4674   41.3664 N   0  0  0  0  0  0  0  0  0  0  0  0
    1.7520   23.2244   38.1593 O   0  0  0  0  0  0  0  0  0  0  0  0
    3.7222   22.1762   38.6328 O   0  0  0  0  0  0  0  0  0  0  0  0
   -0.3869   22.0435   38.8336 O   0  0  0  0  0  0  0  0  0  0  0  0
    1.9174   16.9182   42.9476 S   0  0  0  0  0  0  0  0  0  0  0  0
    2.0674    8.7227   40.7456 Cl  0  0  0  0  0  0  0  0  0  0  0  0
    3.5595   20.0324   39.7410 H   0  0  0  0  0  0  0  0  0  0  0  0
    2.5404   18.1084   40.7631 H   0  0  0  0  0  0  0  0  0  0  0  0
    0.2063   13.2230   40.0976 H   0  0  0  0  0  0  0  0  0  0  0  0
    0.4128   10.7543   39.6217 H   0  0  0  0  0  0  0  0  0  0  0  0
    3.4308   10.4226   42.6171 H   0  0  0  0  0  0  0  0  0  0  0  0
    3.2200   12.7684   43.0553 H   0  0  0  0  0  0  0  0  0  0  0  0
    3.1632   14.7358   43.5784 H   0  0  0  0  0  0  0  0  0  0  0  0
   -1.3049   19.8538   39.9908 H   0  0  0  0  0  0  0  0  0  0  0  0
   -1.1735   17.6660   41.1496 H   0  0  0  0  0  0  0  0  0  0  0  0
  1  2  1  0
  1 19  1  0
  1 20  2  0
  2  3  1  0
  2 16  2  0
  3  4  2  0
  4  5  1  0
  5 15  2  0
  5 17  1  0
  6 17  1  0
  6 18  2  0
  6 22  1  0
  7  8  1  0
  7 14  2  0
  7 18  1  0
  8  9  1  0
  8 13  2  0
  9 10  2  0
 10 11  1  0
 11 12  2  0
 11 23  1  0
 12 13  1  0
 14 22  1  0
 15 16  1  0
 16 21  1  0
  3 24  1  0
  4 25  1  0
  9 26  1  0
 10 27  1  0
 12 28  1  0
 13 29  1  0
 14 30  1  0
 15 31  1  0
 17 32  1  0
M  CHG  2  19  -1  21  -1
M  END
>  <mol_id>  (48) 
2026-08-23-6tgu-s0-n100-r6-0048

>  <rmsd_to_ref>  (48) 
2.6122448979626105

$$$$
6tgu.A
     RDKit          3D

 32 34  0  0  0  0  0  0  0  0999 V2000
    3.1554   17.2746   35.8190 C   0  0  0  0  0  0  0  0  0  0  0  0
    2.9693   17.9633   37.1739 C   0  0  0  0  0  0  0  0  0  0  0  0
    2.5796   19.2991   37.2407 C   0  0  0  0  0  0  0  0  0  0  0  0
    2.2169   19.9067   38.4472 C   0  0  0  0  0  0  0  0  0  0  0  0
    2.4046   19.2296   39.6609 C   0  0  0  0  0  0  0  0  0  0  0  0
    1.6240   19.2340   42.0804 C   0  0  0  0  0  0  0  0  0  0  0  0
    1.3387   17.5782   43.6142 C   0  0  0  0  0  0  0  0  0  0  0  0
    1.4636   16.2173   44.1371 C   0  0  0  0  0  0  0  0  0  0  0  0
    0.8628   15.8260   45.3421 C   0  0  0  0  0  0  0  0  0  0  0  0
    0.9660   14.5176   45.8042 C   0  0  0  0  0  0  0  0  0  0  0  0
    1.6383   13.5916   45.0290 C   0  0  0  0  0  0  0  0  0  0  0  0
    2.2422   13.9341   43.8286 C   0  0  0  0  0  0  0  0  0  0  0  0
    2.1374   15.2508   43.3888 C   0  0  0  0  0  0  0  0  0  0  0  0
    0.6538   18.5818   44.2468 C   0  0  0  0  0  0  0  0  0  0  0  0
    2.7857   17.8811   39.6108 C   0  0  0  0  0  0  0  0  0  0  0  0
    3.0642   17.2815   38.3812 C   0  0  0  0  0  0  0  0  0  0  0  0
    1.9802   19.8105   40.8953 N   0  0  0  0  0  0  0  0  0  0  0  0
    1.8297   17.8929   42.3250 N   0  0  0  0  0  0  0  0  0  0  0  0
    2.7793   17.9237   34.7989 O   0  0  0  0  0  0  0  0  0  0  0  0
    3.5864   16.1008   35.8341 O   0  0  0  0  0  0  0  0  0  0  0  0
    3.3346   15.9345   38.3346 O   0  0  0  0  0  0  0  0  0  0  0  0
    0.5570   19.9846   43.2516 S   0  0  0  0  0  0  0  0  0  0  0  0
    1.7400   11.9494   45.5717 Cl  0  0  0  0  0  0  0  0  0  0  0  0
    2.5565   19.8944   36.3160 H   0  0  0  0  0  0  0  0  0  0  0  0
    1.7834   20.9177   38.4441 H   0  0  0  0  0  0  0  0  0  0  0  0
    0.3008   16.5653   45.9317 H   0  0  0  0  0  0  0  0  0  0  0  0
    0.5216   14.2261   46.7673 H   0  0  0  0  0  0  0  0  0  0  0  0
    2.7900   13.1844   43.2388 H   0  0  0  0  0  0  0  0  0  0  0  0
    2.5958   15.5358   42.4304 H   0  0  0  0  0  0  0  0  0  0  0  0
    0.2230   18.5025   45.2558 H   0  0  0  0  0  0  0  0  0  0  0  0
    2.8650   17.2964   40.5392 H   0  0  0  0  0  0  0  0  0  0  0  0
    1.9354   20.8395   40.8901 H   0  0  0  0  0  0  0  0  0  0  0  0
  1  2  1  0
  1 19  1  0
  1 20  2  0
  2  3  1  0
  2 16  2  0
  3  4  2  0
  4  5  1  0
  5 15  2  0
  5 17  1  0
  6 17  1  0
  6 18  2  0
  6 22  1  0
  7  8  1  0
  7 14  2  0
  7 18  1  0
  8  9  1  0
  8 13  2  0
  9 10  2  0
 10 11  1  0
 11 12  2  0
 11 23  1  0
 12 13  1  0
 14 22  1  0
 15 16  1  0
 16 21  1  0
  3 24  1  0
  4 25  1  0
  9 26  1  0
 10 27  1  0
 12 28  1  0
 13 29  1  0
 14 30  1  0
 15 31  1  0
 17 32  1  0
M  CHG  2  19  -1  21  -1
M  END
>  <mol_id>  (49) 
2026-08-23-6tgu-s0-n100-r6-0049

>  <rmsd_to_ref>  (49) 
2.6581632653125764

$$$$
6tgu.A
     RDKit          3D

 32 34  0  0  0  0  0  0  0  0999 V2000
    6.4089   19.1793   39.7838 C   0  0  0  0  0  0  0  0  0  0  0  0
    5.0498   19.0802   40.2992 C   0  0  0  0  0  0  0  0  0  0  0  0
    4.4089   17.8681   40.4078 C   0  0  0  0  0  0  0  0  0  0  0  0
    3.1215   17.8417   40.9038 C   0  0  0  0  0  0  0  0  0  0  0  0
    2.4436   18.9738   41.2972 C   0  0  0  0  0  0  0  0  0  0  0  0
    0.3262   17.8440   41.9875 C   0  0  0  0  0  0  0  0  0  0  0  0
   -0.4423   15.6881   42.0365 C   0  0  0  0  0  0  0  0  0  0  0  0
   -0.2713   14.2261   41.8015 C   0  0  0  0  0  0  0  0  0  0  0  0
   -1.2765   13.3369   42.0884 C   0  0  0  0  0  0  0  0  0  0  0  0
   -1.0612   11.9968   41.8503 C   0  0  0  0  0  0  0  0  0  0  0  0
    0.1132   11.4918   41.3369 C   0  0  0  0  0  0  0  0  0  0  0  0
    1.1229   12.3843   41.0486 C   0  0  0  0  0  0  0  0  0  0  0  0
    0.9027   13.7175   41.2878 C   0  0  0  0  0  0  0  0  0  0  0  0
   -1.6416   16.1587   42.5556 C   0  0  0  0  0  0  0  0  0  0  0  0
    3.1390   20.1748   41.1663 C   0  0  0  0  0  0  0  0  0  0  0  0
    4.4203   20.2462   40.6778 C   0  0  0  0  0  0  0  0  0  0  0  0
    1.1229   18.9725   41.8090 N   0  0  0  0  0  0  0  0  0  0  0  0
    0.4821   16.5488   41.7776 N   0  0  0  0  0  0  0  0  0  0  0  0
    7.1519   18.0903   39.3701 O   0  0  0  0  0  0  0  0  0  0  0  0
    6.9439   20.3197   39.7080 O   0  0  0  0  0  0  0  0  0  0  0  0
    5.0529   21.4761   40.5745 O   0  0  0  0  0  0  0  0  0  0  0  0
   -1.3504   17.9376   42.6480 S   0  0  0  0  0  0  0  0  0  0  0  0
    0.2707    9.7667   41.0767 Cl  0  0  0  0  0  0  0  0  0  0  0  0
    4.9392   16.9687   40.0984 H   0  0  0  0  0  0  0  0  0  0  0  0
    2.6520   16.8833   40.9752 H   0  0  0  0  0  0  0  0  0  0  0  0
   -2.2235   13.6648   42.4932 H   0  0  0  0  0  0  0  0  0  0  0  0
   -1.8805   11.3296   42.0908 H   0  0  0  0  0  0  0  0  0  0  0  0
    2.0445   11.9872   40.6456 H   0  0  0  0  0  0  0  0  0  0  0  0
    1.6980   14.4395   41.0629 H   0  0  0  0  0  0  0  0  0  0  0  0
   -2.5077   15.6442   42.8318 H   0  0  0  0  0  0  0  0  0  0  0  0
    2.6546   21.1141   41.4624 H   0  0  0  0  0  0  0  0  0  0  0  0
    0.7245   19.9233   42.0732 H   0  0  0  0  0  0  0  0  0  0  0  0
  1  2  1  0
  1 19  1  0
  1 20  2  0
  2  3  1  0
  2 16  2  0
  3  4  2  0
  4  5  1  0
  5 15  2  0
  5 17  1  0
  6 17  1  0
  6 18  2  0
  6 22  1  0
  7  8  1  0
  7 14  2  0
  7 18  1  0
  8  9  1  0
  8 13  2  0
  9 10  2  0
 10 11  1  0
 11 12  2  0
 11 23  1  0
 12 13  1  0
 14 22  1  0
 15 16  1  0
 16 21  1  0
  3 24  1  0
  4 25  1  0
  9 26  1  0
 10 27  1  0
 12 28  1  0
 13 29  1  0
 14 30  1  0
 15 31  1  0
 17 32  1  0
M  CHG  2  19  -1  21  -1
M  END
>  <mol_id>  (50) 
2026-08-23-6tgu-s0-n100-r6-0050

>  <rmsd_to_ref>  (50) 
2.7040816326569153

$$$$
6tgu.A
     RDKit          3D

 32 34  0  0  0  0  0  0  0  0999 V2000
    2.7240   22.1256   39.7933 C   0  0  0  0  0  0  0  0  0  0  0  0
    2.0019   21.0539   40.6146 C   0  0  0  0  0  0  0  0  0  0  0  0
    0.9784   21.4053   41.4919 C   0  0  0  0  0  0  0  0  0  0  0  0
    0.1719   20.4463   42.1134 C   0  0  0  0  0  0  0  0  0  0  0  0
    0.4870   19.0841   42.0049 C   0  0  0  0  0  0  0  0  0  0  0  0
   -0.5536   16.7777   42.2525 C   0  0  0  0  0  0  0  0  0  0  0  0
   -0.1870   14.7965   41.1961 C   0  0  0  0  0  0  0  0  0  0  0  0
    0.5334   13.8735   40.3184 C   0  0  0  0  0  0  0  0  0  0  0  0
    0.0376   12.5978   40.0139 C   0  0  0  0  0  0  0  0  0  0  0  0
    0.7223   11.7488   39.1500 C   0  0  0  0  0  0  0  0  0  0  0  0
    1.8857   12.2028   38.5576 C   0  0  0  0  0  0  0  0  0  0  0  0
    2.4084   13.4589   38.8261 C   0  0  0  0  0  0  0  0  0  0  0  0
    1.7146   14.2893   39.7020 C   0  0  0  0  0  0  0  0  0  0  0  0
   -1.3783   14.5020   41.8046 C   0  0  0  0  0  0  0  0  0  0  0  0
    1.5072   18.7126   41.1175 C   0  0  0  0  0  0  0  0  0  0  0  0
    2.2421   19.6949   40.4510 C   0  0  0  0  0  0  0  0  0  0  0  0
   -0.3622   18.0893   42.5796 N   0  0  0  0  0  0  0  0  0  0  0  0
    0.2685   16.1264   41.3577 N   0  0  0  0  0  0  0  0  0  0  0  0
    2.2338   23.2924   39.8316 O   0  0  0  0  0  0  0  0  0  0  0  0
    3.6866   21.7480   39.0901 O   0  0  0  0  0  0  0  0  0  0  0  0
    3.1674   19.3189   39.5064 O   0  0  0  0  0  0  0  0  0  0  0  0
   -2.0225   15.8868   42.6017 S   0  0  0  0  0  0  0  0  0  0  0  0
    2.7274   11.1722   37.4482 Cl  0  0  0  0  0  0  0  0  0  0  0  0
    0.7989   22.4700   41.7023 H   0  0  0  0  0  0  0  0  0  0  0  0
   -0.7113   20.7612   42.6885 H   0  0  0  0  0  0  0  0  0  0  0  0
   -0.9079   12.2628   40.4652 H   0  0  0  0  0  0  0  0  0  0  0  0
    0.3453   10.7364   38.9426 H   0  0  0  0  0  0  0  0  0  0  0  0
    3.3473   13.7907   38.3589 H   0  0  0  0  0  0  0  0  0  0  0  0
    2.1060   15.2955   39.9130 H   0  0  0  0  0  0  0  0  0  0  0  0
   -1.8596   13.5131   41.7867 H   0  0  0  0  0  0  0  0  0  0  0  0
    1.7281   17.6487   40.9466 H   0  0  0  0  0  0  0  0  0  0  0  0
   -0.9262   18.4175   43.3766 H   0  0  0  0  0  0  0  0  0  0  0  0
  1  2  1  0
  1 19  1  0
  1 20  2  0
  2  3  1  0
  2 16  2  0
  3  4  2  0
  4  5  1  0
  5 15  2  0
  5 17  1  0
  6 17  1  0
  6 18  2  0
  6 22  1  0
  7  8  1  0
  7 14  2  0
  7 18  1  0
  8  9  1  0
  8 13  2  0
  9 10  2  0
 10 11  1  0
 11 12  2  0
 11 23  1  0
 12 13  1  0
 14 22  1  0
 15 16  1  0
 16 21  1  0
  3 24  1  0
  4 25  1  0
  9 26  1  0
 10 27  1  0
 12 28  1  0
 13 29  1  0
 14 30  1  0
 15 31  1  0
 17 32  1  0
M  CHG  2  19  -1  21  -1
M  END
>  <mol_id>  (51) 
2026-08-23-6tgu-s0-n100-r6-0051

>  <rmsd_to_ref>  (51) 
2.7500000000056053

$$$$
6tgu.A
     RDKit          3D

 32 34  0  0  0  0  0  0  0  0999 V2000
    3.7728   17.2623   36.3117 C   0  0  0  0  0  0  0  0  0  0  0  0
    2.9523   17.8978   37.3390 C   0  0  0  0  0  0  0  0  0  0  0  0
    2.4925   17.0987   38.3640 C   0  0  0  0  0  0  0  0  0  0  0  0
    1.7100   17.7068   39.3430 C   0  0  0  0  0  0  0  0  0  0  0  0
    1.3843   19.0252   39.3362 C   0  0  0  0  0  0  0  0  0  0  0  0
    0.0724   18.9026   41.4218 C   0  0  0  0  0  0  0  0  0  0  0  0
   -0.5440   17.4035   42.9623 C   0  0  0  0  0  0  0  0  0  0  0  0
   -0.4851   16.0120   43.4120 C   0  0  0  0  0  0  0  0  0  0  0  0
    0.1979   15.0240   42.7355 C   0  0  0  0  0  0  0  0  0  0  0  0
    0.2490   13.7106   43.1670 C   0  0  0  0  0  0  0  0  0  0  0  0
   -0.4057   13.3545   44.3223 C   0  0  0  0  0  0  0  0  0  0  0  0
   -1.1055   14.3152   45.0355 C   0  0  0  0  0  0  0  0  0  0  0  0
   -1.1336   15.6151   44.5735 C   0  0  0  0  0  0  0  0  0  0  0  0
   -1.2398   18.3692   43.6674 C   0  0  0  0  0  0  0  0  0  0  0  0
    1.8786   19.7887   38.2716 C   0  0  0  0  0  0  0  0  0  0  0  0
    2.6557   19.2427   37.2769 C   0  0  0  0  0  0  0  0  0  0  0  0
    0.6000   19.6965   40.2936 N   0  0  0  0  0  0  0  0  0  0  0  0
    0.0339   17.8791   41.8796 N   0  0  0  0  0  0  0  0  0  0  0  0
    4.2559   18.0451   35.2570 O   0  0  0  0  0  0  0  0  0  0  0  0
    4.0651   16.0324   36.3359 O   0  0  0  0  0  0  0  0  0  0  0  0
    3.1285   20.0454   36.2305 O   0  0  0  0  0  0  0  0  0  0  0  0
   -0.9732   19.9014   42.6573 S   0  0  0  0  0  0  0  0  0  0  0  0
   -0.3657   11.7039   44.9023 Cl  0  0  0  0  0  0  0  0  0  0  0  0
    2.7341   16.0431   38.3990 H   0  0  0  0  0  0  0  0  0  0  0  0
    1.3621   17.0820   40.1262 H   0  0  0  0  0  0  0  0  0  0  0  0
    0.7114   15.3168   41.8241 H   0  0  0  0  0  0  0  0  0  0  0  0
    0.8015   12.9809   42.5928 H   0  0  0  0  0  0  0  0  0  0  0  0
   -1.6355   14.0812   45.9497 H   0  0  0  0  0  0  0  0  0  0  0  0
   -1.6949   16.3512   45.1590 H   0  0  0  0  0  0  0  0  0  0  0  0
   -1.8104   18.3596   44.5573 H   0  0  0  0  0  0  0  0  0  0  0  0
    1.6474   20.8541   38.2165 H   0  0  0  0  0  0  0  0  0  0  0  0
    0.4019   20.6966   40.2124 H   0  0  0  0  0  0  0  0  0  0  0  0
  1  2  1  0
  1 19  1  0
  1 20  2  0
  2  3  1  0
  2 16  2  0
  3  4  2  0
  4  5  1  0
  5 15  2  0
  5 17  1  0
  6 17  1  0
  6 18  2  0
  6 22  1  0
  7  8  1  0
  7 14  2  0
  7 18  1  0
  8  9  1  0
  8 13  2  0
  9 10  2  0
 10 11  1  0
 11 12  2  0
 11 23  1  0
 12 13  1  0
 14 22  1  0
 15 16  1  0
 16 21  1  0
  3 24  1  0
  4 25  1  0
  9 26  1  0
 10 27  1  0
 12 28  1  0
 13 29  1  0
 14 30  1  0
 15 31  1  0
 17 32  1  0
M  CHG  2  19  -1  21  -1
M  END
>  <mol_id>  (52) 
2026-08-23-6tgu-s0-n100-r6-0052

>  <rmsd_to_ref>  (52) 
2.795918367356323

$$$$
6tgu.A
     RDKit          3D

 32 34  0  0  0  0  0  0  0  0999 V2000
    0.0204   18.8439   35.7344 C   0  0  0  0  0  0  0  0  0  0  0  0
    0.0321   18.6973   37.2586 C   0  0  0  0  0  0  0  0  0  0  0  0
   -1.0388   19.1573   38.0216 C   0  0  0  0  0  0  0  0  0  0  0  0
   -1.1530   18.8743   39.3866 C   0  0  0  0  0  0  0  0  0  0  0  0
   -0.0929   18.2606   40.0696 C   0  0  0  0  0  0  0  0  0  0  0  0
    0.4119   16.9482   42.1876 C   0  0  0  0  0  0  0  0  0  0  0  0
    1.9180   15.3125   42.6688 C   0  0  0  0  0  0  0  0  0  0  0  0
    3.0801   14.4610   42.4127 C   0  0  0  0  0  0  0  0  0  0  0  0
    3.4427   13.4184   43.2774 C   0  0  0  0  0  0  0  0  0  0  0  0
    4.5319   12.5992   42.9973 C   0  0  0  0  0  0  0  0  0  0  0  0
    5.2299   12.8029   41.8219 C   0  0  0  0  0  0  0  0  0  0  0  0
    4.9022   13.8181   40.9359 C   0  0  0  0  0  0  0  0  0  0  0  0
    3.8161   14.6344   41.2396 C   0  0  0  0  0  0  0  0  0  0  0  0
    1.1028   15.1869   43.7624 C   0  0  0  0  0  0  0  0  0  0  0  0
    0.9875   17.7817   39.3148 C   0  0  0  0  0  0  0  0  0  0  0  0
    1.0321   18.0126   37.9387 C   0  0  0  0  0  0  0  0  0  0  0  0
   -0.2186   17.9071   41.4481 N   0  0  0  0  0  0  0  0  0  0  0  0
    1.4972   16.2526   41.6987 N   0  0  0  0  0  0  0  0  0  0  0  0
   -1.0632   19.2408   35.2134 O   0  0  0  0  0  0  0  0  0  0  0  0
    1.0500   18.4847   35.1225 O   0  0  0  0  0  0  0  0  0  0  0  0
    2.0410   17.4496   37.1937 O   0  0  0  0  0  0  0  0  0  0  0  0
   -0.2658   16.2253   43.6338 S   0  0  0  0  0  0  0  0  0  0  0  0
    6.5632   11.7647   41.4398 Cl  0  0  0  0  0  0  0  0  0  0  0  0
   -1.8188   19.7619   37.5356 H   0  0  0  0  0  0  0  0  0  0  0  0
   -2.0762   19.1336   39.9256 H   0  0  0  0  0  0  0  0  0  0  0  0
    2.8565   13.2454   44.1921 H   0  0  0  0  0  0  0  0  0  0  0  0
    4.8314   11.8053   43.6973 H   0  0  0  0  0  0  0  0  0  0  0  0
    5.4856   13.9744   40.0166 H   0  0  0  0  0  0  0  0  0  0  0  0
    3.5317   15.4337   40.5394 H   0  0  0  0  0  0  0  0  0  0  0  0
    1.2962   14.5128   44.6099 H   0  0  0  0  0  0  0  0  0  0  0  0
    1.7988   17.2249   39.8064 H   0  0  0  0  0  0  0  0  0  0  0  0
   -0.9012   18.4718   41.9735 H   0  0  0  0  0  0  0  0  0  0  0  0
  1  2  1  0
  1 19  1  0
  1 20  2  0
  2  3  1  0
  2 16  2  0
  3  4  2  0
  4  5  1  0
  5 15  2  0
  5 17  1  0
  6 17  1  0
  6 18  2  0
  6 22  1  0
  7  8  1  0
  7 14  2  0
  7 18  1  0
  8  9  1  0
  8 13  2  0
  9 10  2  0
 10 11  1  0
 11 12  2  0
 11 23  1  0
 12 13  1  0
 14 22  1  0
 15 16  1  0
 16 21  1  0
  3 24  1  0
  4 25  1  0
  9 26  1  0
 10 27  1  0
 12 28  1  0
 13 29  1  0
 14 30  1  0
 15 31  1  0
 17 32  1  0
M  CHG  2  19  -1  21  -1
M  END
>  <mol_id>  (53) 
2026-08-23-6tgu-s0-n100-r6-0053

>  <rmsd_to_ref>  (53) 
2.841836734697662

$$$$
6tgu.A
     RDKit          3D

 32 34  0  0  0  0  0  0  0  0999 V2000
    4.6644   21.0152   37.9611 C   0  0  0  0  0  0  0  0  0  0  0  0
    3.8944   19.8921   38.4368 C   0  0  0  0  0  0  0  0  0  0  0  0
    2.9260   20.0743   39.4231 C   0  0  0  0  0  0  0  0  0  0  0  0
    2.1869   18.9878   39.8798 C   0  0  0  0  0  0  0  0  0  0  0  0
    2.3458   17.7120   39.4176 C   0  0  0  0  0  0  0  0  0  0  0  0
    1.0672   16.3557   41.1161 C   0  0  0  0  0  0  0  0  0  0  0  0
   -0.0304   15.5103   42.8824 C   0  0  0  0  0  0  0  0  0  0  0  0
   -0.8584   14.4184   43.4295 C   0  0  0  0  0  0  0  0  0  0  0  0
   -1.2418   13.3309   42.6737 C   0  0  0  0  0  0  0  0  0  0  0  0
   -2.0126   12.2963   43.1578 C   0  0  0  0  0  0  0  0  0  0  0  0
   -2.4323   12.3294   44.4584 C   0  0  0  0  0  0  0  0  0  0  0  0
   -2.0516   13.4150   45.2199 C   0  0  0  0  0  0  0  0  0  0  0  0
   -1.2871   14.4427   44.7430 C   0  0  0  0  0  0  0  0  0  0  0  0
    0.3347   16.5965   43.6616 C   0  0  0  0  0  0  0  0  0  0  0  0
    3.3240   17.5358   38.4225 C   0  0  0  0  0  0  0  0  0  0  0  0
    4.0584   18.6208   37.9699 C   0  0  0  0  0  0  0  0  0  0  0  0
    1.6620   16.5679   39.8330 N   0  0  0  0  0  0  0  0  0  0  0  0
    0.4202   15.5626   41.6566 N   0  0  0  0  0  0  0  0  0  0  0  0
    4.4516   22.2845   38.4711 O   0  0  0  0  0  0  0  0  0  0  0  0
    5.5318   20.8164   37.0743 O   0  0  0  0  0  0  0  0  0  0  0  0
    5.0052   18.3613   36.9856 O   0  0  0  0  0  0  0  0  0  0  0  0
    1.3270   17.6133   42.4923 S   0  0  0  0  0  0  0  0  0  0  0  0
   -3.4123   11.0791   45.1936 Cl  0  0  0  0  0  0  0  0  0  0  0  0
    2.7509   21.0637   39.8330 H   0  0  0  0  0  0  0  0  0  0  0  0
    1.4527   19.2043   40.6294 H   0  0  0  0  0  0  0  0  0  0  0  0
   -0.9273   13.2687   41.6298 H   0  0  0  0  0  0  0  0  0  0  0  0
   -2.3031   11.4450   42.5402 H   0  0  0  0  0  0  0  0  0  0  0  0
   -2.3866   13.4452   46.2680 H   0  0  0  0  0  0  0  0  0  0  0  0
   -1.0057   15.2827   45.3705 H   0  0  0  0  0  0  0  0  0  0  0  0
    0.1462   16.8655   44.6654 H   0  0  0  0  0  0  0  0  0  0  0  0
    3.5015   16.5340   38.0079 H   0  0  0  0  0  0  0  0  0  0  0  0
    1.5505   15.7612   39.1672 H   0  0  0  0  0  0  0  0  0  0  0  0
  1  2  1  0
  1 19  1  0
  1 20  2  0
  2  3  1  0
  2 16  2  0
  3  4  2  0
  4  5  1  0
  5 15  2  0
  5 17  1  0
  6 17  1  0
  6 18  2  0
  6 22  1  0
  7  8  1  0
  7 14  2  0
  7 18  1  0
  8  9  1  0
  8 13  2  0
  9 10  2  0
 10 11  1  0
 11 12  2  0
 11 23  1  0
 12 13  1  0
 14 22  1  0
 15 16  1  0
 16 21  1  0
  3 24  1  0
  4 25  1  0
  9 26  1  0
 10 27  1  0
 12 28  1  0
 13 29  1  0
 14 30  1  0
 15 31  1  0
 17 32  1  0
M  CHG  2  19  -1  21  -1
M  END
>  <mol_id>  (54) 
2026-08-23-6tgu-s0-n100-r6-0054

>  <rmsd_to_ref>  (54) 
2.887755102041457

$$$$
6tgu.A
     RDKit          3D

 32 34  0  0  0  0  0  0  0  0999 V2000
    5.8569   20.9908   39.2928 C   0  0  0  0  0  0  0  0  0  0  0  0
    4.3833   20.5746   39.2945 C   0  0  0  0  0  0  0  0  0  0  0  0
    3.4393   21.3121   38.5834 C   0  0  0  0  0  0  0  0  0  0  0  0
    2.1272   20.8617   38.4047 C   0  0  0  0  0  0  0  0  0  0  0  0
    1.6728   19.7264   39.0913 C   0  0  0  0  0  0  0  0  0  0  0  0
   -0.1535   17.9592   39.0195 C   0  0  0  0  0  0  0  0  0  0  0  0
   -0.2061   15.7672   39.6263 C   0  0  0  0  0  0  0  0  0  0  0  0
    0.3087   14.5521   40.2583 C   0  0  0  0  0  0  0  0  0  0  0  0
   -0.3436   13.3170   40.1359 C   0  0  0  0  0  0  0  0  0  0  0  0
    0.1815   12.1670   40.7171 C   0  0  0  0  0  0  0  0  0  0  0  0
    1.3883   12.2533   41.3853 C   0  0  0  0  0  0  0  0  0  0  0  0
    2.0697   13.4530   41.5253 C   0  0  0  0  0  0  0  0  0  0  0  0
    1.5223   14.5946   40.9464 C   0  0  0  0  0  0  0  0  0  0  0  0
   -1.3581   15.8166   38.8867 C   0  0  0  0  0  0  0  0  0  0  0  0
    2.6126   18.9666   39.8023 C   0  0  0  0  0  0  0  0  0  0  0  0
    3.9351   19.4042   39.8949 C   0  0  0  0  0  0  0  0  0  0  0  0
    0.3564   19.2168   38.8705 N   0  0  0  0  0  0  0  0  0  0  0  0
    0.5579   16.9581   39.6460 N   0  0  0  0  0  0  0  0  0  0  0  0
    6.1816   21.9165   38.4923 O   0  0  0  0  0  0  0  0  0  0  0  0
    6.6329   20.3320   40.0192 O   0  0  0  0  0  0  0  0  0  0  0  0
    4.8692   18.6006   40.5045 O   0  0  0  0  0  0  0  0  0  0  0  0
   -1.5472   17.3585   38.1420 S   0  0  0  0  0  0  0  0  0  0  0  0
    2.0747   10.8218   42.0790 Cl  0  0  0  0  0  0  0  0  0  0  0  0
    3.7349   22.2785   38.1491 H   0  0  0  0  0  0  0  0  0  0  0  0
    1.4503   21.3992   37.7243 H   0  0  0  0  0  0  0  0  0  0  0  0
   -1.2856   13.2562   39.5712 H   0  0  0  0  0  0  0  0  0  0  0  0
   -0.3532   11.2083   40.6463 H   0  0  0  0  0  0  0  0  0  0  0  0
    3.0185   13.5013   42.0798 H   0  0  0  0  0  0  0  0  0  0  0  0
    2.0582   15.5513   41.0331 H   0  0  0  0  0  0  0  0  0  0  0  0
   -2.0678   14.9827   38.7821 H   0  0  0  0  0  0  0  0  0  0  0  0
    2.3082   18.0270   40.2866 H   0  0  0  0  0  0  0  0  0  0  0  0
   -0.3237   19.9176   38.5432 H   0  0  0  0  0  0  0  0  0  0  0  0
  1  2  1  0
  1 19  1  0
  1 20  2  0
  2  3  1  0
  2 16  2  0
  3  4  2  0
  4  5  1  0
  5 15  2  0
  5 17  1  0
  6 17  1  0
  6 18  2  0
  6 22  1  0
  7  8  1  0
  7 14  2  0
  7 18  1  0
  8  9  1  0
  8 13  2  0
  9 10  2  0
 10 11  1  0
 11 12  2  0
 11 23  1  0
 12 13  1  0
 14 22  1  0
 15 16  1  0
 16 21  1  0
  3 24  1  0
  4 25  1  0
  9 26  1  0
 10 27  1  0
 12 28  1  0
 13 29  1  0
 14 30  1  0
 15 31  1  0
 17 32  1  0
M  CHG  2  19  -1  21  -1
M  END
>  <mol_id>  (55) 
2026-08-23-6tgu-s0-n100-r6-0055

>  <rmsd_to_ref>  (55) 
2.9336734693887347

$$$$
6tgu.A
     RDKit          3D

 32 34  0  0  0  0  0  0  0  0999 V2000
   -0.5836   21.9771   38.3634 C   0  0  0  0  0  0  0  0  0  0  0  0
    0.0932   20.7783   38.8421 C   0  0  0  0  0  0  0  0  0  0  0  0
   -0.2825   20.1254   39.9955 C   0  0  0  0  0  0  0  0  0  0  0  0
    0.3919   18.9777   40.4205 C   0  0  0  0  0  0  0  0  0  0  0  0
    1.4500   18.4421   39.7254 C   0  0  0  0  0  0  0  0  0  0  0  0
    1.7147   16.2118   40.8583 C   0  0  0  0  0  0  0  0  0  0  0  0
    1.6740   14.2719   41.9881 C   0  0  0  0  0  0  0  0  0  0  0  0
    2.4064   13.0529   42.4211 C   0  0  0  0  0  0  0  0  0  0  0  0
    3.7010   12.8079   42.0896 C   0  0  0  0  0  0  0  0  0  0  0  0
    4.3493   11.6470   42.5151 C   0  0  0  0  0  0  0  0  0  0  0  0
    3.6791   10.7148   43.2896 C   0  0  0  0  0  0  0  0  0  0  0  0
    2.3800   10.9623   43.6214 C   0  0  0  0  0  0  0  0  0  0  0  0
    1.7529   12.1116   43.1950 C   0  0  0  0  0  0  0  0  0  0  0  0
    0.3792   14.4924   42.3317 C   0  0  0  0  0  0  0  0  0  0  0  0
    1.8039   19.1348   38.5560 C   0  0  0  0  0  0  0  0  0  0  0  0
    1.1525   20.2540   38.1345 C   0  0  0  0  0  0  0  0  0  0  0  0
    2.1722   17.3062   40.0389 N   0  0  0  0  0  0  0  0  0  0  0  0
    2.2297   15.2044   41.2502 N   0  0  0  0  0  0  0  0  0  0  0  0
   -1.6361   22.5004   39.0632 O   0  0  0  0  0  0  0  0  0  0  0  0
   -0.1757   22.5083   37.3014 O   0  0  0  0  0  0  0  0  0  0  0  0
    1.5684   20.8843   36.9581 O   0  0  0  0  0  0  0  0  0  0  0  0
    0.0357   16.0988   41.5328 S   0  0  0  0  0  0  0  0  0  0  0  0
    4.5240    9.2718   43.8046 Cl  0  0  0  0  0  0  0  0  0  0  0  0
   -1.1110   20.5125   40.5754 H   0  0  0  0  0  0  0  0  0  0  0  0
    0.0473   18.5409   41.3250 H   0  0  0  0  0  0  0  0  0  0  0  0
    4.2225   13.5376   41.4862 H   0  0  0  0  0  0  0  0  0  0  0  0
    5.3883   11.5154   42.2111 H   0  0  0  0  0  0  0  0  0  0  0  0
    1.8514   10.2387   44.2252 H   0  0  0  0  0  0  0  0  0  0  0  0
    0.7269   12.2557   43.4860 H   0  0  0  0  0  0  0  0  0  0  0  0
   -0.3444   13.9480   42.9089 H   0  0  0  0  0  0  0  0  0  0  0  0
    2.6266   18.7709   37.9587 H   0  0  0  0  0  0  0  0  0  0  0  0
    3.1415   17.1922   39.6697 H   0  0  0  0  0  0  0  0  0  0  0  0
  1  2  1  0
  1 19  1  0
  1 20  2  0
  2  3  1  0
  2 16  2  0
  3  4  2  0
  4  5  1  0
  5 15  2  0
  5 17  1  0
  6 17  1  0
  6 18  2  0
  6 22  1  0
  7  8  1  0
  7 14  2  0
  7 18  1  0
  8  9  1  0
  8 13  2  0
  9 10  2  0
 10 11  1  0
 11 12  2  0
 11 23  1  0
 12 13  1  0
 14 22  1  0
 15 16  1  0
 16 21  1  0
  3 24  1  0
  4 25  1  0
  9 26  1  0
 10 27  1  0
 12 28  1  0
 13 29  1  0
 14 30  1  0
 15 31  1  0
 17 32  1  0
M  CHG  2  19  -1  21  -1
M  END
>  <mol_id>  (56) 
2026-08-23-6tgu-s0-n100-r6-0056

>  <rmsd_to_ref>  (56) 
2.9795918367375296

$$$$
6tgu.A
     RDKit          3D

 32 34  0  0  0  0  0  0  0  0999 V2000
   -0.6857   19.1349   35.6609 C   0  0  0  0  0  0  0  0  0  0  0  0
   -0.4117   19.2500   37.1630 C   0  0  0  0  0  0  0  0  0  0  0  0
   -1.2748   19.9695   37.9863 C   0  0  0  0  0  0  0  0  0  0  0  0
   -1.1664   19.9407   39.3805 C   0  0  0  0  0  0  0  0  0  0  0  0
   -0.0662   19.3189   39.9885 C   0  0  0  0  0  0  0  0  0  0  0  0
    0.6822   18.3321   42.2087 C   0  0  0  0  0  0  0  0  0  0  0  0
    2.0804   16.6194   42.7445 C   0  0  0  0  0  0  0  0  0  0  0  0
    3.0860   15.5918   42.4721 C   0  0  0  0  0  0  0  0  0  0  0  0
    3.4942   14.6736   43.4499 C   0  0  0  0  0  0  0  0  0  0  0  0
    4.4273   13.6831   43.1598 C   0  0  0  0  0  0  0  0  0  0  0  0
    4.9167   13.5902   41.8705 C   0  0  0  0  0  0  0  0  0  0  0  0
    4.5360   14.4736   40.8716 C   0  0  0  0  0  0  0  0  0  0  0  0
    3.6099   15.4648   41.1846 C   0  0  0  0  0  0  0  0  0  0  0  0
    1.4693   16.7899   43.9585 C   0  0  0  0  0  0  0  0  0  0  0  0
    0.8058   18.5811   39.1753 C   0  0  0  0  0  0  0  0  0  0  0  0
    0.6222   18.5661   37.7914 C   0  0  0  0  0  0  0  0  0  0  0  0
    0.0263   19.2251   41.4111 N   0  0  0  0  0  0  0  0  0  0  0  0
    1.5858   17.4273   41.6934 N   0  0  0  0  0  0  0  0  0  0  0  0
   -1.8010   19.5756   35.2547 O   0  0  0  0  0  0  0  0  0  0  0  0
    0.1745   18.5449   34.9712 O   0  0  0  0  0  0  0  0  0  0  0  0
    1.4177   17.7572   37.0152 O   0  0  0  0  0  0  0  0  0  0  0  0
    0.2103   17.9614   43.8559 S   0  0  0  0  0  0  0  0  0  0  0  0
    6.0483   12.3365   41.4841 Cl  0  0  0  0  0  0  0  0  0  0  0  0
   -2.0661   20.5793   37.5257 H   0  0  0  0  0  0  0  0  0  0  0  0
   -1.9458   20.4068   40.0014 H   0  0  0  0  0  0  0  0  0  0  0  0
    3.0699   14.7373   44.4628 H   0  0  0  0  0  0  0  0  0  0  0  0
    4.7687   12.9878   43.9409 H   0  0  0  0  0  0  0  0  0  0  0  0
    4.9551   14.3932   39.8578 H   0  0  0  0  0  0  0  0  0  0  0  0
    3.2839   16.1634   40.4000 H   0  0  0  0  0  0  0  0  0  0  0  0
    1.7455   16.2506   44.8766 H   0  0  0  0  0  0  0  0  0  0  0  0
    1.6335   18.0148   39.6272 H   0  0  0  0  0  0  0  0  0  0  0  0
   -0.4898   19.9556   41.9220 H   0  0  0  0  0  0  0  0  0  0  0  0
  1  2  1  0
  1 19  1  0
  1 20  2  0
  2  3  1  0
  2 16  2  0
  3  4  2  0
  4  5  1  0
  5 15  2  0
  5 17  1  0
  6 17  1  0
  6 18  2  0
  6 22  1  0
  7  8  1  0
  7 14  2  0
  7 18  1  0
  8  9  1  0
  8 13  2  0
  9 10  2  0
 10 11  1  0
 11 12  2  0
 11 23  1  0
 12 13  1  0
 14 22  1  0
 15 16  1  0
 16 21  1  0
  3 24  1  0
  4 25  1  0
  9 26  1  0
 10 27  1  0
 12 28  1  0
 13 29  1  0
 14 30  1  0
 15 31  1  0
 17 32  1  0
M  CHG  2  19  -1  21  -1
M  END
>  <mol_id>  (57) 
2026-08-23-6tgu-s0-n100-r6-0057

>  <rmsd_to_ref>  (57) 
3.0255102040839064

$$$$
6tgu.A
     RDKit          3D

 32 34  0  0  0  0  0  0  0  0999 V2000
    2.8880   22.0861   36.0551 C   0  0  0  0  0  0  0  0  0  0  0  0
    2.5528   20.9945   36.9519 C   0  0  0  0  0  0  0  0  0  0  0  0
    3.2102   20.8058   38.1328 C   0  0  0  0  0  0  0  0  0  0  0  0
    2.8713   19.7545   38.9724 C   0  0  0  0  0  0  0  0  0  0  0  0
    1.8782   18.8493   38.6881 C   0  0  0  0  0  0  0  0  0  0  0  0
    2.2804   17.0253   40.3883 C   0  0  0  0  0  0  0  0  0  0  0  0
    3.0253   15.5721   41.9297 C   0  0  0  0  0  0  0  0  0  0  0  0
    2.7091   14.4394   42.8196 C   0  0  0  0  0  0  0  0  0  0  0  0
    1.4683   13.8680   42.9010 C   0  0  0  0  0  0  0  0  0  0  0  0
    1.1757   12.7959   43.7381 C   0  0  0  0  0  0  0  0  0  0  0  0
    2.1663   12.2574   44.5407 C   0  0  0  0  0  0  0  0  0  0  0  0
    3.4112   12.8398   44.4511 C   0  0  0  0  0  0  0  0  0  0  0  0
    3.7085   13.8979   43.6286 C   0  0  0  0  0  0  0  0  0  0  0  0
    4.2759   16.1138   41.8687 C   0  0  0  0  0  0  0  0  0  0  0  0
    1.2145   19.0653   37.4649 C   0  0  0  0  0  0  0  0  0  0  0  0
    1.5482   20.1066   36.6311 C   0  0  0  0  0  0  0  0  0  0  0  0
    1.4788   17.7614   39.4367 N   0  0  0  0  0  0  0  0  0  0  0  0
    2.1533   16.1537   41.1201 N   0  0  0  0  0  0  0  0  0  0  0  0
    2.2222   22.2812   34.8542 O   0  0  0  0  0  0  0  0  0  0  0  0
    3.8135   22.8961   36.3587 O   0  0  0  0  0  0  0  0  0  0  0  0
    0.8914   20.3219   35.4191 O   0  0  0  0  0  0  0  0  0  0  0  0
    4.0895   17.4618   40.6080 S   0  0  0  0  0  0  0  0  0  0  0  0
    1.8792   10.9065   45.6189 Cl  0  0  0  0  0  0  0  0  0  0  0  0
    4.0148   21.4867   38.4286 H   0  0  0  0  0  0  0  0  0  0  0  0
    3.4289   19.6868   39.8886 H   0  0  0  0  0  0  0  0  0  0  0  0
    0.6565   14.2518   42.2929 H   0  0  0  0  0  0  0  0  0  0  0  0
    0.1658   12.3627   43.7750 H   0  0  0  0  0  0  0  0  0  0  0  0
    4.2099   12.4362   45.0725 H   0  0  0  0  0  0  0  0  0  0  0  0
    4.7216   14.2858   43.6305 H   0  0  0  0  0  0  0  0  0  0  0  0
    5.2263   15.9161   42.3639 H   0  0  0  0  0  0  0  0  0  0  0  0
    0.4036   18.3840   37.1604 H   0  0  0  0  0  0  0  0  0  0  0  0
    0.5050   17.3963   39.3410 H   0  0  0  0  0  0  0  0  0  0  0  0
  1  2  1  0
  1 19  1  0
  1 20  2  0
  2  3  1  0
  2 16  2  0
  3  4  2  0
  4  5  1  0
  5 15  2  0
  5 17  1  0
  6 17  1  0
  6 18  2  0
  6 22  1  0
  7  8  1  0
  7 14  2  0
  7 18  1  0
  8  9  1  0
  8 13  2  0
  9 10  2  0
 10 11  1  0
 11 12  2  0
 11 23  1  0
 12 13  1  0
 14 22  1  0
 15 16  1  0
 16 21  1  0
  3 24  1  0
  4 25  1  0
  9 26  1  0
 10 27  1  0
 12 28  1  0
 13 29  1  0
 14 30  1  0
 15 31  1  0
 17 32  1  0
M  CHG  2  19  -1  21  -1
M  END
>  <mol_id>  (58) 
2026-08-23-6tgu-s0-n100-r6-0058

>  <rmsd_to_ref>  (58) 
3.071428571429348

$$$$
6tgu.A
     RDKit          3D

 32 34  0  0  0  0  0  0  0  0999 V2000
    5.9565   18.6467   39.3081 C   0  0  0  0  0  0  0  0  0  0  0  0
    4.7342   18.9062   40.1931 C   0  0  0  0  0  0  0  0  0  0  0  0
    4.4082   20.2021   40.5866 C   0  0  0  0  0  0  0  0  0  0  0  0
    3.2033   20.5010   41.2310 C   0  0  0  0  0  0  0  0  0  0  0  0
    2.3583   19.4667   41.6590 C   0  0  0  0  0  0  0  0  0  0  0  0
   -0.0521   19.0200   42.3326 C   0  0  0  0  0  0  0  0  0  0  0  0
   -1.4046   17.2035   42.1168 C   0  0  0  0  0  0  0  0  0  0  0  0
   -1.7095   15.8031   41.8216 C   0  0  0  0  0  0  0  0  0  0  0  0
   -3.0234   15.3135   41.8172 C   0  0  0  0  0  0  0  0  0  0  0  0
   -3.2938   13.9858   41.5007 C   0  0  0  0  0  0  0  0  0  0  0  0
   -2.2428   13.1616   41.1451 C   0  0  0  0  0  0  0  0  0  0  0  0
   -0.9293   13.6058   41.1307 C   0  0  0  0  0  0  0  0  0  0  0  0
   -0.6780   14.9345   41.4615 C   0  0  0  0  0  0  0  0  0  0  0  0
   -2.3506   18.1441   42.4278 C   0  0  0  0  0  0  0  0  0  0  0  0
    2.6661   18.1577   41.2618 C   0  0  0  0  0  0  0  0  0  0  0  0
    3.8396   17.9040   40.5492 C   0  0  0  0  0  0  0  0  0  0  0  0
    1.0952   19.7564   42.2606 N   0  0  0  0  0  0  0  0  0  0  0  0
   -0.0856   17.6922   41.9632 N   0  0  0  0  0  0  0  0  0  0  0  0
    6.5349   19.6667   38.8303 O   0  0  0  0  0  0  0  0  0  0  0  0
    6.2360   17.4527   39.0633 O   0  0  0  0  0  0  0  0  0  0  0  0
    4.0789   16.6360   40.0752 O   0  0  0  0  0  0  0  0  0  0  0  0
   -1.6502   19.7151   42.5230 S   0  0  0  0  0  0  0  0  0  0  0  0
   -2.5686   11.5168   40.7089 Cl  0  0  0  0  0  0  0  0  0  0  0  0
    5.1205   21.0156   40.3844 H   0  0  0  0  0  0  0  0  0  0  0  0
    2.9178   21.5494   41.4023 H   0  0  0  0  0  0  0  0  0  0  0  0
   -3.8538   15.9899   42.0680 H   0  0  0  0  0  0  0  0  0  0  0  0
   -4.3234   13.5999   41.5328 H   0  0  0  0  0  0  0  0  0  0  0  0
   -0.1067   12.9256   40.8648 H   0  0  0  0  0  0  0  0  0  0  0  0
    0.3563   15.3082   41.4386 H   0  0  0  0  0  0  0  0  0  0  0  0
   -3.4157   17.9254   42.5946 H   0  0  0  0  0  0  0  0  0  0  0  0
    1.9839   17.3317   41.5112 H   0  0  0  0  0  0  0  0  0  0  0  0
    1.0410   20.6778   42.7178 H   0  0  0  0  0  0  0  0  0  0  0  0
  1  2  1  0
  1 19  1  0
  1 20  2  0
  2  3  1  0
  2 16  2  0
  3  4  2  0
  4  5  1  0
  5 15  2  0
  5 17  1  0
  6 17  1  0
  6 18  2  0
  6 22  1  0
  7  8  1  0
  7 14  2  0
  7 18  1  0
  8  9  1  0
  8 13  2  0
  9 10  2  0
 10 11  1  0
 11 12  2  0
 11 23  1  0
 12 13  1  0
 14 22  1  0
 15 16  1  0
 16 21  1  0
  3 24  1  0
  4 25  1  0
  9 26  1  0
 10 27  1  0
 12 28  1  0
 13 29  1  0
 14 30  1  0
 15 31  1  0
 17 32  1  0
M  CHG  2  19  -1  21  -1
M  END
>  <mol_id>  (59) 
2026-08-23-6tgu-s0-n100-r6-0059

>  <rmsd_to_ref>  (59) 
3.1173469387763566

$$$$
6tgu.A
     RDKit          3D

 32 34  0  0  0  0  0  0  0  0999 V2000
   -0.0174   20.7473   36.4173 C   0  0  0  0  0  0  0  0  0  0  0  0
    0.5335   19.9560   37.5102 C   0  0  0  0  0  0  0  0  0  0  0  0
   -0.0780   19.8654   38.7414 C   0  0  0  0  0  0  0  0  0  0  0  0
    0.4821   19.0951   39.7639 C   0  0  0  0  0  0  0  0  0  0  0  0
    1.6542   18.3948   39.6044 C   0  0  0  0  0  0  0  0  0  0  0  0
    1.6561   16.9480   41.6622 C   0  0  0  0  0  0  0  0  0  0  0  0
    1.3630   15.7320   43.5268 C   0  0  0  0  0  0  0  0  0  0  0  0
    1.9775   14.9069   44.5998 C   0  0  0  0  0  0  0  0  0  0  0  0
    3.3098   14.6490   44.6669 C   0  0  0  0  0  0  0  0  0  0  0  0
    3.8441   13.8649   45.6909 C   0  0  0  0  0  0  0  0  0  0  0  0
    3.0190   13.3302   46.6663 C   0  0  0  0  0  0  0  0  0  0  0  0
    1.6823   13.5901   46.5976 C   0  0  0  0  0  0  0  0  0  0  0  0
    1.1688   14.3652   45.5820 C   0  0  0  0  0  0  0  0  0  0  0  0
    0.0279   15.9737   43.4816 C   0  0  0  0  0  0  0  0  0  0  0  0
    2.2480   18.5117   38.3370 C   0  0  0  0  0  0  0  0  0  0  0  0
    1.7094   19.2603   37.3350 C   0  0  0  0  0  0  0  0  0  0  0  0
    2.2841   17.5886   40.5336 N   0  0  0  0  0  0  0  0  0  0  0  0
    2.0686   16.2739   42.5617 N   0  0  0  0  0  0  0  0  0  0  0  0
   -1.1851   21.4393   36.5875 O   0  0  0  0  0  0  0  0  0  0  0  0
    0.6054   20.7739   35.3274 O   0  0  0  0  0  0  0  0  0  0  0  0
    2.3646   19.3238   36.1017 O   0  0  0  0  0  0  0  0  0  0  0  0
   -0.1267   17.0105   41.9856 S   0  0  0  0  0  0  0  0  0  0  0  0
    3.7242   12.3526   47.9345 Cl  0  0  0  0  0  0  0  0  0  0  0  0
   -1.0034   20.4011   38.9120 H   0  0  0  0  0  0  0  0  0  0  0  0
   -0.0454   19.0866   40.6854 H   0  0  0  0  0  0  0  0  0  0  0  0
    3.9520   15.0685   43.9053 H   0  0  0  0  0  0  0  0  0  0  0  0
    4.9218   13.6984   45.6818 H   0  0  0  0  0  0  0  0  0  0  0  0
    1.0331   13.1755   47.3554 H   0  0  0  0  0  0  0  0  0  0  0  0
    0.1066   14.5380   45.5765 H   0  0  0  0  0  0  0  0  0  0  0  0
   -0.8048   15.6898   44.0975 H   0  0  0  0  0  0  0  0  0  0  0  0
    3.1716   17.9882   38.1395 H   0  0  0  0  0  0  0  0  0  0  0  0
    3.3071   17.4024   40.4467 H   0  0  0  0  0  0  0  0  0  0  0  0
  1  2  1  0
  1 19  1  0
  1 20  2  0
  2  3  1  0
  2 16  2  0
  3  4  2  0
  4  5  1  0
  5 15  2  0
  5 17  1  0
  6 17  1  0
  6 18  2  0
  6 22  1  0
  7  8  1  0
  7 14  2  0
  7 18  1  0
  8  9  1  0
  8 13  2  0
  9 10  2  0
 10 11  1  0
 11 12  2  0
 11 23  1  0
 12 13  1  0
 14 22  1  0
 15 16  1  0
 16 21  1  0
  3 24  1  0
  4 25  1  0
  9 26  1  0
 10 27  1  0
 12 28  1  0
 13 29  1  0
 14 30  1  0
 15 31  1  0
 17 32  1  0
M  CHG  2  19  -1  21  -1
M  END
>  <mol_id>  (60) 
2026-08-23-6tgu-s0-n100-r6-0060

>  <rmsd_to_ref>  (60) 
3.1632653061262874

$$$$
6tgu.A
     RDKit          3D

 32 34  0  0  0  0  0  0  0  0999 V2000
   -0.9432   20.1258   37.1912 C   0  0  0  0  0  0  0  0  0  0  0  0
   -0.7249   19.4732   38.5591 C   0  0  0  0  0  0  0  0  0  0  0  0
   -1.6716   19.6178   39.5709 C   0  0  0  0  0  0  0  0  0  0  0  0
   -1.6025   18.8871   40.7615 C   0  0  0  0  0  0  0  0  0  0  0  0
   -0.4707   18.1091   41.0456 C   0  0  0  0  0  0  0  0  0  0  0  0
    0.2947   16.1731   42.5048 C   0  0  0  0  0  0  0  0  0  0  0  0
    1.8206   14.5145   42.1944 C   0  0  0  0  0  0  0  0  0  0  0  0
    2.9196   13.8328   41.5098 C   0  0  0  0  0  0  0  0  0  0  0  0
    3.3772   12.5702   41.9127 C   0  0  0  0  0  0  0  0  0  0  0  0
    4.4013   11.9251   41.2265 C   0  0  0  0  0  0  0  0  0  0  0  0
    4.9350   12.5336   40.1061 C   0  0  0  0  0  0  0  0  0  0  0  0
    4.5085   13.7788   39.6694 C   0  0  0  0  0  0  0  0  0  0  0  0
    3.4906   14.4133   40.3761 C   0  0  0  0  0  0  0  0  0  0  0  0
    1.1611   14.0036   43.2810 C   0  0  0  0  0  0  0  0  0  0  0  0
    0.4860   17.9442   40.0339 C   0  0  0  0  0  0  0  0  0  0  0  0
    0.3456   18.6276   38.8246 C   0  0  0  0  0  0  0  0  0  0  0  0
   -0.4126   17.3071   42.2265 N   0  0  0  0  0  0  0  0  0  0  0  0
    1.2887   15.7147   41.6666 N   0  0  0  0  0  0  0  0  0  0  0  0
   -2.0801   20.6445   36.9877 O   0  0  0  0  0  0  0  0  0  0  0  0
   -0.0146   20.0239   36.3599 O   0  0  0  0  0  0  0  0  0  0  0  0
    1.2313   18.3784   37.8033 O   0  0  0  0  0  0  0  0  0  0  0  0
   -0.1916   14.9852   43.6988 S   0  0  0  0  0  0  0  0  0  0  0  0
    6.1826   11.7239   39.2177 Cl  0  0  0  0  0  0  0  0  0  0  0  0
   -2.4990   20.3286   39.4290 H   0  0  0  0  0  0  0  0  0  0  0  0
   -2.4376   18.9227   41.4766 H   0  0  0  0  0  0  0  0  0  0  0  0
    2.9191   12.0818   42.7854 H   0  0  0  0  0  0  0  0  0  0  0  0
    4.7787   10.9502   41.5688 H   0  0  0  0  0  0  0  0  0  0  0  0
    4.9629   14.2530   38.7870 H   0  0  0  0  0  0  0  0  0  0  0  0
    3.1282   15.3937   40.0334 H   0  0  0  0  0  0  0  0  0  0  0  0
    1.4560   13.0886   43.8155 H   0  0  0  0  0  0  0  0  0  0  0  0
    1.3462   17.2773   40.1928 H   0  0  0  0  0  0  0  0  0  0  0  0
   -1.0054   17.6415   42.9997 H   0  0  0  0  0  0  0  0  0  0  0  0
  1  2  1  0
  1 19  1  0
  1 20  2  0
  2  3  1  0
  2 16  2  0
  3  4  2  0
  4  5  1  0
  5 15  2  0
  5 17  1  0
  6 17  1  0
  6 18  2  0
  6 22  1  0
  7  8  1  0
  7 14  2  0
  7 18  1  0
  8  9  1  0
  8 13  2  0
  9 10  2  0
 10 11  1  0
 11 12  2  0
 11 23  1  0
 12 13  1  0
 14 22  1  0
 15 16  1  0
 16 21  1  0
  3 24  1  0
  4 25  1  0
  9 26  1  0
 10 27  1  0
 12 28  1  0
 13 29  1  0
 14 30  1  0
 15 31  1  0
 17 32  1  0
M  CHG  2  19  -1  21  -1
M  END
>  <mol_id>  (61) 
2026-08-23-6tgu-s0-n100-r6-0061

>  <rmsd_to_ref>  (61) 
3.209183673471081

$$$$
6tgu.A
     RDKit          3D

 32 34  0  0  0  0  0  0  0  0999 V2000
    6.3356   18.7187   40.0264 C   0  0  0  0  0  0  0  0  0  0  0  0
    5.1060   18.6734   40.8080 C   0  0  0  0  0  0  0  0  0  0  0  0
    4.2086   17.6460   40.6254 C   0  0  0  0  0  0  0  0  0  0  0  0
    3.0491   17.6225   41.3770 C   0  0  0  0  0  0  0  0  0  0  0  0
    2.7325   18.5827   42.3144 C   0  0  0  0  0  0  0  0  0  0  0  0
    0.5811   17.5986   42.9969 C   0  0  0  0  0  0  0  0  0  0  0  0
   -0.6631   15.7604   42.4305 C   0  0  0  0  0  0  0  0  0  0  0  0
   -0.8635   14.5304   41.6319 C   0  0  0  0  0  0  0  0  0  0  0  0
   -1.9793   13.7593   41.7886 C   0  0  0  0  0  0  0  0  0  0  0  0
   -2.1336   12.6343   41.0389 C   0  0  0  0  0  0  0  0  0  0  0  0
   -1.2098   12.2046   40.1002 C   0  0  0  0  0  0  0  0  0  0  0  0
   -0.0803   12.9859   39.9421 C   0  0  0  0  0  0  0  0  0  0  0  0
    0.0721   14.1271   40.7053 C   0  0  0  0  0  0  0  0  0  0  0  0
   -1.6420   16.1604   43.3833 C   0  0  0  0  0  0  0  0  0  0  0  0
    3.6745   19.6076   42.4656 C   0  0  0  0  0  0  0  0  0  0  0  0
    4.8362   19.6574   41.7324 C   0  0  0  0  0  0  0  0  0  0  0  0
    1.5678   18.5919   43.0944 N   0  0  0  0  0  0  0  0  0  0  0  0
    0.3587   16.5334   42.3378 N   0  0  0  0  0  0  0  0  0  0  0  0
    6.6013   17.7216   39.0947 O   0  0  0  0  0  0  0  0  0  0  0  0
    7.1327   19.6713   40.2191 O   0  0  0  0  0  0  0  0  0  0  0  0
    5.7168   20.7302   41.9605 O   0  0  0  0  0  0  0  0  0  0  0  0
   -0.9182   17.6993   44.0684 S   0  0  0  0  0  0  0  0  0  0  0  0
   -1.4343   10.7638   39.1578 Cl  0  0  0  0  0  0  0  0  0  0  0  0
    4.4007   16.8626   39.9044 H   0  0  0  0  0  0  0  0  0  0  0  0
    2.3807   16.8056   41.2018 H   0  0  0  0  0  0  0  0  0  0  0  0
   -2.7461   14.0420   42.5118 H   0  0  0  0  0  0  0  0  0  0  0  0
   -3.0245   12.0421   41.1817 H   0  0  0  0  0  0  0  0  0  0  0  0
    0.6868   12.6907   39.2093 H   0  0  0  0  0  0  0  0  0  0  0  0
    0.9849   14.7204   40.5489 H   0  0  0  0  0  0  0  0  0  0  0  0
   -2.5712   15.7228   43.6686 H   0  0  0  0  0  0  0  0  0  0  0  0
    3.4853   20.3914   43.1848 H   0  0  0  0  0  0  0  0  0  0  0  0
    1.4467   19.3817   43.7729 H   0  0  0  0  0  0  0  0  0  0  0  0
  1  2  1  0
  1 19  1  0
  1 20  2  0
  2  3  1  0
  2 16  2  0
  3  4  2  0
  4  5  1  0
  5 15  2  0
  5 17  1  0
  6 17  1  0
  6 18  2  0
  6 22  1  0
  7  8  1  0
  7 14  2  0
  7 18  1  0
  8  9  1  0
  8 13  2  0
  9 10  2  0
 10 11  1  0
 11 12  2  0
 11 23  1  0
 12 13  1  0
 14 22  1  0
 15 16  1  0
 16 21  1  0
  3 24  1  0
  4 25  1  0
  9 26  1  0
 10 27  1  0
 12 28  1  0
 13 29  1  0
 14 30  1  0
 15 31  1  0
 17 32  1  0
M  CHG  2  19  -1  21  -1
M  END
>  <mol_id>  (62) 
2026-08-23-6tgu-s0-n100-r6-0062

>  <rmsd_to_ref>  (62) 
3.255102040817664

$$$$
6tgu.A
     RDKit          3D

 32 34  0  0  0  0  0  0  0  0999 V2000
    6.5054   16.8473   37.8809 C   0  0  0  0  0  0  0  0  0  0  0  0
    5.1710   17.4045   38.3843 C   0  0  0  0  0  0  0  0  0  0  0  0
    4.6587   18.5911   37.8645 C   0  0  0  0  0  0  0  0  0  0  0  0
    3.3637   19.0313   38.1570 C   0  0  0  0  0  0  0  0  0  0  0  0
    2.5991   18.3723   39.1305 C   0  0  0  0  0  0  0  0  0  0  0  0
    0.1950   18.0693   39.8999 C   0  0  0  0  0  0  0  0  0  0  0  0
   -0.9108   16.3297   40.8625 C   0  0  0  0  0  0  0  0  0  0  0  0
   -1.0206   15.0248   41.5155 C   0  0  0  0  0  0  0  0  0  0  0  0
   -2.2619   14.4395   41.8029 C   0  0  0  0  0  0  0  0  0  0  0  0
   -2.3435   13.1825   42.3939 C   0  0  0  0  0  0  0  0  0  0  0  0
   -1.1730   12.4954   42.6552 C   0  0  0  0  0  0  0  0  0  0  0  0
    0.0752   13.0341   42.3819 C   0  0  0  0  0  0  0  0  0  0  0  0
    0.1362   14.2978   41.8011 C   0  0  0  0  0  0  0  0  0  0  0  0
   -1.9859   17.0947   40.4947 C   0  0  0  0  0  0  0  0  0  0  0  0
    3.0953   17.1705   39.6555 C   0  0  0  0  0  0  0  0  0  0  0  0
    4.3616   16.7174   39.2812 C   0  0  0  0  0  0  0  0  0  0  0  0
    1.2524   18.7696   39.3948 N   0  0  0  0  0  0  0  0  0  0  0  0
    0.3532   16.8165   40.4534 N   0  0  0  0  0  0  0  0  0  0  0  0
    7.0139   17.4223   36.8740 O   0  0  0  0  0  0  0  0  0  0  0  0
    6.9436   15.8241   38.4508 O   0  0  0  0  0  0  0  0  0  0  0  0
    4.7941   15.4884   39.7198 O   0  0  0  0  0  0  0  0  0  0  0  0
   -1.4827   18.4682   39.5846 S   0  0  0  0  0  0  0  0  0  0  0  0
   -1.2601   10.9121   43.3532 Cl  0  0  0  0  0  0  0  0  0  0  0  0
    5.2924   19.2008   37.2035 H   0  0  0  0  0  0  0  0  0  0  0  0
    2.9441   19.8962   37.6222 H   0  0  0  0  0  0  0  0  0  0  0  0
   -3.1862   14.9830   41.5572 H   0  0  0  0  0  0  0  0  0  0  0  0
   -3.3199   12.7444   42.6480 H   0  0  0  0  0  0  0  0  0  0  0  0
    0.9939   12.4771   42.6182 H   0  0  0  0  0  0  0  0  0  0  0  0
    1.1177   14.7330   41.5619 H   0  0  0  0  0  0  0  0  0  0  0  0
   -3.0312   16.8630   40.7468 H   0  0  0  0  0  0  0  0  0  0  0  0
    2.4875   16.5854   40.3614 H   0  0  0  0  0  0  0  0  0  0  0  0
    1.0439   19.7518   39.1652 H   0  0  0  0  0  0  0  0  0  0  0  0
  1  2  1  0
  1 19  1  0
  1 20  2  0
  2  3  1  0
  2 16  2  0
  3  4  2  0
  4  5  1  0
  5 15  2  0
  5 17  1  0
  6 17  1  0
  6 18  2  0
  6 22  1  0
  7  8  1  0
  7 14  2  0
  7 18  1  0
  8  9  1  0
  8 13  2  0
  9 10  2  0
 10 11  1  0
 11 12  2  0
 11 23  1  0
 12 13  1  0
 14 22  1  0
 15 16  1  0
 16 21  1  0
  3 24  1  0
  4 25  1  0
  9 26  1  0
 10 27  1  0
 12 28  1  0
 13 29  1  0
 14 30  1  0
 15 31  1  0
 17 32  1  0
M  CHG  2  19  -1  21  -1
M  END
>  <mol_id>  (63) 
2026-08-23-6tgu-s0-n100-r6-0063

>  <rmsd_to_ref>  (63) 
3.301020408168031

$$$$
6tgu.A
     RDKit          3D

 32 34  0  0  0  0  0  0  0  0999 V2000
   -0.8578   22.8759   40.4945 C   0  0  0  0  0  0  0  0  0  0  0  0
   -0.1869   21.5967   40.4344 C   0  0  0  0  0  0  0  0  0  0  0  0
    0.0726   20.8577   41.5663 C   0  0  0  0  0  0  0  0  0  0  0  0
    0.7174   19.6316   41.4856 C   0  0  0  0  0  0  0  0  0  0  0  0
    1.1311   19.0851   40.2939 C   0  0  0  0  0  0  0  0  0  0  0  0
    1.4515   16.6701   40.9609 C   0  0  0  0  0  0  0  0  0  0  0  0
    1.3322   14.6693   41.9768 C   0  0  0  0  0  0  0  0  0  0  0  0
    1.8791   13.3167   42.1298 C   0  0  0  0  0  0  0  0  0  0  0  0
    1.3041   12.4378   43.0217 C   0  0  0  0  0  0  0  0  0  0  0  0
    1.7696   11.1614   43.2136 C   0  0  0  0  0  0  0  0  0  0  0  0
    2.8562   10.7644   42.4741 C   0  0  0  0  0  0  0  0  0  0  0  0
    3.4468   11.6247   41.5772 C   0  0  0  0  0  0  0  0  0  0  0  0
    2.9710   12.8866   41.4005 C   0  0  0  0  0  0  0  0  0  0  0  0
    0.2670   15.1235   42.6873 C   0  0  0  0  0  0  0  0  0  0  0  0
    0.8568   19.8556   39.1529 C   0  0  0  0  0  0  0  0  0  0  0  0
    0.2208   21.0648   39.2332 C   0  0  0  0  0  0  0  0  0  0  0  0
    1.7579   17.8676   40.1053 N   0  0  0  0  0  0  0  0  0  0  0  0
    1.7823   15.5992   41.1644 N   0  0  0  0  0  0  0  0  0  0  0  0
   -1.0988   23.5816   39.3219 O   0  0  0  0  0  0  0  0  0  0  0  0
   -1.2082   23.3163   41.6332 O   0  0  0  0  0  0  0  0  0  0  0  0
   -0.0278   21.7941   38.0544 O   0  0  0  0  0  0  0  0  0  0  0  0
   -0.0202   16.8616   42.1414 S   0  0  0  0  0  0  0  0  0  0  0  0
    3.4552    9.1443   42.7114 Cl  0  0  0  0  0  0  0  0  0  0  0  0
   -0.2240   21.2268   42.5375 H   0  0  0  0  0  0  0  0  0  0  0  0
    0.8989   19.1241   42.4065 H   0  0  0  0  0  0  0  0  0  0  0  0
    0.4337   12.7640   43.6101 H   0  0  0  0  0  0  0  0  0  0  0  0
    1.2791   10.5213   43.9227 H   0  0  0  0  0  0  0  0  0  0  0  0
    4.3005   11.3045   41.0001 H   0  0  0  0  0  0  0  0  0  0  0  0
    3.3880   13.6193   40.7087 H   0  0  0  0  0  0  0  0  0  0  0  0
   -0.4076   14.6354   43.4905 H   0  0  0  0  0  0  0  0  0  0  0  0
    1.1425   19.5136   38.1627 H   0  0  0  0  0  0  0  0  0  0  0  0
    2.4637   17.6512   39.4030 H   0  0  0  0  0  0  0  0  0  0  0  0
  1  2  1  0
  1 19  1  0
  1 20  2  0
  2  3  1  0
  2 16  2  0
  3  4  2  0
  4  5  1  0
  5 15  2  0
  5 17  1  0
  6 17  1  0
  6 18  2  0
  6 22  1  0
  7  8  1  0
  7 14  2  0
  7 18  1  0
  8  9  1  0
  8 13  2  0
  9 10  2  0
 10 11  1  0
 11 12  2  0
 11 23  1  0
 12 13  1  0
 14 22  1  0
 15 16  1  0
 16 21  1  0
  3 24  1  0
  4 25  1  0
  9 26  1  0
 10 27  1  0
 12 28  1  0
 13 29  1  0
 14 30  1  0
 15 31  1  0
 17 32  1  0
M  CHG  2  19  -1  21  -1
M  END
>  <mol_id>  (64) 
2026-08-23-6tgu-s0-n100-r6-0064

>  <rmsd_to_ref>  (64) 
3.3469387755154316

$$$$
6tgu.A
     RDKit          3D

 32 34  0  0  0  0  0  0  0  0999 V2000
    4.0701   15.6585   36.8938 C   0  0  0  0  0  0  0  0  0  0  0  0
    3.3047   16.5611   37.8655 C   0  0  0  0  0  0  0  0  0  0  0  0
    2.7423   17.7574   37.4258 C   0  0  0  0  0  0  0  0  0  0  0  0
    1.8805   18.5114   38.2289 C   0  0  0  0  0  0  0  0  0  0  0  0
    1.6945   18.1699   39.5764 C   0  0  0  0  0  0  0  0  0  0  0  0
    0.0804   18.5161   41.5097 C   0  0  0  0  0  0  0  0  0  0  0  0
   -0.5274   17.2061   43.2677 C   0  0  0  0  0  0  0  0  0  0  0  0
   -0.4234   16.0525   44.1619 C   0  0  0  0  0  0  0  0  0  0  0  0
   -1.3693   15.8032   45.1665 C   0  0  0  0  0  0  0  0  0  0  0  0
   -1.2697   14.6817   45.9840 C   0  0  0  0  0  0  0  0  0  0  0  0
   -0.2403   13.7870   45.7600 C   0  0  0  0  0  0  0  0  0  0  0  0
    0.7133   13.9916   44.7742 C   0  0  0  0  0  0  0  0  0  0  0  0
    0.6029   15.1255   43.9740 C   0  0  0  0  0  0  0  0  0  0  0  0
   -1.5260   18.1412   43.3370 C   0  0  0  0  0  0  0  0  0  0  0  0
    2.2445   16.9632   40.0319 C   0  0  0  0  0  0  0  0  0  0  0  0
    3.0365   16.1928   39.1785 C   0  0  0  0  0  0  0  0  0  0  0  0
    0.7692   18.8906   40.3922 N   0  0  0  0  0  0  0  0  0  0  0  0
    0.3591   17.3399   42.1729 N   0  0  0  0  0  0  0  0  0  0  0  0
    4.0150   15.9725   35.6685 O   0  0  0  0  0  0  0  0  0  0  0  0
    4.6184   14.6431   37.3756 O   0  0  0  0  0  0  0  0  0  0  0  0
    3.4832   14.9634   39.6011 O   0  0  0  0  0  0  0  0  0  0  0  0
   -1.4349   19.2399   42.0132 S   0  0  0  0  0  0  0  0  0  0  0  0
   -0.1272   12.3651   46.7433 Cl  0  0  0  0  0  0  0  0  0  0  0  0
    2.9835   18.1202   36.4158 H   0  0  0  0  0  0  0  0  0  0  0  0
    1.3474   19.3741   37.8028 H   0  0  0  0  0  0  0  0  0  0  0  0
   -2.2035   16.5056   45.3106 H   0  0  0  0  0  0  0  0  0  0  0  0
   -1.9957   14.5106   46.7925 H   0  0  0  0  0  0  0  0  0  0  0  0
    1.5360   13.2762   44.6282 H   0  0  0  0  0  0  0  0  0  0  0  0
    1.3410   15.2945   43.1761 H   0  0  0  0  0  0  0  0  0  0  0  0
   -2.2850   18.1847   44.1320 H   0  0  0  0  0  0  0  0  0  0  0  0
    2.0522   16.6239   41.0605 H   0  0  0  0  0  0  0  0  0  0  0  0
    0.5917   19.8575   40.0848 H   0  0  0  0  0  0  0  0  0  0  0  0
  1  2  1  0
  1 19  1  0
  1 20  2  0
  2  3  1  0
  2 16  2  0
  3  4  2  0
  4  5  1  0
  5 15  2  0
  5 17  1  0
  6 17  1  0
  6 18  2  0
  6 22  1  0
  7  8  1  0
  7 14  2  0
  7 18  1  0
  8  9  1  0
  8 13  2  0
  9 10  2  0
 10 11  1  0
 11 12  2  0
 11 23  1  0
 12 13  1  0
 14 22  1  0
 15 16  1  0
 16 21  1  0
  3 24  1  0
  4 25  1  0
  9 26  1  0
 10 27  1  0
 12 28  1  0
 13 29  1  0
 14 30  1  0
 15 31  1  0
 17 32  1  0
M  CHG  2  19  -1  21  -1
M  END
>  <mol_id>  (65) 
2026-08-23-6tgu-s0-n100-r6-0065

>  <rmsd_to_ref>  (65) 
3.3928571428656014

$$$$
6tgu.A
     RDKit          3D

 32 34  0  0  0  0  0  0  0  0999 V2000
   -1.5496   19.8392   37.9134 C   0  0  0  0  0  0  0  0  0  0  0  0
   -0.5683   19.6883   38.9801 C   0  0  0  0  0  0  0  0  0  0  0  0
   -0.5711   18.5539   39.7611 C   0  0  0  0  0  0  0  0  0  0  0  0
    0.3751   18.4449   40.7644 C   0  0  0  0  0  0  0  0  0  0  0  0
    1.3198   19.4152   41.0203 C   0  0  0  0  0  0  0  0  0  0  0  0
    2.3465   18.1962   42.8692 C   0  0  0  0  0  0  0  0  0  0  0  0
    2.0712   16.2123   43.9695 C   0  0  0  0  0  0  0  0  0  0  0  0
    1.3438   14.9374   44.1368 C   0  0  0  0  0  0  0  0  0  0  0  0
    1.6903   14.0309   45.1027 C   0  0  0  0  0  0  0  0  0  0  0  0
    0.9682   12.8562   45.2059 C   0  0  0  0  0  0  0  0  0  0  0  0
   -0.0894   12.5432   44.3850 C   0  0  0  0  0  0  0  0  0  0  0  0
   -0.4369   13.4586   43.4120 C   0  0  0  0  0  0  0  0  0  0  0  0
    0.2851   14.6240   43.3150 C   0  0  0  0  0  0  0  0  0  0  0  0
    3.1828   16.4937   44.8652 C   0  0  0  0  0  0  0  0  0  0  0  0
    1.2612   20.5405   40.1853 C   0  0  0  0  0  0  0  0  0  0  0  0
    0.3502   20.6865   39.1911 C   0  0  0  0  0  0  0  0  0  0  0  0
    2.2955   19.3208   42.0423 N   0  0  0  0  0  0  0  0  0  0  0  0
    1.8344   17.1100   43.1173 N   0  0  0  0  0  0  0  0  0  0  0  0
   -2.4993   18.8503   37.6654 O   0  0  0  0  0  0  0  0  0  0  0  0
   -1.5178   20.8992   37.2122 O   0  0  0  0  0  0  0  0  0  0  0  0
    0.3429   21.8158   38.4036 O   0  0  0  0  0  0  0  0  0  0  0  0
    3.6972   18.1893   44.1984 S   0  0  0  0  0  0  0  0  0  0  0  0
   -0.9308   11.0298   44.6053 Cl  0  0  0  0  0  0  0  0  0  0  0  0
   -1.3119   17.7941   39.5596 H   0  0  0  0  0  0  0  0  0  0  0  0
    0.3428   17.5456   41.3540 H   0  0  0  0  0  0  0  0  0  0  0  0
    2.5139   14.2189   45.7805 H   0  0  0  0  0  0  0  0  0  0  0  0
    1.2808   12.1695   45.9869 H   0  0  0  0  0  0  0  0  0  0  0  0
   -1.2563   13.2238   42.7707 H   0  0  0  0  0  0  0  0  0  0  0  0
    0.0028   15.3484   42.5379 H   0  0  0  0  0  0  0  0  0  0  0  0
    3.5982   16.0237   45.5972 H   0  0  0  0  0  0  0  0  0  0  0  0
    1.9913   21.3316   40.3547 H   0  0  0  0  0  0  0  0  0  0  0  0
    2.9562   20.1243   42.1353 H   0  0  0  0  0  0  0  0  0  0  0  0
  1  2  1  0
  1 19  1  0
  1 20  2  0
  2  3  1  0
  2 16  2  0
  3  4  2  0
  4  5  1  0
  5 15  2  0
  5 17  1  0
  6 17  1  0
  6 18  2  0
  6 22  1  0
  7  8  1  0
  7 14  2  0
  7 18  1  0
  8  9  1  0
  8 13  2  0
  9 10  2  0
 10 11  1  0
 11 12  2  0
 11 23  1  0
 12 13  1  0
 14 22  1  0
 15 16  1  0
 16 21  1  0
  3 24  1  0
  4 25  1  0
  9 26  1  0
 10 27  1  0
 12 28  1  0
 13 29  1  0
 14 30  1  0
 15 31  1  0
 17 32  1  0
M  CHG  2  19  -1  21  -1
M  END
>  <mol_id>  (66) 
2026-08-23-6tgu-s0-n100-r6-0066

>  <rmsd_to_ref>  (66) 
3.438775510207397

$$$$
6tgu.A
     RDKit          3D

 32 34  0  0  0  0  0  0  0  0999 V2000
    4.2705   18.8872   37.3372 C   0  0  0  0  0  0  0  0  0  0  0  0
    4.0332   18.7417   38.8429 C   0  0  0  0  0  0  0  0  0  0  0  0
    4.7440   19.5246   39.7498 C   0  0  0  0  0  0  0  0  0  0  0  0
    4.4242   19.5583   41.1111 C   0  0  0  0  0  0  0  0  0  0  0  0
    3.4810   18.6625   41.6352 C   0  0  0  0  0  0  0  0  0  0  0  0
    1.9495   18.3356   43.6380 C   0  0  0  0  0  0  0  0  0  0  0  0
   -0.0878   17.3526   43.8800 C   0  0  0  0  0  0  0  0  0  0  0  0
   -1.2301   16.5430   43.4545 C   0  0  0  0  0  0  0  0  0  0  0  0
   -2.3846   16.4157   44.2399 C   0  0  0  0  0  0  0  0  0  0  0  0
   -3.4728   15.6681   43.8009 C   0  0  0  0  0  0  0  0  0  0  0  0
   -3.4147   15.0842   42.5494 C   0  0  0  0  0  0  0  0  0  0  0  0
   -2.2953   15.1894   41.7377 C   0  0  0  0  0  0  0  0  0  0  0  0
   -1.2123   15.9323   42.1996 C   0  0  0  0  0  0  0  0  0  0  0  0
   -0.0315   18.0331   45.0675 C   0  0  0  0  0  0  0  0  0  0  0  0
    2.7489   17.8754   40.7348 C   0  0  0  0  0  0  0  0  0  0  0  0
    3.0404   17.9247   39.3704 C   0  0  0  0  0  0  0  0  0  0  0  0
    3.0967   18.7270   43.0097 N   0  0  0  0  0  0  0  0  0  0  0  0
    0.9931   17.5786   42.9954 N   0  0  0  0  0  0  0  0  0  0  0  0
    5.0042   19.8521   36.9716 O   0  0  0  0  0  0  0  0  0  0  0  0
    3.6587   18.0949   36.5878 O   0  0  0  0  0  0  0  0  0  0  0  0
    2.2489   17.2295   38.4871 O   0  0  0  0  0  0  0  0  0  0  0  0
    1.3741   19.0263   45.1430 S   0  0  0  0  0  0  0  0  0  0  0  0
   -4.7781   14.1843   41.9723 Cl  0  0  0  0  0  0  0  0  0  0  0  0
    5.5827   20.1352   39.3841 H   0  0  0  0  0  0  0  0  0  0  0  0
    4.9136   20.2889   41.7720 H   0  0  0  0  0  0  0  0  0  0  0  0
   -2.4308   16.9151   45.2190 H   0  0  0  0  0  0  0  0  0  0  0  0
   -4.3616   15.5441   44.4370 H   0  0  0  0  0  0  0  0  0  0  0  0
   -2.2638   14.6983   40.7539 H   0  0  0  0  0  0  0  0  0  0  0  0
   -0.3228   16.0403   41.5614 H   0  0  0  0  0  0  0  0  0  0  0  0
   -0.7837   17.9557   45.8665 H   0  0  0  0  0  0  0  0  0  0  0  0
    1.9459   17.2200   41.1031 H   0  0  0  0  0  0  0  0  0  0  0  0
    3.8059   19.1389   43.6328 H   0  0  0  0  0  0  0  0  0  0  0  0
  1  2  1  0
  1 19  1  0
  1 20  2  0
  2  3  1  0
  2 16  2  0
  3  4  2  0
  4  5  1  0
  5 15  2  0
  5 17  1  0
  6 17  1  0
  6 18  2  0
  6 22  1  0
  7  8  1  0
  7 14  2  0
  7 18  1  0
  8  9  1  0
  8 13  2  0
  9 10  2  0
 10 11  1  0
 11 12  2  0
 11 23  1  0
 12 13  1  0
 14 22  1  0
 15 16  1  0
 16 21  1  0
  3 24  1  0
  4 25  1  0
  9 26  1  0
 10 27  1  0
 12 28  1  0
 13 29  1  0
 14 30  1  0
 15 31  1  0
 17 32  1  0
M  CHG  2  19  -1  21  -1
M  END
>  <mol_id>  (67) 
2026-08-23-6tgu-s0-n100-r6-0067

>  <rmsd_to_ref>  (67) 
3.484693877553789

$$$$
6tgu.A
     RDKit          3D

 32 34  0  0  0  0  0  0  0  0999 V2000
    5.7410   17.9221   39.7386 C   0  0  0  0  0  0  0  0  0  0  0  0
    4.5448   18.0521   40.5732 C   0  0  0  0  0  0  0  0  0  0  0  0
    3.5339   17.1388   40.3633 C   0  0  0  0  0  0  0  0  0  0  0  0
    2.3905   17.2288   41.1304 C   0  0  0  0  0  0  0  0  0  0  0  0
    2.2177   18.2035   42.1061 C   0  0  0  0  0  0  0  0  0  0  0  0
   -0.0240   17.3915   42.7257 C   0  0  0  0  0  0  0  0  0  0  0  0
   -1.4932   15.7878   42.1730 C   0  0  0  0  0  0  0  0  0  0  0  0
   -1.7937   14.6230   41.3111 C   0  0  0  0  0  0  0  0  0  0  0  0
   -2.9890   13.9419   41.4196 C   0  0  0  0  0  0  0  0  0  0  0  0
   -3.2514   12.8568   40.6061 C   0  0  0  0  0  0  0  0  0  0  0  0
   -2.3423   12.4170   39.6664 C   0  0  0  0  0  0  0  0  0  0  0  0
   -1.1412   13.0886   39.5459 C   0  0  0  0  0  0  0  0  0  0  0  0
   -0.9059   14.1597   40.3632 C   0  0  0  0  0  0  0  0  0  0  0  0
   -2.3991   16.2283   43.1113 C   0  0  0  0  0  0  0  0  0  0  0  0
    3.2669   19.0861   42.2656 C   0  0  0  0  0  0  0  0  0  0  0  0
    4.4247   19.0387   41.5280 C   0  0  0  0  0  0  0  0  0  0  0  0
    1.0485   18.3034   42.8976 N   0  0  0  0  0  0  0  0  0  0  0  0
   -0.3901   16.4858   42.1351 N   0  0  0  0  0  0  0  0  0  0  0  0
    6.7785   18.8514   39.9470 O   0  0  0  0  0  0  0  0  0  0  0  0
    5.8694   17.0281   38.8618 O   0  0  0  0  0  0  0  0  0  0  0  0
    5.4675   19.9618   41.7276 O   0  0  0  0  0  0  0  0  0  0  0  0
   -1.5089   17.6787   43.8745 S   0  0  0  0  0  0  0  0  0  0  0  0
   -2.6574   11.0397   38.6231 Cl  0  0  0  0  0  0  0  0  0  0  0  0
    3.6349   16.3653   39.6107 H   0  0  0  0  0  0  0  0  0  0  0  0
    1.6239   16.4968   40.9359 H   0  0  0  0  0  0  0  0  0  0  0  0
   -3.7163   14.2750   42.1544 H   0  0  0  0  0  0  0  0  0  0  0  0
   -4.1873   12.3226   40.6901 H   0  0  0  0  0  0  0  0  0  0  0  0
   -0.3834   12.7836   38.8179 H   0  0  0  0  0  0  0  0  0  0  0  0
    0.0285   14.6837   40.2709 H   0  0  0  0  0  0  0  0  0  0  0  0
   -3.3503   15.9310   43.4165 H   0  0  0  0  0  0  0  0  0  0  0  0
    3.1766   19.8617   43.0137 H   0  0  0  0  0  0  0  0  0  0  0  0
    1.0365   19.0867   43.6057 H   0  0  0  0  0  0  0  0  0  0  0  0
  1  2  1  0
  1 19  1  0
  1 20  2  0
  2  3  1  0
  2 16  2  0
  3  4  2  0
  4  5  1  0
  5 15  2  0
  5 17  1  0
  6 17  1  0
  6 18  2  0
  6 22  1  0
  7  8  1  0
  7 14  2  0
  7 18  1  0
  8  9  1  0
  8 13  2  0
  9 10  2  0
 10 11  1  0
 11 12  2  0
 11 23  1  0
 12 13  1  0
 14 22  1  0
 15 16  1  0
 16 21  1  0
  3 24  1  0
  4 25  1  0
  9 26  1  0
 10 27  1  0
 12 28  1  0
 13 29  1  0
 14 30  1  0
 15 31  1  0
 17 32  1  0
M  CHG  2  19  -1  21  -1
M  END
>  <mol_id>  (68) 
2026-08-23-6tgu-s0-n100-r6-0068

>  <rmsd_to_ref>  (68) 
3.530612244904749

$$$$
6tgu.A
     RDKit          3D

 32 34  0  0  0  0  0  0  0  0999 V2000
    4.9433   17.7511   36.7598 C   0  0  0  0  0  0  0  0  0  0  0  0
    3.7392   17.8409   37.7015 C   0  0  0  0  0  0  0  0  0  0  0  0
    2.4440   17.8887   37.1908 C   0  0  0  0  0  0  0  0  0  0  0  0
    1.3177   17.7799   38.0130 C   0  0  0  0  0  0  0  0  0  0  0  0
    1.4604   17.7947   39.4081 C   0  0  0  0  0  0  0  0  0  0  0  0
    0.2323   17.1483   41.5382 C   0  0  0  0  0  0  0  0  0  0  0  0
    0.9461   16.4220   43.5726 C   0  0  0  0  0  0  0  0  0  0  0  0
    1.9423   16.1377   44.6060 C   0  0  0  0  0  0  0  0  0  0  0  0
    1.6065   15.4922   45.8046 C   0  0  0  0  0  0  0  0  0  0  0  0
    2.5758   15.2013   46.7595 C   0  0  0  0  0  0  0  0  0  0  0  0
    3.8924   15.5218   46.4869 C   0  0  0  0  0  0  0  0  0  0  0  0
    4.2693   16.1553   45.3123 C   0  0  0  0  0  0  0  0  0  0  0  0
    3.2832   16.4481   44.3743 C   0  0  0  0  0  0  0  0  0  0  0  0
   -0.3827   16.1081   43.6828 C   0  0  0  0  0  0  0  0  0  0  0  0
    2.7571   17.7353   39.9383 C   0  0  0  0  0  0  0  0  0  0  0  0
    3.8607   17.7658   39.0839 C   0  0  0  0  0  0  0  0  0  0  0  0
    0.3273   17.6200   40.2606 N   0  0  0  0  0  0  0  0  0  0  0  0
    1.3496   16.9362   42.3176 N   0  0  0  0  0  0  0  0  0  0  0  0
    4.6892   17.5563   35.5348 O   0  0  0  0  0  0  0  0  0  0  0  0
    6.0777   17.7960   37.2842 O   0  0  0  0  0  0  0  0  0  0  0  0
    5.1217   17.6020   39.6063 O   0  0  0  0  0  0  0  0  0  0  0  0
   -1.2132   16.4138   42.2048 S   0  0  0  0  0  0  0  0  0  0  0  0
    5.1160   15.1288   47.6488 Cl  0  0  0  0  0  0  0  0  0  0  0  0
    2.3026   18.0161   36.1074 H   0  0  0  0  0  0  0  0  0  0  0  0
    0.3181   17.6825   37.5645 H   0  0  0  0  0  0  0  0  0  0  0  0
    0.5598   15.2112   45.9930 H   0  0  0  0  0  0  0  0  0  0  0  0
    2.2998   14.7259   47.7122 H   0  0  0  0  0  0  0  0  0  0  0  0
    5.3208   16.4196   45.1265 H   0  0  0  0  0  0  0  0  0  0  0  0
    3.5671   16.9350   43.4297 H   0  0  0  0  0  0  0  0  0  0  0  0
   -0.8563   15.7134   44.5938 H   0  0  0  0  0  0  0  0  0  0  0  0
    2.9046   17.6648   41.0261 H   0  0  0  0  0  0  0  0  0  0  0  0
   -0.5710   17.8971   39.8396 H   0  0  0  0  0  0  0  0  0  0  0  0
  1  2  1  0
  1 19  1  0
  1 20  2  0
  2  3  1  0
  2 16  2  0
  3  4  2  0
  4  5  1  0
  5 15  2  0
  5 17  1  0
  6 17  1  0
  6 18  2  0
  6 22  1  0
  7  8  1  0
  7 14  2  0
  7 18  1  0
  8  9  1  0
  8 13  2  0
  9 10  2  0
 10 11  1  0
 11 12  2  0
 11 23  1  0
 12 13  1  0
 14 22  1  0
 15 16  1  0
 16 21  1  0
  3 24  1  0
  4 25  1  0
  9 26  1  0
 10 27  1  0
 12 28  1  0
 13 29  1  0
 14 30  1  0
 15 31  1  0
 17 32  1  0
M  CHG  2  19  -1  21  -1
M  END
>  <mol_id>  (69) 
2026-08-23-6tgu-s0-n100-r6-0069

>  <rmsd_to_ref>  (69) 
3.5765306122460343

$$$$
6tgu.A
     RDKit          3D

 32 34  0  0  0  0  0  0  0  0999 V2000
    2.0354   19.5321   34.4924 C   0  0  0  0  0  0  0  0  0  0  0  0
    2.0868   19.0003   35.8437 C   0  0  0  0  0  0  0  0  0  0  0  0
    3.1889   19.1888   36.6521 C   0  0  0  0  0  0  0  0  0  0  0  0
    3.2243   18.6820   37.9261 C   0  0  0  0  0  0  0  0  0  0  0  0
    2.1659   17.9533   38.4823 C   0  0  0  0  0  0  0  0  0  0  0  0
    1.3352   17.1288   40.7182 C   0  0  0  0  0  0  0  0  0  0  0  0
    0.1998   16.4437   42.5228 C   0  0  0  0  0  0  0  0  0  0  0  0
    0.1914   15.8813   43.8929 C   0  0  0  0  0  0  0  0  0  0  0  0
   -0.9668   15.6598   44.5735 C   0  0  0  0  0  0  0  0  0  0  0  0
   -0.9519   15.1370   45.8470 C   0  0  0  0  0  0  0  0  0  0  0  0
    0.2274   14.8119   46.4967 C   0  0  0  0  0  0  0  0  0  0  0  0
    1.3949   15.0329   45.8166 C   0  0  0  0  0  0  0  0  0  0  0  0
    1.3774   15.5561   44.5426 C   0  0  0  0  0  0  0  0  0  0  0  0
   -1.0073   16.7648   41.8921 C   0  0  0  0  0  0  0  0  0  0  0  0
    1.0765   17.7688   37.6771 C   0  0  0  0  0  0  0  0  0  0  0  0
    1.0434   18.2799   36.3963 C   0  0  0  0  0  0  0  0  0  0  0  0
    2.3389   17.4816   39.7878 N   0  0  0  0  0  0  0  0  0  0  0  0
    1.2744   16.6718   41.8360 N   0  0  0  0  0  0  0  0  0  0  0  0
    0.9301   19.3354   33.7015 O   0  0  0  0  0  0  0  0  0  0  0  0
    3.0416   20.1824   34.0673 O   0  0  0  0  0  0  0  0  0  0  0  0
   -0.0740   18.0963   35.5589 O   0  0  0  0  0  0  0  0  0  0  0  0
   -0.4879   17.3784   40.3373 S   0  0  0  0  0  0  0  0  0  0  0  0
    0.2308   14.1510   48.1094 Cl  0  0  0  0  0  0  0  0  0  0  0  0
    4.0239   19.7424   36.2659 H   0  0  0  0  0  0  0  0  0  0  0  0
    4.1349   18.8748   38.5050 H   0  0  0  0  0  0  0  0  0  0  0  0
   -1.9288   15.8870   44.1354 H   0  0  0  0  0  0  0  0  0  0  0  0
   -1.8881   14.9649   46.3802 H   0  0  0  0  0  0  0  0  0  0  0  0
    2.3653   14.8042   46.2559 H   0  0  0  0  0  0  0  0  0  0  0  0
    2.2959   15.7331   43.9992 H   0  0  0  0  0  0  0  0  0  0  0  0
   -1.9959   16.6662   42.2549 H   0  0  0  0  0  0  0  0  0  0  0  0
    0.2346   17.2206   38.0106 H   0  0  0  0  0  0  0  0  0  0  0  0
    3.3330   17.3607   40.1533 H   0  0  0  0  0  0  0  0  0  0  0  0
  1  2  1  0
  1 19  1  0
  1 20  2  0
  2  3  1  0
  2 16  2  0
  3  4  2  0
  4  5  1  0
  5 15  2  0
  5 17  1  0
  6 17  1  0
  6 18  2  0
  6 22  1  0
  7  8  1  0
  7 14  2  0
  7 18  1  0
  8  9  1  0
  8 13  2  0
  9 10  2  0
 10 11  1  0
 11 12  2  0
 11 23  1  0
 12 13  1  0
 14 22  1  0
 15 16  1  0
 16 21  1  0
  3 24  1  0
  4 25  1  0
  9 26  1  0
 10 27  1  0
 12 28  1  0
 13 29  1  0
 14 30  1  0
 15 31  1  0
 17 32  1  0
M  CHG  2  19  -1  21  -1
M  END
>  <mol_id>  (70) 
2026-08-23-6tgu-s0-n100-r6-0070

>  <rmsd_to_ref>  (70) 
3.6224489795941652

$$$$
6tgu.A
     RDKit          3D

 32 34  0  0  0  0  0  0  0  0999 V2000
    3.3266   21.7618   41.9764 C   0  0  0  0  0  0  0  0  0  0  0  0
    2.7479   20.4743   42.5698 C   0  0  0  0  0  0  0  0  0  0  0  0
    1.8175   20.5286   43.6052 C   0  0  0  0  0  0  0  0  0  0  0  0
    1.1275   19.3934   44.0430 C   0  0  0  0  0  0  0  0  0  0  0  0
    1.4842   18.1244   43.5642 C   0  0  0  0  0  0  0  0  0  0  0  0
    0.5748   15.7623   43.3266 C   0  0  0  0  0  0  0  0  0  0  0  0
    0.9000   14.1310   41.7745 C   0  0  0  0  0  0  0  0  0  0  0  0
    1.5530   13.5034   40.6253 C   0  0  0  0  0  0  0  0  0  0  0  0
    1.0788   12.3107   40.0608 C   0  0  0  0  0  0  0  0  0  0  0  0
    1.6950   11.7488   38.9470 C   0  0  0  0  0  0  0  0  0  0  0  0
    2.7634   12.4130   38.3744 C   0  0  0  0  0  0  0  0  0  0  0  0
    3.2610   13.5974   38.8966 C   0  0  0  0  0  0  0  0  0  0  0  0
    2.6380   14.1378   40.0181 C   0  0  0  0  0  0  0  0  0  0  0  0
   -0.2010   13.6153   42.4056 C   0  0  0  0  0  0  0  0  0  0  0  0
    2.4109   18.0531   42.5143 C   0  0  0  0  0  0  0  0  0  0  0  0
    3.0237   19.2168   42.0462 C   0  0  0  0  0  0  0  0  0  0  0  0
    0.7479   16.9632   43.9523 N   0  0  0  0  0  0  0  0  0  0  0  0
    1.3156   15.4085   42.2190 N   0  0  0  0  0  0  0  0  0  0  0  0
    2.7963   22.8471   42.3560 O   0  0  0  0  0  0  0  0  0  0  0  0
    4.2175   21.6353   41.1080 O   0  0  0  0  0  0  0  0  0  0  0  0
    3.8500   19.1486   40.9497 O   0  0  0  0  0  0  0  0  0  0  0  0
   -0.8066   14.7144   43.5858 S   0  0  0  0  0  0  0  0  0  0  0  0
    3.5148   11.7466   36.9628 Cl  0  0  0  0  0  0  0  0  0  0  0  0
    1.6194   21.4941   44.0936 H   0  0  0  0  0  0  0  0  0  0  0  0
    0.3034   19.4962   44.7643 H   0  0  0  0  0  0  0  0  0  0  0  0
    0.2056   11.8112   40.5057 H   0  0  0  0  0  0  0  0  0  0  0  0
    1.3389   10.7950   38.5304 H   0  0  0  0  0  0  0  0  0  0  0  0
    4.1260   14.0972   38.4362 H   0  0  0  0  0  0  0  0  0  0  0  0
    3.0090   15.0857   40.4351 H   0  0  0  0  0  0  0  0  0  0  0  0
   -0.6399   12.6304   42.1878 H   0  0  0  0  0  0  0  0  0  0  0  0
    2.6547   17.0814   42.0601 H   0  0  0  0  0  0  0  0  0  0  0  0
    0.2655   17.0463   44.8586 H   0  0  0  0  0  0  0  0  0  0  0  0
  1  2  1  0
  1 19  1  0
  1 20  2  0
  2  3  1  0
  2 16  2  0
  3  4  2  0
  4  5  1  0
  5 15  2  0
  5 17  1  0
  6 17  1  0
  6 18  2  0
  6 22  1  0
  7  8  1  0
  7 14  2  0
  7 18  1  0
  8  9  1  0
  8 13  2  0
  9 10  2  0
 10 11  1  0
 11 12  2  0
 11 23  1  0
 12 13  1  0
 14 22  1  0
 15 16  1  0
 16 21  1  0
  3 24  1  0
  4 25  1  0
  9 26  1  0
 10 27  1  0
 12 28  1  0
 13 29  1  0
 14 30  1  0
 15 31  1  0
 17 32  1  0
M  CHG  2  19  -1  21  -1
M  END
>  <mol_id>  (71) 
2026-08-23-6tgu-s0-n100-r6-0071

>  <rmsd_to_ref>  (71) 
3.6683673469399927

$$$$
6tgu.A
     RDKit          3D

 32 34  0  0  0  0  0  0  0  0999 V2000
    3.5475   21.0575   39.7712 C   0  0  0  0  0  0  0  0  0  0  0  0
    3.1858   19.7189   40.2432 C   0  0  0  0  0  0  0  0  0  0  0  0
    4.1500   18.7309   40.3732 C   0  0  0  0  0  0  0  0  0  0  0  0
    3.8429   17.4658   40.8188 C   0  0  0  0  0  0  0  0  0  0  0  0
    2.5389   17.1536   41.1510 C   0  0  0  0  0  0  0  0  0  0  0  0
    0.9304   15.3507   41.8216 C   0  0  0  0  0  0  0  0  0  0  0  0
   -1.0753   14.3225   41.7094 C   0  0  0  0  0  0  0  0  0  0  0  0
   -1.9222   13.3699   40.9988 C   0  0  0  0  0  0  0  0  0  0  0  0
   -3.2103   13.0963   41.4414 C   0  0  0  0  0  0  0  0  0  0  0  0
   -4.0312   12.1935   40.8035 C   0  0  0  0  0  0  0  0  0  0  0  0
   -3.5889   11.5138   39.6737 C   0  0  0  0  0  0  0  0  0  0  0  0
   -2.3200   11.7680   39.2177 C   0  0  0  0  0  0  0  0  0  0  0  0
   -1.5147   12.6788   39.8753 C   0  0  0  0  0  0  0  0  0  0  0  0
   -1.5022   14.9732   42.8543 C   0  0  0  0  0  0  0  0  0  0  0  0
    1.5358   18.1315   41.0300 C   0  0  0  0  0  0  0  0  0  0  0  0
    1.8599   19.4116   40.5770 C   0  0  0  0  0  0  0  0  0  0  0  0
    2.2362   15.8484   41.6382 N   0  0  0  0  0  0  0  0  0  0  0  0
    0.1497   14.6456   41.3678 N   0  0  0  0  0  0  0  0  0  0  0  0
    2.5621   22.0283   39.6589 O   0  0  0  0  0  0  0  0  0  0  0  0
    4.7679   21.2998   39.4734 O   0  0  0  0  0  0  0  0  0  0  0  0
    0.8563   20.3956   40.4549 O   0  0  0  0  0  0  0  0  0  0  0  0
   -0.0654   16.0126   43.3430 S   0  0  0  0  0  0  0  0  0  0  0  0
   -4.6075   10.3534   38.8337 Cl  0  0  0  0  0  0  0  0  0  0  0  0
    5.1995   18.9054   40.1282 H   0  0  0  0  0  0  0  0  0  0  0  0
    4.5779   16.6802   40.9288 H   0  0  0  0  0  0  0  0  0  0  0  0
   -3.6367   13.5891   42.3226 H   0  0  0  0  0  0  0  0  0  0  0  0
   -5.0322   11.9824   41.1494 H   0  0  0  0  0  0  0  0  0  0  0  0
   -1.8882   11.2896   38.3500 H   0  0  0  0  0  0  0  0  0  0  0  0
   -0.4942   12.9037   39.5339 H   0  0  0  0  0  0  0  0  0  0  0  0
   -2.4646   14.9506   43.4308 H   0  0  0  0  0  0  0  0  0  0  0  0
    0.5124   17.8609   41.2991 H   0  0  0  0  0  0  0  0  0  0  0  0
    3.0256   15.2016   41.8812 H   0  0  0  0  0  0  0  0  0  0  0  0
  1  2  1  0
  1 19  1  0
  1 20  2  0
  2  3  1  0
  2 16  2  0
  3  4  2  0
  4  5  1  0
  5 15  2  0
  5 17  1  0
  6 17  1  0
  6 18  2  0
  6 22  1  0
  7  8  1  0
  7 14  2  0
  7 18  1  0
  8  9  1  0
  8 13  2  0
  9 10  2  0
 10 11  1  0
 11 12  2  0
 11 23  1  0
 12 13  1  0
 14 22  1  0
 15 16  1  0
 16 21  1  0
  3 24  1  0
  4 25  1  0
  9 26  1  0
 10 27  1  0
 12 28  1  0
 13 29  1  0
 14 30  1  0
 15 31  1  0
 17 32  1  0
M  CHG  2  19  -1  21  -1
M  END
>  <mol_id>  (72) 
2026-08-23-6tgu-s0-n100-r6-0072

>  <rmsd_to_ref>  (72) 
3.714285714290387

$$$$
6tgu.A
     RDKit          3D

 32 34  0  0  0  0  0  0  0  0999 V2000
    4.7901   15.1135   37.4782 C   0  0  0  0  0  0  0  0  0  0  0  0
    4.0127   16.1038   38.3497 C   0  0  0  0  0  0  0  0  0  0  0  0
    3.7889   17.4072   37.9116 C   0  0  0  0  0  0  0  0  0  0  0  0
    2.9280   18.2792   38.5861 C   0  0  0  0  0  0  0  0  0  0  0  0
    2.3957   17.9189   39.8326 C   0  0  0  0  0  0  0  0  0  0  0  0
    0.4942   18.4883   41.4210 C   0  0  0  0  0  0  0  0  0  0  0  0
   -0.7097   17.2447   42.8974 C   0  0  0  0  0  0  0  0  0  0  0  0
   -1.0158   16.0531   43.6896 C   0  0  0  0  0  0  0  0  0  0  0  0
   -2.1857   15.9501   44.4556 C   0  0  0  0  0  0  0  0  0  0  0  0
   -2.4735   14.7943   45.1748 C   0  0  0  0  0  0  0  0  0  0  0  0
   -1.6030   13.7243   45.0867 C   0  0  0  0  0  0  0  0  0  0  0  0
   -0.4380   13.7811   44.3367 C   0  0  0  0  0  0  0  0  0  0  0  0
   -0.1620   14.9504   43.6333 C   0  0  0  0  0  0  0  0  0  0  0  0
   -1.5098   18.3553   42.8444 C   0  0  0  0  0  0  0  0  0  0  0  0
    2.6022   16.6071   40.2827 C   0  0  0  0  0  0  0  0  0  0  0  0
    3.4040   15.7354   39.5435 C   0  0  0  0  0  0  0  0  0  0  0  0
    1.4651   18.7703   40.5037 N   0  0  0  0  0  0  0  0  0  0  0  0
    0.4014   17.2507   42.0213 N   0  0  0  0  0  0  0  0  0  0  0  0
    5.0598   15.4889   36.2995 O   0  0  0  0  0  0  0  0  0  0  0  0
    5.0245   13.9880   37.9703 O   0  0  0  0  0  0  0  0  0  0  0  0
    3.5145   14.4233   39.9385 O   0  0  0  0  0  0  0  0  0  0  0  0
   -0.9340   19.4745   41.6681 S   0  0  0  0  0  0  0  0  0  0  0  0
   -1.9690   12.2640   45.9441 Cl  0  0  0  0  0  0  0  0  0  0  0  0
    4.3052   17.7615   37.0073 H   0  0  0  0  0  0  0  0  0  0  0  0
    2.6679   19.2495   38.1380 H   0  0  0  0  0  0  0  0  0  0  0  0
   -2.8872   16.7967   44.4885 H   0  0  0  0  0  0  0  0  0  0  0  0
   -3.3758   14.7334   45.8010 H   0  0  0  0  0  0  0  0  0  0  0  0
    0.2505   12.9241   44.2985 H   0  0  0  0  0  0  0  0  0  0  0  0
    0.7492   15.0065   43.0196 H   0  0  0  0  0  0  0  0  0  0  0  0
   -2.4013   18.5117   43.4696 H   0  0  0  0  0  0  0  0  0  0  0  0
    2.1331   16.2652   41.2171 H   0  0  0  0  0  0  0  0  0  0  0  0
    1.5395   19.7664   40.2526 H   0  0  0  0  0  0  0  0  0  0  0  0
  1  2  1  0
  1 19  1  0
  1 20  2  0
  2  3  1  0
  2 16  2  0
  3  4  2  0
  4  5  1  0
  5 15  2  0
  5 17  1  0
  6 17  1  0
  6 18  2  0
  6 22  1  0
  7  8  1  0
  7 14  2  0
  7 18  1  0
  8  9  1  0
  8 13  2  0
  9 10  2  0
 10 11  1  0
 11 12  2  0
 11 23  1  0
 12 13  1  0
 14 22  1  0
 15 16  1  0
 16 21  1  0
  3 24  1  0
  4 25  1  0
  9 26  1  0
 10 27  1  0
 12 28  1  0
 13 29  1  0
 14 30  1  0
 15 31  1  0
 17 32  1  0
M  CHG  2  19  -1  21  -1
M  END
>  <mol_id>  (73) 
2026-08-23-6tgu-s0-n100-r6-0073

>  <rmsd_to_ref>  (73) 
3.7602040816407696

$$$$
6tgu.A
     RDKit          3D

 32 34  0  0  0  0  0  0  0  0999 V2000
    5.1534   22.6363   41.4532 C   0  0  0  0  0  0  0  0  0  0  0  0
    4.1929   21.5439   41.5530 C   0  0  0  0  0  0  0  0  0  0  0  0
    2.9189   21.7624   42.0539 C   0  0  0  0  0  0  0  0  0  0  0  0
    1.9948   20.7641   42.1612 C   0  0  0  0  0  0  0  0  0  0  0  0
    2.2972   19.4588   41.7649 C   0  0  0  0  0  0  0  0  0  0  0  0
    1.2673   17.2571   41.2855 C   0  0  0  0  0  0  0  0  0  0  0  0
    0.3559   15.1956   40.8315 C   0  0  0  0  0  0  0  0  0  0  0  0
   -0.6964   14.1278   41.0171 C   0  0  0  0  0  0  0  0  0  0  0  0
   -1.7378   14.3489   41.8943 C   0  0  0  0  0  0  0  0  0  0  0  0
   -2.7316   13.3898   42.0955 C   0  0  0  0  0  0  0  0  0  0  0  0
   -2.6663   12.2060   41.4048 C   0  0  0  0  0  0  0  0  0  0  0  0
   -1.6140   12.0217   40.5396 C   0  0  0  0  0  0  0  0  0  0  0  0
   -0.6230   12.9679   40.3335 C   0  0  0  0  0  0  0  0  0  0  0  0
    1.3786   14.9682   39.9639 C   0  0  0  0  0  0  0  0  0  0  0  0
    3.5520   19.2556   41.2746 C   0  0  0  0  0  0  0  0  0  0  0  0
    4.5000   20.2736   41.1631 C   0  0  0  0  0  0  0  0  0  0  0  0
    1.2919   18.4830   41.9159 N   0  0  0  0  0  0  0  0  0  0  0  0
    0.2678   16.2960   41.4922 N   0  0  0  0  0  0  0  0  0  0  0  0
    6.4123   22.3673   40.9464 O   0  0  0  0  0  0  0  0  0  0  0  0
    4.8988   23.8175   41.8046 O   0  0  0  0  0  0  0  0  0  0  0  0
    5.7759   20.0040   40.6503 O   0  0  0  0  0  0  0  0  0  0  0  0
    2.3780   16.5447   40.0911 S   0  0  0  0  0  0  0  0  0  0  0  0
   -3.8539   10.9292   41.5740 Cl  0  0  0  0  0  0  0  0  0  0  0  0
    2.7052   22.7930   42.3580 H   0  0  0  0  0  0  0  0  0  0  0  0
    1.0202   21.0239   42.5650 H   0  0  0  0  0  0  0  0  0  0  0  0
   -1.8332   15.2718   42.4650 H   0  0  0  0  0  0  0  0  0  0  0  0
   -3.5459   13.5544   42.7770 H   0  0  0  0  0  0  0  0  0  0  0  0
   -1.5197   11.1045   39.9727 H   0  0  0  0  0  0  0  0  0  0  0  0
    0.1805   12.7568   39.6346 H   0  0  0  0  0  0  0  0  0  0  0  0
    1.6335   14.1869   39.3551 H   0  0  0  0  0  0  0  0  0  0  0  0
    3.8717   18.2876   40.9557 H   0  0  0  0  0  0  0  0  0  0  0  0
    0.4933   18.7193   42.5731 H   0  0  0  0  0  0  0  0  0  0  0  0
  1  2  1  0
  1 19  1  0
  1 20  2  0
  2  3  1  0
  2 16  2  0
  3  4  2  0
  4  5  1  0
  5 15  2  0
  5 17  1  0
  6 17  1  0
  6 18  2  0
  6 22  1  0
  7  8  1  0
  7 14  2  0
  7 18  1  0
  8  9  1  0
  8 13  2  0
  9 10  2  0
 10 11  1  0
 11 12  2  0
 11 23  1  0
 12 13  1  0
 14 22  1  0
 15 16  1  0
 16 21  1  0
  3 24  1  0
  4 25  1  0
  9 26  1  0
 10 27  1  0
 12 28  1  0
 13 29  1  0
 14 30  1  0
 15 31  1  0
 17 32  1  0
M  CHG  2  19  -1  21  -1
M  END
>  <mol_id>  (74) 
2026-08-23-6tgu-s0-n100-r6-0074

>  <rmsd_to_ref>  (74) 
3.8061224489818763

$$$$
6tgu.A
     RDKit          3D

 32 34  0  0  0  0  0  0  0  0999 V2000
   -1.3943   18.1698   37.0163 C   0  0  0  0  0  0  0  0  0  0  0  0
   -1.3260   18.1478   38.5458 C   0  0  0  0  0  0  0  0  0  0  0  0
   -2.4814   18.3060   39.3078 C   0  0  0  0  0  0  0  0  0  0  0  0
   -2.4910   18.1037   40.6917 C   0  0  0  0  0  0  0  0  0  0  0  0
   -1.2870   17.9039   41.3825 C   0  0  0  0  0  0  0  0  0  0  0  0
   -0.3807   16.9756   43.5689 C   0  0  0  0  0  0  0  0  0  0  0  0
    1.5657   15.9320   44.1147 C   0  0  0  0  0  0  0  0  0  0  0  0
    2.9341   15.4689   43.8822 C   0  0  0  0  0  0  0  0  0  0  0  0
    3.6115   14.6588   44.8047 C   0  0  0  0  0  0  0  0  0  0  0  0
    4.9005   14.2018   44.5482 C   0  0  0  0  0  0  0  0  0  0  0  0
    5.4908   14.5252   43.3410 C   0  0  0  0  0  0  0  0  0  0  0  0
    4.8549   15.3188   42.3982 C   0  0  0  0  0  0  0  0  0  0  0  0
    3.5700   15.7756   42.6782 C   0  0  0  0  0  0  0  0  0  0  0  0
    0.8390   15.6399   45.2386 C   0  0  0  0  0  0  0  0  0  0  0  0
   -0.1166   17.7313   40.6298 C   0  0  0  0  0  0  0  0  0  0  0  0
   -0.1567   17.8617   39.2404 C   0  0  0  0  0  0  0  0  0  0  0  0
   -1.2854   17.6322   42.7851 N   0  0  0  0  0  0  0  0  0  0  0  0
    0.8642   16.6191   43.0959 N   0  0  0  0  0  0  0  0  0  0  0  0
   -2.5515   18.1689   36.5024 O   0  0  0  0  0  0  0  0  0  0  0  0
   -0.3085   18.1053   36.3993 O   0  0  0  0  0  0  0  0  0  0  0  0
    0.9722   17.5879   38.5054 O   0  0  0  0  0  0  0  0  0  0  0  0
   -0.7870   16.1869   45.0809 S   0  0  0  0  0  0  0  0  0  0  0  0
    7.0794   13.9294   42.9904 Cl  0  0  0  0  0  0  0  0  0  0  0  0
   -3.4151   18.5992   38.8055 H   0  0  0  0  0  0  0  0  0  0  0  0
   -3.4450   18.1013   41.2395 H   0  0  0  0  0  0  0  0  0  0  0  0
    3.1159   14.3800   45.7463 H   0  0  0  0  0  0  0  0  0  0  0  0
    5.4389   13.5953   45.2914 H   0  0  0  0  0  0  0  0  0  0  0  0
    5.3531   15.5806   41.4531 H   0  0  0  0  0  0  0  0  0  0  0  0
    3.0443   16.3920   41.9341 H   0  0  0  0  0  0  0  0  0  0  0  0
    1.2402   15.1246   46.1238 H   0  0  0  0  0  0  0  0  0  0  0  0
    0.8320   17.4935   41.1335 H   0  0  0  0  0  0  0  0  0  0  0  0
   -2.1067   17.9931   43.2912 H   0  0  0  0  0  0  0  0  0  0  0  0
  1  2  1  0
  1 19  1  0
  1 20  2  0
  2  3  1  0
  2 16  2  0
  3  4  2  0
  4  5  1  0
  5 15  2  0
  5 17  1  0
  6 17  1  0
  6 18  2  0
  6 22  1  0
  7  8  1  0
  7 14  2  0
  7 18  1  0
  8  9  1  0
  8 13  2  0
  9 10  2  0
 10 11  1  0
 11 12  2  0
 11 23  1  0
 12 13  1  0
 14 22  1  0
 15 16  1  0
 16 21  1  0
  3 24  1  0
  4 25  1  0
  9 26  1  0
 10 27  1  0
 12 28  1  0
 13 29  1  0
 14 30  1  0
 15 31  1  0
 17 32  1  0
M  CHG  2  19  -1  21  -1
M  END
>  <mol_id>  (75) 
2026-08-23-6tgu-s0-n100-r6-0075

>  <rmsd_to_ref>  (75) 
3.852040816327915

$$$$
6tgu.A
     RDKit          3D

 32 34  0  0  0  0  0  0  0  0999 V2000
    0.5155   22.6764   38.6543 C   0  0  0  0  0  0  0  0  0  0  0  0
    0.3855   21.3204   39.1726 C   0  0  0  0  0  0  0  0  0  0  0  0
   -0.5720   21.0374   40.1114 C   0  0  0  0  0  0  0  0  0  0  0  0
   -0.6638   19.7437   40.5767 C   0  0  0  0  0  0  0  0  0  0  0  0
    0.1773   18.7272   40.1268 C   0  0  0  0  0  0  0  0  0  0  0  0
    0.8605   16.3212   40.2416 C   0  0  0  0  0  0  0  0  0  0  0  0
    2.4809   14.7554   40.0550 C   0  0  0  0  0  0  0  0  0  0  0  0
    3.7519   14.1598   40.5365 C   0  0  0  0  0  0  0  0  0  0  0  0
    4.4247   14.6823   41.6221 C   0  0  0  0  0  0  0  0  0  0  0  0
    5.6076   14.1591   42.1017 C   0  0  0  0  0  0  0  0  0  0  0  0
    6.1561   13.0632   41.4784 C   0  0  0  0  0  0  0  0  0  0  0  0
    5.4869   12.5414   40.3966 C   0  0  0  0  0  0  0  0  0  0  0  0
    4.3121   13.0633   39.9224 C   0  0  0  0  0  0  0  0  0  0  0  0
    1.8168   14.2139   38.9611 C   0  0  0  0  0  0  0  0  0  0  0  0
    1.1198   19.0377   39.1932 C   0  0  0  0  0  0  0  0  0  0  0  0
    1.2352   20.3435   38.7033 C   0  0  0  0  0  0  0  0  0  0  0  0
    0.0489   17.4063   40.6310 N   0  0  0  0  0  0  0  0  0  0  0  0
    1.9177   15.7835   40.5984 N   0  0  0  0  0  0  0  0  0  0  0  0
   -0.3145   23.6996   39.0921 O   0  0  0  0  0  0  0  0  0  0  0  0
    1.4059   22.9299   37.7839 O   0  0  0  0  0  0  0  0  0  0  0  0
    2.1838   20.6823   37.7557 O   0  0  0  0  0  0  0  0  0  0  0  0
    0.3635   15.2504   38.7647 S   0  0  0  0  0  0  0  0  0  0  0  0
    7.6555   12.3898   42.0765 Cl  0  0  0  0  0  0  0  0  0  0  0  0
   -1.2425   21.8092   40.4816 H   0  0  0  0  0  0  0  0  0  0  0  0
   -1.3990   19.4510   41.3201 H   0  0  0  0  0  0  0  0  0  0  0  0
    4.0232   15.5596   42.1530 H   0  0  0  0  0  0  0  0  0  0  0  0
    6.0851   14.6245   42.9661 H   0  0  0  0  0  0  0  0  0  0  0  0
    5.9095   11.6786   39.8979 H   0  0  0  0  0  0  0  0  0  0  0  0
    3.8392   12.6052   39.0693 H   0  0  0  0  0  0  0  0  0  0  0  0
    2.0752   13.3716   38.3450 H   0  0  0  0  0  0  0  0  0  0  0  0
    1.7987   18.3213   38.7991 H   0  0  0  0  0  0  0  0  0  0  0  0
   -0.7002   17.2041   41.3473 H   0  0  0  0  0  0  0  0  0  0  0  0
  1  2  1  0
  1 19  1  0
  1 20  2  0
  2  3  1  0
  2 16  2  0
  3  4  2  0
  4  5  1  0
  5 15  2  0
  5 17  1  0
  6 17  1  0
  6 18  2  0
  6 22  1  0
  7  8  1  0
  7 14  2  0
  7 18  1  0
  8  9  1  0
  8 13  2  0
  9 10  2  0
 10 11  1  0
 11 12  2  0
 11 23  1  0
 12 13  1  0
 14 22  1  0
 15 16  1  0
 16 21  1  0
  3 24  1  0
  4 25  1  0
  9 26  1  0
 10 27  1  0
 12 28  1  0
 13 29  1  0
 14 30  1  0
 15 31  1  0
 17 32  1  0
M  CHG  2  19  -1  21  -1
M  END
>  <mol_id>  (76) 
2026-08-23-6tgu-s0-n100-r6-0076

>  <rmsd_to_ref>  (76) 
3.897959183674684

$$$$
6tgu.A
     RDKit          3D

 32 34  0  0  0  0  0  0  0  0999 V2000
   -1.9189   18.7376   39.0558 C   0  0  0  0  0  0  0  0  0  0  0  0
   -0.8091   18.8422   40.1055 C   0  0  0  0  0  0  0  0  0  0  0  0
   -0.9068   19.7598   41.1491 C   0  0  0  0  0  0  0  0  0  0  0  0
   -0.0145   19.7562   42.2262 C   0  0  0  0  0  0  0  0  0  0  0  0
    1.1198   18.9319   42.1982 C   0  0  0  0  0  0  0  0  0  0  0  0
    2.8527   17.8833   43.7346 C   0  0  0  0  0  0  0  0  0  0  0  0
    4.0117   15.9276   43.6481 C   0  0  0  0  0  0  0  0  0  0  0  0
    4.4949   14.6976   43.0197 C   0  0  0  0  0  0  0  0  0  0  0  0
    5.2450   13.7469   43.7266 C   0  0  0  0  0  0  0  0  0  0  0  0
    5.6659   12.5682   43.1188 C   0  0  0  0  0  0  0  0  0  0  0  0
    5.2929   12.3270   41.8100 C   0  0  0  0  0  0  0  0  0  0  0  0
    4.5471   13.2370   41.0760 C   0  0  0  0  0  0  0  0  0  0  0  0
    4.1451   14.4157   41.6983 C   0  0  0  0  0  0  0  0  0  0  0  0
    4.2560   16.2683   44.9522 C   0  0  0  0  0  0  0  0  0  0  0  0
    1.2276   17.9949   41.1607 C   0  0  0  0  0  0  0  0  0  0  0  0
    0.2743   17.9724   40.1409 C   0  0  0  0  0  0  0  0  0  0  0  0
    2.0057   18.8693   43.3173 N   0  0  0  0  0  0  0  0  0  0  0  0
    3.1327   16.7868   42.9472 N   0  0  0  0  0  0  0  0  0  0  0  0
   -2.9763   19.3955   39.2841 O   0  0  0  0  0  0  0  0  0  0  0  0
   -1.7254   17.9516   38.1026 O   0  0  0  0  0  0  0  0  0  0  0  0
    0.3314   16.9839   39.1873 O   0  0  0  0  0  0  0  0  0  0  0  0
    3.3751   17.6808   45.3958 S   0  0  0  0  0  0  0  0  0  0  0  0
    5.7750   10.8451   41.0529 Cl  0  0  0  0  0  0  0  0  0  0  0  0
   -1.7105   20.5104   41.1253 H   0  0  0  0  0  0  0  0  0  0  0  0
   -0.2028   20.4013   43.0970 H   0  0  0  0  0  0  0  0  0  0  0  0
    5.5049   13.9361   44.7786 H   0  0  0  0  0  0  0  0  0  0  0  0
    6.2833   11.8428   43.6690 H   0  0  0  0  0  0  0  0  0  0  0  0
    4.2798   13.0327   40.0287 H   0  0  0  0  0  0  0  0  0  0  0  0
    3.5384   15.1408   41.1361 H   0  0  0  0  0  0  0  0  0  0  0  0
    4.9255   15.7140   45.6263 H   0  0  0  0  0  0  0  0  0  0  0  0
    2.0622   17.2784   41.1502 H   0  0  0  0  0  0  0  0  0  0  0  0
    2.0052   19.7115   43.9103 H   0  0  0  0  0  0  0  0  0  0  0  0
  1  2  1  0
  1 19  1  0
  1 20  2  0
  2  3  1  0
  2 16  2  0
  3  4  2  0
  4  5  1  0
  5 15  2  0
  5 17  1  0
  6 17  1  0
  6 18  2  0
  6 22  1  0
  7  8  1  0
  7 14  2  0
  7 18  1  0
  8  9  1  0
  8 13  2  0
  9 10  2  0
 10 11  1  0
 11 12  2  0
 11 23  1  0
 12 13  1  0
 14 22  1  0
 15 16  1  0
 16 21  1  0
  3 24  1  0
  4 25  1  0
  9 26  1  0
 10 27  1  0
 12 28  1  0
 13 29  1  0
 14 30  1  0
 15 31  1  0
 17 32  1  0
M  CHG  2  19  -1  21  -1
M  END
>  <mol_id>  (77) 
2026-08-23-6tgu-s0-n100-r6-0077

>  <rmsd_to_ref>  (77) 
3.9438775510249724

$$$$
6tgu.A
     RDKit          3D

 32 34  0  0  0  0  0  0  0  0999 V2000
    7.0747   20.5110   40.5900 C   0  0  0  0  0  0  0  0  0  0  0  0
    5.9621   19.6198   40.3996 C   0  0  0  0  0  0  0  0  0  0  0  0
    5.0717   19.2986   41.3982 C   0  0  0  0  0  0  0  0  0  0  0  0
    4.0091   18.4303   41.1559 C   0  0  0  0  0  0  0  0  0  0  0  0
    3.7900   17.8526   39.9283 C   0  0  0  0  0  0  0  0  0  0  0  0
    2.0138   16.1591   40.4939 C   0  0  0  0  0  0  0  0  0  0  0  0
    0.4598   14.6842   41.1937 C   0  0  0  0  0  0  0  0  0  0  0  0
   -0.6586   13.7680   40.8651 C   0  0  0  0  0  0  0  0  0  0  0  0
   -1.1105   13.6014   39.5759 C   0  0  0  0  0  0  0  0  0  0  0  0
   -2.1470   12.7628   39.2276 C   0  0  0  0  0  0  0  0  0  0  0  0
   -2.7509   12.0603   40.2475 C   0  0  0  0  0  0  0  0  0  0  0  0
   -2.3301   12.1978   41.5518 C   0  0  0  0  0  0  0  0  0  0  0  0
   -1.2829   13.0531   41.8576 C   0  0  0  0  0  0  0  0  0  0  0  0
    0.9060   14.8427   42.4696 C   0  0  0  0  0  0  0  0  0  0  0  0
    4.7073   18.1953   38.9335 C   0  0  0  0  0  0  0  0  0  0  0  0
    5.7583   19.0523   39.1664 C   0  0  0  0  0  0  0  0  0  0  0  0
    2.7783   16.9645   39.5838 N   0  0  0  0  0  0  0  0  0  0  0  0
    1.0865   15.3898   40.2945 N   0  0  0  0  0  0  0  0  0  0  0  0
    7.3788   21.1387   41.7855 O   0  0  0  0  0  0  0  0  0  0  0  0
    7.8278   20.7375   39.5949 O   0  0  0  0  0  0  0  0  0  0  0  0
    6.6219   19.3290   38.0929 O   0  0  0  0  0  0  0  0  0  0  0  0
    2.2810   16.0722   42.2711 S   0  0  0  0  0  0  0  0  0  0  0  0
   -4.0726   10.9881   39.8106 Cl  0  0  0  0  0  0  0  0  0  0  0  0
    5.2226   19.7429   42.3826 H   0  0  0  0  0  0  0  0  0  0  0  0
    3.3609   18.2374   41.9669 H   0  0  0  0  0  0  0  0  0  0  0  0
   -0.6244   14.1640   38.7651 H   0  0  0  0  0  0  0  0  0  0  0  0
   -2.4708   12.6645   38.1824 H   0  0  0  0  0  0  0  0  0  0  0  0
   -2.8075   11.6488   42.3311 H   0  0  0  0  0  0  0  0  0  0  0  0
   -0.9738   13.1388   42.9006 H   0  0  0  0  0  0  0  0  0  0  0  0
    0.6324   14.4286   43.4533 H   0  0  0  0  0  0  0  0  0  0  0  0
    4.5935   17.7715   37.9286 H   0  0  0  0  0  0  0  0  0  0  0  0
    2.5206   16.8460   38.5730 H   0  0  0  0  0  0  0  0  0  0  0  0
  1  2  1  0
  1 19  1  0
  1 20  2  0
  2  3  1  0
  2 16  2  0
  3  4  2  0
  4  5  1  0
  5 15  2  0
  5 17  1  0
  6 17  1  0
  6 18  2  0
  6 22  1  0
  7  8  1  0
  7 14  2  0
  7 18  1  0
  8  9  1  0
  8 13  2  0
  9 10  2  0
 10 11  1  0
 11 12  2  0
 11 23  1  0
 12 13  1  0
 14 22  1  0
 15 16  1  0
 16 21  1  0
  3 24  1  0
  4 25  1  0
  9 26  1  0
 10 27  1  0
 12 28  1  0
 13 29  1  0
 14 30  1  0
 15 31  1  0
 17 32  1  0
M  CHG  2  19  -1  21  -1
M  END
>  <mol_id>  (78) 
2026-08-23-6tgu-s0-n100-r6-0078

>  <rmsd_to_ref>  (78) 
3.989795918370518

$$$$
6tgu.A
     RDKit          3D

 32 34  0  0  0  0  0  0  0  0999 V2000
    6.5898   16.1693   39.0246 C   0  0  0  0  0  0  0  0  0  0  0  0
    5.3688   16.6819   39.7934 C   0  0  0  0  0  0  0  0  0  0  0  0
    5.3101   18.0045   40.2270 C   0  0  0  0  0  0  0  0  0  0  0  0
    4.1422   18.5591   40.7608 C   0  0  0  0  0  0  0  0  0  0  0  0
    3.0374   17.7412   41.0385 C   0  0  0  0  0  0  0  0  0  0  0  0
    0.5287   17.8569   41.4341 C   0  0  0  0  0  0  0  0  0  0  0  0
   -1.1750   16.4211   40.9743 C   0  0  0  0  0  0  0  0  0  0  0  0
   -1.7612   15.1435   40.5676 C   0  0  0  0  0  0  0  0  0  0  0  0
   -3.1436   14.9798   40.3998 C   0  0  0  0  0  0  0  0  0  0  0  0
   -3.6770   13.7653   39.9798 C   0  0  0  0  0  0  0  0  0  0  0  0
   -2.8127   12.7275   39.6859 C   0  0  0  0  0  0  0  0  0  0  0  0
   -1.4390   12.8478   39.8324 C   0  0  0  0  0  0  0  0  0  0  0  0
   -0.9254   14.0674   40.2647 C   0  0  0  0  0  0  0  0  0  0  0  0
   -1.9059   17.5484   41.2415 C   0  0  0  0  0  0  0  0  0  0  0  0
    3.0760   16.4104   40.5986 C   0  0  0  0  0  0  0  0  0  0  0  0
    4.2315   15.9093   39.9964 C   0  0  0  0  0  0  0  0  0  0  0  0
    1.8162   18.3021   41.5234 N   0  0  0  0  0  0  0  0  0  0  0  0
    0.2300   16.5878   40.9857 N   0  0  0  0  0  0  0  0  0  0  0  0
    7.4395   17.0383   38.6694 O   0  0  0  0  0  0  0  0  0  0  0  0
    6.6104   14.9518   38.7400 O   0  0  0  0  0  0  0  0  0  0  0  0
    4.2222   14.6371   39.4757 O   0  0  0  0  0  0  0  0  0  0  0  0
   -0.8754   18.9045   41.5002 S   0  0  0  0  0  0  0  0  0  0  0  0
   -3.4598   11.2223   39.1227 Cl  0  0  0  0  0  0  0  0  0  0  0  0
    6.2099   18.6320   40.1470 H   0  0  0  0  0  0  0  0  0  0  0  0
    4.0903   19.6391   40.9633 H   0  0  0  0  0  0  0  0  0  0  0  0
   -3.8172   15.8252   40.6035 H   0  0  0  0  0  0  0  0  0  0  0  0
   -4.7649   13.6338   39.8835 H   0  0  0  0  0  0  0  0  0  0  0  0
   -0.7721   12.0011   39.6126 H   0  0  0  0  0  0  0  0  0  0  0  0
    0.1631   14.1856   40.3700 H   0  0  0  0  0  0  0  0  0  0  0  0
   -3.0045   17.5831   41.2851 H   0  0  0  0  0  0  0  0  0  0  0  0
    2.1968   15.7620   40.7278 H   0  0  0  0  0  0  0  0  0  0  0  0
    1.9257   19.1945   42.0260 H   0  0  0  0  0  0  0  0  0  0  0  0
  1  2  1  0
  1 19  1  0
  1 20  2  0
  2  3  1  0
  2 16  2  0
  3  4  2  0
  4  5  1  0
  5 15  2  0
  5 17  1  0
  6 17  1  0
  6 18  2  0
  6 22  1  0
  7  8  1  0
  7 14  2  0
  7 18  1  0
  8  9  1  0
  8 13  2  0
  9 10  2  0
 10 11  1  0
 11 12  2  0
 11 23  1  0
 12 13  1  0
 14 22  1  0
 15 16  1  0
 16 21  1  0
  3 24  1  0
  4 25  1  0
  9 26  1  0
 10 27  1  0
 12 28  1  0
 13 29  1  0
 14 30  1  0
 15 31  1  0
 17 32  1  0
M  CHG  2  19  -1  21  -1
M  END
>  <mol_id>  (79) 
2026-08-23-6tgu-s0-n100-r6-0079

>  <rmsd_to_ref>  (79) 
4.035714285719243

$$$$
6tgu.A
     RDKit          3D

 32 34  0  0  0  0  0  0  0  0999 V2000
    3.8311   23.5196   40.8779 C   0  0  0  0  0  0  0  0  0  0  0  0
    3.5568   22.0886   40.8164 C   0  0  0  0  0  0  0  0  0  0  0  0
    4.2683   21.1914   41.5895 C   0  0  0  0  0  0  0  0  0  0  0  0
    3.9881   19.8362   41.5128 C   0  0  0  0  0  0  0  0  0  0  0  0
    3.0209   19.3074   40.6938 C   0  0  0  0  0  0  0  0  0  0  0  0
    3.5189   16.8420   40.7929 C   0  0  0  0  0  0  0  0  0  0  0  0
    4.2485   14.7232   41.0094 C   0  0  0  0  0  0  0  0  0  0  0  0
    3.9235   13.2797   40.9281 C   0  0  0  0  0  0  0  0  0  0  0  0
    4.8855   12.3331   41.2008 C   0  0  0  0  0  0  0  0  0  0  0  0
    4.6178   11.0041   41.1353 C   0  0  0  0  0  0  0  0  0  0  0  0
    3.3610   10.5760   40.7902 C   0  0  0  0  0  0  0  0  0  0  0  0
    2.3489   11.4834   40.5042 C   0  0  0  0  0  0  0  0  0  0  0  0
    2.6731   12.8211   40.5851 C   0  0  0  0  0  0  0  0  0  0  0  0
    5.4784   15.1657   41.3488 C   0  0  0  0  0  0  0  0  0  0  0  0
    2.3188   20.2541   39.9234 C   0  0  0  0  0  0  0  0  0  0  0  0
    2.5773   21.5884   39.9833 C   0  0  0  0  0  0  0  0  0  0  0  0
    2.6814   17.9807   40.5304 N   0  0  0  0  0  0  0  0  0  0  0  0
    3.3708   15.6676   40.7592 N   0  0  0  0  0  0  0  0  0  0  0  0
    4.8190   23.9946   41.7220 O   0  0  0  0  0  0  0  0  0  0  0  0
    3.1320   24.2728   40.1358 O   0  0  0  0  0  0  0  0  0  0  0  0
    1.8568   22.4907   39.2013 O   0  0  0  0  0  0  0  0  0  0  0  0
    5.2829   17.0129   41.2826 S   0  0  0  0  0  0  0  0  0  0  0  0
    3.0161    8.8662   40.7054 Cl  0  0  0  0  0  0  0  0  0  0  0  0
    5.0350   21.5463   42.2470 H   0  0  0  0  0  0  0  0  0  0  0  0
    4.5685   19.1957   42.1480 H   0  0  0  0  0  0  0  0  0  0  0  0
    5.9079   12.6333   41.4817 H   0  0  0  0  0  0  0  0  0  0  0  0
    5.3795   10.2651   41.3508 H   0  0  0  0  0  0  0  0  0  0  0  0
    1.3471   11.1480   40.2287 H   0  0  0  0  0  0  0  0  0  0  0  0
    1.8814   13.5251   40.3611 H   0  0  0  0  0  0  0  0  0  0  0  0
    6.4517   14.6959   41.6220 H   0  0  0  0  0  0  0  0  0  0  0  0
    1.5299   19.9054   39.2442 H   0  0  0  0  0  0  0  0  0  0  0  0
    1.7226   17.7340   40.1815 H   0  0  0  0  0  0  0  0  0  0  0  0
  1  2  1  0
  1 19  1  0
  1 20  2  0
  2  3  1  0
  2 16  2  0
  3  4  2  0
  4  5  1  0
  5 15  2  0
  5 17  1  0
  6 17  1  0
  6 18  2  0
  6 22  1  0
  7  8  1  0
  7 14  2  0
  7 18  1  0
  8  9  1  0
  8 13  2  0
  9 10  2  0
 10 11  1  0
 11 12  2  0
 11 23  1  0
 12 13  1  0
 14 22  1  0
 15 16  1  0
 16 21  1  0
  3 24  1  0
  4 25  1  0
  9 26  1  0
 10 27  1  0
 12 28  1  0
 13 29  1  0
 14 30  1  0
 15 31  1  0
 17 32  1  0
M  CHG  2  19  -1  21  -1
M  END
>  <mol_id>  (80) 
2026-08-23-6tgu-s0-n100-r6-0080

>  <rmsd_to_ref>  (80) 
4.081632653063397

$$$$
6tgu.A
     RDKit          3D

 32 34  0  0  0  0  0  0  0  0999 V2000
    6.2803   14.9654   37.7153 C   0  0  0  0  0  0  0  0  0  0  0  0
    5.0542   15.7644   38.1656 C   0  0  0  0  0  0  0  0  0  0  0  0
    4.3078   16.4942   37.2432 C   0  0  0  0  0  0  0  0  0  0  0  0
    3.0814   17.0782   37.5771 C   0  0  0  0  0  0  0  0  0  0  0  0
    2.6485   17.0929   38.9110 C   0  0  0  0  0  0  0  0  0  0  0  0
    0.5466   17.3644   40.3151 C   0  0  0  0  0  0  0  0  0  0  0  0
   -0.1022   16.4844   42.3102 C   0  0  0  0  0  0  0  0  0  0  0  0
    0.0888   15.7554   43.5644 C   0  0  0  0  0  0  0  0  0  0  0  0
   -0.9769   15.4770   44.4321 C   0  0  0  0  0  0  0  0  0  0  0  0
   -0.7787   14.7529   45.6035 C   0  0  0  0  0  0  0  0  0  0  0  0
    0.4870   14.2707   45.8790 C   0  0  0  0  0  0  0  0  0  0  0  0
    1.5678   14.5176   45.0459 C   0  0  0  0  0  0  0  0  0  0  0  0
    1.3514   15.2538   43.8843 C   0  0  0  0  0  0  0  0  0  0  0  0
   -1.3099   16.9693   41.8826 C   0  0  0  0  0  0  0  0  0  0  0  0
    3.3823   16.3538   39.8498 C   0  0  0  0  0  0  0  0  0  0  0  0
    4.5626   15.7155   39.4647 C   0  0  0  0  0  0  0  0  0  0  0  0
    1.3702   17.6279   39.2587 N   0  0  0  0  0  0  0  0  0  0  0  0
    0.9666   16.6130   41.3920 N   0  0  0  0  0  0  0  0  0  0  0  0
    6.4672   14.8734   36.4664 O   0  0  0  0  0  0  0  0  0  0  0  0
    6.9499   14.4027   38.6091 O   0  0  0  0  0  0  0  0  0  0  0  0
    5.2171   14.9092   40.3654 O   0  0  0  0  0  0  0  0  0  0  0  0
   -1.1906   17.5980   40.2831 S   0  0  0  0  0  0  0  0  0  0  0  0
    0.7406   13.3326   47.3133 Cl  0  0  0  0  0  0  0  0  0  0  0  0
    4.6948   16.6150   36.2207 H   0  0  0  0  0  0  0  0  0  0  0  0
    2.4553   17.5270   36.7919 H   0  0  0  0  0  0  0  0  0  0  0  0
   -1.9860   15.8369   44.1826 H   0  0  0  0  0  0  0  0  0  0  0  0
   -1.6126   14.5679   46.2966 H   0  0  0  0  0  0  0  0  0  0  0  0
    2.5706   14.1414   45.2966 H   0  0  0  0  0  0  0  0  0  0  0  0
    2.1941   15.4443   43.2035 H   0  0  0  0  0  0  0  0  0  0  0  0
   -2.2329   16.9587   42.4809 H   0  0  0  0  0  0  0  0  0  0  0  0
    3.0283   16.2770   40.8885 H   0  0  0  0  0  0  0  0  0  0  0  0
    1.0084   18.3324   38.6002 H   0  0  0  0  0  0  0  0  0  0  0  0
  1  2  1  0
  1 19  1  0
  1 20  2  0
  2  3  1  0
  2 16  2  0
  3  4  2  0
  4  5  1  0
  5 15  2  0
  5 17  1  0
  6 17  1  0
  6 18  2  0
  6 22  1  0
  7  8  1  0
  7 14  2  0
  7 18  1  0
  8  9  1  0
  8 13  2  0
  9 10  2  0
 10 11  1  0
 11 12  2  0
 11 23  1  0
 12 13  1  0
 14 22  1  0
 15 16  1  0
 16 21  1  0
  3 24  1  0
  4 25  1  0
  9 26  1  0
 10 27  1  0
 12 28  1  0
 13 29  1  0
 14 30  1  0
 15 31  1  0
 17 32  1  0
M  CHG  2  19  -1  21  -1
M  END
>  <mol_id>  (81) 
2026-08-23-6tgu-s0-n100-r6-0081

>  <rmsd_to_ref>  (81) 
4.127551020411971

$$$$
6tgu.A
     RDKit          3D

 32 34  0  0  0  0  0  0  0  0999 V2000
    6.1726   20.9887   40.6791 C   0  0  0  0  0  0  0  0  0  0  0  0
    5.1803   19.9464   40.8082 C   0  0  0  0  0  0  0  0  0  0  0  0
    5.1338   18.8340   39.9900 C   0  0  0  0  0  0  0  0  0  0  0  0
    4.1814   17.8560   40.1291 C   0  0  0  0  0  0  0  0  0  0  0  0
    3.1931   17.9379   41.1236 C   0  0  0  0  0  0  0  0  0  0  0  0
    0.9546   16.9729   41.7501 C   0  0  0  0  0  0  0  0  0  0  0  0
   -1.1055   16.3592   42.4373 C   0  0  0  0  0  0  0  0  0  0  0  0
   -2.1116   15.3022   42.6278 C   0  0  0  0  0  0  0  0  0  0  0  0
   -3.3332   15.5928   43.1600 C   0  0  0  0  0  0  0  0  0  0  0  0
   -4.2820   14.6075   43.3415 C   0  0  0  0  0  0  0  0  0  0  0  0
   -4.0146   13.2987   42.9865 C   0  0  0  0  0  0  0  0  0  0  0  0
   -2.7883   12.9789   42.4469 C   0  0  0  0  0  0  0  0  0  0  0  0
   -1.8631   13.9891   42.2795 C   0  0  0  0  0  0  0  0  0  0  0  0
   -1.3642   17.7050   42.7950 C   0  0  0  0  0  0  0  0  0  0  0  0
    3.2535   19.0457   41.9264 C   0  0  0  0  0  0  0  0  0  0  0  0
    4.2196   20.0384   41.7852 C   0  0  0  0  0  0  0  0  0  0  0  0
    2.2809   16.8899   41.1935 N   0  0  0  0  0  0  0  0  0  0  0  0
    0.0770   16.1817   41.9418 N   0  0  0  0  0  0  0  0  0  0  0  0
    7.1669   20.9519   39.7108 O   0  0  0  0  0  0  0  0  0  0  0  0
    6.1116   21.9553   41.4864 O   0  0  0  0  0  0  0  0  0  0  0  0
    4.2063   21.1432   42.6545 O   0  0  0  0  0  0  0  0  0  0  0  0
    0.2168   18.5367   42.3365 S   0  0  0  0  0  0  0  0  0  0  0  0
   -5.2018   12.0378   43.2078 Cl  0  0  0  0  0  0  0  0  0  0  0  0
    5.9023   18.7806   39.2245 H   0  0  0  0  0  0  0  0  0  0  0  0
    4.2261   17.0257   39.4432 H   0  0  0  0  0  0  0  0  0  0  0  0
   -3.5601   16.5982   43.4404 H   0  0  0  0  0  0  0  0  0  0  0  0
   -5.2259   14.8797   43.7622 H   0  0  0  0  0  0  0  0  0  0  0  0
   -2.5703   11.9548   42.1655 H   0  0  0  0  0  0  0  0  0  0  0  0
   -0.8963   13.7440   41.8559 H   0  0  0  0  0  0  0  0  0  0  0  0
   -2.1990   18.1778   43.2111 H   0  0  0  0  0  0  0  0  0  0  0  0
    2.5481   19.1896   42.7202 H   0  0  0  0  0  0  0  0  0  0  0  0
    2.5342   15.9458   40.8250 H   0  0  0  0  0  0  0  0  0  0  0  0
  1  2  1  0
  1 19  1  0
  1 20  2  0
  2  3  1  0
  2 16  2  0
  3  4  2  0
  4  5  1  0
  5 15  2  0
  5 17  1  0
  6 17  1  0
  6 18  2  0
  6 22  1  0
  7  8  1  0
  7 14  2  0
  7 18  1  0
  8  9  1  0
  8 13  2  0
  9 10  2  0
 10 11  1  0
 11 12  2  0
 11 23  1  0
 12 13  1  0
 14 22  1  0
 15 16  1  0
 16 21  1  0
  3 24  1  0
  4 25  1  0
  9 26  1  0
 10 27  1  0
 12 28  1  0
 13 29  1  0
 14 30  1  0
 15 31  1  0
 17 32  1  0
M  CHG  2  19  -1  21  -1
M  END
>  <mol_id>  (82) 
2026-08-23-6tgu-s0-n100-r6-0082

>  <rmsd_to_ref>  (82) 
4.173469387758702

$$$$
6tgu.A
     RDKit          3D

 32 34  0  0  0  0  0  0  0  0999 V2000
    3.5128   15.4242   36.9607 C   0  0  0  0  0  0  0  0  0  0  0  0
    3.1212   16.6088   37.8485 C   0  0  0  0  0  0  0  0  0  0  0  0
    2.7469   17.8247   37.2809 C   0  0  0  0  0  0  0  0  0  0  0  0
    2.2038   18.8637   38.0437 C   0  0  0  0  0  0  0  0  0  0  0  0
    2.1825   18.7731   39.4430 C   0  0  0  0  0  0  0  0  0  0  0  0
    1.0217   19.7550   41.4806 C   0  0  0  0  0  0  0  0  0  0  0  0
    0.4667   18.8878   43.5092 C   0  0  0  0  0  0  0  0  0  0  0  0
    0.4842   17.8835   44.5733 C   0  0  0  0  0  0  0  0  0  0  0  0
   -0.3092   18.0048   45.7230 C   0  0  0  0  0  0  0  0  0  0  0  0
   -0.3025   17.0213   46.7071 C   0  0  0  0  0  0  0  0  0  0  0  0
    0.4714   15.8929   46.5117 C   0  0  0  0  0  0  0  0  0  0  0  0
    1.2665   15.7295   45.3873 C   0  0  0  0  0  0  0  0  0  0  0  0
    1.2547   16.7299   44.4193 C   0  0  0  0  0  0  0  0  0  0  0  0
   -0.2954   20.0255   43.5425 C   0  0  0  0  0  0  0  0  0  0  0  0
    2.5455   17.5523   40.0296 C   0  0  0  0  0  0  0  0  0  0  0  0
    3.0094   16.5063   39.2299 C   0  0  0  0  0  0  0  0  0  0  0  0
    1.5736   19.7963   40.2326 N   0  0  0  0  0  0  0  0  0  0  0  0
    1.1642   18.6556   42.3002 N   0  0  0  0  0  0  0  0  0  0  0  0
    3.3165   15.5609   35.7174 O   0  0  0  0  0  0  0  0  0  0  0  0
    3.9172   14.3918   37.5389 O   0  0  0  0  0  0  0  0  0  0  0  0
    3.2626   15.2822   39.8022 O   0  0  0  0  0  0  0  0  0  0  0  0
   -0.2083   20.8701   42.0435 S   0  0  0  0  0  0  0  0  0  0  0  0
    0.4584   14.6411   47.7094 Cl  0  0  0  0  0  0  0  0  0  0  0  0
    2.8827   17.9722   36.1993 H   0  0  0  0  0  0  0  0  0  0  0  0
    1.7924   19.7537   37.5450 H   0  0  0  0  0  0  0  0  0  0  0  0
   -0.9474   18.8919   45.8489 H   0  0  0  0  0  0  0  0  0  0  0  0
   -0.9011   17.1394   47.6224 H   0  0  0  0  0  0  0  0  0  0  0  0
    1.8905   14.8321   45.2634 H   0  0  0  0  0  0  0  0  0  0  0  0
    1.8663   16.6087   43.5131 H   0  0  0  0  0  0  0  0  0  0  0  0
   -0.8846   20.3558   44.4107 H   0  0  0  0  0  0  0  0  0  0  0  0
    2.4647   17.4191   41.1185 H   0  0  0  0  0  0  0  0  0  0  0  0
    1.5463   20.7230   39.7838 H   0  0  0  0  0  0  0  0  0  0  0  0
  1  2  1  0
  1 19  1  0
  1 20  2  0
  2  3  1  0
  2 16  2  0
  3  4  2  0
  4  5  1  0
  5 15  2  0
  5 17  1  0
  6 17  1  0
  6 18  2  0
  6 22  1  0
  7  8  1  0
  7 14  2  0
  7 18  1  0
  8  9  1  0
  8 13  2  0
  9 10  2  0
 10 11  1  0
 11 12  2  0
 11 23  1  0
 12 13  1  0
 14 22  1  0
 15 16  1  0
 16 21  1  0
  3 24  1  0
  4 25  1  0
  9 26  1  0
 10 27  1  0
 12 28  1  0
 13 29  1  0
 14 30  1  0
 15 31  1  0
 17 32  1  0
M  CHG  2  19  -1  21  -1
M  END
>  <mol_id>  (83) 
2026-08-23-6tgu-s0-n100-r6-0083

>  <rmsd_to_ref>  (83) 
4.219387755104521

$$$$
6tgu.A
     RDKit          3D

 32 34  0  0  0  0  0  0  0  0999 V2000
    6.0704   18.7580   37.8523 C   0  0  0  0  0  0  0  0  0  0  0  0
    4.9824   18.0160   38.4711 C   0  0  0  0  0  0  0  0  0  0  0  0
    3.6856   18.4745   38.3561 C   0  0  0  0  0  0  0  0  0  0  0  0
    2.6455   17.7726   38.9444 C   0  0  0  0  0  0  0  0  0  0  0  0
    2.8211   16.6138   39.6583 C   0  0  0  0  0  0  0  0  0  0  0  0
    0.5662   16.2607   40.7518 C   0  0  0  0  0  0  0  0  0  0  0  0
   -1.4946   16.2886   41.6368 C   0  0  0  0  0  0  0  0  0  0  0  0
   -2.5729   15.5228   42.2757 C   0  0  0  0  0  0  0  0  0  0  0  0
   -3.7493   16.1446   42.6476 C   0  0  0  0  0  0  0  0  0  0  0  0
   -4.7767   15.4564   43.2580 C   0  0  0  0  0  0  0  0  0  0  0  0
   -4.6426   14.0987   43.5148 C   0  0  0  0  0  0  0  0  0  0  0  0
   -3.4784   13.4483   43.1549 C   0  0  0  0  0  0  0  0  0  0  0  0
   -2.4788   14.1755   42.5473 C   0  0  0  0  0  0  0  0  0  0  0  0
   -1.5992   17.6350   41.3997 C   0  0  0  0  0  0  0  0  0  0  0  0
    4.1571   16.1780   39.7531 C   0  0  0  0  0  0  0  0  0  0  0  0
    5.1924   16.8688   39.1722 C   0  0  0  0  0  0  0  0  0  0  0  0
    1.8696   15.8483   40.2970 N   0  0  0  0  0  0  0  0  0  0  0  0
   -0.3532   15.7682   41.2523 N   0  0  0  0  0  0  0  0  0  0  0  0
    5.8410   19.9260   37.1407 O   0  0  0  0  0  0  0  0  0  0  0  0
    7.2506   18.3331   37.9634 O   0  0  0  0  0  0  0  0  0  0  0  0
    6.4909   16.3709   39.3111 O   0  0  0  0  0  0  0  0  0  0  0  0
    0.0406   18.0554   40.6030 S   0  0  0  0  0  0  0  0  0  0  0  0
   -5.8920   13.1627   44.2819 Cl  0  0  0  0  0  0  0  0  0  0  0  0
    3.4914   19.3901   37.8007 H   0  0  0  0  0  0  0  0  0  0  0  0
    1.6670   18.1706   38.8088 H   0  0  0  0  0  0  0  0  0  0  0  0
   -3.9190   17.2197   42.4713 H   0  0  0  0  0  0  0  0  0  0  0  0
   -5.6725   15.9761   43.5286 H   0  0  0  0  0  0  0  0  0  0  0  0
   -3.3551   12.3938   43.3467 H   0  0  0  0  0  0  0  0  0  0  0  0
   -1.5806   13.6393   42.2777 H   0  0  0  0  0  0  0  0  0  0  0  0
   -2.3557   18.3929   41.5680 H   0  0  0  0  0  0  0  0  0  0  0  0
    4.3830   15.2814   40.2931 H   0  0  0  0  0  0  0  0  0  0  0  0
    2.0740   14.8273   40.4991 H   0  0  0  0  0  0  0  0  0  0  0  0
  1  2  1  0
  1 19  1  0
  1 20  2  0
  2  3  1  0
  2 16  2  0
  3  4  2  0
  4  5  1  0
  5 15  2  0
  5 17  1  0
  6 17  1  0
  6 18  2  0
  6 22  1  0
  7  8  1  0
  7 14  2  0
  7 18  1  0
  8  9  1  0
  8 13  2  0
  9 10  2  0
 10 11  1  0
 11 12  2  0
 11 23  1  0
 12 13  1  0
 14 22  1  0
 15 16  1  0
 16 21  1  0
  3 24  1  0
  4 25  1  0
  9 26  1  0
 10 27  1  0
 12 28  1  0
 13 29  1  0
 14 30  1  0
 15 31  1  0
 17 32  1  0
M  CHG  2  19  -1  21  -1
M  END
>  <mol_id>  (84) 
2026-08-23-6tgu-s0-n100-r6-0084

>  <rmsd_to_ref>  (84) 
4.265306122455742

$$$$
6tgu.A
     RDKit          3D

 32 34  0  0  0  0  0  0  0  0999 V2000
    6.6688   17.0352   39.3987 C   0  0  0  0  0  0  0  0  0  0  0  0
    5.5816   17.9251   40.0075 C   0  0  0  0  0  0  0  0  0  0  0  0
    5.6644   19.3121   39.9067 C   0  0  0  0  0  0  0  0  0  0  0  0
    4.6061   20.1475   40.2790 C   0  0  0  0  0  0  0  0  0  0  0  0
    3.4859   19.6156   40.9340 C   0  0  0  0  0  0  0  0  0  0  0  0
    1.0526   20.1386   41.4521 C   0  0  0  0  0  0  0  0  0  0  0  0
   -0.7878   18.8265   41.7111 C   0  0  0  0  0  0  0  0  0  0  0  0
   -1.5036   17.5602   41.8702 C   0  0  0  0  0  0  0  0  0  0  0  0
   -2.9041   17.4951   41.8872 C   0  0  0  0  0  0  0  0  0  0  0  0
   -3.5648   16.2763   42.0059 C   0  0  0  0  0  0  0  0  0  0  0  0
   -2.8135   15.1175   42.0630 C   0  0  0  0  0  0  0  0  0  0  0  0
   -1.4270   15.1357   42.0436 C   0  0  0  0  0  0  0  0  0  0  0  0
   -0.7843   16.3659   41.9359 C   0  0  0  0  0  0  0  0  0  0  0  0
   -1.4037   20.0436   41.5847 C   0  0  0  0  0  0  0  0  0  0  0  0
    3.3819   18.2208   41.0336 C   0  0  0  0  0  0  0  0  0  0  0  0
    4.4240   17.4106   40.5790 C   0  0  0  0  0  0  0  0  0  0  0  0
    2.3696   20.4443   41.2629 N   0  0  0  0  0  0  0  0  0  0  0  0
    0.6176   18.8338   41.5470 N   0  0  0  0  0  0  0  0  0  0  0  0
    7.5308   17.6127   38.6729 O   0  0  0  0  0  0  0  0  0  0  0  0
    6.5724   15.8047   39.5995 O   0  0  0  0  0  0  0  0  0  0  0  0
    4.2673   16.0449   40.5856 O   0  0  0  0  0  0  0  0  0  0  0  0
   -0.2589   21.2794   41.2242 S   0  0  0  0  0  0  0  0  0  0  0  0
   -3.6232   13.5895   42.1697 Cl  0  0  0  0  0  0  0  0  0  0  0  0
    6.5906   19.7643   39.5226 H   0  0  0  0  0  0  0  0  0  0  0  0
    4.6525   21.2240   40.0575 H   0  0  0  0  0  0  0  0  0  0  0  0
   -3.4900   18.4224   41.8055 H   0  0  0  0  0  0  0  0  0  0  0  0
   -4.6630   16.2358   42.0533 H   0  0  0  0  0  0  0  0  0  0  0  0
   -0.8498   14.2018   42.1116 H   0  0  0  0  0  0  0  0  0  0  0  0
    0.3147   16.3973   41.9018 H   0  0  0  0  0  0  0  0  0  0  0  0
   -2.4851   20.2097   41.6983 H   0  0  0  0  0  0  0  0  0  0  0  0
    2.4803   17.7656   41.4694 H   0  0  0  0  0  0  0  0  0  0  0  0
    2.5972   21.4424   41.3766 H   0  0  0  0  0  0  0  0  0  0  0  0
  1  2  1  0
  1 19  1  0
  1 20  2  0
  2  3  1  0
  2 16  2  0
  3  4  2  0
  4  5  1  0
  5 15  2  0
  5 17  1  0
  6 17  1  0
  6 18  2  0
  6 22  1  0
  7  8  1  0
  7 14  2  0
  7 18  1  0
  8  9  1  0
  8 13  2  0
  9 10  2  0
 10 11  1  0
 11 12  2  0
 11 23  1  0
 12 13  1  0
 14 22  1  0
 15 16  1  0
 16 21  1  0
  3 24  1  0
  4 25  1  0
  9 26  1  0
 10 27  1  0
 12 28  1  0
 13 29  1  0
 14 30  1  0
 15 31  1  0
 17 32  1  0
M  CHG  2  19  -1  21  -1
M  END
>  <mol_id>  (85) 
2026-08-23-6tgu-s0-n100-r6-0085

>  <rmsd_to_ref>  (85) 
4.3112244897962055

$$$$
6tgu.A
     RDKit          3D

 32 34  0  0  0  0  0  0  0  0999 V2000
   -2.6024   20.7120   37.6723 C   0  0  0  0  0  0  0  0  0  0  0  0
   -1.8452   19.6726   38.3595 C   0  0  0  0  0  0  0  0  0  0  0  0
   -2.4879   18.7267   39.1430 C   0  0  0  0  0  0  0  0  0  0  0  0
   -1.8115   17.7402   39.7998 C   0  0  0  0  0  0  0  0  0  0  0  0
   -0.4207   17.6393   39.7097 C   0  0  0  0  0  0  0  0  0  0  0  0
    1.4805   16.1281   40.1988 C   0  0  0  0  0  0  0  0  0  0  0  0
    3.2757   14.7596   40.6360 C   0  0  0  0  0  0  0  0  0  0  0  0
    3.9682   13.6715   41.4225 C   0  0  0  0  0  0  0  0  0  0  0  0
    3.3093   13.0747   42.4772 C   0  0  0  0  0  0  0  0  0  0  0  0
    3.9117   12.0654   43.2299 C   0  0  0  0  0  0  0  0  0  0  0  0
    5.1839   11.6631   42.9099 C   0  0  0  0  0  0  0  0  0  0  0  0
    5.8086   12.2809   41.8525 C   0  0  0  0  0  0  0  0  0  0  0  0
    5.2187   13.2835   41.0999 C   0  0  0  0  0  0  0  0  0  0  0  0
    3.9336   15.3416   39.5974 C   0  0  0  0  0  0  0  0  0  0  0  0
    0.2003   18.5742   38.9374 C   0  0  0  0  0  0  0  0  0  0  0  0
   -0.4876   19.5846   38.2640 C   0  0  0  0  0  0  0  0  0  0  0  0
    0.2043   16.5984   40.4247 N   0  0  0  0  0  0  0  0  0  0  0  0
    2.0821   15.1151   40.9587 N   0  0  0  0  0  0  0  0  0  0  0  0
   -1.9149   21.6329   36.9021 O   0  0  0  0  0  0  0  0  0  0  0  0
   -3.8544   20.8181   37.7415 O   0  0  0  0  0  0  0  0  0  0  0  0
    0.2062   20.5187   37.4833 O   0  0  0  0  0  0  0  0  0  0  0  0
    2.6846   16.5855   38.9705 S   0  0  0  0  0  0  0  0  0  0  0  0
    6.0412   10.4078   43.7808 Cl  0  0  0  0  0  0  0  0  0  0  0  0
   -3.5776   18.8261   39.1985 H   0  0  0  0  0  0  0  0  0  0  0  0
   -2.3947   17.0407   40.3922 H   0  0  0  0  0  0  0  0  0  0  0  0
    2.2994   13.3592   42.7695 H   0  0  0  0  0  0  0  0  0  0  0  0
    3.4052   11.5956   44.0530 H   0  0  0  0  0  0  0  0  0  0  0  0
    6.8121   11.9977   41.5624 H   0  0  0  0  0  0  0  0  0  0  0  0
    5.7696   13.7287   40.2772 H   0  0  0  0  0  0  0  0  0  0  0  0
    4.8598   15.2148   39.1824 H   0  0  0  0  0  0  0  0  0  0  0  0
    1.2618   18.5778   38.8187 H   0  0  0  0  0  0  0  0  0  0  0  0
   -0.3609   16.1471   41.2009 H   0  0  0  0  0  0  0  0  0  0  0  0
  1  2  1  0
  1 19  1  0
  1 20  2  0
  2  3  1  0
  2 16  2  0
  3  4  2  0
  4  5  1  0
  5 15  2  0
  5 17  1  0
  6 17  1  0
  6 18  2  0
  6 22  1  0
  7  8  1  0
  7 14  2  0
  7 18  1  0
  8  9  1  0
  8 13  2  0
  9 10  2  0
 10 11  1  0
 11 12  2  0
 11 23  1  0
 12 13  1  0
 14 22  1  0
 15 16  1  0
 16 21  1  0
  3 24  1  0
  4 25  1  0
  9 26  1  0
 10 27  1  0
 12 28  1  0
 13 29  1  0
 14 30  1  0
 15 31  1  0
 17 32  1  0
M  CHG  2  19  -1  21  -1
M  END
>  <mol_id>  (86) 
2026-08-23-6tgu-s0-n100-r6-0086

>  <rmsd_to_ref>  (86) 
4.357142857143831

$$$$
6tgu.A
     RDKit          3D

 32 34  0  0  0  0  0  0  0  0999 V2000
    6.3137   16.1464   40.9972 C   0  0  0  0  0  0  0  0  0  0  0  0
    4.9296   16.6555   41.4092 C   0  0  0  0  0  0  0  0  0  0  0  0
    4.7389   17.9946   41.7423 C   0  0  0  0  0  0  0  0  0  0  0  0
    3.4642   18.5363   41.9380 C   0  0  0  0  0  0  0  0  0  0  0  0
    2.3409   17.6974   41.9759 C   0  0  0  0  0  0  0  0  0  0  0  0
   -0.1887   17.7512   41.7280 C   0  0  0  0  0  0  0  0  0  0  0  0
   -1.6954   16.2412   40.9371 C   0  0  0  0  0  0  0  0  0  0  0  0
   -2.1365   14.9275   40.4671 C   0  0  0  0  0  0  0  0  0  0  0  0
   -3.4296   14.7118   39.9697 C   0  0  0  0  0  0  0  0  0  0  0  0
   -3.8176   13.4622   39.4964 C   0  0  0  0  0  0  0  0  0  0  0  0
   -2.8875   12.4399   39.4834 C   0  0  0  0  0  0  0  0  0  0  0  0
   -1.5966   12.6110   39.9604 C   0  0  0  0  0  0  0  0  0  0  0  0
   -1.2310   13.8657   40.4403 C   0  0  0  0  0  0  0  0  0  0  0  0
   -2.4914   17.3559   40.9527 C   0  0  0  0  0  0  0  0  0  0  0  0
    2.5139   16.3491   41.6320 C   0  0  0  0  0  0  0  0  0  0  0  0
    3.7928   15.8573   41.3643 C   0  0  0  0  0  0  0  0  0  0  0  0
    1.0267   18.2413   42.1106 N   0  0  0  0  0  0  0  0  0  0  0  0
   -0.3413   16.4533   41.2887 N   0  0  0  0  0  0  0  0  0  0  0  0
    7.2083   17.0243   40.8182 O   0  0  0  0  0  0  0  0  0  0  0  0
    6.4282   14.9180   40.7930 O   0  0  0  0  0  0  0  0  0  0  0  0
    3.9384   14.5621   40.9273 O   0  0  0  0  0  0  0  0  0  0  0  0
   -1.5846   18.7551   41.3859 S   0  0  0  0  0  0  0  0  0  0  0  0
   -3.3440   10.8896   38.8592 Cl  0  0  0  0  0  0  0  0  0  0  0  0
    5.6179   18.6463   41.8549 H   0  0  0  0  0  0  0  0  0  0  0  0
    3.3425   19.6224   42.0625 H   0  0  0  0  0  0  0  0  0  0  0  0
   -4.1489   15.5438   39.9534 H   0  0  0  0  0  0  0  0  0  0  0  0
   -4.8440   13.2913   39.1397 H   0  0  0  0  0  0  0  0  0  0  0  0
   -0.8798   11.7767   39.9595 H   0  0  0  0  0  0  0  0  0  0  0  0
   -0.2059   14.0236   40.8065 H   0  0  0  0  0  0  0  0  0  0  0  0
   -3.5664   17.3573   40.7197 H   0  0  0  0  0  0  0  0  0  0  0  0
    1.6430   15.6797   41.5733 H   0  0  0  0  0  0  0  0  0  0  0  0
    0.9899   19.1596   42.5757 H   0  0  0  0  0  0  0  0  0  0  0  0
  1  2  1  0
  1 19  1  0
  1 20  2  0
  2  3  1  0
  2 16  2  0
  3  4  2  0
  4  5  1  0
  5 15  2  0
  5 17  1  0
  6 17  1  0
  6 18  2  0
  6 22  1  0
  7  8  1  0
  7 14  2  0
  7 18  1  0
  8  9  1  0
  8 13  2  0
  9 10  2  0
 10 11  1  0
 11 12  2  0
 11 23  1  0
 12 13  1  0
 14 22  1  0
 15 16  1  0
 16 21  1  0
  3 24  1  0
  4 25  1  0
  9 26  1  0
 10 27  1  0
 12 28  1  0
 13 29  1  0
 14 30  1  0
 15 31  1  0
 17 32  1  0
M  CHG  2  19  -1  21  -1
M  END
>  <mol_id>  (87) 
2026-08-23-6tgu-s0-n100-r6-0087

>  <rmsd_to_ref>  (87) 
4.403061224493524

$$$$
6tgu.A
     RDKit          3D

 32 34  0  0  0  0  0  0  0  0999 V2000
    0.9193   18.3367   35.1169 C   0  0  0  0  0  0  0  0  0  0  0  0
    0.6165   17.8608   36.4581 C   0  0  0  0  0  0  0  0  0  0  0  0
    0.5933   18.7501   37.5135 C   0  0  0  0  0  0  0  0  0  0  0  0
    0.3067   18.3024   38.7934 C   0  0  0  0  0  0  0  0  0  0  0  0
    0.0354   16.9914   39.0950 C   0  0  0  0  0  0  0  0  0  0  0  0
    0.0962   16.9553   41.6248 C   0  0  0  0  0  0  0  0  0  0  0  0
    0.3150   17.2382   43.8391 C   0  0  0  0  0  0  0  0  0  0  0  0
    0.0116   16.7299   45.1834 C   0  0  0  0  0  0  0  0  0  0  0  0
    0.4632   17.3991   46.3045 C   0  0  0  0  0  0  0  0  0  0  0  0
    0.2040   16.9431   47.5799 C   0  0  0  0  0  0  0  0  0  0  0  0
   -0.5303   15.7790   47.7620 C   0  0  0  0  0  0  0  0  0  0  0  0
   -0.9958   15.0872   46.6608 C   0  0  0  0  0  0  0  0  0  0  0  0
   -0.7132   15.5798   45.4059 C   0  0  0  0  0  0  0  0  0  0  0  0
    1.0611   18.3713   43.6401 C   0  0  0  0  0  0  0  0  0  0  0  0
    0.0681   16.1152   37.9927 C   0  0  0  0  0  0  0  0  0  0  0  0
    0.3512   16.5525   36.7219 C   0  0  0  0  0  0  0  0  0  0  0  0
   -0.2426   16.4349   40.3248 N   0  0  0  0  0  0  0  0  0  0  0  0
   -0.0822   16.6617   42.7295 N   0  0  0  0  0  0  0  0  0  0  0  0
    1.1878   19.6735   34.8633 O   0  0  0  0  0  0  0  0  0  0  0  0
    0.9397   17.5182   34.1601 O   0  0  0  0  0  0  0  0  0  0  0  0
    0.3641   15.6206   35.6804 O   0  0  0  0  0  0  0  0  0  0  0  0
    1.1289   18.5141   41.7759 S   0  0  0  0  0  0  0  0  0  0  0  0
   -0.8969   15.1397   49.3375 Cl  0  0  0  0  0  0  0  0  0  0  0  0
    0.8025   19.8021   37.3288 H   0  0  0  0  0  0  0  0  0  0  0  0
    0.2912   19.0392   39.5623 H   0  0  0  0  0  0  0  0  0  0  0  0
    1.0507   18.3291   46.2287 H   0  0  0  0  0  0  0  0  0  0  0  0
    0.5711   17.4928   48.4218 H   0  0  0  0  0  0  0  0  0  0  0  0
   -1.5676   14.1803   46.7819 H   0  0  0  0  0  0  0  0  0  0  0  0
   -1.0906   15.0168   44.5647 H   0  0  0  0  0  0  0  0  0  0  0  0
    1.5501   19.0969   44.2800 H   0  0  0  0  0  0  0  0  0  0  0  0
   -0.1322   15.0737   38.1399 H   0  0  0  0  0  0  0  0  0  0  0  0
   -0.7677   15.5145   40.3719 H   0  0  0  0  0  0  0  0  0  0  0  0
  1  2  1  0
  1 19  1  0
  1 20  2  0
  2  3  1  0
  2 16  2  0
  3  4  2  0
  4  5  1  0
  5 15  2  0
  5 17  1  0
  6 17  1  0
  6 18  2  0
  6 22  1  0
  7  8  1  0
  7 14  2  0
  7 18  1  0
  8  9  1  0
  8 13  2  0
  9 10  2  0
 10 11  1  0
 11 12  2  0
 11 23  1  0
 12 13  1  0
 14 22  1  0
 15 16  1  0
 16 21  1  0
  3 24  1  0
  4 25  1  0
  9 26  1  0
 10 27  1  0
 12 28  1  0
 13 29  1  0
 14 30  1  0
 15 31  1  0
 17 32  1  0
M  CHG  2  19  -1  21  -1
M  END
>  <mol_id>  (88) 
2026-08-23-6tgu-s0-n100-r6-0088

>  <rmsd_to_ref>  (88) 
4.4489795918423845

$$$$
6tgu.A
     RDKit          3D

 32 34  0  0  0  0  0  0  0  0999 V2000
   -0.2752   16.3310   36.5298 C   0  0  0  0  0  0  0  0  0  0  0  0
   -0.0395   17.3868   37.6135 C   0  0  0  0  0  0  0  0  0  0  0  0
   -0.9375   18.4382   37.7837 C   0  0  0  0  0  0  0  0  0  0  0  0
   -0.8617   19.3092   38.8755 C   0  0  0  0  0  0  0  0  0  0  0  0
    0.2370   19.2541   39.7453 C   0  0  0  0  0  0  0  0  0  0  0  0
    0.9537   19.9357   42.0873 C   0  0  0  0  0  0  0  0  0  0  0  0
    2.3758   19.0048   43.5995 C   0  0  0  0  0  0  0  0  0  0  0  0
    3.4098   18.0727   44.0504 C   0  0  0  0  0  0  0  0  0  0  0  0
    3.8145   18.0034   45.3911 C   0  0  0  0  0  0  0  0  0  0  0  0
    4.7757   17.0862   45.8044 C   0  0  0  0  0  0  0  0  0  0  0  0
    5.2975   16.2076   44.8737 C   0  0  0  0  0  0  0  0  0  0  0  0
    4.9215   16.2376   43.5392 C   0  0  0  0  0  0  0  0  0  0  0  0
    3.9669   17.1702   43.1431 C   0  0  0  0  0  0  0  0  0  0  0  0
    1.7324   19.8912   44.4221 C   0  0  0  0  0  0  0  0  0  0  0  0
    1.1440   18.1954   39.5945 C   0  0  0  0  0  0  0  0  0  0  0  0
    0.9937   17.2949   38.5383 C   0  0  0  0  0  0  0  0  0  0  0  0
    0.2977   20.0927   40.9004 N   0  0  0  0  0  0  0  0  0  0  0  0
    1.8889   18.9398   42.2726 N   0  0  0  0  0  0  0  0  0  0  0  0
   -1.3899   16.3751   35.9309 O   0  0  0  0  0  0  0  0  0  0  0  0
    0.6139   15.4646   36.3796 O   0  0  0  0  0  0  0  0  0  0  0  0
    1.8250   16.2028   38.4610 O   0  0  0  0  0  0  0  0  0  0  0  0
    0.4510   20.6866   43.5896 S   0  0  0  0  0  0  0  0  0  0  0  0
    6.4651   15.0328   45.3819 Cl  0  0  0  0  0  0  0  0  0  0  0  0
   -1.7307   18.5880   37.0365 H   0  0  0  0  0  0  0  0  0  0  0  0
   -1.6656   20.0390   39.0523 H   0  0  0  0  0  0  0  0  0  0  0  0
    3.3650   18.6852   46.1280 H   0  0  0  0  0  0  0  0  0  0  0  0
    5.1134   17.0607   46.8510 H   0  0  0  0  0  0  0  0  0  0  0  0
    5.3663   15.5422   42.8122 H   0  0  0  0  0  0  0  0  0  0  0  0
    3.6444   17.1964   42.0917 H   0  0  0  0  0  0  0  0  0  0  0  0
    1.9984   20.0711   45.4742 H   0  0  0  0  0  0  0  0  0  0  0  0
    1.9729   18.0746   40.3075 H   0  0  0  0  0  0  0  0  0  0  0  0
   -0.2462   20.9641   40.8248 H   0  0  0  0  0  0  0  0  0  0  0  0
  1  2  1  0
  1 19  1  0
  1 20  2  0
  2  3  1  0
  2 16  2  0
  3  4  2  0
  4  5  1  0
  5 15  2  0
  5 17  1  0
  6 17  1  0
  6 18  2  0
  6 22  1  0
  7  8  1  0
  7 14  2  0
  7 18  1  0
  8  9  1  0
  8 13  2  0
  9 10  2  0
 10 11  1  0
 11 12  2  0
 11 23  1  0
 12 13  1  0
 14 22  1  0
 15 16  1  0
 16 21  1  0
  3 24  1  0
  4 25  1  0
  9 26  1  0
 10 27  1  0
 12 28  1  0
 13 29  1  0
 14 30  1  0
 15 31  1  0
 17 32  1  0
M  CHG  2  19  -1  21  -1
M  END
>  <mol_id>  (89) 
2026-08-23-6tgu-s0-n100-r6-0089

>  <rmsd_to_ref>  (89) 
4.494897959192613

$$$$
6tgu.A
     RDKit          3D

 32 34  0  0  0  0  0  0  0  0999 V2000
   -1.9546   21.0097   39.2289 C   0  0  0  0  0  0  0  0  0  0  0  0
   -0.5640   20.9513   39.6606 C   0  0  0  0  0  0  0  0  0  0  0  0
   -0.0575   19.7857   40.1915 C   0  0  0  0  0  0  0  0  0  0  0  0
    1.2669   19.7670   40.5907 C   0  0  0  0  0  0  0  0  0  0  0  0
    2.1037   20.8568   40.4832 C   0  0  0  0  0  0  0  0  0  0  0  0
    4.0357   19.7058   41.4322 C   0  0  0  0  0  0  0  0  0  0  0  0
    4.5569   17.6408   42.2609 C   0  0  0  0  0  0  0  0  0  0  0  0
    4.1499   16.2596   42.5909 C   0  0  0  0  0  0  0  0  0  0  0  0
    5.0245   15.3626   43.1432 C   0  0  0  0  0  0  0  0  0  0  0  0
    4.5795   14.0848   43.4282 C   0  0  0  0  0  0  0  0  0  0  0  0
    3.2949   13.6590   43.1859 C   0  0  0  0  0  0  0  0  0  0  0  0
    2.4149   14.5651   42.6290 C   0  0  0  0  0  0  0  0  0  0  0  0
    2.8638   15.8334   42.3483 C   0  0  0  0  0  0  0  0  0  0  0  0
    5.9286   18.0394   42.5378 C   0  0  0  0  0  0  0  0  0  0  0  0
    1.5185   22.0070   39.9339 C   0  0  0  0  0  0  0  0  0  0  0  0
    0.2249   22.0672   39.5304 C   0  0  0  0  0  0  0  0  0  0  0  0
    3.4612   20.8560   40.8863 N   0  0  0  0  0  0  0  0  0  0  0  0
    3.8340   18.5396   41.7530 N   0  0  0  0  0  0  0  0  0  0  0  0
   -2.7897   19.9002   39.3433 O   0  0  0  0  0  0  0  0  0  0  0  0
   -2.3885   22.1016   38.7435 O   0  0  0  0  0  0  0  0  0  0  0  0
   -0.2929   23.2265   38.9981 O   0  0  0  0  0  0  0  0  0  0  0  0
    5.8593   19.8319   41.9322 S   0  0  0  0  0  0  0  0  0  0  0  0
    2.8415   12.0216   43.5858 Cl  0  0  0  0  0  0  0  0  0  0  0  0
   -0.7143   18.9323   40.2753 H   0  0  0  0  0  0  0  0  0  0  0  0
    1.6279   18.8401   41.0005 H   0  0  0  0  0  0  0  0  0  0  0  0
    6.0501   15.6369   43.3580 H   0  0  0  0  0  0  0  0  0  0  0  0
    5.3098   13.4102   43.8651 H   0  0  0  0  0  0  0  0  0  0  0  0
    1.4161   14.2432   42.4377 H   0  0  0  0  0  0  0  0  0  0  0  0
    2.1575   16.5496   41.9050 H   0  0  0  0  0  0  0  0  0  0  0  0
    6.6998   17.5977   42.9109 H   0  0  0  0  0  0  0  0  0  0  0  0
    2.1467   22.8916   39.8315 H   0  0  0  0  0  0  0  0  0  0  0  0
    3.9904   21.7464   40.7527 H   0  0  0  0  0  0  0  0  0  0  0  0
  1  2  1  0
  1 19  1  0
  1 20  2  0
  2  3  1  0
  2 16  2  0
  3  4  2  0
  4  5  1  0
  5 15  2  0
  5 17  1  0
  6 17  1  0
  6 18  2  0
  6 22  1  0
  7  8  1  0
  7 14  2  0
  7 18  1  0
  8  9  1  0
  8 13  2  0
  9 10  2  0
 10 11  1  0
 11 12  2  0
 11 23  1  0
 12 13  1  0
 14 22  1  0
 15 16  1  0
 16 21  1  0
  3 24  1  0
  4 25  1  0
  9 26  1  0
 10 27  1  0
 12 28  1  0
 13 29  1  0
 14 30  1  0
 15 31  1  0
 17 32  1  0
M  CHG  2  19  -1  21  -1
M  END
>  <mol_id>  (90) 
2026-08-23-6tgu-s0-n100-r6-0090

>  <rmsd_to_ref>  (90) 
4.540816326534651

$$$$
6tgu.A
     RDKit          3D

 32 34  0  0  0  0  0  0  0  0999 V2000
    3.3100   22.0968   43.3918 C   0  0  0  0  0  0  0  0  0  0  0  0
    2.6603   20.7163   43.5216 C   0  0  0  0  0  0  0  0  0  0  0  0
    1.4892   20.5522   44.2580 C   0  0  0  0  0  0  0  0  0  0  0  0
    0.7657   19.3552   44.2442 C   0  0  0  0  0  0  0  0  0  0  0  0
    1.2980   18.2179   43.6198 C   0  0  0  0  0  0  0  0  0  0  0  0
    0.6011   15.9727   42.6519 C   0  0  0  0  0  0  0  0  0  0  0  0
    1.4029   14.7160   40.9333 C   0  0  0  0  0  0  0  0  0  0  0  0
    2.3650   14.3479   39.8941 C   0  0  0  0  0  0  0  0  0  0  0  0
    2.1154   13.3113   38.9835 C   0  0  0  0  0  0  0  0  0  0  0  0
    3.0294   13.0000   37.9817 C   0  0  0  0  0  0  0  0  0  0  0  0
    4.1764   13.7632   37.8700 C   0  0  0  0  0  0  0  0  0  0  0  0
    4.4601   14.8007   38.7452 C   0  0  0  0  0  0  0  0  0  0  0  0
    3.5385   15.0894   39.7479 C   0  0  0  0  0  0  0  0  0  0  0  0
    0.2018   14.0852   41.1230 C   0  0  0  0  0  0  0  0  0  0  0  0
    2.4702   18.3685   42.8652 C   0  0  0  0  0  0  0  0  0  0  0  0
    3.1259   19.6007   42.8361 C   0  0  0  0  0  0  0  0  0  0  0  0
    0.5441   17.0068   43.5414 N   0  0  0  0  0  0  0  0  0  0  0  0
    1.6234   15.8620   41.7335 N   0  0  0  0  0  0  0  0  0  0  0  0
    2.6455   23.0781   43.8375 O   0  0  0  0  0  0  0  0  0  0  0  0
    4.4028   22.1544   42.7866 O   0  0  0  0  0  0  0  0  0  0  0  0
    4.2134   19.7655   42.0115 O   0  0  0  0  0  0  0  0  0  0  0  0
   -0.7462   14.9063   42.3041 S   0  0  0  0  0  0  0  0  0  0  0  0
    5.3042   13.4135   36.6022 Cl  0  0  0  0  0  0  0  0  0  0  0  0
    1.1222   21.3898   44.8693 H   0  0  0  0  0  0  0  0  0  0  0  0
   -0.2230   19.3059   44.7240 H   0  0  0  0  0  0  0  0  0  0  0  0
    1.1819   12.7349   39.0625 H   0  0  0  0  0  0  0  0  0  0  0  0
    2.8430   12.1632   37.2925 H   0  0  0  0  0  0  0  0  0  0  0  0
    5.3898   15.3809   38.6496 H   0  0  0  0  0  0  0  0  0  0  0  0
    3.7395   15.9202   40.4402 H   0  0  0  0  0  0  0  0  0  0  0  0
   -0.1151   13.1756   40.5918 H   0  0  0  0  0  0  0  0  0  0  0  0
    2.8725   17.5170   42.2969 H   0  0  0  0  0  0  0  0  0  0  0  0
   -0.1628   16.8948   44.2821 H   0  0  0  0  0  0  0  0  0  0  0  0
  1  2  1  0
  1 19  1  0
  1 20  2  0
  2  3  1  0
  2 16  2  0
  3  4  2  0
  4  5  1  0
  5 15  2  0
  5 17  1  0
  6 17  1  0
  6 18  2  0
  6 22  1  0
  7  8  1  0
  7 14  2  0
  7 18  1  0
  8  9  1  0
  8 13  2  0
  9 10  2  0
 10 11  1  0
 11 12  2  0
 11 23  1  0
 12 13  1  0
 14 22  1  0
 15 16  1  0
 16 21  1  0
  3 24  1  0
  4 25  1  0
  9 26  1  0
 10 27  1  0
 12 28  1  0
 13 29  1  0
 14 30  1  0
 15 31  1  0
 17 32  1  0
M  CHG  2  19  -1  21  -1
M  END
>  <mol_id>  (91) 
2026-08-23-6tgu-s0-n100-r6-0091

>  <rmsd_to_ref>  (91) 
4.586734693884114

$$$$
6tgu.A
     RDKit          3D

 32 34  0  0  0  0  0  0  0  0999 V2000
    4.9008   20.8502   43.6223 C   0  0  0  0  0  0  0  0  0  0  0  0
    4.3455   19.7669   42.8312 C   0  0  0  0  0  0  0  0  0  0  0  0
    3.0040   19.5462   42.7867 C   0  0  0  0  0  0  0  0  0  0  0  0
    2.4785   18.4981   42.0206 C   0  0  0  0  0  0  0  0  0  0  0  0
    3.2651   17.6520   41.2879 C   0  0  0  0  0  0  0  0  0  0  0  0
    1.6440   15.8402   40.6404 C   0  0  0  0  0  0  0  0  0  0  0  0
    0.0045   14.3333   40.2675 C   0  0  0  0  0  0  0  0  0  0  0  0
   -0.5424   13.2336   39.4530 C   0  0  0  0  0  0  0  0  0  0  0  0
   -1.7414   12.6483   39.7784 C   0  0  0  0  0  0  0  0  0  0  0  0
   -2.2589   11.6189   39.0226 C   0  0  0  0  0  0  0  0  0  0  0  0
   -1.6033   11.1301   37.9113 C   0  0  0  0  0  0  0  0  0  0  0  0
   -0.3985   11.7151   37.5806 C   0  0  0  0  0  0  0  0  0  0  0  0
    0.1149   12.7470   38.3427 C   0  0  0  0  0  0  0  0  0  0  0  0
   -0.6565   14.8105   41.3740 C   0  0  0  0  0  0  0  0  0  0  0  0
    4.6443   17.8989   41.3489 C   0  0  0  0  0  0  0  0  0  0  0  0
    5.1636   18.9295   42.1016 C   0  0  0  0  0  0  0  0  0  0  0  0
    2.8477   16.5695   40.5104 N   0  0  0  0  0  0  0  0  0  0  0  0
    1.1355   14.9322   40.0140 N   0  0  0  0  0  0  0  0  0  0  0  0
    4.0730   21.6807   44.3477 O   0  0  0  0  0  0  0  0  0  0  0  0
    6.1423   21.0365   43.6495 O   0  0  0  0  0  0  0  0  0  0  0  0
    6.5471   19.0959   42.0997 O   0  0  0  0  0  0  0  0  0  0  0  0
    0.4373   16.1571   42.0183 S   0  0  0  0  0  0  0  0  0  0  0  0
   -2.2780    9.8201   36.9622 Cl  0  0  0  0  0  0  0  0  0  0  0  0
    2.3218   20.1884   43.3515 H   0  0  0  0  0  0  0  0  0  0  0  0
    1.4255   18.3972   42.0277 H   0  0  0  0  0  0  0  0  0  0  0  0
   -2.2941   13.0008   40.6470 H   0  0  0  0  0  0  0  0  0  0  0  0
   -3.1985   11.1981   39.3213 H   0  0  0  0  0  0  0  0  0  0  0  0
    0.1511   11.3682   36.7215 H   0  0  0  0  0  0  0  0  0  0  0  0
    1.0684   13.1945   38.0633 H   0  0  0  0  0  0  0  0  0  0  0  0
   -1.6233   14.5434   41.8742 H   0  0  0  0  0  0  0  0  0  0  0  0
    5.3338   17.2553   40.7825 H   0  0  0  0  0  0  0  0  0  0  0  0
    3.4867   16.2394   39.7268 H   0  0  0  0  0  0  0  0  0  0  0  0
  1  2  1  0
  1 19  1  0
  1 20  2  0
  2  3  1  0
  2 16  2  0
  3  4  2  0
  4  5  1  0
  5 15  2  0
  5 17  1  0
  6 17  1  0
  6 18  2  0
  6 22  1  0
  7  8  1  0
  7 14  2  0
  7 18  1  0
  8  9  1  0
  8 13  2  0
  9 10  2  0
 10 11  1  0
 11 12  2  0
 11 23  1  0
 12 13  1  0
 14 22  1  0
 15 16  1  0
 16 21  1  0
  3 24  1  0
  4 25  1  0
  9 26  1  0
 10 27  1  0
 12 28  1  0
 13 29  1  0
 14 30  1  0
 15 31  1  0
 17 32  1  0
M  CHG  2  19  -1  21  -1
M  END
>  <mol_id>  (92) 
2026-08-23-6tgu-s0-n100-r6-0092

>  <rmsd_to_ref>  (92) 
4.632653061224494

$$$$
6tgu.A
     RDKit          3D

 32 34  0  0  0  0  0  0  0  0999 V2000
    1.2581   22.9501   42.4422 C   0  0  0  0  0  0  0  0  0  0  0  0
    1.1788   21.4653   42.8079 C   0  0  0  0  0  0  0  0  0  0  0  0
    0.2731   21.0209   43.7686 C   0  0  0  0  0  0  0  0  0  0  0  0
    0.0376   19.6606   43.9932 C   0  0  0  0  0  0  0  0  0  0  0  0
    0.8427   18.6947   43.3723 C   0  0  0  0  0  0  0  0  0  0  0  0
    0.8646   16.2312   42.7445 C   0  0  0  0  0  0  0  0  0  0  0  0
    1.7937   15.0874   41.0113 C   0  0  0  0  0  0  0  0  0  0  0  0
    2.6530   14.9223   39.8385 C   0  0  0  0  0  0  0  0  0  0  0  0
    2.6587   13.7421   39.0814 C   0  0  0  0  0  0  0  0  0  0  0  0
    3.4590   13.6188   37.9499 C   0  0  0  0  0  0  0  0  0  0  0  0
    4.2215   14.7021   37.5556 C   0  0  0  0  0  0  0  0  0  0  0  0
    4.2414   15.8896   38.2715 C   0  0  0  0  0  0  0  0  0  0  0  0
    3.4425   15.9894   39.4071 C   0  0  0  0  0  0  0  0  0  0  0  0
    0.9455   14.1199   41.4814 C   0  0  0  0  0  0  0  0  0  0  0  0
    1.7515   19.1243   42.3946 C   0  0  0  0  0  0  0  0  0  0  0  0
    1.9053   20.4880   42.1383 C   0  0  0  0  0  0  0  0  0  0  0  0
    0.5746   17.3015   43.5408 N   0  0  0  0  0  0  0  0  0  0  0  0
    1.7048   16.3432   41.6572 N   0  0  0  0  0  0  0  0  0  0  0  0
    0.3605   23.7001   42.9270 O   0  0  0  0  0  0  0  0  0  0  0  0
    2.1502   23.2879   41.6336 O   0  0  0  0  0  0  0  0  0  0  0  0
    2.7204   20.8917   41.1075 O   0  0  0  0  0  0  0  0  0  0  0  0
   -0.0428   14.7312   42.7532 S   0  0  0  0  0  0  0  0  0  0  0  0
    5.1917   14.5773   36.1257 Cl  0  0  0  0  0  0  0  0  0  0  0  0
   -0.2737   21.7628   44.3692 H   0  0  0  0  0  0  0  0  0  0  0  0
   -0.7808   19.3478   44.6583 H   0  0  0  0  0  0  0  0  0  0  0  0
    2.0201   12.9001   39.3869 H   0  0  0  0  0  0  0  0  0  0  0  0
    3.4844   12.6779   37.3806 H   0  0  0  0  0  0  0  0  0  0  0  0
    4.8726   16.7313   37.9501 H   0  0  0  0  0  0  0  0  0  0  0  0
    3.4331   16.9302   39.9772 H   0  0  0  0  0  0  0  0  0  0  0  0
    0.9013   13.0898   41.0979 H   0  0  0  0  0  0  0  0  0  0  0  0
    2.3423   18.3878   41.8304 H   0  0  0  0  0  0  0  0  0  0  0  0
    0.0778   17.0643   44.4113 H   0  0  0  0  0  0  0  0  0  0  0  0
  1  2  1  0
  1 19  1  0
  1 20  2  0
  2  3  1  0
  2 16  2  0
  3  4  2  0
  4  5  1  0
  5 15  2  0
  5 17  1  0
  6 17  1  0
  6 18  2  0
  6 22  1  0
  7  8  1  0
  7 14  2  0
  7 18  1  0
  8  9  1  0
  8 13  2  0
  9 10  2  0
 10 11  1  0
 11 12  2  0
 11 23  1  0
 12 13  1  0
 14 22  1  0
 15 16  1  0
 16 21  1  0
  3 24  1  0
  4 25  1  0
  9 26  1  0
 10 27  1  0
 12 28  1  0
 13 29  1  0
 14 30  1  0
 15 31  1  0
 17 32  1  0
M  CHG  2  19  -1  21  -1
M  END
>  <mol_id>  (93) 
2026-08-23-6tgu-s0-n100-r6-0093

>  <rmsd_to_ref>  (93) 
4.678571428579639

$$$$
6tgu.A
     RDKit          3D

 32 34  0  0  0  0  0  0  0  0999 V2000
    3.4843   14.2935   36.5766 C   0  0  0  0  0  0  0  0  0  0  0  0
    2.8504   15.0860   37.5857 C   0  0  0  0  0  0  0  0  0  0  0  0
    1.8469   14.6721   38.4284 C   0  0  0  0  0  0  0  0  0  0  0  0
    1.2817   15.5011   39.4019 C   0  0  0  0  0  0  0  0  0  0  0  0
    1.7100   16.7941   39.5629 C   0  0  0  0  0  0  0  0  0  0  0  0
    0.6133   17.5378   41.7263 C   0  0  0  0  0  0  0  0  0  0  0  0
   -0.0195   17.1417   43.8616 C   0  0  0  0  0  0  0  0  0  0  0  0
    0.2546   16.6306   45.2089 C   0  0  0  0  0  0  0  0  0  0  0  0
    1.4520   16.0394   45.5216 C   0  0  0  0  0  0  0  0  0  0  0  0
    1.7490   15.5860   46.7948 C   0  0  0  0  0  0  0  0  0  0  0  0
    0.8312   15.7174   47.8088 C   0  0  0  0  0  0  0  0  0  0  0  0
   -0.3813   16.3071   47.5275 C   0  0  0  0  0  0  0  0  0  0  0  0
   -0.6571   16.7537   46.2456 C   0  0  0  0  0  0  0  0  0  0  0  0
   -1.3199   17.7110   43.6029 C   0  0  0  0  0  0  0  0  0  0  0  0
    2.7379   17.2252   38.7012 C   0  0  0  0  0  0  0  0  0  0  0  0
    3.2860   16.3951   37.7480 C   0  0  0  0  0  0  0  0  0  0  0  0
    1.2622   17.7242   40.5036 N   0  0  0  0  0  0  0  0  0  0  0  0
    0.7583   17.1509   42.8380 N   0  0  0  0  0  0  0  0  0  0  0  0
    3.0761   12.9813   36.3821 O   0  0  0  0  0  0  0  0  0  0  0  0
    4.4014   14.7819   35.8768 O   0  0  0  0  0  0  0  0  0  0  0  0
    4.3071   16.9117   36.9389 O   0  0  0  0  0  0  0  0  0  0  0  0
   -1.1897   18.1899   41.8193 S   0  0  0  0  0  0  0  0  0  0  0  0
    1.1448   15.1621   49.4574 Cl  0  0  0  0  0  0  0  0  0  0  0  0
    1.4926   13.6716   38.3194 H   0  0  0  0  0  0  0  0  0  0  0  0
    0.4886   15.1587   40.0606 H   0  0  0  0  0  0  0  0  0  0  0  0
    2.2011   15.9241   44.7327 H   0  0  0  0  0  0  0  0  0  0  0  0
    2.6940   15.1212   47.0091 H   0  0  0  0  0  0  0  0  0  0  0  0
   -1.1481   16.4448   48.2835 H   0  0  0  0  0  0  0  0  0  0  0  0
   -1.6133   17.2149   46.0678 H   0  0  0  0  0  0  0  0  0  0  0  0
   -2.1354   17.8401   44.2069 H   0  0  0  0  0  0  0  0  0  0  0  0
    3.1229   18.2322   38.7735 H   0  0  0  0  0  0  0  0  0  0  0  0
    1.4231   18.7628   40.2492 H   0  0  0  0  0  0  0  0  0  0  0  0
  1  2  1  0
  1 19  1  0
  1 20  2  0
  2  3  1  0
  2 16  2  0
  3  4  2  0
  4  5  1  0
  5 15  2  0
  5 17  1  0
  6 17  1  0
  6 18  2  0
  6 22  1  0
  7  8  1  0
  7 14  2  0
  7 18  1  0
  8  9  1  0
  8 13  2  0
  9 10  2  0
 10 11  1  0
 11 12  2  0
 11 23  1  0
 12 13  1  0
 14 22  1  0
 15 16  1  0
 16 21  1  0
  3 24  1  0
  4 25  1  0
  9 26  1  0
 10 27  1  0
 12 28  1  0
 13 29  1  0
 14 30  1  0
 15 31  1  0
 17 32  1  0
M  CHG  2  19  -1  21  -1
M  END
>  <mol_id>  (94) 
2026-08-23-6tgu-s0-n100-r6-0094

>  <rmsd_to_ref>  (94) 
4.724489795918947

$$$$
6tgu.A
     RDKit          3D

 32 34  0  0  0  0  0  0  0  0999 V2000
    3.0336   16.3318   36.2551 C   0  0  0  0  0  0  0  0  0  0  0  0
    1.7066   16.6905   36.9297 C   0  0  0  0  0  0  0  0  0  0  0  0
    0.4968   16.4555   36.2802 C   0  0  0  0  0  0  0  0  0  0  0  0
   -0.7336   16.5908   36.9316 C   0  0  0  0  0  0  0  0  0  0  0  0
   -0.7913   17.1413   38.2201 C   0  0  0  0  0  0  0  0  0  0  0  0
   -2.3017   17.2678   40.2612 C   0  0  0  0  0  0  0  0  0  0  0  0
   -1.8755   17.4135   42.4912 C   0  0  0  0  0  0  0  0  0  0  0  0
   -1.0331   17.6079   43.6717 C   0  0  0  0  0  0  0  0  0  0  0  0
   -1.5278   17.4425   44.9733 C   0  0  0  0  0  0  0  0  0  0  0  0
   -0.7006   17.5994   46.0811 C   0  0  0  0  0  0  0  0  0  0  0  0
    0.6371   17.8799   45.8755 C   0  0  0  0  0  0  0  0  0  0  0  0
    1.1692   18.0460   44.6057 C   0  0  0  0  0  0  0  0  0  0  0  0
    0.3230   17.8963   43.5105 C   0  0  0  0  0  0  0  0  0  0  0  0
   -3.2023   17.0769   42.5442 C   0  0  0  0  0  0  0  0  0  0  0  0
    0.4173   17.3732   38.8921 C   0  0  0  0  0  0  0  0  0  0  0  0
    1.6309   17.1519   38.2385 C   0  0  0  0  0  0  0  0  0  0  0  0
   -2.0319   17.2268   38.9236 N   0  0  0  0  0  0  0  0  0  0  0  0
   -1.3042   17.4409   41.1970 N   0  0  0  0  0  0  0  0  0  0  0  0
    2.9591   15.6720   35.1771 O   0  0  0  0  0  0  0  0  0  0  0  0
    4.0810   16.6471   36.8612 O   0  0  0  0  0  0  0  0  0  0  0  0
    2.8066   17.2819   38.9389 O   0  0  0  0  0  0  0  0  0  0  0  0
   -3.8178   16.7453   40.9697 S   0  0  0  0  0  0  0  0  0  0  0  0
    1.6877   18.0376   47.2440 Cl  0  0  0  0  0  0  0  0  0  0  0  0
    0.5095   16.1542   35.2223 H   0  0  0  0  0  0  0  0  0  0  0  0
   -1.6579   16.2648   36.4321 H   0  0  0  0  0  0  0  0  0  0  0  0
   -2.5869   17.1846   45.1209 H   0  0  0  0  0  0  0  0  0  0  0  0
   -1.1033   17.5021   47.1001 H   0  0  0  0  0  0  0  0  0  0  0  0
    2.2329   18.2899   44.4675 H   0  0  0  0  0  0  0  0  0  0  0  0
    0.7322   18.0077   42.4955 H   0  0  0  0  0  0  0  0  0  0  0  0
   -3.7957   17.0253   43.4690 H   0  0  0  0  0  0  0  0  0  0  0  0
    0.4093   17.7290   39.9329 H   0  0  0  0  0  0  0  0  0  0  0  0
   -2.8646   17.2638   38.3184 H   0  0  0  0  0  0  0  0  0  0  0  0
  1  2  1  0
  1 19  1  0
  1 20  2  0
  2  3  1  0
  2 16  2  0
  3  4  2  0
  4  5  1  0
  5 15  2  0
  5 17  1  0
  6 17  1  0
  6 18  2  0
  6 22  1  0
  7  8  1  0
  7 14  2  0
  7 18  1  0
  8  9  1  0
  8 13  2  0
  9 10  2  0
 10 11  1  0
 11 12  2  0
 11 23  1  0
 12 13  1  0
 14 22  1  0
 15 16  1  0
 16 21  1  0
  3 24  1  0
  4 25  1  0
  9 26  1  0
 10 27  1  0
 12 28  1  0
 13 29  1  0
 14 30  1  0
 15 31  1  0
 17 32  1  0
M  CHG  2  19  -1  21  -1
M  END
>  <mol_id>  (95) 
2026-08-23-6tgu-s0-n100-r6-0095

>  <rmsd_to_ref>  (95) 
4.770408163270285

$$$$
6tgu.A
     RDKit          3D

 32 34  0  0  0  0  0  0  0  0999 V2000
    5.1759   18.0001   35.9638 C   0  0  0  0  0  0  0  0  0  0  0  0
    4.0635   18.0835   36.9005 C   0  0  0  0  0  0  0  0  0  0  0  0
    3.0314   18.9720   36.7162 C   0  0  0  0  0  0  0  0  0  0  0  0
    1.9767   19.0625   37.5884 C   0  0  0  0  0  0  0  0  0  0  0  0
    1.9000   18.2431   38.7237 C   0  0  0  0  0  0  0  0  0  0  0  0
    0.6609   18.0088   40.8942 C   0  0  0  0  0  0  0  0  0  0  0  0
   -0.2574   17.6677   42.9356 C   0  0  0  0  0  0  0  0  0  0  0  0
   -1.4267   17.7461   43.8427 C   0  0  0  0  0  0  0  0  0  0  0  0
   -2.6391   18.2422   43.4174 C   0  0  0  0  0  0  0  0  0  0  0  0
   -3.7307   18.3178   44.2515 C   0  0  0  0  0  0  0  0  0  0  0  0
   -3.6118   17.8843   45.5558 C   0  0  0  0  0  0  0  0  0  0  0  0
   -2.4061   17.3896   45.9832 C   0  0  0  0  0  0  0  0  0  0  0  0
   -1.3159   17.3167   45.1414 C   0  0  0  0  0  0  0  0  0  0  0  0
    0.9839   17.1582   43.3758 C   0  0  0  0  0  0  0  0  0  0  0  0
    2.9321   17.3650   38.8939 C   0  0  0  0  0  0  0  0  0  0  0  0
    4.0045   17.2708   38.0102 C   0  0  0  0  0  0  0  0  0  0  0  0
    0.7795   18.3989   39.5495 N   0  0  0  0  0  0  0  0  0  0  0  0
   -0.2791   18.0490   41.6994 N   0  0  0  0  0  0  0  0  0  0  0  0
    6.1922   17.0730   36.2122 O   0  0  0  0  0  0  0  0  0  0  0  0
    5.2052   18.7564   34.9543 O   0  0  0  0  0  0  0  0  0  0  0  0
    5.0247   16.3537   38.2429 O   0  0  0  0  0  0  0  0  0  0  0  0
    1.9981   17.2964   41.9071 S   0  0  0  0  0  0  0  0  0  0  0  0
   -4.9952   17.9747   46.6304 Cl  0  0  0  0  0  0  0  0  0  0  0  0
    3.0652   19.6178   35.8462 H   0  0  0  0  0  0  0  0  0  0  0  0
    1.1847   19.7887   37.3898 H   0  0  0  0  0  0  0  0  0  0  0  0
   -2.7490   18.5918   42.3788 H   0  0  0  0  0  0  0  0  0  0  0  0
   -4.6489   18.7167   43.8550 H   0  0  0  0  0  0  0  0  0  0  0  0
   -2.2697   17.0394   46.9966 H   0  0  0  0  0  0  0  0  0  0  0  0
   -0.3890   16.9247   45.5110 H   0  0  0  0  0  0  0  0  0  0  0  0
    1.2648   16.7838   44.3307 H   0  0  0  0  0  0  0  0  0  0  0  0
    2.9465   16.7004   39.7238 H   0  0  0  0  0  0  0  0  0  0  0  0
   -0.0823   18.8575   39.1313 H   0  0  0  0  0  0  0  0  0  0  0  0
  1  2  1  0
  1 19  1  0
  1 20  2  0
  2  3  1  0
  2 16  2  0
  3  4  2  0
  4  5  1  0
  5 15  2  0
  5 17  1  0
  6 17  1  0
  6 18  2  0
  6 22  1  0
  7  8  1  0
  7 14  2  0
  7 18  1  0
  8  9  1  0
  8 13  2  0
  9 10  2  0
 10 11  1  0
 11 12  2  0
 11 23  1  0
 12 13  1  0
 14 22  1  0
 15 16  1  0
 16 21  1  0
  3 24  1  0
  4 25  1  0
  9 26  1  0
 10 27  1  0
 12 28  1  0
 13 29  1  0
 14 30  1  0
 15 31  1  0
 17 32  1  0
M  CHG  2  19  -1  21  -1
M  END
>  <mol_id>  (96) 
2026-08-23-6tgu-s0-n100-r6-0096

>  <rmsd_to_ref>  (96) 
4.816326530617372

$$$$
6tgu.A
     RDKit          3D

 32 34  0  0  0  0  0  0  0  0999 V2000
    8.2007   16.6802   42.4244 C   0  0  0  0  0  0  0  0  0  0  0  0
    6.8836   17.3047   41.9555 C   0  0  0  0  0  0  0  0  0  0  0  0
    6.8843   18.3424   41.0261 C   0  0  0  0  0  0  0  0  0  0  0  0
    5.7062   18.8084   40.4334 C   0  0  0  0  0  0  0  0  0  0  0  0
    4.4605   18.3569   40.8929 C   0  0  0  0  0  0  0  0  0  0  0  0
    2.0264   18.1761   40.1817 C   0  0  0  0  0  0  0  0  0  0  0  0
    0.3928   16.6598   40.6375 C   0  0  0  0  0  0  0  0  0  0  0  0
   -0.2046   15.5223   41.3378 C   0  0  0  0  0  0  0  0  0  0  0  0
   -1.4450   14.9868   40.9627 C   0  0  0  0  0  0  0  0  0  0  0  0
   -1.9792   13.8834   41.6209 C   0  0  0  0  0  0  0  0  0  0  0  0
   -1.2421   13.2918   42.6294 C   0  0  0  0  0  0  0  0  0  0  0  0
   -0.0090   13.7851   43.0283 C   0  0  0  0  0  0  0  0  0  0  0  0
    0.5033   14.8967   42.3652 C   0  0  0  0  0  0  0  0  0  0  0  0
   -0.1978   17.3068   39.5844 C   0  0  0  0  0  0  0  0  0  0  0  0
    4.4422   17.3051   41.8200 C   0  0  0  0  0  0  0  0  0  0  0  0
    5.6417   16.8085   42.3334 C   0  0  0  0  0  0  0  0  0  0  0  0
    3.2515   18.7740   40.2561 N   0  0  0  0  0  0  0  0  0  0  0  0
    1.7100   17.0738   40.9469 N   0  0  0  0  0  0  0  0  0  0  0  0
    9.2468   17.0374   41.8068 O   0  0  0  0  0  0  0  0  0  0  0  0
    8.1287   15.8113   43.3208 O   0  0  0  0  0  0  0  0  0  0  0  0
    5.6171   15.7104   43.1601 O   0  0  0  0  0  0  0  0  0  0  0  0
    0.8740   18.4644   38.8923 S   0  0  0  0  0  0  0  0  0  0  0  0
   -1.8761   11.8925   43.4304 Cl  0  0  0  0  0  0  0  0  0  0  0  0
    7.8410   18.8098   40.7497 H   0  0  0  0  0  0  0  0  0  0  0  0
    5.7568   19.5306   39.6052 H   0  0  0  0  0  0  0  0  0  0  0  0
   -2.0048   15.4463   40.1348 H   0  0  0  0  0  0  0  0  0  0  0  0
   -2.9684   13.4898   41.3441 H   0  0  0  0  0  0  0  0  0  0  0  0
    0.5500   13.3101   43.8480 H   0  0  0  0  0  0  0  0  0  0  0  0
    1.4879   15.2908   42.6573 H   0  0  0  0  0  0  0  0  0  0  0  0
   -1.2203   17.1129   39.2280 H   0  0  0  0  0  0  0  0  0  0  0  0
    3.4839   16.8718   42.1425 H   0  0  0  0  0  0  0  0  0  0  0  0
    3.3149   19.6801   39.7704 H   0  0  0  0  0  0  0  0  0  0  0  0
  1  2  1  0
  1 19  1  0
  1 20  2  0
  2  3  1  0
  2 16  2  0
  3  4  2  0
  4  5  1  0
  5 15  2  0
  5 17  1  0
  6 17  1  0
  6 18  2  0
  6 22  1  0
  7  8  1  0
  7 14  2  0
  7 18  1  0
  8  9  1  0
  8 13  2  0
  9 10  2  0
 10 11  1  0
 11 12  2  0
 11 23  1  0
 12 13  1  0
 14 22  1  0
 15 16  1  0
 16 21  1  0
  3 24  1  0
  4 25  1  0
  9 26  1  0
 10 27  1  0
 12 28  1  0
 13 29  1  0
 14 30  1  0
 15 31  1  0
 17 32  1  0
M  CHG  2  19  -1  21  -1
M  END
>  <mol_id>  (97) 
2026-08-23-6tgu-s0-n100-r6-0097

>  <rmsd_to_ref>  (97) 
4.862244897960104

$$$$
6tgu.A
     RDKit          3D

 32 34  0  0  0  0  0  0  0  0999 V2000
    4.0905   21.4584   43.8787 C   0  0  0  0  0  0  0  0  0  0  0  0
    3.8682   20.1410   43.2938 C   0  0  0  0  0  0  0  0  0  0  0  0
    2.6061   19.7149   42.9739 C   0  0  0  0  0  0  0  0  0  0  0  0
    2.3942   18.4565   42.4157 C   0  0  0  0  0  0  0  0  0  0  0  0
    3.4210   17.5869   42.1587 C   0  0  0  0  0  0  0  0  0  0  0  0
    2.2923   15.8476   40.7195 C   0  0  0  0  0  0  0  0  0  0  0  0
    0.9727   14.6035   39.3836 C   0  0  0  0  0  0  0  0  0  0  0  0
    0.6951   13.2803   38.7990 C   0  0  0  0  0  0  0  0  0  0  0  0
    1.4727   12.1739   39.0583 C   0  0  0  0  0  0  0  0  0  0  0  0
    1.1738   10.9397   38.4843 C   0  0  0  0  0  0  0  0  0  0  0  0
    0.0971   10.7848   37.6434 C   0  0  0  0  0  0  0  0  0  0  0  0
   -0.6772   11.8926   37.3868 C   0  0  0  0  0  0  0  0  0  0  0  0
   -0.3769   13.1067   37.9561 C   0  0  0  0  0  0  0  0  0  0  0  0
    0.2184   15.6948   39.1372 C   0  0  0  0  0  0  0  0  0  0  0  0
    4.6971   18.0416   42.4926 C   0  0  0  0  0  0  0  0  0  0  0  0
    4.9136   19.2781   43.0423 C   0  0  0  0  0  0  0  0  0  0  0  0
    3.3222   16.3190   41.5885 N   0  0  0  0  0  0  0  0  0  0  0  0
    1.9635   14.8795   40.1979 N   0  0  0  0  0  0  0  0  0  0  0  0
    3.0236   22.2970   44.1175 O   0  0  0  0  0  0  0  0  0  0  0  0
    5.2843   21.7998   44.1558 O   0  0  0  0  0  0  0  0  0  0  0  0
    6.2060   19.7155   43.3709 O   0  0  0  0  0  0  0  0  0  0  0  0
    0.9779   17.0554   40.0910 S   0  0  0  0  0  0  0  0  0  0  0  0
   -0.3344    9.2759   36.8925 Cl  0  0  0  0  0  0  0  0  0  0  0  0
    1.7773   20.3723   43.1620 H   0  0  0  0  0  0  0  0  0  0  0  0
    1.3746   18.2016   42.2096 H   0  0  0  0  0  0  0  0  0  0  0  0
    2.3258   12.2849   39.7216 H   0  0  0  0  0  0  0  0  0  0  0  0
    1.7790   10.0719   38.6836 H   0  0  0  0  0  0  0  0  0  0  0  0
   -1.5525   11.8368   36.7232 H   0  0  0  0  0  0  0  0  0  0  0  0
   -1.0268   13.9622   37.7195 H   0  0  0  0  0  0  0  0  0  0  0  0
   -0.7235   15.8658   38.4882 H   0  0  0  0  0  0  0  0  0  0  0  0
    5.5737   17.4228   42.3260 H   0  0  0  0  0  0  0  0  0  0  0  0
    4.0697   15.5987   41.7972 H   0  0  0  0  0  0  0  0  0  0  0  0
  1  2  1  0
  1 19  1  0
  1 20  2  0
  2  3  1  0
  2 16  2  0
  3  4  2  0
  4  5  1  0
  5 15  2  0
  5 17  1  0
  6 17  1  0
  6 18  2  0
  6 22  1  0
  7  8  1  0
  7 14  2  0
  7 18  1  0
  8  9  1  0
  8 13  2  0
  9 10  2  0
 10 11  1  0
 11 12  2  0
 11 23  1  0
 12 13  1  0
 14 22  1  0
 15 16  1  0
 16 21  1  0
  3 24  1  0
  4 25  1  0
  9 26  1  0
 10 27  1  0
 12 28  1  0
 13 29  1  0
 14 30  1  0
 15 31  1  0
 17 32  1  0
M  CHG  2  19  -1  21  -1
M  END
>  <mol_id>  (98) 
2026-08-23-6tgu-s0-n100-r6-0098

>  <rmsd_to_ref>  (98) 
4.908163265311323

$$$$
6tgu.A
     RDKit          3D

 32 34  0  0  0  0  0  0  0  0999 V2000
   -1.2598   16.5390   35.6048 C   0  0  0  0  0  0  0  0  0  0  0  0
   -0.8645   17.1684   36.9436 C   0  0  0  0  0  0  0  0  0  0  0  0
   -1.8413   17.6023   37.8370 C   0  0  0  0  0  0  0  0  0  0  0  0
   -1.5292   18.0046   39.1398 C   0  0  0  0  0  0  0  0  0  0  0  0
   -0.1901   18.1494   39.5302 C   0  0  0  0  0  0  0  0  0  0  0  0
    1.2740   18.2592   41.6058 C   0  0  0  0  0  0  0  0  0  0  0  0
    3.4102   17.5990   42.0255 C   0  0  0  0  0  0  0  0  0  0  0  0
    4.7457   17.1191   41.6686 C   0  0  0  0  0  0  0  0  0  0  0  0
    5.7032   16.7947   42.6402 C   0  0  0  0  0  0  0  0  0  0  0  0
    6.9558   16.3080   42.2795 C   0  0  0  0  0  0  0  0  0  0  0  0
    7.2282   16.1063   40.9395 C   0  0  0  0  0  0  0  0  0  0  0  0
    6.3086   16.4082   39.9463 C   0  0  0  0  0  0  0  0  0  0  0  0
    5.0650   16.9049   40.3269 C   0  0  0  0  0  0  0  0  0  0  0  0
    2.9840   17.7901   43.3132 C   0  0  0  0  0  0  0  0  0  0  0  0
    0.8051   17.7068   38.6471 C   0  0  0  0  0  0  0  0  0  0  0  0
    0.4530   17.2357   37.3810 C   0  0  0  0  0  0  0  0  0  0  0  0
    0.1458   18.4970   40.8747 N   0  0  0  0  0  0  0  0  0  0  0  0
    2.4248   17.7706   41.0247 N   0  0  0  0  0  0  0  0  0  0  0  0
   -2.4899   16.2887   35.4396 O   0  0  0  0  0  0  0  0  0  0  0  0
   -0.3316   16.2496   34.8184 O   0  0  0  0  0  0  0  0  0  0  0  0
    1.4248   16.7079   36.5645 O   0  0  0  0  0  0  0  0  0  0  0  0
    1.3051   18.1737   43.3565 S   0  0  0  0  0  0  0  0  0  0  0  0
    8.7688   15.4623   40.4776 Cl  0  0  0  0  0  0  0  0  0  0  0  0
   -2.8905   17.6293   37.5078 H   0  0  0  0  0  0  0  0  0  0  0  0
   -2.3359   18.2079   39.8595 H   0  0  0  0  0  0  0  0  0  0  0  0
    5.4602   16.9271   43.7048 H   0  0  0  0  0  0  0  0  0  0  0  0
    7.7141   16.0882   43.0454 H   0  0  0  0  0  0  0  0  0  0  0  0
    6.5556   16.2590   38.8848 H   0  0  0  0  0  0  0  0  0  0  0  0
    4.3175   17.1335   39.5530 H   0  0  0  0  0  0  0  0  0  0  0  0
    3.6280   17.7093   44.2014 H   0  0  0  0  0  0  0  0  0  0  0  0
    1.8619   17.7309   38.9515 H   0  0  0  0  0  0  0  0  0  0  0  0
   -0.5882   19.0154   41.3781 H   0  0  0  0  0  0  0  0  0  0  0  0
  1  2  1  0
  1 19  1  0
  1 20  2  0
  2  3  1  0
  2 16  2  0
  3  4  2  0
  4  5  1  0
  5 15  2  0
  5 17  1  0
  6 17  1  0
  6 18  2  0
  6 22  1  0
  7  8  1  0
  7 14  2  0
  7 18  1  0
  8  9  1  0
  8 13  2  0
  9 10  2  0
 10 11  1  0
 11 12  2  0
 11 23  1  0
 12 13  1  0
 14 22  1  0
 15 16  1  0
 16 21  1  0
  3 24  1  0
  4 25  1  0
  9 26  1  0
 10 27  1  0
 12 28  1  0
 13 29  1  0
 14 30  1  0
 15 31  1  0
 17 32  1  0
M  CHG  2  19  -1  21  -1
M  END
>  <mol_id>  (99) 
2026-08-23-6tgu-s0-n100-r6-0099

>  <rmsd_to_ref>  (99) 
4.954081632654093

$$$$
6tgu.A
     RDKit          3D

 32 34  0  0  0  0  0  0  0  0999 V2000
    2.2530   21.4370   42.6711 C   0  0  0  0  0  0  0  0  0  0  0  0
    2.0278   20.0211   42.4304 C   0  0  0  0  0  0  0  0  0  0  0  0
    1.4471   19.5300   41.2779 C   0  0  0  0  0  0  0  0  0  0  0  0
    1.2503   18.1570   41.0947 C   0  0  0  0  0  0  0  0  0  0  0  0
    1.6453   17.2865   42.0855 C   0  0  0  0  0  0  0  0  0  0  0  0
    0.9111   15.3207   40.7232 C   0  0  0  0  0  0  0  0  0  0  0  0
    0.7277   14.1387   38.8099 C   0  0  0  0  0  0  0  0  0  0  0  0
    1.3359   13.1856   37.8525 C   0  0  0  0  0  0  0  0  0  0  0  0
    2.5971   12.6649   38.0334 C   0  0  0  0  0  0  0  0  0  0  0  0
    3.1757   11.7733   37.1544 C   0  0  0  0  0  0  0  0  0  0  0  0
    2.4485   11.3929   36.0467 C   0  0  0  0  0  0  0  0  0  0  0  0
    1.1744   11.8837   35.8107 C   0  0  0  0  0  0  0  0  0  0  0  0
    0.6497   12.7744   36.7295 C   0  0  0  0  0  0  0  0  0  0  0  0
   -0.5218   14.6367   38.6295 C   0  0  0  0  0  0  0  0  0  0  0  0
    2.2241   17.7647   43.2355 C   0  0  0  0  0  0  0  0  0  0  0  0
    2.4222   19.1381   43.4217 C   0  0  0  0  0  0  0  0  0  0  0  0
    1.4657   15.8820   41.9629 N   0  0  0  0  0  0  0  0  0  0  0  0
    1.3445   14.5533   39.8914 N   0  0  0  0  0  0  0  0  0  0  0  0
    1.9180   22.4346   41.7854 O   0  0  0  0  0  0  0  0  0  0  0  0
    2.7905   21.7636   43.7644 O   0  0  0  0  0  0  0  0  0  0  0  0
    3.0126   19.5511   44.6091 O   0  0  0  0  0  0  0  0  0  0  0  0
   -0.7355   15.7395   40.1293 S   0  0  0  0  0  0  0  0  0  0  0  0
    3.1271   10.2556   34.8833 Cl  0  0  0  0  0  0  0  0  0  0  0  0
    1.1509   20.2441   40.5247 H   0  0  0  0  0  0  0  0  0  0  0  0
    0.7862   17.7911   40.1700 H   0  0  0  0  0  0  0  0  0  0  0  0
    3.1468   12.9824   38.9160 H   0  0  0  0  0  0  0  0  0  0  0  0
    4.1680   11.3687   37.3067 H   0  0  0  0  0  0  0  0  0  0  0  0
    0.5792   11.6073   34.9549 H   0  0  0  0  0  0  0  0  0  0  0  0
   -0.3446   13.1661   36.5581 H   0  0  0  0  0  0  0  0  0  0  0  0
   -1.3106   14.5364   37.8913 H   0  0  0  0  0  0  0  0  0  0  0  0
    2.5294   17.0680   44.0040 H   0  0  0  0  0  0  0  0  0  0  0  0
    1.7189   15.2267   42.7351 H   0  0  0  0  0  0  0  0  0  0  0  0
  1  2  1  0
  1 19  1  0
  1 20  2  0
  2  3  1  0
  2 16  2  0
  3  4  2  0
  4  5  1  0
  5 15  2  0
  5 17  1  0
  6 17  1  0
  6 18  2  0
  6 22  1  0
  7  8  1  0
  7 14  2  0
  7 18  1  0
  8  9  1  0
  8 13  2  0
  9 10  2  0
 10 11  1  0
 11 12  2  0
 11 23  1  0
 12 13  1  0
 14 22  1  0
 15 16  1  0
 16 21  1  0
  3 24  1  0
  4 25  1  0
  9 26  1  0
 10 27  1  0
 12 28  1  0
 13 29  1  0
 14 30  1  0
 15 31  1  0
 17 32  1  0
M  CHG  2  19  -1  21  -1
M  END
>  <mol_id>  (100) 
2026-08-23-6tgu-s0-n100-r6-0100

>  <rmsd_to_ref>  (100) 
5.000000000003267

$$$$
