
     RDKit          3D

 20 19  0  0  0  0  0  0  0  0999 V2000
    1.9040   20.8300   38.6290 C   0  0  0  0  0  0  0  0  0  0  0  0
    1.7630   19.6120   39.6550 C   0  0  0  0  0  0  0  0  0  0  0  0
    2.6550   20.2640   37.4780 C   0  0  0  0  0  0  0  0  0  0  0  0
    0.9340   20.0960   40.9250 C   0  0  0  0  0  0  0  0  0  0  0  0
    0.5160   19.1300   42.1780 C   0  0  0  0  0  0  0  0  0  0  0  0
    3.7900   19.5750   37.8440 O   0  0  0  0  0  0  0  0  0  0  0  0
    2.3420   18.6320   40.5760 O   0  0  0  0  0  0  0  0  0  0  0  0
    1.4350   21.1940   41.4380 O   0  0  0  0  0  0  0  0  0  0  0  0
    0.9133   21.1856   38.3095 H   0  0  0  0  0  0  0  0  0  0  0  0
    2.4148   21.6956   39.0760 H   0  0  0  0  0  0  0  0  0  0  0  0
    1.8094   19.1165   38.6740 H   0  0  0  0  0  0  0  0  0  0  0  0
    2.9491   21.0907   36.8146 H   0  0  0  0  0  0  0  0  0  0  0  0
    1.9879   19.5446   36.9806 H   0  0  0  0  0  0  0  0  0  0  0  0
   -0.0250   20.1805   40.3929 H   0  0  0  0  0  0  0  0  0  0  0  0
    0.7377   19.6423   43.1258 H   0  0  0  0  0  0  0  0  0  0  0  0
   -0.5596   18.9058   42.1252 H   0  0  0  0  0  0  0  0  0  0  0  0
    1.0889   18.1925   42.1252 H   0  0  0  0  0  0  0  0  0  0  0  0
    3.8499   19.5386   38.8315 H   0  0  0  0  0  0  0  0  0  0  0  0
    2.1738   18.9166   41.5092 H   0  0  0  0  0  0  0  0  0  0  0  0
    1.4095   21.1381   42.4261 H   0  0  0  0  0  0  0  0  0  0  0  0
  1  2  1  0
  2  7  1  0
  2  4  1  0
  3  6  1  0
  3  1  1  0
  4  8  1  0
  4  5  1  0
  1  9  1  0
  1 10  1  0
  2 11  1  0
  3 12  1  0
  3 13  1  0
  4 14  1  0
  5 15  1  0
  5 16  1  0
  5 17  1  0
  6 18  1  0
  7 19  1  0
  8 20  1  0
M  END
>  <mol_id>  (1) 
2026-09-18-3war-s0-n100-refligand-0001

>  <rmsd_to_ref>  (1) 


$$$$

     RDKit          3D

 17 18  0  0  0  0  0  0  0  0999 V2000
    1.0920   20.9800   40.5020 C   0  0  0  0  0  0  0  0  0  0  0  0
    3.3800   18.6160   37.9500 C   0  0  0  0  0  0  0  0  0  0  0  0
    2.9860   18.2390   39.2670 C   0  0  0  0  0  0  0  0  0  0  0  0
    1.5490   18.9310   41.2460 N   0  0  0  0  0  0  0  0  0  0  0  0
    3.3390   20.2490   36.2640 O   0  0  0  0  0  0  0  0  0  0  0  0
    0.9370   20.0750   41.5420 C   0  0  0  0  0  0  0  0  0  0  0  0
    1.8410   20.3150   39.5140 C   0  0  0  0  0  0  0  0  0  0  0  0
    2.9670   19.8540   37.4510 C   0  0  0  0  0  0  0  0  0  0  0  0
    2.1890   20.6930   38.2380 C   0  0  0  0  0  0  0  0  0  0  0  0
    2.1720   19.0600   39.9720 C   0  0  0  0  0  0  0  0  0  0  0  0
    0.7071   22.0095   40.4586 H   0  0  0  0  0  0  0  0  0  0  0  0
    3.9985   17.9439   37.3371 H   0  0  0  0  0  0  0  0  0  0  0  0
    3.3386   17.2935   39.7049 H   0  0  0  0  0  0  0  0  0  0  0  0
    3.0413   21.1279   35.9189 H   0  0  0  0  0  0  0  0  0  0  0  0
    1.3752   20.4957   42.4591 H   0  0  0  0  0  0  0  0  0  0  0  0
   -0.1350   19.8815   41.6949 H   0  0  0  0  0  0  0  0  0  0  0  0
    1.8506   21.6612   37.8404 H   0  0  0  0  0  0  0  0  0  0  0  0
  1  6  1  0
  2  3  2  0
  3 10  1  0
  4  6  1  0
  5  8  1  0
  7 10  1  0
  7  1  2  0
  8  2  1  0
  8  9  2  0
  9  7  1  0
 10  4  2  0
  1 11  1  0
  2 12  1  0
  3 13  1  0
  5 14  1  0
  6 15  1  0
  6 16  1  0
  9 17  1  0
M  END
>  <mol_id>  (2) 
2026-09-18-3war-s0-n100-refligand-0002

>  <rmsd_to_ref>  (2) 


$$$$

     RDKit          3D

 28 31  0  0  0  0  0  0  0  0999 V2000
    0.6620   20.1240   41.6890 C   0  0  0  0  0  0  0  0  0  0  0  0
    2.7290   18.6570   38.1010 C   0  0  0  0  0  0  0  0  0  0  0  0
    1.5170   17.9260   41.0630 C   0  0  0  0  0  0  0  0  0  0  0  0
    2.8110   16.3380   38.0630 O   0  0  0  0  0  0  0  0  0  0  0  0
    3.3110   18.9150   36.9550 N   0  0  0  0  0  0  0  0  0  0  0  0
    0.2620   18.2410   43.1130 C   0  0  0  0  0  0  0  0  0  0  0  0
    0.0660   19.5550   42.8080 C   0  0  0  0  0  0  0  0  0  0  0  0
    2.2910   19.8770   38.5120 C   0  0  0  0  0  0  0  0  0  0  0  0
    1.4360   15.1120   41.6690 C   0  0  0  0  0  0  0  0  0  0  0  0
    1.4190   19.2800   40.7850 C   0  0  0  0  0  0  0  0  0  0  0  0
    2.5840   17.3710   38.8520 C   0  0  0  0  0  0  0  0  0  0  0  0
    0.9390   15.9650   42.5850 C   0  0  0  0  0  0  0  0  0  0  0  0
    3.1950   20.1100   36.5460 N   0  0  0  0  0  0  0  0  0  0  0  0
    2.0520   16.9610   40.1910 C   0  0  0  0  0  0  0  0  0  0  0  0
    1.9170   20.0790   39.8310 C   0  0  0  0  0  0  0  0  0  0  0  0
    0.8960   17.3610   42.2350 C   0  0  0  0  0  0  0  0  0  0  0  0
    2.0240   15.5710   40.5390 C   0  0  0  0  0  0  0  0  0  0  0  0
    2.5610   20.7780   37.4610 C   0  0  0  0  0  0  0  0  0  0  0  0
    0.5608   21.2014   41.4915 H   0  0  0  0  0  0  0  0  0  0  0  0
    2.7510   15.4177   38.4229 H   0  0  0  0  0  0  0  0  0  0  0  0
   -0.0913   17.8618   44.0833 H   0  0  0  0  0  0  0  0  0  0  0  0
   -0.5724   20.1732   43.4563 H   0  0  0  0  0  0  0  0  0  0  0  0
    1.3633   14.0280   41.8411 H   0  0  0  0  0  0  0  0  0  0  0  0
    0.5801   15.6093   43.5620 H   0  0  0  0  0  0  0  0  0  0  0  0
    2.0592   21.1168   40.1668 H   0  0  0  0  0  0  0  0  0  0  0  0
    1.5227   15.0582   39.7049 H   0  0  0  0  0  0  0  0  0  0  0  0
    3.0862   15.3700   40.7422 H   0  0  0  0  0  0  0  0  0  0  0  0
    2.2869   21.8427   37.4237 H   0  0  0  0  0  0  0  0  0  0  0  0
  1  7  2  0
  2  8  1  0
  2 11  1  0
  3 16  1  0
  4 11  1  0
  5  2  2  0
  7  6  1  0
  8 15  2  0
  9 12  2  0
 10  3  2  0
 10  1  1  0
 11 14  2  0
 13  5  1  0
 13 18  2  0
 14 17  1  0
 14  3  1  0
 15 10  1  0
 16 12  1  0
 16  6  2  0
 17  9  1  0
 18  8  1  0
  1 19  1  0
  4 20  1  0
  6 21  1  0
  7 22  1  0
  9 23  1  0
 12 24  1  0
 15 25  1  0
 17 26  1  0
 17 27  1  0
 18 28  1  0
M  END
>  <mol_id>  (3) 
2026-09-18-3war-s0-n100-refligand-0003

>  <rmsd_to_ref>  (3) 


$$$$

     RDKit          3D

 25 27  0  0  0  0  0  0  0  0999 V2000
    1.0950   18.5030   41.9930 C   0  0  0  0  0  0  0  0  0  0  0  0
    1.6740   19.9240   39.9330 C   0  0  0  0  0  0  0  0  0  0  0  0
    2.6690   18.1750   38.9020 C   0  0  0  0  0  0  0  0  0  0  0  0
    0.7210   17.0260   41.8230 C   0  0  0  0  0  0  0  0  0  0  0  0
    1.8680   16.1360   40.8270 S   0  0  0  0  0  0  0  0  0  0  0  0
    2.2600   17.6660   40.0510 C   0  0  0  0  0  0  0  0  0  0  0  0
    1.1060   21.0310   40.1220 O   0  0  0  0  0  0  0  0  0  0  0  0
    1.7700   18.8990   40.7310 N   0  0  0  0  0  0  0  0  0  0  0  0
    3.4260   18.8480   36.8770 O   0  0  0  0  0  0  0  0  0  0  0  0
    3.5050   17.8350   37.7180 C   0  0  0  0  0  0  0  0  0  0  0  0
    0.2060   19.6190   42.3340 C   0  0  0  0  0  0  0  0  0  0  0  0
    2.2870   19.4540   38.7220 C   0  0  0  0  0  0  0  0  0  0  0  0
    2.7210   19.8990   37.4400 C   0  0  0  0  0  0  0  0  0  0  0  0
    2.4480   21.1740   36.8110 C   0  0  0  0  0  0  0  0  0  0  0  0
    1.6183   18.4183   42.9568 H   0  0  0  0  0  0  0  0  0  0  0  0
    0.6829   16.5574   42.8175 H   0  0  0  0  0  0  0  0  0  0  0  0
   -0.2537   16.9899   41.3144 H   0  0  0  0  0  0  0  0  0  0  0  0
    2.8930   16.7693   39.9786 H   0  0  0  0  0  0  0  0  0  0  0  0
    4.0819   16.9100   37.5716 H   0  0  0  0  0  0  0  0  0  0  0  0
    0.1340   19.7094   43.4279 H   0  0  0  0  0  0  0  0  0  0  0  0
    0.6112   20.5518   41.9149 H   0  0  0  0  0  0  0  0  0  0  0  0
   -0.7938   19.4326   41.9149 H   0  0  0  0  0  0  0  0  0  0  0  0
    2.2845   21.9375   37.5858 H   0  0  0  0  0  0  0  0  0  0  0  0
    3.3043   21.4647   36.1846 H   0  0  0  0  0  0  0  0  0  0  0  0
    1.5478   21.0886   36.1846 H   0  0  0  0  0  0  0  0  0  0  0  0
  1 11  1  0
  2  7  2  0
  2  8  1  0
  4  1  1  0
  5  4  1  0
  6  3  1  0
  6  8  1  0
  6  5  1  0
  8  1  1  0
  9 13  1  0
  9 10  1  0
 10  3  2  0
 12  3  1  0
 12  2  1  0
 13 12  2  0
 14 13  1  0
  1 15  1  0
  4 16  1  0
  4 17  1  0
  6 18  1  0
 10 19  1  0
 11 20  1  0
 11 21  1  0
 11 22  1  0
 14 23  1  0
 14 24  1  0
 14 25  1  0
M  END
>  <mol_id>  (4) 
2026-09-18-3war-s0-n100-refligand-0004

>  <rmsd_to_ref>  (4) 


$$$$

     RDKit          3D

 29 31  0  0  0  0  0  0  0  0999 V2000
    3.6610   17.9530   38.5870 C   0  0  0  0  0  0  0  0  0  0  0  0
   -0.0210   19.8960   42.6290 N   0  0  0  0  0  0  0  0  0  0  0  0
    3.1080   20.8210   36.9470 O   0  0  0  0  0  0  0  0  0  0  0  0
    3.3120   15.7850   38.2840 O   0  0  0  0  0  0  0  0  0  0  0  0
    2.2850   21.5100   36.0460 C   0  0  0  0  0  0  0  0  0  0  0  0
    0.2260   18.6540   42.9510 C   0  0  0  0  0  0  0  0  0  0  0  0
    0.9530   18.1380   42.0400 N   0  0  0  0  0  0  0  0  0  0  0  0
    2.7480   19.9120   37.7070 C   0  0  0  0  0  0  0  0  0  0  0  0
    0.5440   20.1100   41.4520 C   0  0  0  0  0  0  0  0  0  0  0  0
    2.5660   17.7330   39.5750 O   0  0  0  0  0  0  0  0  0  0  0  0
    3.1490   18.6720   37.4330 O   0  0  0  0  0  0  0  0  0  0  0  0
    1.2550   21.1520   39.4110 C   0  0  0  0  0  0  0  0  0  0  0  0
    4.1810   16.7800   37.8900 C   0  0  0  0  0  0  0  0  0  0  0  0
    1.9490   20.0380   39.0410 C   0  0  0  0  0  0  0  0  0  0  0  0
    1.2090   18.9650   40.9960 C   0  0  0  0  0  0  0  0  0  0  0  0
    1.9410   18.9840   39.8170 C   0  0  0  0  0  0  0  0  0  0  0  0
    0.6140   21.1720   40.6390 C   0  0  0  0  0  0  0  0  0  0  0  0
    4.4229   18.4285   39.2221 H   0  0  0  0  0  0  0  0  0  0  0  0
    3.2795   15.7477   39.2728 H   0  0  0  0  0  0  0  0  0  0  0  0
    1.5584   22.1183   36.6046 H   0  0  0  0  0  0  0  0  0  0  0  0
    2.9018   22.1649   35.4131 H   0  0  0  0  0  0  0  0  0  0  0  0
    1.7488   20.7876   35.4131 H   0  0  0  0  0  0  0  0  0  0  0  0
    0.7566   18.6186   43.9139 H   0  0  0  0  0  0  0  0  0  0  0  0
   -0.7161   18.0939   43.0445 H   0  0  0  0  0  0  0  0  0  0  0  0
    3.6922   20.0037   38.2639 H   0  0  0  0  0  0  0  0  0  0  0  0
    1.2047   22.0241   38.7425 H   0  0  0  0  0  0  0  0  0  0  0  0
    4.1538   16.9218   36.7995 H   0  0  0  0  0  0  0  0  0  0  0  0
    5.2326   16.5611   38.1273 H   0  0  0  0  0  0  0  0  0  0  0  0
    0.1377   22.1090   40.9632 H   0  0  0  0  0  0  0  0  0  0  0  0
  1 13  1  0
  1 10  1  0
  2  6  1  0
  5  3  1  0
  7  6  1  0
  8  3  1  0
  8 14  1  0
  9  2  2  0
 10 16  1  0
 11  8  1  0
 11  1  1  0
 12 17  2  0
 13  4  1  0
 14 12  1  0
 14 16  2  0
 15  9  1  0
 15  7  2  0
 16 15  1  0
 17  9  1  0
  1 18  1  0
  4 19  1  0
  5 20  1  0
  5 21  1  0
  5 22  1  0
  6 23  1  0
  6 24  1  0
  8 25  1  0
 12 26  1  0
 13 27  1  0
 13 28  1  0
 17 29  1  0
M  END
>  <mol_id>  (5) 
2026-09-18-3war-s0-n100-refligand-0005

>  <rmsd_to_ref>  (5) 


$$$$

     RDKit          3D

 48 50  0  0  0  0  0  0  0  0999 V2000
    1.4740   22.2740   37.4060 C   0  0  0  0  0  0  0  0  0  0  0  0
    2.0920   20.0430   39.5250 C   0  0  0  0  0  0  0  0  0  0  0  0
    0.1880   21.7010   42.0260 O   0  0  0  0  0  0  0  0  0  0  0  0
    3.4600   21.6190   35.1800 O   0  0  0  0  0  0  0  0  0  0  0  0
   -0.2390   18.9260   42.6260 N   0  0  0  0  0  0  0  0  0  0  0  0
    2.0060   14.5620   41.1000 C   0  0  0  0  0  0  0  0  0  0  0  0
    0.5610   19.5150   41.8430 C   0  0  0  0  0  0  0  0  0  0  0  0
    3.5800   18.8090   37.2640 C   0  0  0  0  0  0  0  0  0  0  0  0
    3.2420   20.6080   35.9150 C   0  0  0  0  0  0  0  0  0  0  0  0
    2.3860   20.9050   37.1850 C   0  0  0  0  0  0  0  0  0  0  0  0
    2.6120   20.0860   38.2680 C   0  0  0  0  0  0  0  0  0  0  0  0
    1.5020   21.1530   40.3570 C   0  0  0  0  0  0  0  0  0  0  0  0
    4.5750   14.5530   37.2590 C   0  0  0  0  0  0  0  0  0  0  0  0
    2.4310   18.8650   40.4060 C   0  0  0  0  0  0  0  0  0  0  0  0
    2.9830   14.9470   39.1870 C   0  0  0  0  0  0  0  0  0  0  0  0
    3.1590   19.2390   38.1990 O   0  0  0  0  0  0  0  0  0  0  0  0
    4.2940   17.4190   37.3570 C   0  0  0  0  0  0  0  0  0  0  0  0
    2.2580   15.5740   40.1470 N   0  0  0  0  0  0  0  0  0  0  0  0
    1.8930   21.8750   36.7780 C   0  0  0  0  0  0  0  0  0  0  0  0
    2.5670   13.3530   40.6790 N   0  0  0  0  0  0  0  0  0  0  0  0
    3.7060   15.4490   37.9660 C   0  0  0  0  0  0  0  0  0  0  0  0
    3.2360   13.7260   39.4700 N   0  0  0  0  0  0  0  0  0  0  0  0
    1.2240   17.5760   41.9780 C   0  0  0  0  0  0  0  0  0  0  0  0
    3.7700   19.5030   36.1430 N   0  0  0  0  0  0  0  0  0  0  0  0
    1.5370   18.6310   41.4510 C   0  0  0  0  0  0  0  0  0  0  0  0
    3.5910   16.7950   38.2040 O   0  0  0  0  0  0  0  0  0  0  0  0
    0.7440   20.8660   41.4050 C   0  0  0  0  0  0  0  0  0  0  0  0
    1.8464   21.9193   38.3784 H   0  0  0  0  0  0  0  0  0  0  0  0
    1.6373   23.3587   37.3243 H   0  0  0  0  0  0  0  0  0  0  0  0
    0.3985   22.0579   37.3243 H   0  0  0  0  0  0  0  0  0  0  0  0
    1.3088   20.0882   38.7539 H   0  0  0  0  0  0  0  0  0  0  0  0
   -1.0403   19.4367   43.0234 H   0  0  0  0  0  0  0  0  0  0  0  0
    1.4489   14.7048   42.0377 H   0  0  0  0  0  0  0  0  0  0  0  0
    2.3455   21.7524   40.7302 H   0  0  0  0  0  0  0  0  0  0  0  0
    0.8005   21.6414   39.6647 H   0  0  0  0  0  0  0  0  0  0  0  0
    5.1530   13.9571   37.9807 H   0  0  0  0  0  0  0  0  0  0  0  0
    3.9745   13.8821   36.6271 H   0  0  0  0  0  0  0  0  0  0  0  0
    5.2639   15.1327   36.6271 H   0  0  0  0  0  0  0  0  0  0  0  0
    2.4605   17.9647   39.7747 H   0  0  0  0  0  0  0  0  0  0  0  0
    3.3967   19.1021   40.8763 H   0  0  0  0  0  0  0  0  0  0  0  0
    4.2890   16.9059   36.3840 H   0  0  0  0  0  0  0  0  0  0  0  0
    5.3535   17.4937   37.6432 H   0  0  0  0  0  0  0  0  0  0  0  0
    2.6727   22.5407   36.3794 H   0  0  0  0  0  0  0  0  0  0  0  0
    1.1836   21.6128   35.9792 H   0  0  0  0  0  0  0  0  0  0  0  0
    3.6134   15.3975   36.8711 H   0  0  0  0  0  0  0  0  0  0  0  0
    3.8340   13.1020   38.9097 H   0  0  0  0  0  0  0  0  0  0  0  0
    0.4941   17.5675   42.8009 H   0  0  0  0  0  0  0  0  0  0  0  0
    1.6717   16.6333   41.6302 H   0  0  0  0  0  0  0  0  0  0  0  0
  2 11  1  0
  2 12  1  0
  2 14  1  0
  4  9  2  0
  7  5  2  3
  8 17  1  0
  8 16  1  0
  9 24  1  0
  9 10  1  0
 10 11  2  0
 12 27  1  0
 14 25  1  0
 15 22  1  0
 15 18  2  0
 16 11  1  0
 17 26  1  0
 18  6  1  0
 19 10  1  0
 19  1  1  0
 20  6  2  0
 21 13  1  0
 21 26  1  0
 21 15  1  0
 22 20  1  0
 24  8  2  0
 25  7  1  0
 25 23  2  3
 27  7  1  0
 27  3  2  0
  1 28  1  0
  1 29  1  0
  1 30  1  0
  2 31  1  0
  5 32  1  0
  6 33  1  0
 12 34  1  0
 12 35  1  0
 13 36  1  0
 13 37  1  0
 13 38  1  0
 14 39  1  0
 14 40  1  0
 17 41  1  0
 17 42  1  0
 19 43  1  0
 19 44  1  0
 21 45  1  0
 22 46  1  0
 23 47  1  0
 23 48  1  0
M  END
>  <mol_id>  (6) 
2026-09-18-3war-s0-n100-refligand-0006

>  <rmsd_to_ref>  (6) 


$$$$

     RDKit          3D

 29 34  0  0  0  0  0  0  0  0999 V2000
    0.7030   21.4060   40.7650 C   0  0  0  0  0  0  0  0  0  0  0  0
    0.6810   16.6130   42.7460 C   0  0  0  0  0  0  0  0  0  0  0  0
    2.1510   20.0560   38.6800 C   0  0  0  0  0  0  0  0  0  0  0  0
    1.2240   17.3050   41.6530 C   0  0  0  0  0  0  0  0  0  0  0  0
    2.5720   17.2530   39.5070 C   0  0  0  0  0  0  0  0  0  0  0  0
    0.2830   20.9390   41.9420 C   0  0  0  0  0  0  0  0  0  0  0  0
    2.3880   18.7430   39.2070 C   0  0  0  0  0  0  0  0  0  0  0  0
    3.6560   19.0380   37.1350 C   0  0  0  0  0  0  0  0  0  0  0  0
    1.4890   19.3300   40.2740 C   0  0  0  0  0  0  0  0  0  0  0  0
    1.1060   18.7340   41.4090 C   0  0  0  0  0  0  0  0  0  0  0  0
    3.3720   20.2560   36.6450 N   0  0  0  0  0  0  0  0  0  0  0  0
    2.4090   20.5930   37.4440 C   0  0  0  0  0  0  0  0  0  0  0  0
    0.4360   19.6130   42.3210 C   0  0  0  0  0  0  0  0  0  0  0  0
    0.0700   19.3150   43.3940 O   0  0  0  0  0  0  0  0  0  0  0  0
    2.0820   15.2640   41.0210 O   0  0  0  0  0  0  0  0  0  0  0  0
    1.9710   16.5520   40.6700 C   0  0  0  0  0  0  0  0  0  0  0  0
    3.1990   18.4340   38.1030 C   0  0  0  0  0  0  0  0  0  0  0  0
    1.6450   21.5950   37.0760 O   0  0  0  0  0  0  0  0  0  0  0  0
    1.3390   20.5870   39.8350 N   0  0  0  0  0  0  0  0  0  0  0  0
    0.5427   22.4669   40.5223 H   0  0  0  0  0  0  0  0  0  0  0  0
    1.0379   17.0678   43.6819 H   0  0  0  0  0  0  0  0  0  0  0  0
   -0.4169   16.6688   42.7065 H   0  0  0  0  0  0  0  0  0  0  0  0
    0.9963   15.5599   42.7065 H   0  0  0  0  0  0  0  0  0  0  0  0
   -0.2049   21.6341   42.6411 H   0  0  0  0  0  0  0  0  0  0  0  0
    4.7367   19.0796   37.3359 H   0  0  0  0  0  0  0  0  0  0  0  0
    3.1425   18.4551   36.3562 H   0  0  0  0  0  0  0  0  0  0  0  0
    3.7965   20.7724   35.8614 H   0  0  0  0  0  0  0  0  0  0  0  0
    2.0883   15.1904   42.0082 H   0  0  0  0  0  0  0  0  0  0  0  0
    1.0837   16.3110   40.0662 H   0  0  0  0  0  0  0  0  0  0  0  0
  1  6  2  0
  3 12  1  0
  3  7  1  0
  3 19  1  0
  3  9  1  0
  4  2  1  0
  5 16  1  0
  6 13  1  0
  7 17  1  0
  7  5  1  0
  7  9  1  0
  8 17  1  0
  9 10  1  0
 10  4  2  0
 10 13  1  0
 11  8  1  0
 11 12  1  0
 13 14  2  0
 16 15  1  0
 16  4  1  0
 17  5  2  0
 18 12  2  0
 19  9  1  0
 19  1  1  0
  1 20  1  0
  2 21  1  0
  2 22  1  0
  2 23  1  0
  6 24  1  0
  8 25  1  0
  8 26  1  0
 11 27  1  0
 15 28  1  0
 16 29  1  0
M  END
>  <mol_id>  (7) 
2026-09-18-3war-s0-n100-refligand-0007

>  <rmsd_to_ref>  (7) 


$$$$

     RDKit          3D

 38 41  0  0  0  0  0  0  0  0999 V2000
    2.1930   20.6300   36.4060 O   0  0  0  0  0  0  0  0  0  0  0  0
   -0.0880   21.1390   42.0910 C   0  0  0  0  0  0  0  0  0  0  0  0
    3.1710   20.2940   37.0270 C   0  0  0  0  0  0  0  0  0  0  0  0
    1.9490   18.1650   40.4540 C   0  0  0  0  0  0  0  0  0  0  0  0
    3.3420   18.9370   37.1690 C   0  0  0  0  0  0  0  0  0  0  0  0
    3.2020   18.3740   38.4810 C   0  0  0  0  0  0  0  0  0  0  0  0
    1.0090   17.2530   42.4560 C   0  0  0  0  0  0  0  0  0  0  0  0
    1.8630   20.3820   39.0140 C   0  0  0  0  0  0  0  0  0  0  0  0
   -0.9580   20.8010   44.3040 O   0  0  0  0  0  0  0  0  0  0  0  0
    0.5580   20.3890   40.9450 C   0  0  0  0  0  0  0  0  0  0  0  0
    2.3520   19.1440   39.3760 C   0  0  0  0  0  0  0  0  0  0  0  0
    1.2260   18.1820   41.4830 C   0  0  0  0  0  0  0  0  0  0  0  0
    2.3990   16.9300   40.1330 O   0  0  0  0  0  0  0  0  0  0  0  0
    2.0750   21.1180   37.7510 C   0  0  0  0  0  0  0  0  0  0  0  0
   -0.1620   20.2880   43.2140 C   0  0  0  0  0  0  0  0  0  0  0  0
    0.8720   20.9490   39.8320 N   0  0  0  0  0  4  0  0  0  0  0  0
    4.6430   18.4080   39.1390 C   0  0  0  0  0  0  0  0  0  0  0  0
    0.0540   19.2960   43.3090 C   0  0  0  0  0  0  0  0  0  0  0  0
    0.2860   17.9440   43.4850 C   0  0  0  0  0  0  0  0  0  0  0  0
    0.7630   19.3700   41.3890 C   0  0  0  0  0  0  0  0  0  0  0  0
   -1.1008   21.4550   41.8005 H   0  0  0  0  0  0  0  0  0  0  0  0
    0.5110   22.0280   42.3376 H   0  0  0  0  0  0  0  0  0  0  0  0
    4.2614   20.4324   36.9837 H   0  0  0  0  0  0  0  0  0  0  0  0
    1.0576   18.0023   39.8304 H   0  0  0  0  0  0  0  0  0  0  0  0
    2.6019   18.4445   36.5211 H   0  0  0  0  0  0  0  0  0  0  0  0
    4.3963   18.7642   36.9070 H   0  0  0  0  0  0  0  0  0  0  0  0
    2.7549   17.3765   38.3584 H   0  0  0  0  0  0  0  0  0  0  0  0
    1.9648   16.8727   42.8457 H   0  0  0  0  0  0  0  0  0  0  0  0
    0.4517   16.3840   42.0762 H   0  0  0  0  0  0  0  0  0  0  0  0
   -1.0644   20.2692   45.1323 H   0  0  0  0  0  0  0  0  0  0  0  0
    2.5846   16.4207   40.9614 H   0  0  0  0  0  0  0  0  0  0  0  0
    1.6341   22.0535   38.1258 H   0  0  0  0  0  0  0  0  0  0  0  0
    1.1839   21.9043   40.0577 H   0  0  0  0  0  0  0  0  0  0  0  0
    0.0156   20.8504   39.2682 H   0  0  0  0  0  0  0  0  0  0  0  0
    4.5459   18.4057   40.2347 H   0  0  0  0  0  0  0  0  0  0  0  0
    5.2129   17.5231   38.8196 H   0  0  0  0  0  0  0  0  0  0  0  0
    5.1706   19.3188   38.8196 H   0  0  0  0  0  0  0  0  0  0  0  0
   -0.0711   17.4170   44.3821 H   0  0  0  0  0  0  0  0  0  0  0  0
  1  3  1  0
  2 15  1  0
  3  5  1  0
  3 14  1  0
  4 13  1  0
  4 12  1  0
  5  6  1  0
  6 17  1  0
  6 11  1  0
  7 19  1  0
  8 11  2  0
  8 16  1  0
 10 20  2  0
 10  2  1  0
 11  4  1  0
 12  7  1  0
 14  1  1  0
 14  8  1  0
 15 18  2  0
 15  9  1  0
 16 10  1  0
 18 19  2  0
 20 12  2  0
  2 21  1  0
  2 22  1  0
  3 23  1  0
  4 24  1  0
  5 25  1  0
  5 26  1  0
  6 27  1  0
  7 28  1  0
  7 29  1  0
  9 30  1  0
 13 31  1  0
 14 32  1  0
 16 33  1  0
 16 34  1  0
 17 35  1  0
 17 36  1  0
 17 37  1  0
 19 38  1  0
M  CHG  1  16   1
M  END
>  <mol_id>  (8) 
2026-09-18-3war-s0-n100-refligand-0008

>  <rmsd_to_ref>  (8) 


$$$$

     RDKit          3D

 39 40  0  0  0  0  0  0  0  0999 V2000
    2.2150   17.2760   40.4500 C   0  0  0  0  0  0  0  0  0  0  0  0
    1.0830   21.2240   40.2810 C   0  0  0  0  0  0  0  0  0  0  0  0
    1.7760   21.7700   37.7200 F   0  0  0  0  0  0  0  0  0  0  0  0
    1.0460   16.4970   42.4110 N   0  0  0  0  0  4  0  0  0  0  0  0
    2.1600   20.5830   38.1700 C   0  0  0  0  0  0  0  0  0  0  0  0
    1.8790   18.9580   39.8720 N   0  0  0  0  0  0  0  0  0  0  0  0
    1.8220   20.1120   39.4870 C   0  0  0  0  0  0  0  0  0  0  0  0
    2.2090   15.9110   40.2770 C   0  0  0  0  0  0  0  0  0  0  0  0
    2.9920   19.7570   37.3430 C   0  0  0  0  0  0  0  0  0  0  0  0
    3.1550   18.4920   37.8670 C   0  0  0  0  0  0  0  0  0  0  0  0
    3.4110   20.2150   36.1250 O   0  0  0  0  0  0  0  0  0  0  0  0
    1.6640   16.8180   41.1670 C   0  0  0  0  0  0  0  0  0  0  0  0
    2.6840   18.1490   39.1380 C   0  0  0  0  0  0  0  0  0  0  0  0
    0.6190   17.7150   43.0220 C   0  0  0  0  0  0  0  0  0  0  0  0
    1.4150   18.2260   41.0050 C   0  0  0  0  0  0  0  0  0  0  0  0
    0.8170   18.7280   42.2650 C   0  0  0  0  0  0  0  0  0  0  0  0
    3.7760   17.4150   37.1320 C   0  0  0  0  0  0  0  0  0  0  0  0
    1.2020   21.0450   41.3598 H   0  0  0  0  0  0  0  0  0  0  0  0
    1.5099   22.2043   40.0227 H   0  0  0  0  0  0  0  0  0  0  0  0
    0.0138   21.2101   40.0227 H   0  0  0  0  0  0  0  0  0  0  0  0
    1.7217   16.0176   43.0230 H   0  0  0  0  0  0  0  0  0  0  0  0
    0.2409   15.8729   42.2588 H   0  0  0  0  0  0  0  0  0  0  0  0
    2.7360   19.6617   39.9015 H   0  0  0  0  0  0  0  0  0  0  0  0
    2.2068   15.4169   41.2598 H   0  0  0  0  0  0  0  0  0  0  0  0
    1.3096   15.6164   39.7165 H   0  0  0  0  0  0  0  0  0  0  0  0
    3.1058   15.6085   39.7165 H   0  0  0  0  0  0  0  0  0  0  0  0
    3.2327   21.1522   35.8605 H   0  0  0  0  0  0  0  0  0  0  0  0
    0.7234   16.8459   40.5973 H   0  0  0  0  0  0  0  0  0  0  0  0
    2.6147   16.4964   41.6172 H   0  0  0  0  0  0  0  0  0  0  0  0
   -0.4559   17.6427   43.2441 H   0  0  0  0  0  0  0  0  0  0  0  0
    1.2072   17.8580   43.9404 H   0  0  0  0  0  0  0  0  0  0  0  0
    0.3388   17.9992   41.0259 H   0  0  0  0  0  0  0  0  0  0  0  0
    1.4723   18.5710   42.0479 H   0  0  0  0  0  0  0  0  0  0  0  0
    0.9914   19.6201   42.8844 H   0  0  0  0  0  0  0  0  0  0  0  0
    1.6964   18.5449   41.6300 H   0  0  0  0  0  0  0  0  0  0  0  0
   -0.0666   18.8895   41.6300 H   0  0  0  0  0  0  0  0  0  0  0  0
    4.1973   16.6843   37.8381 H   0  0  0  0  0  0  0  0  0  0  0  0
    3.0238   16.9215   36.4990 H   0  0  0  0  0  0  0  0  0  0  0  0
    4.5799   17.8188   36.4990 H   0  0  0  0  0  0  0  0  0  0  0  0
  1  8  1  0
  1 15  1  0
  1 12  1  0
  3  5  1  0
  4 14  1  0
  5  7  1  0
  6 15  1  0
  7  6  1  0
  7  2  1  0
  9 10  1  0
  9  5  2  0
 10 13  2  0
 11  9  1  0
 12  4  1  0
 13  6  1  0
 13  1  1  0
 16 14  1  0
 17 10  1  0
  2 18  1  0
  2 19  1  0
  2 20  1  0
  4 21  1  0
  4 22  1  0
  7 23  1  0
  8 24  1  0
  8 25  1  0
  8 26  1  0
 11 27  1  0
 12 28  1  0
 12 29  1  0
 14 30  1  0
 14 31  1  0
 15 32  1  0
 15 33  1  0
 16 34  1  0
 16 35  1  0
 16 36  1  0
 17 37  1  0
 17 38  1  0
 17 39  1  0
M  CHG  1   4   1
M  END
>  <mol_id>  (9) 
2026-09-18-3war-s0-n100-refligand-0009

>  <rmsd_to_ref>  (9) 


$$$$

     RDKit          3D

 20 20  0  0  0  0  0  0  0  0999 V2000
    0.6040   20.3200   42.2220 O   0  0  0  0  0  0  0  0  0  0  0  0
    2.3480   17.5970   39.6540 O   0  0  0  0  0  0  0  0  0  0  0  0
    2.8430   21.0950   36.0840 O   0  0  0  0  0  0  0  0  0  0  0  0
    2.7460   19.0660   39.4710 C   0  0  0  0  0  0  0  0  0  0  0  0
    2.7330   20.5620   37.3960 C   0  0  0  0  0  0  0  0  0  0  0  0
    1.3080   20.9840   40.1600 C   0  0  0  0  0  0  0  0  0  0  0  0
    4.1480   18.9780   39.8110 C   0  0  0  0  0  0  0  0  0  0  0  0
    1.8100   21.1350   38.0370 O   0  0  0  0  0  1  0  0  0  0  0  0
    1.4590   20.7780   41.2160 C   0  0  0  0  0  0  0  0  0  0  0  0
    3.1810   18.9290   37.5850 S   0  0  0  0  0  0  0  0  0  0  0  0
    1.6300   19.8240   40.0830 C   0  0  0  0  0  0  0  0  0  0  0  0
    0.9944   20.5291   43.1074 H   0  0  0  0  0  0  0  0  0  0  0  0
    2.2915   17.3883   40.6201 H   0  0  0  0  0  0  0  0  0  0  0  0
    0.2775   21.2205   39.8564 H   0  0  0  0  0  0  0  0  0  0  0  0
    1.7759   21.8091   39.6029 H   0  0  0  0  0  0  0  0  0  0  0  0
    4.2602   18.9710   40.9052 H   0  0  0  0  0  0  0  0  0  0  0  0
    4.5692   18.0517   39.3933 H   0  0  0  0  0  0  0  0  0  0  0  0
    4.6817   19.8444   39.3933 H   0  0  0  0  0  0  0  0  0  0  0  0
    1.9496   21.3780   41.9965 H   0  0  0  0  0  0  0  0  0  0  0  0
    1.2955   18.8434   39.7135 H   0  0  0  0  0  0  0  0  0  0  0  0
  3  5  2  0
  4  2  1  0
  4  7  1  0
  5 10  1  0
  5  8  1  0
  6  9  1  0
  9  1  1  0
 10  4  1  0
 11  4  1  0
 11  6  1  0
 11  9  1  0
  1 12  1  0
  2 13  1  0
  6 14  1  0
  6 15  1  0
  7 16  1  0
  7 17  1  0
  7 18  1  0
  9 19  1  0
 11 20  1  0
M  CHG  1   8  -1
M  END
>  <mol_id>  (10) 
2026-09-18-3war-s0-n100-refligand-0010

>  <rmsd_to_ref>  (10) 


$$$$

     RDKit          3D

 31 33  0  0  0  0  0  0  0  0999 V2000
    1.4470   21.1350   40.1020 C   0  0  0  0  0  0  0  0  0  0  0  0
    0.9150   20.7120   41.3670 C   0  0  0  0  0  0  0  0  0  0  0  0
    4.1060   16.4340   36.7470 S   0  0  0  0  0  0  0  0  0  0  0  0
    0.8850   16.9730   41.6750 N   0  0  0  0  0  0  0  0  0  0  0  0
    0.4350   15.8940   42.3970 C   0  0  0  0  0  0  0  0  0  0  0  0
    2.9640   18.1930   38.5160 N   0  0  0  0  0  0  0  0  0  0  0  0
    0.0640   18.5580   43.2620 C   0  0  0  0  0  0  0  0  0  0  0  0
    2.7100   19.9650   37.3110 C   0  0  0  0  0  0  0  0  0  0  0  0
    1.1010   19.3740   41.3000 C   0  0  0  0  0  0  0  0  0  0  0  0
   -0.2570   16.2040   43.5980 C   0  0  0  0  0  0  0  0  0  0  0  0
    1.7780   19.9660   39.5310 C   0  0  0  0  0  0  0  0  0  0  0  0
   -0.3850   17.4940   43.9830 C   0  0  0  0  0  0  0  0  0  0  0  0
    2.4840   19.3870   38.5820 C   0  0  0  0  0  0  0  0  0  0  0  0
    2.3700   21.1080   36.8760 O   0  0  0  0  0  0  0  0  0  0  0  0
    0.7040   18.2200   42.0780 C   0  0  0  0  0  0  0  0  0  0  0  0
    1.8730   19.0610   40.2490 N   0  0  0  0  0  4  0  0  0  0  0  0
    3.4540   18.0960   37.3190 C   0  0  0  0  0  0  0  0  0  0  0  0
    3.3950   19.1130   36.5870 N   0  0  0  0  0  0  0  0  0  0  0  0
    0.6899   21.6689   39.5089 H   0  0  0  0  0  0  0  0  0  0  0  0
    2.2878   21.8390   40.1886 H   0  0  0  0  0  0  0  0  0  0  0  0
    1.4721   21.1543   42.2061 H   0  0  0  0  0  0  0  0  0  0  0  0
   -0.1288   21.0131   41.5395 H   0  0  0  0  0  0  0  0  0  0  0  0
    0.5999   14.8579   42.0665 H   0  0  0  0  0  0  0  0  0  0  0  0
   -0.0695   19.5992   43.5907 H   0  0  0  0  0  0  0  0  0  0  0  0
    2.0126   19.4703   41.9080 H   0  0  0  0  0  0  0  0  0  0  0  0
   -0.6867   15.3987   44.2119 H   0  0  0  0  0  0  0  0  0  0  0  0
    1.1019   20.6023   38.9411 H   0  0  0  0  0  0  0  0  0  0  0  0
   -0.8847   17.6970   44.9417 H   0  0  0  0  0  0  0  0  0  0  0  0
    1.5355   18.2005   39.7946 H   0  0  0  0  0  0  0  0  0  0  0  0
    2.8498   18.8838   40.5236 H   0  0  0  0  0  0  0  0  0  0  0  0
    3.7893   19.2465   35.6449 H   0  0  0  0  0  0  0  0  0  0  0  0
  1  2  1  0
  3 17  2  0
  4 15  2  0
  4  5  1  0
  5 10  2  0
  6 13  2  0
  7 12  2  0
  8 13  1  0
  9  2  1  0
  9 15  1  0
 10 12  1  0
 11 13  1  0
 11  1  1  0
 11 16  1  0
 14  8  2  0
 15  7  1  0
 16  9  1  0
 17  6  1  0
 18  8  1  0
 18 17  1  0
  1 19  1  0
  1 20  1  0
  2 21  1  0
  2 22  1  0
  5 23  1  0
  7 24  1  0
  9 25  1  0
 10 26  1  0
 11 27  1  0
 12 28  1  0
 16 29  1  0
 16 30  1  0
 18 31  1  0
M  CHG  1  16   1
M  END
>  <mol_id>  (11) 
2026-09-18-3war-s0-n100-refligand-0011

>  <rmsd_to_ref>  (11) 


$$$$

     RDKit          3D

 52 55  0  0  0  0  0  0  0  0999 V2000
    2.3810   16.3350   40.1200 C   0  0  0  0  0  0  0  0  0  0  0  0
   -0.1600   20.6820   42.7090 C   0  0  0  0  0  0  0  0  0  0  0  0
    0.1090   21.5550   41.6040 C   0  0  0  0  0  0  0  0  0  0  0  0
    3.4340   17.7620   38.2990 C   0  0  0  0  0  0  0  0  0  0  0  0
    1.0540   19.7430   40.4540 C   0  0  0  0  0  0  0  0  0  0  0  0
    2.1160   20.6640   38.1800 C   0  0  0  0  0  0  0  0  0  0  0  0
    3.0350   17.4260   39.5620 C   0  0  0  0  0  0  0  0  0  0  0  0
    3.5030   18.4040   37.4120 C   0  0  0  0  0  0  0  0  0  0  0  0
    1.1740   21.0950   40.8270 C   0  0  0  0  0  0  0  0  0  0  0  0
    3.0390   20.4800   36.6350 C   0  0  0  0  0  0  0  0  0  0  0  0
    0.8900   18.8380   41.4960 C   0  0  0  0  0  0  0  0  0  0  0  0
    2.2050   20.5990   37.7060 C   0  0  0  0  0  0  0  0  0  0  0  0
   -0.8150   21.0200   43.6520 O   0  0  0  0  0  0  0  0  0  0  0  0
    3.0760   15.1780   39.5810 C   0  0  0  0  0  0  0  0  0  0  0  0
    3.6400   19.2700   36.4210 C   0  0  0  0  0  0  0  0  0  0  0  0
    2.0030   20.1010   37.9370 C   0  0  0  0  0  0  0  0  0  0  0  0
    0.2410   19.3630   42.5040 C   0  0  0  0  0  0  0  0  0  0  0  0
    3.7040   16.8310   37.6290 O   0  0  0  0  0  0  0  0  0  0  0  0
    3.0870   21.3050   35.7100 O   0  0  0  0  0  0  0  0  0  0  0  0
    1.8380   14.0610   41.0330 O   0  0  0  0  0  0  0  0  0  0  0  0
    0.6710   17.4130   43.0080 C   0  0  0  0  0  0  0  0  0  0  0  0
    1.0180   17.4850   41.6350 C   0  0  0  0  0  0  0  0  0  0  0  0
    2.6510   14.2960   40.2530 C   0  0  0  0  0  0  0  0  0  0  0  0
    2.0000   19.5530   39.2900 O   0  0  0  0  0  0  0  0  0  0  0  0
    0.0360   18.4170   43.4540 N   0  0  0  0  0  4  0  0  0  0  0  0
    1.3110   16.4460   40.7550 C   0  0  0  0  0  0  0  0  0  0  0  0
    2.0310   16.0391   41.1200 H   0  0  0  0  0  0  0  0  0  0  0  0
   -0.7902   21.6188   40.9736 H   0  0  0  0  0  0  0  0  0  0  0  0
    0.3807   22.5421   42.0064 H   0  0  0  0  0  0  0  0  0  0  0  0
    0.0765   19.4402   40.0504 H   0  0  0  0  0  0  0  0  0  0  0  0
    2.9558   20.7966   38.8779 H   0  0  0  0  0  0  0  0  0  0  0  0
    1.5142   21.3844   38.7535 H   0  0  0  0  0  0  0  0  0  0  0  0
    3.9730   17.4690   40.1350 H   0  0  0  0  0  0  0  0  0  0  0  0
    2.1519   18.0819   39.5641 H   0  0  0  0  0  0  0  0  0  0  0  0
    4.0620   17.6346   36.8593 H   0  0  0  0  0  0  0  0  0  0  0  0
    2.5022   18.8072   37.6259 H   0  0  0  0  0  0  0  0  0  0  0  0
    2.1032   21.2161   41.4032 H   0  0  0  0  0  0  0  0  0  0  0  0
    1.1778   21.6873   39.9001 H   0  0  0  0  0  0  0  0  0  0  0  0
    2.1125   21.4868   37.0632 H   0  0  0  0  0  0  0  0  0  0  0  0
    2.8316   15.0244   38.5196 H   0  0  0  0  0  0  0  0  0  0  0  0
    4.1720   15.2674   39.6102 H   0  0  0  0  0  0  0  0  0  0  0  0
    3.2035   18.8257   35.5143 H   0  0  0  0  0  0  0  0  0  0  0  0
    4.7178   19.4694   36.3280 H   0  0  0  0  0  0  0  0  0  0  0  0
    1.6713   19.2290   37.3542 H   0  0  0  0  0  0  0  0  0  0  0  0
    1.5990   17.3103   43.5896 H   0  0  0  0  0  0  0  0  0  0  0  0
   -0.0055   16.5516   43.1093 H   0  0  0  0  0  0  0  0  0  0  0  0
   -0.0544   17.3618   41.4234 H   0  0  0  0  0  0  0  0  0  0  0  0
    3.2397   13.3862   40.0641 H   0  0  0  0  0  0  0  0  0  0  0  0
    0.4146   18.7189   44.3631 H   0  0  0  0  0  0  0  0  0  0  0  0
   -0.9617   18.2218   43.6198 H   0  0  0  0  0  0  0  0  0  0  0  0
    0.5172   16.4710   39.9939 H   0  0  0  0  0  0  0  0  0  0  0  0
    1.4043   15.6051   41.4580 H   0  0  0  0  0  0  0  0  0  0  0  0
  1 14  1  0
  1 26  1  0
  2 13  2  0
  3  2  1  0
  4  7  1  0
  5  9  1  0
  5 11  1  0
  7  1  1  0
  8  4  1  0
  9  3  1  0
 10 12  1  0
 11 22  1  0
 11 17  2  0
 12 16  1  0
 12  6  1  0
 14 23  1  0
 15 10  1  0
 15  8  1  0
 16  6  1  0
 16 24  1  0
 17  2  1  0
 17 25  1  0
 18  4  2  0
 19 10  2  0
 21 25  1  0
 22 26  1  0
 22 21  1  0
 23 20  2  0
 24  5  1  0
  1 27  1  0
  3 28  1  0
  3 29  1  0
  5 30  1  0
  6 31  1  0
  6 32  1  0
  7 33  1  0
  7 34  1  0
  8 35  1  0
  8 36  1  0
  9 37  1  0
  9 38  1  0
 12 39  1  0
 14 40  1  0
 14 41  1  0
 15 42  1  0
 15 43  1  0
 16 44  1  0
 21 45  1  0
 21 46  1  0
 22 47  1  0
 23 48  1  0
 25 49  1  0
 25 50  1  0
 26 51  1  0
 26 52  1  0
M  CHG  1  25   1
M  END
>  <mol_id>  (12) 
2026-09-18-3war-s0-n100-refligand-0012

>  <rmsd_to_ref>  (12) 


$$$$

     RDKit          3D

 23 24  0  0  0  0  0  0  0  0999 V2000
    3.4820   18.4530   37.6810 C   0  0  0  0  0  0  0  0  0  0  0  0
    1.9640   19.6550   39.4970 C   0  0  0  0  0  0  0  0  0  0  0  0
    2.4200   18.2390   39.7280 C   0  0  0  0  0  0  0  0  0  0  0  0
    3.3370   17.5380   38.7930 C   0  0  0  0  0  0  0  0  0  0  0  0
    1.1290   18.1350   41.7850 C   0  0  0  0  0  0  0  0  0  0  0  0
    1.9520   17.4900   40.7650 C   0  0  0  0  0  0  0  0  0  0  0  0
    1.2110   20.2300   40.6160 C   0  0  0  0  0  0  0  0  0  0  0  0
    1.9550   20.7390   38.5750 C   0  0  0  0  0  0  0  0  0  0  0  0
    0.7980   19.4430   41.6870 C   0  0  0  0  0  0  0  0  0  0  0  0
    2.5530   20.7840   37.3510 C   0  0  0  0  0  0  0  0  0  0  0  0
    3.1580   19.5900   37.1630 C   0  0  0  0  0  0  0  0  0  0  0  0
    4.1651   17.9693   36.9672 H   0  0  0  0  0  0  0  0  0  0  0  0
    2.8997   16.5854   38.4593 H   0  0  0  0  0  0  0  0  0  0  0  0
    4.3012   17.2870   39.2592 H   0  0  0  0  0  0  0  0  0  0  0  0
    0.7733   17.5487   42.6451 H   0  0  0  0  0  0  0  0  0  0  0  0
    2.1897   16.4181   40.8331 H   0  0  0  0  0  0  0  0  0  0  0  0
    0.9681   21.3028   40.6089 H   0  0  0  0  0  0  0  0  0  0  0  0
    0.8905   20.9324   38.3766 H   0  0  0  0  0  0  0  0  0  0  0  0
    2.6127   21.4347   39.1166 H   0  0  0  0  0  0  0  0  0  0  0  0
    0.1838   19.8984   42.4778 H   0  0  0  0  0  0  0  0  0  0  0  0
    1.7990   20.9529   36.5681 H   0  0  0  0  0  0  0  0  0  0  0  0
    3.2822   21.6060   37.3001 H   0  0  0  0  0  0  0  0  0  0  0  0
    3.5340   19.5853   36.1293 H   0  0  0  0  0  0  0  0  0  0  0  0
  1  4  1  0
  2  3  2  0
  2  7  1  0
  3  6  1  0
  4  3  1  0
  6  5  2  0
  7  9  2  0
  8  2  1  0
  9  5  1  0
 10  8  1  0
 11 10  1  0
 11  1  2  0
  1 12  1  0
  4 13  1  0
  4 14  1  0
  5 15  1  0
  6 16  1  0
  7 17  1  0
  8 18  1  0
  8 19  1  0
  9 20  1  0
 10 21  1  0
 10 22  1  0
 11 23  1  0
M  END
>  <mol_id>  (13) 
2026-09-18-3war-s0-n100-refligand-0013

>  <rmsd_to_ref>  (13) 


$$$$

     RDKit          3D

 33 34  0  0  0  0  0  0  0  0999 V2000
    3.3080   18.6680   36.8760 N   0  0  0  0  0  0  0  0  0  0  0  0
    2.7420   17.3710   38.7730 C   0  0  0  0  0  0  0  0  0  0  0  0
    2.2630   21.4140   36.8430 O   0  0  0  0  0  0  0  0  0  0  0  0
    1.8210   16.3650   40.6920 O   0  0  0  0  0  0  0  0  0  0  0  0
    1.6960   20.7850   39.0600 N   0  0  0  0  0  0  0  0  0  0  0  0
    0.9170   18.0850   42.9350 C   0  0  0  0  0  0  0  0  0  0  0  0
    2.2490   20.6290   37.8200 C   0  0  0  0  0  0  0  0  0  0  0  0
    0.5870   18.7140   41.6400 C   0  0  0  0  0  0  0  0  0  0  0  0
    1.2320   21.1620   41.5690 C   0  0  0  0  0  0  0  0  0  0  0  0
    3.2870   17.4210   37.4760 C   0  0  0  0  0  0  0  0  0  0  0  0
    2.3210   18.6450   38.9570 N   0  0  0  0  0  0  0  0  0  0  0  0
    1.8320   19.6330   39.7260 C   0  0  0  0  0  0  0  0  0  0  0  0
    3.9290   16.3870   36.9460 N   0  0  0  0  0  0  0  0  0  0  0  0
   -0.2600   21.1640   41.7830 C   0  0  0  0  0  0  0  0  0  0  0  0
    2.5800   16.1660   39.5520 C   0  0  0  0  0  0  0  0  0  0  0  0
    2.7120   19.3190   37.8260 C   0  0  0  0  0  0  0  0  0  0  0  0
    1.6070   19.7430   41.1940 C   0  0  0  0  0  0  0  0  0  0  0  0
    2.3837   16.2175   41.4930 H   0  0  0  0  0  0  0  0  0  0  0  0
    0.5765   18.7341   43.7552 H   0  0  0  0  0  0  0  0  0  0  0  0
    0.4148   17.1090   43.0071 H   0  0  0  0  0  0  0  0  0  0  0  0
    2.0055   17.9435   43.0071 H   0  0  0  0  0  0  0  0  0  0  0  0
    0.5285   17.9263   40.8745 H   0  0  0  0  0  0  0  0  0  0  0  0
   -0.3705   19.2400   41.7688 H   0  0  0  0  0  0  0  0  0  0  0  0
    1.5011   21.8540   40.7574 H   0  0  0  0  0  0  0  0  0  0  0  0
    1.7655   21.4904   42.4732 H   0  0  0  0  0  0  0  0  0  0  0  0
    3.8986   15.4685   37.4112 H   0  0  0  0  0  0  0  0  0  0  0  0
    4.4575   16.5032   36.0696 H   0  0  0  0  0  0  0  0  0  0  0  0
   -0.4757   21.1643   42.8616 H   0  0  0  0  0  0  0  0  0  0  0  0
   -0.6954   22.0627   41.3218 H   0  0  0  0  0  0  0  0  0  0  0  0
   -0.6978   20.2664   41.3218 H   0  0  0  0  0  0  0  0  0  0  0  0
    2.0852   15.4073   38.9278 H   0  0  0  0  0  0  0  0  0  0  0  0
    3.5807   15.8401   39.8718 H   0  0  0  0  0  0  0  0  0  0  0  0
    2.5399   19.5198   41.7324 H   0  0  0  0  0  0  0  0  0  0  0  0
  1 10  1  0
  1 16  2  0
  2 11  1  0
  2 15  1  0
  3  7  2  0
  5 12  2  0
  7 16  1  0
  7  5  1  0
  8  6  1  0
  9 14  1  0
 10  2  2  0
 11 12  1  0
 12 17  1  0
 13 10  1  0
 15  4  1  0
 16 11  1  0
 17  9  1  0
 17  8  1  0
  4 18  1  0
  6 19  1  0
  6 20  1  0
  6 21  1  0
  8 22  1  0
  8 23  1  0
  9 24  1  0
  9 25  1  0
 13 26  1  0
 13 27  1  0
 14 28  1  0
 14 29  1  0
 14 30  1  0
 15 31  1  0
 15 32  1  0
 17 33  1  0
M  END
>  <mol_id>  (14) 
2026-09-18-3war-s0-n100-refligand-0014

>  <rmsd_to_ref>  (14) 


$$$$

     RDKit          3D

 41 44  0  0  0  0  0  0  0  0999 V2000
   -0.1530   21.3480   42.7520 O   0  0  0  0  0  0  0  0  0  0  0  0
    3.5590   18.1600   37.3630 C   0  0  0  0  0  0  0  0  0  0  0  0
    0.2210   20.3030   42.1620 C   0  0  0  0  0  0  0  0  0  0  0  0
   -0.3320   18.2090   45.0260 C   0  0  0  0  0  0  0  0  0  0  0  0
    2.5100   19.8660   38.7370 C   0  0  0  0  0  0  0  0  0  0  0  0
    3.3000   17.1540   38.2910 C   0  0  0  0  0  0  0  0  0  0  0  0
    2.0070   18.7910   39.6470 C   0  0  0  0  0  0  0  0  0  0  0  0
    0.8870   18.2330   41.7280 C   0  0  0  0  0  0  0  0  0  0  0  0
    3.1320   19.5600   37.5330 C   0  0  0  0  0  0  0  0  0  0  0  0
    2.5370   17.4500   39.4590 C   0  0  0  0  0  0  0  0  0  0  0  0
    2.0960   16.4580   40.3880 N   0  0  0  0  0  0  0  0  0  0  0  0
    1.3380   19.0850   40.7930 C   0  0  0  0  0  0  0  0  0  0  0  0
    3.6730   14.7790   37.4290 C   0  0  0  0  0  0  0  0  0  0  0  0
    3.6950   15.8700   38.3590 O   0  0  0  0  0  0  0  0  0  0  0  0
    1.9940   21.2130   39.0540 C   0  0  0  0  0  0  0  0  0  0  0  0
    3.1900   20.4040   36.5170 C   0  0  0  0  0  0  0  0  0  0  0  0
    0.9120   20.4070   41.0350 C   0  0  0  0  0  0  0  0  0  0  0  0
    1.2430   16.7560   41.5640 C   0  0  0  0  0  0  0  0  0  0  0  0
    1.1790   21.4430   40.1500 C   0  0  0  0  0  0  0  0  0  0  0  0
    0.6940   15.7890   42.6590 C   0  0  0  0  0  0  0  0  0  0  0  0
   -0.0210   19.0460   42.6390 N   0  0  0  0  0  0  0  0  0  0  0  0
    3.1330   21.1040   35.6250 N   0  0  0  0  0  0  0  0  0  0  0  0
    0.0000   14.6020   42.0650 C   0  0  0  0  0  0  0  0  0  0  0  0
   -0.9940   18.8100   43.7710 C   0  0  0  0  0  0  0  0  0  0  0  0
    4.1140   17.8941   36.4512 H   0  0  0  0  0  0  0  0  0  0  0  0
   -0.7999   18.6337   45.9264 H   0  0  0  0  0  0  0  0  0  0  0  0
   -0.4655   17.1171   45.0237 H   0  0  0  0  0  0  0  0  0  0  0  0
    0.7419   18.4471   45.0237 H   0  0  0  0  0  0  0  0  0  0  0  0
    1.0268   18.7304   39.1516 H   0  0  0  0  0  0  0  0  0  0  0  0
    3.6538   13.8274   37.9805 H   0  0  0  0  0  0  0  0  0  0  0  0
    2.7762   14.8544   36.7965 H   0  0  0  0  0  0  0  0  0  0  0  0
    4.5721   14.8182   36.7965 H   0  0  0  0  0  0  0  0  0  0  0  0
    2.2643   22.0566   38.4019 H   0  0  0  0  0  0  0  0  0  0  0  0
    0.7460   22.4401   40.3182 H   0  0  0  0  0  0  0  0  0  0  0  0
    1.5345   15.4370   43.2752 H   0  0  0  0  0  0  0  0  0  0  0  0
   -0.0392   16.3429   43.2636 H   0  0  0  0  0  0  0  0  0  0  0  0
   -0.3775   13.9564   42.8716 H   0  0  0  0  0  0  0  0  0  0  0  0
   -0.8414   14.9423   41.4436 H   0  0  0  0  0  0  0  0  0  0  0  0
    0.7092   14.0356   41.4436 H   0  0  0  0  0  0  0  0  0  0  0  0
   -1.4522   19.7720   44.0443 H   0  0  0  0  0  0  0  0  0  0  0  0
   -1.7391   18.0833   43.4150 H   0  0  0  0  0  0  0  0  0  0  0  0
  2  9  2  0
  2  6  1  0
  3 21  1  0
  3  1  2  0
  5 15  2  0
  6 14  1  0
  6 10  2  0
  7  5  1  0
  7 12  1  0
  8 21  1  0
  9  5  1  0
 10  7  1  0
 10 11  1  0
 11 18  2  0
 12 17  1  0
 12  8  2  0
 13 14  1  0
 15 19  1  0
 16  9  1  0
 17  3  1  0
 18  8  1  0
 18 20  1  0
 19 17  2  0
 21 24  1  0
 22 16  3  0
 23 20  1  0
 24  4  1  0
  2 25  1  0
  4 26  1  0
  4 27  1  0
  4 28  1  0
  7 29  1  0
 13 30  1  0
 13 31  1  0
 13 32  1  0
 15 33  1  0
 19 34  1  0
 20 35  1  0
 20 36  1  0
 23 37  1  0
 23 38  1  0
 23 39  1  0
 24 40  1  0
 24 41  1  0
M  END
>  <mol_id>  (15) 
2026-09-18-3war-s0-n100-refligand-0015

>  <rmsd_to_ref>  (15) 


$$$$

     RDKit          3D

 47 49  0  0  0  0  0  0  0  0999 V2000
   -0.3000   19.1150   43.4780 C   0  0  0  0  0  0  0  0  0  0  0  0
    2.8200   20.6150   38.0880 C   0  0  0  0  0  0  0  0  0  0  0  0
   -1.0230   18.6410   45.7960 N   0  0  0  0  0  0  0  0  0  0  0  0
    0.2290   18.1800   42.7320 N   0  0  0  0  0  0  0  0  0  0  0  0
    3.3070   18.4210   37.4630 C   0  0  0  0  0  0  0  0  0  0  0  0
    2.9150   19.7770   37.0970 C   0  0  0  0  0  0  0  0  0  0  0  0
    2.7620   16.3850   38.8370 C   0  0  0  0  0  0  0  0  0  0  0  0
    2.3480   18.6420   39.6850 C   0  0  0  0  0  0  0  0  0  0  0  0
    2.8000   17.8070   38.7290 C   0  0  0  0  0  0  0  0  0  0  0  0
    2.6120   21.7020   36.0240 C   0  0  0  0  0  0  0  0  0  0  0  0
    0.9500   21.6770   41.0100 Cl  0  0  0  0  0  0  0  0  0  0  0  0
    0.5480   20.2400   41.8490 C   0  0  0  0  0  0  0  0  0  0  0  0
   -0.7630   21.5640   43.2550 O   0  0  0  0  0  0  0  0  0  0  0  0
    1.2130   15.7920   42.0160 C   0  0  0  0  0  0  0  0  0  0  0  0
    1.8570   18.1920   40.8130 C   0  0  0  0  0  0  0  0  0  0  0  0
   -0.6930   18.6540   44.8050 C   0  0  0  0  0  0  0  0  0  0  0  0
    2.8880   14.1880   37.9350 N   0  0  0  0  0  4  0  0  0  0  0  0
   -0.2580   20.3820   42.9230 C   0  0  0  0  0  0  0  0  0  0  0  0
    3.9730   17.4460   36.6120 N   0  0  0  0  0  0  0  0  0  0  0  0
    2.3990   20.1780   39.3440 C   0  0  0  0  0  0  0  0  0  0  0  0
    3.8750   16.0670   36.7970 C   0  0  0  0  0  0  0  0  0  0  0  0
    3.0750   15.5160   37.8000 C   0  0  0  0  0  0  0  0  0  0  0  0
    3.0200   21.0350   35.9740 O   0  0  0  0  0  0  0  0  0  0  0  0
    1.8270   16.6380   41.0100 C   0  0  0  0  0  0  0  0  0  0  0  0
    2.3500   15.8640   40.0510 C   0  0  0  0  0  0  0  0  0  0  0  0
    3.0970   21.6740   34.9210 C   0  0  0  0  0  0  0  0  0  0  0  0
    0.9750   18.7970   41.6690 C   0  0  0  0  0  0  0  0  0  0  0  0
    3.0732   21.6744   37.9343 H   0  0  0  0  0  0  0  0  0  0  0  0
    0.1276   17.1660   42.8818 H   0  0  0  0  0  0  0  0  0  0  0  0
    2.7137   20.0709   36.0563 H   0  0  0  0  0  0  0  0  0  0  0  0
    1.5174   21.6252   36.1015 H   0  0  0  0  0  0  0  0  0  0  0  0
    2.6723   22.4935   36.7855 H   0  0  0  0  0  0  0  0  0  0  0  0
   -1.3519   21.6460   44.0465 H   0  0  0  0  0  0  0  0  0  0  0  0
    1.4802   16.1602   43.0175 H   0  0  0  0  0  0  0  0  0  0  0  0
    0.1197   15.8147   41.8966 H   0  0  0  0  0  0  0  0  0  0  0  0
    1.5735   14.7596   41.8966 H   0  0  0  0  0  0  0  0  0  0  0  0
    2.8539   13.9460   38.9356 H   0  0  0  0  0  0  0  0  0  0  0  0
    2.0008   13.9188   37.4863 H   0  0  0  0  0  0  0  0  0  0  0  0
    3.6664   13.6843   37.4863 H   0  0  0  0  0  0  0  0  0  0  0  0
    2.0995   20.9145   40.1042 H   0  0  0  0  0  0  0  0  0  0  0  0
    4.4427   15.3961   36.1355 H   0  0  0  0  0  0  0  0  0  0  0  0
    2.1478   15.3600   37.2291 H   0  0  0  0  0  0  0  0  0  0  0  0
    3.2229   20.7033   36.8844 H   0  0  0  0  0  0  0  0  0  0  0  0
    2.4551   14.7843   40.2330 H   0  0  0  0  0  0  0  0  0  0  0  0
    4.1921   21.6108   35.0035 H   0  0  0  0  0  0  0  0  0  0  0  0
    2.7190   20.7962   34.3764 H   0  0  0  0  0  0  0  0  0  0  0  0
    2.8225   22.5895   34.3764 H   0  0  0  0  0  0  0  0  0  0  0  0
  1 16  1  0
  2 20  2  0
  4  1  1  0
  5  9  1  0
  6  5  2  0
  6  2  1  0
  7 25  1  0
  8 15  2  0
  9  7  2  0
  9  8  1  0
 11 12  1  0
 12 18  1  0
 15 24  1  0
 15 27  1  0
 16  3  3  0
 18 13  1  0
 18  1  2  0
 19 21  2  0
 19  5  1  0
 20  8  1  0
 21 22  1  0
 22 17  1  0
 22  7  1  0
 23 10  1  0
 24 14  1  0
 25 24  2  0
 26 10  1  0
 27 12  2  0
 27  4  1  0
  2 28  1  0
  4 29  1  0
  6 30  1  0
 10 31  1  0
 10 32  1  0
 13 33  1  0
 14 34  1  0
 14 35  1  0
 14 36  1  0
 17 37  1  0
 17 38  1  0
 17 39  1  0
 20 40  1  0
 21 41  1  0
 22 42  1  0
 23 43  1  0
 25 44  1  0
 26 45  1  0
 26 46  1  0
 26 47  1  0
M  CHG  1  17   1
M  END
>  <mol_id>  (16) 
2026-09-18-3war-s0-n100-refligand-0016

>  <rmsd_to_ref>  (16) 


$$$$

     RDKit          3D

 16 15  0  0  0  0  0  0  0  0999 V2000
    2.7090   19.4520   39.1610 C   0  0  0  0  0  0  0  0  0  0  0  0
    3.7000   20.6840   35.7570 O   0  0  0  0  0  0  0  0  0  0  0  0
    2.5370   20.0410   37.8500 C   0  0  0  0  0  0  0  0  0  0  0  0
    1.2770   21.2080   39.5810 O   0  0  0  0  0  0  0  0  0  0  0  0
    3.2980   19.8250   36.8030 C   0  0  0  0  0  0  0  0  0  0  0  0
    2.2440   20.2760   40.3470 C   0  0  0  0  0  0  0  0  0  0  0  0
    3.7816   19.2491   39.2967 H   0  0  0  0  0  0  0  0  0  0  0  0
    2.0674   18.5585   39.1618 H   0  0  0  0  0  0  0  0  0  0  0  0
    4.0870   21.5110   36.1395 H   0  0  0  0  0  0  0  0  0  0  0  0
    1.5234   19.7525   37.5346 H   0  0  0  0  0  0  0  0  0  0  0  0
    2.8149   21.0816   38.0732 H   0  0  0  0  0  0  0  0  0  0  0  0
    0.7376   21.7278   40.2283 H   0  0  0  0  0  0  0  0  0  0  0  0
    2.8013   18.9922   36.2837 H   0  0  0  0  0  0  0  0  0  0  0  0
    4.2593   19.8046   37.3373 H   0  0  0  0  0  0  0  0  0  0  0  0
    1.7270   19.6667   41.1029 H   0  0  0  0  0  0  0  0  0  0  0  0
    3.0314   20.7693   40.9358 H   0  0  0  0  0  0  0  0  0  0  0  0
  1  6  1  0
  2  5  1  0
  3  1  1  0
  4  6  1  0
  5  3  1  0
  1  7  1  0
  1  8  1  0
  2  9  1  0
  3 10  1  0
  3 11  1  0
  4 12  1  0
  5 13  1  0
  5 14  1  0
  6 15  1  0
  6 16  1  0
M  END
>  <mol_id>  (17) 
2026-09-18-3war-s0-n100-refligand-0017

>  <rmsd_to_ref>  (17) 


$$$$

     RDKit          3D

 25 27  0  0  0  0  0  0  0  0999 V2000
    0.6000   20.3480   41.6880 C   0  0  0  0  0  0  0  0  0  0  0  0
    1.9510   18.5060   40.1370 C   0  0  0  0  0  0  0  0  0  0  0  0
    2.3560   20.4600   38.0600 C   0  0  0  0  0  0  0  0  0  0  0  0
   -0.1340   18.5820   43.2340 C   0  0  0  0  0  0  0  0  0  0  0  0
    0.6080   17.8000   42.4310 C   0  0  0  0  0  0  0  0  0  0  0  0
    2.7510   19.0340   37.8420 C   0  0  0  0  0  0  0  0  0  0  0  0
    1.8800   16.6380   41.1320 O   0  0  0  0  0  0  0  0  0  0  0  0
    3.0880   16.9230   38.4230 N   0  0  0  0  0  0  0  0  0  0  0  0
    2.5940   18.1000   38.9460 C   0  0  0  0  0  0  0  0  0  0  0  0
    1.4600   17.8620   41.2560 C   0  0  0  0  0  0  0  0  0  0  0  0
    0.0170   19.8550   42.8430 N   0  0  0  0  0  0  0  0  0  0  0  0
    2.5150   21.2120   36.9200 O   0  0  0  0  0  0  0  0  0  0  0  0
    3.3150   18.3800   36.7920 N   0  0  0  0  0  0  0  0  0  0  0  0
    1.7510   20.8870   39.2830 C   0  0  0  0  0  0  0  0  0  0  0  0
    3.5160   17.1060   37.1920 C   0  0  0  0  0  0  0  0  0  0  0  0
    1.4790   19.8830   40.4630 C   0  0  0  0  0  0  0  0  0  0  0  0
    0.3758   21.4207   41.5927 H   0  0  0  0  0  0  0  0  0  0  0  0
   -1.1928   18.2934   43.1584 H   0  0  0  0  0  0  0  0  0  0  0  0
    0.1908   18.4667   44.2786 H   0  0  0  0  0  0  0  0  0  0  0  0
    0.5505   16.7595   42.7833 H   0  0  0  0  0  0  0  0  0  0  0  0
    1.6549   15.9651   41.8224 H   0  0  0  0  0  0  0  0  0  0  0  0
    2.9502   20.8172   36.1233 H   0  0  0  0  0  0  0  0  0  0  0  0
    1.4688   21.9435   39.4017 H   0  0  0  0  0  0  0  0  0  0  0  0
    3.9769   16.3240   36.5706 H   0  0  0  0  0  0  0  0  0  0  0  0
    1.8442   19.8298   41.4992 H   0  0  0  0  0  0  0  0  0  0  0  0
  1 11  2  0
  2 16  1  0
  2 10  1  0
  3 14  2  0
  5  4  1  0
  6  3  1  0
  6  9  1  0
  7 10  1  0
  8  9  1  0
  9  2  2  0
 10  5  2  0
 11  4  1  0
 12  3  1  0
 13 15  1  0
 13  6  2  0
 15  8  2  0
 16 14  1  0
 16  1  1  0
  1 17  1  0
  4 18  1  0
  4 19  1  0
  5 20  1  0
  7 21  1  0
 12 22  1  0
 14 23  1  0
 15 24  1  0
 16 25  1  0
M  END
>  <mol_id>  (18) 
2026-09-18-3war-s0-n100-refligand-0018

>  <rmsd_to_ref>  (18) 


$$$$

     RDKit          3D

 42 45  0  0  0  0  0  0  0  0999 V2000
    1.7610   19.2870   40.4950 C   0  0  0  0  0  0  0  0  0  0  0  0
    1.1220   20.3160   41.1470 C   0  0  0  0  0  0  0  0  0  0  0  0
    0.8250   18.3670   41.9530 C   0  0  0  0  0  0  0  0  0  0  0  0
    2.6070   21.3360   35.9380 C   0  0  0  0  0  0  0  0  0  0  0  0
    3.5710   19.6320   37.0760 C   0  0  0  0  0  0  0  0  0  0  0  0
    3.3980   16.9020   38.1620 C   0  0  0  0  0  0  0  0  0  0  0  0
    0.0500   18.3590   44.2860 C   0  0  0  0  0  0  0  0  0  0  0  0
    1.5670   18.1110   40.9160 N   0  0  0  0  0  0  0  0  0  0  0  0
    2.0330   21.0340   38.2740 C   0  0  0  0  0  0  0  0  0  0  0  0
    3.3960   20.3340   36.0200 N   0  0  0  0  0  0  0  0  0  0  0  0
    1.9430   21.7990   37.0710 C   0  0  0  0  0  0  0  0  0  0  0  0
    2.9130   17.7560   39.1670 C   0  0  0  0  0  0  0  0  0  0  0  0
    2.4130   15.7900   39.7090 C   0  0  0  0  0  0  0  0  0  0  0  0
    2.8330   19.9120   38.2810 C   0  0  0  0  0  0  0  0  0  0  0  0
    0.3000   19.5480   42.1520 C   0  0  0  0  0  0  0  0  0  0  0  0
   -0.1540   19.5000   43.5330 C   0  0  0  0  0  0  0  0  0  0  0  0
    2.7330   19.0900   39.4910 N   0  0  0  0  0  0  0  0  0  0  0  0
    3.0770   15.6340   38.5750 N   0  0  0  0  0  0  0  0  0  0  0  0
    2.5110   22.0610   34.8280 O   0  0  0  0  0  0  0  0  0  0  0  0
    0.5090   18.3500   44.1430 C   0  0  0  0  0  0  0  0  0  0  0  0
    1.9980   14.6180   40.5260 C   0  0  0  0  0  0  0  0  0  0  0  0
    2.1950   17.2880   40.1760 C   0  0  0  0  0  0  0  0  0  0  0  0
    0.9027   19.1850   39.8147 H   0  0  0  0  0  0  0  0  0  0  0  0
    1.8385   20.9894   41.6402 H   0  0  0  0  0  0  0  0  0  0  0  0
    0.5370   20.9769   40.4906 H   0  0  0  0  0  0  0  0  0  0  0  0
    0.6336   17.5672   42.6836 H   0  0  0  0  0  0  0  0  0  0  0  0
    4.2947   18.8037   37.0631 H   0  0  0  0  0  0  0  0  0  0  0  0
    3.9237   17.1895   37.2395 H   0  0  0  0  0  0  0  0  0  0  0  0
   -0.0817   18.5042   45.3684 H   0  0  0  0  0  0  0  0  0  0  0  0
   -0.5950   17.4779   44.1529 H   0  0  0  0  0  0  0  0  0  0  0  0
    1.4764   21.3337   39.1742 H   0  0  0  0  0  0  0  0  0  0  0  0
    2.3392   22.8009   37.2929 H   0  0  0  0  0  0  0  0  0  0  0  0
    0.8784   21.7484   36.7987 H   0  0  0  0  0  0  0  0  0  0  0  0
    3.7475   17.7503   38.4504 H   0  0  0  0  0  0  0  0  0  0  0  0
    0.3479   20.3238   44.0616 H   0  0  0  0  0  0  0  0  0  0  0  0
   -1.2490   19.5520   43.4423 H   0  0  0  0  0  0  0  0  0  0  0  0
    1.1674   18.3371   45.0241 H   0  0  0  0  0  0  0  0  0  0  0  0
    0.6872   17.4482   43.5389 H   0  0  0  0  0  0  0  0  0  0  0  0
    0.7224   19.2441   43.5389 H   0  0  0  0  0  0  0  0  0  0  0  0
    2.0858   14.8660   41.5941 H   0  0  0  0  0  0  0  0  0  0  0  0
    0.9540   14.3605   40.2940 H   0  0  0  0  0  0  0  0  0  0  0  0
    2.6473   13.7609   40.2940 H   0  0  0  0  0  0  0  0  0  0  0  0
  1  8  1  0
  1  2  1  0
  2 15  1  0
  3 15  2  0
  4 10  1  0
  4 11  1  0
  5 14  1  0
  6 18  2  0
  8  3  1  0
  9 14  2  0
 10  5  2  0
 11  9  1  0
 12  6  1  0
 12 17  1  0
 12 22  1  0
 13 22  2  0
 13 21  1  0
 14 17  1  0
 15 16  1  0
 16  7  1  0
 17  1  1  0
 18 13  1  0
 19  4  2  0
 20  7  1  0
 22  8  1  0
  1 23  1  0
  2 24  1  0
  2 25  1  0
  3 26  1  0
  5 27  1  0
  6 28  1  0
  7 29  1  0
  7 30  1  0
  9 31  1  0
 11 32  1  0
 11 33  1  0
 12 34  1  0
 16 35  1  0
 16 36  1  0
 20 37  1  0
 20 38  1  0
 20 39  1  0
 21 40  1  0
 21 41  1  0
 21 42  1  0
M  END
>  <mol_id>  (19) 
2026-09-18-3war-s0-n100-refligand-0019

>  <rmsd_to_ref>  (19) 


$$$$

     RDKit          3D

 40 42  0  0  0  0  0  0  0  0999 V2000
    2.6200   18.5800   38.6020 C   0  0  0  0  0  0  0  0  0  0  0  0
    1.2210   15.7250   41.6130 C   0  0  0  0  0  0  0  0  0  0  0  0
   -0.0470   21.1820   42.7790 N   0  0  0  0  0  4  0  0  0  0  0  0
    1.8340   19.5260   39.6470 C   0  0  0  0  0  0  0  0  0  0  0  0
   -0.2120   19.6920   43.0570 C   0  0  0  0  0  0  0  0  0  0  0  0
    0.5430   21.2760   41.4330 C   0  0  0  0  0  0  0  0  0  0  0  0
    1.0360   19.2330   42.4780 C   0  0  0  0  0  0  0  0  0  0  0  0
   -0.4640   19.4450   44.5350 C   0  0  0  0  0  0  0  0  0  0  0  0
    2.4930   20.7870   37.6060 C   0  0  0  0  0  0  0  0  0  0  0  0
    1.8550   17.2220   40.1060 O   0  0  0  0  0  0  0  0  0  0  0  0
    1.1770   19.9110   41.0900 C   0  0  0  0  0  0  0  0  0  0  0  0
    2.0180   20.5170   38.7690 C   0  0  0  0  0  0  0  0  0  0  0  0
    2.7750   13.9450   39.8770 O   0  0  0  0  0  0  0  0  0  0  0  0
    3.0580   19.9680   36.7940 N   0  0  0  0  0  0  0  0  0  0  0  0
    2.8140   15.2740   39.5350 C   0  0  0  0  0  0  0  0  0  0  0  0
    3.0480   18.8500   37.2600 C   0  0  0  0  0  0  0  0  0  0  0  0
    3.5500   17.6820   36.5790 O   0  0  0  0  0  0  0  0  0  0  0  0
    2.8570   17.3320   39.0130 C   0  0  0  0  0  0  0  0  0  0  0  0
    2.0220   16.1190   40.4530 C   0  0  0  0  0  0  0  0  0  0  0  0
    3.3560   16.2260   38.6080 C   0  0  0  0  0  0  0  0  0  0  0  0
    0.6090   15.5350   42.5470 C   0  0  0  0  0  0  0  0  0  0  0  0
    1.6346   18.2687   38.2251 H   0  0  0  0  0  0  0  0  0  0  0  0
   -0.9617   21.6549   42.8035 H   0  0  0  0  0  0  0  0  0  0  0  0
    0.5482   21.6360   43.4864 H   0  0  0  0  0  0  0  0  0  0  0  0
   -1.0756   19.1561   42.6363 H   0  0  0  0  0  0  0  0  0  0  0  0
   -0.2397   21.5184   40.6991 H   0  0  0  0  0  0  0  0  0  0  0  0
    1.3061   22.0678   41.4062 H   0  0  0  0  0  0  0  0  0  0  0  0
    1.8787   19.5195   43.1243 H   0  0  0  0  0  0  0  0  0  0  0  0
    1.0397   18.1375   42.3787 H   0  0  0  0  0  0  0  0  0  0  0  0
    0.1956   20.0915   45.1325 H   0  0  0  0  0  0  0  0  0  0  0  0
   -1.5137   19.6738   44.7712 H   0  0  0  0  0  0  0  0  0  0  0  0
   -0.2563   18.3909   44.7712 H   0  0  0  0  0  0  0  0  0  0  0  0
    2.4065   21.8309   37.2701 H   0  0  0  0  0  0  0  0  0  0  0  0
    2.1543   20.2777   41.4371 H   0  0  0  0  0  0  0  0  0  0  0  0
    1.6133   21.4437   39.2020 H   0  0  0  0  0  0  0  0  0  0  0  0
    3.2686   13.2797   39.3349 H   0  0  0  0  0  0  0  0  0  0  0  0
    3.9266   17.3410   38.7564 H   0  0  0  0  0  0  0  0  0  0  0  0
    3.0389   16.0016   37.5789 H   0  0  0  0  0  0  0  0  0  0  0  0
    4.4556   16.2289   38.5799 H   0  0  0  0  0  0  0  0  0  0  0  0
    0.0147   15.3505   43.4540 H   0  0  0  0  0  0  0  0  0  0  0  0
  1 16  1  0
  1 18  1  0
  1  4  1  0
  2 21  3  0
  3  5  1  0
  5  8  1  0
  6  3  1  0
  7  5  1  0
  9 12  1  0
 10 19  1  0
 11  4  1  0
 11  6  1  0
 11  7  1  0
 12  4  2  0
 14 16  1  0
 14  9  2  0
 15 13  1  0
 15 19  2  0
 17 16  2  0
 18 20  1  0
 18 10  1  0
 19  2  1  0
 20 15  1  0
  1 22  1  0
  3 23  1  0
  3 24  1  0
  5 25  1  0
  6 26  1  0
  6 27  1  0
  7 28  1  0
  7 29  1  0
  8 30  1  0
  8 31  1  0
  8 32  1  0
  9 33  1  0
 11 34  1  0
 12 35  1  0
 13 36  1  0
 18 37  1  0
 20 38  1  0
 20 39  1  0
 21 40  1  0
M  CHG  1   3   1
M  END
>  <mol_id>  (20) 
2026-09-18-3war-s0-n100-refligand-0020

>  <rmsd_to_ref>  (20) 


$$$$

     RDKit          3D

 22 24  0  0  0  0  0  0  0  0999 V2000
    1.0580   19.1890   41.7050 C   0  0  0  0  0  0  0  0  0  0  0  0
    1.0530   21.5510   40.4600 C   0  0  0  0  0  0  0  0  0  0  0  0
    3.2250   16.6050   38.2880 C   0  0  0  0  0  0  0  0  0  0  0  0
    3.1370   19.0640   37.5370 C   0  0  0  0  0  0  0  0  0  0  0  0
    1.5670   19.2440   40.4310 C   0  0  0  0  0  0  0  0  0  0  0  0
    3.1640   20.0600   36.7410 N   0  0  0  0  0  0  0  0  0  0  0  0
    0.6270   20.2560   42.3480 N   0  0  0  0  0  0  0  0  0  0  0  0
    2.8550   17.9380   38.6160 C   0  0  0  0  0  0  0  0  0  0  0  0
    2.1010   18.0770   39.8060 C   0  0  0  0  0  0  0  0  0  0  0  0
    2.0110   15.6920   40.1680 C   0  0  0  0  0  0  0  0  0  0  0  0
    3.4330   19.0420   36.6350 O   0  0  0  0  0  0  0  0  0  0  0  0
    1.7260   16.9640   40.5610 N   0  0  0  0  0  0  0  0  0  0  0  0
    0.6070   21.4180   41.7590 C   0  0  0  0  0  0  0  0  0  0  0  0
    2.8150   15.4540   39.0780 C   0  0  0  0  0  0  0  0  0  0  0  0
    1.4730   20.4110   39.6680 C   0  0  0  0  0  0  0  0  0  0  0  0
    1.0077   18.2133   42.2105 H   0  0  0  0  0  0  0  0  0  0  0  0
    1.0912   22.5543   40.0106 H   0  0  0  0  0  0  0  0  0  0  0  0
    3.8487   16.4364   37.3977 H   0  0  0  0  0  0  0  0  0  0  0  0
    1.5927   14.8437   40.7296 H   0  0  0  0  0  0  0  0  0  0  0  0
    0.2321   22.2988   42.3008 H   0  0  0  0  0  0  0  0  0  0  0  0
    3.1350   14.4352   38.8142 H   0  0  0  0  0  0  0  0  0  0  0  0
    1.6922   20.4593   38.5912 H   0  0  0  0  0  0  0  0  0  0  0  0
  1  7  2  0
  2 13  2  0
  3  8  2  0
  3 14  1  0
  4  8  1  0
  5  1  1  0
  6  4  2  0
  8  9  1  0
  9  5  1  0
  9 12  2  0
 10 12  1  0
 11  6  1  0
 11  4  1  0
 13  7  1  0
 14 10  2  0
 15  5  2  0
 15  2  1  0
  1 16  1  0
  2 17  1  0
  3 18  1  0
 10 19  1  0
 13 20  1  0
 14 21  1  0
 15 22  1  0
M  END
>  <mol_id>  (21) 
2026-09-18-3war-s0-n100-refligand-0021

>  <rmsd_to_ref>  (21) 


$$$$

     RDKit          3D

 18 19  0  0  0  0  0  0  0  0999 V2000
    2.5020   18.3670   38.9840 C   0  0  0  0  0  0  0  0  0  0  0  0
    2.8680   16.9420   39.5790 S   0  0  0  0  0  0  0  0  0  0  0  0
    1.5260   18.4940   41.1020 N   0  0  0  0  0  0  0  0  0  0  0  0
    1.9630   21.0420   38.4950 C   0  0  0  0  0  0  0  0  0  0  0  0
    3.4140   18.1350   36.8510 O   0  0  0  0  0  0  0  0  0  0  0  0
    1.8620   19.1430   39.9780 C   0  0  0  0  0  0  0  0  0  0  0  0
    2.8560   18.8990   37.7270 C   0  0  0  0  0  0  0  0  0  0  0  0
    2.5590   20.2450   37.4750 C   0  0  0  0  0  0  0  0  0  0  0  0
    1.6650   20.4490   39.7220 C   0  0  0  0  0  0  0  0  0  0  0  0
    2.0530   17.2710   40.9840 C   0  0  0  0  0  0  0  0  0  0  0  0
    0.9680   21.1860   40.9390 C   0  0  0  0  0  0  0  0  0  0  0  0
    1.7421   22.1050   38.3181 H   0  0  0  0  0  0  0  0  0  0  0  0
    3.6663   18.4991   35.9656 H   0  0  0  0  0  0  0  0  0  0  0  0
    2.7853   20.6852   36.4926 H   0  0  0  0  0  0  0  0  0  0  0  0
    1.9506   16.5196   41.7808 H   0  0  0  0  0  0  0  0  0  0  0  0
    1.3541   20.7778   41.8847 H   0  0  0  0  0  0  0  0  0  0  0  0
    1.1855   22.2631   40.8887 H   0  0  0  0  0  0  0  0  0  0  0  0
   -0.1196   21.0288   40.8887 H   0  0  0  0  0  0  0  0  0  0  0  0
  1  2  1  0
  1  6  2  0
  2 10  1  0
  4  9  2  0
  5  7  1  0
  6  3  1  0
  7  1  1  0
  8  7  2  0
  8  4  1  0
  9  6  1  0
  9 11  1  0
 10  3  2  0
  4 12  1  0
  5 13  1  0
  8 14  1  0
 10 15  1  0
 11 16  1  0
 11 17  1  0
 11 18  1  0
M  END
>  <mol_id>  (22) 
2026-09-18-3war-s0-n100-refligand-0022

>  <rmsd_to_ref>  (22) 


$$$$

     RDKit          3D

 18 19  0  0  0  0  0  0  0  0999 V2000
    2.5610   20.5650   37.4060 O   0  0  0  0  0  0  0  0  0  0  0  0
    2.9170   19.2740   37.5290 C   0  0  0  0  0  0  0  0  0  0  0  0
    3.5130   18.7030   36.5810 O   0  0  0  0  0  0  0  0  0  0  0  0
    2.9390   15.2260   38.4930 N   0  0  0  0  0  0  0  0  0  0  0  0
    2.5380   18.7800   38.7860 C   0  0  0  0  0  0  0  0  0  0  0  0
    2.2110   16.6520   40.0390 N   0  0  0  0  0  0  0  0  0  0  0  0
    2.9200   16.4800   38.0950 C   0  0  0  0  0  0  0  0  0  0  0  0
    2.0050   19.9050   39.4610 C   0  0  0  0  0  0  0  0  0  0  0  0
    2.4880   17.4230   38.9790 C   0  0  0  0  0  0  0  0  0  0  0  0
    1.9200   21.0330   38.4800 C   0  0  0  0  0  0  0  0  0  0  0  0
    1.5610   20.5620   40.6760 C   0  0  0  0  0  0  0  0  0  0  0  0
    1.0540   21.3550   41.5680 C   0  0  0  0  0  0  0  0  0  0  0  0
    2.6490   15.4390   39.5280 N   0  0  0  0  0  0  0  0  0  0  0  0
    2.9859   18.2864   39.6611 H   0  0  0  0  0  0  0  0  0  0  0  0
    3.2426   16.7584   37.0809 H   0  0  0  0  0  0  0  0  0  0  0  0
    1.4425   22.0150   38.6126 H   0  0  0  0  0  0  0  0  0  0  0  0
    0.6239   22.0277   42.3247 H   0  0  0  0  0  0  0  0  0  0  0  0
    2.7079   14.6544   40.1927 H   0  0  0  0  0  0  0  0  0  0  0  0
  1  2  1  0
  1 10  1  0
  2  5  1  0
  3  2  2  0
  4 13  1  0
  5  9  1  0
  5  8  1  0
  7  4  2  0
  7  9  1  0
  8 11  1  0
  9  6  2  0
 10  8  2  0
 11 12  3  0
 13  6  1  0
  5 14  1  0
  7 15  1  0
 10 16  1  0
 12 17  1  0
 13 18  1  0
M  END
>  <mol_id>  (23) 
2026-09-18-3war-s0-n100-refligand-0023

>  <rmsd_to_ref>  (23) 


$$$$

     RDKit          3D

 19 21  0  0  0  0  0  0  0  0999 V2000
    1.8270   18.7680   40.6090 C   0  0  0  0  0  0  0  0  0  0  0  0
    2.3960   19.7750   38.6750 N   0  0  0  0  0  0  0  0  0  0  0  0
    0.3500   19.7890   42.2240 C   0  0  0  0  0  0  0  0  0  0  0  0
    2.9420   17.7590   39.8610 S   0  0  0  0  0  0  0  0  0  0  0  0
    2.3710   21.1790   36.8030 O   0  0  0  0  0  0  0  0  0  0  0  0
    2.9920   18.4840   38.3510 C   0  0  0  0  0  0  0  0  0  0  0  0
    1.1320   18.6710   41.8080 C   0  0  0  0  0  0  0  0  0  0  0  0
    2.5930   20.1550   37.4760 C   0  0  0  0  0  0  0  0  0  0  0  0
    0.2620   20.9160   41.4160 C   0  0  0  0  0  0  0  0  0  0  0  0
    0.9710   20.9910   40.1880 C   0  0  0  0  0  0  0  0  0  0  0  0
    1.7170   19.8580   39.8390 C   0  0  0  0  0  0  0  0  0  0  0  0
    3.2560   18.9280   37.0230 C   0  0  0  0  0  0  0  0  0  0  0  0
   -0.1839   19.7590   43.1853 H   0  0  0  0  0  0  0  0  0  0  0  0
    3.9757   18.8577   38.6715 H   0  0  0  0  0  0  0  0  0  0  0  0
    1.1833   17.7579   42.4192 H   0  0  0  0  0  0  0  0  0  0  0  0
   -0.3658   21.7621   41.7321 H   0  0  0  0  0  0  0  0  0  0  0  0
    0.9365   21.8856   39.5488 H   0  0  0  0  0  0  0  0  0  0  0  0
    4.3193   19.0333   36.7617 H   0  0  0  0  0  0  0  0  0  0  0  0
    2.9604   18.3705   36.1220 H   0  0  0  0  0  0  0  0  0  0  0  0
  1  7  1  0
  2 11  1  0
  4  1  1  0
  5  8  2  0
  6 12  1  0
  6  2  1  0
  6  4  1  0
  7  3  2  0
  8  2  1  0
  9  3  1  0
 10  9  2  0
 11 10  1  0
 11  1  2  0
 12  8  1  0
  3 13  1  0
  6 14  1  0
  7 15  1  0
  9 16  1  0
 10 17  1  0
 12 18  1  0
 12 19  1  0
M  END
>  <mol_id>  (24) 
2026-09-18-3war-s0-n100-refligand-0024

>  <rmsd_to_ref>  (24) 


$$$$

     RDKit          3D

 30 31  0  0  0  0  0  0  0  0999 V2000
    0.3070   18.6900   42.6280 C   0  0  0  0  0  0  0  0  0  0  0  0
    3.9550   16.8000   36.7740 N   0  0  0  0  0  0  0  0  0  0  0  0
    2.5710   18.1650   38.3990 C   0  0  0  0  0  0  0  0  0  0  0  0
    2.5010   20.5330   37.6520 C   0  0  0  0  0  0  0  0  0  0  0  0
    1.1520   18.7300   41.5580 C   0  0  0  0  0  0  0  0  0  0  0  0
   -0.0960   20.9510   42.4970 C   0  0  0  0  0  0  0  0  0  0  0  0
    2.1450   19.6070   38.5350 C   0  0  0  0  0  0  0  0  0  0  0  0
    3.4310   18.9340   36.5210 N   0  0  0  0  0  0  0  0  0  0  0  0
    3.2050   20.1540   36.6550 N   0  0  0  0  0  0  0  0  0  0  0  0
    0.7020   21.0720   41.4090 C   0  0  0  0  0  0  0  0  0  0  0  0
    1.1980   19.8950   40.8270 C   0  0  0  0  0  0  0  0  0  0  0  0
   -0.3190   19.7890   43.1300 C   0  0  0  0  0  0  0  0  0  0  0  0
    1.6060   20.0370   39.6700 O   0  0  0  0  0  0  0  0  0  0  0  0
    3.4770   15.8330   37.6260 C   0  0  0  0  0  0  0  0  0  0  0  0
    1.9530   17.5130   41.2480 C   0  0  0  0  0  0  0  0  0  0  0  0
    0.9440   22.2520   40.8000 O   0  0  0  0  0  0  0  0  0  0  0  0
    3.0850   17.8280   37.2140 C   0  0  0  0  0  0  0  0  0  0  0  0
    0.1220   17.7188   43.1102 H   0  0  0  0  0  0  0  0  0  0  0  0
    4.6952   16.7830   36.0580 H   0  0  0  0  0  0  0  0  0  0  0  0
    2.4650   17.4412   39.2205 H   0  0  0  0  0  0  0  0  0  0  0  0
    2.2018   21.5845   37.7740 H   0  0  0  0  0  0  0  0  0  0  0  0
   -0.5886   21.8556   42.8830 H   0  0  0  0  0  0  0  0  0  0  0  0
   -0.9751   19.7279   44.0108 H   0  0  0  0  0  0  0  0  0  0  0  0
    3.6343   16.1513   38.6671 H   0  0  0  0  0  0  0  0  0  0  0  0
    2.4019   15.6849   37.4463 H   0  0  0  0  0  0  0  0  0  0  0  0
    4.0122   14.8889   37.4463 H   0  0  0  0  0  0  0  0  0  0  0  0
    2.2688   17.0331   42.1861 H   0  0  0  0  0  0  0  0  0  0  0  0
    1.3406   16.8098   40.6645 H   0  0  0  0  0  0  0  0  0  0  0  0
    2.8411   17.7974   40.6645 H   0  0  0  0  0  0  0  0  0  0  0  0
    1.5354   22.2876   40.0069 H   0  0  0  0  0  0  0  0  0  0  0  0
  1 12  2  0
  2 17  1  0
  2 14  1  0
  3  7  2  0
  4  7  1  0
  5  1  1  0
  6 12  1  0
  7 13  1  0
  8  9  1  0
  8 17  2  0
  9  4  2  0
 10  6  2  0
 11 10  1  0
 11  5  2  0
 13 11  1  0
 15  5  1  0
 16 10  1  0
 17  3  1  0
  1 18  1  0
  2 19  1  0
  3 20  1  0
  4 21  1  0
  6 22  1  0
 12 23  1  0
 14 24  1  0
 14 25  1  0
 14 26  1  0
 15 27  1  0
 15 28  1  0
 15 29  1  0
 16 30  1  0
M  END
>  <mol_id>  (25) 
2026-09-18-3war-s0-n100-refligand-0025

>  <rmsd_to_ref>  (25) 


$$$$

     RDKit          3D

 30 32  0  0  0  0  0  0  0  0999 V2000
    1.9890   16.4810   40.8560 N   0  0  0  0  0  0  0  0  0  0  0  0
   -0.1140   18.8150   43.3280 C   0  0  0  0  0  0  0  0  0  0  0  0
    2.3350   17.1910   39.9320 C   0  0  0  0  0  0  0  0  0  0  0  0
    1.8080   20.6320   38.8640 C   0  0  0  0  0  0  0  0  0  0  0  0
    2.0970   18.5570   40.2760 C   0  0  0  0  0  0  0  0  0  0  0  0
    2.2690   19.3340   38.9420 C   0  0  0  0  0  0  0  0  0  0  0  0
   -0.1230   20.9640   42.1730 C   0  0  0  0  0  0  0  0  0  0  0  0
    2.0630   21.3280   37.6810 C   0  0  0  0  0  0  0  0  0  0  0  0
    1.1580   19.0960   41.2690 C   0  0  0  0  0  0  0  0  0  0  0  0
    3.4420   17.5280   37.8010 N   0  0  0  0  0  0  0  0  0  0  0  0
    2.9990   18.7230   37.8060 C   0  0  0  0  0  0  0  0  0  0  0  0
   -0.5380   20.1230   43.2410 C   0  0  0  0  0  0  0  0  0  0  0  0
    3.2090   19.5470   36.7070 N   0  0  0  0  0  0  0  0  0  0  0  0
    3.0900   16.7780   38.7980 C   0  0  0  0  0  0  0  0  0  0  0  0
    0.7410   20.4180   41.2230 C   0  0  0  0  0  0  0  0  0  0  0  0
    2.7460   20.7660   36.5890 C   0  0  0  0  0  0  0  0  0  0  0  0
    0.7120   18.2760   42.3130 C   0  0  0  0  0  0  0  0  0  0  0  0
    2.0879   15.4582   40.7846 H   0  0  0  0  0  0  0  0  0  0  0  0
   -0.4162   18.1922   44.1828 H   0  0  0  0  0  0  0  0  0  0  0  0
    1.2630   21.0984   39.6980 H   0  0  0  0  0  0  0  0  0  0  0  0
    2.8024   18.7307   41.1020 H   0  0  0  0  0  0  0  0  0  0  0  0
   -0.4696   22.0053   42.0982 H   0  0  0  0  0  0  0  0  0  0  0  0
    1.0806   21.6383   37.2955 H   0  0  0  0  0  0  0  0  0  0  0  0
    2.7855   22.0832   38.0242 H   0  0  0  0  0  0  0  0  0  0  0  0
   -1.2108   20.5243   44.0132 H   0  0  0  0  0  0  0  0  0  0  0  0
    2.5112   15.9567   38.3502 H   0  0  0  0  0  0  0  0  0  0  0  0
    4.0707   16.6255   39.2722 H   0  0  0  0  0  0  0  0  0  0  0  0
    1.1049   21.0600   40.4073 H   0  0  0  0  0  0  0  0  0  0  0  0
    2.8880   21.3357   35.6588 H   0  0  0  0  0  0  0  0  0  0  0  0
    1.0030   17.2156   42.3441 H   0  0  0  0  0  0  0  0  0  0  0  0
  3  5  1  0
  3  1  2  3
  4  6  2  0
  5  9  1  0
  6  5  1  0
  7 12  1  0
  8  4  1  0
  9 17  2  0
 10 11  2  0
 10 14  1  0
 11  6  1  0
 12  2  2  0
 13 11  1  0
 14  3  1  0
 15  9  1  0
 15  7  2  0
 16 13  2  0
 16  8  1  0
 17  2  1  0
  1 18  1  0
  2 19  1  0
  4 20  1  0
  5 21  1  0
  7 22  1  0
  8 23  1  0
  8 24  1  0
 12 25  1  0
 14 26  1  0
 14 27  1  0
 15 28  1  0
 16 29  1  0
 17 30  1  0
M  END
>  <mol_id>  (26) 
2026-09-18-3war-s0-n100-refligand-0026

>  <rmsd_to_ref>  (26) 


$$$$

     RDKit          3D

 35 36  0  0  0  0  0  0  0  0999 V2000
    2.3440   19.4500   38.7380 C   0  0  0  0  0  0  0  0  0  0  0  0
    3.3720   21.5000   35.2190 C   0  0  0  0  0  0  0  0  0  0  0  0
    1.5860   16.2730   40.1130 N   0  0  0  0  0  4  0  0  0  0  0  0
    1.6260   15.1010   42.0080 C   0  0  0  0  0  0  0  0  0  0  0  0
    1.2510   18.7460   40.9770 C   0  0  0  0  0  0  0  0  0  0  0  0
    3.5020   19.5600   36.6720 N   0  0  0  0  0  0  0  0  0  0  0  0
    1.3200   20.2160   41.5570 C   0  0  0  0  0  0  0  0  0  0  0  0
    2.0530   18.5560   39.7150 C   0  0  0  0  0  0  0  0  0  0  0  0
    2.1510   17.3560   39.4980 C   0  0  0  0  0  0  0  0  0  0  0  0
    2.2130   21.3190   37.7170 S   0  0  0  0  0  0  0  0  0  0  0  0
    2.3180   15.2960   40.7770 C   0  0  0  0  0  0  0  0  0  0  0  0
    0.8050   21.4200   40.8600 C   0  0  0  0  0  0  0  0  0  0  0  0
    3.1440   17.3800   38.1490 S   0  0  0  0  0  0  0  0  0  0  0  0
    3.0690   20.9140   36.4210 C   0  0  0  0  0  0  0  0  0  0  0  0
    0.5200   14.2130   41.6110 O   0  0  0  0  0  0  0  0  0  0  0  0
    3.0600   18.9300   37.7480 C   0  0  0  0  0  0  0  0  0  0  0  0
    3.8706   22.4643   35.3965 H   0  0  0  0  0  0  0  0  0  0  0  0
    4.0420   20.8404   34.6481 H   0  0  0  0  0  0  0  0  0  0  0  0
    2.4464   21.6654   34.6481 H   0  0  0  0  0  0  0  0  0  0  0  0
    1.0571   15.7784   39.3805 H   0  0  0  0  0  0  0  0  0  0  0  0
    1.0955   16.7233   40.8988 H   0  0  0  0  0  0  0  0  0  0  0  0
    2.2731   14.6206   42.7567 H   0  0  0  0  0  0  0  0  0  0  0  0
    1.2911   16.0377   42.4774 H   0  0  0  0  0  0  0  0  0  0  0  0
    1.6345   18.0529   41.7402 H   0  0  0  0  0  0  0  0  0  0  0  0
    0.1990   18.5489   40.7229 H   0  0  0  0  0  0  0  0  0  0  0  0
    0.7862   20.1799   42.5181 H   0  0  0  0  0  0  0  0  0  0  0  0
    2.4032   20.4021   41.5110 H   0  0  0  0  0  0  0  0  0  0  0  0
    2.8860   19.2421   39.9279 H   0  0  0  0  0  0  0  0  0  0  0  0
    3.0064   17.3012   40.1874 H   0  0  0  0  0  0  0  0  0  0  0  0
    2.3410   14.3642   40.1929 H   0  0  0  0  0  0  0  0  0  0  0  0
    3.3660   15.5929   40.9306 H   0  0  0  0  0  0  0  0  0  0  0  0
    0.4861   22.1656   41.6032 H   0  0  0  0  0  0  0  0  0  0  0  0
    1.5993   21.8468   40.2300 H   0  0  0  0  0  0  0  0  0  0  0  0
   -0.0523   21.1404   40.2300 H   0  0  0  0  0  0  0  0  0  0  0  0
    0.0760   13.8565   42.4209 H   0  0  0  0  0  0  0  0  0  0  0  0
  1  8  1  0
  2 14  1  0
  3 11  1  0
  5  7  1  0
  6 16  1  0
  8  5  1  0
  9  8  1  0
  9  3  1  0
 10  1  1  0
 11  4  1  0
 12  7  1  0
 13  9  1  0
 14  6  2  0
 14 10  1  0
 15  4  1  0
 16 13  1  0
 16  1  2  0
  2 17  1  0
  2 18  1  0
  2 19  1  0
  3 20  1  0
  3 21  1  0
  4 22  1  0
  4 23  1  0
  5 24  1  0
  5 25  1  0
  7 26  1  0
  7 27  1  0
  8 28  1  0
  9 29  1  0
 11 30  1  0
 11 31  1  0
 12 32  1  0
 12 33  1  0
 12 34  1  0
 15 35  1  0
M  CHG  1   3   1
M  END
>  <mol_id>  (27) 
2026-09-18-3war-s0-n100-refligand-0027

>  <rmsd_to_ref>  (27) 


$$$$

     RDKit          3D

 55 59  0  0  0  0  0  0  0  0999 V2000
   -1.3090   20.2190   44.5810 N   0  0  0  0  0  0  0  0  0  0  0  0
    3.6060   19.6280   35.1150 S   0  0  0  0  0  0  0  0  0  0  0  0
   -0.1090   19.6080   42.8170 C   0  0  0  0  0  0  0  0  0  0  0  0
    1.5570   20.9430   39.9950 C   0  0  0  0  0  0  0  0  0  0  0  0
    2.8510   17.1530   38.0760 O   0  0  0  0  0  0  0  0  0  0  0  0
    3.2000   21.0910   35.8510 C   0  0  0  0  0  0  0  0  0  0  0  0
    2.2990   19.9150   39.6730 C   0  0  0  0  0  0  0  0  0  0  0  0
    0.8250   20.8470   41.0660 C   0  0  0  0  0  0  0  0  0  0  0  0
    1.7290   18.6100   41.4040 C   0  0  0  0  0  0  0  0  0  0  0  0
   -1.5330   17.4590   47.0080 C   0  0  0  0  0  0  0  0  0  0  0  0
   -0.3300   18.5390   43.6540 C   0  0  0  0  0  0  0  0  0  0  0  0
   -1.0400   18.9870   44.8650 C   0  0  0  0  0  0  0  0  0  0  0  0
    2.6000   20.2170   38.0130 C   0  0  0  0  0  0  0  0  0  0  0  0
   -0.2700   17.0910   43.6240 C   0  0  0  0  0  0  0  0  0  0  0  0
    3.2930   17.7370   36.9500 N   0  0  0  0  0  0  0  0  0  0  0  0
    3.3300   20.0470   36.8240 C   0  0  0  0  0  0  0  0  0  0  0  0
    2.4720   18.8350   40.3680 C   0  0  0  0  0  0  0  0  0  0  0  0
    4.0370   19.7180   37.9560 O   0  0  0  0  0  0  0  0  0  0  0  0
    3.8570   15.5100   37.2880 C   0  0  0  0  0  0  0  0  0  0  0  0
    3.9990   16.6810   36.5010 C   0  0  0  0  0  0  0  0  0  0  0  0
   -1.2810   17.3580   48.4310 C   0  0  0  0  0  0  0  0  0  0  0  0
    2.1700   20.6640   36.7690 C   0  0  0  0  0  0  0  0  0  0  0  0
    3.5200   18.9810   36.1710 C   0  0  0  0  0  0  0  0  0  0  0  0
    1.7760   21.5610   36.0030 S   0  0  0  0  0  0  0  0  0  0  0  0
   -0.7410   18.4750   46.2640 N   0  0  0  0  0  0  0  0  0  0  0  0
    3.0460   15.8060   38.2290 C   0  0  0  0  0  0  0  0  0  0  0  0
    4.6800   21.3780   35.7580 F   0  0  0  0  0  0  0  0  0  0  0  0
    0.8610   19.6410   41.7170 C   0  0  0  0  0  0  0  0  0  0  0  0
   -1.0220   21.9530   42.9660 N   0  0  0  0  0  4  0  0  0  0  0  0
   -0.7980   20.6460   43.2070 C   0  0  0  0  0  0  0  0  0  0  0  0
    2.0150   21.5150   37.7590 C   0  0  0  0  0  0  0  0  0  0  0  0
    0.0490   16.7170   43.1560 N   0  0  0  0  0  0  0  0  0  0  0  0
    1.5522   21.8563   39.3819 H   0  0  0  0  0  0  0  0  0  0  0  0
    3.2264   20.3846   36.6938 H   0  0  0  0  0  0  0  0  0  0  0  0
    3.1207   21.2793   34.7701 H   0  0  0  0  0  0  0  0  0  0  0  0
    2.8316   19.9733   38.7123 H   0  0  0  0  0  0  0  0  0  0  0  0
    0.2122   21.6855   41.4286 H   0  0  0  0  0  0  0  0  0  0  0  0
    1.7832   17.6782   41.9861 H   0  0  0  0  0  0  0  0  0  0  0  0
   -2.2713   16.8180   46.5040 H   0  0  0  0  0  0  0  0  0  0  0  0
    0.5505   18.2802   43.0477 H   0  0  0  0  0  0  0  0  0  0  0  0
   -0.7870   16.5508   44.4308 H   0  0  0  0  0  0  0  0  0  0  0  0
    3.2482   18.1113   40.0784 H   0  0  0  0  0  0  0  0  0  0  0  0
    4.3477   14.5398   37.1212 H   0  0  0  0  0  0  0  0  0  0  0  0
    3.6646   16.4521   35.4784 H   0  0  0  0  0  0  0  0  0  0  0  0
    5.0601   16.9670   36.5483 H   0  0  0  0  0  0  0  0  0  0  0  0
   -2.1628   17.7114   48.9855 H   0  0  0  0  0  0  0  0  0  0  0  0
   -1.0786   16.3093   48.6940 H   0  0  0  0  0  0  0  0  0  0  0  0
   -0.4103   17.9766   48.6940 H   0  0  0  0  0  0  0  0  0  0  0  0
    2.6075   15.1370   38.9842 H   0  0  0  0  0  0  0  0  0  0  0  0
   -1.1084   22.4571   43.8601 H   0  0  0  0  0  0  0  0  0  0  0  0
   -0.2355   22.3424   42.4269 H   0  0  0  0  0  0  0  0  0  0  0  0
   -1.8933   22.0583   42.4269 H   0  0  0  0  0  0  0  0  0  0  0  0
    1.0063   21.7455   38.1324 H   0  0  0  0  0  0  0  0  0  0  0  0
    2.3223   22.5548   37.9443 H   0  0  0  0  0  0  0  0  0  0  0  0
    0.0348   15.6891   43.2208 H   0  0  0  0  0  0  0  0  0  0  0  0
  1 12  2  0
  2 23  2  0
  3 30  2  0
  3 11  1  0
  4  8  2  0
  5 26  1  0
  6 24  1  0
  7  4  1  0
  7 17  2  0
  8 28  1  0
  9 28  2  0
 10 21  1  0
 11 14  1  0
 11 12  1  0
 12 25  1  0
 13 31  1  0
 15  5  1  0
 16 23  1  0
 16 18  1  0
 16 13  1  0
 17  9  1  0
 18 13  1  0
 19 26  2  0
 20 15  1  0
 20 19  1  0
 22 24  1  0
 22 16  1  0
 22 31  1  0
 22 13  1  0
 23 15  1  0
 25 10  2  3
 27  6  1  0
 28  3  1  0
 29 30  1  0
 30  1  1  0
 32 14  2  3
  4 33  1  0
  6 34  1  0
  6 35  1  0
  7 36  1  0
  8 37  1  0
  9 38  1  0
 10 39  1  0
 11 40  1  0
 14 41  1  0
 17 42  1  0
 19 43  1  0
 20 44  1  0
 20 45  1  0
 21 46  1  0
 21 47  1  0
 21 48  1  0
 26 49  1  0
 29 50  1  0
 29 51  1  0
 29 52  1  0
 31 53  1  0
 31 54  1  0
 32 55  1  0
M  CHG  1  29   1
M  END
>  <mol_id>  (28) 
2026-09-18-3war-s0-n100-refligand-0028

>  <rmsd_to_ref>  (28) 


$$$$

     RDKit          3D

 38 42  0  0  0  0  0  0  0  0999 V2000
    0.9990   17.5350   42.4210 S   0  0  0  0  0  0  0  0  0  0  0  0
    2.9160   20.4950   36.8500 C   0  0  0  0  0  0  0  0  0  0  0  0
    3.9690   14.3570   38.1680 N   0  0  0  0  0  0  0  0  0  0  0  0
    1.6050   19.7430   40.6150 C   0  0  0  0  0  0  0  0  0  0  0  0
    1.7680   16.1080   40.4750 C   0  0  0  0  0  0  0  0  0  0  0  0
    2.7510   18.2990   38.7910 C   0  0  0  0  0  0  0  0  0  0  0  0
    4.9500   20.5860   35.8620 O   0  0  0  0  0  1  0  0  0  0  0  0
    0.9420   21.8480   41.0120 O   0  0  0  0  0  0  0  0  0  0  0  0
    4.3610   15.3120   37.2720 N   0  0  0  0  0  0  0  0  0  0  0  0
    2.6890   15.9090   39.4420 C   0  0  0  0  0  0  0  0  0  0  0  0
    3.1210   16.9320   38.5970 C   0  0  0  0  0  0  0  0  0  0  0  0
    1.9410   21.1550   37.0350 O   0  0  0  0  0  0  0  0  0  0  0  0
    0.7750   19.8000   41.7330 C   0  0  0  0  0  0  0  0  0  0  0  0
    2.7680   13.6050   39.9100 O   0  0  0  0  0  0  0  0  0  0  0  0
    3.1640   14.5750   39.1720 C   0  0  0  0  0  0  0  0  0  0  0  0
   -0.3960   21.3550   43.0230 N   0  0  0  0  0  0  0  0  0  0  0  0
    3.9110   16.5820   37.4930 C   0  0  0  0  0  0  0  0  0  0  0  0
    2.0380   18.5080   40.0710 C   0  0  0  0  0  0  0  0  0  0  0  0
    3.7730   20.8790   35.6980 C   0  0  0  0  0  0  0  0  0  0  0  0
   -0.8530   20.3710   43.8320 C   0  0  0  0  0  0  0  0  0  0  0  0
    0.7290   15.0720   40.8190 C   0  0  0  0  0  0  0  0  0  0  0  0
    3.2230   19.2960   37.6540 C   0  0  0  0  0  0  0  0  0  0  0  0
    0.4470   18.8220   42.6310 C   0  0  0  0  0  0  0  0  0  0  0  0
    1.7490   21.0910   40.1250 C   0  0  0  0  0  0  0  0  0  0  0  0
   -0.4470   19.0440   43.6840 C   0  0  0  0  0  0  0  0  0  0  0  0
    1.5980   17.3850   40.9170 C   0  0  0  0  0  0  0  0  0  0  0  0
    3.3010   21.4910   34.8470 O   0  0  0  0  0  0  0  0  0  0  0  0
    0.4020   21.0390   41.9820 C   0  0  0  0  0  0  0  0  0  0  0  0
    4.3331   13.4017   38.0425 H   0  0  0  0  0  0  0  0  0  0  0  0
    4.1809   17.3670   36.7713 H   0  0  0  0  0  0  0  0  0  0  0  0
   -1.5660   20.6248   44.6303 H   0  0  0  0  0  0  0  0  0  0  0  0
    0.6438   14.9871   41.9124 H   0  0  0  0  0  0  0  0  0  0  0  0
   -0.2418   15.3724   40.3978 H   0  0  0  0  0  0  0  0  0  0  0  0
    1.0266   14.1004   40.3978 H   0  0  0  0  0  0  0  0  0  0  0  0
    3.3936   18.5741   36.8417 H   0  0  0  0  0  0  0  0  0  0  0  0
    3.6957   19.9335   38.4157 H   0  0  0  0  0  0  0  0  0  0  0  0
    2.3419   21.4467   39.2694 H   0  0  0  0  0  0  0  0  0  0  0  0
   -0.8015   18.2373   44.3425 H   0  0  0  0  0  0  0  0  0  0  0  0
  1 23  1  0
  2 12  2  0
  2 22  1  0
  3 15  1  0
  4 13  1  0
  5 21  1  0
  5 26  2  0
  6 18  2  0
  8 28  1  0
  9 17  2  0
  9  3  1  0
 10  5  1  0
 11  6  1  0
 11 10  2  0
 13 28  2  0
 13 23  1  0
 15 10  1  0
 15 14  2  0
 16 20  2  0
 17 11  1  0
 18  4  1  0
 18 26  1  0
 19  7  1  0
 19  2  1  0
 22  6  1  0
 23 25  2  0
 24  4  2  0
 24  8  1  0
 25 20  1  0
 26  1  1  0
 27 19  2  0
 28 16  1  0
  3 29  1  0
 17 30  1  0
 20 31  1  0
 21 32  1  0
 21 33  1  0
 21 34  1  0
 22 35  1  0
 22 36  1  0
 24 37  1  0
 25 38  1  0
M  CHG  1   7  -1
M  END
>  <mol_id>  (29) 
2026-09-18-3war-s0-n100-refligand-0029

>  <rmsd_to_ref>  (29) 


$$$$

     RDKit          3D

 67 72  0  0  0  0  0  0  0  0999 V2000
    3.0950   20.0330   40.4620 O   0  0  0  0  0  0  0  0  0  0  0  0
    2.2230   21.4390   37.5800 C   0  0  0  0  0  0  0  0  0  0  0  0
   -0.0570   21.2420   43.1020 C   0  0  0  0  0  0  0  0  0  0  0  0
    3.9310   18.1890   38.0550 C   0  0  0  0  0  0  0  0  0  0  0  0
    2.9550   16.0720   39.1740 C   0  0  0  0  0  0  0  0  0  0  0  0
    4.4900   19.6610   35.1120 C   0  0  0  0  0  0  0  0  0  0  0  0
    2.3570   21.6430   36.7110 C   0  0  0  0  0  0  0  0  0  0  0  0
    3.5850   13.1800   39.3900 O   0  0  0  0  0  0  0  0  0  0  0  0
    4.9330   13.3820   37.5760 C   0  0  0  0  0  0  0  0  0  0  0  0
    2.8130   20.7340   38.4720 C   0  0  0  0  0  0  0  0  0  0  0  0
    2.8880   19.6160   36.7100 N   0  0  0  0  0  4  0  0  0  0  0  0
    0.4250   16.9400   42.6040 N   0  0  0  0  0  0  0  0  0  0  0  0
    0.2180   19.0130   43.0860 C   0  0  0  0  0  0  0  0  0  0  0  0
    3.9520   13.9720   38.3210 C   0  0  0  0  0  0  0  0  0  0  0  0
    2.9410   17.6550   38.9890 C   0  0  0  0  0  0  0  0  0  0  0  0
    0.6140   21.2790   41.8190 C   0  0  0  0  0  0  0  0  0  0  0  0
    1.2370   21.2220   38.5650 C   0  0  0  0  0  0  0  0  0  0  0  0
    0.0250   17.7310   43.5460 C   0  0  0  0  0  0  0  0  0  0  0  0
    3.8310   11.7980   39.1730 C   0  0  0  0  0  0  0  0  0  0  0  0
    2.2440   15.5830   40.0060 O   0  0  0  0  0  0  0  0  0  0  0  0
    1.8570   18.6580   38.9900 C   0  0  0  0  0  0  0  0  0  0  0  0
    1.2960   17.6780   41.6590 C   0  0  0  0  0  0  0  0  0  0  0  0
   -0.2570   20.0370   43.7510 C   0  0  0  0  0  0  0  0  0  0  0  0
    3.0530   21.2780   34.3780 O   0  0  0  0  0  0  0  0  0  0  0  0
    1.9960   19.7370   39.8210 C   0  0  0  0  0  0  0  0  0  0  0  0
    3.1600   20.6770   35.6100 C   0  0  0  0  0  0  0  0  0  0  0  0
    1.0080   19.1810   41.8640 C   0  0  0  0  0  0  0  0  0  0  0  0
   -0.5560   17.5660   44.7090 C   0  0  0  0  0  0  0  0  0  0  0  0
    3.7870   15.3370   38.3930 N   0  0  0  0  0  0  0  0  0  0  0  0
   -0.8110   19.9120   44.9860 N   0  0  0  0  0  0  0  0  0  0  0  0
   -0.9340   18.6480   45.3770 C   0  0  0  0  0  0  0  0  0  0  0  0
    0.0100   15.5490   42.3060 C   0  0  0  0  0  0  0  0  0  0  0  0
    1.1650   20.1440   41.1440 C   0  0  0  0  0  0  0  0  0  0  0  0
    3.4250   19.7110   37.9350 C   0  0  0  0  0  0  0  0  0  0  0  0
    2.9304   19.9887   41.4372 H   0  0  0  0  0  0  0  0  0  0  0  0
    2.3751   22.2475   36.8498 H   0  0  0  0  0  0  0  0  0  0  0  0
   -0.4093   22.1768   43.5626 H   0  0  0  0  0  0  0  0  0  0  0  0
    4.9500   18.1304   38.4651 H   0  0  0  0  0  0  0  0  0  0  0  0
    3.9977   17.6502   37.0983 H   0  0  0  0  0  0  0  0  0  0  0  0
    5.0043   19.2681   36.0015 H   0  0  0  0  0  0  0  0  0  0  0  0
    4.1065   18.8237   34.5104 H   0  0  0  0  0  0  0  0  0  0  0  0
    5.1970   20.2512   34.5104 H   0  0  0  0  0  0  0  0  0  0  0  0
    1.3532   21.7965   36.2882 H   0  0  0  0  0  0  0  0  0  0  0  0
    3.0774   22.4682   36.8112 H   0  0  0  0  0  0  0  0  0  0  0  0
    5.0217   12.2858   37.5526 H   0  0  0  0  0  0  0  0  0  0  0  0
    5.6344   14.0030   36.9994 H   0  0  0  0  0  0  0  0  0  0  0  0
    3.2038   18.7141   36.3255 H   0  0  0  0  0  0  0  0  0  0  0  0
    1.8853   19.7538   36.9013 H   0  0  0  0  0  0  0  0  0  0  0  0
    3.0414   17.5481   40.0792 H   0  0  0  0  0  0  0  0  0  0  0  0
    0.7074   22.2570   41.3243 H   0  0  0  0  0  0  0  0  0  0  0  0
    0.9181   22.0210   39.2505 H   0  0  0  0  0  0  0  0  0  0  0  0
    0.2301   20.7899   38.6621 H   0  0  0  0  0  0  0  0  0  0  0  0
    3.9223   11.2853   40.1419 H   0  0  0  0  0  0  0  0  0  0  0  0
    2.9964   11.3618   38.6045 H   0  0  0  0  0  0  0  0  0  0  0  0
    4.7649   11.6766   38.6045 H   0  0  0  0  0  0  0  0  0  0  0  0
    1.7626   19.0424   37.9637 H   0  0  0  0  0  0  0  0  0  0  0  0
    0.9774   18.1201   39.3733 H   0  0  0  0  0  0  0  0  0  0  0  0
    1.0641   17.3861   40.6241 H   0  0  0  0  0  0  0  0  0  0  0  0
    2.3567   17.4517   41.8425 H   0  0  0  0  0  0  0  0  0  0  0  0
    2.8807   22.2456   34.4967 H   0  0  0  0  0  0  0  0  0  0  0  0
   -0.7253   16.5596   45.1194 H   0  0  0  0  0  0  0  0  0  0  0  0
    4.3859   15.8834   37.7577 H   0  0  0  0  0  0  0  0  0  0  0  0
   -1.3990   18.4810   46.3598 H   0  0  0  0  0  0  0  0  0  0  0  0
   -0.1523   15.0050   43.2482 H   0  0  0  0  0  0  0  0  0  0  0  0
   -0.9235   15.5615   41.7243 H   0  0  0  0  0  0  0  0  0  0  0  0
    0.7978   15.0480   41.7243 H   0  0  0  0  0  0  0  0  0  0  0  0
    4.2502   20.0606   38.5729 H   0  0  0  0  0  0  0  0  0  0  0  0
  2  7  1  0
  2 10  1  0
  2 17  1  0
  3 23  2  0
  4 15  1  0
  5 20  2  0
  9 14  2  3
 10 17  1  0
 10 25  1  0
 11 34  1  0
 12 18  1  0
 13 18  1  0
 13 23  1  0
 14 29  1  0
 14  8  1  0
 15 21  1  0
 15  5  1  0
 16  3  1  0
 18 28  2  0
 19  8  1  0
 21 25  1  0
 22 27  1  0
 22 12  1  0
 23 30  1  0
 24 26  1  0
 25  1  1  0
 25 33  1  0
 26  6  1  0
 26 11  1  0
 26  7  1  0
 27 13  2  0
 28 31  1  0
 29  5  1  0
 30 31  2  0
 32 12  1  0
 33 16  2  0
 33 27  1  0
 34  4  1  0
 34 10  1  0
  1 35  1  0
  2 36  1  0
  3 37  1  0
  4 38  1  0
  4 39  1  0
  6 40  1  0
  6 41  1  0
  6 42  1  0
  7 43  1  0
  7 44  1  0
  9 45  1  0
  9 46  1  0
 11 47  1  0
 11 48  1  0
 15 49  1  0
 16 50  1  0
 17 51  1  0
 17 52  1  0
 19 53  1  0
 19 54  1  0
 19 55  1  0
 21 56  1  0
 21 57  1  0
 22 58  1  0
 22 59  1  0
 24 60  1  0
 28 61  1  0
 29 62  1  0
 31 63  1  0
 32 64  1  0
 32 65  1  0
 32 66  1  0
 34 67  1  0
M  CHG  1  11   1
M  END
>  <mol_id>  (30) 
2026-09-18-3war-s0-n100-refligand-0030

>  <rmsd_to_ref>  (30) 


$$$$

     RDKit          3D

 22 23  0  0  0  0  0  0  0  0999 V2000
    1.6240   21.1080   38.4090 O   0  0  0  0  0  0  0  0  0  0  0  0
    2.1020   19.3160   39.5080 C   0  0  0  0  0  0  0  0  0  0  0  0
    1.4450   19.1270   40.6080 C   0  0  0  0  0  0  0  0  0  0  0  0
    2.1140   18.9650   37.0240 O   0  0  0  0  0  0  0  0  0  0  0  0
    0.7040   20.0100   41.2770 C   0  0  0  0  0  0  0  0  0  0  0  0
    2.4910   17.1730   40.1220 C   0  0  0  0  0  0  0  0  0  0  0  0
    0.1650   19.4560   42.5410 C   0  0  0  0  0  0  0  0  0  0  0  0
    1.2060   17.2460   42.2680 C   0  0  0  0  0  0  0  0  0  0  0  0
    2.9290   18.0300   39.2140 N   0  0  0  0  0  0  0  0  0  0  0  0
    2.4880   20.1220   37.9540 S   0  0  0  0  0  4  0  0  0  0  0  0
    0.3640   18.1810   43.0010 C   0  0  0  0  0  0  0  0  0  0  0  0
    3.7840   20.5760   37.8400 O   0  0  0  0  0  0  0  0  0  0  0  0
    1.6490   17.7420   41.0730 C   0  0  0  0  0  0  0  0  0  0  0  0
    1.6202   21.1123   39.3990 H   0  0  0  0  0  0  0  0  0  0  0  0
    0.5679   18.8032   40.0285 H   0  0  0  0  0  0  0  0  0  0  0  0
    1.8590   18.1760   37.5649 H   0  0  0  0  0  0  0  0  0  0  0  0
    0.5137   21.0361   40.9293 H   0  0  0  0  0  0  0  0  0  0  0  0
    2.7671   16.1082   40.1250 H   0  0  0  0  0  0  0  0  0  0  0  0
   -0.4471   20.1255   43.1631 H   0  0  0  0  0  0  0  0  0  0  0  0
    1.4601   16.2418   42.6382 H   0  0  0  0  0  0  0  0  0  0  0  0
   -0.1184   17.8595   43.9359 H   0  0  0  0  0  0  0  0  0  0  0  0
    4.1673   20.7103   38.7429 H   0  0  0  0  0  0  0  0  0  0  0  0
  2  3  1  0
  3 13  1  0
  3  5  1  0
  4 10  1  0
  5  7  2  0
  6 13  2  0
  7 11  1  0
  8 11  2  0
  9  2  2  0
  9  6  1  0
 10  1  1  0
 10  2  1  0
 12 10  1  0
 13  8  1  0
  1 14  1  0
  3 15  1  0
  4 16  1  0
  5 17  1  0
  6 18  1  0
  7 19  1  0
  8 20  1  0
 11 21  1  0
 12 22  1  0
M  END
>  <mol_id>  (31) 
2026-09-18-3war-s0-n100-refligand-0031

>  <rmsd_to_ref>  (31) 


$$$$

     RDKit          3D

 27 29  0  0  0  0  0  0  0  0999 V2000
    0.1480   20.9220   42.1670 C   0  0  0  0  0  0  0  0  0  0  0  0
    3.0670   19.2870   37.2210 C   0  0  0  0  0  0  0  0  0  0  0  0
    1.8370   21.1010   38.5670 S   0  0  0  0  0  0  0  0  0  0  0  0
    3.2450   20.2160   36.4170 O   0  0  0  0  0  0  0  0  0  0  0  0
    0.6780   21.5000   41.0880 C   0  0  0  0  0  0  0  0  0  0  0  0
    3.5400   17.9900   37.0910 N   0  0  0  0  0  0  0  0  0  0  0  0
    3.3730   17.0300   38.1660 C   0  0  0  0  0  0  0  0  0  0  0  0
    2.3310   18.7900   39.4930 N   0  0  0  0  0  0  0  0  0  0  0  0
    0.8760   18.8120   41.5050 C   0  0  0  0  0  0  0  0  0  0  0  0
    2.2070   16.3920   40.2960 C   0  0  0  0  0  0  0  0  0  0  0  0
    3.0410   17.5000   39.5510 C   0  0  0  0  0  0  0  0  0  0  0  0
    0.2080   19.5870   42.4060 C   0  0  0  0  0  0  0  0  0  0  0  0
    2.4820   19.6370   38.4420 C   0  0  0  0  0  0  0  0  0  0  0  0
    1.2610   20.6880   40.2080 C   0  0  0  0  0  0  0  0  0  0  0  0
    1.5230   19.3640   40.4180 C   0  0  0  0  0  0  0  0  0  0  0  0
   -0.3645   21.5605   42.9016 H   0  0  0  0  0  0  0  0  0  0  0  0
    0.6358   22.5883   40.9334 H   0  0  0  0  0  0  0  0  0  0  0  0
    4.0147   17.7052   36.2224 H   0  0  0  0  0  0  0  0  0  0  0  0
    2.5648   16.3494   37.8602 H   0  0  0  0  0  0  0  0  0  0  0  0
    4.3804   16.6033   38.2803 H   0  0  0  0  0  0  0  0  0  0  0  0
    0.8999   17.7216   41.6477 H   0  0  0  0  0  0  0  0  0  0  0  0
    2.3079   16.5261   41.3831 H   0  0  0  0  0  0  0  0  0  0  0  0
    1.1476   16.4780   40.0127 H   0  0  0  0  0  0  0  0  0  0  0  0
    2.5828   15.3977   40.0127 H   0  0  0  0  0  0  0  0  0  0  0  0
    3.9654   17.6659   40.1237 H   0  0  0  0  0  0  0  0  0  0  0  0
   -0.2658   19.1460   43.2954 H   0  0  0  0  0  0  0  0  0  0  0  0
    3.4473   20.0325   38.7911 H   0  0  0  0  0  0  0  0  0  0  0  0
  1 12  2  0
  3 14  1  0
  4  2  2  0
  5  1  1  0
  6  2  1  0
  6  7  1  0
  7 11  1  0
  8 11  1  0
  8 15  1  0
  9 12  1  0
 11 10  1  0
 13  2  1  0
 13  3  1  0
 13  8  1  0
 14 15  1  0
 14  5  2  0
 15  9  2  0
  1 16  1  0
  5 17  1  0
  6 18  1  0
  7 19  1  0
  7 20  1  0
  9 21  1  0
 10 22  1  0
 10 23  1  0
 10 24  1  0
 11 25  1  0
 12 26  1  0
 13 27  1  0
M  END
>  <mol_id>  (32) 
2026-09-18-3war-s0-n100-refligand-0032

>  <rmsd_to_ref>  (32) 


$$$$

     RDKit          3D

 28 29  0  0  0  0  0  0  0  0999 V2000
    0.5510   18.6010   42.6090 C   0  0  0  0  0  0  0  0  0  0  0  0
    2.3640   19.0900   38.4280 C   0  0  0  0  0  0  0  0  0  0  0  0
    3.5790   18.3270   38.6190 C   0  0  0  0  0  0  0  0  0  0  0  0
    1.7770   18.0400   40.6210 C   0  0  0  0  0  0  0  0  0  0  0  0
    1.0790   16.3370   42.0390 O   0  0  0  0  0  0  0  0  0  0  0  0
    0.8580   20.8580   41.3640 C   0  0  0  0  0  0  0  0  0  0  0  0
    2.0210   21.2990   38.0950 O   0  0  0  0  0  1  0  0  0  0  0  0
    1.0480   17.6280   41.7490 C   0  0  0  0  0  0  0  0  0  0  0  0
    1.7890   19.1520   39.8560 C   0  0  0  0  0  0  0  0  0  0  0  0
    3.3300   16.9760   39.0750 C   0  0  0  0  0  0  0  0  0  0  0  0
    2.4570   20.2760   37.5940 C   0  0  0  0  0  0  0  0  0  0  0  0
    1.4080   20.3840   40.1800 C   0  0  0  0  0  0  0  0  0  0  0  0
    0.4440   19.9380   42.3410 C   0  0  0  0  0  0  0  0  0  0  0  0
    2.1680   16.8370   39.8520 C   0  0  0  0  0  0  0  0  0  0  0  0
    3.0900   20.2580   36.5310 O   0  0  0  0  0  0  0  0  0  0  0  0
    0.2115   18.2633   43.5993 H   0  0  0  0  0  0  0  0  0  0  0  0
    1.6260   18.6316   37.7533 H   0  0  0  0  0  0  0  0  0  0  0  0
    4.1184   18.2804   37.6614 H   0  0  0  0  0  0  0  0  0  0  0  0
    4.1686   18.8345   39.3967 H   0  0  0  0  0  0  0  0  0  0  0  0
    0.5823   15.9939   42.8236 H   0  0  0  0  0  0  0  0  0  0  0  0
    0.7482   21.9392   41.5342 H   0  0  0  0  0  0  0  0  0  0  0  0
    3.2353   16.3258   38.1928 H   0  0  0  0  0  0  0  0  0  0  0  0
    4.1771   16.6980   39.7194 H   0  0  0  0  0  0  0  0  0  0  0  0
    1.5494   21.1400   39.3936 H   0  0  0  0  0  0  0  0  0  0  0  0
    0.8603   20.3829   43.2568 H   0  0  0  0  0  0  0  0  0  0  0  0
   -0.5568   19.8287   41.8977 H   0  0  0  0  0  0  0  0  0  0  0  0
    1.3373   16.5784   39.1789 H   0  0  0  0  0  0  0  0  0  0  0  0
    2.3893   16.0575   40.5959 H   0  0  0  0  0  0  0  0  0  0  0  0
  2 11  1  0
  2  3  1  0
  2  9  1  0
  3 10  1  0
  4  8  1  0
  6 13  1  0
  8  5  1  0
  8  1  2  0
  9 12  1  0
  9  4  2  0
 10 14  1  0
 11  7  1  0
 12  6  2  0
 13  1  1  0
 14  4  1  0
 15 11  2  0
  1 16  1  0
  2 17  1  0
  3 18  1  0
  3 19  1  0
  5 20  1  0
  6 21  1  0
 10 22  1  0
 10 23  1  0
 12 24  1  0
 13 25  1  0
 13 26  1  0
 14 27  1  0
 14 28  1  0
M  CHG  1   7  -1
M  END
>  <mol_id>  (33) 
2026-09-18-3war-s0-n100-refligand-0033

>  <rmsd_to_ref>  (33) 


$$$$

     RDKit          3D

 26 28  0  0  0  0  0  0  0  0999 V2000
    1.7620   19.8510   39.9090 C   0  0  0  0  0  0  0  0  0  0  0  0
    2.8940   19.0350   38.0050 C   0  0  0  0  0  0  0  0  0  0  0  0
    3.4640   17.9840   37.2950 C   0  0  0  0  0  0  0  0  0  0  0  0
    2.7000   16.5890   39.1300 C   0  0  0  0  0  0  0  0  0  0  0  0
    0.6860   21.3010   41.2940 C   0  0  0  0  0  0  0  0  0  0  0  0
    1.6480   17.8900   40.8560 C   0  0  0  0  0  0  0  0  0  0  0  0
    2.9790   20.1940   37.4070 O   0  0  0  0  0  0  0  0  0  0  0  0
    0.6560   19.8360   41.9040 C   0  0  0  0  0  0  0  0  0  0  0  0
    1.3200   19.1660   40.9250 C   0  0  0  0  0  0  0  0  0  0  0  0
    2.5560   15.4100   39.7630 N   0  0  0  0  0  0  0  0  0  0  0  0
    1.4210   21.2420   39.9780 C   0  0  0  0  0  0  0  0  0  0  0  0
    2.3590   18.9600   39.1810 C   0  0  0  0  0  0  0  0  0  0  0  0
    1.3650   16.8570   41.7620 C   0  0  0  0  0  0  0  0  0  0  0  0
    3.4020   16.6500   37.8920 C   0  0  0  0  0  0  0  0  0  0  0  0
    2.2870   17.7250   39.7140 C   0  0  0  0  0  0  0  0  0  0  0  0
    3.9443   18.1498   36.3194 H   0  0  0  0  0  0  0  0  0  0  0  0
    0.2480   22.2009   41.7505 H   0  0  0  0  0  0  0  0  0  0  0  0
    3.3872   20.2581   36.5073 H   0  0  0  0  0  0  0  0  0  0  0  0
    0.2232   19.4690   42.8463 H   0  0  0  0  0  0  0  0  0  0  0  0
    2.8742   14.5407   39.3113 H   0  0  0  0  0  0  0  0  0  0  0  0
    2.1276   15.3770   40.6991 H   0  0  0  0  0  0  0  0  0  0  0  0
    1.6373   22.0495   39.2631 H   0  0  0  0  0  0  0  0  0  0  0  0
    1.4680   17.2330   42.7906 H   0  0  0  0  0  0  0  0  0  0  0  0
    0.3363   16.5013   41.6029 H   0  0  0  0  0  0  0  0  0  0  0  0
    2.0688   16.0267   41.6029 H   0  0  0  0  0  0  0  0  0  0  0  0
    3.8599   15.7664   37.4234 H   0  0  0  0  0  0  0  0  0  0  0  0
  1 11  1  0
  1  9  1  0
  2 12  1  0
  3 14  1  0
  3  2  2  0
  4 15  1  0
  4 10  1  0
  5  8  1  0
  6  9  1  0
  6 13  1  0
  7  2  1  0
  9  8  2  0
 11  5  2  0
 12 15  1  0
 12  1  2  0
 14  4  2  0
 15  6  2  0
  3 16  1  0
  5 17  1  0
  7 18  1  0
  8 19  1  0
 10 20  1  0
 10 21  1  0
 11 22  1  0
 13 23  1  0
 13 24  1  0
 13 25  1  0
 14 26  1  0
M  END
>  <mol_id>  (34) 
2026-09-18-3war-s0-n100-refligand-0034

>  <rmsd_to_ref>  (34) 


$$$$

     RDKit          3D

 47 50  0  0  0  0  0  0  0  0999 V2000
    2.8950   15.2170   39.2410 C   0  0  0  0  0  0  0  0  0  0  0  0
    3.9640   18.3790   38.4310 C   0  0  0  0  0  0  0  0  0  0  0  0
    3.0320   13.8830   39.8270 C   0  0  0  0  0  0  0  0  0  0  0  0
    1.6170   17.0750   40.9290 C   0  0  0  0  0  0  0  0  0  0  0  0
    3.7570   19.2100   37.2680 C   0  0  0  0  0  0  0  0  0  0  0  0
    0.0820   20.7720   42.0740 C   0  0  0  0  0  0  0  0  0  0  0  0
    3.7160   12.8050   39.0440 C   0  0  0  0  0  0  0  0  0  0  0  0
    2.1270   20.7920   38.0520 C   0  0  0  0  0  0  0  0  0  0  0  0
    2.1520   12.3720   41.6390 O   0  0  0  0  0  0  0  0  0  0  0  0
    2.9880   20.3540   37.1240 C   0  0  0  0  0  0  0  0  0  0  0  0
   -0.5090   18.5010   42.2910 C   0  0  0  0  0  0  0  0  0  0  0  0
    2.8190   11.1870   41.0510 C   0  0  0  0  0  0  0  0  0  0  0  0
    2.3740   19.4570   39.9520 C   0  0  0  0  0  0  0  0  0  0  0  0
    2.2010   21.8850   35.6230 O   0  0  0  0  0  1  0  0  0  0  0  0
    3.4600   20.2080   35.0230 O   0  0  0  0  0  0  0  0  0  0  0  0
    3.8420   18.7920   39.8730 C   0  0  0  0  0  0  0  0  0  0  0  0
    1.3160   16.0710   41.9460 C   0  0  0  0  0  0  0  0  0  0  0  0
    2.2720   13.6060   41.0910 C   0  0  0  0  0  0  0  0  0  0  0  0
    2.8210   20.8470   35.8150 C   0  0  0  0  0  0  0  0  0  0  0  0
    1.1360   21.7270   40.1010 C   0  0  0  0  0  0  0  0  0  0  0  0
   -0.4920   21.1620   43.2260 O   0  0  0  0  0  0  0  0  0  0  0  0
    0.4040   21.8510   41.2080 C   0  0  0  0  0  0  0  0  0  0  0  0
    1.6910   14.7280   41.9170 C   0  0  0  0  0  0  0  0  0  0  0  0
    0.3180   19.2930   41.8510 C   0  0  0  0  0  0  0  0  0  0  0  0
    1.5100   18.5620   41.1210 C   0  0  0  0  0  0  0  0  0  0  0  0
    2.1880   16.2240   39.6220 C   0  0  0  0  0  0  0  0  0  0  0  0
    3.6600   11.3600   39.7190 C   0  0  0  0  0  0  0  0  0  0  0  0
    1.8650   20.5750   39.4380 C   0  0  0  0  0  0  0  0  0  0  0  0
    3.4898   15.3865   38.3314 H   0  0  0  0  0  0  0  0  0  0  0  0
    4.9924   18.0020   38.3303 H   0  0  0  0  0  0  0  0  0  0  0  0
    3.0708   17.7416   38.3538 H   0  0  0  0  0  0  0  0  0  0  0  0
    4.2891   18.8867   36.3612 H   0  0  0  0  0  0  0  0  0  0  0  0
    4.2160   12.9938   38.0825 H   0  0  0  0  0  0  0  0  0  0  0  0
    1.1560   20.5499   37.5953 H   0  0  0  0  0  0  0  0  0  0  0  0
    2.6891   21.7199   38.2336 H   0  0  0  0  0  0  0  0  0  0  0  0
   -0.3668   17.4199   42.1458 H   0  0  0  0  0  0  0  0  0  0  0  0
   -1.3928   18.8719   42.8308 H   0  0  0  0  0  0  0  0  0  0  0  0
    2.7318   10.2015   41.5319 H   0  0  0  0  0  0  0  0  0  0  0  0
    3.9148   17.9197   40.5392 H   0  0  0  0  0  0  0  0  0  0  0  0
    4.6407   19.4783   40.1909 H   0  0  0  0  0  0  0  0  0  0  0  0
    0.7375   16.4065   42.8194 H   0  0  0  0  0  0  0  0  0  0  0  0
    1.2327   22.6709   39.5445 H   0  0  0  0  0  0  0  0  0  0  0  0
   -0.7561   20.4873   43.9007 H   0  0  0  0  0  0  0  0  0  0  0  0
    0.0258   22.8509   41.4670 H   0  0  0  0  0  0  0  0  0  0  0  0
    1.4718   14.3128   42.9118 H   0  0  0  0  0  0  0  0  0  0  0  0
    1.8098   16.7208   38.7164 H   0  0  0  0  0  0  0  0  0  0  0  0
    4.1910   10.5068   39.2716 H   0  0  0  0  0  0  0  0  0  0  0  0
  1 26  2  0
  1  3  1  0
  2 16  1  0
  3 18  1  0
  4 25  1  0
  4 17  2  0
  5  2  1  0
  6 21  1  0
  7 27  1  0
  7  3  2  0
  8 28  1  0
 10  5  2  0
 10  8  1  0
 12  9  1  0
 13 25  2  0
 14 19  1  0
 15 19  2  0
 16 13  1  0
 18  9  1  0
 18 23  2  0
 19 10  1  0
 20 22  1  0
 22  6  2  0
 23 17  1  0
 24  6  1  0
 24 11  2  3
 25 24  1  0
 26  4  1  0
 27 12  2  0
 28 13  1  0
 28 20  2  0
  1 29  1  0
  2 30  1  0
  2 31  1  0
  5 32  1  0
  7 33  1  0
  8 34  1  0
  8 35  1  0
 11 36  1  0
 11 37  1  0
 12 38  1  0
 16 39  1  0
 16 40  1  0
 17 41  1  0
 20 42  1  0
 21 43  1  0
 22 44  1  0
 23 45  1  0
 26 46  1  0
 27 47  1  0
M  CHG  1  14  -1
M  END
>  <mol_id>  (35) 
2026-09-18-3war-s0-n100-refligand-0035

>  <rmsd_to_ref>  (35) 


$$$$

     RDKit          3D

 41 43  0  0  0  0  0  0  0  0999 V2000
    3.5290   17.5030   37.7060 C   0  0  0  0  0  0  0  0  0  0  0  0
    3.0620   14.0620   39.0690 O   0  0  0  0  0  1  0  0  0  0  0  0
    0.3690   20.7410   42.2530 C   0  0  0  0  0  0  0  0  0  0  0  0
    3.2360   16.4440   38.4580 C   0  0  0  0  0  0  0  0  0  0  0  0
    0.4380   19.4020   42.4270 C   0  0  0  0  0  0  0  0  0  0  0  0
    3.7490   19.6900   36.3440 O   0  0  0  0  0  0  0  0  0  0  0  0
    0.0410   16.9220   43.0600 C   0  0  0  0  0  0  0  0  0  0  0  0
    0.9830   15.5860   41.5660 C   0  0  0  0  0  0  0  0  0  0  0  0
   -0.2280   15.5240   43.4510 C   0  0  0  0  0  0  0  0  0  0  0  0
    1.8240   19.0960   40.4350 C   0  0  0  0  0  0  0  0  0  0  0  0
    3.4490   14.9620   38.1650 C   0  0  0  0  0  0  0  0  0  0  0  0
   -0.2860   21.5240   42.9650 O   0  0  0  0  0  0  0  0  0  0  0  0
    0.3190   14.8090   42.4860 C   0  0  0  0  0  0  0  0  0  0  0  0
    1.8170   20.4900   40.3160 C   0  0  0  0  0  0  0  0  0  0  0  0
    2.4640   18.3120   39.3940 C   0  0  0  0  0  0  0  0  0  0  0  0
    1.1400   21.3280   41.1710 C   0  0  0  0  0  0  0  0  0  0  0  0
    0.8970   17.0120   41.7960 C   0  0  0  0  0  0  0  0  0  0  0  0
    2.2180   20.8870   37.2560 N   0  0  0  0  0  0  0  0  0  0  0  0
    2.9850   18.6290   38.2300 C   0  0  0  0  0  0  0  0  0  0  0  0
    1.1630   18.5200   41.5720 C   0  0  0  0  0  0  0  0  0  0  0  0
    1.4210   14.7450   40.4980 N   0  0  0  0  0  4  0  0  0  0  0  0
    4.1650   14.6660   37.1800 O   0  0  0  0  0  0  0  0  0  0  0  0
    2.9900   19.8570   37.2230 C   0  0  0  0  0  0  0  0  0  0  0  0
    2.1120   21.8290   36.0530 C   0  0  0  0  0  0  0  0  0  0  0  0
    2.4570   16.8720   39.5370 O   0  0  0  0  0  0  0  0  0  0  0  0
    4.1302   17.4690   36.7855 H   0  0  0  0  0  0  0  0  0  0  0  0
   -0.0989   18.9652   43.2819 H   0  0  0  0  0  0  0  0  0  0  0  0
   -0.3310   17.7969   43.6134 H   0  0  0  0  0  0  0  0  0  0  0  0
    0.2380   15.2930   44.4203 H   0  0  0  0  0  0  0  0  0  0  0  0
   -1.3019   15.3186   43.5719 H   0  0  0  0  0  0  0  0  0  0  0  0
    0.8788   19.0709   39.8728 H   0  0  0  0  0  0  0  0  0  0  0  0
    0.2513   13.7128   42.4244 H   0  0  0  0  0  0  0  0  0  0  0  0
    2.3862   20.9422   39.4904 H   0  0  0  0  0  0  0  0  0  0  0  0
    1.1815   22.4192   41.0383 H   0  0  0  0  0  0  0  0  0  0  0  0
    1.6643   21.0800   38.1028 H   0  0  0  0  0  0  0  0  0  0  0  0
    1.8617   13.8988   40.8860 H   0  0  0  0  0  0  0  0  0  0  0  0
    0.6127   14.4764   39.9189 H   0  0  0  0  0  0  0  0  0  0  0  0
    2.1045   15.2533   39.9189 H   0  0  0  0  0  0  0  0  0  0  0  0
    1.9955   22.8640   36.4069 H   0  0  0  0  0  0  0  0  0  0  0  0
    3.0247   21.7502   35.4441 H   0  0  0  0  0  0  0  0  0  0  0  0
    1.2397   21.5493   35.4441 H   0  0  0  0  0  0  0  0  0  0  0  0
  1 19  1  0
  1  4  2  0
  3  5  1  0
  3 12  2  0
  4 25  1  0
  6 23  2  0
  7  9  1  0
  8 17  1  0
  8 13  2  0
 10 15  1  0
 10 20  1  0
 11  4  1  0
 11  2  1  0
 13  9  1  0
 14 10  1  0
 14 16  2  0
 15 25  1  0
 16  3  1  0
 17  7  2  0
 19 15  2  0
 20 17  1  0
 20  5  2  0
 21  8  1  0
 22 11  2  0
 23 18  1  0
 23 19  1  0
 24 18  1  0
  1 26  1  0
  5 27  1  0
  7 28  1  0
  9 29  1  0
  9 30  1  0
 10 31  1  0
 13 32  1  0
 14 33  1  0
 16 34  1  0
 18 35  1  0
 21 36  1  0
 21 37  1  0
 21 38  1  0
 24 39  1  0
 24 40  1  0
 24 41  1  0
M  CHG  2   2  -1  21   1
M  END
>  <mol_id>  (36) 
2026-09-18-3war-s0-n100-refligand-0036

>  <rmsd_to_ref>  (36) 


$$$$

     RDKit          3D

 20 22  0  0  0  0  0  0  0  0999 V2000
    2.9500   18.1810   40.4710 C   0  0  0  0  0  0  0  0  0  0  0  0
    2.5580   17.0510   39.6430 N   0  0  0  0  0  4  0  0  0  0  0  0
    0.6700   20.8520   41.4530 C   0  0  0  0  0  0  0  0  0  0  0  0
    2.9380   19.1000   37.1210 C   0  0  0  0  0  0  0  0  0  0  0  0
    2.4650   20.8770   37.1780 N   0  0  0  0  0  0  0  0  0  0  0  0
    1.9400   20.1000   39.4600 C   0  0  0  0  0  0  0  0  0  0  0  0
    3.5010   20.2140   36.4790 O   0  0  0  0  0  0  0  0  0  0  0  0
    1.1730   19.6170   41.6170 C   0  0  0  0  0  0  0  0  0  0  0  0
    1.1480   21.4640   39.9600 S   0  0  0  0  0  0  0  0  0  0  0  0
    2.4450   19.8660   38.1810 C   0  0  0  0  0  0  0  0  0  0  0  0
    1.8600   19.1850   40.5320 C   0  0  0  0  0  0  0  0  0  0  0  0
    3.8489   18.6486   40.0428 H   0  0  0  0  0  0  0  0  0  0  0  0
    3.1578   17.8201   41.4891 H   0  0  0  0  0  0  0  0  0  0  0  0
    2.2843   16.2621   40.2460 H   0  0  0  0  0  0  0  0  0  0  0  0
    1.7615   17.3210   39.0484 H   0  0  0  0  0  0  0  0  0  0  0  0
    3.3506   16.7698   39.0484 H   0  0  0  0  0  0  0  0  0  0  0  0
    0.0414   21.3824   42.1835 H   0  0  0  0  0  0  0  0  0  0  0  0
    3.0361   18.0155   36.9650 H   0  0  0  0  0  0  0  0  0  0  0  0
    1.0414   19.0215   42.5324 H   0  0  0  0  0  0  0  0  0  0  0  0
    3.4734   20.1305   38.4681 H   0  0  0  0  0  0  0  0  0  0  0  0
  1 11  1  0
  2  1  1  0
  3  8  2  0
  4  7  1  0
  4  5  1  0
  4 10  1  0
  5  7  1  0
  5 10  1  0
  6  9  1  0
  6 11  2  0
  9  3  1  0
 10  6  1  0
 11  8  1  0
  1 12  1  0
  1 13  1  0
  2 14  1  0
  2 15  1  0
  2 16  1  0
  3 17  1  0
  4 18  1  0
  8 19  1  0
 10 20  1  0
M  CHG  1   2   1
M  END
>  <mol_id>  (37) 
2026-09-18-3war-s0-n100-refligand-0037

>  <rmsd_to_ref>  (37) 


$$$$

     RDKit          3D

 32 35  0  0  0  0  0  0  0  0999 V2000
    0.8660   21.8740   40.3510 O   0  0  0  0  0  0  0  0  0  0  0  0
    0.3670   18.7100   41.9620 C   0  0  0  0  0  0  0  0  0  0  0  0
   -0.1630   21.3420   42.3900 C   0  0  0  0  0  0  0  0  0  0  0  0
    2.3450   18.2050   39.4240 C   0  0  0  0  0  0  0  0  0  0  0  0
    2.4460   14.6100   41.0210 C   0  0  0  0  0  0  0  0  0  0  0  0
    2.9490   16.0550   38.6960 C   0  0  0  0  0  0  0  0  0  0  0  0
    3.3670   17.0340   37.8040 O   0  0  0  0  0  0  0  0  0  0  0  0
    3.1520   14.7000   38.7160 C   0  0  0  0  0  0  0  0  0  0  0  0
    3.0510   19.4340   37.3870 C   0  0  0  0  0  0  0  0  0  0  0  0
    2.9170   13.9170   39.9030 C   0  0  0  0  0  0  0  0  0  0  0  0
    1.8280   19.3800   39.9350 C   0  0  0  0  0  0  0  0  0  0  0  0
    0.9080   19.5760   41.0180 C   0  0  0  0  0  0  0  0  0  0  0  0
    0.5580   20.9460   41.2460 C   0  0  0  0  0  0  0  0  0  0  0  0
    2.9370   18.2500   38.1480 C   0  0  0  0  0  0  0  0  0  0  0  0
    2.2480   20.5740   39.2820 O   0  0  0  0  0  0  0  0  0  0  0  0
   -0.6210   20.4360   43.2580 N   0  0  0  0  0  0  0  0  0  0  0  0
   -0.3190   19.1240   43.0200 C   0  0  0  0  0  0  0  0  0  0  0  0
    2.2150   16.0370   41.0150 C   0  0  0  0  0  0  0  0  0  0  0  0
    2.4430   16.7530   39.8330 C   0  0  0  0  0  0  0  0  0  0  0  0
    3.5510   19.5820   36.2350 O   0  0  0  0  0  0  0  0  0  0  0  0
    2.4360   20.6170   37.9150 C   0  0  0  0  0  0  0  0  0  0  0  0
    0.6215   22.8194   40.5140 H   0  0  0  0  0  0  0  0  0  0  0  0
    0.5149   17.6286   41.8251 H   0  0  0  0  0  0  0  0  0  0  0  0
   -0.3510   22.4107   42.5705 H   0  0  0  0  0  0  0  0  0  0  0  0
    2.2426   14.0466   41.9436 H   0  0  0  0  0  0  0  0  0  0  0  0
    3.5032   14.1971   37.8029 H   0  0  0  0  0  0  0  0  0  0  0  0
    3.0987   12.8324   39.9274 H   0  0  0  0  0  0  0  0  0  0  0  0
    0.9854   19.3155   39.2309 H   0  0  0  0  0  0  0  0  0  0  0  0
   -0.6631   18.3711   43.7444 H   0  0  0  0  0  0  0  0  0  0  0  0
    1.8663   16.5514   41.9226 H   0  0  0  0  0  0  0  0  0  0  0  0
    3.0774   21.4787   37.6782 H   0  0  0  0  0  0  0  0  0  0  0  0
    1.4412   20.6996   37.4529 H   0  0  0  0  0  0  0  0  0  0  0  0
  1 13  1  0
  2 17  2  0
  3 16  2  0
  4 19  1  0
  4 11  1  0
  6  8  2  0
  6 19  1  0
  7 14  1  0
  7  6  1  0
  8 10  1  0
  9 21  1  0
  9 14  1  0
 10  5  2  0
 11 12  1  0
 12 13  2  0
 12  2  1  0
 13  3  1  0
 14  4  2  0
 15 11  1  0
 17 16  1  0
 18  5  1  0
 19 18  2  0
 20  9  2  0
 21 15  1  0
  1 22  1  0
  2 23  1  0
  3 24  1  0
  5 25  1  0
  8 26  1  0
 10 27  1  0
 11 28  1  0
 17 29  1  0
 18 30  1  0
 21 31  1  0
 21 32  1  0
M  END
>  <mol_id>  (38) 
2026-09-18-3war-s0-n100-refligand-0039

>  <rmsd_to_ref>  (38) 


$$$$

     RDKit          3D

 46 55  0  0  0  0  0  0  0  0999 V2000
    1.9130   14.6210   40.8440 C   0  0  0  0  0  0  0  0  0  0  0  0
    1.5210   16.1270   40.9180 C   0  0  0  0  0  0  0  0  0  0  0  0
    2.8130   19.5490   38.7410 C   0  0  0  0  0  0  0  0  0  0  0  0
    3.7310   15.8240   37.8210 C   0  0  0  0  0  0  0  0  0  0  0  0
    3.0280   15.6240   38.9960 C   0  0  0  0  0  0  0  0  0  0  0  0
    0.9040   16.4460   42.0220 C   0  0  0  0  0  0  0  0  0  0  0  0
    2.5960   16.8390   39.1860 O   0  0  0  0  0  0  0  0  0  0  0  0
    0.6200   19.5330   41.2100 C   0  0  0  0  0  0  0  0  0  0  0  0
    1.2260   21.7860   40.4460 N   0  0  0  0  0  0  0  0  0  0  0  0
    2.5160   21.0160   36.4320 C   0  0  0  0  0  0  0  0  0  0  0  0
    3.4920   19.2770   37.5950 C   0  0  0  0  0  0  0  0  0  0  0  0
   -0.0720   18.6510   43.0090 C   0  0  0  0  0  0  0  0  0  0  0  0
    2.8100   18.5710   40.0440 S   0  0  0  0  0  4  0  0  0  0  0  0
    1.6340   18.4170   40.9670 C   0  0  0  0  0  0  0  0  0  0  0  0
    1.1580   20.6400   40.9240 C   0  0  0  0  0  0  0  0  0  0  0  0
    1.8360   21.4650   37.5130 C   0  0  0  0  0  0  0  0  0  0  0  0
    2.8240   14.4490   39.8220 C   0  0  0  0  0  0  0  0  0  0  0  0
    2.0040   20.8260   38.6740 C   0  0  0  0  0  0  0  0  0  0  0  0
    1.4650   20.9810   39.8570 N   0  0  0  0  0  0  0  0  0  0  0  0
    2.3620   17.1030   40.2560 C   0  0  0  0  0  0  0  0  0  0  0  0
    0.1570   20.9850   41.8440 N   0  0  0  0  0  0  0  0  0  0  0  0
    3.4140   13.4160   39.8560 O   0  0  0  0  0  0  0  0  0  0  0  0
    1.4690   17.3800   41.1840 C   0  0  0  0  0  0  0  0  0  0  0  0
   -0.9220   19.6200   43.3930 N   0  0  0  0  0  4  0  0  0  0  0  0
    3.3580   20.1000   36.5060 C   0  0  0  0  0  0  0  0  0  0  0  0
   -0.7890   20.7600   42.7380 C   0  0  0  0  0  0  0  0  0  0  0  0
    0.7840   18.5760   41.9680 C   0  0  0  0  0  0  0  0  0  0  0  0
    2.3637   14.3089   41.7976 H   0  0  0  0  0  0  0  0  0  0  0  0
    1.0180   14.0104   40.6539 H   0  0  0  0  0  0  0  0  0  0  0  0
    4.7643   16.1180   38.0574 H   0  0  0  0  0  0  0  0  0  0  0  0
    3.7395   14.8926   37.2358 H   0  0  0  0  0  0  0  0  0  0  0  0
    3.2480   16.6204   37.2358 H   0  0  0  0  0  0  0  0  0  0  0  0
    3.9331   15.8550   39.5769 H   0  0  0  0  0  0  0  0  0  0  0  0
   -0.1895   16.3527   42.0970 H   0  0  0  0  0  0  0  0  0  0  0  0
    0.9887   16.1782   43.0855 H   0  0  0  0  0  0  0  0  0  0  0  0
    0.3631   22.3178   40.2629 H   0  0  0  0  0  0  0  0  0  0  0  0
    2.3183   21.4763   35.4527 H   0  0  0  0  0  0  0  0  0  0  0  0
    4.1491   18.3965   37.5411 H   0  0  0  0  0  0  0  0  0  0  0  0
   -0.0749   17.7627   43.6578 H   0  0  0  0  0  0  0  0  0  0  0  0
    4.0719   19.1014   40.1016 H   0  0  0  0  0  0  0  0  0  0  0  0
    1.1636   22.3322   37.4374 H   0  0  0  0  0  0  0  0  0  0  0  0
   -1.8834   19.2786   43.2516 H   0  0  0  0  0  0  0  0  0  0  0  0
   -0.7064   19.8233   44.3794 H   0  0  0  0  0  0  0  0  0  0  0  0
    4.0311   19.9429   35.6503 H   0  0  0  0  0  0  0  0  0  0  0  0
   -0.6641   21.5354   43.5082 H   0  0  0  0  0  0  0  0  0  0  0  0
   -1.6850   20.7445   42.1001 H   0  0  0  0  0  0  0  0  0  0  0  0
  2  1  1  0
  2 23  1  0
  2  6  1  0
  5  4  1  0
  5  7  1  0
  5 17  1  0
  8 21  1  0
  8 27  1  0
 10 25  2  0
 10 16  1  0
 11  3  2  0
 12 24  1  0
 13  3  1  0
 13 20  1  0
 13 14  1  0
 14 23  1  0
 14  8  1  0
 14 27  1  0
 15  9  1  0
 15  8  1  0
 15 21  1  0
 16 18  2  0
 17 22  2  0
 17  1  1  0
 18  3  1  0
 18 19  1  0
 19  9  1  0
 19 15  1  0
 20  7  1  0
 20  2  1  0
 20 23  1  0
 21 26  1  0
 23  6  1  0
 25 11  1  0
 26 24  1  0
 27 12  2  0
  1 28  1  0
  1 29  1  0
  4 30  1  0
  4 31  1  0
  4 32  1  0
  5 33  1  0
  6 34  1  0
  6 35  1  0
  9 36  1  0
 10 37  1  0
 11 38  1  0
 12 39  1  0
 13 40  1  0
 16 41  1  0
 24 42  1  0
 24 43  1  0
 25 44  1  0
 26 45  1  0
 26 46  1  0
M  CHG  1  24   1
M  END
>  <mol_id>  (39) 
2026-09-18-3war-s0-n100-refligand-0040

>  <rmsd_to_ref>  (39) 


$$$$

     RDKit          3D

 40 43  0  0  0  0  0  0  0  0999 V2000
   -0.1640   20.8040   42.2700 C   0  0  0  0  0  0  0  0  0  0  0  0
   -0.7600   18.9980   43.7350 C   0  0  0  0  0  0  0  0  0  0  0  0
    2.6660   15.0040   38.8540 C   0  0  0  0  0  0  0  0  0  0  0  0
    1.6920   18.1390   40.7270 N   0  0  0  0  0  0  0  0  0  0  0  0
    2.3160   16.3390   39.1140 C   0  0  0  0  0  0  0  0  0  0  0  0
    1.4000   20.1930   40.3540 C   0  0  0  0  0  0  0  0  0  0  0  0
    4.2540   15.8360   37.3100 C   0  0  0  0  0  0  0  0  0  0  0  0
    2.2380   20.8010   37.6020 N   0  0  0  0  0  0  0  0  0  0  0  0
    0.7220   18.6000   41.7940 C   0  0  0  0  0  0  0  0  0  0  0  0
    1.8190   19.8200   37.9120 C   0  0  0  0  0  0  0  0  0  0  0  0
    2.9990   20.6590   36.8140 C   0  0  0  0  0  0  0  0  0  0  0  0
    0.4570   19.8780   41.4210 C   0  0  0  0  0  0  0  0  0  0  0  0
   -0.4030   16.3620   44.5210 C   0  0  0  0  0  0  0  0  0  0  0  0
    3.9050   17.1630   37.6650 C   0  0  0  0  0  0  0  0  0  0  0  0
    0.0240   16.7990   43.2060 O   0  0  0  0  0  0  0  0  0  0  0  0
    3.4210   19.9410   37.1880 O   0  0  0  0  0  0  0  0  0  0  0  0
    3.6570   14.7700   37.9350 C   0  0  0  0  0  0  0  0  0  0  0  0
    2.8680   17.4110   38.5410 C   0  0  0  0  0  0  0  0  0  0  0  0
    1.4900   21.5150   40.1350 O   0  0  0  0  0  0  0  0  0  0  0  0
    1.8660   19.0320   40.0100 N   0  0  0  0  0  0  0  0  0  0  0  0
   -0.8000   20.3600   43.4210 C   0  0  0  0  0  0  0  0  0  0  0  0
   -0.0240   18.0860   42.9780 C   0  0  0  0  0  0  0  0  0  0  0  0
    5.1800   15.6360   36.4000 F   0  0  0  0  0  0  0  0  0  0  0  0
    3.0010   21.1800   35.8930 N   0  0  0  0  0  0  0  0  0  0  0  0
    2.4630   18.7870   38.7150 C   0  0  0  0  0  0  0  0  0  0  0  0
   -0.1475   21.8764   42.0256 H   0  0  0  0  0  0  0  0  0  0  0  0
   -1.3260   18.6346   44.6053 H   0  0  0  0  0  0  0  0  0  0  0  0
    2.1621   14.1736   39.3702 H   0  0  0  0  0  0  0  0  0  0  0  0
    2.1183   17.2043   40.6524 H   0  0  0  0  0  0  0  0  0  0  0  0
    1.5199   16.5163   39.8521 H   0  0  0  0  0  0  0  0  0  0  0  0
    0.7332   19.6670   37.9995 H   0  0  0  0  0  0  0  0  0  0  0  0
    0.1463   16.9242   45.2905 H   0  0  0  0  0  0  0  0  0  0  0  0
   -1.4820   16.5428   44.6350 H   0  0  0  0  0  0  0  0  0  0  0  0
   -0.1972   15.2874   44.6350 H   0  0  0  0  0  0  0  0  0  0  0  0
    4.4677   18.0057   37.2369 H   0  0  0  0  0  0  0  0  0  0  0  0
    3.9692   13.7413   37.7020 H   0  0  0  0  0  0  0  0  0  0  0  0
   -1.3275   21.0688   44.0762 H   0  0  0  0  0  0  0  0  0  0  0  0
    2.3841   21.9941   35.7605 H   0  0  0  0  0  0  0  0  0  0  0  0
    3.6198   20.8730   35.1290 H   0  0  0  0  0  0  0  0  0  0  0  0
    3.4803   18.9193   38.3180 H   0  0  0  0  0  0  0  0  0  0  0  0
  1 21  2  0
  3  5  2  0
  4  9  1  0
  6 12  1  0
  7 14  1  0
  7 17  2  0
  8 10  1  0
  9 22  1  0
 10 25  1  0
 11 16  1  0
 11  8  2  0
 12  9  2  0
 12  1  1  0
 14 18  2  0
 15 13  1  0
 16 10  1  0
 17  3  1  0
 18  5  1  0
 19  6  2  0
 20  6  1  0
 20  4  1  0
 21  2  1  0
 22 15  1  0
 22  2  2  0
 23  7  1  0
 24 11  1  0
 25 18  1  0
 25 20  1  0
  1 26  1  0
  2 27  1  0
  3 28  1  0
  4 29  1  0
  5 30  1  0
 10 31  1  0
 13 32  1  0
 13 33  1  0
 13 34  1  0
 14 35  1  0
 17 36  1  0
 21 37  1  0
 24 38  1  0
 24 39  1  0
 25 40  1  0
M  END
>  <mol_id>  (40) 
2026-09-18-3war-s0-n100-refligand-0041

>  <rmsd_to_ref>  (40) 


$$$$

     RDKit          3D

 36 40  0  0  0  0  0  0  0  0999 V2000
    1.8570   20.9070   38.7020 C   0  0  0  0  0  0  0  0  0  0  0  0
    1.2330   21.8420   39.4850 O   0  0  0  0  0  0  0  0  0  0  0  0
    2.2610   14.0030   40.1810 N   0  0  0  0  0  0  0  0  0  0  0  0
    3.7530   17.3990   39.0160 S   0  0  0  0  0  0  0  0  0  0  0  0
    1.1250   15.8950   41.9250 C   0  0  0  0  0  0  0  0  0  0  0  0
    2.1170   21.3390   37.4420 C   0  0  0  0  0  0  0  0  0  0  0  0
    1.5350   19.2580   40.4720 C   0  0  0  0  0  0  0  0  0  0  0  0
    1.2690   18.1270   41.2490 C   0  0  0  0  0  0  0  0  0  0  0  0
    0.2950   19.8160   42.2520 N   0  0  0  0  0  0  0  0  0  0  0  0
    0.9240   20.2640   41.1250 C   0  0  0  0  0  0  0  0  0  0  0  0
    0.8210   21.5270   40.7300 C   0  0  0  0  0  0  0  0  0  0  0  0
    3.0510   18.8380   38.4910 C   0  0  0  0  0  0  0  0  0  0  0  0
    0.5090   18.5420   42.3120 C   0  0  0  0  0  0  0  0  0  0  0  0
    1.6020   16.8540   40.9710 C   0  0  0  0  0  0  0  0  0  0  0  0
    2.9580   21.1080   35.3890 O   0  0  0  0  0  0  0  0  0  0  0  0
    0.0330   17.5660   43.2270 C   0  0  0  0  0  0  0  0  0  0  0  0
    3.4990   19.3270   37.0570 C   0  0  0  0  0  0  0  0  0  0  0  0
    0.3310   16.2760   43.0250 C   0  0  0  0  0  0  0  0  0  0  0  0
    2.3680   16.5550   39.8200 C   0  0  0  0  0  0  0  0  0  0  0  0
    3.8950   14.9530   39.0730 O   0  0  0  0  0  0  0  0  0  0  0  0
    2.9080   20.6540   36.4760 C   0  0  0  0  0  0  0  0  0  0  0  0
    2.8170   15.1820   39.7100 C   0  0  0  0  0  0  0  0  0  0  0  0
    2.1390   19.6320   39.2220 C   0  0  0  0  0  0  0  0  0  0  0  0
    3.0220   12.7910   40.0190 C   0  0  0  0  0  0  0  0  0  0  0  0
    1.3349   13.9939   40.6317 H   0  0  0  0  0  0  0  0  0  0  0  0
    1.3858   14.8344   41.7945 H   0  0  0  0  0  0  0  0  0  0  0  0
    1.1315   21.4685   36.9707 H   0  0  0  0  0  0  0  0  0  0  0  0
    2.7799   22.1883   37.6642 H   0  0  0  0  0  0  0  0  0  0  0  0
    0.4105   22.2965   41.4004 H   0  0  0  0  0  0  0  0  0  0  0  0
   -0.5746   17.8665   44.0933 H   0  0  0  0  0  0  0  0  0  0  0  0
    4.2210   18.7389   36.4715 H   0  0  0  0  0  0  0  0  0  0  0  0
   -0.0454   15.5112   43.7203 H   0  0  0  0  0  0  0  0  0  0  0  0
    1.4871   17.0010   39.3352 H   0  0  0  0  0  0  0  0  0  0  0  0
    3.2778   12.3837   41.0083 H   0  0  0  0  0  0  0  0  0  0  0  0
    2.4241   12.0542   39.4625 H   0  0  0  0  0  0  0  0  0  0  0  0
    3.9454   13.0094   39.4625 H   0  0  0  0  0  0  0  0  0  0  0  0
  1 23  2  0
  1  2  1  0
  2 11  1  0
  4 19  1  0
  5 18  1  0
  6  1  1  0
  7 10  1  0
  7  8  2  0
  8 13  1  0
  9 13  2  0
 10  9  1  0
 11 10  2  0
 12  4  1  0
 12 23  1  0
 13 16  1  0
 14  8  1  0
 14  5  2  0
 15 21  2  0
 17 12  2  0
 18 16  2  0
 19 22  1  0
 19 14  1  0
 20 22  2  0
 21 17  1  0
 21  6  1  0
 22  3  1  0
 23  7  1  0
 24  3  1  0
  3 25  1  0
  5 26  1  0
  6 27  1  0
  6 28  1  0
 11 29  1  0
 16 30  1  0
 17 31  1  0
 18 32  1  0
 19 33  1  0
 24 34  1  0
 24 35  1  0
 24 36  1  0
M  END
>  <mol_id>  (41) 
2026-09-18-3war-s0-n100-refligand-0042

>  <rmsd_to_ref>  (41) 


$$$$

     RDKit          3D

 49 54  0  0  0  0  0  0  0  0999 V2000
    2.2620   14.9450   39.8410 C   0  0  0  0  0  0  0  0  0  0  0  0
    3.2980   21.4820   35.5730 C   0  0  0  0  0  0  0  0  0  0  0  0
    0.6460   17.4170   42.4210 C   0  0  0  0  0  0  0  0  0  0  0  0
    2.1010   18.1030   40.4370 C   0  0  0  0  0  0  0  0  0  0  0  0
    0.1070   16.4300   43.2310 C   0  0  0  0  0  0  0  0  0  0  0  0
    2.1660   20.9010   37.5640 C   0  0  0  0  0  0  0  0  0  0  0  0
    2.7140   17.4340   39.1740 C   0  0  0  0  0  0  0  0  0  0  0  0
    2.3190   21.7450   36.5100 C   0  0  0  0  0  0  0  0  0  0  0  0
    3.7450   14.4140   37.3400 C   0  0  0  0  0  0  0  0  0  0  0  0
    1.9060   20.5600   40.8820 C   0  0  0  0  0  0  0  0  0  0  0  0
    1.3970   21.4060   38.4280 O   0  0  0  0  0  0  0  0  0  0  0  0
    3.5240   22.2270   34.6350 O   0  0  0  0  0  0  0  0  0  0  0  0
    3.8970   20.3120   35.5030 N   0  0  0  0  0  0  0  0  0  0  0  0
    3.5190   15.9050   37.8800 C   0  0  0  0  0  0  0  0  0  0  0  0
   -0.7680   21.3520   43.3810 C   0  0  0  0  0  0  0  0  0  0  0  0
   -0.6320   16.7070   44.3900 C   0  0  0  0  0  0  0  0  0  0  0  0
    2.8950   16.1210   39.0320 C   0  0  0  0  0  0  0  0  0  0  0  0
    0.7890   20.1460   41.8800 C   0  0  0  0  0  0  0  0  0  0  0  0
    4.7790   13.9170   37.7130 O   0  0  0  0  0  1  0  0  0  0  0  0
    0.8540   14.6040   41.5010 O   0  0  0  0  0  0  0  0  0  0  0  0
   -0.9170   17.9980   44.6220 C   0  0  0  0  0  0  0  0  0  0  0  0
   -1.7490   18.3150   45.7770 N   0  0  0  0  0  0  0  0  0  0  0  0
    3.2170   18.1140   38.0450 C   0  0  0  0  0  0  0  0  0  0  0  0
    3.8530   19.4770   36.5040 C   0  0  0  0  0  0  0  0  0  0  0  0
   -1.1150   20.2280   43.9620 N   0  0  0  0  0  0  0  0  0  0  0  0
    2.8440   13.8740   36.5470 O   0  0  0  0  0  0  0  0  0  0  0  0
    3.7670   17.1830   37.3030 N   0  0  0  0  0  0  0  0  0  0  0  0
    0.3350   18.8480   42.6590 C   0  0  0  0  0  0  0  0  0  0  0  0
    0.1420   21.3220   42.3760 C   0  0  0  0  0  0  0  0  0  0  0  0
   -0.5600   19.0370   43.7390 C   0  0  0  0  0  0  0  0  0  0  0  0
    2.9320   19.4970   37.5590 C   0  0  0  0  0  0  0  0  0  0  0  0
    2.2890   19.5260   40.0330 O   0  0  0  0  0  0  0  0  0  0  0  0
    1.4260   16.9760   41.2440 C   0  0  0  0  0  0  0  0  0  0  0  0
    1.4520   15.4650   40.8910 C   0  0  0  0  0  0  0  0  0  0  0  0
    2.4180   13.8764   39.6317 H   0  0  0  0  0  0  0  0  0  0  0  0
    1.9504   18.4808   41.4591 H   0  0  0  0  0  0  0  0  0  0  0  0
    0.2667   15.3783   42.9511 H   0  0  0  0  0  0  0  0  0  0  0  0
    2.5304   22.7417   36.9245 H   0  0  0  0  0  0  0  0  0  0  0  0
    1.3809   21.6326   35.9467 H   0  0  0  0  0  0  0  0  0  0  0  0
    1.5370   21.3967   40.2706 H   0  0  0  0  0  0  0  0  0  0  0  0
    2.7884   20.8418   41.4752 H   0  0  0  0  0  0  0  0  0  0  0  0
    4.4071   20.0525   34.6466 H   0  0  0  0  0  0  0  0  0  0  0  0
   -1.2094   22.3061   43.7048 H   0  0  0  0  0  0  0  0  0  0  0  0
   -0.9605   15.9092   45.0724 H   0  0  0  0  0  0  0  0  0  0  0  0
   -1.9882   19.2948   45.9860 H   0  0  0  0  0  0  0  0  0  0  0  0
   -2.0974   17.5591   46.3837 H   0  0  0  0  0  0  0  0  0  0  0  0
    4.6119   18.6809   36.5213 H   0  0  0  0  0  0  0  0  0  0  0  0
    0.4042   22.2801   41.9034 H   0  0  0  0  0  0  0  0  0  0  0  0
    0.5090   17.0992   40.6491 H   0  0  0  0  0  0  0  0  0  0  0  0
  1 34  1  0
  2  8  1  0
  3 28  2  0
  3  5  1  0
  4  7  1  0
  4 33  1  0
  5 16  2  0
  6 11  2  0
  8  6  1  0
  9 19  1  0
  9 14  1  0
 10 18  1  0
 12  2  2  0
 13  2  1  0
 13 24  1  0
 14 17  1  0
 15 25  2  0
 16 21  1  0
 17  7  1  0
 17  1  2  0
 18 29  2  0
 18 28  1  0
 21 22  1  0
 23  7  2  0
 24 31  2  0
 26  9  2  0
 27 14  2  0
 27 23  1  0
 28 30  1  0
 29 15  1  0
 30 25  1  0
 30 21  2  0
 31  6  1  0
 31 23  1  0
 32  4  1  0
 32 10  1  0
 33 34  1  0
 33  3  1  0
 34 20  2  0
  1 35  1  0
  4 36  1  0
  5 37  1  0
  8 38  1  0
  8 39  1  0
 10 40  1  0
 10 41  1  0
 13 42  1  0
 15 43  1  0
 16 44  1  0
 22 45  1  0
 22 46  1  0
 24 47  1  0
 29 48  1  0
 33 49  1  0
M  CHG  1  19  -1
M  END
>  <mol_id>  (42) 
2026-09-18-3war-s0-n100-refligand-0043

>  <rmsd_to_ref>  (42) 


$$$$

     RDKit          3D

 14 14  0  0  0  0  0  0  0  0999 V2000
    3.2340   20.3570   36.6710 O   0  0  0  0  0  0  0  0  0  0  0  0
    1.8310   20.5120   39.1780 C   0  0  0  0  0  0  0  0  0  0  0  0
    2.6160   19.4280   38.6680 C   0  0  0  0  0  0  0  0  0  0  0  0
    1.3200   20.3530   40.5760 C   0  0  0  0  0  0  0  0  0  0  0  0
    3.1930   19.2900   37.4040 C   0  0  0  0  0  0  0  0  0  0  0  0
    2.8810   18.3320   39.4890 C   0  0  0  0  0  0  0  0  0  0  0  0
    1.0610   18.9340   40.8940 O   0  0  0  0  0  0  0  0  0  0  0  0
    2.0870   17.9960   40.5690 C   0  0  0  0  0  0  0  0  0  0  0  0
    3.5890   18.1380   36.8940 O   0  0  0  0  0  1  0  0  0  0  0  0
    1.6163   21.4085   38.5778 H   0  0  0  0  0  0  0  0  0  0  0  0
    2.0693   20.7468   41.2785 H   0  0  0  0  0  0  0  0  0  0  0  0
    0.3741   20.9073   40.6653 H   0  0  0  0  0  0  0  0  0  0  0  0
    3.7596   17.7084   39.2673 H   0  0  0  0  0  0  0  0  0  0  0  0
    2.2356   17.0677   41.1402 H   0  0  0  0  0  0  0  0  0  0  0  0
  1  5  2  0
  2  4  1  0
  3  2  2  0
  3  6  1  0
  4  7  1  0
  5  3  1  0
  6  8  2  0
  8  7  1  0
  9  5  1  0
  2 10  1  0
  4 11  1  0
  4 12  1  0
  6 13  1  0
  8 14  1  0
M  CHG  1   9  -1
M  END
>  <mol_id>  (43) 
2026-09-18-3war-s0-n100-refligand-0044

>  <rmsd_to_ref>  (43) 


$$$$

     RDKit          3D

 52 55  0  0  0  0  0  0  0  0999 V2000
    0.8060   19.9030   41.5290 C   0  0  0  0  0  0  0  0  0  0  0  0
    4.2740   22.4060   35.8260 C   0  0  0  0  0  0  0  0  0  0  0  0
    2.7030   16.1900   39.1770 C   0  0  0  0  0  0  0  0  0  0  0  0
    2.7170   18.2690   37.3630 C   0  0  0  0  0  0  0  0  0  0  0  0
   -0.5720   20.4830   44.8480 N   0  0  0  0  0  0  0  0  0  0  0  0
    3.1310   23.0690   35.7200 C   0  0  0  0  0  0  0  0  0  0  0  0
    0.3100   18.4550   43.7620 C   0  0  0  0  0  0  0  0  0  0  0  0
    0.1860   20.4670   42.5520 C   0  0  0  0  0  0  0  0  0  0  0  0
    0.0010   19.8100   43.7430 C   0  0  0  0  0  0  0  0  0  0  0  0
    4.0820   16.3360   37.2570 C   0  0  0  0  0  0  0  0  0  0  0  0
   -0.1330   21.7860   42.5320 O   0  0  0  0  0  0  0  0  0  0  0  0
    4.3780   21.2190   36.5340 C   0  0  0  0  0  0  0  0  0  0  0  0
    3.7860   14.3580   38.1620 C   0  0  0  0  0  0  0  0  0  0  0  0
    2.4620   13.9800   39.9770 O   0  0  0  0  0  0  0  0  0  0  0  0
   -1.0720   18.5090   46.3310 N   0  0  0  0  0  4  0  0  0  0  0  0
    2.1560   21.4210   37.0080 C   0  0  0  0  0  0  0  0  0  0  0  0
    3.2080   20.6700   37.0860 C   0  0  0  0  0  0  0  0  0  0  0  0
    0.8350   17.8550   42.7150 C   0  0  0  0  0  0  0  0  0  0  0  0
   -0.4900   19.8350   46.2060 C   0  0  0  0  0  0  0  0  0  0  0  0
    1.5520   15.8650   41.0030 O   0  0  0  0  0  0  0  0  0  0  0  0
    2.0500   16.6910   40.3520 C   0  0  0  0  0  0  0  0  0  0  0  0
    1.8340   17.9820   40.5590 C   0  0  0  0  0  0  0  0  0  0  0  0
    2.0440   22.5660   36.2900 C   0  0  0  0  0  0  0  0  0  0  0  0
    2.3660   18.6870   39.6870 O   0  0  0  0  0  0  0  0  0  0  0  0
    2.9420   14.8610   39.1570 C   0  0  0  0  0  0  0  0  0  0  0  0
    1.1700   18.4710   41.5910 C   0  0  0  0  0  0  0  0  0  0  0  0
    3.3350   19.4270   37.7190 N   0  0  0  0  0  0  0  0  0  0  0  0
    3.0300   19.6470   39.0750 N   0  0  0  0  0  0  0  0  0  0  0  0
    4.3550   15.1160   37.2270 N   0  0  0  0  0  0  0  0  0  0  0  0
    3.1790   17.0440   38.1340 C   0  0  0  0  0  0  0  0  0  0  0  0
    1.0499   20.4966   40.6356 H   0  0  0  0  0  0  0  0  0  0  0  0
    5.1708   22.8119   35.3351 H   0  0  0  0  0  0  0  0  0  0  0  0
    1.6365   18.3915   37.5286 H   0  0  0  0  0  0  0  0  0  0  0  0
    2.9736   18.0894   36.3085 H   0  0  0  0  0  0  0  0  0  0  0  0
   -1.0347   21.3952   44.7269 H   0  0  0  0  0  0  0  0  0  0  0  0
    3.0848   24.0199   35.1689 H   0  0  0  0  0  0  0  0  0  0  0  0
    0.1112   17.8710   44.6727 H   0  0  0  0  0  0  0  0  0  0  0  0
    4.6019   16.9561   36.5119 H   0  0  0  0  0  0  0  0  0  0  0  0
   -0.5972   22.1948   43.3050 H   0  0  0  0  0  0  0  0  0  0  0  0
    5.3502   20.7201   36.6604 H   0  0  0  0  0  0  0  0  0  0  0  0
    3.9909   13.2773   38.1512 H   0  0  0  0  0  0  0  0  0  0  0  0
    1.8566   14.2620   40.7078 H   0  0  0  0  0  0  0  0  0  0  0  0
   -1.1759   18.2723   47.3280 H   0  0  0  0  0  0  0  0  0  0  0  0
   -1.9963   18.4955   45.8768 H   0  0  0  0  0  0  0  0  0  0  0  0
   -0.4562   17.8195   45.8768 H   0  0  0  0  0  0  0  0  0  0  0  0
    1.2709   21.1004   37.5770 H   0  0  0  0  0  0  0  0  0  0  0  0
    1.0070   16.7703   42.7772 H   0  0  0  0  0  0  0  0  0  0  0  0
    0.5737   19.7593   46.4759 H   0  0  0  0  0  0  0  0  0  0  0  0
   -1.0869   20.4773   46.8702 H   0  0  0  0  0  0  0  0  0  0  0  0
    0.8968   17.9169   39.9868 H   0  0  0  0  0  0  0  0  0  0  0  0
    1.0710   23.0677   36.1824 H   0  0  0  0  0  0  0  0  0  0  0  0
    3.9181   19.7844   39.5782 H   0  0  0  0  0  0  0  0  0  0  0  0
  1 26  2  0
  1  8  1  0
  2 12  2  0
  3 21  1  0
  4 27  1  0
  4 30  1  0
  5 19  1  0
  6  2  1  0
  6 23  2  0
  8  9  2  0
  9  7  1  0
  9  5  1  0
 10 30  2  0
 11  8  1  0
 12 17  1  0
 13 25  1  0
 16 17  2  0
 17 27  1  0
 18  7  2  0
 19 15  1  0
 21 22  1  0
 21 20  2  0
 22 26  1  0
 23 16  1  0
 24 22  1  0
 25  3  2  0
 25 14  1  0
 26 18  1  0
 27 28  1  0
 28 24  1  0
 29 10  1  0
 29 13  2  0
 30  3  1  0
  1 31  1  0
  2 32  1  0
  4 33  1  0
  4 34  1  0
  5 35  1  0
  6 36  1  0
  7 37  1  0
 10 38  1  0
 11 39  1  0
 12 40  1  0
 13 41  1  0
 14 42  1  0
 15 43  1  0
 15 44  1  0
 15 45  1  0
 16 46  1  0
 18 47  1  0
 19 48  1  0
 19 49  1  0
 22 50  1  0
 23 51  1  0
 28 52  1  0
M  CHG  1  15   1
M  END
>  <mol_id>  (44) 
2026-09-18-3war-s0-n100-refligand-0045

>  <rmsd_to_ref>  (44) 


$$$$

     RDKit          3D

 27 28  0  0  0  0  0  0  0  0999 V2000
    0.9770   19.3870   41.8090 C   0  0  0  0  0  0  0  0  0  0  0  0
    1.2610   18.1590   42.0820 C   0  0  0  0  0  0  0  0  0  0  0  0
    4.3360   16.2690   37.2050 C   0  0  0  0  0  0  0  0  0  0  0  0
    1.7080   17.0980   41.3970 C   0  0  0  0  0  0  0  0  0  0  0  0
    3.2510   17.0570   37.6990 O   0  0  0  0  0  0  0  0  0  0  0  0
    2.0510   20.8620   38.5040 C   0  0  0  0  0  0  0  0  0  0  0  0
    2.2680   18.5700   39.2800 C   0  0  0  0  0  0  0  0  0  0  0  0
    2.9810   19.2420   37.0310 N   0  0  0  0  0  0  0  0  0  0  0  0
    2.6160   20.5120   37.2810 C   0  0  0  0  0  0  0  0  0  0  0  0
    1.8250   19.8790   39.4900 C   0  0  0  0  0  0  0  0  0  0  0  0
    2.8840   18.3430   37.9560 C   0  0  0  0  0  0  0  0  0  0  0  0
    2.1630   17.4600   40.1580 C   0  0  0  0  0  0  0  0  0  0  0  0
    0.8200   21.5000   40.9030 N   0  0  0  0  0  4  0  0  0  0  0  0
    1.2230   20.2280   40.7770 C   0  0  0  0  0  0  0  0  0  0  0  0
    0.3936   19.8675   42.6082 H   0  0  0  0  0  0  0  0  0  0  0  0
    1.0944   17.9237   43.1436 H   0  0  0  0  0  0  0  0  0  0  0  0
    4.9045   15.8561   38.0514 H   0  0  0  0  0  0  0  0  0  0  0  0
    3.9416   15.4454   36.5917 H   0  0  0  0  0  0  0  0  0  0  0  0
    4.9971   16.8989   36.5917 H   0  0  0  0  0  0  0  0  0  0  0  0
    2.5306   16.6303   41.9579 H   0  0  0  0  0  0  0  0  0  0  0  0
    0.8739   16.3927   41.2674 H   0  0  0  0  0  0  0  0  0  0  0  0
    1.7797   21.9094   38.7024 H   0  0  0  0  0  0  0  0  0  0  0  0
    2.7656   21.2827   36.5105 H   0  0  0  0  0  0  0  0  0  0  0  0
    2.6033   16.5781   39.6697 H   0  0  0  0  0  0  0  0  0  0  0  0
    0.7443   21.7388   41.9021 H   0  0  0  0  0  0  0  0  0  0  0  0
    1.5047   22.1234   40.4519 H   0  0  0  0  0  0  0  0  0  0  0  0
   -0.0987   21.6154   40.4519 H   0  0  0  0  0  0  0  0  0  0  0  0
  1  2  2  0
  3  5  1  0
  4  2  1  0
  5 11  1  0
  6 10  1  0
  7 10  1  0
  7 12  2  0
  8  9  1  0
  8 11  2  0
  9  6  2  0
 10 14  2  0
 11  7  1  0
 12  4  1  0
 14 13  1  0
 14  1  1  0
  1 15  1  0
  2 16  1  0
  3 17  1  0
  3 18  1  0
  3 19  1  0
  4 20  1  0
  4 21  1  0
  6 22  1  0
  9 23  1  0
 12 24  1  0
 13 25  1  0
 13 26  1  0
 13 27  1  0
M  CHG  1  13   1
M  END
>  <mol_id>  (45) 
2026-09-18-3war-s0-n100-refligand-0046

>  <rmsd_to_ref>  (45) 


$$$$

     RDKit          3D

 15 15  0  0  0  0  0  0  0  0999 V2000
    2.1380   18.6460   39.7590 C   0  0  0  0  0  0  0  0  0  0  0  0
    2.3430   19.6230   38.7790 C   0  0  0  0  0  0  0  0  0  0  0  0
    1.0070   20.2280   41.2020 C   0  0  0  0  0  0  0  0  0  0  0  0
    1.1360   21.2340   40.2000 C   0  0  0  0  0  0  0  0  0  0  0  0
    1.4990   18.9650   40.9230 C   0  0  0  0  0  0  0  0  0  0  0  0
    1.8160   20.9560   39.0160 C   0  0  0  0  0  0  0  0  0  0  0  0
    1.3530   17.9640   41.8680 O   0  0  0  0  0  0  0  0  0  0  0  0
    3.3930   20.1230   36.6460 O   0  0  0  0  0  0  0  0  0  0  0  0
    2.9550   18.0440   37.1880 O   0  0  0  0  0  1  0  0  0  0  0  0
    2.9150   19.2960   37.3930 C   0  0  0  0  0  0  0  0  0  0  0  0
    2.4924   17.6182   39.5916 H   0  0  0  0  0  0  0  0  0  0  0  0
    0.5304   20.4492   42.1684 H   0  0  0  0  0  0  0  0  0  0  0  0
    0.6985   22.2302   40.3617 H   0  0  0  0  0  0  0  0  0  0  0  0
    1.9536   21.7448   38.2617 H   0  0  0  0  0  0  0  0  0  0  0  0
    0.8955   18.1551   42.7249 H   0  0  0  0  0  0  0  0  0  0  0  0
  1  5  2  0
  2  6  2  0
  2  1  1  0
  4  3  2  0
  5  3  1  0
  5  7  1  0
  6  4  1  0
  8 10  2  0
  9 10  1  0
 10  2  1  0
  1 11  1  0
  3 12  1  0
  4 13  1  0
  6 14  1  0
  7 15  1  0
M  CHG  1   9  -1
M  END
>  <mol_id>  (46) 
2026-09-18-3war-s0-n100-refligand-0047

>  <rmsd_to_ref>  (46) 


$$$$

     RDKit          3D

 25 27  0  0  0  0  0  0  0  0999 V2000
    0.6830   18.2620   43.0970 C   0  0  0  0  0  0  0  0  0  0  0  0
    3.0460   19.7440   37.4770 C   0  0  0  0  0  0  0  0  0  0  0  0
    1.8670   17.7560   40.5980 N   0  0  0  0  0  0  0  0  0  0  0  0
    1.0020   19.7050   41.6540 C   0  0  0  0  0  0  0  0  0  0  0  0
    3.3770   18.3920   37.6180 C   0  0  0  0  0  0  0  0  0  0  0  0
    1.1000   18.1200   41.5990 C   0  0  0  0  0  0  0  0  0  0  0  0
    0.9210   20.2250   40.2390 C   0  0  0  0  0  0  0  0  0  0  0  0
    3.0150   17.6930   38.6620 C   0  0  0  0  0  0  0  0  0  0  0  0
    1.7740   19.6630   39.5500 C   0  0  0  0  0  0  0  0  0  0  0  0
    2.2350   20.3530   38.4150 C   0  0  0  0  0  0  0  0  0  0  0  0
    2.3120   18.4180   39.6220 C   0  0  0  0  0  0  0  0  0  0  0  0
    1.3560   17.4700   42.4640 C   0  0  0  0  0  0  0  0  0  0  0  0
    1.1328   19.0137   43.7623 H   0  0  0  0  0  0  0  0  0  0  0  0
   -0.2125   18.3046   43.7344 H   0  0  0  0  0  0  0  0  0  0  0  0
    3.4302   20.3201   36.6223 H   0  0  0  0  0  0  0  0  0  0  0  0
    2.1523   16.7664   40.6124 H   0  0  0  0  0  0  0  0  0  0  0  0
    0.1018   20.0027   42.2117 H   0  0  0  0  0  0  0  0  0  0  0  0
    1.8850   20.1217   42.1606 H   0  0  0  0  0  0  0  0  0  0  0  0
    3.9605   17.9013   36.8251 H   0  0  0  0  0  0  0  0  0  0  0  0
   -0.0782   20.0183   39.8280 H   0  0  0  0  0  0  0  0  0  0  0  0
    1.0993   21.3104   40.2341 H   0  0  0  0  0  0  0  0  0  0  0  0
    3.2459   16.6232   38.7730 H   0  0  0  0  0  0  0  0  0  0  0  0
    1.9427   21.4035   38.2704 H   0  0  0  0  0  0  0  0  0  0  0  0
    0.9591   16.4451   42.4176 H   0  0  0  0  0  0  0  0  0  0  0  0
    2.3866   17.1964   42.7342 H   0  0  0  0  0  0  0  0  0  0  0  0
  2  5  2  0
  2 10  1  0
  3  6  1  0
  5  8  1  0
  6  4  1  0
  6 12  1  0
  6  1  1  0
  7  4  1  0
  8 11  2  0
  9 11  1  0
  9  7  1  0
 10  9  2  0
 11  3  1  0
 12  1  1  0
  1 13  1  0
  1 14  1  0
  2 15  1  0
  3 16  1  0
  4 17  1  0
  4 18  1  0
  5 19  1  0
  7 20  1  0
  7 21  1  0
  8 22  1  0
 10 23  1  0
 12 24  1  0
 12 25  1  0
M  END
>  <mol_id>  (47) 
2026-09-18-3war-s0-n100-refligand-0048

>  <rmsd_to_ref>  (47) 


$$$$

     RDKit          3D

 36 38  0  0  0  0  0  0  0  0999 V2000
    1.9850   21.6400   37.1490 N   0  0  0  0  0  4  0  0  0  0  0  0
    2.1410   20.5620   39.4160 C   0  0  0  0  0  0  0  0  0  0  0  0
    3.7690   17.3960   37.9020 C   0  0  0  0  0  0  0  0  0  0  0  0
    2.1720   16.5240   39.7480 C   0  0  0  0  0  0  0  0  0  0  0  0
    2.1590   21.5990   35.7840 O   0  0  0  0  0  0  0  0  0  0  0  0
    3.6150   16.0570   38.0250 C   0  0  0  0  0  0  0  0  0  0  0  0
    2.1840   20.5100   37.9110 C   0  0  0  0  0  0  0  0  0  0  0  0
    0.6830   17.6200   42.9240 C   0  0  0  0  0  0  0  0  0  0  0  0
    1.6790   22.5910   37.6920 O   0  0  0  0  0  1  0  0  0  0  0  0
    1.7150   14.6570   41.7800 O   0  0  0  0  0  0  0  0  0  0  0  0
    3.1470   18.3880   38.7020 C   0  0  0  0  0  0  0  0  0  0  0  0
    0.4900   19.0310   42.6730 C   0  0  0  0  0  0  0  0  0  0  0  0
    0.7550   15.4140   41.8550 C   0  0  0  0  0  0  0  0  0  0  0  0
    1.0240   19.6200   41.5360 C   0  0  0  0  0  0  0  0  0  0  0  0
    2.2970   17.8950   39.7410 C   0  0  0  0  0  0  0  0  0  0  0  0
    1.1000   16.8580   41.7800 C   0  0  0  0  0  0  0  0  0  0  0  0
   -0.5740   14.9800   41.9090 O   0  0  0  0  0  1  0  0  0  0  0  0
    2.8330   15.5440   39.0370 C   0  0  0  0  0  0  0  0  0  0  0  0
    1.6470   17.1420   40.6870 C   0  0  0  0  0  0  0  0  0  0  0  0
    1.6930   19.4660   40.3340 C   0  0  0  0  0  0  0  0  0  0  0  0
    1.4914   21.4172   39.6538 H   0  0  0  0  0  0  0  0  0  0  0  0
    3.2201   20.5477   39.6291 H   0  0  0  0  0  0  0  0  0  0  0  0
    4.4408   17.7484   37.1054 H   0  0  0  0  0  0  0  0  0  0  0  0
    1.9778   15.4874   39.4353 H   0  0  0  0  0  0  0  0  0  0  0  0
    4.1139   15.3785   37.3174 H   0  0  0  0  0  0  0  0  0  0  0  0
    1.4142   19.7873   37.6026 H   0  0  0  0  0  0  0  0  0  0  0  0
    3.2389   20.2708   37.7111 H   0  0  0  0  0  0  0  0  0  0  0  0
    1.4500   17.5128   43.7051 H   0  0  0  0  0  0  0  0  0  0  0  0
   -0.2976   17.2207   43.2224 H   0  0  0  0  0  0  0  0  0  0  0  0
    3.9385   18.9923   39.1693 H   0  0  0  0  0  0  0  0  0  0  0  0
    2.4961   18.9594   38.0239 H   0  0  0  0  0  0  0  0  0  0  0  0
   -0.5964   19.1995   42.6356 H   0  0  0  0  0  0  0  0  0  0  0  0
    1.0529   19.5084   43.4886 H   0  0  0  0  0  0  0  0  0  0  0  0
    0.8261   20.6976   41.6342 H   0  0  0  0  0  0  0  0  0  0  0  0
    3.4772   14.9813   39.7287 H   0  0  0  0  0  0  0  0  0  0  0  0
    2.0718   14.8988   38.5741 H   0  0  0  0  0  0  0  0  0  0  0  0
  1  9  1  0
  1  7  1  0
  2 20  1  0
  3  6  2  0
  3 11  1  0
  4 18  1  0
  4 19  1  0
  5  1  2  0
  6 18  1  0
  7  2  1  0
 10 13  2  0
 12  8  1  0
 13 17  1  0
 14 12  1  0
 15 11  1  0
 15  4  1  0
 15 20  1  0
 15 19  1  0
 16 13  1  0
 16  8  1  0
 19 16  2  0
 20 14  2  0
  2 21  1  0
  2 22  1  0
  3 23  1  0
  4 24  1  0
  6 25  1  0
  7 26  1  0
  7 27  1  0
  8 28  1  0
  8 29  1  0
 11 30  1  0
 11 31  1  0
 12 32  1  0
 12 33  1  0
 14 34  1  0
 18 35  1  0
 18 36  1  0
M  CHG  3   1   1   9  -1  17  -1
M  END
>  <mol_id>  (48) 
2026-09-18-3war-s0-n100-refligand-0049

>  <rmsd_to_ref>  (48) 


$$$$

     RDKit          3D

 16 17  0  0  0  0  0  0  0  0999 V2000
    2.6850   20.9270   36.8670 C   0  0  0  0  0  0  0  0  0  0  0  0
    0.4960   19.6060   42.0450 C   0  0  0  0  0  0  0  0  0  0  0  0
    1.1300   19.6770   40.7430 C   0  0  0  0  0  0  0  0  0  0  0  0
    1.0870   20.7730   40.0580 N   0  0  0  0  0  0  0  0  0  0  0  0
    3.1750   18.8030   38.0430 C   0  0  0  0  0  0  0  0  0  0  0  0
    1.7290   20.4650   38.9700 C   0  0  0  0  0  0  0  0  0  0  0  0
    3.3180   19.6900   36.9060 C   0  0  0  0  0  0  0  0  0  0  0  0
    2.3840   19.1980   39.0280 C   0  0  0  0  0  0  0  0  0  0  0  0
    1.9070   18.6820   40.1890 N   0  0  0  0  0  0  0  0  0  0  0  0
    1.8860   21.3420   37.9210 C   0  0  0  0  0  0  0  0  0  0  0  0
   -0.0270   19.4580   43.0240 N   0  0  0  0  0  0  0  0  0  0  0  0
    2.8192   21.5815   35.9931 H   0  0  0  0  0  0  0  0  0  0  0  0
    3.7032   17.8391   38.0858 H   0  0  0  0  0  0  0  0  0  0  0  0
    3.9412   19.3776   36.0551 H   0  0  0  0  0  0  0  0  0  0  0  0
    2.0875   17.7443   40.5750 H   0  0  0  0  0  0  0  0  0  0  0  0
    1.3991   22.3284   37.9191 H   0  0  0  0  0  0  0  0  0  0  0  0
  1  7  2  0
  1 10  1  0
  2 11  3  0
  3  2  1  0
  4  3  2  0
  5  8  2  0
  6  8  1  0
  6  4  1  0
  7  5  1  0
  8  9  1  0
  9  3  1  0
 10  6  2  0
  1 12  1  0
  5 13  1  0
  7 14  1  0
  9 15  1  0
 10 16  1  0
M  END
>  <mol_id>  (49) 
2026-09-18-3war-s0-n100-refligand-0050

>  <rmsd_to_ref>  (49) 


$$$$

     RDKit          3D

 14 14  0  0  0  0  0  0  0  0999 V2000
    2.3830   18.1560   40.2580 N   0  0  0  0  0  0  0  0  0  0  0  0
    2.9440   17.2320   39.5100 C   0  0  0  0  0  0  0  0  0  0  0  0
    2.1660   19.3580   39.7670 C   0  0  0  0  0  0  0  0  0  0  0  0
    3.2460   17.3240   38.2580 C   0  0  0  0  0  0  0  0  0  0  0  0
    3.0110   18.5690   37.6320 C   0  0  0  0  0  0  0  0  0  0  0  0
    1.6590   21.7830   38.3710 O   0  0  0  0  0  1  0  0  0  0  0  0
    1.4080   20.5120   40.8820 S   0  0  0  0  0  0  0  0  0  0  0  0
    2.2360   20.7940   37.7440 C   0  0  0  0  0  0  0  0  0  0  0  0
    2.4380   19.6250   38.3860 C   0  0  0  0  0  0  0  0  0  0  0  0
    2.4470   20.9480   36.5210 O   0  0  0  0  0  0  0  0  0  0  0  0
    2.1132   17.9395   41.2282 H   0  0  0  0  0  0  0  0  0  0  0  0
    3.1816   16.2781   40.0036 H   0  0  0  0  0  0  0  0  0  0  0  0
    3.6670   16.4721   37.7039 H   0  0  0  0  0  0  0  0  0  0  0  0
    3.2693   18.7173   36.5731 H   0  0  0  0  0  0  0  0  0  0  0  0
  2  1  1  0
  3  1  1  0
  3  7  2  0
  4  2  2  0
  5  4  1  0
  5  9  2  0
  8  6  1  0
  8  9  1  0
  9  3  1  0
 10  8  2  0
  1 11  1  0
  2 12  1  0
  4 13  1  0
  5 14  1  0
M  CHG  1   6  -1
M  END
>  <mol_id>  (50) 
2026-09-18-3war-s0-n100-refligand-0051

>  <rmsd_to_ref>  (50) 


$$$$

     RDKit          3D

 13 13  0  0  0  0  0  0  0  0999 V2000
    0.9610   21.5840   40.8530 Cl  0  0  0  0  0  0  0  0  0  0  0  0
    2.3690   19.4390   40.6250 C   0  0  0  0  0  0  0  0  0  0  0  0
    2.4150   17.9470   39.7970 S   0  0  0  0  0  0  0  0  0  0  0  0
    3.1580   20.0780   36.5460 O   0  0  0  0  0  0  0  0  0  0  0  0
    1.8210   20.5600   39.9940 C   0  0  0  0  0  0  0  0  0  0  0  0
    2.0900   20.8120   38.5390 C   0  0  0  0  0  0  0  0  0  0  0  0
    2.9360   18.3710   38.2070 C   0  0  0  0  0  0  0  0  0  0  0  0
    2.7010   19.8050   37.7010 C   0  0  0  0  0  0  0  0  0  0  0  0
    1.7907   19.2759   41.5464 H   0  0  0  0  0  0  0  0  0  0  0  0
    3.4306   19.7020   40.7427 H   0  0  0  0  0  0  0  0  0  0  0  0
    1.8165   21.7833   38.1012 H   0  0  0  0  0  0  0  0  0  0  0  0
    4.0198   18.1878   38.1637 H   0  0  0  0  0  0  0  0  0  0  0  0
    2.3056   17.7536   37.5502 H   0  0  0  0  0  0  0  0  0  0  0  0
  3  2  1  0
  4  8  2  0
  5  2  1  0
  5  1  1  0
  6  5  2  0
  7  3  1  0
  8  7  1  0
  8  6  1  0
  2  9  1  0
  2 10  1  0
  6 11  1  0
  7 12  1  0
  7 13  1  0
M  END
>  <mol_id>  (51) 
2026-09-18-3war-s0-n100-refligand-0052

>  <rmsd_to_ref>  (51) 


$$$$

     RDKit          3D

 37 40  0  0  0  0  0  0  0  0999 V2000
    3.6200   16.6950   38.7510 C   0  0  0  0  0  0  0  0  0  0  0  0
    0.2850   17.2650   42.3410 O   0  0  0  0  0  0  0  0  0  0  0  0
    3.4230   20.9660   35.2390 O   0  0  0  0  0  0  0  0  0  0  0  0
    0.9410   15.0560   41.1380 F   0  0  0  0  0  0  0  0  0  0  0  0
    1.7370   15.6300   40.3080 C   0  0  0  0  0  0  0  0  0  0  0  0
    2.0700   20.1320   39.4880 C   0  0  0  0  0  0  0  0  0  0  0  0
    2.3730   21.6810   35.4650 C   0  0  0  0  0  0  0  0  0  0  0  0
    2.6560   14.8460   39.4130 C   0  0  0  0  0  0  0  0  0  0  0  0
    2.0870   21.0120   38.4140 C   0  0  0  0  0  0  0  0  0  0  0  0
    3.2860   19.3760   37.8090 N   0  0  0  0  0  0  0  0  0  0  0  0
   -0.0040   19.3610   42.8700 N   0  0  0  0  0  0  0  0  0  0  0  0
    1.1590   18.6840   41.0120 C   0  0  0  0  0  0  0  0  0  0  0  0
    0.1840   20.7030   42.6210 C   0  0  0  0  0  0  0  0  0  0  0  0
    1.3920   19.9120   40.6520 C   0  0  0  0  0  0  0  0  0  0  0  0
    2.6530   18.9370   39.0470 C   0  0  0  0  0  0  0  0  0  0  0  0
    0.3850   18.4660   42.0870 C   0  0  0  0  0  0  0  0  0  0  0  0
    1.8080   22.3280   35.8110 O   0  0  0  0  0  0  0  0  0  0  0  0
    2.7620   17.5480   39.4000 C   0  0  0  0  0  0  0  0  0  0  0  0
    3.2860   20.6900   36.0380 C   0  0  0  0  0  0  0  0  0  0  0  0
    1.8680   17.2040   40.3750 C   0  0  0  0  0  0  0  0  0  0  0  0
    2.9070   20.4120   37.4330 C   0  0  0  0  0  0  0  0  0  0  0  0
    3.6470   15.3330   38.8380 N   0  0  0  0  0  0  0  0  0  0  0  0
    0.8870   20.8800   41.4890 C   0  0  0  0  0  0  0  0  0  0  0  0
    4.3662   17.1593   38.0895 H   0  0  0  0  0  0  0  0  0  0  0  0
    2.2090   21.9557   34.4125 H   0  0  0  0  0  0  0  0  0  0  0  0
    2.3029   21.1747   36.4390 H   0  0  0  0  0  0  0  0  0  0  0  0
    2.4400   13.7788   39.2570 H   0  0  0  0  0  0  0  0  0  0  0  0
    1.0691   21.1588   38.0238 H   0  0  0  0  0  0  0  0  0  0  0  0
    2.4686   22.0007   38.7088 H   0  0  0  0  0  0  0  0  0  0  0  0
    4.0002   18.8231   37.3139 H   0  0  0  0  0  0  0  0  0  0  0  0
   -0.4850   19.0828   43.7373 H   0  0  0  0  0  0  0  0  0  0  0  0
   -0.1894   21.5168   43.2600 H   0  0  0  0  0  0  0  0  0  0  0  0
    1.8361   22.2959   36.8001 H   0  0  0  0  0  0  0  0  0  0  0  0
    2.9572   19.6978   35.6953 H   0  0  0  0  0  0  0  0  0  0  0  0
    3.7629   21.6147   36.3952 H   0  0  0  0  0  0  0  0  0  0  0  0
    1.9735   19.9447   37.0863 H   0  0  0  0  0  0  0  0  0  0  0  0
    1.0816   21.9226   41.1973 H   0  0  0  0  0  0  0  0  0  0  0  0
  1 22  2  0
  1 18  1  0
  3  7  1  0
  3 19  1  0
  5 20  1  0
  5  4  1  0
  6 14  2  0
  7 17  1  0
  8  5  2  0
  9  6  1  0
 10 15  1  0
 12 16  1  0
 13 11  1  0
 14 12  1  0
 14 23  1  0
 15 18  2  0
 15  6  1  0
 16  2  2  0
 16 11  1  0
 18 20  1  0
 20 12  2  0
 21 19  1  0
 21 10  1  0
 21  9  1  0
 22  8  1  0
 23 13  2  0
  1 24  1  0
  7 25  1  0
  7 26  1  0
  8 27  1  0
  9 28  1  0
  9 29  1  0
 10 30  1  0
 11 31  1  0
 13 32  1  0
 17 33  1  0
 19 34  1  0
 19 35  1  0
 21 36  1  0
 23 37  1  0
M  END
>  <mol_id>  (52) 
2026-09-18-3war-s0-n100-refligand-0053

>  <rmsd_to_ref>  (52) 


$$$$

     RDKit          3D

 17 17  0  0  0  0  0  0  0  0999 V2000
    2.4690   16.5490   39.4440 C   0  0  0  0  0  0  0  0  0  0  0  0
    1.3160   21.1330   40.4830 O   0  0  0  0  0  0  0  0  0  0  0  0
    3.2950   20.2770   36.4080 O   0  0  0  0  0  0  0  0  0  0  0  0
    2.9420   18.4860   37.9280 C   0  0  0  0  0  0  0  0  0  0  0  0
    3.0230   15.8260   38.6540 O   0  0  0  0  0  0  0  0  0  0  0  0
    2.4710   18.0250   39.1700 C   0  0  0  0  0  0  0  0  0  0  0  0
    1.9760   16.0450   40.4320 O   0  0  0  0  0  1  0  0  0  0  0  0
    1.8530   18.6630   41.3320 O   0  0  0  0  0  0  0  0  0  0  0  0
    2.1870   20.7320   38.3910 C   0  0  0  0  0  0  0  0  0  0  0  0
    2.0950   18.9850   40.0730 C   0  0  0  0  0  0  0  0  0  0  0  0
    2.8460   19.7920   37.6150 C   0  0  0  0  0  0  0  0  0  0  0  0
    1.8050   20.2570   39.6240 C   0  0  0  0  0  0  0  0  0  0  0  0
    1.0281   20.8365   41.3826 H   0  0  0  0  0  0  0  0  0  0  0  0
    3.2134   21.2417   36.2009 H   0  0  0  0  0  0  0  0  0  0  0  0
    3.3887   17.7800   37.2124 H   0  0  0  0  0  0  0  0  0  0  0  0
    1.5818   19.3621   41.9784 H   0  0  0  0  0  0  0  0  0  0  0  0
    1.9883   21.7598   38.0532 H   0  0  0  0  0  0  0  0  0  0  0  0
  1  7  1  0
  3 11  1  0
  4  6  2  0
  5  1  2  0
  6  1  1  0
  6 10  1  0
  9 12  1  0
 10  8  1  0
 11  4  1  0
 11  9  2  0
 12 10  2  0
 12  2  1  0
  2 13  1  0
  3 14  1  0
  4 15  1  0
  8 16  1  0
  9 17  1  0
M  CHG  1   7  -1
M  END
>  <mol_id>  (53) 
2026-09-18-3war-s0-n100-refligand-0054

>  <rmsd_to_ref>  (53) 


$$$$

     RDKit          3D

 22 22  0  0  0  0  0  0  0  0999 V2000
    1.6110   17.9420   40.8020 C   0  0  0  0  0  0  0  0  0  0  0  0
    2.0810   20.4560   39.9120 C   0  0  0  0  0  0  0  0  0  0  0  0
    0.8050   18.3810   42.8670 C   0  0  0  0  0  0  0  0  0  0  0  0
    1.5320   20.3690   41.0880 C   0  0  0  0  0  0  0  0  0  0  0  0
    3.6260   19.7440   38.3170 O   0  0  0  0  0  0  0  0  0  0  0  0
    1.5410   18.7580   41.6280 C   0  0  0  0  0  0  0  0  0  0  0  0
    2.7700   19.3910   39.3370 C   0  0  0  0  0  0  0  0  0  0  0  0
    2.3420   20.7290   36.8550 O   0  0  0  0  0  1  0  0  0  0  0  0
    3.0680   19.6610   37.1160 C   0  0  0  0  0  0  0  0  0  0  0  0
    3.2960   18.5950   36.6110 O   0  0  0  0  0  0  0  0  0  0  0  0
    2.4800   18.2040   39.8910 C   0  0  0  0  0  0  0  0  0  0  0  0
    1.8829   16.9882   41.2778 H   0  0  0  0  0  0  0  0  0  0  0  0
    0.6292   17.8986   40.3079 H   0  0  0  0  0  0  0  0  0  0  0  0
    1.2713   20.7119   39.2128 H   0  0  0  0  0  0  0  0  0  0  0  0
    2.8870   21.1837   40.0875 H   0  0  0  0  0  0  0  0  0  0  0  0
    1.3916   18.6815   43.7477 H   0  0  0  0  0  0  0  0  0  0  0  0
   -0.1695   18.8909   42.8841 H   0  0  0  0  0  0  0  0  0  0  0  0
    0.6494   17.2922   42.8841 H   0  0  0  0  0  0  0  0  0  0  0  0
    2.0953   20.9924   41.7980 H   0  0  0  0  0  0  0  0  0  0  0  0
    0.4908   20.7176   41.0224 H   0  0  0  0  0  0  0  0  0  0  0  0
    2.5453   18.7728   42.0765 H   0  0  0  0  0  0  0  0  0  0  0  0
    3.0590   17.3460   39.5187 H   0  0  0  0  0  0  0  0  0  0  0  0
  1  6  1  0
  2  4  1  0
  4  6  1  0
  5  7  1  0
  6  3  1  0
  7 11  2  0
  7  2  1  0
  8  9  1  0
  9  5  1  0
 10  9  2  0
 11  1  1  0
  1 12  1  0
  1 13  1  0
  2 14  1  0
  2 15  1  0
  3 16  1  0
  3 17  1  0
  3 18  1  0
  4 19  1  0
  4 20  1  0
  6 21  1  0
 11 22  1  0
M  CHG  1   8  -1
M  END
>  <mol_id>  (54) 
2026-09-18-3war-s0-n100-refligand-0055

>  <rmsd_to_ref>  (54) 


$$$$

     RDKit          3D

 17 17  0  0  0  0  0  0  0  0999 V2000
    1.7180   20.6940   39.9000 C   0  0  0  0  0  0  0  0  0  0  0  0
    2.2730   20.5330   38.6340 C   0  0  0  0  0  0  0  0  0  0  0  0
    2.6590   19.2070   38.0540 C   0  0  0  0  0  0  0  0  0  0  0  0
    1.9240   19.6650   40.7570 C   0  0  0  0  0  0  0  0  0  0  0  0
    2.4550   18.4150   40.3600 C   0  0  0  0  0  0  0  0  0  0  0  0
    3.0130   19.0450   36.8630 O   0  0  0  0  0  0  0  0  0  0  0  0
    2.8130   18.2690   39.1950 C   0  0  0  0  0  0  0  0  0  0  0  0
    1.9790   21.4310   37.6290 O   0  0  0  0  0  0  0  0  0  0  0  0
    3.6880   17.4290   38.6560 O   0  0  0  0  0  0  0  0  0  0  0  0
    0.6324   20.8252   39.7811 H   0  0  0  0  0  0  0  0  0  0  0  0
    2.2209   21.5656   40.3443 H   0  0  0  0  0  0  0  0  0  0  0  0
    3.1864   20.8387   39.1653 H   0  0  0  0  0  0  0  0  0  0  0  0
    1.6650   19.8088   41.8164 H   0  0  0  0  0  0  0  0  0  0  0  0
    2.5453   17.5897   41.0817 H   0  0  0  0  0  0  0  0  0  0  0  0
    2.0208   17.9156   39.8714 H   0  0  0  0  0  0  0  0  0  0  0  0
    1.6971   22.2921   38.0279 H   0  0  0  0  0  0  0  0  0  0  0  0
    4.1790   16.9577   39.3750 H   0  0  0  0  0  0  0  0  0  0  0  0
  1  4  1  0
  2  8  1  0
  2  1  1  0
  3  2  1  0
  3  7  1  0
  5  4  2  0
  6  3  2  0
  7  9  1  0
  7  5  1  0
  1 10  1  0
  1 11  1  0
  2 12  1  0
  4 13  1  0
  5 14  1  0
  7 15  1  0
  8 16  1  0
  9 17  1  0
M  END
>  <mol_id>  (55) 
2026-09-18-3war-s0-n100-refligand-0056

>  <rmsd_to_ref>  (55) 


$$$$

     RDKit          3D

 40 42  0  0  0  0  0  0  0  0999 V2000
    3.0980   18.7020   37.8300 N   0  0  0  0  0  0  0  0  0  0  0  0
    3.7360   14.0650   36.8680 C   0  0  0  0  0  0  0  0  0  0  0  0
    3.9060   16.5060   37.3170 N   0  0  0  0  0  0  0  0  0  0  0  0
    3.7180   15.2950   37.6220 N   0  0  0  0  0  0  0  0  0  0  0  0
    3.1270   19.1960   36.8440 C   0  0  0  0  0  0  0  0  0  0  0  0
    0.9220   20.3530   40.7910 C   0  0  0  0  0  0  0  0  0  0  0  0
   -0.0960   18.7140   43.4670 C   0  0  0  0  0  0  0  0  0  0  0  0
    2.9380   20.4610   36.7290 O   0  0  0  0  0  0  0  0  0  0  0  0
   -0.2890   20.0240   42.9860 C   0  0  0  0  0  0  0  0  0  0  0  0
   -0.7140   18.2120   44.7210 C   0  0  0  0  0  0  0  0  0  0  0  0
    1.4520   19.1490   40.6400 C   0  0  0  0  0  0  0  0  0  0  0  0
    1.3090   18.0330   41.5240 C   0  0  0  0  0  0  0  0  0  0  0  0
   -1.0790   20.7770   43.7400 O   0  0  0  0  0  0  0  0  0  0  0  0
    0.6120   17.7150   42.7810 C   0  0  0  0  0  0  0  0  0  0  0  0
    2.1380   20.2780   38.8480 C   0  0  0  0  0  0  0  0  0  0  0  0
    3.3750   17.4380   38.1260 C   0  0  0  0  0  0  0  0  0  0  0  0
    2.4940   20.9440   37.7800 C   0  0  0  0  0  0  0  0  0  0  0  0
    3.0310   16.6450   39.1890 C   0  0  0  0  0  0  0  0  0  0  0  0
    3.3540   15.5060   38.7970 C   0  0  0  0  0  0  0  0  0  0  0  0
    1.3870   21.0260   39.7440 C   0  0  0  0  0  0  0  0  0  0  0  0
    2.1720   19.1520   39.4890 N   0  0  0  0  0  0  0  0  0  0  0  0
    0.2150   20.7550   41.9120 C   0  0  0  0  0  0  0  0  0  0  0  0
    3.7485   13.2105   37.5606 H   0  0  0  0  0  0  0  0  0  0  0  0
    2.8386   14.0102   36.2343 H   0  0  0  0  0  0  0  0  0  0  0  0
    4.6347   14.0365   36.2343 H   0  0  0  0  0  0  0  0  0  0  0  0
    3.3212   18.5945   35.9437 H   0  0  0  0  0  0  0  0  0  0  0  0
   -0.1870   18.6401   45.5864 H   0  0  0  0  0  0  0  0  0  0  0  0
   -1.7726   18.5092   44.7526 H   0  0  0  0  0  0  0  0  0  0  0  0
   -0.6401   17.1149   44.7526 H   0  0  0  0  0  0  0  0  0  0  0  0
    1.8825   17.1672   41.1615 H   0  0  0  0  0  0  0  0  0  0  0  0
   -1.2698   21.7122   43.4770 H   0  0  0  0  0  0  0  0  0  0  0  0
    0.6461   16.6919   43.1836 H   0  0  0  0  0  0  0  0  0  0  0  0
    3.2692   21.6446   38.1238 H   0  0  0  0  0  0  0  0  0  0  0  0
    1.5045   21.2719   37.4287 H   0  0  0  0  0  0  0  0  0  0  0  0
    3.5915   16.9274   40.0924 H   0  0  0  0  0  0  0  0  0  0  0  0
    1.9703   16.7259   39.4688 H   0  0  0  0  0  0  0  0  0  0  0  0
    2.4809   14.8599   38.9710 H   0  0  0  0  0  0  0  0  0  0  0  0
    4.2764   15.3158   39.3654 H   0  0  0  0  0  0  0  0  0  0  0  0
    1.1909   22.0985   39.5979 H   0  0  0  0  0  0  0  0  0  0  0  0
    0.0176   21.8359   41.9633 H   0  0  0  0  0  0  0  0  0  0  0  0
  1 16  1  0
  2  4  1  0
  3  4  1  0
  3 16  2  0
  4 19  1  0
  5  1  2  3
  6 22  2  0
  7 10  1  0
  8  5  1  0
  8 17  1  0
  9  7  2  0
  9 13  1  0
 11  6  1  0
 11 12  1  0
 12 14  2  0
 14  7  1  0
 15 21  1  0
 15 20  2  0
 16 18  1  0
 17 15  1  0
 19 18  1  0
 20  6  1  0
 21 11  2  0
 22  9  1  0
  2 23  1  0
  2 24  1  0
  2 25  1  0
  5 26  1  0
 10 27  1  0
 10 28  1  0
 10 29  1  0
 12 30  1  0
 13 31  1  0
 14 32  1  0
 17 33  1  0
 17 34  1  0
 18 35  1  0
 18 36  1  0
 19 37  1  0
 19 38  1  0
 20 39  1  0
 22 40  1  0
M  END
>  <mol_id>  (56) 
2026-09-18-3war-s0-n100-refligand-0057

>  <rmsd_to_ref>  (56) 


$$$$

     RDKit          3D

 43 47  0  0  0  0  0  0  0  0999 V2000
    1.6640   17.3030   40.9260 C   0  0  0  0  0  0  0  0  0  0  0  0
    1.8590   21.3170   36.8930 C   0  0  0  0  0  0  0  0  0  0  0  0
    1.7360   19.5330   40.1590 C   0  0  0  0  0  0  0  0  0  0  0  0
    3.9170   20.9020   35.0740 C   0  0  0  0  0  0  0  0  0  0  0  0
    2.6630   14.9890   39.7750 C   0  0  0  0  0  0  0  0  0  0  0  0
    1.5110   20.8170   40.0600 N   0  0  0  0  0  0  0  0  0  0  0  0
    3.4730   16.3300   37.9000 C   0  0  0  0  0  0  0  0  0  0  0  0
    3.4400   13.9390   37.8570 N   0  0  0  0  0  0  0  0  0  0  0  0
    2.4440   18.7730   39.1920 N   0  0  0  0  0  0  0  0  0  0  0  0
    0.3330   20.7040   42.0820 C   0  0  0  0  0  0  0  0  0  0  0  0
    2.1260   14.9880   41.0390 N   0  0  0  0  0  0  0  0  0  0  0  0
   -0.3240   21.4240   43.0690 N   0  0  0  0  0  0  0  0  0  0  0  0
    1.1810   18.7900   41.1690 C   0  0  0  0  0  0  0  0  0  0  0  0
    0.8160   21.3690   40.9570 C   0  0  0  0  0  0  0  0  0  0  0  0
    3.0510   13.9150   39.1260 N   0  0  0  0  0  0  0  0  0  0  0  0
    1.8470   21.9880   35.6570 C   0  0  0  0  0  0  0  0  0  0  0  0
    2.3570   17.4580   39.7090 C   0  0  0  0  0  0  0  0  0  0  0  0
    1.6200   16.1060   41.5660 C   0  0  0  0  0  0  0  0  0  0  0  0
    3.0320   19.8360   38.5350 C   0  0  0  0  0  0  0  0  0  0  0  0
    3.6490   15.1320   37.2250 C   0  0  0  0  0  0  0  0  0  0  0  0
    2.9160   21.8320   34.7950 C   0  0  0  0  0  0  0  0  0  0  0  0
    0.4820   19.3440   42.1470 C   0  0  0  0  0  0  0  0  0  0  0  0
    2.8060   16.1820   39.1400 C   0  0  0  0  0  0  0  0  0  0  0  0
    3.8700   20.2240   36.3420 C   0  0  0  0  0  0  0  0  0  0  0  0
    2.8880   20.3950   37.1700 C   0  0  0  0  0  0  0  0  0  0  0  0
    1.0721   21.5102   37.6369 H   0  0  0  0  0  0  0  0  0  0  0  0
    4.7167   20.6936   34.3480 H   0  0  0  0  0  0  0  0  0  0  0  0
    4.4619   16.7741   38.0865 H   0  0  0  0  0  0  0  0  0  0  0  0
    2.8431   16.9714   37.2660 H   0  0  0  0  0  0  0  0  0  0  0  0
   -0.4164   22.4464   42.9854 H   0  0  0  0  0  0  0  0  0  0  0  0
   -0.7195   20.9362   43.8854 H   0  0  0  0  0  0  0  0  0  0  0  0
    0.5777   22.4369   40.8442 H   0  0  0  0  0  0  0  0  0  0  0  0
    3.0536   13.0135   39.6242 H   0  0  0  0  0  0  0  0  0  0  0  0
    0.9972   22.6291   35.3798 H   0  0  0  0  0  0  0  0  0  0  0  0
    2.1397   16.2535   42.5242 H   0  0  0  0  0  0  0  0  0  0  0  0
    0.5418   15.8883   41.5596 H   0  0  0  0  0  0  0  0  0  0  0  0
    2.7973   20.6930   39.1835 H   0  0  0  0  0  0  0  0  0  0  0  0
    3.9916   19.3322   38.3471 H   0  0  0  0  0  0  0  0  0  0  0  0
    3.9601   15.1421   36.1699 H   0  0  0  0  0  0  0  0  0  0  0  0
    2.9776   22.4449   33.8837 H   0  0  0  0  0  0  0  0  0  0  0  0
    0.0470   18.7481   42.9628 H   0  0  0  0  0  0  0  0  0  0  0  0
    3.7654   16.2840   39.6683 H   0  0  0  0  0  0  0  0  0  0  0  0
    4.6890   19.5427   36.6158 H   0  0  0  0  0  0  0  0  0  0  0  0
  1 13  1  0
  1 18  1  0
  2 25  2  0
  3 13  1  0
  4 24  2  0
  5 11  2  0
  6  3  2  0
  6 14  1  0
  8 15  1  0
  9 17  1  0
  9  3  1  0
 10 22  1  0
 10 12  1  0
 11 18  1  0
 13 22  2  0
 14 10  2  0
 15  5  1  0
 16  2  1  0
 17  1  2  0
 19  9  1  0
 20  8  2  0
 20  7  1  0
 21  4  1  0
 21 16  2  0
 23  7  1  0
 23 17  1  0
 23  5  1  0
 24 25  1  0
 25 19  1  0
  2 26  1  0
  4 27  1  0
  7 28  1  0
  7 29  1  0
 12 30  1  0
 12 31  1  0
 14 32  1  0
 15 33  1  0
 16 34  1  0
 18 35  1  0
 18 36  1  0
 19 37  1  0
 19 38  1  0
 20 39  1  0
 21 40  1  0
 22 41  1  0
 23 42  1  0
 24 43  1  0
M  END
>  <mol_id>  (57) 
2026-09-18-3war-s0-n100-refligand-0058

>  <rmsd_to_ref>  (57) 


$$$$

     RDKit          3D

 32 33  0  0  0  0  0  0  0  0999 V2000
    1.0920   18.6910   41.3600 C   0  0  0  0  0  0  0  0  0  0  0  0
    3.1740   21.0410   36.1670 O   0  0  0  0  0  0  0  0  0  0  0  0
    0.4430   20.9500   41.8990 C   0  0  0  0  0  0  0  0  0  0  0  0
    2.8600   20.2470   37.1050 C   0  0  0  0  0  0  0  0  0  0  0  0
    0.1100   21.8250   42.4940 N   0  0  0  0  0  0  0  0  0  0  0  0
    3.0250   16.5460   38.8080 C   0  0  0  0  0  0  0  0  0  0  0  0
    3.6100   17.8100   36.8920 N   0  0  0  0  0  0  0  0  0  0  0  0
    2.2900   20.2570   38.2860 O   0  0  0  0  0  0  0  0  0  0  0  0
    1.2920   19.5540   40.2800 C   0  0  0  0  0  0  0  0  0  0  0  0
    3.5230   16.7070   37.6260 C   0  0  0  0  0  0  0  0  0  0  0  0
    3.2260   19.0230   37.3140 C   0  0  0  0  0  0  0  0  0  0  0  0
    2.5800   17.8850   39.1640 C   0  0  0  0  0  0  0  0  0  0  0  0
    2.2500   19.1410   39.1610 C   0  0  0  0  0  0  0  0  0  0  0  0
    1.4380   15.1620   39.6210 O   0  0  0  0  0  0  0  0  0  0  0  0
    3.2380   13.7760   40.0370 C   0  0  0  0  0  0  0  0  0  0  0  0
    2.8420   15.2560   39.6390 C   0  0  0  0  0  0  0  0  0  0  0  0
    0.2310   19.5700   42.2140 C   0  0  0  0  0  0  0  0  0  0  0  0
    1.1760   21.0260   40.4330 S   0  0  0  0  0  0  0  0  0  0  0  0
    2.0370   18.4307   41.8591 H   0  0  0  0  0  0  0  0  0  0  0  0
    0.6596   17.7119   41.1063 H   0  0  0  0  0  0  0  0  0  0  0  0
    0.3200   22.7793   42.1683 H   0  0  0  0  0  0  0  0  0  0  0  0
    0.2852   19.2958   39.9199 H   0  0  0  0  0  0  0  0  0  0  0  0
    3.9342   15.7988   37.1610 H   0  0  0  0  0  0  0  0  0  0  0  0
    4.0797   19.2308   37.9758 H   0  0  0  0  0  0  0  0  0  0  0  0
    2.1831   18.7161   37.1463 H   0  0  0  0  0  0  0  0  0  0  0  0
    1.0969   15.1392   40.5501 H   0  0  0  0  0  0  0  0  0  0  0  0
    3.2623   13.6851   41.1330 H   0  0  0  0  0  0  0  0  0  0  0  0
    2.4958   13.0751   39.6273 H   0  0  0  0  0  0  0  0  0  0  0  0
    4.2311   13.5394   39.6273 H   0  0  0  0  0  0  0  0  0  0  0  0
    3.8081   15.5125   40.0983 H   0  0  0  0  0  0  0  0  0  0  0  0
   -0.8256   19.3186   42.0399 H   0  0  0  0  0  0  0  0  0  0  0  0
    0.4952   19.4046   43.2689 H   0  0  0  0  0  0  0  0  0  0  0  0
  1 17  1  0
  2  4  2  0
  3 17  1  0
  3  5  2  3
  4 11  1  0
  4  8  1  0
  6 12  2  0
  6 16  1  0
  7 11  1  0
  7 10  2  0
  8 13  1  0
  9 13  1  0
  9 18  1  0
  9  1  1  0
 10  6  1  0
 13 12  2  0
 14 16  1  0
 16 15  1  0
 18  3  1  0
  1 19  1  0
  1 20  1  0
  5 21  1  0
  9 22  1  0
 10 23  1  0
 11 24  1  0
 11 25  1  0
 14 26  1  0
 15 27  1  0
 15 28  1  0
 15 29  1  0
 16 30  1  0
 17 31  1  0
 17 32  1  0
M  END
>  <mol_id>  (58) 
2026-09-18-3war-s0-n100-refligand-0059

>  <rmsd_to_ref>  (58) 


$$$$

     RDKit          3D

 47 49  0  0  0  0  0  0  0  0999 V2000
    0.7270   14.7830   41.1500 C   0  0  0  0  0  0  0  0  0  0  0  0
    1.5550   15.5790   40.5310 C   0  0  0  0  0  0  0  0  0  0  0  0
    2.2480   15.4870   39.0120 S   0  0  0  0  0  0  0  0  0  0  0  0
    3.1030   16.8340   38.8900 C   0  0  0  0  0  0  0  0  0  0  0  0
    3.9090   20.1040   35.6580 C   0  0  0  0  0  0  0  0  0  0  0  0
   -0.1760   18.2390   43.5670 C   0  0  0  0  0  0  0  0  0  0  0  0
    3.6040   17.0860   37.8700 O   0  0  0  0  0  0  0  0  0  0  0  0
    3.5260   22.1810   34.3400 O   0  0  0  0  0  0  0  0  0  0  0  0
    0.2100   15.3920   42.2700 O   0  0  0  0  0  1  0  0  0  0  0  0
    2.2950   21.8760   36.3730 C   0  0  0  0  0  0  0  0  0  0  0  0
    2.7900   19.2970   39.1700 C   0  0  0  0  0  0  0  0  0  0  0  0
    0.4110   13.5670   41.1920 O   0  0  0  0  0  0  0  0  0  0  0  0
    3.7190   19.3670   36.8080 C   0  0  0  0  0  0  0  0  0  0  0  0
    1.7360   19.6530   39.8640 C   0  0  0  0  0  0  0  0  0  0  0  0
    0.4050   19.8590   41.6240 C   0  0  0  0  0  0  0  0  0  0  0  0
    3.8060   19.4760   40.0390 C   0  0  0  0  0  0  0  0  0  0  0  0
    3.2510   21.3840   35.4340 C   0  0  0  0  0  0  0  0  0  0  0  0
    2.8960   19.9570   37.9180 C   0  0  0  0  0  0  0  0  0  0  0  0
    2.9010   16.8410   40.1770 C   0  0  0  0  0  0  0  0  0  0  0  0
    2.1570   21.2130   37.6250 C   0  0  0  0  0  0  0  0  0  0  0  0
    1.1180   20.8210   39.7890 C   0  0  0  0  0  0  0  0  0  0  0  0
    0.0280   20.6500   43.7530 O   0  0  0  0  0  0  0  0  0  0  0  0
    0.2490   21.1310   40.8850 C   0  0  0  0  0  0  0  0  0  0  0  0
    1.0720   19.0070   41.1740 N   0  0  0  0  0  0  0  0  0  0  0  0
    1.2490   21.8000   38.6440 O   0  0  0  0  0  0  0  0  0  0  0  0
   -0.3850   19.6090   42.9170 C   0  0  0  0  0  0  0  0  0  0  0  0
    2.1110   16.6510   40.9140 N   0  0  0  0  0  4  0  0  0  0  0  0
    2.4043   14.9991   40.9213 H   0  0  0  0  0  0  0  0  0  0  0  0
    4.5819   19.7109   34.8817 H   0  0  0  0  0  0  0  0  0  0  0  0
   -0.1924   18.3462   44.6616 H   0  0  0  0  0  0  0  0  0  0  0  0
   -0.9806   17.5577   43.2532 H   0  0  0  0  0  0  0  0  0  0  0  0
    0.7951   17.8286   43.2532 H   0  0  0  0  0  0  0  0  0  0  0  0
    3.0555   23.0446   34.2259 H   0  0  0  0  0  0  0  0  0  0  0  0
    1.6754   22.7527   36.1331 H   0  0  0  0  0  0  0  0  0  0  0  0
    2.7611   18.2544   38.8205 H   0  0  0  0  0  0  0  0  0  0  0  0
    4.1619   18.3654   36.9108 H   0  0  0  0  0  0  0  0  0  0  0  0
    3.4242   19.4087   41.0684 H   0  0  0  0  0  0  0  0  0  0  0  0
    4.5670   18.6981   39.8786 H   0  0  0  0  0  0  0  0  0  0  0  0
    4.2553   20.4671   39.8786 H   0  0  0  0  0  0  0  0  0  0  0  0
    3.6834   16.1477   40.5195 H   0  0  0  0  0  0  0  0  0  0  0  0
    2.7054   17.9235   40.1833 H   0  0  0  0  0  0  0  0  0  0  0  0
   -0.0804   20.3768   44.6984 H   0  0  0  0  0  0  0  0  0  0  0  0
   -0.3455   22.0296   41.1067 H   0  0  0  0  0  0  0  0  0  0  0  0
    1.2032   18.0529   41.5393 H   0  0  0  0  0  0  0  0  0  0  0  0
   -1.4654   19.5946   42.7105 H   0  0  0  0  0  0  0  0  0  0  0  0
    1.4329   17.4262   40.9256 H   0  0  0  0  0  0  0  0  0  0  0  0
    2.4855   16.5719   41.8703 H   0  0  0  0  0  0  0  0  0  0  0  0
  1 12  2  0
  1  9  1  0
  2 27  1  0
  2  1  1  0
  3  2  1  0
  4  3  1  0
  4 19  1  0
  5 13  2  0
  7  4  2  0
  8 17  1  0
 10 20  1  0
 11 14  1  0
 11 16  1  0
 13 18  1  0
 14 24  1  0
 15 26  1  0
 17  5  1  0
 17 10  2  0
 18 11  1  0
 19 27  1  0
 20 18  2  0
 20 25  1  0
 21 14  2  0
 21 23  1  0
 23 15  2  0
 24 15  1  0
 25 21  1  0
 26  6  1  0
 26 22  1  0
  2 28  1  0
  5 29  1  0
  6 30  1  0
  6 31  1  0
  6 32  1  0
  8 33  1  0
 10 34  1  0
 11 35  1  0
 13 36  1  0
 16 37  1  0
 16 38  1  0
 16 39  1  0
 19 40  1  0
 19 41  1  0
 22 42  1  0
 23 43  1  0
 24 44  1  0
 26 45  1  0
 27 46  1  0
 27 47  1  0
M  CHG  2   9  -1  27   1
M  END
>  <mol_id>  (59) 
2026-09-18-3war-s0-n100-refligand-0060

>  <rmsd_to_ref>  (59) 


$$$$

     RDKit          3D

 29 30  0  0  0  0  0  0  0  0999 V2000
    0.4420   18.8790   42.4000 C   0  0  0  0  0  0  0  0  0  0  0  0
    4.0590   17.7210   38.4530 C   0  0  0  0  0  0  0  0  0  0  0  0
    0.0280   17.8350   43.1050 N   0  0  0  0  0  0  0  0  0  0  0  0
    1.4410   17.1790   40.9320 C   0  0  0  0  0  0  0  0  0  0  0  0
    1.4430   20.9140   40.7480 C   0  0  0  0  0  0  0  0  0  0  0  0
    2.2170   20.5520   37.4440 N   0  0  0  0  0  0  0  0  0  0  0  0
    1.1800   18.5450   41.2300 C   0  0  0  0  0  0  0  0  0  0  0  0
    2.5940   19.0840   39.6440 N   0  0  0  0  0  0  0  0  0  0  0  0
    1.7090   19.5100   40.4980 C   0  0  0  0  0  0  0  0  0  0  0  0
    2.9320   16.8210   38.4090 C   0  0  0  0  0  0  0  0  0  0  0  0
    3.6280   19.1280   38.8800 C   0  0  0  0  0  0  0  0  0  0  0  0
    3.4330   19.9220   37.6390 O   0  0  0  0  0  0  0  0  0  0  0  0
    1.9920   21.4030   36.4650 N   0  0  0  0  0  0  0  0  0  0  0  0
    2.1000   16.7480   39.6450 C   0  0  0  0  0  0  0  0  0  0  0  0
    0.2330   20.1820   42.6650 N   0  0  0  0  0  0  0  0  0  0  0  0
    0.6650   21.1690   41.8370 C   0  0  0  0  0  0  0  0  0  0  0  0
    4.5156   17.7734   37.4536 H   0  0  0  0  0  0  0  0  0  0  0  0
    4.7811   17.3392   39.1897 H   0  0  0  0  0  0  0  0  0  0  0  0
    0.2557   16.8801   42.7933 H   0  0  0  0  0  0  0  0  0  0  0  0
   -0.5212   17.9790   43.9644 H   0  0  0  0  0  0  0  0  0  0  0  0
    1.1527   16.4108   41.6646 H   0  0  0  0  0  0  0  0  0  0  0  0
    1.8402   21.7138   40.1057 H   0  0  0  0  0  0  0  0  0  0  0  0
    1.5242   19.7987   37.3280 H   0  0  0  0  0  0  0  0  0  0  0  0
    2.2645   18.1223   39.4784 H   0  0  0  0  0  0  0  0  0  0  0  0
    2.6997   16.2231   37.5154 H   0  0  0  0  0  0  0  0  0  0  0  0
    4.3979   19.6205   39.4922 H   0  0  0  0  0  0  0  0  0  0  0  0
    1.7487   22.3231   36.8590 H   0  0  0  0  0  0  0  0  0  0  0  0
    2.8387   21.4908   35.8851 H   0  0  0  0  0  0  0  0  0  0  0  0
    0.3770   22.2084   42.0531 H   0  0  0  0  0  0  0  0  0  0  0  0
  1 15  2  0
  1  3  1  0
  2 11  1  0
  4  7  1  0
  5 16  2  0
  6 12  1  0
  7  1  1  0
  8  9  1  0
  9  5  1  0
  9  7  2  0
 10  2  1  0
 10 14  2  0
 11 12  1  0
 11  8  1  0
 13  6  1  0
 14  4  2  0
 16 15  1  0
  2 17  1  0
  2 18  1  0
  3 19  1  0
  3 20  1  0
  4 21  1  0
  5 22  1  0
  6 23  1  0
  8 24  1  0
 10 25  1  0
 11 26  1  0
 13 27  1  0
 13 28  1  0
 16 29  1  0
M  END
>  <mol_id>  (60) 
2026-09-18-3war-s0-n100-refligand-0061

>  <rmsd_to_ref>  (60) 


$$$$

     RDKit          3D

 39 42  0  0  0  0  0  0  0  0999 V2000
    2.8250   18.6750   37.9300 C   0  0  0  0  0  0  0  0  0  0  0  0
    0.0360   19.9470   42.6120 C   0  0  0  0  0  0  0  0  0  0  0  0
    3.0030   16.3600   38.5050 C   0  0  0  0  0  0  0  0  0  0  0  0
    3.0640   17.4410   37.5960 C   0  0  0  0  0  0  0  0  0  0  0  0
    0.3750   15.3260   42.5370 C   0  0  0  0  0  0  0  0  0  0  0  0
    1.3250   18.4830   41.1230 C   0  0  0  0  0  0  0  0  0  0  0  0
    2.4460   18.9230   39.2350 N   0  0  0  0  0  0  0  0  0  0  0  0
   -0.6260   21.1520   42.9510 N   0  0  0  0  0  0  0  0  0  0  0  0
    2.0310   18.0600   40.0770 C   0  0  0  0  0  0  0  0  0  0  0  0
    1.6570   21.7550   37.9240 C   0  0  0  0  0  0  0  0  0  0  0  0
   -0.2550   18.8910   43.3720 N   0  0  0  0  0  0  0  0  0  0  0  0
    2.8400   19.8140   37.1670 C   0  0  0  0  0  0  0  0  0  0  0  0
    2.7150   21.4790   35.7580 C   0  0  0  0  0  0  0  0  0  0  0  0
    0.9440   19.7710   41.5420 C   0  0  0  0  0  0  0  0  0  0  0  0
    0.1260   17.7300   42.9990 C   0  0  0  0  0  0  0  0  0  0  0  0
    1.5190   20.9980   40.9240 C   0  0  0  0  0  0  0  0  0  0  0  0
    2.6280   14.1550   38.0230 O   0  0  0  0  0  1  0  0  0  0  0  0
    1.8630   22.2150   36.6130 C   0  0  0  0  0  0  0  0  0  0  0  0
    3.3490   15.1260   37.9240 C   0  0  0  0  0  0  0  0  0  0  0  0
   -0.4130   16.2070   43.7440 S   0  0  0  0  0  0  0  0  0  0  0  0
    2.3320   16.6980   39.7030 C   0  0  0  0  0  0  0  0  0  0  0  0
    3.2460   20.2940   36.0080 N   0  0  0  0  0  0  0  0  0  0  0  0
    3.0330   22.0920   34.6180 F   0  0  0  0  0  0  0  0  0  0  0  0
    1.0490   16.0830   41.7340 O   0  0  0  0  0  0  0  0  0  0  0  0
    2.2000   20.7620   37.9130 O   0  0  0  0  0  0  0  0  0  0  0  0
    0.8240   17.3830   41.9360 C   0  0  0  0  0  0  0  0  0  0  0  0
    4.3210   15.2180   37.0390 O   0  0  0  0  0  0  0  0  0  0  0  0
    3.3278   17.2269   36.5498 H   0  0  0  0  0  0  0  0  0  0  0  0
    1.0648   14.6135   43.0130 H   0  0  0  0  0  0  0  0  0  0  0  0
   -0.3934   14.8085   41.9439 H   0  0  0  0  0  0  0  0  0  0  0  0
   -0.4487   22.0079   42.4061 H   0  0  0  0  0  0  0  0  0  0  0  0
   -1.2848   21.1726   43.7425 H   0  0  0  0  0  0  0  0  0  0  0  0
    1.1095   22.2355   38.7482 H   0  0  0  0  0  0  0  0  0  0  0  0
    1.8640   20.9924   35.2590 H   0  0  0  0  0  0  0  0  0  0  0  0
    1.8432   21.6898   41.7154 H   0  0  0  0  0  0  0  0  0  0  0  0
    2.3825   20.7241   40.3001 H   0  0  0  0  0  0  0  0  0  0  0  0
    0.7560   21.4864   40.3001 H   0  0  0  0  0  0  0  0  0  0  0  0
    1.3700   23.1319   36.2577 H   0  0  0  0  0  0  0  0  0  0  0  0
    2.0256   15.8872   40.3803 H   0  0  0  0  0  0  0  0  0  0  0  0
  1  7  1  0
  2  8  1  0
  2 11  2  0
  3 21  2  0
  4  1  2  0
  4  3  1  0
  5 20  1  0
  6 14  2  0
  6 26  1  0
  7  9  2  0
  9  6  1  0
 12 25  1  0
 12  1  1  0
 13 23  1  0
 13 22  1  0
 13 18  1  0
 14  2  1  0
 15 11  1  0
 15 20  1  0
 16 14  1  0
 18 10  2  0
 19 17  1  0
 19  3  1  0
 21  9  1  0
 22 12  2  0
 24 26  1  0
 24  5  1  0
 25 10  1  0
 26 15  2  0
 27 19  2  0
  4 28  1  0
  5 29  1  0
  5 30  1  0
  8 31  1  0
  8 32  1  0
 10 33  1  0
 13 34  1  0
 16 35  1  0
 16 36  1  0
 16 37  1  0
 18 38  1  0
 21 39  1  0
M  CHG  1  17  -1
M  END
>  <mol_id>  (61) 
2026-09-18-3war-s0-n100-refligand-0062

>  <rmsd_to_ref>  (61) 


$$$$

     RDKit          3D

 48 50  0  0  0  0  0  0  0  0999 V2000
    4.1170   12.9290   37.1660 N   0  0  0  0  0  0  0  0  0  0  0  0
   -0.3740   18.9940   43.5590 C   0  0  0  0  0  0  0  0  0  0  0  0
    3.7620   14.1880   37.6500 C   0  0  0  0  0  0  0  0  0  0  0  0
    3.0110   14.3350   38.7650 C   0  0  0  0  0  0  0  0  0  0  0  0
    3.8670   20.8050   36.0660 N   0  0  0  0  0  0  0  0  0  0  0  0
    0.8170   19.6780   41.3830 C   0  0  0  0  0  0  0  0  0  0  0  0
   -0.4670   21.0050   42.9110 N   0  0  0  0  0  0  0  0  0  0  0  0
    2.8230   21.4410   36.4310 C   0  0  0  0  0  0  0  0  0  0  0  0
    3.0690   16.6650   38.5020 C   0  0  0  0  0  0  0  0  0  0  0  0
    2.7790   18.1240   38.8040 N   0  0  0  0  0  0  0  0  0  0  0  0
   -1.1150   20.8370   44.2100 N   0  0  0  0  0  0  0  0  0  0  0  0
    1.2950   18.4540   41.2580 N   0  0  0  0  0  4  0  0  0  0  0  0
    2.1800   20.3270   38.6130 C   0  0  0  0  0  0  0  0  0  0  0  0
    3.9290   12.8190   35.8710 O   0  0  0  0  0  0  0  0  0  0  0  0
   -0.2960   17.8010   43.5400 N   0  0  0  0  0  0  0  0  0  0  0  0
    1.9220   18.6830   40.2050 C   0  0  0  0  0  0  0  0  0  0  0  0
    2.3520   19.1040   39.1260 C   0  0  0  0  0  0  0  0  0  0  0  0
   -0.9640   19.6120   44.5230 N   0  0  0  0  0  0  0  0  0  0  0  0
    0.9350   20.7020   40.5410 C   0  0  0  0  0  0  0  0  0  0  0  0
    1.5000   21.0870   39.4650 C   0  0  0  0  0  0  0  0  0  0  0  0
    4.2200   15.2590   36.9310 C   0  0  0  0  0  0  0  0  0  0  0  0
    3.8260   16.4960   37.3360 C   0  0  0  0  0  0  0  0  0  0  0  0
    2.7450   15.6060   39.2150 C   0  0  0  0  0  0  0  0  0  0  0  0
    2.3390   22.3440   35.7680 O   0  0  0  0  0  0  0  0  0  0  0  0
    2.0880   20.7270   37.3650 O   0  0  0  0  0  0  0  0  0  0  0  0
    3.9340   17.5780   36.5140 O   0  0  0  0  0  0  0  0  0  0  0  0
    0.0820   19.8760   42.5790 C   0  0  0  0  0  0  0  0  0  0  0  0
    4.4853   12.1707   37.7578 H   0  0  0  0  0  0  0  0  0  0  0  0
    2.6215   13.4564   39.3001 H   0  0  0  0  0  0  0  0  0  0  0  0
    4.5068   21.2197   35.3735 H   0  0  0  0  0  0  0  0  0  0  0  0
    4.0700   19.8769   36.4638 H   0  0  0  0  0  0  0  0  0  0  0  0
    1.7388   19.9853   41.8986 H   0  0  0  0  0  0  0  0  0  0  0  0
    3.6469   18.5022   38.3984 H   0  0  0  0  0  0  0  0  0  0  0  0
    1.9090   18.1819   42.0389 H   0  0  0  0  0  0  0  0  0  0  0  0
    0.6189   17.6770   41.2504 H   0  0  0  0  0  0  0  0  0  0  0  0
    3.2616   20.4180   38.4345 H   0  0  0  0  0  0  0  0  0  0  0  0
    3.0873   12.3265   35.7004 H   0  0  0  0  0  0  0  0  0  0  0  0
    0.1806   17.3284   42.7587 H   0  0  0  0  0  0  0  0  0  0  0  0
   -0.7054   17.2459   44.3049 H   0  0  0  0  0  0  0  0  0  0  0  0
    2.8817   18.8247   40.7236 H   0  0  0  0  0  0  0  0  0  0  0  0
    1.0354   18.3298   39.6580 H   0  0  0  0  0  0  0  0  0  0  0  0
    1.3679   18.8028   38.7378 H   0  0  0  0  0  0  0  0  0  0  0  0
   -1.2665   19.1823   45.4089 H   0  0  0  0  0  0  0  0  0  0  0  0
    0.3096   21.5265   40.9139 H   0  0  0  0  0  0  0  0  0  0  0  0
    1.4162   22.1554   39.2170 H   0  0  0  0  0  0  0  0  0  0  0  0
    4.8798   15.1246   36.0612 H   0  0  0  0  0  0  0  0  0  0  0  0
    2.2522   15.7415   40.1891 H   0  0  0  0  0  0  0  0  0  0  0  0
    3.6412   18.4698   36.8286 H   0  0  0  0  0  0  0  0  0  0  0  0
  1  3  1  0
  2 18  1  0
  3  4  2  0
  4 23  1  0
  5  8  1  0
  6 27  1  0
  7 11  2  0
  8 25  1  0
  9 10  1  0
  9 23  2  0
 11 18  1  0
 12  6  1  0
 13 25  1  0
 13 17  1  0
 13 20  1  0
 14  1  1  0
 15  2  1  0
 16 12  1  0
 17 10  1  0
 17 16  1  0
 19  6  1  0
 20 19  2  0
 21 22  2  0
 21  3  1  0
 22  9  1  0
 24  8  2  0
 26 22  1  0
 27  7  1  0
 27  2  2  0
  1 28  1  0
  4 29  1  0
  5 30  1  0
  5 31  1  0
  6 32  1  0
 10 33  1  0
 12 34  1  0
 12 35  1  0
 13 36  1  0
 14 37  1  0
 15 38  1  0
 15 39  1  0
 16 40  1  0
 16 41  1  0
 17 42  1  0
 18 43  1  0
 19 44  1  0
 20 45  1  0
 21 46  1  0
 23 47  1  0
 26 48  1  0
M  CHG  1  12   1
M  END
>  <mol_id>  (62) 
2026-09-18-3war-s0-n100-refligand-0063

>  <rmsd_to_ref>  (62) 


$$$$

     RDKit          3D

 55 59  0  0  0  0  0  0  0  0999 V2000
    3.1330   14.9360   37.9220 C   0  0  0  0  0  0  0  0  0  0  0  0
    3.1370   19.8510   39.5320 O   0  0  0  0  0  0  0  0  0  0  0  0
    0.0570   20.7160   42.5810 C   0  0  0  0  0  0  0  0  0  0  0  0
    3.1780   14.0550   36.9160 C   0  0  0  0  0  0  0  0  0  0  0  0
    2.0480   20.5320   39.6340 C   0  0  0  0  0  0  0  0  0  0  0  0
    2.3530   21.4300   37.4030 C   0  0  0  0  0  0  0  0  0  0  0  0
    2.6540   16.8540   40.0130 N   0  0  0  0  0  0  0  0  0  0  0  0
    3.1910   17.3090   38.8980 C   0  0  0  0  0  0  0  0  0  0  0  0
    3.9590   16.7060   36.7350 F   0  0  0  0  0  0  0  0  0  0  0  0
    3.0460   18.7650   38.9010 C   0  0  0  0  0  0  0  0  0  0  0  0
    1.1070   16.3570   41.7580 C   0  0  0  0  0  0  0  0  0  0  0  0
    0.1270   18.3320   42.6750 C   0  0  0  0  0  0  0  0  0  0  0  0
    0.9140   17.8830   41.6000 C   0  0  0  0  0  0  0  0  0  0  0  0
    3.1730   19.1420   36.5440 C   0  0  0  0  0  0  0  0  0  0  0  0
   -0.1300   17.1290   43.4720 N   0  0  0  0  0  0  0  0  0  0  0  0
    3.3950   16.4440   37.8670 C   0  0  0  0  0  0  0  0  0  0  0  0
    1.7720   21.2180   38.5840 C   0  0  0  0  0  0  0  0  0  0  0  0
    2.6570   20.4900   36.6060 C   0  0  0  0  0  0  0  0  0  0  0  0
    0.5080   15.9450   42.9190 C   0  0  0  0  0  0  0  0  0  0  0  0
   -1.1560   19.6130   44.2400 N   0  0  0  0  0  4  0  0  0  0  0  0
    2.3140   15.6650   40.1620 C   0  0  0  0  0  0  0  0  0  0  0  0
    1.6890   15.4310   41.3190 N   0  0  0  0  0  0  0  0  0  0  0  0
   -0.5580   17.1720   44.5790 O   0  0  0  0  0  0  0  0  0  0  0  0
    4.1050   19.2110   35.5120 F   0  0  0  0  0  0  0  0  0  0  0  0
    3.7920   19.1470   37.8780 C   0  0  0  0  0  0  0  0  0  0  0  0
   -0.2200   19.5020   43.1960 C   0  0  0  0  0  0  0  0  0  0  0  0
    2.1880   20.9200   35.3900 O   0  0  0  0  0  0  0  0  0  0  0  0
    1.9380   18.3390   36.6950 F   0  0  0  0  0  0  0  0  0  0  0  0
    2.7190   22.6090   36.8900 F   0  0  0  0  0  0  0  0  0  0  0  0
    0.8660   21.0950   41.5310 C   0  0  0  0  0  0  0  0  0  0  0  0
    2.6760   14.7410   39.2140 C   0  0  0  0  0  0  0  0  0  0  0  0
    1.4140   20.2140   40.7120 N   0  0  0  0  0  0  0  0  0  0  0  0
    1.3850   18.9610   40.9110 C   0  0  0  0  0  0  0  0  0  0  0  0
   -0.4882   21.5594   43.0297 H   0  0  0  0  0  0  0  0  0  0  0  0
    3.2301   13.0348   37.3241 H   0  0  0  0  0  0  0  0  0  0  0  0
    2.2735   14.1571   36.2984 H   0  0  0  0  0  0  0  0  0  0  0  0
    4.0674   14.2488   36.2984 H   0  0  0  0  0  0  0  0  0  0  0  0
    3.3429   21.3265   37.8714 H   0  0  0  0  0  0  0  0  0  0  0  0
    4.2565   17.2656   38.6283 H   0  0  0  0  0  0  0  0  0  0  0  0
    2.0353   18.5504   39.2783 H   0  0  0  0  0  0  0  0  0  0  0  0
    0.8229   21.7651   38.6836 H   0  0  0  0  0  0  0  0  0  0  0  0
    3.6545   20.8831   36.3603 H   0  0  0  0  0  0  0  0  0  0  0  0
    0.5093   14.9305   43.3442 H   0  0  0  0  0  0  0  0  0  0  0  0
   -0.6687   19.5552   45.1456 H   0  0  0  0  0  0  0  0  0  0  0  0
   -1.6433   20.5177   44.1695 H   0  0  0  0  0  0  0  0  0  0  0  0
   -1.8414   18.8474   44.1695 H   0  0  0  0  0  0  0  0  0  0  0  0
    1.7137   14.5151   41.7896 H   0  0  0  0  0  0  0  0  0  0  0  0
   -0.7166   16.3338   45.0813 H   0  0  0  0  0  0  0  0  0  0  0  0
    4.1276   20.1747   38.0811 H   0  0  0  0  0  0  0  0  0  0  0  0
    4.5906   18.3929   37.8180 H   0  0  0  0  0  0  0  0  0  0  0  0
    1.4657   21.5823   35.5304 H   0  0  0  0  0  0  0  0  0  0  0  0
    1.0618   22.1653   41.3695 H   0  0  0  0  0  0  0  0  0  0  0  0
    1.7810   14.1131   39.0926 H   0  0  0  0  0  0  0  0  0  0  0  0
    3.6301   14.4303   39.6647 H   0  0  0  0  0  0  0  0  0  0  0  0
    2.0754   18.5402   40.1651 H   0  0  0  0  0  0  0  0  0  0  0  0
  1 31  1  0
  2  5  1  0
  3 26  1  0
  4  1  1  0
  5 32  1  0
  6 29  1  0
  6 17  1  0
  7 21  2  0
  8 16  1  0
  8 10  1  0
  8  7  1  0
  9 16  1  0
 10 25  1  0
 10  2  1  0
 11 19  2  0
 12 26  2  0
 12 15  1  0
 13 11  1  0
 13 12  1  0
 14 18  1  0
 14 28  1  0
 14 25  1  0
 15 23  1  0
 16  1  2  0
 17  5  2  0
 18 27  1  0
 18  6  1  0
 19 15  1  0
 21 22  1  0
 22 11  1  0
 24 14  1  0
 26 20  1  0
 30  3  2  0
 31 21  1  0
 32 33  1  0
 32 30  1  0
 33 13  2  0
  3 34  1  0
  4 35  1  0
  4 36  1  0
  4 37  1  0
  6 38  1  0
  8 39  1  0
 10 40  1  0
 17 41  1  0
 18 42  1  0
 19 43  1  0
 20 44  1  0
 20 45  1  0
 20 46  1  0
 22 47  1  0
 23 48  1  0
 25 49  1  0
 25 50  1  0
 27 51  1  0
 30 52  1  0
 31 53  1  0
 31 54  1  0
 33 55  1  0
M  CHG  1  20   1
M  END
>  <mol_id>  (63) 
2026-09-18-3war-s0-n100-refligand-0064

>  <rmsd_to_ref>  (63) 


$$$$

     RDKit          3D

 34 35  0  0  0  0  0  0  0  0999 V2000
    1.4440   19.4090   40.6630 C   0  0  0  0  0  0  0  0  0  0  0  0
    2.7350   18.0060   39.0610 C   0  0  0  0  0  0  0  0  0  0  0  0
    1.7750   15.4190   41.2250 C   0  0  0  0  0  0  0  0  0  0  0  0
   -0.3960   20.0250   43.2890 C   0  0  0  0  0  0  0  0  0  0  0  0
    3.5160   19.8070   36.6770 N   0  0  0  0  0  0  0  0  0  0  0  0
    0.4720   17.9670   42.5100 C   0  0  0  0  0  0  0  0  0  0  0  0
    0.8300   21.6180   40.2930 O   0  0  0  0  0  0  0  0  0  0  0  0
    3.5410   17.4700   37.8690 C   0  0  0  0  0  0  0  0  0  0  0  0
    2.4100   19.3230   39.0790 C   0  0  0  0  0  0  0  0  0  0  0  0
   -1.0720   20.5400   44.1620 O   0  0  0  0  0  0  0  0  0  0  0  0
    1.5460   16.7530   40.5670 C   0  0  0  0  0  0  0  0  0  0  0  0
    0.8150   20.6060   41.0640 C   0  0  0  0  0  0  0  0  0  0  0  0
   -0.2260   18.7290   43.4220 C   0  0  0  0  0  0  0  0  0  0  0  0
    2.7580   17.2450   40.1140 O   0  0  0  0  0  0  0  0  0  0  0  0
    2.7240   20.0610   37.6780 C   0  0  0  0  0  0  0  0  0  0  0  0
    1.1300   18.2860   41.3880 C   0  0  0  0  0  0  0  0  0  0  0  0
    2.0780   21.0970   37.7940 O   0  0  0  0  0  0  0  0  0  0  0  0
    3.5890   20.7790   35.7510 O   0  0  0  0  0  0  0  0  0  0  0  0
    0.0550   20.8260   42.3140 C   0  0  0  0  0  0  0  0  0  0  0  0
    1.6556   17.8775   38.8924 H   0  0  0  0  0  0  0  0  0  0  0  0
    1.7541   15.5409   42.3180 H   0  0  0  0  0  0  0  0  0  0  0  0
    0.9840   14.7186   40.9190 H   0  0  0  0  0  0  0  0  0  0  0  0
    2.7543   15.0225   40.9190 H   0  0  0  0  0  0  0  0  0  0  0  0
    4.0468   18.9277   36.6000 H   0  0  0  0  0  0  0  0  0  0  0  0
    0.4925   16.8935   42.7489 H   0  0  0  0  0  0  0  0  0  0  0  0
    4.4038   16.8962   38.2381 H   0  0  0  0  0  0  0  0  0  0  0  0
    2.9009   16.8170   37.2575 H   0  0  0  0  0  0  0  0  0  0  0  0
    3.8956   18.3128   37.2575 H   0  0  0  0  0  0  0  0  0  0  0  0
    2.6088   20.4029   39.1443 H   0  0  0  0  0  0  0  0  0  0  0  0
    0.6976   16.4047   39.9597 H   0  0  0  0  0  0  0  0  0  0  0  0
   -0.6603   18.2297   44.3007 H   0  0  0  0  0  0  0  0  0  0  0  0
    3.6551   21.6586   36.2004 H   0  0  0  0  0  0  0  0  0  0  0  0
    0.6801   21.5491   42.8585 H   0  0  0  0  0  0  0  0  0  0  0  0
   -0.9207   20.9427   41.8197 H   0  0  0  0  0  0  0  0  0  0  0  0
  1 12  1  0
  1 16  2  0
  2  8  1  0
  2  9  1  0
  2 14  1  0
  4 13  1  0
  4 10  2  0
  5 15  1  0
  6 13  2  0
  7 12  2  0
  9 15  1  0
  9  1  1  0
 11  3  1  0
 11 16  1  0
 12 19  1  0
 14 11  1  0
 15 17  2  0
 16  6  1  0
 18  5  1  0
 19  4  1  0
  2 20  1  0
  3 21  1  0
  3 22  1  0
  3 23  1  0
  5 24  1  0
  6 25  1  0
  8 26  1  0
  8 27  1  0
  8 28  1  0
  9 29  1  0
 11 30  1  0
 13 31  1  0
 18 32  1  0
 19 33  1  0
 19 34  1  0
M  END
>  <mol_id>  (64) 
2026-09-18-3war-s0-n100-refligand-0065

>  <rmsd_to_ref>  (64) 


$$$$

     RDKit          3D

 23 25  0  0  0  0  0  0  0  0999 V2000
    2.8570   20.6620   36.7880 C   0  0  0  0  0  0  0  0  0  0  0  0
    3.4800   18.2600   36.6560 C   0  0  0  0  0  0  0  0  0  0  0  0
    0.4290   20.7830   41.1820 C   0  0  0  0  0  0  0  0  0  0  0  0
    1.8920   18.3690   41.0520 C   0  0  0  0  0  0  0  0  0  0  0  0
    2.2720   20.4850   38.0500 C   0  0  0  0  0  0  0  0  0  0  0  0
    3.4080   19.5790   36.0420 C   0  0  0  0  0  0  0  0  0  0  0  0
    2.8880   18.0480   37.9110 C   0  0  0  0  0  0  0  0  0  0  0  0
    0.9810   18.4950   42.1190 C   0  0  0  0  0  0  0  0  0  0  0  0
    2.3930   19.1750   38.6210 C   0  0  0  0  0  0  0  0  0  0  0  0
    1.8980   19.2340   39.9330 C   0  0  0  0  0  0  0  0  0  0  0  0
    1.2190   20.5720   40.1040 C   0  0  0  0  0  0  0  0  0  0  0  0
    0.2450   19.8630   42.1730 C   0  0  0  0  0  0  0  0  0  0  0  0
    1.5230   21.3930   38.9630 C   0  0  0  0  0  0  0  0  0  0  0  0
    2.8921   21.6737   36.3576 H   0  0  0  0  0  0  0  0  0  0  0  0
    3.9946   17.4361   36.1399 H   0  0  0  0  0  0  0  0  0  0  0  0
   -0.0929   21.7478   41.2640 H   0  0  0  0  0  0  0  0  0  0  0  0
    2.6347   17.5586   41.0910 H   0  0  0  0  0  0  0  0  0  0  0  0
    3.7737   19.7374   35.0167 H   0  0  0  0  0  0  0  0  0  0  0  0
    2.8093   17.0356   38.3339 H   0  0  0  0  0  0  0  0  0  0  0  0
    0.8054   17.6935   42.8516 H   0  0  0  0  0  0  0  0  0  0  0  0
    0.5461   20.3471   43.1137 H   0  0  0  0  0  0  0  0  0  0  0  0
   -0.8125   19.5823   42.0599 H   0  0  0  0  0  0  0  0  0  0  0  0
    1.2622   22.4494   38.8015 H   0  0  0  0  0  0  0  0  0  0  0  0
  1  5  1  0
  2  7  2  0
  3 12  1  0
  4  8  2  0
  5  9  1  0
  5 13  2  0
  6  2  1  0
  6  1  2  0
  7  9  1  0
  8 12  1  0
  9 10  2  0
 10 11  1  0
 10  4  1  0
 11  3  2  0
 13 11  1  0
  1 14  1  0
  2 15  1  0
  3 16  1  0
  4 17  1  0
  6 18  1  0
  7 19  1  0
  8 20  1  0
 12 21  1  0
 12 22  1  0
 13 23  1  0
M  END
>  <mol_id>  (65) 
2026-09-18-3war-s0-n100-refligand-0066

>  <rmsd_to_ref>  (65) 


$$$$

     RDKit          3D

 42 45  0  0  0  0  0  0  0  0999 V2000
    1.7210   20.7940   39.1570 C   0  0  0  0  0  0  0  0  0  0  0  0
   -0.6770   18.8570   43.6050 C   0  0  0  0  0  0  0  0  0  0  0  0
    2.2110   22.3600   35.3350 O   0  0  0  0  0  1  0  0  0  0  0  0
    0.5800   20.1410   41.4720 C   0  0  0  0  0  0  0  0  0  0  0  0
    2.8820   21.3380   35.7760 C   0  0  0  0  0  0  0  0  0  0  0  0
    3.0790   16.2020   38.7460 C   0  0  0  0  0  0  0  0  0  0  0  0
    0.3200   16.7550   42.7930 N   0  0  0  0  0  0  0  0  0  0  0  0
    1.8330   21.6190   38.0600 C   0  0  0  0  0  0  0  0  0  0  0  0
    1.0280   15.9810   41.8690 C   0  0  0  0  0  0  0  0  0  0  0  0
    3.7210   15.3570   37.8650 N   0  0  0  0  0  4  0  0  0  0  0  0
   -0.1970   15.9260   43.8570 C   0  0  0  0  0  0  0  0  0  0  0  0
    0.8000   18.8000   41.5980 C   0  0  0  0  0  0  0  0  0  0  0  0
    1.6040   16.4540   40.7580 C   0  0  0  0  0  0  0  0  0  0  0  0
    2.4240   18.3550   39.4240 C   0  0  0  0  0  0  0  0  0  0  0  0
    3.7920   20.7680   35.0990 O   0  0  0  0  0  0  0  0  0  0  0  0
   -0.7820   20.2330   43.5030 C   0  0  0  0  0  0  0  0  0  0  0  0
    4.7030   15.8500   36.8620 C   0  0  0  0  0  0  0  0  0  0  0  0
    2.1980   14.2200   39.6920 O   0  0  0  0  0  0  0  0  0  0  0  0
    2.3290   15.5040   39.7040 C   0  0  0  0  0  0  0  0  0  0  0  0
    0.1680   18.0700   42.7270 C   0  0  0  0  0  0  0  0  0  0  0  0
    1.6050   17.9090   40.5910 C   0  0  0  0  0  0  0  0  0  0  0  0
    3.1580   17.5240   38.6530 O   0  0  0  0  0  0  0  0  0  0  0  0
    2.9870   19.6970   37.5940 N   0  0  0  0  0  0  0  0  0  0  0  0
    2.3610   19.6400   38.7820 N   0  0  0  0  0  0  0  0  0  0  0  0
    2.6000   20.8970   37.1050 C   0  0  0  0  0  0  0  0  0  0  0  0
   -0.1390   20.8680   42.3600 C   0  0  0  0  0  0  0  0  0  0  0  0
    1.2295   21.0112   40.1168 H   0  0  0  0  0  0  0  0  0  0  0  0
   -1.2574   18.3393   44.3829 H   0  0  0  0  0  0  0  0  0  0  0  0
    1.0099   20.6593   40.6022 H   0  0  0  0  0  0  0  0  0  0  0  0
    1.4146   22.6299   37.9459 H   0  0  0  0  0  0  0  0  0  0  0  0
    1.1182   14.9033   42.0703 H   0  0  0  0  0  0  0  0  0  0  0  0
    4.2228   14.6677   38.4429 H   0  0  0  0  0  0  0  0  0  0  0  0
    2.9439   15.0438   37.2659 H   0  0  0  0  0  0  0  0  0  0  0  0
    0.0760   16.3638   44.8285 H   0  0  0  0  0  0  0  0  0  0  0  0
   -1.2924   15.8668   43.7764 H   0  0  0  0  0  0  0  0  0  0  0  0
    0.2317   14.9162   43.7764 H   0  0  0  0  0  0  0  0  0  0  0  0
   -1.3282   20.8230   44.2537 H   0  0  0  0  0  0  0  0  0  0  0  0
    5.5699   16.2852   37.3808 H   0  0  0  0  0  0  0  0  0  0  0  0
    5.0356   15.0120   36.2318 H   0  0  0  0  0  0  0  0  0  0  0  0
    4.2296   16.6173   36.2318 H   0  0  0  0  0  0  0  0  0  0  0  0
    1.6581   13.7710   40.3899 H   0  0  0  0  0  0  0  0  0  0  0  0
   -0.2391   21.9540   42.2163 H   0  0  0  0  0  0  0  0  0  0  0  0
  3  5  1  0
  4 12  1  0
  4 26  2  0
  5 25  1  0
  6 19  2  0
  7 11  1  0
  8  1  2  0
  9  7  1  0
 10  6  1  0
 12 20  2  0
 13  9  2  0
 14 21  2  0
 15  5  2  0
 16  2  2  0
 17 10  1  0
 18 19  1  0
 19 13  1  0
 20  7  1  0
 20  2  1  0
 21 13  1  0
 21 12  1  0
 22  6  1  0
 22 14  1  0
 23 24  1  0
 24  1  1  0
 24 14  1  0
 25 23  2  0
 25  8  1  0
 26 16  1  0
  1 27  1  0
  2 28  1  0
  4 29  1  0
  8 30  1  0
  9 31  1  0
 10 32  1  0
 10 33  1  0
 11 34  1  0
 11 35  1  0
 11 36  1  0
 16 37  1  0
 17 38  1  0
 17 39  1  0
 17 40  1  0
 18 41  1  0
 26 42  1  0
M  CHG  2   3  -1  10   1
M  END
>  <mol_id>  (66) 
2026-09-18-3war-s0-n100-refligand-0067

>  <rmsd_to_ref>  (66) 


$$$$

     RDKit          3D

 22 23  0  0  0  0  0  0  0  0999 V2000
    1.7950   18.3220   40.8180 N   0  0  0  0  0  0  0  0  0  0  0  0
    1.7350   17.0790   41.2700 C   0  0  0  0  0  0  0  0  0  0  0  0
    3.1150   21.0240   36.1870 F   0  0  0  0  0  0  0  0  0  0  0  0
    2.5660   15.6900   39.2820 C   0  0  0  0  0  0  0  0  0  0  0  0
    2.9610   18.9560   37.2710 C   0  0  0  0  0  0  0  0  0  0  0  0
    2.6190   18.1460   38.4110 C   0  0  0  0  0  0  0  0  0  0  0  0
    2.0630   18.9000   39.5780 C   0  0  0  0  0  0  0  0  0  0  0  0
    1.5720   14.7380   41.1740 O   0  0  0  0  0  0  0  0  0  0  0  0
    3.5270   18.4440   36.2780 O   0  0  0  0  0  0  0  0  0  0  0  0
    1.7550   20.2990   39.4350 C   0  0  0  0  0  0  0  0  0  0  0  0
    1.1330   20.9690   40.4990 C   0  0  0  0  0  0  0  0  0  0  0  0
    0.6490   21.4080   41.4070 N   0  0  0  0  0  0  0  0  0  0  0  0
    1.9260   15.8240   40.6040 C   0  0  0  0  0  0  0  0  0  0  0  0
    2.6770   20.4070   37.2300 C   0  0  0  0  0  0  0  0  0  0  0  0
    1.2690   17.0000   42.5610 O   0  0  0  0  0  0  0  0  0  0  0  0
    2.1100   21.0400   38.2790 C   0  0  0  0  0  0  0  0  0  0  0  0
    2.8070   16.6930   38.4530 C   0  0  0  0  0  0  0  0  0  0  0  0
    2.8653   14.6813   38.9612 H   0  0  0  0  0  0  0  0  0  0  0  0
    1.6064   18.0033   38.0058 H   0  0  0  0  0  0  0  0  0  0  0  0
    0.7690   20.0397   39.0219 H   0  0  0  0  0  0  0  0  0  0  0  0
    1.9246   22.1235   38.2374 H   0  0  0  0  0  0  0  0  0  0  0  0
    3.2859   16.3328   37.5306 H   0  0  0  0  0  0  0  0  0  0  0  0
  1  2  1  0
  2 15  2  0
  3 14  1  0
  4 13  1  0
  5  6  1  0
  6 17  1  0
  6  7  1  0
  7  1  2  0
  9  5  2  0
 10  7  1  0
 10 11  1  0
 11 12  3  0
 13  8  2  0
 13  2  1  0
 14  5  1  0
 14 16  2  0
 16 10  1  0
 17  4  2  0
  4 18  1  0
  6 19  1  0
 10 20  1  0
 16 21  1  0
 17 22  1  0
M  END
>  <mol_id>  (67) 
2026-09-18-3war-s0-n100-refligand-0068

>  <rmsd_to_ref>  (67) 


$$$$

     RDKit          3D

 30 33  0  0  0  0  0  0  0  0999 V2000
    3.0800   17.8540   38.1620 C   0  0  0  0  0  0  0  0  0  0  0  0
    2.1810   17.0380   39.9890 N   0  0  0  0  0  0  0  0  0  0  0  0
    1.1110   16.3410   42.1160 C   0  0  0  0  0  0  0  0  0  0  0  0
    1.1850   20.7280   40.2960 C   0  0  0  0  0  0  0  0  0  0  0  0
    1.2000   18.6730   41.1620 C   0  0  0  0  0  0  0  0  0  0  0  0
    0.5180   21.2700   41.3800 C   0  0  0  0  0  0  0  0  0  0  0  0
    3.4760   19.9010   36.6490 C   0  0  0  0  0  0  0  0  0  0  0  0
    0.0240   18.1750   43.0070 N   0  0  0  0  0  0  0  0  0  0  0  0
    0.3820   19.0900   42.1740 C   0  0  0  0  0  0  0  0  0  0  0  0
    2.2510   20.7510   38.3020 O   0  0  0  0  0  0  0  0  0  0  0  0
    3.3470   16.5510   38.3900 N   0  0  0  0  0  0  0  0  0  0  0  0
    0.0060   20.3660   42.3040 N   0  0  0  0  0  0  0  0  0  0  0  0
    2.5080   20.7470   37.2240 C   0  0  0  0  0  0  0  0  0  0  0  0
    2.8100   16.2020   39.3990 N   0  0  0  0  0  0  0  0  0  0  0  0
    2.3840   18.1830   39.2930 C   0  0  0  0  0  0  0  0  0  0  0  0
    1.6070   19.3720   40.0140 C   0  0  0  0  0  0  0  0  0  0  0  0
    3.4980   18.5670   37.0700 C   0  0  0  0  0  0  0  0  0  0  0  0
    1.6150   17.2060   41.1970 C   0  0  0  0  0  0  0  0  0  0  0  0
    0.2810   16.7970   43.1450 C   0  0  0  0  0  0  0  0  0  0  0  0
    1.3584   15.2712   42.0498 H   0  0  0  0  0  0  0  0  0  0  0  0
    1.4394   21.4548   39.5104 H   0  0  0  0  0  0  0  0  0  0  0  0
    0.3992   22.3565   41.5041 H   0  0  0  0  0  0  0  0  0  0  0  0
    4.4636   20.3326   36.8690 H   0  0  0  0  0  0  0  0  0  0  0  0
    3.2106   19.8546   35.5825 H   0  0  0  0  0  0  0  0  0  0  0  0
   -0.6334   20.6657   43.0539 H   0  0  0  0  0  0  0  0  0  0  0  0
    1.9747   21.4462   36.5631 H   0  0  0  0  0  0  0  0  0  0  0  0
    2.8828   15.2345   39.7447 H   0  0  0  0  0  0  0  0  0  0  0  0
    2.9810   18.0543   36.2455 H   0  0  0  0  0  0  0  0  0  0  0  0
    4.5448   18.6110   37.4050 H   0  0  0  0  0  0  0  0  0  0  0  0
   -0.1172   16.1652   43.9526 H   0  0  0  0  0  0  0  0  0  0  0  0
  1 11  2  0
  1 15  1  0
  2 18  1  0
  3 19  2  0
  4  6  2  0
  5 18  2  0
  5  9  1  0
  6 12  1  0
  7 17  1  0
  7 13  1  0
  8 19  1  0
  9 12  1  0
  9  8  2  0
 11 14  1  0
 13 10  2  0
 14  2  1  0
 15  2  1  0
 15 16  2  0
 16  4  1  0
 16  5  1  0
 17  1  1  0
 18  3  1  0
  3 20  1  0
  4 21  1  0
  6 22  1  0
  7 23  1  0
  7 24  1  0
 12 25  1  0
 13 26  1  0
 14 27  1  0
 17 28  1  0
 17 29  1  0
 19 30  1  0
M  END
>  <mol_id>  (68) 
2026-09-18-3war-s0-n100-refligand-0069

>  <rmsd_to_ref>  (68) 


$$$$

     RDKit          3D

 21 23  0  0  0  0  0  0  0  0999 V2000
    2.3580   16.6250   39.5800 C   0  0  0  0  0  0  0  0  0  0  0  0
    1.7200   19.8420   40.0710 C   0  0  0  0  0  0  0  0  0  0  0  0
    3.4720   15.3010   37.8850 C   0  0  0  0  0  0  0  0  0  0  0  0
    2.3500   19.1490   38.9240 C   0  0  0  0  0  0  0  0  0  0  0  0
    2.8260   15.3540   39.0480 C   0  0  0  0  0  0  0  0  0  0  0  0
    2.5740   17.7690   38.8510 C   0  0  0  0  0  0  0  0  0  0  0  0
    3.2230   17.6000   37.5470 C   0  0  0  0  0  0  0  0  0  0  0  0
    3.4200   18.8240   37.0130 N   0  0  0  0  0  0  0  0  0  0  0  0
    0.5390   20.1050   41.8360 N   0  0  0  0  0  0  0  0  0  0  0  0
    1.6320   21.1890   40.2690 N   0  0  0  0  0  0  0  0  0  0  0  0
    1.0690   19.2950   40.8130 N   0  0  0  0  0  0  0  0  0  0  0  0
    2.7710   19.8680   37.7530 C   0  0  0  0  0  0  0  0  0  0  0  0
    3.7010   16.3970   37.1200 N   0  0  0  0  0  0  0  0  0  0  0  0
    0.9470   21.2130   41.4250 C   0  0  0  0  0  0  0  0  0  0  0  0
    1.8401   16.6689   40.5494 H   0  0  0  0  0  0  0  0  0  0  0  0
    3.8358   14.3258   37.5292 H   0  0  0  0  0  0  0  0  0  0  0  0
    2.6442   14.4275   39.6125 H   0  0  0  0  0  0  0  0  0  0  0  0
    0.8779   18.2850   40.7474 H   0  0  0  0  0  0  0  0  0  0  0  0
    3.4697   20.6791   38.0058 H   0  0  0  0  0  0  0  0  0  0  0  0
    1.9566   20.3708   37.2109 H   0  0  0  0  0  0  0  0  0  0  0  0
    0.7575   22.1471   41.9741 H   0  0  0  0  0  0  0  0  0  0  0  0
  2 10  2  0
  2 11  1  0
  3  5  1  0
  4  2  1  0
  5  1  2  0
  6  4  2  0
  6  1  1  0
  7  6  1  0
  8  7  2  0
  8 12  1  0
 10 14  1  0
 11  9  1  0
 12  4  1  0
 13  7  1  0
 13  3  2  0
 14  9  2  0
  1 15  1  0
  3 16  1  0
  5 17  1  0
 11 18  1  0
 12 19  1  0
 12 20  1  0
 14 21  1  0
M  END
>  <mol_id>  (69) 
2026-09-18-3war-s0-n100-refligand-0071

>  <rmsd_to_ref>  (69) 


$$$$

     RDKit          3D

 41 43  0  0  0  0  0  0  0  0999 V2000
    0.3050   18.1570   42.5990 O   0  0  0  0  0  0  0  0  0  0  0  0
   -0.8150   20.5150   41.4960 F   0  0  0  0  0  0  0  0  0  0  0  0
    1.6150   20.8100   39.5850 C   0  0  0  0  0  0  0  0  0  0  0  0
    3.1420   19.2100   37.0670 C   0  0  0  0  0  0  0  0  0  0  0  0
    3.8790   18.7910   38.3040 C   0  0  0  0  0  0  0  0  0  0  0  0
    0.8600   21.8740   41.8210 F   0  0  0  0  0  0  0  0  0  0  0  0
    2.2260   14.8720   40.3030 C   0  0  0  0  0  0  0  0  0  0  0  0
    1.7860   17.3030   41.0160 N   0  0  0  0  0  0  0  0  0  0  0  0
    3.6900   19.5580   35.6760 O   0  0  0  0  0  0  0  0  0  0  0  0
    0.4020   20.6020   41.8950 C   0  0  0  0  0  0  0  0  0  0  0  0
    1.2290   19.8890   40.7720 C   0  0  0  0  0  0  0  0  0  0  0  0
    1.7150   18.5040   40.3670 C   0  0  0  0  0  0  0  0  0  0  0  0
    0.4980   20.3180   43.0970 F   0  0  0  0  0  0  0  0  0  0  0  0
    3.4260   14.5800   38.2520 C   0  0  0  0  0  0  0  0  0  0  0  0
    2.6620   20.6720   37.3270 C   0  0  0  0  0  0  0  0  0  0  0  0
    3.3950   16.0050   38.0240 C   0  0  0  0  0  0  0  0  0  0  0  0
    3.0190   14.0510   39.4990 C   0  0  0  0  0  0  0  0  0  0  0  0
    2.3330   16.2470   40.1200 C   0  0  0  0  0  0  0  0  0  0  0  0
    0.9150   17.0840   41.9110 N   0  0  0  0  0  0  0  0  0  0  0  0
    2.8450   16.8140   39.1700 C   0  0  0  0  0  0  0  0  0  0  0  0
    2.8920   18.3610   39.2850 C   0  0  0  0  0  0  0  0  0  0  0  0
    2.0350   20.6310   38.6780 C   0  0  0  0  0  0  0  0  0  0  0  0
    0.3871   18.0125   43.5749 H   0  0  0  0  0  0  0  0  0  0  0  0
    1.3878   21.8717   39.7615 H   0  0  0  0  0  0  0  0  0  0  0  0
    2.5699   18.2748   36.9768 H   0  0  0  0  0  0  0  0  0  0  0  0
    4.5610   17.9602   38.0701 H   0  0  0  0  0  0  0  0  0  0  0  0
    4.4746   19.6273   38.6987 H   0  0  0  0  0  0  0  0  0  0  0  0
    1.1767   14.5962   40.1218 H   0  0  0  0  0  0  0  0  0  0  0  0
    2.5887   14.6965   41.3265 H   0  0  0  0  0  0  0  0  0  0  0  0
    4.5218   20.0862   35.7717 H   0  0  0  0  0  0  0  0  0  0  0  0
    4.4655   14.2565   38.0947 H   0  0  0  0  0  0  0  0  0  0  0  0
    2.6644   14.1977   37.5564 H   0  0  0  0  0  0  0  0  0  0  0  0
    3.5141   21.3675   37.3160 H   0  0  0  0  0  0  0  0  0  0  0  0
    1.9622   21.0233   36.5545 H   0  0  0  0  0  0  0  0  0  0  0  0
    4.4233   16.3432   37.8282 H   0  0  0  0  0  0  0  0  0  0  0  0
    2.7164   16.1690   37.1740 H   0  0  0  0  0  0  0  0  0  0  0  0
    2.4503   13.1306   39.3003 H   0  0  0  0  0  0  0  0  0  0  0  0
    3.9496   13.9047   40.0669 H   0  0  0  0  0  0  0  0  0  0  0  0
    0.6497   16.1151   42.1386 H   0  0  0  0  0  0  0  0  0  0  0  0
    1.1979   20.0014   38.3420 H   0  0  0  0  0  0  0  0  0  0  0  0
    2.9587   21.0826   39.0689 H   0  0  0  0  0  0  0  0  0  0  0  0
  2 10  1  0
  3 11  2  0
  4  9  1  0
  4 15  1  0
  4  5  1  0
  5 21  1  0
  6 10  1  0
  8 19  1  0
 10 13  1  0
 11 10  1  0
 12 11  1  0
 12  8  1  0
 14 17  1  0
 15 22  1  0
 16 14  1  0
 16 20  1  0
 17  7  1  0
 18  7  1  0
 18  8  1  0
 19  1  1  0
 20 21  1  0
 20 18  2  0
 21 12  2  0
 22  3  1  0
  1 23  1  0
  3 24  1  0
  4 25  1  0
  5 26  1  0
  5 27  1  0
  7 28  1  0
  7 29  1  0
  9 30  1  0
 14 31  1  0
 14 32  1  0
 15 33  1  0
 15 34  1  0
 16 35  1  0
 16 36  1  0
 17 37  1  0
 17 38  1  0
 19 39  1  0
 22 40  1  0
 22 41  1  0
M  END
>  <mol_id>  (70) 
2026-09-18-3war-s0-n100-refligand-0072

>  <rmsd_to_ref>  (70) 


$$$$

     RDKit          3D

 21 21  0  0  0  0  0  0  0  0999 V2000
    2.1700   17.7880   40.3030 C   0  0  0  0  0  0  0  0  0  0  0  0
    1.3690   18.3340   42.2620 C   0  0  0  0  0  0  0  0  0  0  0  0
    3.0210   19.5710   37.2540 N   0  0  0  0  0  4  0  0  0  0  0  0
    0.2920   20.9610   41.2220 C   0  0  0  0  0  0  0  0  0  0  0  0
    2.2660   16.6190   40.6140 F   0  0  0  0  0  0  0  0  0  0  0  0
    1.7420   20.3540   39.2370 C   0  0  0  0  0  0  0  0  0  0  0  0
    1.6450   18.8160   41.0700 C   0  0  0  0  0  0  0  0  0  0  0  0
    0.8340   18.6550   43.3130 C   0  0  0  0  0  0  0  0  0  0  0  0
    2.6710   18.2000   39.0860 C   0  0  0  0  0  0  0  0  0  0  0  0
    3.0630   20.6730   36.6550 O   0  0  0  0  0  1  0  0  0  0  0  0
    2.4790   19.4370   38.5740 C   0  0  0  0  0  0  0  0  0  0  0  0
    3.4820   18.5140   36.8160 O   0  0  0  0  0  0  0  0  0  0  0  0
    1.2660   20.0590   40.5140 C   0  0  0  0  0  0  0  0  0  0  0  0
    1.7426   17.3022   42.3383 H   0  0  0  0  0  0  0  0  0  0  0  0
    0.4127   20.8492   42.3096 H   0  0  0  0  0  0  0  0  0  0  0  0
    0.4858   22.0056   40.9370 H   0  0  0  0  0  0  0  0  0  0  0  0
   -0.7347   20.6877   40.9370 H   0  0  0  0  0  0  0  0  0  0  0  0
    1.5189   21.3262   38.7732 H   0  0  0  0  0  0  0  0  0  0  0  0
    0.7883   17.9400   44.1477 H   0  0  0  0  0  0  0  0  0  0  0  0
    0.3982   19.6589   43.4242 H   0  0  0  0  0  0  0  0  0  0  0  0
    3.2606   17.4813   38.4979 H   0  0  0  0  0  0  0  0  0  0  0  0
  1  5  1  0
  1  7  2  0
  2  8  2  3
  3 11  1  0
  6 13  2  0
  7  2  1  0
  9  1  1  0
 10  3  1  0
 11  9  2  0
 11  6  1  0
 12  3  2  0
 13  7  1  0
 13  4  1  0
  2 14  1  0
  4 15  1  0
  4 16  1  0
  4 17  1  0
  6 18  1  0
  8 19  1  0
  8 20  1  0
  9 21  1  0
M  CHG  2   3   1  10  -1
M  END
>  <mol_id>  (71) 
2026-09-18-3war-s0-n100-refligand-0073

>  <rmsd_to_ref>  (71) 


$$$$

     RDKit          3D

 50 53  0  0  0  0  0  0  0  0999 V2000
    2.1490   14.6620   40.4240 O   0  0  0  0  0  0  0  0  0  0  0  0
    2.9850   20.9070   35.8250 O   0  0  0  0  0  0  0  0  0  0  0  0
    1.3580   19.1280   40.3800 C   0  0  0  0  0  0  0  0  0  0  0  0
    1.3770   17.7760   40.5560 N   0  0  0  0  0  4  0  0  0  0  0  0
    2.0050   15.6820   39.4030 C   0  0  0  0  0  0  0  0  0  0  0  0
    4.5340   14.0670   37.4970 O   0  0  0  0  0  1  0  0  0  0  0  0
    2.0030   19.6510   39.3380 C   0  0  0  0  0  0  0  0  0  0  0  0
    2.6820   13.9710   36.9990 O   0  0  0  0  0  0  0  0  0  0  0  0
   -0.1310   19.6580   43.1770 C   0  0  0  0  0  0  0  0  0  0  0  0
    0.5060   19.2250   42.5910 C   0  0  0  0  0  0  0  0  0  0  0  0
    2.5750   22.1330   35.2590 C   0  0  0  0  0  0  0  0  0  0  0  0
    3.0830   20.3460   37.7170 N   0  0  0  0  0  0  0  0  0  0  0  0
   -0.2210   21.6730   42.1560 C   0  0  0  0  0  0  0  0  0  0  0  0
   -0.6470   20.9160   43.3130 N   0  0  0  0  0  4  0  0  0  0  0  0
    0.7490   18.0930   43.2050 F   0  0  0  0  0  0  0  0  0  0  0  0
    3.2500   19.1480   39.3970 C   0  0  0  0  0  0  0  0  0  0  0  0
    0.5800   19.8390   41.1660 C   0  0  0  0  0  0  0  0  0  0  0  0
    3.7400   16.8590   38.0000 O   0  0  0  0  0  0  0  0  0  0  0  0
    4.2120   18.4870   39.6600 C   0  0  0  0  0  0  0  0  0  0  0  0
    1.5170   22.0310   37.3050 O   0  0  0  0  0  0  0  0  0  0  0  0
    0.4120   21.0590   41.2690 C   0  0  0  0  0  0  0  0  0  0  0  0
    2.4690   17.0640   40.0830 C   0  0  0  0  0  0  0  0  0  0  0  0
    3.6920   19.5650   37.8450 O   0  0  0  0  0  0  0  0  0  0  0  0
    3.3430   17.6400   39.1630 C   0  0  0  0  0  0  0  0  0  0  0  0
    2.4300   21.1350   37.0680 C   0  0  0  0  0  0  0  0  0  0  0  0
    3.1280   15.6940   38.4180 C   0  0  0  0  0  0  0  0  0  0  0  0
    3.5040   14.6800   37.6130 C   0  0  0  0  0  0  0  0  0  0  0  0
    2.0899   15.0805   41.3192 H   0  0  0  0  0  0  0  0  0  0  0  0
    0.4473   19.0358   39.7700 H   0  0  0  0  0  0  0  0  0  0  0  0
    1.3144   17.6000   41.5689 H   0  0  0  0  0  0  0  0  0  0  0  0
    0.5880   17.4359   39.9879 H   0  0  0  0  0  0  0  0  0  0  0  0
    0.9961   15.5369   38.9893 H   0  0  0  0  0  0  0  0  0  0  0  0
    1.5145   19.3579   38.3970 H   0  0  0  0  0  0  0  0  0  0  0  0
    2.0048   20.7505   39.3695 H   0  0  0  0  0  0  0  0  0  0  0  0
    0.2950   19.4673   44.1730 H   0  0  0  0  0  0  0  0  0  0  0  0
   -1.0119   19.2626   42.6501 H   0  0  0  0  0  0  0  0  0  0  0  0
    1.5370   19.2762   42.2110 H   0  0  0  0  0  0  0  0  0  0  0  0
    2.3366   22.8460   36.0620 H   0  0  0  0  0  0  0  0  0  0  0  0
    3.3862   22.5392   34.6369 H   0  0  0  0  0  0  0  0  0  0  0  0
    1.6827   21.9695   34.6369 H   0  0  0  0  0  0  0  0  0  0  0  0
    2.9137   20.6580   38.6839 H   0  0  0  0  0  0  0  0  0  0  0  0
   -0.4449   22.7457   42.0602 H   0  0  0  0  0  0  0  0  0  0  0  0
   -1.6755   20.8748   43.3501 H   0  0  0  0  0  0  0  0  0  0  0  0
   -0.3177   21.3571   44.1836 H   0  0  0  0  0  0  0  0  0  0  0  0
   -0.1998   19.7413   40.3963 H   0  0  0  0  0  0  0  0  0  0  0  0
    5.1257   18.6723   39.0762 H   0  0  0  0  0  0  0  0  0  0  0  0
    4.7509   18.4234   40.6169 H   0  0  0  0  0  0  0  0  0  0  0  0
    0.8745   21.6792   40.4870 H   0  0  0  0  0  0  0  0  0  0  0  0
    3.0366   16.9785   41.0214 H   0  0  0  0  0  0  0  0  0  0  0  0
    3.2552   15.3352   39.4500 H   0  0  0  0  0  0  0  0  0  0  0  0
  2 25  1  0
  3  7  1  0
  3  4  1  0
  3 17  1  0
  5 22  1  0
  5  1  1  0
  6 27  1  0
  7 16  1  0
  8 27  2  0
  9 14  1  0
 10  9  1  0
 10 15  1  0
 11  2  1  0
 12 23  1  0
 13 14  1  0
 16 23  1  0
 16 19  1  0
 17 21  1  0
 17 10  1  0
 18 26  1  0
 18 24  1  0
 21 13  2  0
 22  4  1  0
 24 16  1  0
 24 19  1  0
 24 22  1  0
 25 20  2  0
 25 12  1  0
 26 27  1  0
 26  5  1  0
  1 28  1  0
  3 29  1  0
  4 30  1  0
  4 31  1  0
  5 32  1  0
  7 33  1  0
  7 34  1  0
  9 35  1  0
  9 36  1  0
 10 37  1  0
 11 38  1  0
 11 39  1  0
 11 40  1  0
 12 41  1  0
 13 42  1  0
 14 43  1  0
 14 44  1  0
 17 45  1  0
 19 46  1  0
 19 47  1  0
 21 48  1  0
 22 49  1  0
 26 50  1  0
M  CHG  3   4   1   6  -1  14   1
M  END
>  <mol_id>  (72) 
2026-09-18-3war-s0-n100-refligand-0074

>  <rmsd_to_ref>  (72) 


$$$$

     RDKit          3D

 14 14  0  0  0  0  0  0  0  0999 V2000
    2.4640   19.3430   38.5960 C   0  0  0  0  0  0  0  0  0  0  0  0
    1.5700   21.4510   38.8150 O   0  0  0  0  0  1  0  0  0  0  0  0
    2.4090   20.8000   36.7260 O   0  0  0  0  0  0  0  0  0  0  0  0
    2.0960   19.0460   39.9040 C   0  0  0  0  0  0  0  0  0  0  0  0
    3.2560   17.0370   39.7080 C   0  0  0  0  0  0  0  0  0  0  0  0
    3.1370   18.2990   37.8500 C   0  0  0  0  0  0  0  0  0  0  0  0
    3.4270   17.1830   38.4090 C   0  0  0  0  0  0  0  0  0  0  0  0
    2.4340   17.8950   40.3480 C   0  0  0  0  0  0  0  0  0  0  0  0
    2.2090   20.6530   37.9310 C   0  0  0  0  0  0  0  0  0  0  0  0
    1.5420   19.7649   40.5255 H   0  0  0  0  0  0  0  0  0  0  0  0
    3.7710   16.2350   40.2571 H   0  0  0  0  0  0  0  0  0  0  0  0
    3.4011   18.4658   36.7953 H   0  0  0  0  0  0  0  0  0  0  0  0
    3.8174   16.3494   37.8068 H   0  0  0  0  0  0  0  0  0  0  0  0
    2.0257   17.5823   41.3204 H   0  0  0  0  0  0  0  0  0  0  0  0
  1  4  2  0
  3  9  2  0
  4  8  1  0
  5  8  2  0
  6  7  2  0
  6  1  1  0
  7  5  1  0
  9  1  1  0
  9  2  1  0
  4 10  1  0
  5 11  1  0
  6 12  1  0
  7 13  1  0
  8 14  1  0
M  CHG  1   2  -1
M  END
>  <mol_id>  (73) 
2026-09-18-3war-s0-n100-refligand-0076

>  <rmsd_to_ref>  (73) 


$$$$

     RDKit          3D

 15 15  0  0  0  0  0  0  0  0999 V2000
    1.9010   18.5930   39.7000 N   0  0  0  0  0  0  0  0  0  0  0  0
    3.5030   20.3750   36.3380 O   0  0  0  0  0  0  0  0  0  0  0  0
    3.1500   19.7580   37.3560 C   0  0  0  0  0  0  0  0  0  0  0  0
    1.4100   20.7100   40.4480 C   0  0  0  0  0  0  0  0  0  0  0  0
    1.4800   18.5650   41.0120 C   0  0  0  0  0  0  0  0  0  0  0  0
    1.8120   19.9080   39.4180 C   0  0  0  0  0  0  0  0  0  0  0  0
    3.4920   18.6670   37.7900 O   0  0  0  0  0  1  0  0  0  0  0  0
    2.1040   20.5670   38.0680 C   0  0  0  0  0  0  0  0  0  0  0  0
    1.2680   19.8090   41.5190 C   0  0  0  0  0  0  0  0  0  0  0  0
    1.2388   21.7966   40.4416 H   0  0  0  0  0  0  0  0  0  0  0  0
    0.5400   17.9964   41.0685 H   0  0  0  0  0  0  0  0  0  0  0  0
    2.2754   18.0932   41.6076 H   0  0  0  0  0  0  0  0  0  0  0  0
    2.4726   21.5911   38.2276 H   0  0  0  0  0  0  0  0  0  0  0  0
    1.1857   20.6089   37.4639 H   0  0  0  0  0  0  0  0  0  0  0  0
    1.0315   20.0615   42.5632 H   0  0  0  0  0  0  0  0  0  0  0  0
  1  5  1  0
  2  3  2  0
  3  7  1  0
  3  8  1  0
  4  9  2  0
  5  9  1  0
  6  1  2  0
  6  4  1  0
  8  6  1  0
  4 10  1  0
  5 11  1  0
  5 12  1  0
  8 13  1  0
  8 14  1  0
  9 15  1  0
M  CHG  1   7  -1
M  END
>  <mol_id>  (74) 
2026-09-18-3war-s0-n100-refligand-0077

>  <rmsd_to_ref>  (74) 


$$$$

     RDKit          3D

 27 28  0  0  0  0  0  0  0  0999 V2000
    0.1730   20.5490   42.1710 C   0  0  0  0  0  0  0  0  0  0  0  0
    0.8780   21.2820   41.2550 C   0  0  0  0  0  0  0  0  0  0  0  0
    2.8470   18.5320   38.4690 C   0  0  0  0  0  0  0  0  0  0  0  0
    0.3990   19.1960   42.3550 C   0  0  0  0  0  0  0  0  0  0  0  0
    0.4350   17.0350   42.8700 C   0  0  0  0  0  0  0  0  0  0  0  0
    2.4980   20.2840   36.7960 C   0  0  0  0  0  0  0  0  0  0  0  0
    1.2870   18.5180   41.4620 C   0  0  0  0  0  0  0  0  0  0  0  0
    4.5860   17.0500   38.0320 O   0  0  0  0  0  0  0  0  0  0  0  0
    1.7920   20.6560   40.4020 C   0  0  0  0  0  0  0  0  0  0  0  0
    2.0510   19.2800   40.6180 C   0  0  0  0  0  0  0  0  0  0  0  0
    2.9560   18.6010   39.8430 O   0  0  0  0  0  0  0  0  0  0  0  0
    2.5920   16.6020   37.4310 O   0  0  0  0  0  1  0  0  0  0  0  0
    1.2930   17.1660   41.8500 C   0  0  0  0  0  0  0  0  0  0  0  0
    3.4970   19.7040   37.7040 C   0  0  0  0  0  0  0  0  0  0  0  0
    3.3540   17.2530   37.9880 N   0  0  0  0  0  4  0  0  0  0  0  0
   -0.0370   18.2740   43.2370 N   0  0  0  0  0  0  0  0  0  0  0  0
    2.0200   21.3490   36.8720 O   0  0  0  0  0  0  0  0  0  0  0  0
   -0.5953   21.0497   42.7784 H   0  0  0  0  0  0  0  0  0  0  0  0
    0.7247   22.3693   41.1896 H   0  0  0  0  0  0  0  0  0  0  0  0
    1.7717   18.6183   38.2536 H   0  0  0  0  0  0  0  0  0  0  0  0
    0.1512   16.0828   43.3419 H   0  0  0  0  0  0  0  0  0  0  0  0
    2.1656   19.6522   35.9592 H   0  0  0  0  0  0  0  0  0  0  0  0
    2.2911   21.2108   39.5939 H   0  0  0  0  0  0  0  0  0  0  0  0
    1.8931   16.3626   41.3980 H   0  0  0  0  0  0  0  0  0  0  0  0
    3.8372   20.4688   38.4177 H   0  0  0  0  0  0  0  0  0  0  0  0
    4.3622   19.3428   37.1287 H   0  0  0  0  0  0  0  0  0  0  0  0
   -0.6302   18.4670   44.0566 H   0  0  0  0  0  0  0  0  0  0  0  0
  1  4  2  0
  2  1  1  0
  3 14  1  0
  3 11  1  0
  4 16  1  0
  5 16  1  0
  6 17  2  0
  6 14  1  0
  7 13  1  0
  7  4  1  0
  9 10  1  0
  9  2  2  0
 10  7  2  0
 11 10  1  0
 12 15  1  0
 13  5  2  0
 15  8  2  0
 15  3  1  0
  1 18  1  0
  2 19  1  0
  3 20  1  0
  5 21  1  0
  6 22  1  0
  9 23  1  0
 13 24  1  0
 14 25  1  0
 14 26  1  0
 16 27  1  0
M  CHG  2  12  -1  15   1
M  END
>  <mol_id>  (75) 
2026-09-18-3war-s0-n100-refligand-0078

>  <rmsd_to_ref>  (75) 


$$$$

     RDKit          3D

 31 32  0  0  0  0  0  0  0  0999 V2000
    1.0290   20.8200   40.8370 S   0  0  0  0  0  0  0  0  0  0  0  0
    2.0360   17.5390   40.2050 C   0  0  0  0  0  0  0  0  0  0  0  0
    2.1440   14.8490   40.4240 C   0  0  0  0  0  0  0  0  0  0  0  0
    3.4340   15.1260   37.9940 O   0  0  0  0  0  0  0  0  0  0  0  0
    2.5170   21.6240   36.1820 O   0  0  0  0  0  0  0  0  0  0  0  0
    3.1300   19.5000   37.1250 C   0  0  0  0  0  0  0  0  0  0  0  0
    1.3950   17.8890   43.4320 C   0  0  0  0  0  0  0  0  0  0  0  0
    1.7030   20.2050   39.3950 C   0  0  0  0  0  0  0  0  0  0  0  0
    3.0450   14.0630   40.6150 O   0  0  0  0  0  0  0  0  0  0  0  0
    1.7900   21.0820   38.3820 C   0  0  0  0  0  0  0  0  0  0  0  0
    2.4190   16.2300   39.8160 C   0  0  0  0  0  0  0  0  0  0  0  0
    3.3560   21.3300   35.1280 C   0  0  0  0  0  0  0  0  0  0  0  0
    3.5210   17.3410   37.9510 O   0  0  0  0  0  0  0  0  0  0  0  0
    3.0960   16.1130   38.6000 C   0  0  0  0  0  0  0  0  0  0  0  0
    0.9970   14.4920   40.7200 O   0  0  0  0  0  1  0  0  0  0  0  0
    2.9350   18.5890   38.1580 C   0  0  0  0  0  0  0  0  0  0  0  0
    0.6980   17.2510   42.2140 C   0  0  0  0  0  0  0  0  0  0  0  0
    2.5280   20.7740   37.2410 C   0  0  0  0  0  0  0  0  0  0  0  0
    2.2140   18.8260   39.2770 C   0  0  0  0  0  0  0  0  0  0  0  0
    1.4280   17.9530   41.2570 O   0  0  0  0  0  0  0  0  0  0  0  0
    2.7436   19.0383   36.2044 H   0  0  0  0  0  0  0  0  0  0  0  0
    4.2107   19.7045   37.1394 H   0  0  0  0  0  0  0  0  0  0  0  0
    0.9563   17.4875   44.3574 H   0  0  0  0  0  0  0  0  0  0  0  0
    2.4694   17.6549   43.4039 H   0  0  0  0  0  0  0  0  0  0  0  0
    1.2566   18.9799   43.4039 H   0  0  0  0  0  0  0  0  0  0  0  0
    1.2746   22.0512   38.4535 H   0  0  0  0  0  0  0  0  0  0  0  0
    4.3272   20.9897   35.5164 H   0  0  0  0  0  0  0  0  0  0  0  0
    2.9080   20.5353   34.5134 H   0  0  0  0  0  0  0  0  0  0  0  0
    3.5021   22.2305   34.5134 H   0  0  0  0  0  0  0  0  0  0  0  0
    0.8524   16.1635   42.1553 H   0  0  0  0  0  0  0  0  0  0  0  0
   -0.3987   17.3207   42.1650 H   0  0  0  0  0  0  0  0  0  0  0  0
  2 20  1  0
  3  9  2  0
  3 15  1  0
  4 14  2  0
  5 18  1  0
  6 18  1  0
  6 16  1  0
  8  1  2  0
 10  8  1  0
 11  2  2  0
 11  3  1  0
 12  5  1  0
 13 16  1  0
 13 14  1  0
 14 11  1  0
 16 19  2  0
 17  7  1  0
 18 10  2  0
 19  8  1  0
 19  2  1  0
 20 17  1  0
  6 21  1  0
  6 22  1  0
  7 23  1  0
  7 24  1  0
  7 25  1  0
 10 26  1  0
 12 27  1  0
 12 28  1  0
 12 29  1  0
 17 30  1  0
 17 31  1  0
M  CHG  1  15  -1
M  END
>  <mol_id>  (76) 
2026-09-18-3war-s0-n100-refligand-0079

>  <rmsd_to_ref>  (76) 


$$$$

     RDKit          3D

 20 21  0  0  0  0  0  0  0  0999 V2000
    1.1400   19.6450   41.1600 C   0  0  0  0  0  0  0  0  0  0  0  0
    3.0540   17.3020   38.7120 C   0  0  0  0  0  0  0  0  0  0  0  0
   -0.3030   19.4980   42.9420 C   0  0  0  0  0  0  0  0  0  0  0  0
    2.2180   19.9140   39.0620 N   0  0  0  0  0  0  0  0  0  0  0  0
    3.1940   18.1770   37.7350 C   0  0  0  0  0  0  0  0  0  0  0  0
    1.9430   21.4760   36.8330 O   0  0  0  0  0  1  0  0  0  0  0  0
    3.7850   20.5260   36.0060 O   0  0  0  0  0  0  0  0  0  0  0  0
    2.0260   19.0640   40.0720 C   0  0  0  0  0  0  0  0  0  0  0  0
    2.4170   17.7540   39.9360 C   0  0  0  0  0  0  0  0  0  0  0  0
    2.8140   20.5690   36.8650 C   0  0  0  0  0  0  0  0  0  0  0  0
    0.7890   20.9450   41.1690 C   0  0  0  0  0  0  0  0  0  0  0  0
    2.7830   19.5130   37.9040 C   0  0  0  0  0  0  0  0  0  0  0  0
    0.5230   18.7740   42.1290 C   0  0  0  0  0  0  0  0  0  0  0  0
   -0.3410   21.1800   42.3990 S   0  0  0  0  0  0  0  0  0  0  0  0
    3.4075   16.2660   38.6033 H   0  0  0  0  0  0  0  0  0  0  0  0
   -0.8588   19.0961   43.8020 H   0  0  0  0  0  0  0  0  0  0  0  0
    3.6361   17.8599   36.7790 H   0  0  0  0  0  0  0  0  0  0  0  0
    2.2466   17.0439   40.7586 H   0  0  0  0  0  0  0  0  0  0  0  0
    1.1734   21.7208   40.4905 H   0  0  0  0  0  0  0  0  0  0  0  0
    0.6918   17.6895   42.2028 H   0  0  0  0  0  0  0  0  0  0  0  0
  1 11  2  0
  1 13  1  0
  2  9  2  0
  4  8  2  0
  5 12  2  0
  5  2  1  0
  6 10  1  0
  7 10  2  0
  8  1  1  0
  9  8  1  0
 10 12  1  0
 11 14  1  0
 12  4  1  0
 13  3  2  0
 14  3  1  0
  2 15  1  0
  3 16  1  0
  5 17  1  0
  9 18  1  0
 11 19  1  0
 13 20  1  0
M  CHG  1   6  -1
M  END
>  <mol_id>  (77) 
2026-09-18-3war-s0-n100-refligand-0080

>  <rmsd_to_ref>  (77) 


$$$$

     RDKit          3D

 15 15  0  0  0  0  0  0  0  0999 V2000
    1.3380   20.0050   40.7750 C   0  0  0  0  0  0  0  0  0  0  0  0
    2.7370   18.2660   39.7500 C   0  0  0  0  0  0  0  0  0  0  0  0
    2.3260   20.9890   37.3100 C   0  0  0  0  0  0  0  0  0  0  0  0
    1.5210   20.7910   39.6060 C   0  0  0  0  0  0  0  0  0  0  0  0
    2.3040   20.3840   38.5050 C   0  0  0  0  0  0  0  0  0  0  0  0
    3.6720   18.6780   37.6560 O   0  0  0  0  0  0  0  0  0  0  0  0
    2.7290   20.9780   36.2800 O   0  0  0  0  0  0  0  0  0  0  0  0
    2.9120   19.0400   38.5950 C   0  0  0  0  0  0  0  0  0  0  0  0
    1.8690   18.7090   40.7330 C   0  0  0  0  0  0  0  0  0  0  0  0
    1.8109   20.5354   41.6147 H   0  0  0  0  0  0  0  0  0  0  0  0
    0.2505   19.8767   40.8789 H   0  0  0  0  0  0  0  0  0  0  0  0
    3.2823   17.3187   39.8738 H   0  0  0  0  0  0  0  0  0  0  0  0
    1.6654   21.8654   37.3843 H   0  0  0  0  0  0  0  0  0  0  0  0
    1.0247   21.7714   39.5563 H   0  0  0  0  0  0  0  0  0  0  0  0
    1.5797   18.0038   41.5261 H   0  0  0  0  0  0  0  0  0  0  0  0
  2  9  2  0
  3  5  1  0
  4  1  1  0
  5  8  1  0
  5  4  2  0
  6  8  2  0
  7  3  2  0
  8  2  1  0
  9  1  1  0
  1 10  1  0
  1 11  1  0
  2 12  1  0
  3 13  1  0
  4 14  1  0
  9 15  1  0
M  END
>  <mol_id>  (78) 
2026-09-18-3war-s0-n100-refligand-0081

>  <rmsd_to_ref>  (78) 


$$$$

     RDKit          3D

 48 49  0  0  0  0  0  0  0  0999 V2000
   -0.1520   20.9320   42.3920 C   0  0  0  0  0  0  0  0  0  0  0  0
    3.6570   17.7390   36.9900 C   0  0  0  0  0  0  0  0  0  0  0  0
    0.4870   19.8590   41.9980 C   0  0  0  0  0  0  0  0  0  0  0  0
   -0.7190   17.2600   47.9340 C   0  0  0  0  0  0  0  0  0  0  0  0
    3.2810   21.2470   35.8350 C   0  0  0  0  0  0  0  0  0  0  0  0
    2.2600   21.9280   35.6550 O   0  0  0  0  0  1  0  0  0  0  0  0
    1.3530   19.8980   40.7390 C   0  0  0  0  0  0  0  0  0  0  0  0
   -1.2240   20.0220   44.3430 C   0  0  0  0  0  0  0  0  0  0  0  0
    4.4340   21.5030   35.3550 O   0  0  0  0  0  0  0  0  0  0  0  0
    0.4530   18.7230   42.6710 C   0  0  0  0  0  0  0  0  0  0  0  0
   -0.0850   18.1390   43.7490 C   0  0  0  0  0  0  0  0  0  0  0  0
    2.6340   20.0720   37.8940 C   0  0  0  0  0  0  0  0  0  0  0  0
    3.0240   15.1180   38.1270 C   0  0  0  0  0  0  0  0  0  0  0  0
    2.5690   18.9300   38.6630 C   0  0  0  0  0  0  0  0  0  0  0  0
   -0.8510   18.6880   44.6340 C   0  0  0  0  0  0  0  0  0  0  0  0
    3.9270   18.9140   36.2470 C   0  0  0  0  0  0  0  0  0  0  0  0
    1.9700   18.4510   40.4750 N   0  0  0  0  0  0  0  0  0  0  0  0
    3.4960   14.2030   38.8060 O   0  0  0  0  0  1  0  0  0  0  0  0
    2.4380   16.3770   38.7060 C   0  0  0  0  0  0  0  0  0  0  0  0
    2.2950   18.7100   39.7870 C   0  0  0  0  0  0  0  0  0  0  0  0
    3.2180   20.0400   36.7060 C   0  0  0  0  0  0  0  0  0  0  0  0
   -0.3800   17.2980   46.4750 C   0  0  0  0  0  0  0  0  0  0  0  0
    2.9400   17.6740   38.1390 C   0  0  0  0  0  0  0  0  0  0  0  0
    1.4970   21.0520   40.1440 O   0  0  0  0  0  0  0  0  0  0  0  0
    3.1250   15.0470   36.8070 O   0  0  0  0  0  0  0  0  0  0  0  0
   -1.2610   18.1120   45.8170 N   0  0  0  0  0  4  0  0  0  0  0  0
   -0.9240   20.8830   43.4800 N   0  0  0  0  0  4  0  0  0  0  0  0
   -0.0529   21.8712   41.8280 H   0  0  0  0  0  0  0  0  0  0  0  0
    4.0654   16.7949   36.6002 H   0  0  0  0  0  0  0  0  0  0  0  0
    0.2016   17.3632   48.5271 H   0  0  0  0  0  0  0  0  0  0  0  0
   -1.4038   18.0870   48.1730 H   0  0  0  0  0  0  0  0  0  0  0  0
   -1.2037   16.3019   48.1730 H   0  0  0  0  0  0  0  0  0  0  0  0
   -1.9690   20.4025   45.0573 H   0  0  0  0  0  0  0  0  0  0  0  0
    1.1003   17.9935   42.1622 H   0  0  0  0  0  0  0  0  0  0  0  0
    0.1507   17.0749   43.8981 H   0  0  0  0  0  0  0  0  0  0  0  0
    2.2002   21.0112   38.2677 H   0  0  0  0  0  0  0  0  0  0  0  0
    4.6223   18.9438   35.3951 H   0  0  0  0  0  0  0  0  0  0  0  0
    1.9572   17.5530   40.9793 H   0  0  0  0  0  0  0  0  0  0  0  0
    1.3500   16.3423   38.5479 H   0  0  0  0  0  0  0  0  0  0  0  0
    2.7472   16.3825   39.7616 H   0  0  0  0  0  0  0  0  0  0  0  0
    3.3066   18.3640   40.0457 H   0  0  0  0  0  0  0  0  0  0  0  0
    1.3637   19.2702   39.6168 H   0  0  0  0  0  0  0  0  0  0  0  0
    0.6414   17.6858   46.3471 H   0  0  0  0  0  0  0  0  0  0  0  0
   -0.4443   16.2814   46.0599 H   0  0  0  0  0  0  0  0  0  0  0  0
   -1.5097   18.8772   46.4600 H   0  0  0  0  0  0  0  0  0  0  0  0
   -2.0335   17.4875   45.5446 H   0  0  0  0  0  0  0  0  0  0  0  0
   -0.5451   21.6493   44.0546 H   0  0  0  0  0  0  0  0  0  0  0  0
   -1.7982   20.7658   42.9481 H   0  0  0  0  0  0  0  0  0  0  0  0
  1 27  1  0
  2 23  2  0
  3  1  2  0
  3 10  1  0
  5 21  1  0
  6  5  1  0
  7  3  1  0
  8 15  2  0
  9  5  2  0
 10 11  2  0
 11 15  1  0
 12 14  2  0
 13 19  1  0
 13 18  1  0
 14 20  1  0
 15 26  1  0
 16 21  2  0
 16  2  1  0
 17  7  1  0
 20 17  1  0
 21 12  1  0
 22  4  1  0
 23 14  1  0
 23 19  1  0
 24  7  2  0
 25 13  2  0
 26 22  1  0
 27  8  1  0
  1 28  1  0
  2 29  1  0
  4 30  1  0
  4 31  1  0
  4 32  1  0
  8 33  1  0
 10 34  1  0
 11 35  1  0
 12 36  1  0
 16 37  1  0
 17 38  1  0
 19 39  1  0
 19 40  1  0
 20 41  1  0
 20 42  1  0
 22 43  1  0
 22 44  1  0
 26 45  1  0
 26 46  1  0
 27 47  1  0
 27 48  1  0
M  CHG  4   6  -1  18  -1  26   1  27   1
M  END
>  <mol_id>  (79) 
2026-09-18-3war-s0-n100-refligand-0082

>  <rmsd_to_ref>  (79) 


$$$$

     RDKit          3D

 67 72  0  0  0  0  0  0  0  0999 V2000
    2.3930   16.7600   41.2560 C   0  0  0  0  0  0  0  0  0  0  0  0
    0.5630   21.3470   41.8560 C   0  0  0  0  0  0  0  0  0  0  0  0
   -1.1280   22.5630   45.1500 F   0  0  0  0  0  0  0  0  0  0  0  0
    2.2000   14.1870   40.3930 C   0  0  0  0  0  0  0  0  0  0  0  0
   -1.1710   23.9610   43.1620 C   0  0  0  0  0  0  0  0  0  0  0  0
    0.8640   23.3120   44.2270 F   0  0  0  0  0  0  0  0  0  0  0  0
    2.7930   18.0790   37.7240 C   0  0  0  0  0  0  0  0  0  0  0  0
    2.6450   19.2970   37.2730 C   0  0  0  0  0  0  0  0  0  0  0  0
    5.3800   13.0890   37.8950 O   0  0  0  0  0  0  0  0  0  0  0  0
    2.7740   23.1430   36.8490 C   0  0  0  0  0  0  0  0  0  0  0  0
    4.0670   13.6420   37.4760 S   0  0  0  0  0  6  0  0  0  0  0  0
    3.8680   15.9180   37.3620 C   0  0  0  0  0  0  0  0  0  0  0  0
    3.2510   14.6270   38.5060 C   0  0  0  0  0  0  0  0  0  0  0  0
    2.1530   22.8200   37.1300 C   0  0  0  0  0  0  0  0  0  0  0  0
    2.6170   15.2380   39.2740 C   0  0  0  0  0  0  0  0  0  0  0  0
    2.1520   21.4240   36.5090 C   0  0  0  0  0  0  0  0  0  0  0  0
    4.6050   14.8830   36.5130 C   0  0  0  0  0  0  0  0  0  0  0  0
    3.1740   12.7340   36.7740 O   0  0  0  0  0  0  0  0  0  0  0  0
    2.0400   19.4420   39.9900 C   0  0  0  0  0  0  0  0  0  0  0  0
    2.5650   16.5980   39.9650 C   0  0  0  0  0  0  0  0  0  0  0  0
    0.5420   20.1190   45.1110 C   0  0  0  0  0  0  0  0  0  0  0  0
   -1.3370   22.4590   42.9550 C   0  0  0  0  0  0  0  0  0  0  0  0
    1.9540   19.2320   41.2690 C   0  0  0  0  0  0  0  0  0  0  0  0
    1.6350   20.6440   38.9160 C   0  0  0  0  0  0  0  0  0  0  0  0
    3.1550   19.4870   35.9810 N   0  0  0  0  0  0  0  0  0  0  0  0
    3.1470   20.9570   35.6530 O   0  0  0  0  0  0  0  0  0  0  0  0
    1.9030   17.9280   41.8270 C   0  0  0  0  0  0  0  0  0  0  0  0
    2.7950   16.8830   36.9890 C   0  0  0  0  0  0  0  0  0  0  0  0
   -0.3110   20.8980   40.8760 F   0  0  0  0  0  0  0  0  0  0  0  0
    2.3930   17.8810   39.3340 C   0  0  0  0  0  0  0  0  0  0  0  0
    2.0760   20.5000   37.5270 C   0  0  0  0  0  0  0  0  0  0  0  0
   -0.4100   22.8280   43.8510 C   0  0  0  0  0  0  0  0  0  0  0  0
    1.3090   22.3900   41.3970 F   0  0  0  0  0  0  0  0  0  0  0  0
   -0.5180   20.3620   43.9460 C   0  0  0  0  0  0  0  0  0  0  0  0
   -0.2160   21.4910   43.0510 C   0  0  0  0  0  0  0  0  0  0  0  0
    1.6280   20.2780   41.9780 C   0  0  0  0  0  0  0  0  0  0  0  0
    2.6512   15.9244   41.9232 H   0  0  0  0  0  0  0  0  0  0  0  0
    2.3729   14.6228   41.3881 H   0  0  0  0  0  0  0  0  0  0  0  0
    1.1345   13.9369   40.2824 H   0  0  0  0  0  0  0  0  0  0  0  0
    2.8042   13.2745   40.2824 H   0  0  0  0  0  0  0  0  0  0  0  0
   -1.9281   24.5499   43.7005 H   0  0  0  0  0  0  0  0  0  0  0  0
   -0.9466   24.8532   42.5591 H   0  0  0  0  0  0  0  0  0  0  0  0
    3.4186   23.4783   37.6748 H   0  0  0  0  0  0  0  0  0  0  0  0
    3.3189   22.4141   36.2312 H   0  0  0  0  0  0  0  0  0  0  0  0
    2.4901   24.0077   36.2312 H   0  0  0  0  0  0  0  0  0  0  0  0
    4.5331   16.7686   37.5720 H   0  0  0  0  0  0  0  0  0  0  0  0
    2.3444   14.5170   37.8929 H   0  0  0  0  0  0  0  0  0  0  0  0
    2.2051   22.7603   38.2271 H   0  0  0  0  0  0  0  0  0  0  0  0
    1.2388   23.3871   36.9005 H   0  0  0  0  0  0  0  0  0  0  0  0
    2.1858   15.7500   38.4012 H   0  0  0  0  0  0  0  0  0  0  0  0
    1.3004   21.5435   35.8231 H   0  0  0  0  0  0  0  0  0  0  0  0
    4.2462   14.8254   35.4748 H   0  0  0  0  0  0  0  0  0  0  0  0
    5.6835   14.9997   36.3304 H   0  0  0  0  0  0  0  0  0  0  0  0
    0.0469   20.2325   46.0867 H   0  0  0  0  0  0  0  0  0  0  0  0
    0.9547   19.1030   45.0252 H   0  0  0  0  0  0  0  0  0  0  0  0
    1.3560   20.8538   45.0252 H   0  0  0  0  0  0  0  0  0  0  0  0
   -2.2460   22.1038   42.4474 H   0  0  0  0  0  0  0  0  0  0  0  0
    1.0538   21.5205   39.2385 H   0  0  0  0  0  0  0  0  0  0  0  0
    3.4837   18.7386   35.3543 H   0  0  0  0  0  0  0  0  0  0  0  0
    1.4262   17.8322   42.8136 H   0  0  0  0  0  0  0  0  0  0  0  0
    2.9177   17.1359   35.9255 H   0  0  0  0  0  0  0  0  0  0  0  0
    1.8405   16.3834   37.2109 H   0  0  0  0  0  0  0  0  0  0  0  0
   -0.5691   19.4481   43.3360 H   0  0  0  0  0  0  0  0  0  0  0  0
   -1.4671   20.6112   44.4432 H   0  0  0  0  0  0  0  0  0  0  0  0
    0.6155   21.9200   43.6294 H   0  0  0  0  0  0  0  0  0  0  0  0
    2.5608   20.8605   42.0018 H   0  0  0  0  0  0  0  0  0  0  0  0
    1.1120   19.7099   42.7660 H   0  0  0  0  0  0  0  0  0  0  0  0
  1 27  2  0
  2 36  1  0
  2 35  1  0
  5 32  1  0
  7 30  1  0
  8 31  1  0
  8  7  2  0
 10 14  1  0
 11  9  2  0
 12 17  1  0
 12 13  1  0
 13 11  1  0
 13 15  1  0
 15 20  1  0
 15  4  1  0
 16 14  1  0
 16 31  1  0
 17 11  1  0
 18 11  2  0
 19 23  2  0
 20  1  1  0
 22 35  1  0
 22  5  1  0
 22 32  1  0
 23 27  1  0
 23 36  1  0
 24 19  1  0
 25  8  1  0
 26 25  1  0
 26 16  1  0
 28 12  1  0
 28  7  1  0
 29  2  1  0
 30 20  2  0
 30 19  1  0
 31 24  2  0
 32  6  1  0
 32  3  1  0
 33  2  1  0
 34 21  1  0
 35 34  1  0
  1 37  1  0
  4 38  1  0
  4 39  1  0
  4 40  1  0
  5 41  1  0
  5 42  1  0
 10 43  1  0
 10 44  1  0
 10 45  1  0
 12 46  1  0
 13 47  1  0
 14 48  1  0
 14 49  1  0
 15 50  1  0
 16 51  1  0
 17 52  1  0
 17 53  1  0
 21 54  1  0
 21 55  1  0
 21 56  1  0
 22 57  1  0
 24 58  1  0
 25 59  1  0
 27 60  1  0
 28 61  1  0
 28 62  1  0
 34 63  1  0
 34 64  1  0
 35 65  1  0
 36 66  1  0
 36 67  1  0
M  END
>  <mol_id>  (80) 
2026-09-18-3war-s0-n100-refligand-0083

>  <rmsd_to_ref>  (80) 


$$$$

     RDKit          3D

 52 57  0  0  0  0  0  0  0  0999 V2000
    1.6950   19.4760   37.2350 C   0  0  0  0  0  0  0  0  0  0  0  0
    2.1590   20.4350   38.3790 C   0  0  0  0  0  0  0  0  0  0  0  0
    3.5340   17.9660   41.2330 F   0  0  0  0  0  0  0  0  0  0  0  0
    1.9360   16.4370   40.1620 C   0  0  0  0  0  0  0  0  0  0  0  0
    1.7270   13.3040   41.1580 O   0  0  0  0  0  0  0  0  0  0  0  0
   -0.0320   21.6500   41.9870 C   0  0  0  0  0  0  0  0  0  0  0  0
    2.6230   12.7600   40.8510 C   0  0  0  0  0  0  0  0  0  0  0  0
    3.7390   20.0860   36.6080 F   0  0  0  0  0  0  0  0  0  0  0  0
    3.9410   17.4800   36.4750 O   0  0  0  0  0  0  0  0  0  0  0  0
    1.5190   15.3720   41.0240 C   0  0  0  0  0  0  0  0  0  0  0  0
    1.2670   21.1720   41.6800 C   0  0  0  0  0  0  0  0  0  0  0  0
    2.8980   17.8680   38.6450 C   0  0  0  0  0  0  0  0  0  0  0  0
    3.1870   18.5570   39.9790 C   0  0  0  0  0  0  0  0  0  0  0  0
   -0.9270   21.1620   43.0980 C   0  0  0  0  0  0  0  0  0  0  0  0
    1.6850   21.7910   38.6230 F   0  0  0  0  0  0  0  0  0  0  0  0
    1.1020   19.7490   42.2700 O   0  0  0  0  0  0  0  0  0  0  0  0
    2.2170   21.1590   36.1510 F   0  0  0  0  0  0  0  0  0  0  0  0
    1.2190   19.9340   40.8770 C   0  0  0  0  0  0  0  0  0  0  0  0
    2.5280   14.1800   40.5270 C   0  0  0  0  0  0  0  0  0  0  0  0
    2.5050   20.1860   36.9700 C   0  0  0  0  0  0  0  0  0  0  0  0
   -0.9010   20.6410   41.9110 C   0  0  0  0  0  0  0  0  0  0  0  0
   -0.0020   19.1520   42.3900 O   0  0  0  0  0  0  0  0  0  0  0  0
    3.2840   15.5240   38.7310 C   0  0  0  0  0  0  0  0  0  0  0  0
    1.5100   20.0850   39.6320 C   0  0  0  0  0  0  0  0  0  0  0  0
   -1.0370   19.9450   44.3180 O   0  0  0  0  0  0  0  0  0  0  0  0
    1.7010   18.6650   40.3680 C   0  0  0  0  0  0  0  0  0  0  0  0
    2.7060   16.4810   39.1480 C   0  0  0  0  0  0  0  0  0  0  0  0
    1.0870   17.5160   40.5810 O   0  0  0  0  0  0  0  0  0  0  0  0
    3.5540   17.8880   37.3630 C   0  0  0  0  0  0  0  0  0  0  0  0
    3.1640   14.4390   39.3470 C   0  0  0  0  0  0  0  0  0  0  0  0
    1.6136   19.4046   38.3297 H   0  0  0  0  0  0  0  0  0  0  0  0
    0.7421   19.8351   36.8191 H   0  0  0  0  0  0  0  0  0  0  0  0
    1.9261   18.4842   36.8191 H   0  0  0  0  0  0  0  0  0  0  0  0
    2.9448   19.6725   38.2734 H   0  0  0  0  0  0  0  0  0  0  0  0
    0.2049   22.6710   41.6532 H   0  0  0  0  0  0  0  0  0  0  0  0
    3.3424   12.4208   41.6109 H   0  0  0  0  0  0  0  0  0  0  0  0
    2.8045   11.8483   40.2629 H   0  0  0  0  0  0  0  0  0  0  0  0
    4.6052   16.7798   36.6956 H   0  0  0  0  0  0  0  0  0  0  0  0
    0.7405   15.3580   41.8010 H   0  0  0  0  0  0  0  0  0  0  0  0
    1.8058   21.9445   41.1118 H   0  0  0  0  0  0  0  0  0  0  0  0
    1.7814   20.9468   42.6259 H   0  0  0  0  0  0  0  0  0  0  0  0
    2.1580   18.5395   38.1850 H   0  0  0  0  0  0  0  0  0  0  0  0
    3.9981   19.2638   39.7497 H   0  0  0  0  0  0  0  0  0  0  0  0
   -1.3766   21.8022   43.8713 H   0  0  0  0  0  0  0  0  0  0  0  0
   -1.6283   20.4267   41.1141 H   0  0  0  0  0  0  0  0  0  0  0  0
    3.9074   15.5924   37.8273 H   0  0  0  0  0  0  0  0  0  0  0  0
    1.1382   20.9166   39.0154 H   0  0  0  0  0  0  0  0  0  0  0  0
   -0.9987   20.3692   45.2117 H   0  0  0  0  0  0  0  0  0  0  0  0
    4.4803   18.3783   37.6970 H   0  0  0  0  0  0  0  0  0  0  0  0
    2.5569   17.8303   36.9021 H   0  0  0  0  0  0  0  0  0  0  0  0
    4.1988   14.1073   39.5174 H   0  0  0  0  0  0  0  0  0  0  0  0
    2.4364   13.9617   38.6741 H   0  0  0  0  0  0  0  0  0  0  0  0
  2 15  1  0
  4 28  1  0
  4 10  2  0
  6 11  1  0
  6 14  1  0
  7  5  1  0
  8 20  1  0
  9 29  1  0
 12 29  1  0
 12 27  1  0
 12 13  1  0
 13 26  1  0
 13  3  1  0
 14 25  1  0
 16 22  1  0
 17 20  1  0
 18 11  1  0
 18 16  1  0
 19 30  1  0
 19  7  1  0
 19 10  1  0
 19  5  1  0
 20  1  1  0
 20  2  1  0
 21  6  1  0
 21 22  1  0
 21 14  1  0
 23 27  2  0
 23 30  1  0
 24  2  1  0
 24 26  1  0
 24 18  1  0
 26 28  1  0
 26 18  1  0
 27  4  1  0
  1 31  1  0
  1 32  1  0
  1 33  1  0
  2 34  1  0
  6 35  1  0
  7 36  1  0
  7 37  1  0
  9 38  1  0
 10 39  1  0
 11 40  1  0
 11 41  1  0
 12 42  1  0
 13 43  1  0
 14 44  1  0
 21 45  1  0
 23 46  1  0
 24 47  1  0
 25 48  1  0
 29 49  1  0
 29 50  1  0
 30 51  1  0
 30 52  1  0
M  END
>  <mol_id>  (81) 
2026-09-18-3war-s0-n100-refligand-0084

>  <rmsd_to_ref>  (81) 


$$$$

     RDKit          3D

 18 17  0  0  0  0  0  0  0  0999 V2000
    1.2060   21.0820   40.9160 C   0  0  0  0  0  0  0  0  0  0  0  0
    2.7950   19.8480   39.2150 C   0  0  0  0  0  0  0  0  0  0  0  0
    3.6970   18.0380   37.8820 C   0  0  0  0  0  0  0  0  0  0  0  0
    2.6840   19.2200   37.7780 C   0  0  0  0  0  0  0  0  0  0  0  0
    3.4280   16.9410   37.0000 O   0  0  0  0  0  0  0  0  0  0  0  0
    1.6920   20.9760   39.2710 C   0  0  0  0  0  0  0  0  0  0  0  0
    2.0722   20.8931   41.5671 H   0  0  0  0  0  0  0  0  0  0  0  0
    0.8088   22.0879   41.1169 H   0  0  0  0  0  0  0  0  0  0  0  0
    0.4260   20.3329   41.1169 H   0  0  0  0  0  0  0  0  0  0  0  0
    3.7947   20.2803   39.3690 H   0  0  0  0  0  0  0  0  0  0  0  0
    2.6464   19.0937   40.0017 H   0  0  0  0  0  0  0  0  0  0  0  0
    4.7005   18.4252   37.6515 H   0  0  0  0  0  0  0  0  0  0  0  0
    3.6106   17.6432   38.9051 H   0  0  0  0  0  0  0  0  0  0  0  0
    2.9821   19.9386   37.0003 H   0  0  0  0  0  0  0  0  0  0  0  0
    1.6649   18.9165   37.4965 H   0  0  0  0  0  0  0  0  0  0  0  0
    3.2292   16.1305   37.5326 H   0  0  0  0  0  0  0  0  0  0  0  0
    2.1095   21.9360   38.9332 H   0  0  0  0  0  0  0  0  0  0  0  0
    0.8416   20.7410   38.6140 H   0  0  0  0  0  0  0  0  0  0  0  0
  2  6  1  0
  4  3  1  0
  4  2  1  0
  5  3  1  0
  6  1  1  0
  1  7  1  0
  1  8  1  0
  1  9  1  0
  2 10  1  0
  2 11  1  0
  3 12  1  0
  3 13  1  0
  4 14  1  0
  4 15  1  0
  5 16  1  0
  6 17  1  0
  6 18  1  0
M  END
>  <mol_id>  (82) 
2026-09-18-3war-s0-n100-refligand-0085

>  <rmsd_to_ref>  (82) 


$$$$

     RDKit          3D

 46 50  0  0  0  0  0  0  0  0999 V2000
    2.8150   15.0350   38.9580 C   0  0  0  0  0  0  0  0  0  0  0  0
   -0.4770   20.3320   43.7210 N   0  0  0  0  0  0  0  0  0  0  0  0
    2.5960   19.5360   38.7690 O   0  0  0  0  0  0  0  0  0  0  0  0
    1.6750   17.3080   41.3920 C   0  0  0  0  0  0  0  0  0  0  0  0
    3.3700   14.8480   37.7620 C   0  0  0  0  0  0  0  0  0  0  0  0
    1.9240   21.5580   37.9760 O   0  0  0  0  0  0  0  0  0  0  0  0
    3.5210   13.3690   37.5420 O   0  0  0  0  0  0  0  0  0  0  0  0
    3.3890   17.2720   37.6550 C   0  0  0  0  0  0  0  0  0  0  0  0
    0.7140   21.3420   40.6620 C   0  0  0  0  0  0  0  0  0  0  0  0
    1.0540   18.1730   42.2000 C   0  0  0  0  0  0  0  0  0  0  0  0
    2.3760   16.1080   39.5180 C   0  0  0  0  0  0  0  0  0  0  0  0
   -0.1630   19.3750   44.7020 N   0  0  0  0  0  0  0  0  0  0  0  0
    3.7340   12.7960   36.3280 C   0  0  0  0  0  0  0  0  0  0  0  0
    2.4370   20.5140   37.8030 C   0  0  0  0  0  0  0  0  0  0  0  0
    2.9930   19.8940   36.4770 C   0  0  0  0  0  0  0  0  0  0  0  0
    0.0770   21.5230   41.7190 N   0  0  0  0  0  0  0  0  0  0  0  0
    3.6000   18.5150   36.7800 N   0  0  0  0  0  0  0  0  0  0  0  0
    0.0950   20.4220   42.4760 C   0  0  0  0  0  0  0  0  0  0  0  0
    3.6970   16.0890   37.1120 C   0  0  0  0  0  0  0  0  0  0  0  0
    2.8050   17.2810   38.9960 C   0  0  0  0  0  0  0  0  0  0  0  0
    2.0520   17.8290   40.0690 C   0  0  0  0  0  0  0  0  0  0  0  0
    5.1650   12.3360   36.2880 C   0  0  0  0  0  0  0  0  0  0  0  0
    1.9410   19.1290   39.9250 C   0  0  0  0  0  0  0  0  0  0  0  0
    0.7250   19.4280   41.8320 C   0  0  0  0  0  0  0  0  0  0  0  0
    1.5940   15.9470   41.9140 C   0  0  0  0  0  0  0  0  0  0  0  0
    1.1240   19.9780   40.6670 C   0  0  0  0  0  0  0  0  0  0  0  0
    2.7154   14.1242   39.5667 H   0  0  0  0  0  0  0  0  0  0  0  0
   -1.1998   21.0268   43.9571 H   0  0  0  0  0  0  0  0  0  0  0  0
    0.9187   22.0884   39.8803 H   0  0  0  0  0  0  0  0  0  0  0  0
    0.7980   17.8441   43.2180 H   0  0  0  0  0  0  0  0  0  0  0  0
   -0.2976   19.7851   45.6372 H   0  0  0  0  0  0  0  0  0  0  0  0
   -0.7798   18.5572   44.5937 H   0  0  0  0  0  0  0  0  0  0  0  0
    3.0599   11.9370   36.1951 H   0  0  0  0  0  0  0  0  0  0  0  0
    3.5368   13.5164   35.5205 H   0  0  0  0  0  0  0  0  0  0  0  0
    3.7680   20.5534   36.0591 H   0  0  0  0  0  0  0  0  0  0  0  0
    2.1761   19.7863   35.7482 H   0  0  0  0  0  0  0  0  0  0  0  0
    4.4361   18.3779   36.1943 H   0  0  0  0  0  0  0  0  0  0  0  0
    4.2146   16.0644   36.1417 H   0  0  0  0  0  0  0  0  0  0  0  0
    5.5402   12.2154   37.3150 H   0  0  0  0  0  0  0  0  0  0  0  0
    5.2260   11.3730   35.7599 H   0  0  0  0  0  0  0  0  0  0  0  0
    5.7757   13.0831   35.7599 H   0  0  0  0  0  0  0  0  0  0  0  0
    2.1018   19.5866   40.9123 H   0  0  0  0  0  0  0  0  0  0  0  0
   -0.2402   19.0632   41.4508 H   0  0  0  0  0  0  0  0  0  0  0  0
    1.5957   15.9753   43.0136 H   0  0  0  0  0  0  0  0  0  0  0  0
    0.6661   15.4735   41.5608 H   0  0  0  0  0  0  0  0  0  0  0  0
    2.4592   15.3667   41.5608 H   0  0  0  0  0  0  0  0  0  0  0  0
  1 11  2  0
  2 12  1  0
  4 25  1  0
  4 10  2  0
  5  1  1  0
  7  5  1  0
  8 20  2  0
  9 26  2  0
  9 16  1  0
 11 21  1  0
 13  7  1  0
 14  6  2  0
 14  3  1  0
 15 17  1  0
 15 14  1  0
 16 18  2  0
 17  8  1  0
 18  2  1  0
 19  8  1  0
 19  5  2  0
 20 11  1  0
 21 20  1  0
 21  4  1  0
 22 13  1  0
 23  3  1  0
 23 21  1  0
 23 26  1  0
 24 10  1  0
 24 18  1  0
 26 24  1  0
  1 27  1  0
  2 28  1  0
  9 29  1  0
 10 30  1  0
 12 31  1  0
 12 32  1  0
 13 33  1  0
 13 34  1  0
 15 35  1  0
 15 36  1  0
 17 37  1  0
 19 38  1  0
 22 39  1  0
 22 40  1  0
 22 41  1  0
 23 42  1  0
 24 43  1  0
 25 44  1  0
 25 45  1  0
 25 46  1  0
M  END
>  <mol_id>  (83) 
2026-09-18-3war-s0-n100-refligand-0086

>  <rmsd_to_ref>  (83) 


$$$$

     RDKit          3D

 49 54  0  0  0  0  0  0  0  0999 V2000
    0.9740   17.1990   42.2770 C   0  0  0  0  0  0  0  0  0  0  0  0
    0.6840   21.0920   41.3480 C   0  0  0  0  0  0  0  0  0  0  0  0
    3.4920   19.1710   36.1630 C   0  0  0  0  0  0  0  0  0  0  0  0
    0.1760   20.6770   42.5600 C   0  0  0  0  0  0  0  0  0  0  0  0
    1.9920   17.8410   39.7010 C   0  0  0  0  0  0  0  0  0  0  0  0
    3.4690   13.4060   38.9610 C   0  0  0  0  0  0  0  0  0  0  0  0
   -1.1540   20.8320   44.8370 O   0  0  0  0  0  0  0  0  0  0  0  0
    3.8010   15.3450   37.3950 C   0  0  0  0  0  0  0  0  0  0  0  0
    3.1760   16.2120   38.3300 C   0  0  0  0  0  0  0  0  0  0  0  0
    3.0080   21.5160   36.9420 C   0  0  0  0  0  0  0  0  0  0  0  0
    1.4510   18.8600   40.6870 C   0  0  0  0  0  0  0  0  0  0  0  0
    0.9960   18.5160   41.8330 C   0  0  0  0  0  0  0  0  0  0  0  0
    2.0830   16.5240   40.2700 C   0  0  0  0  0  0  0  0  0  0  0  0
    4.5630   13.1040   36.7070 O   0  0  0  0  0  0  0  0  0  0  0  0
    4.0030   13.9700   37.7110 C   0  0  0  0  0  0  0  0  0  0  0  0
   -1.1740   22.4120   43.7400 N   0  0  0  0  0  0  0  0  0  0  0  0
    2.3960   20.4120   39.2210 C   0  0  0  0  0  0  0  0  0  0  0  0
    2.7970   14.3060   39.8810 C   0  0  0  0  0  0  0  0  0  0  0  0
    2.3700   19.6320   38.2800 C   0  0  0  0  0  0  0  0  0  0  0  0
    0.5000   19.2460   42.7000 O   0  0  0  0  0  0  0  0  0  0  0  0
    2.6230   15.5650   39.4590 C   0  0  0  0  0  0  0  0  0  0  0  0
    1.5090   16.2230   41.5550 C   0  0  0  0  0  0  0  0  0  0  0  0
    1.4000   21.1490   40.3540 C   0  0  0  0  0  0  0  0  0  0  0  0
   -0.8040   21.0540   43.5940 C   0  0  0  0  0  0  0  0  0  0  0  0
    3.4950   21.1020   34.9440 F   0  0  0  0  0  0  0  0  0  0  0  0
    3.3900   20.5910   36.0060 C   0  0  0  0  0  0  0  0  0  0  0  0
    2.9880   18.5010   37.2470 C   0  0  0  0  0  0  0  0  0  0  0  0
    2.7390   17.7460   38.3420 C   0  0  0  0  0  0  0  0  0  0  0  0
    2.3670   20.6370   37.9160 C   0  0  0  0  0  0  0  0  0  0  0  0
    0.5050   16.9620   43.2434 H   0  0  0  0  0  0  0  0  0  0  0  0
    4.5671   18.9399   36.1372 H   0  0  0  0  0  0  0  0  0  0  0  0
    2.8333   18.8132   35.3580 H   0  0  0  0  0  0  0  0  0  0  0  0
    3.5757   12.3357   39.1912 H   0  0  0  0  0  0  0  0  0  0  0  0
    4.1310   15.7368   36.4216 H   0  0  0  0  0  0  0  0  0  0  0  0
    4.0312   16.6166   37.7689 H   0  0  0  0  0  0  0  0  0  0  0  0
    2.3017   22.2499   36.5268 H   0  0  0  0  0  0  0  0  0  0  0  0
    3.8238   22.1360   37.3421 H   0  0  0  0  0  0  0  0  0  0  0  0
    1.4498   19.9243   40.4090 H   0  0  0  0  0  0  0  0  0  0  0  0
    4.7112   12.1457   36.9066 H   0  0  0  0  0  0  0  0  0  0  0  0
   -1.8582   22.6848   44.4600 H   0  0  0  0  0  0  0  0  0  0  0  0
   -0.7591   23.1277   43.1263 H   0  0  0  0  0  0  0  0  0  0  0  0
    2.9542   20.4376   40.1685 H   0  0  0  0  0  0  0  0  0  0  0  0
    2.4500   13.9722   40.8700 H   0  0  0  0  0  0  0  0  0  0  0  0
    1.9362   18.6447   38.4968 H   0  0  0  0  0  0  0  0  0  0  0  0
    1.5138   15.1910   41.9358 H   0  0  0  0  0  0  0  0  0  0  0  0
    1.3795   22.2082   40.0579 H   0  0  0  0  0  0  0  0  0  0  0  0
    4.0565   19.9431   36.5942 H   0  0  0  0  0  0  0  0  0  0  0  0
    3.2179   17.7574   36.4697 H   0  0  0  0  0  0  0  0  0  0  0  0
    1.8315   21.2239   37.1552 H   0  0  0  0  0  0  0  0  0  0  0  0
  2  4  2  0
  3 27  1  0
  4 20  1  0
  4 24  1  0
  5 13  1  0
  5 11  1  0
  6 18  2  0
  8 15  2  0
  9  8  1  0
  9 28  1  0
  9 21  1  0
 10 29  1  0
 11 12  2  0
 12  1  1  0
 12 20  1  0
 13 22  1  0
 14 15  1  0
 15  6  1  0
 17 23  1  0
 19 17  1  0
 21 18  1  0
 21 13  2  0
 22  1  2  0
 23  2  2  0
 24 16  1  0
 24  7  2  0
 25 26  1  0
 26  3  1  0
 26 10  1  0
 27 19  1  0
 27 28  1  0
 28  5  2  0
 29 19  1  0
 29 17  1  0
  1 30  1  0
  3 31  1  0
  3 32  1  0
  6 33  1  0
  8 34  1  0
  9 35  1  0
 10 36  1  0
 10 37  1  0
 11 38  1  0
 14 39  1  0
 16 40  1  0
 16 41  1  0
 17 42  1  0
 18 43  1  0
 19 44  1  0
 22 45  1  0
 23 46  1  0
 26 47  1  0
 27 48  1  0
 29 49  1  0
M  END
>  <mol_id>  (84) 
2026-09-18-3war-s0-n100-refligand-0087

>  <rmsd_to_ref>  (84) 


$$$$

     RDKit          3D

 28 30  0  0  0  0  0  0  0  0999 V2000
    2.9780   17.5840   37.9340 C   0  0  0  0  0  0  0  0  0  0  0  0
    3.4670   16.0290   37.8190 S   0  0  0  0  0  0  0  0  0  0  0  0
    2.7460   15.7000   39.3180 C   0  0  0  0  0  0  0  0  0  0  0  0
   -0.2310   21.2150   42.4460 C   0  0  0  0  0  0  0  0  0  0  0  0
    0.6450   20.9300   41.4000 C   0  0  0  0  0  0  0  0  0  0  0  0
    2.2580   19.1380   39.3990 C   0  0  0  0  0  0  0  0  0  0  0  0
    2.3320   20.2280   38.5460 C   0  0  0  0  0  0  0  0  0  0  0  0
    2.3810   17.8690   39.0750 C   0  0  0  0  0  0  0  0  0  0  0  0
    2.1940   16.7030   39.8350 N   0  0  0  0  0  0  0  0  0  0  0  0
    1.1520   19.6180   41.3160 C   0  0  0  0  0  0  0  0  0  0  0  0
    3.2450   18.6370   37.1180 C   0  0  0  0  0  0  0  0  0  0  0  0
    2.8860   19.8250   37.3370 C   0  0  0  0  0  0  0  0  0  0  0  0
   -0.1360   18.9340   43.1250 C   0  0  0  0  0  0  0  0  0  0  0  0
   -0.6490   20.2010   43.2980 C   0  0  0  0  0  0  0  0  0  0  0  0
    1.9910   19.2150   40.6400 O   0  0  0  0  0  0  0  0  0  0  0  0
    2.8250   14.4920   39.9120 N   0  0  0  0  0  0  0  0  0  0  0  0
    2.9130   20.7380   36.4030 O   0  0  0  0  0  0  0  0  0  0  0  0
    0.6990   18.6280   42.1280 C   0  0  0  0  0  0  0  0  0  0  0  0
   -0.5914   22.2433   42.5967 H   0  0  0  0  0  0  0  0  0  0  0  0
    0.9297   21.7000   40.6679 H   0  0  0  0  0  0  0  0  0  0  0  0
    2.0042   21.2498   38.7877 H   0  0  0  0  0  0  0  0  0  0  0  0
    3.8162   18.4381   36.1992 H   0  0  0  0  0  0  0  0  0  0  0  0
   -0.4248   18.1446   43.8346 H   0  0  0  0  0  0  0  0  0  0  0  0
   -1.3769   20.4058   44.0969 H   0  0  0  0  0  0  0  0  0  0  0  0
    2.3717   14.3357   40.8236 H   0  0  0  0  0  0  0  0  0  0  0  0
    3.3386   13.7256   39.4541 H   0  0  0  0  0  0  0  0  0  0  0  0
    2.6245   21.6629   36.6064 H   0  0  0  0  0  0  0  0  0  0  0  0
    1.0157   17.5870   41.9667 H   0  0  0  0  0  0  0  0  0  0  0  0
  1  8  2  0
  2  1  1  0
  2  3  1  0
  3  9  2  0
  3 16  1  0
  4 14  2  0
  5  4  1  0
  6 15  1  0
  7  6  2  0
  8  6  1  0
  8  9  1  0
 10  5  2  0
 10 18  1  0
 11 12  2  0
 11  1  1  0
 12  7  1  0
 13 14  1  0
 15 10  1  0
 17 12  1  0
 18 13  2  0
  4 19  1  0
  5 20  1  0
  7 21  1  0
 11 22  1  0
 13 23  1  0
 14 24  1  0
 16 25  1  0
 16 26  1  0
 17 27  1  0
 18 28  1  0
M  END
>  <mol_id>  (85) 
2026-09-18-3war-s0-n100-refligand-0088

>  <rmsd_to_ref>  (85) 


$$$$

     RDKit          3D

 21 21  0  0  0  0  0  0  0  0999 V2000
    2.9740   16.4730   39.3630 O   0  0  0  0  0  0  0  0  0  0  0  0
    2.2810   20.4160   38.5970 C   0  0  0  0  0  0  0  0  0  0  0  0
    3.2490   18.3210   37.9340 C   0  0  0  0  0  0  0  0  0  0  0  0
    1.9230   18.4500   40.0320 C   0  0  0  0  0  0  0  0  0  0  0  0
    2.8080   17.6850   39.1520 C   0  0  0  0  0  0  0  0  0  0  0  0
    1.7150   19.8060   39.7810 C   0  0  0  0  0  0  0  0  0  0  0  0
    1.1540   17.7900   41.2160 C   0  0  0  0  0  0  0  0  0  0  0  0
    3.0020   19.7010   37.7180 C   0  0  0  0  0  0  0  0  0  0  0  0
    1.6790   18.2620   42.4330 O   0  0  0  0  0  0  0  0  0  0  0  0
    0.8780   20.7140   40.6560 C   0  0  0  0  0  0  0  0  0  0  0  0
    3.2790   20.2740   36.5700 O   0  0  0  0  0  0  0  0  0  0  0  0
    2.1172   21.4881   38.4131 H   0  0  0  0  0  0  0  0  0  0  0  0
    4.3390   18.1829   37.8819 H   0  0  0  0  0  0  0  0  0  0  0  0
    2.6361   17.8335   37.1615 H   0  0  0  0  0  0  0  0  0  0  0  0
    0.0870   18.0494   41.1511 H   0  0  0  0  0  0  0  0  0  0  0  0
    1.2676   16.6971   41.1652 H   0  0  0  0  0  0  0  0  0  0  0  0
    1.2017   17.8329   43.1868 H   0  0  0  0  0  0  0  0  0  0  0  0
    1.0816   20.4931   41.7142 H   0  0  0  0  0  0  0  0  0  0  0  0
    1.1324   21.7631   40.4449 H   0  0  0  0  0  0  0  0  0  0  0  0
   -0.1883   20.5457   40.4449 H   0  0  0  0  0  0  0  0  0  0  0  0
    3.0981   21.2389   36.4420 H   0  0  0  0  0  0  0  0  0  0  0  0
  2  6  1  0
  3  5  1  0
  4  7  1  0
  5  1  2  0
  5  4  1  0
  6  4  2  0
  6 10  1  0
  7  9  1  0
  8  3  1  0
  8  2  2  0
 11  8  1  0
  2 12  1  0
  3 13  1  0
  3 14  1  0
  7 15  1  0
  7 16  1  0
  9 17  1  0
 10 18  1  0
 10 19  1  0
 10 20  1  0
 11 21  1  0
M  END
>  <mol_id>  (86) 
2026-09-18-3war-s0-n100-refligand-0089

>  <rmsd_to_ref>  (86) 


$$$$

     RDKit          3D

 11 10  0  0  0  0  0  0  0  0999 V2000
    2.6740   20.0540   37.7050 C   0  0  0  0  0  0  0  0  0  0  0  0
    2.5630   18.6390   39.8060 C   0  0  0  0  0  0  0  0  0  0  0  0
    1.2260   20.9680   41.1130 O   0  0  0  0  0  0  0  0  0  0  0  0
    1.5700   20.9390   39.7750 C   0  0  0  0  0  0  0  0  0  0  0  0
    3.5360   19.2590   37.2350 O   0  0  0  0  0  1  0  0  0  0  0  0
    2.1330   20.9720   37.0610 O   0  0  0  0  0  0  0  0  0  0  0  0
    3.0800   17.6580   39.2460 O   0  0  0  0  0  0  0  0  0  0  0  0
    2.2290   19.9460   39.1280 C   0  0  0  0  0  0  0  0  0  0  0  0
    2.2000   18.5540   40.9760 O   0  0  0  0  0  1  0  0  0  0  0  0
    0.7422   21.7485   41.4829 H   0  0  0  0  0  0  0  0  0  0  0  0
    1.2791   21.8119   39.1722 H   0  0  0  0  0  0  0  0  0  0  0  0
  1  8  1  0
  2  9  1  0
  4  3  1  0
  5  1  1  0
  6  1  2  0
  7  2  2  0
  8  4  2  3
  8  2  1  0
  3 10  1  0
  4 11  1  0
M  CHG  2   5  -1   9  -1
M  END
>  <mol_id>  (87) 
2026-09-18-3war-s0-n100-refligand-0090

>  <rmsd_to_ref>  (87) 


$$$$

     RDKit          3D

 29 32  0  0  0  0  0  0  0  0999 V2000
    1.3500   19.2170   41.0550 C   0  0  0  0  0  0  0  0  0  0  0  0
    2.0890   14.6660   40.7830 C   0  0  0  0  0  0  0  0  0  0  0  0
    3.2490   14.5950   38.6650 C   0  0  0  0  0  0  0  0  0  0  0  0
    2.4360   16.7080   39.6310 C   0  0  0  0  0  0  0  0  0  0  0  0
    3.1440   19.2090   37.1460 N   0  0  0  0  0  0  0  0  0  0  0  0
    1.8800   19.1290   39.7660 C   0  0  0  0  0  0  0  0  0  0  0  0
    3.0230   15.9520   38.5250 C   0  0  0  0  0  0  0  0  0  0  0  0
    1.4370   21.5100   39.4910 C   0  0  0  0  0  0  0  0  0  0  0  0
    2.0050   20.3480   38.9580 C   0  0  0  0  0  0  0  0  0  0  0  0
    3.3720   16.7870   37.5410 N   0  0  0  0  0  0  0  0  0  0  0  0
    0.8770   20.3710   41.5140 C   0  0  0  0  0  0  0  0  0  0  0  0
    1.8430   16.0310   40.7540 C   0  0  0  0  0  0  0  0  0  0  0  0
    3.0100   18.0490   37.8570 C   0  0  0  0  0  0  0  0  0  0  0  0
    0.8910   21.5270   40.7210 C   0  0  0  0  0  0  0  0  0  0  0  0
    2.3670   17.9700   39.2110 C   0  0  0  0  0  0  0  0  0  0  0  0
    2.6960   13.9870   39.8250 C   0  0  0  0  0  0  0  0  0  0  0  0
    2.6380   20.2770   37.6590 C   0  0  0  0  0  0  0  0  0  0  0  0
    1.3238   18.3234   41.6960 H   0  0  0  0  0  0  0  0  0  0  0  0
    1.7540   14.1071   41.6692 H   0  0  0  0  0  0  0  0  0  0  0  0
    3.8225   14.0202   37.9230 H   0  0  0  0  0  0  0  0  0  0  0  0
    1.4366   22.4317   38.8906 H   0  0  0  0  0  0  0  0  0  0  0  0
    3.8469   16.5088   36.6704 H   0  0  0  0  0  0  0  0  0  0  0  0
    0.4674   20.4200   42.5337 H   0  0  0  0  0  0  0  0  0  0  0  0
    1.2481   16.5493   41.5205 H   0  0  0  0  0  0  0  0  0  0  0  0
    0.4510   22.4579   41.1082 H   0  0  0  0  0  0  0  0  0  0  0  0
    1.3965   17.7595   38.7379 H   0  0  0  0  0  0  0  0  0  0  0  0
    2.7775   12.8951   39.9308 H   0  0  0  0  0  0  0  0  0  0  0  0
    3.4609   21.0062   37.6922 H   0  0  0  0  0  0  0  0  0  0  0  0
    1.7671   20.4219   37.0029 H   0  0  0  0  0  0  0  0  0  0  0  0
  1 11  2  0
  3 16  1  0
  4 12  2  0
  5 17  1  0
  5 13  2  0
  6  1  1  0
  7  3  2  0
  7  4  1  0
  8 14  2  0
  9  8  1  0
  9  6  2  0
 10 13  1  0
 10  7  1  0
 12  2  1  0
 14 11  1  0
 15 13  1  0
 15  4  1  0
 15  6  1  0
 16  2  2  0
 17  9  1  0
  1 18  1  0
  2 19  1  0
  3 20  1  0
  8 21  1  0
 10 22  1  0
 11 23  1  0
 12 24  1  0
 14 25  1  0
 15 26  1  0
 16 27  1  0
 17 28  1  0
 17 29  1  0
M  END
>  <mol_id>  (88) 
2026-09-18-3war-s0-n100-refligand-0091

>  <rmsd_to_ref>  (88) 


$$$$

     RDKit          3D

 43 45  0  0  0  0  0  0  0  0999 V2000
    3.0520   15.7080   38.2820 C   0  0  0  0  0  0  0  0  0  0  0  0
    0.6810   21.5960   41.2910 N   0  0  0  0  0  0  0  0  0  0  0  0
    2.2250   15.0810   41.0440 C   0  0  0  0  0  0  0  0  0  0  0  0
    1.9490   16.3920   40.6490 O   0  0  0  0  0  0  0  0  0  0  0  0
    4.4360   12.4320   40.7170 O   0  0  0  0  0  0  0  0  0  0  0  0
    1.1810   18.0180   41.8090 C   0  0  0  0  0  0  0  0  0  0  0  0
    2.2640   11.9240   41.0530 O   0  0  0  0  0  1  0  0  0  0  0  0
    3.2350   12.8620   40.7150 C   0  0  0  0  0  0  0  0  0  0  0  0
    3.7130   21.3110   34.8820 N   0  0  0  0  0  4  0  0  0  0  0  0
    1.6510   14.8650   42.2060 O   0  0  0  0  0  1  0  0  0  0  0  0
    3.3470   14.4560   38.8190 C   0  0  0  0  0  0  0  0  0  0  0  0
    1.7220   20.3860   39.7560 C   0  0  0  0  0  0  0  0  0  0  0  0
    0.3160   17.7910   42.8580 C   0  0  0  0  0  0  0  0  0  0  0  0
   -0.1870   20.1470   42.9040 N   0  0  0  0  0  0  0  0  0  0  0  0
    3.3670   18.3780   37.0930 C   0  0  0  0  0  0  0  0  0  0  0  0
    3.3990   20.3340   35.8440 C   0  0  0  0  0  0  0  0  0  0  0  0
    2.8410   19.4880   37.7580 C   0  0  0  0  0  0  0  0  0  0  0  0
   -0.3110   18.8730   43.4040 C   0  0  0  0  0  0  0  0  0  0  0  0
    3.1970   16.7990   37.5560 C   0  0  0  0  0  0  0  0  0  0  0  0
    2.7340   20.5400   36.9390 N   0  0  0  0  0  4  0  0  0  0  0  0
    2.4950   19.4860   39.0740 C   0  0  0  0  0  0  0  0  0  0  0  0
    1.3110   19.3310   41.1190 C   0  0  0  0  0  0  0  0  0  0  0  0
    2.9050   14.1550   40.1900 C   0  0  0  0  0  0  0  0  0  0  0  0
    2.5140   18.6170   39.6720 O   0  0  0  0  0  0  0  0  0  0  0  0
    0.6240   20.3450   41.8330 C   0  0  0  0  0  0  0  0  0  0  0  0
    1.3220   21.5750   40.1030 C   0  0  0  0  0  0  0  0  0  0  0  0
    4.0640   18.7930   35.7220 S   0  0  0  0  0  0  0  0  0  0  0  0
    1.8092   17.1840   41.4629 H   0  0  0  0  0  0  0  0  0  0  0  0
    3.9929   22.1818   35.3557 H   0  0  0  0  0  0  0  0  0  0  0  0
    4.4887   20.9760   34.2930 H   0  0  0  0  0  0  0  0  0  0  0  0
    2.8874   21.4907   34.2930 H   0  0  0  0  0  0  0  0  0  0  0  0
    3.8988   13.7084   38.2302 H   0  0  0  0  0  0  0  0  0  0  0  0
    1.6777   20.9731   38.8268 H   0  0  0  0  0  0  0  0  0  0  0  0
    0.1378   16.7753   43.2408 H   0  0  0  0  0  0  0  0  0  0  0  0
    2.4477   18.3013   36.4939 H   0  0  0  0  0  0  0  0  0  0  0  0
    4.3381   20.5532   36.3731 H   0  0  0  0  0  0  0  0  0  0  0  0
    1.8237   19.1665   37.4901 H   0  0  0  0  0  0  0  0  0  0  0  0
   -0.9470   18.7178   44.2879 H   0  0  0  0  0  0  0  0  0  0  0  0
    3.1082   21.3758   37.4105 H   0  0  0  0  0  0  0  0  0  0  0  0
    1.7409   20.6790   36.7040 H   0  0  0  0  0  0  0  0  0  0  0  0
    0.2869   19.2284   40.7308 H   0  0  0  0  0  0  0  0  0  0  0  0
    2.2004   22.2339   40.1683 H   0  0  0  0  0  0  0  0  0  0  0  0
    0.6061   21.9141   39.3398 H   0  0  0  0  0  0  0  0  0  0  0  0
  1 11  1  0
  2 25  2  0
  3 10  1  0
  4  3  2  0
  6 13  2  0
  8  5  2  0
  8  7  1  0
 11 23  2  3
 12 21  1  0
 12 26  1  0
 12 22  1  0
 13 18  1  0
 14 18  2  0
 15 19  1  0
 15 17  1  0
 16  9  1  0
 16 20  1  0
 17 21  1  0
 19  1  3  0
 20 17  1  0
 21 24  2  0
 22  6  1  0
 22 25  1  0
 23  8  1  0
 23  3  1  0
 25 14  1  0
 26  2  1  0
 27 16  1  0
 27 15  1  0
  6 28  1  0
  9 29  1  0
  9 30  1  0
  9 31  1  0
 11 32  1  0
 12 33  1  0
 13 34  1  0
 15 35  1  0
 16 36  1  0
 17 37  1  0
 18 38  1  0
 20 39  1  0
 20 40  1  0
 22 41  1  0
 26 42  1  0
 26 43  1  0
M  CHG  4   7  -1   9   1  10  -1  20   1
M  END
>  <mol_id>  (89) 
2026-09-18-3war-s0-n100-refligand-0092

>  <rmsd_to_ref>  (89) 


$$$$

     RDKit          3D

 24 25  0  0  0  0  0  0  0  0999 V2000
    2.7010   18.4960   39.2750 C   0  0  0  0  0  0  0  0  0  0  0  0
    1.7580   20.9400   40.0300 C   0  0  0  0  0  0  0  0  0  0  0  0
    2.5800   18.7240   40.4990 C   0  0  0  0  0  0  0  0  0  0  0  0
    2.9710   18.9300   36.7480 O   0  0  0  0  0  0  0  0  0  0  0  0
    1.8680   20.5040   38.7420 C   0  0  0  0  0  0  0  0  0  0  0  0
    2.0700   20.0810   41.1620 C   0  0  0  0  0  0  0  0  0  0  0  0
    2.6060   21.0390   36.5490 O   0  0  0  0  0  0  0  0  0  0  0  0
    2.1310   18.0560   39.8480 C   0  0  0  0  0  0  0  0  0  0  0  0
    2.0400   21.3840   37.6330 N   0  0  0  0  0  0  0  0  0  0  0  0
    2.4830   19.1860   37.9800 C   0  0  0  0  0  0  0  0  0  0  0  0
    2.9930   17.1110   38.7970 C   0  0  0  0  0  0  0  0  0  0  0  0
    1.4237   21.9710   40.2181 H   0  0  0  0  0  0  0  0  0  0  0  0
    3.1111   18.7048   41.4621 H   0  0  0  0  0  0  0  0  0  0  0  0
    3.8448   18.4716   36.8279 H   0  0  0  0  0  0  0  0  0  0  0  0
    1.0037   20.2247   39.3625 H   0  0  0  0  0  0  0  0  0  0  0  0
    1.9754   20.3149   42.2327 H   0  0  0  0  0  0  0  0  0  0  0  0
    3.4329   20.5349   36.7544 H   0  0  0  0  0  0  0  0  0  0  0  0
    1.0546   18.1956   39.6697 H   0  0  0  0  0  0  0  0  0  0  0  0
    2.0660   16.9664   39.9839 H   0  0  0  0  0  0  0  0  0  0  0  0
    1.0940   21.6956   37.3706 H   0  0  0  0  0  0  0  0  0  0  0  0
    2.1686   18.8390   36.9846 H   0  0  0  0  0  0  0  0  0  0  0  0
    3.1331   16.4464   39.6623 H   0  0  0  0  0  0  0  0  0  0  0  0
    2.1516   16.7481   38.1884 H   0  0  0  0  0  0  0  0  0  0  0  0
    3.9093   17.1187   38.1884 H   0  0  0  0  0  0  0  0  0  0  0  0
  1 11  1  0
  1  8  1  0
  1  3  1  0
  2  6  2  0
  3  8  1  0
  3  6  1  0
  5  9  1  0
  5  2  1  0
  7  9  1  0
 10  4  1  0
 10  5  1  0
 10  1  1  0
  2 12  1  0
  3 13  1  0
  4 14  1  0
  5 15  1  0
  6 16  1  0
  7 17  1  0
  8 18  1  0
  8 19  1  0
  9 20  1  0
 10 21  1  0
 11 22  1  0
 11 23  1  0
 11 24  1  0
M  END
>  <mol_id>  (90) 
2026-09-18-3war-s0-n100-refligand-0093

>  <rmsd_to_ref>  (90) 


$$$$

     RDKit          3D

 18 18  0  0  0  0  0  0  0  0999 V2000
    1.9360   20.2620   39.1920 C   0  0  0  0  0  0  0  0  0  0  0  0
    1.2230   21.4200   39.4040 C   0  0  0  0  0  0  0  0  0  0  0  0
    2.2910   20.7890   36.8210 O   0  0  0  0  0  0  0  0  0  0  0  0
    1.8330   19.2280   40.1750 C   0  0  0  0  0  0  0  0  0  0  0  0
    0.8870   21.6020   40.7450 C   0  0  0  0  0  0  0  0  0  0  0  0
    2.6560   20.2130   37.8040 C   0  0  0  0  0  0  0  0  0  0  0  0
    3.6390   19.4100   37.7550 O   0  0  0  0  0  1  0  0  0  0  0  0
    1.1260   19.5110   41.4110 C   0  0  0  0  0  0  0  0  0  0  0  0
    0.6060   20.7560   41.6580 C   0  0  0  0  0  0  0  0  0  0  0  0
    2.8268   20.7289   39.6376 H   0  0  0  0  0  0  0  0  0  0  0  0
    1.8317   22.2746   39.0737 H   0  0  0  0  0  0  0  0  0  0  0  0
    0.2865   21.3455   38.8318 H   0  0  0  0  0  0  0  0  0  0  0  0
    2.2803   18.2387   39.9981 H   0  0  0  0  0  0  0  0  0  0  0  0
    1.7397   22.1616   41.1571 H   0  0  0  0  0  0  0  0  0  0  0  0
   -0.1369   21.9684   40.5798 H   0  0  0  0  0  0  0  0  0  0  0  0
    1.0055   18.7151   42.1607 H   0  0  0  0  0  0  0  0  0  0  0  0
    1.0113   21.1225   42.6127 H   0  0  0  0  0  0  0  0  0  0  0  0
   -0.4890   20.6559   41.6893 H   0  0  0  0  0  0  0  0  0  0  0  0
  1  6  1  0
  1  2  1  0
  1  4  1  0
  2  5  1  0
  3  6  2  0
  4  8  2  0
  5  9  1  0
  7  6  1  0
  8  9  1  0
  1 10  1  0
  2 11  1  0
  2 12  1  0
  4 13  1  0
  5 14  1  0
  5 15  1  0
  8 16  1  0
  9 17  1  0
  9 18  1  0
M  CHG  1   7  -1
M  END
>  <mol_id>  (91) 
2026-09-18-3war-s0-n100-refligand-0094

>  <rmsd_to_ref>  (91) 


$$$$

     RDKit          3D

 34 36  0  0  0  0  0  0  0  0999 V2000
    1.2900   15.1370   42.4340 O   0  0  0  0  0  1  0  0  0  0  0  0
    0.1070   18.1770   43.2250 C   0  0  0  0  0  0  0  0  0  0  0  0
    2.8010   20.0170   37.5090 C   0  0  0  0  0  0  0  0  0  0  0  0
   -0.4960   19.4800   43.6520 C   0  0  0  0  0  0  0  0  0  0  0  0
    2.9020   18.2450   39.1860 C   0  0  0  0  0  0  0  0  0  0  0  0
    1.6230   15.5820   41.3660 C   0  0  0  0  0  0  0  0  0  0  0  0
    1.8430   18.6780   39.8730 C   0  0  0  0  0  0  0  0  0  0  0  0
    3.2860   18.8700   37.9740 C   0  0  0  0  0  0  0  0  0  0  0  0
    3.0520   20.4760   36.2790 O   0  0  0  0  0  0  0  0  0  0  0  0
    0.9180   20.8690   40.6910 C   0  0  0  0  0  0  0  0  0  0  0  0
    1.5850   20.1710   39.6480 C   0  0  0  0  0  0  0  0  0  0  0  0
    1.9820   20.7240   38.4140 C   0  0  0  0  0  0  0  0  0  0  0  0
    2.4900   15.1220   40.6270 O   0  0  0  0  0  0  0  0  0  0  0  0
    0.8880   16.6600   40.8460 N   0  0  0  0  0  0  0  0  0  0  0  0
    0.0690   20.5680   42.9520 O   0  0  0  0  0  0  0  0  0  0  0  0
    0.6060   20.0690   41.7780 C   0  0  0  0  0  0  0  0  0  0  0  0
    3.9860   17.9640   37.1340 O   0  0  0  0  0  0  0  0  0  0  0  0
    1.0980   17.9910   40.8750 C   0  0  0  0  0  0  0  0  0  0  0  0
    0.6050   18.6870   41.9680 C   0  0  0  0  0  0  0  0  0  0  0  0
    3.9140   16.6110   37.6640 C   0  0  0  0  0  0  0  0  0  0  0  0
    0.9065   17.8316   43.8969 H   0  0  0  0  0  0  0  0  0  0  0  0
   -0.5449   17.2913   43.1997 H   0  0  0  0  0  0  0  0  0  0  0  0
   -1.5783   19.4534   43.4572 H   0  0  0  0  0  0  0  0  0  0  0  0
   -0.2933   19.6181   44.7243 H   0  0  0  0  0  0  0  0  0  0  0  0
    3.4840   17.3922   39.5655 H   0  0  0  0  0  0  0  0  0  0  0  0
    2.6646   21.3378   35.9836 H   0  0  0  0  0  0  0  0  0  0  0  0
   -0.0155   21.2888   40.2879 H   0  0  0  0  0  0  0  0  0  0  0  0
    1.6050   21.6497   41.0496 H   0  0  0  0  0  0  0  0  0  0  0  0
    1.6433   21.7364   38.1489 H   0  0  0  0  0  0  0  0  0  0  0  0
    0.0290   16.3817   40.3505 H   0  0  0  0  0  0  0  0  0  0  0  0
    0.1753   18.1492   40.2974 H   0  0  0  0  0  0  0  0  0  0  0  0
    3.9159   16.6473   38.7634 H   0  0  0  0  0  0  0  0  0  0  0  0
    2.9889   16.1291   37.3147 H   0  0  0  0  0  0  0  0  0  0  0  0
    4.7827   16.0336   37.3147 H   0  0  0  0  0  0  0  0  0  0  0  0
  2  4  1  0
  3  8  1  0
  3 12  2  0
  5  7  1  0
  6  1  1  0
  7 18  1  0
  8  5  2  0
  9  3  1  0
 10 16  1  0
 11  7  2  0
 11 10  1  0
 12 11  1  0
 13  6  2  0
 14  6  1  0
 15  4  1  0
 16 19  2  0
 16 15  1  0
 17 20  1  0
 17  8  1  0
 18 14  1  0
 18 19  1  0
 19  2  1  0
  2 21  1  0
  2 22  1  0
  4 23  1  0
  4 24  1  0
  5 25  1  0
  9 26  1  0
 10 27  1  0
 10 28  1  0
 12 29  1  0
 14 30  1  0
 18 31  1  0
 20 32  1  0
 20 33  1  0
 20 34  1  0
M  CHG  1   1  -1
M  END
>  <mol_id>  (92) 
2026-09-18-3war-s0-n100-refligand-0095

>  <rmsd_to_ref>  (92) 


$$$$

     RDKit          3D

 30 34  0  0  0  0  0  0  0  0999 V2000
    1.9890   20.2620   39.2310 C   0  0  0  0  0  0  0  0  0  0  0  0
    0.3470   18.7230   42.8420 C   0  0  0  0  0  0  0  0  0  0  0  0
    0.9450   15.1880   41.2460 N   0  0  0  0  0  0  0  0  0  0  0  0
    1.8340   15.0250   40.1900 N   0  0  0  0  0  0  0  0  0  0  0  0
    0.3510   17.3050   42.8800 C   0  0  0  0  0  0  0  0  0  0  0  0
    3.1670   19.5560   37.0520 C   0  0  0  0  0  0  0  0  0  0  0  0
    0.9540   19.3400   41.7670 C   0  0  0  0  0  0  0  0  0  0  0  0
    1.6750   18.5760   40.8680 C   0  0  0  0  0  0  0  0  0  0  0  0
    2.4710   20.4350   37.8300 C   0  0  0  0  0  0  0  0  0  0  0  0
    2.4520   19.1360   39.9060 N   0  0  0  0  0  0  0  0  0  0  0  0
    2.2680   21.5070   37.0040 N   0  0  0  0  0  0  0  0  0  0  0  0
    0.8500   20.8010   41.3810 C   0  0  0  0  0  0  0  0  0  0  0  0
    2.3520   16.2880   40.0820 C   0  0  0  0  0  0  0  0  0  0  0  0
    1.3810   21.1850   40.1070 C   0  0  0  0  0  0  0  0  0  0  0  0
    3.5950   18.5350   39.7640 C   0  0  0  0  0  0  0  0  0  0  0  0
    3.3840   20.1200   35.8060 N   0  0  0  0  0  0  0  0  0  0  0  0
    0.8740   16.4660   41.8540 C   0  0  0  0  0  0  0  0  0  0  0  0
    1.6890   17.1940   40.9610 C   0  0  0  0  0  0  0  0  0  0  0  0
    2.8860   21.2700   35.7920 N   0  0  0  0  0  0  0  0  0  0  0  0
    3.4450   17.0470   39.2150 C   0  0  0  0  0  0  0  0  0  0  0  0
   -0.1244   19.3115   43.6430 H   0  0  0  0  0  0  0  0  0  0  0  0
   -0.0812   16.8175   43.7663 H   0  0  0  0  0  0  0  0  0  0  0  0
    3.5029   18.5565   37.3654 H   0  0  0  0  0  0  0  0  0  0  0  0
    1.5248   20.0194   37.4532 H   0  0  0  0  0  0  0  0  0  0  0  0
    0.3851   21.5380   42.0523 H   0  0  0  0  0  0  0  0  0  0  0  0
    1.3119   22.2392   39.8006 H   0  0  0  0  0  0  0  0  0  0  0  0
    4.2094   19.1107   39.0561 H   0  0  0  0  0  0  0  0  0  0  0  0
    4.0644   18.4763   40.7571 H   0  0  0  0  0  0  0  0  0  0  0  0
    3.1291   17.0719   38.1616 H   0  0  0  0  0  0  0  0  0  0  0  0
    4.4094   16.5231   39.2884 H   0  0  0  0  0  0  0  0  0  0  0  0
  1 10  1  0
  1 14  2  0
  2  5  2  0
  3 17  2  0
  4  3  1  0
  6  9  1  0
  7  2  1  0
  8 18  2  0
  8  7  1  0
  9  1  1  0
 10  8  1  0
 11  9  1  0
 12  7  2  0
 13  4  2  0
 13 18  1  0
 14 12  1  0
 15 10  1  0
 16  6  2  0
 17  5  1  0
 18 17  1  0
 19 16  1  0
 19 11  2  0
 20 15  1  0
 20 13  1  0
  2 21  1  0
  5 22  1  0
  6 23  1  0
  9 24  1  0
 12 25  1  0
 14 26  1  0
 15 27  1  0
 15 28  1  0
 20 29  1  0
 20 30  1  0
M  END
>  <mol_id>  (93) 
2026-09-18-3war-s0-n100-refligand-0096

>  <rmsd_to_ref>  (93) 


$$$$

     RDKit          3D

 40 41  0  0  0  0  0  0  0  0999 V2000
    1.1090   21.1090   40.5270 C   0  0  0  0  0  0  0  0  0  0  0  0
    2.1340   18.1340   41.0140 O   0  0  0  0  0  0  0  0  0  0  0  0
   -0.3420   18.4860   44.5440 C   0  0  0  0  0  0  0  0  0  0  0  0
    0.4480   17.1520   42.7450 C   0  0  0  0  0  0  0  0  0  0  0  0
   -0.9470   19.7820   44.4600 O   0  0  0  0  0  0  0  0  0  0  0  0
    1.7620   20.5900   39.2590 C   0  0  0  0  0  0  0  0  0  0  0  0
    3.7230   17.6790   38.0440 O   0  0  0  0  0  0  0  0  0  0  0  0
    1.5060   17.1840   41.7980 C   0  0  0  0  0  0  0  0  0  0  0  0
    0.2900   18.4880   43.2240 C   0  0  0  0  0  0  0  0  0  0  0  0
    3.4780   16.3580   38.1110 C   0  0  0  0  0  0  0  0  0  0  0  0
    1.8170   21.2650   38.1230 C   0  0  0  0  0  0  0  0  0  0  0  0
    2.4140   20.8920   36.8440 C   0  0  0  0  0  0  0  0  0  0  0  0
    2.8710   18.5320   38.6090 C   0  0  0  0  0  0  0  0  0  0  0  0
    2.6960   16.1970   39.2390 N   0  0  0  0  0  0  0  0  0  0  0  0
    1.3460   16.1190   40.9890 N   0  0  0  0  0  4  0  0  0  0  0  0
    2.6370   19.3260   39.0370 C   0  0  0  0  0  0  0  0  0  0  0  0
    2.5110   21.7130   35.8010 O   0  0  0  0  0  0  0  0  0  0  0  0
    3.0570   19.6860   37.0580 C   0  0  0  0  0  0  0  0  0  0  0  0
    2.5650   17.5100   39.7140 C   0  0  0  0  0  0  0  0  0  0  0  0
    1.6295   20.6953   41.4033 H   0  0  0  0  0  0  0  0  0  0  0  0
    1.1709   22.2070   40.5483 H   0  0  0  0  0  0  0  0  0  0  0  0
    0.0533   20.8008   40.5483 H   0  0  0  0  0  0  0  0  0  0  0  0
    0.3922   18.4181   45.3603 H   0  0  0  0  0  0  0  0  0  0  0  0
   -1.0166   17.6448   44.7617 H   0  0  0  0  0  0  0  0  0  0  0  0
    0.7027   16.4782   43.5763 H   0  0  0  0  0  0  0  0  0  0  0  0
   -0.4818   16.7809   42.2892 H   0  0  0  0  0  0  0  0  0  0  0  0
   -1.1095   20.1301   45.3724 H   0  0  0  0  0  0  0  0  0  0  0  0
    2.1894   17.3944   42.6339 H   0  0  0  0  0  0  0  0  0  0  0  0
    1.2779   18.9663   43.2960 H   0  0  0  0  0  0  0  0  0  0  0  0
   -0.3496   19.0447   42.5233 H   0  0  0  0  0  0  0  0  0  0  0  0
    2.9383   16.0187   37.2145 H   0  0  0  0  0  0  0  0  0  0  0  0
    4.4047   15.7676   38.1624 H   0  0  0  0  0  0  0  0  0  0  0  0
    1.3414   22.2566   38.1452 H   0  0  0  0  0  0  0  0  0  0  0  0
    1.2186   15.2708   41.5592 H   0  0  0  0  0  0  0  0  0  0  0  0
    0.5169   16.2609   40.3946 H   0  0  0  0  0  0  0  0  0  0  0  0
    2.1802   16.0110   40.3946 H   0  0  0  0  0  0  0  0  0  0  0  0
    2.5611   18.9203   40.0566 H   0  0  0  0  0  0  0  0  0  0  0  0
    3.1441   19.8675   38.2249 H   0  0  0  0  0  0  0  0  0  0  0  0
    1.9864   22.5524   35.7813 H   0  0  0  0  0  0  0  0  0  0  0  0
    3.7439   19.3459   36.2690 H   0  0  0  0  0  0  0  0  0  0  0  0
  2  8  1  0
  4  9  1  0
  5  3  1  0
  6  1  1  0
  7 10  1  0
  7 13  1  0
  8 15  1  0
  8  4  1  0
  9  3  1  0
 10 14  1  0
 11  6  2  0
 12 18  2  0
 12 11  1  0
 13 18  1  0
 13 16  1  0
 13 19  1  0
 14 19  2  0
 16  6  1  0
 17 12  1  0
 19  2  1  0
  1 20  1  0
  1 21  1  0
  1 22  1  0
  3 23  1  0
  3 24  1  0
  4 25  1  0
  4 26  1  0
  5 27  1  0
  8 28  1  0
  9 29  1  0
  9 30  1  0
 10 31  1  0
 10 32  1  0
 11 33  1  0
 15 34  1  0
 15 35  1  0
 15 36  1  0
 16 37  1  0
 16 38  1  0
 17 39  1  0
 18 40  1  0
M  CHG  1  15   1
M  END
>  <mol_id>  (94) 
2026-09-18-3war-s0-n100-refligand-0097

>  <rmsd_to_ref>  (94) 


$$$$

     RDKit          3D

 26 28  0  0  0  0  0  0  0  0999 V2000
   -0.1480   18.3020   43.6880 C   0  0  0  0  0  0  0  0  0  0  0  0
    2.7020   17.0470   39.4680 C   0  0  0  0  0  0  0  0  0  0  0  0
    2.4910   20.3040   38.0260 C   0  0  0  0  0  0  0  0  0  0  0  0
    3.0860   16.2690   38.6630 C   0  0  0  0  0  0  0  0  0  0  0  0
    2.4350   18.3460   39.3270 C   0  0  0  0  0  0  0  0  0  0  0  0
    2.7150   20.9600   36.8870 O   0  0  0  0  0  0  0  0  0  0  0  0
    0.2320   20.4370   42.3520 C   0  0  0  0  0  0  0  0  0  0  0  0
    3.3710   18.1890   37.1920 N   0  0  0  0  0  0  0  0  0  0  0  0
    1.6680   18.9520   40.3330 C   0  0  0  0  0  0  0  0  0  0  0  0
    1.1680   18.2890   41.5060 C   0  0  0  0  0  0  0  0  0  0  0  0
    0.7890   21.1150   41.2090 C   0  0  0  0  0  0  0  0  0  0  0  0
    2.7780   18.9580   38.1970 C   0  0  0  0  0  0  0  0  0  0  0  0
    0.4340   19.0290   42.5110 C   0  0  0  0  0  0  0  0  0  0  0  0
    1.4690   20.3700   40.2390 C   0  0  0  0  0  0  0  0  0  0  0  0
    3.6550   16.8990   37.2810 C   0  0  0  0  0  0  0  0  0  0  0  0
    1.8870   20.9920   39.0100 N   0  0  0  0  0  0  0  0  0  0  0  0
    0.2181   18.7593   44.6190 H   0  0  0  0  0  0  0  0  0  0  0  0
   -1.2455   18.3682   43.6538 H   0  0  0  0  0  0  0  0  0  0  0  0
    0.1568   17.2456   43.6538 H   0  0  0  0  0  0  0  0  0  0  0  0
    2.5424   16.6402   40.4775 H   0  0  0  0  0  0  0  0  0  0  0  0
    3.0586   15.1839   38.8414 H   0  0  0  0  0  0  0  0  0  0  0  0
   -0.3464   20.9995   43.0997 H   0  0  0  0  0  0  0  0  0  0  0  0
    1.3442   17.2117   41.6412 H   0  0  0  0  0  0  0  0  0  0  0  0
    0.6811   22.2043   41.1003 H   0  0  0  0  0  0  0  0  0  0  0  0
    4.2049   16.3290   36.5176 H   0  0  0  0  0  0  0  0  0  0  0  0
    1.7173   21.9996   38.8801 H   0  0  0  0  0  0  0  0  0  0  0  0
  3 12  1  0
  3 16  1  0
  4  2  2  0
  5  2  1  0
  5  9  1  0
  6  3  2  0
  7 13  2  0
  8 15  2  0
  8 12  1  0
  9 10  2  0
 10 13  1  0
 11  7  1  0
 12  5  2  0
 13  1  1  0
 14  9  1  0
 14 11  2  0
 15  4  1  0
 16 14  1  0
  1 17  1  0
  1 18  1  0
  1 19  1  0
  2 20  1  0
  4 21  1  0
  7 22  1  0
 10 23  1  0
 11 24  1  0
 15 25  1  0
 16 26  1  0
M  END
>  <mol_id>  (95) 
2026-09-18-3war-s0-n100-refligand-0098

>  <rmsd_to_ref>  (95) 


$$$$

     RDKit          3D

 41 41  0  0  0  0  0  0  0  0999 V2000
    2.1410   20.9890   37.4830 C   0  0  0  0  0  0  0  0  0  0  0  0
    3.4310   18.4200   38.0720 C   0  0  0  0  0  0  0  0  0  0  0  0
    0.3230   20.0190   42.1900 C   0  0  0  0  0  0  0  0  0  0  0  0
    2.9540   19.6740   37.3800 C   0  0  0  0  0  0  0  0  0  0  0  0
    2.9600   17.2100   37.2910 N   0  0  0  0  0  4  0  0  0  0  0  0
    3.5080   19.6510   36.0540 O   0  0  0  0  0  0  0  0  0  0  0  0
    1.1330   19.0240   41.7620 C   0  0  0  0  0  0  0  0  0  0  0  0
    3.7350   13.8530   36.8750 C   0  0  0  0  0  0  0  0  0  0  0  0
    0.9000   21.3610   40.4140 C   0  0  0  0  0  0  0  0  0  0  0  0
    1.3200   17.5540   42.6120 S   0  0  0  0  0  0  0  0  0  0  0  0
   -0.0610   18.1240   43.4380 C   0  0  0  0  0  0  0  0  0  0  0  0
    0.1420   21.1340   41.5860 C   0  0  0  0  0  0  0  0  0  0  0  0
    3.4180   15.0590   37.7490 C   0  0  0  0  0  0  0  0  0  0  0  0
    2.4510   20.7470   38.7030 N   0  0  0  0  0  0  0  0  0  0  0  0
    1.7040   20.3870   39.8750 C   0  0  0  0  0  0  0  0  0  0  0  0
    4.1070   16.3160   37.3030 C   0  0  0  0  0  0  0  0  0  0  0  0
    1.8190   19.2160   40.5970 N   0  0  0  0  0  0  0  0  0  0  0  0
    1.0739   20.9351   37.2215 H   0  0  0  0  0  0  0  0  0  0  0  0
    2.3158   21.9219   36.9270 H   0  0  0  0  0  0  0  0  0  0  0  0
    4.5299   18.4218   38.1203 H   0  0  0  0  0  0  0  0  0  0  0  0
    3.0225   18.3830   39.0927 H   0  0  0  0  0  0  0  0  0  0  0  0
   -0.2234   19.8580   43.1310 H   0  0  0  0  0  0  0  0  0  0  0  0
    3.8492   20.1989   37.7449 H   0  0  0  0  0  0  0  0  0  0  0  0
    2.7094   17.4713   36.3267 H   0  0  0  0  0  0  0  0  0  0  0  0
    2.1171   16.7793   37.6971 H   0  0  0  0  0  0  0  0  0  0  0  0
    4.4956   19.6100   36.1096 H   0  0  0  0  0  0  0  0  0  0  0  0
    1.9680   19.4591   42.3308 H   0  0  0  0  0  0  0  0  0  0  0  0
    3.9627   12.9869   37.5138 H   0  0  0  0  0  0  0  0  0  0  0  0
    2.8670   13.6221   36.2399 H   0  0  0  0  0  0  0  0  0  0  0  0
    4.6043   14.0788   36.2399 H   0  0  0  0  0  0  0  0  0  0  0  0
    0.1807   21.6378   39.6291 H   0  0  0  0  0  0  0  0  0  0  0  0
    1.6323   22.1100   40.7499 H   0  0  0  0  0  0  0  0  0  0  0  0
    0.1062   18.0550   44.5230 H   0  0  0  0  0  0  0  0  0  0  0  0
   -0.2469   19.1724   43.1616 H   0  0  0  0  0  0  0  0  0  0  0  0
   -0.9322   17.5119   43.1616 H   0  0  0  0  0  0  0  0  0  0  0  0
   -0.5715   21.8818   41.9623 H   0  0  0  0  0  0  0  0  0  0  0  0
    2.3316   15.2300   37.7265 H   0  0  0  0  0  0  0  0  0  0  0  0
    3.7820   14.8309   38.7616 H   0  0  0  0  0  0  0  0  0  0  0  0
    3.4619   20.8292   38.8826 H   0  0  0  0  0  0  0  0  0  0  0  0
    4.5568   16.2083   36.3050 H   0  0  0  0  0  0  0  0  0  0  0  0
    4.9532   16.6394   37.9270 H   0  0  0  0  0  0  0  0  0  0  0  0
  1 14  1  0
  4  6  1  0
  4  1  1  0
  4  2  1  0
  5 16  1  0
  5  2  1  0
  7  3  1  0
  7 10  1  0
  8 13  1  0
  9 12  1  0
 10 11  1  0
 12  3  2  0
 14 15  1  0
 15  9  1  0
 15 17  2  0
 16 13  1  0
 17  7  1  0
  1 18  1  0
  1 19  1  0
  2 20  1  0
  2 21  1  0
  3 22  1  0
  4 23  1  0
  5 24  1  0
  5 25  1  0
  6 26  1  0
  7 27  1  0
  8 28  1  0
  8 29  1  0
  8 30  1  0
  9 31  1  0
  9 32  1  0
 11 33  1  0
 11 34  1  0
 11 35  1  0
 12 36  1  0
 13 37  1  0
 13 38  1  0
 14 39  1  0
 16 40  1  0
 16 41  1  0
M  CHG  1   5   1
M  END
>  <mol_id>  (96) 
2026-09-18-3war-s0-n100-refligand-0099

>  <rmsd_to_ref>  (96) 


$$$$

     RDKit          3D

 20 22  0  0  0  0  0  0  0  0999 V2000
    3.1140   19.1970   37.3470 C   0  0  0  0  0  0  0  0  0  0  0  0
    0.7210   20.6810   41.2470 C   0  0  0  0  0  0  0  0  0  0  0  0
    2.6230   19.0130   38.6860 C   0  0  0  0  0  0  0  0  0  0  0  0
    1.4280   19.7360   40.5850 C   0  0  0  0  0  0  0  0  0  0  0  0
    1.9630   20.0970   39.3760 O   0  0  0  0  0  0  0  0  0  0  0  0
    3.1500   20.1900   36.6470 O   0  0  0  0  0  0  0  0  0  0  0  0
    3.6230   16.9870   38.2490 C   0  0  0  0  0  0  0  0  0  0  0  0
    0.8490   18.0550   42.2370 C   0  0  0  0  0  0  0  0  0  0  0  0
    2.2790   17.3930   40.3700 O   0  0  0  0  0  0  0  0  0  0  0  0
    2.7810   17.8000   39.1580 C   0  0  0  0  0  0  0  0  0  0  0  0
    1.5280   18.4200   41.0540 C   0  0  0  0  0  0  0  0  0  0  0  0
    3.7380   17.8470   37.0160 C   0  0  0  0  0  0  0  0  0  0  0  0
    0.1220   20.3510   42.4470 C   0  0  0  0  0  0  0  0  0  0  0  0
    0.1520   19.0240   42.8980 C   0  0  0  0  0  0  0  0  0  0  0  0
    0.6248   21.6966   40.8357 H   0  0  0  0  0  0  0  0  0  0  0  0
    4.0596   15.9938   38.4305 H   0  0  0  0  0  0  0  0  0  0  0  0
    0.8809   17.0220   42.6138 H   0  0  0  0  0  0  0  0  0  0  0  0
    4.1885   17.5543   36.0561 H   0  0  0  0  0  0  0  0  0  0  0  0
   -0.3768   21.1266   43.0466 H   0  0  0  0  0  0  0  0  0  0  0  0
   -0.4017   18.7565   43.8101 H   0  0  0  0  0  0  0  0  0  0  0  0
  1  3  1  0
  2 13  2  0
  3 10  2  0
  3  5  1  0
  4 11  2  0
  4  2  1  0
  5  4  1  0
  6  1  2  0
  7 10  1  0
  8 14  2  0
  9 11  1  0
 10  9  1  0
 11  8  1  0
 12  1  1  0
 12  7  2  0
 13 14  1  0
  2 15  1  0
  7 16  1  0
  8 17  1  0
 12 18  1  0
 13 19  1  0
 14 20  1  0
M  END
>  <mol_id>  (97) 
2026-09-18-3war-s0-n100-refligand-0100

>  <rmsd_to_ref>  (97) 


$$$$
