3war.A
     RDKit          3D

 13 13  0  0  0  0  0  0  0  0999 V2000
    2.0001   18.6245   40.6926 N   0  0  0  0  0  0  0  0  0  0  0  0
    2.5782   18.5757   39.4013 C   0  0  0  0  0  0  0  0  0  0  0  0
    2.4967   19.7718   38.6000 C   0  0  0  0  0  0  0  0  0  0  0  0
    1.8538   20.9004   39.0765 C   0  0  0  0  0  0  0  0  0  0  0  0
    1.3289   20.9112   40.3502 C   0  0  0  0  0  0  0  0  0  0  0  0
    1.3818   19.7712   41.1205 C   0  0  0  0  0  0  0  0  0  0  0  0
    3.0116   19.7599   37.1684 C   0  0  0  0  0  0  0  0  0  0  0  0
    3.7306   18.7870   36.7954 O   0  0  0  0  0  0  0  0  0  0  0  0
    2.6655   20.7081   36.4973 O   0  0  0  0  0  0  0  0  0  0  0  0
    3.0681   17.6653   39.0256 H   0  0  0  0  0  0  0  0  0  0  0  0
    1.7616   21.7908   38.4372 H   0  0  0  0  0  0  0  0  0  0  0  0
    0.8693   21.8270   40.7502 H   0  0  0  0  0  0  0  0  0  0  0  0
    0.9112   19.7806   42.1147 H   0  0  0  0  0  0  0  0  0  0  0  0
  1  2  1  0
  1  6  2  0
  2  3  2  0
  3  4  1  0
  3  7  1  0
  4  5  2  0
  5  6  1  0
  7  8  1  0
  7  9  2  0
  2 10  1  0
  4 11  1  0
  5 12  1  0
  6 13  1  0
M  CHG  1   8  -1
M  END
>  <mol_id>  (1) 
2026-09-18-3war-s0-n100-r3-0001

>  <rmsd_to_ref>  (1) 
0.0

>  <pose_kind>  (1) 
native

$$$$
3war.A
     RDKit          3D

 13 13  0  0  0  0  0  0  0  0999 V2000
    1.9410   19.0390   40.6341 N   0  0  0  0  0  0  0  0  0  0  0  0
    2.4204   18.7153   39.4019 C   0  0  0  0  0  0  0  0  0  0  0  0
    2.3792   19.6791   38.4246 C   0  0  0  0  0  0  0  0  0  0  0  0
    1.8860   20.9295   38.6307 C   0  0  0  0  0  0  0  0  0  0  0  0
    1.4007   21.2373   39.9012 C   0  0  0  0  0  0  0  0  0  0  0  0
    1.4458   20.2637   40.8765 C   0  0  0  0  0  0  0  0  0  0  0  0
    2.8932   19.3303   37.1056 C   0  0  0  0  0  0  0  0  0  0  0  0
    2.8868   20.2554   36.0567 O   0  0  0  0  0  0  0  0  0  0  0  0
    3.3690   18.1787   36.8435 O   0  0  0  0  0  0  0  0  0  0  0  0
    2.8104   17.7171   39.2498 H   0  0  0  0  0  0  0  0  0  0  0  0
    1.8517   21.6925   37.8631 H   0  0  0  0  0  0  0  0  0  0  0  0
    0.9921   22.2116   40.1432 H   0  0  0  0  0  0  0  0  0  0  0  0
    1.0829   20.4488   41.8787 H   0  0  0  0  0  0  0  0  0  0  0  0
  1  2  1  0
  1  6  2  0
  2  3  2  0
  3  4  1  0
  3  7  1  0
  4  5  2  0
  5  6  1  0
  7  8  1  0
  7  9  2  0
  2 10  1  0
  4 11  1  0
  5 12  1  0
  6 13  1  0
M  CHG  1   8  -1
M  END
>  <mol_id>  (2) 
2026-09-18-3war-s0-n100-r3-0002

>  <rmsd_to_ref>  (2) 
0.5000000000052138

>  <pose_kind>  (2) 
conformer

$$$$
3war.A
     RDKit          3D

 13 13  0  0  0  0  0  0  0  0999 V2000
    2.3991   18.3458   40.5044 N   0  0  0  0  0  0  0  0  0  0  0  0
    3.0782   18.4919   39.2709 C   0  0  0  0  0  0  0  0  0  0  0  0
    2.6630   19.5776   38.4176 C   0  0  0  0  0  0  0  0  0  0  0  0
    1.6259   20.4140   38.7905 C   0  0  0  0  0  0  0  0  0  0  0  0
    1.0113   20.2508   40.0127 C   0  0  0  0  0  0  0  0  0  0  0  0
    1.3833   19.2074   40.8304 C   0  0  0  0  0  0  0  0  0  0  0  0
    3.2836   19.7351   37.0375 C   0  0  0  0  0  0  0  0  0  0  0  0
    4.3277   19.0719   36.7678 O   0  0  0  0  0  0  0  0  0  0  0  0
    2.6953   20.4971   36.3010 O   0  0  0  0  0  0  0  0  0  0  0  0
    3.8871   17.8072   38.9763 H   0  0  0  0  0  0  0  0  0  0  0  0
    1.2915   21.2109   38.1099 H   0  0  0  0  0  0  0  0  0  0  0  0
    0.2265   20.9514   40.3339 H   0  0  0  0  0  0  0  0  0  0  0  0
    0.8465   19.0597   41.7790 H   0  0  0  0  0  0  0  0  0  0  0  0
  1  2  1  0
  1  6  2  0
  2  3  2  0
  3  4  1  0
  3  7  1  0
  4  5  2  0
  5  6  1  0
  7  8  1  0
  7  9  2  0
  2 10  1  0
  4 11  1  0
  5 12  1  0
  6 13  1  0
M  CHG  1   8  -1
M  END
>  <mol_id>  (3) 
2026-09-18-3war-s0-n100-r3-0003

>  <rmsd_to_ref>  (3) 
0.5459183673488784

>  <pose_kind>  (3) 
rigid

$$$$
3war.A
     RDKit          3D

 13 13  0  0  0  0  0  0  0  0999 V2000
    1.6949   18.8799   40.8914 N   0  0  0  0  0  0  0  0  0  0  0  0
    2.4360   18.6906   39.7822 C   0  0  0  0  0  0  0  0  0  0  0  0
    2.5993   19.6819   38.8362 C   0  0  0  0  0  0  0  0  0  0  0  0
    2.0000   20.9150   38.9995 C   0  0  0  0  0  0  0  0  0  0  0  0
    1.2404   21.0802   40.1561 C   0  0  0  0  0  0  0  0  0  0  0  0
    1.0942   20.0698   41.0866 C   0  0  0  0  0  0  0  0  0  0  0  0
    3.4126   19.4287   37.6499 C   0  0  0  0  0  0  0  0  0  0  0  0
    4.0199   18.1916   37.4758 O   0  0  0  0  0  0  0  0  0  0  0  0
    3.5596   20.3349   36.7888 O   0  0  0  0  0  0  0  0  0  0  0  0
    2.9310   17.7485   39.5954 H   0  0  0  0  0  0  0  0  0  0  0  0
    2.1019   21.7195   38.2830 H   0  0  0  0  0  0  0  0  0  0  0  0
    0.7526   22.0301   40.3256 H   0  0  0  0  0  0  0  0  0  0  0  0
    0.5042   20.2307   41.9626 H   0  0  0  0  0  0  0  0  0  0  0  0
  1  2  1  0
  1  6  2  0
  2  3  2  0
  3  4  1  0
  3  7  1  0
  4  5  2  0
  5  6  1  0
  7  8  1  0
  7  9  2  0
  2 10  1  0
  4 11  1  0
  5 12  1  0
  6 13  1  0
M  CHG  1   8  -1
M  END
>  <mol_id>  (4) 
2026-09-18-3war-s0-n100-r3-0004

>  <rmsd_to_ref>  (4) 
0.5918367346977945

>  <pose_kind>  (4) 
conformer

$$$$
3war.A
     RDKit          3D

 13 13  0  0  0  0  0  0  0  0999 V2000
    2.8167   18.4129   40.6549 N   0  0  0  0  0  0  0  0  0  0  0  0
    3.3669   18.5441   39.3571 C   0  0  0  0  0  0  0  0  0  0  0  0
    2.7821   19.5402   38.4939 C   0  0  0  0  0  0  0  0  0  0  0  0
    1.7125   20.3068   38.9209 C   0  0  0  0  0  0  0  0  0  0  0  0
    1.2268   20.1633   40.2021 C   0  0  0  0  0  0  0  0  0  0  0  0
    1.7618   19.2035   41.0319 C   0  0  0  0  0  0  0  0  0  0  0  0
    3.2602   19.6695   37.0553 C   0  0  0  0  0  0  0  0  0  0  0  0
    4.3307   19.0818   36.7217 O   0  0  0  0  0  0  0  0  0  0  0  0
    2.5429   20.3358   36.3407 O   0  0  0  0  0  0  0  0  0  0  0  0
    4.2038   17.9139   39.0219 H   0  0  0  0  0  0  0  0  0  0  0  0
    1.2490   21.0323   38.2362 H   0  0  0  0  0  0  0  0  0  0  0  0
    0.4148   20.8128   40.5608 H   0  0  0  0  0  0  0  0  0  0  0  0
    1.3273   19.0662   42.0331 H   0  0  0  0  0  0  0  0  0  0  0  0
  1  2  1  0
  1  6  2  0
  2  3  2  0
  3  4  1  0
  3  7  1  0
  4  5  2  0
  5  6  1  0
  7  8  1  0
  7  9  2  0
  2 10  1  0
  4 11  1  0
  5 12  1  0
  6 13  1  0
M  CHG  1   8  -1
M  END
>  <mol_id>  (5) 
2026-09-18-3war-s0-n100-r3-0005

>  <rmsd_to_ref>  (5) 
0.637755102041867

>  <pose_kind>  (5) 
rigid

$$$$
3war.A
     RDKit          3D

 13 13  0  0  0  0  0  0  0  0999 V2000
    2.1444   17.9569   40.1143 N   0  0  0  0  0  0  0  0  0  0  0  0
    2.7218   18.3118   38.9494 C   0  0  0  0  0  0  0  0  0  0  0  0
    2.7006   19.6281   38.5343 C   0  0  0  0  0  0  0  0  0  0  0  0
    2.0878   20.5905   39.3094 C   0  0  0  0  0  0  0  0  0  0  0  0
    1.5066   20.1804   40.5000 C   0  0  0  0  0  0  0  0  0  0  0  0
    1.5318   18.8530   40.9116 C   0  0  0  0  0  0  0  0  0  0  0  0
    3.3201   20.0328   37.2764 C   0  0  0  0  0  0  0  0  0  0  0  0
    3.9519   19.1113   36.4531 O   0  0  0  0  0  0  0  0  0  0  0  0
    3.2488   21.2723   36.9782 O   0  0  0  0  0  0  0  0  0  0  0  0
    3.1927   17.5385   38.3655 H   0  0  0  0  0  0  0  0  0  0  0  0
    2.0418   21.6419   39.0303 H   0  0  0  0  0  0  0  0  0  0  0  0
    1.0107   20.9060   41.1456 H   0  0  0  0  0  0  0  0  0  0  0  0
    1.0660   18.5604   41.8534 H   0  0  0  0  0  0  0  0  0  0  0  0
  1  2  1  0
  1  6  2  0
  2  3  2  0
  3  4  1  0
  3  7  1  0
  4  5  2  0
  5  6  1  0
  7  8  1  0
  7  9  2  0
  2 10  1  0
  4 11  1  0
  5 12  1  0
  6 13  1  0
M  CHG  1   8  -1
M  END
>  <mol_id>  (6) 
2026-09-18-3war-s0-n100-r3-0006

>  <rmsd_to_ref>  (6) 
0.6836734693929436

>  <pose_kind>  (6) 
conformer

$$$$
3war.A
     RDKit          3D

 13 13  0  0  0  0  0  0  0  0999 V2000
    2.4207   17.8518   40.4406 N   0  0  0  0  0  0  0  0  0  0  0  0
    2.7490   18.1898   39.1057 C   0  0  0  0  0  0  0  0  0  0  0  0
    2.5167   19.5532   38.6976 C   0  0  0  0  0  0  0  0  0  0  0  0
    1.9703   20.4716   39.5764 C   0  0  0  0  0  0  0  0  0  0  0  0
    1.6911   20.1048   40.8747 C   0  0  0  0  0  0  0  0  0  0  0  0
    1.8894   18.8022   41.2742 C   0  0  0  0  0  0  0  0  0  0  0  0
    2.7567   19.9615   37.2518 C   0  0  0  0  0  0  0  0  0  0  0  0
    3.3966   19.1685   36.5007 O   0  0  0  0  0  0  0  0  0  0  0  0
    2.2893   21.0369   36.9445 O   0  0  0  0  0  0  0  0  0  0  0  0
    3.1631   17.4450   38.4102 H   0  0  0  0  0  0  0  0  0  0  0  0
    1.7584   21.4965   39.2378 H   0  0  0  0  0  0  0  0  0  0  0  0
    1.3113   20.8498   41.5893 H   0  0  0  0  0  0  0  0  0  0  0  0
    1.6117   18.5136   42.2987 H   0  0  0  0  0  0  0  0  0  0  0  0
  1  2  1  0
  1  6  2  0
  2  3  2  0
  3  4  1  0
  3  7  1  0
  4  5  2  0
  5  6  1  0
  7  8  1  0
  7  9  2  0
  2 10  1  0
  4 11  1  0
  5 12  1  0
  6 13  1  0
M  CHG  1   8  -1
M  END
>  <mol_id>  (7) 
2026-09-18-3war-s0-n100-r3-0007

>  <rmsd_to_ref>  (7) 
0.7295918367401399

>  <pose_kind>  (7) 
rigid

$$$$
3war.A
     RDKit          3D

 13 13  0  0  0  0  0  0  0  0999 V2000
    1.6332   18.8177   40.3374 N   0  0  0  0  0  0  0  0  0  0  0  0
    2.5154   18.6244   39.3359 C   0  0  0  0  0  0  0  0  0  0  0  0
    2.7092   19.5868   38.3659 C   0  0  0  0  0  0  0  0  0  0  0  0
    1.9744   20.7684   38.4383 C   0  0  0  0  0  0  0  0  0  0  0  0
    1.0719   20.9691   39.4608 C   0  0  0  0  0  0  0  0  0  0  0  0
    0.9096   19.9655   40.4206 C   0  0  0  0  0  0  0  0  0  0  0  0
    3.6698   19.3688   37.2809 C   0  0  0  0  0  0  0  0  0  0  0  0
    3.8324   20.3645   36.3266 O   0  0  0  0  0  0  0  0  0  0  0  0
    4.3201   18.2791   37.2496 O   0  0  0  0  0  0  0  0  0  0  0  0
    3.0952   17.7193   39.2583 H   0  0  0  0  0  0  0  0  0  0  0  0
    2.1094   21.5334   37.6920 H   0  0  0  0  0  0  0  0  0  0  0  0
    0.5151   21.8745   39.5082 H   0  0  0  0  0  0  0  0  0  0  0  0
    0.1999   20.0942   41.2463 H   0  0  0  0  0  0  0  0  0  0  0  0
  1  2  1  0
  1  6  2  0
  2  3  2  0
  3  4  1  0
  3  7  1  0
  4  5  2  0
  5  6  1  0
  7  8  1  0
  7  9  2  0
  2 10  1  0
  4 11  1  0
  5 12  1  0
  6 13  1  0
M  CHG  1   8  -1
M  END
>  <mol_id>  (8) 
2026-09-18-3war-s0-n100-r3-0008

>  <rmsd_to_ref>  (8) 
0.7755102040831244

>  <pose_kind>  (8) 
conformer

$$$$
3war.A
     RDKit          3D

 13 13  0  0  0  0  0  0  0  0999 V2000
    2.8972   18.6610   41.1097 N   0  0  0  0  0  0  0  0  0  0  0  0
    3.4378   18.9398   39.8314 C   0  0  0  0  0  0  0  0  0  0  0  0
    2.7589   19.9307   39.0335 C   0  0  0  0  0  0  0  0  0  0  0  0
    1.6146   20.5524   39.5003 C   0  0  0  0  0  0  0  0  0  0  0  0
    1.1394   20.2692   40.7620 C   0  0  0  0  0  0  0  0  0  0  0  0
    1.7652   19.3117   41.5285 C   0  0  0  0  0  0  0  0  0  0  0  0
    3.2287   20.2102   37.6136 C   0  0  0  0  0  0  0  0  0  0  0  0
    4.3553   19.7594   37.2526 O   0  0  0  0  0  0  0  0  0  0  0  0
    2.4509   20.8498   36.9390 O   0  0  0  0  0  0  0  0  0  0  0  0
    4.3363   18.4231   39.4629 H   0  0  0  0  0  0  0  0  0  0  0  0
    1.0830   21.2743   38.8628 H   0  0  0  0  0  0  0  0  0  0  0  0
    0.2636   20.8058   41.1555 H   0  0  0  0  0  0  0  0  0  0  0  0
    1.3419   19.0598   42.5120 H   0  0  0  0  0  0  0  0  0  0  0  0
  1  2  1  0
  1  6  2  0
  2  3  2  0
  3  4  1  0
  3  7  1  0
  4  5  2  0
  5  6  1  0
  7  8  1  0
  7  9  2  0
  2 10  1  0
  4 11  1  0
  5 12  1  0
  6 13  1  0
M  CHG  1   8  -1
M  END
>  <mol_id>  (9) 
2026-09-18-3war-s0-n100-r3-0009

>  <rmsd_to_ref>  (9) 
0.821428571429429

>  <pose_kind>  (9) 
rigid

$$$$
3war.A
     RDKit          3D

 13 13  0  0  0  0  0  0  0  0999 V2000
    2.5095   18.9308   41.0759 N   0  0  0  0  0  0  0  0  0  0  0  0
    2.7727   18.5110   39.8061 C   0  0  0  0  0  0  0  0  0  0  0  0
    2.2571   19.2193   38.7355 C   0  0  0  0  0  0  0  0  0  0  0  0
    1.4788   20.3463   38.9213 C   0  0  0  0  0  0  0  0  0  0  0  0
    1.2192   20.7622   40.2264 C   0  0  0  0  0  0  0  0  0  0  0  0
    1.7541   20.0251   41.2648 C   0  0  0  0  0  0  0  0  0  0  0  0
    2.5573   18.7436   37.3895 C   0  0  0  0  0  0  0  0  0  0  0  0
    2.0753   19.4017   36.2649 O   0  0  0  0  0  0  0  0  0  0  0  0
    3.2749   17.7037   37.1951 O   0  0  0  0  0  0  0  0  0  0  0  0
    3.3872   17.6216   39.6717 H   0  0  0  0  0  0  0  0  0  0  0  0
    1.0878   20.8822   38.0727 H   0  0  0  0  0  0  0  0  0  0  0  0
    0.6148   21.6392   40.4243 H   0  0  0  0  0  0  0  0  0  0  0  0
    1.5334   20.3751   42.2694 H   0  0  0  0  0  0  0  0  0  0  0  0
  1  2  1  0
  1  6  2  0
  2  3  2  0
  3  4  1  0
  3  7  1  0
  4  5  2  0
  5  6  1  0
  7  8  1  0
  7  9  2  0
  2 10  1  0
  4 11  1  0
  5 12  1  0
  6 13  1  0
M  CHG  1   8  -1
M  END
>  <mol_id>  (10) 
2026-09-18-3war-s0-n100-r3-0010

>  <rmsd_to_ref>  (10) 
0.8673469387763553

>  <pose_kind>  (10) 
conformer

$$$$
3war.A
     RDKit          3D

 13 13  0  0  0  0  0  0  0  0999 V2000
    1.9254   19.5391   40.7981 N   0  0  0  0  0  0  0  0  0  0  0  0
    2.3731   18.9639   39.5845 C   0  0  0  0  0  0  0  0  0  0  0  0
    2.0778   19.6821   38.3695 C   0  0  0  0  0  0  0  0  0  0  0  0
    1.3630   20.8662   38.4032 C   0  0  0  0  0  0  0  0  0  0  0  0
    0.9704   21.4027   39.6098 C   0  0  0  0  0  0  0  0  0  0  0  0
    1.2280   20.7196   40.7772 C   0  0  0  0  0  0  0  0  0  0  0  0
    2.4449   19.0750   37.0236 C   0  0  0  0  0  0  0  0  0  0  0  0
    3.2278   18.0803   37.0054 O   0  0  0  0  0  0  0  0  0  0  0  0
    1.9289   19.6123   36.0674 O   0  0  0  0  0  0  0  0  0  0  0  0
    2.9222   18.0109   39.5691 H   0  0  0  0  0  0  0  0  0  0  0  0
    1.1078   21.3802   37.4648 H   0  0  0  0  0  0  0  0  0  0  0  0
    0.4531   22.3729   39.6405 H   0  0  0  0  0  0  0  0  0  0  0  0
    0.8612   21.1358   41.7271 H   0  0  0  0  0  0  0  0  0  0  0  0
  1  2  1  0
  1  6  2  0
  2  3  2  0
  3  4  1  0
  3  7  1  0
  4  5  2  0
  5  6  1  0
  7  8  1  0
  7  9  2  0
  2 10  1  0
  4 11  1  0
  5 12  1  0
  6 13  1  0
M  CHG  1   8  -1
M  END
>  <mol_id>  (11) 
2026-09-18-3war-s0-n100-r3-0011

>  <rmsd_to_ref>  (11) 
0.9132653061230079

>  <pose_kind>  (11) 
rigid

$$$$
3war.A
     RDKit          3D

 13 13  0  0  0  0  0  0  0  0999 V2000
    1.2682   18.7933   39.7084 N   0  0  0  0  0  0  0  0  0  0  0  0
    2.2596   18.8054   38.7958 C   0  0  0  0  0  0  0  0  0  0  0  0
    2.6852   20.0010   38.2507 C   0  0  0  0  0  0  0  0  0  0  0  0
    2.0941   21.1751   38.6427 C   0  0  0  0  0  0  0  0  0  0  0  0
    1.0655   21.1491   39.5914 C   0  0  0  0  0  0  0  0  0  0  0  0
    0.6587   19.9376   40.1211 C   0  0  0  0  0  0  0  0  0  0  0  0
    3.7549   20.0017   37.2677 C   0  0  0  0  0  0  0  0  0  0  0  0
    4.3516   18.8110   36.8727 O   0  0  0  0  0  0  0  0  0  0  0  0
    4.1563   21.0820   36.7598 O   0  0  0  0  0  0  0  0  0  0  0  0
    2.7530   17.8910   38.4601 H   0  0  0  0  0  0  0  0  0  0  0  0
    2.4166   22.1362   38.2226 H   0  0  0  0  0  0  0  0  0  0  0  0
    0.5711   22.0342   39.9316 H   0  0  0  0  0  0  0  0  0  0  0  0
   -0.1406   19.8948   40.8611 H   0  0  0  0  0  0  0  0  0  0  0  0
  1  2  1  0
  1  6  2  0
  2  3  2  0
  3  4  1  0
  3  7  1  0
  4  5  2  0
  5  6  1  0
  7  8  1  0
  7  9  2  0
  2 10  1  0
  4 11  1  0
  5 12  1  0
  6 13  1  0
M  CHG  1   8  -1
M  END
>  <mol_id>  (12) 
2026-09-18-3war-s0-n100-r3-0012

>  <rmsd_to_ref>  (12) 
0.9591836734740773

>  <pose_kind>  (12) 
conformer

$$$$
3war.A
     RDKit          3D

 13 13  0  0  0  0  0  0  0  0999 V2000
    2.4972   19.0504   41.0738 N   0  0  0  0  0  0  0  0  0  0  0  0
    2.6965   18.4622   39.8017 C   0  0  0  0  0  0  0  0  0  0  0  0
    2.8126   19.3561   38.6761 C   0  0  0  0  0  0  0  0  0  0  0  0
    2.7039   20.7249   38.8452 C   0  0  0  0  0  0  0  0  0  0  0  0
    2.5367   21.2546   40.1059 C   0  0  0  0  0  0  0  0  0  0  0  0
    2.4050   20.4138   41.1882 C   0  0  0  0  0  0  0  0  0  0  0  0
    2.9319   18.7894   37.2692 C   0  0  0  0  0  0  0  0  0  0  0  0
    3.1856   17.5563   37.1364 O   0  0  0  0  0  0  0  0  0  0  0  0
    2.7577   19.5960   36.3813 O   0  0  0  0  0  0  0  0  0  0  0  0
    2.7601   17.3711   39.6773 H   0  0  0  0  0  0  0  0  0  0  0  0
    2.7510   21.3915   37.9715 H   0  0  0  0  0  0  0  0  0  0  0  0
    2.5085   22.3451   40.2473 H   0  0  0  0  0  0  0  0  0  0  0  0
    2.2191   20.8513   42.1802 H   0  0  0  0  0  0  0  0  0  0  0  0
  1  2  1  0
  1  6  2  0
  2  3  2  0
  3  4  1  0
  3  7  1  0
  4  5  2  0
  5  6  1  0
  7  8  1  0
  7  9  2  0
  2 10  1  0
  4 11  1  0
  5 12  1  0
  6 13  1  0
M  CHG  1   8  -1
M  END
>  <mol_id>  (13) 
2026-09-18-3war-s0-n100-r3-0013

>  <rmsd_to_ref>  (13) 
1.0051020408180644

>  <pose_kind>  (13) 
rigid

$$$$
3war.A
     RDKit          3D

 13 13  0  0  0  0  0  0  0  0999 V2000
    1.4609   18.3347   40.0129 N   0  0  0  0  0  0  0  0  0  0  0  0
    2.0281   18.8373   38.9001 C   0  0  0  0  0  0  0  0  0  0  0  0
    2.0958   20.2119   38.7891 C   0  0  0  0  0  0  0  0  0  0  0  0
    1.6131   21.0696   39.7574 C   0  0  0  0  0  0  0  0  0  0  0  0
    1.0391   20.4785   40.8823 C   0  0  0  0  0  0  0  0  0  0  0  0
    0.9618   19.0946   41.0121 C   0  0  0  0  0  0  0  0  0  0  0  0
    2.6995   20.8138   37.6059 C   0  0  0  0  0  0  0  0  0  0  0  0
    3.2217   20.0626   36.5610 O   0  0  0  0  0  0  0  0  0  0  0  0
    2.7412   22.0862   37.5445 O   0  0  0  0  0  0  0  0  0  0  0  0
    2.4116   18.1682   38.1312 H   0  0  0  0  0  0  0  0  0  0  0  0
    1.6471   22.1304   39.7079 H   0  0  0  0  0  0  0  0  0  0  0  0
    0.6375   21.0888   41.6863 H   0  0  0  0  0  0  0  0  0  0  0  0
    0.5168   18.6282   41.8841 H   0  0  0  0  0  0  0  0  0  0  0  0
  1  2  1  0
  1  6  2  0
  2  3  2  0
  3  4  1  0
  3  7  1  0
  4  5  2  0
  5  6  1  0
  7  8  1  0
  7  9  2  0
  2 10  1  0
  4 11  1  0
  5 12  1  0
  6 13  1  0
M  CHG  1   8  -1
M  END
>  <mol_id>  (14) 
2026-09-18-3war-s0-n100-r3-0014

>  <rmsd_to_ref>  (14) 
1.0510204081645085

>  <pose_kind>  (14) 
conformer

$$$$
3war.A
     RDKit          3D

 13 13  0  0  0  0  0  0  0  0999 V2000
    2.6263   17.8766   39.9680 N   0  0  0  0  0  0  0  0  0  0  0  0
    2.6186   18.2394   38.5996 C   0  0  0  0  0  0  0  0  0  0  0  0
    2.1333   19.5574   38.2727 C   0  0  0  0  0  0  0  0  0  0  0  0
    1.6729   20.4076   39.2623 C   0  0  0  0  0  0  0  0  0  0  0  0
    1.7241   20.0222   40.5840 C   0  0  0  0  0  0  0  0  0  0  0  0
    2.1670   18.7601   40.9107 C   0  0  0  0  0  0  0  0  0  0  0  0
    2.0075   19.9775   36.8159 C   0  0  0  0  0  0  0  0  0  0  0  0
    2.5696   19.2649   35.9333 O   0  0  0  0  0  0  0  0  0  0  0  0
    1.3524   20.9807   36.6323 O   0  0  0  0  0  0  0  0  0  0  0  0
    2.9675   17.5464   37.8199 H   0  0  0  0  0  0  0  0  0  0  0  0
    1.2652   21.3932   38.9934 H   0  0  0  0  0  0  0  0  0  0  0  0
    1.4125   20.7200   41.3751 H   0  0  0  0  0  0  0  0  0  0  0  0
    2.1517   18.4493   41.9658 H   0  0  0  0  0  0  0  0  0  0  0  0
  1  2  1  0
  1  6  2  0
  2  3  2  0
  3  4  1  0
  3  7  1  0
  4  5  2  0
  5  6  1  0
  7  8  1  0
  7  9  2  0
  2 10  1  0
  4 11  1  0
  5 12  1  0
  6 13  1  0
M  CHG  1   8  -1
M  END
>  <mol_id>  (15) 
2026-09-18-3war-s0-n100-r3-0015

>  <rmsd_to_ref>  (15) 
1.096938775510677

>  <pose_kind>  (15) 
rigid

$$$$
3war.A
     RDKit          3D

 13 13  0  0  0  0  0  0  0  0999 V2000
    0.8761   18.4063   40.2370 N   0  0  0  0  0  0  0  0  0  0  0  0
    1.8806   18.7086   39.3726 C   0  0  0  0  0  0  0  0  0  0  0  0
    2.2855   20.0079   39.1412 C   0  0  0  0  0  0  0  0  0  0  0  0
    1.6463   21.0448   39.8135 C   0  0  0  0  0  0  0  0  0  0  0  0
    0.6222   20.7147   40.6925 C   0  0  0  0  0  0  0  0  0  0  0  0
    0.2350   19.4043   40.9070 C   0  0  0  0  0  0  0  0  0  0  0  0
    3.3656   20.2844   38.2070 C   0  0  0  0  0  0  0  0  0  0  0  0
    3.7963   21.5580   37.9501 O   0  0  0  0  0  0  0  0  0  0  0  0
    3.9407   19.3330   37.6003 O   0  0  0  0  0  0  0  0  0  0  0  0
    2.3476   17.8703   38.8735 H   0  0  0  0  0  0  0  0  0  0  0  0
    1.9562   22.0540   39.6378 H   0  0  0  0  0  0  0  0  0  0  0  0
    0.1183   21.5297   41.2222 H   0  0  0  0  0  0  0  0  0  0  0  0
   -0.5683   19.1673   41.5988 H   0  0  0  0  0  0  0  0  0  0  0  0
  1  2  1  0
  1  6  2  0
  2  3  2  0
  3  4  1  0
  3  7  1  0
  4  5  2  0
  5  6  1  0
  7  8  1  0
  7  9  2  0
  2 10  1  0
  4 11  1  0
  5 12  1  0
  6 13  1  0
M  CHG  1   8  -1
M  END
>  <mol_id>  (16) 
2026-09-18-3war-s0-n100-r3-0016

>  <rmsd_to_ref>  (16) 
1.14285714286222

>  <pose_kind>  (16) 
conformer

$$$$
3war.A
     RDKit          3D

 13 13  0  0  0  0  0  0  0  0999 V2000
    1.6034   19.5240   40.6934 N   0  0  0  0  0  0  0  0  0  0  0  0
    2.6814   19.1131   39.8729 C   0  0  0  0  0  0  0  0  0  0  0  0
    3.0485   19.9860   38.7854 C   0  0  0  0  0  0  0  0  0  0  0  0
    2.3496   21.1568   38.5510 C   0  0  0  0  0  0  0  0  0  0  0  0
    1.3242   21.5301   39.3918 C   0  0  0  0  0  0  0  0  0  0  0  0
    0.9492   20.6984   40.4230 C   0  0  0  0  0  0  0  0  0  0  0  0
    4.1338   19.5611   37.8075 C   0  0  0  0  0  0  0  0  0  0  0  0
    4.8675   18.5759   38.1133 O   0  0  0  0  0  0  0  0  0  0  0  0
    4.1880   20.2212   36.7922 O   0  0  0  0  0  0  0  0  0  0  0  0
    3.2156   18.1692   40.0568 H   0  0  0  0  0  0  0  0  0  0  0  0
    2.6133   21.7908   37.6916 H   0  0  0  0  0  0  0  0  0  0  0  0
    0.8069   22.4890   39.2400 H   0  0  0  0  0  0  0  0  0  0  0  0
    0.0943   20.9863   41.0525 H   0  0  0  0  0  0  0  0  0  0  0  0
  1  2  1  0
  1  6  2  0
  2  3  2  0
  3  4  1  0
  3  7  1  0
  4  5  2  0
  5  6  1  0
  7  8  1  0
  7  9  2  0
  2 10  1  0
  4 11  1  0
  5 12  1  0
  6 13  1  0
M  CHG  1   8  -1
M  END
>  <mol_id>  (17) 
2026-09-18-3war-s0-n100-r3-0017

>  <rmsd_to_ref>  (17) 
1.1887755102072515

>  <pose_kind>  (17) 
rigid

$$$$
3war.A
     RDKit          3D

 13 13  0  0  0  0  0  0  0  0999 V2000
    1.8788   18.3121   40.1923 N   0  0  0  0  0  0  0  0  0  0  0  0
    2.4324   18.9401   39.1285 C   0  0  0  0  0  0  0  0  0  0  0  0
    1.8003   19.9951   38.5232 C   0  0  0  0  0  0  0  0  0  0  0  0
    0.5678   20.4023   39.0374 C   0  0  0  0  0  0  0  0  0  0  0  0
   -0.0143   19.7770   40.1200 C   0  0  0  0  0  0  0  0  0  0  0  0
    0.6741   18.7217   40.6829 C   0  0  0  0  0  0  0  0  0  0  0  0
    2.3825   20.6818   37.3776 C   0  0  0  0  0  0  0  0  0  0  0  0
    1.6980   21.7456   36.8029 O   0  0  0  0  0  0  0  0  0  0  0  0
    3.4974   20.2971   36.9292 O   0  0  0  0  0  0  0  0  0  0  0  0
    3.3832   18.5728   38.7864 H   0  0  0  0  0  0  0  0  0  0  0  0
    0.0609   21.2381   38.5626 H   0  0  0  0  0  0  0  0  0  0  0  0
   -0.9557   20.0731   40.5280 H   0  0  0  0  0  0  0  0  0  0  0  0
    0.2844   18.1869   41.5270 H   0  0  0  0  0  0  0  0  0  0  0  0
  1  2  1  0
  1  6  2  0
  2  3  2  0
  3  4  1  0
  3  7  1  0
  4  5  2  0
  5  6  1  0
  7  8  1  0
  7  9  2  0
  2 10  1  0
  4 11  1  0
  5 12  1  0
  6 13  1  0
M  CHG  1   8  -1
M  END
>  <mol_id>  (18) 
2026-09-18-3war-s0-n100-r3-0018

>  <rmsd_to_ref>  (18) 
1.2346938775538825

>  <pose_kind>  (18) 
conformer

$$$$
3war.A
     RDKit          3D

 13 13  0  0  0  0  0  0  0  0999 V2000
    3.4614   18.8709   39.9572 N   0  0  0  0  0  0  0  0  0  0  0  0
    3.7594   19.3925   38.6754 C   0  0  0  0  0  0  0  0  0  0  0  0
    2.7918   20.2868   38.0895 C   0  0  0  0  0  0  0  0  0  0  0  0
    1.6158   20.5898   38.7523 C   0  0  0  0  0  0  0  0  0  0  0  0
    1.3801   20.0800   40.0102 C   0  0  0  0  0  0  0  0  0  0  0  0
    2.2851   19.2097   40.5752 C   0  0  0  0  0  0  0  0  0  0  0  0
    3.0023   20.8082   36.6758 C   0  0  0  0  0  0  0  0  0  0  0  0
    4.1398   20.6562   36.1413 O   0  0  0  0  0  0  0  0  0  0  0  0
    2.0274   21.3273   36.1765 O   0  0  0  0  0  0  0  0  0  0  0  0
    4.6883   19.1272   38.1493 H   0  0  0  0  0  0  0  0  0  0  0  0
    0.8677   21.2390   38.2740 H   0  0  0  0  0  0  0  0  0  0  0  0
    0.4723   20.3671   40.5612 H   0  0  0  0  0  0  0  0  0  0  0  0
    2.0564   18.7705   41.5574 H   0  0  0  0  0  0  0  0  0  0  0  0
  1  2  1  0
  1  6  2  0
  2  3  2  0
  3  4  1  0
  3  7  1  0
  4  5  2  0
  5  6  1  0
  7  8  1  0
  7  9  2  0
  2 10  1  0
  4 11  1  0
  5 12  1  0
  6 13  1  0
M  CHG  1   8  -1
M  END
>  <mol_id>  (19) 
2026-09-18-3war-s0-n100-r3-0019

>  <rmsd_to_ref>  (19) 
1.2806122449011808

>  <pose_kind>  (19) 
rigid

$$$$
3war.A
     RDKit          3D

 13 13  0  0  0  0  0  0  0  0999 V2000
    0.8928   19.2505   40.9286 N   0  0  0  0  0  0  0  0  0  0  0  0
    1.9907   19.3013   40.1197 C   0  0  0  0  0  0  0  0  0  0  0  0
    1.9379   20.0856   38.9847 C   0  0  0  0  0  0  0  0  0  0  0  0
    0.8295   20.8231   38.6244 C   0  0  0  0  0  0  0  0  0  0  0  0
   -0.2763   20.7510   39.4701 C   0  0  0  0  0  0  0  0  0  0  0  0
   -0.1982   19.9625   40.5945 C   0  0  0  0  0  0  0  0  0  0  0  0
    3.1137   20.1368   38.1234 C   0  0  0  0  0  0  0  0  0  0  0  0
    4.2768   19.4564   38.3621 O   0  0  0  0  0  0  0  0  0  0  0  0
    3.0295   20.8693   37.0865 O   0  0  0  0  0  0  0  0  0  0  0  0
    2.8779   18.7329   40.3755 H   0  0  0  0  0  0  0  0  0  0  0  0
    0.8036   21.4221   37.7479 H   0  0  0  0  0  0  0  0  0  0  0  0
   -1.1647   21.3160   39.2201 H   0  0  0  0  0  0  0  0  0  0  0  0
   -1.0456   19.8856   41.2749 H   0  0  0  0  0  0  0  0  0  0  0  0
  1  2  1  0
  1  6  2  0
  2  3  2  0
  3  4  1  0
  3  7  1  0
  4  5  2  0
  5  6  1  0
  7  8  1  0
  7  9  2  0
  2 10  1  0
  4 11  1  0
  5 12  1  0
  6 13  1  0
M  CHG  1   8  -1
M  END
>  <mol_id>  (20) 
2026-09-18-3war-s0-n100-r3-0020

>  <rmsd_to_ref>  (20) 
1.3265306122476828

>  <pose_kind>  (20) 
conformer

$$$$
3war.A
     RDKit          3D

 13 13  0  0  0  0  0  0  0  0999 V2000
    1.1878   19.8937   41.2832 N   0  0  0  0  0  0  0  0  0  0  0  0
    2.0281   19.1338   40.4345 C   0  0  0  0  0  0  0  0  0  0  0  0
    2.5651   19.8007   39.2742 C   0  0  0  0  0  0  0  0  0  0  0  0
    2.2412   21.1179   39.0019 C   0  0  0  0  0  0  0  0  0  0  0  0
    1.4408   21.8269   39.8706 C   0  0  0  0  0  0  0  0  0  0  0  0
    0.9048   21.1990   40.9725 C   0  0  0  0  0  0  0  0  0  0  0  0
    3.3969   19.0180   38.2691 C   0  0  0  0  0  0  0  0  0  0  0  0
    3.8155   17.8696   38.5986 O   0  0  0  0  0  0  0  0  0  0  0  0
    3.5771   19.5822   37.2115 O   0  0  0  0  0  0  0  0  0  0  0  0
    2.2611   18.0807   40.6505 H   0  0  0  0  0  0  0  0  0  0  0  0
    2.6235   21.6000   38.0900 H   0  0  0  0  0  0  0  0  0  0  0  0
    1.2308   22.8905   39.6846 H   0  0  0  0  0  0  0  0  0  0  0  0
    0.2253   21.7646   41.6269 H   0  0  0  0  0  0  0  0  0  0  0  0
  1  2  1  0
  1  6  2  0
  2  3  2  0
  3  4  1  0
  3  7  1  0
  4  5  2  0
  5  6  1  0
  7  8  1  0
  7  9  2  0
  2 10  1  0
  4 11  1  0
  5 12  1  0
  6 13  1  0
M  CHG  1   8  -1
M  END
>  <mol_id>  (21) 
2026-09-18-3war-s0-n100-r3-0021

>  <rmsd_to_ref>  (21) 
1.3724489795975694

>  <pose_kind>  (21) 
rigid

$$$$
3war.A
     RDKit          3D

 13 13  0  0  0  0  0  0  0  0999 V2000
    3.4365   18.8502   39.7830 N   0  0  0  0  0  0  0  0  0  0  0  0
    3.5979   19.5244   38.6146 C   0  0  0  0  0  0  0  0  0  0  0  0
    2.6573   20.4546   38.1831 C   0  0  0  0  0  0  0  0  0  0  0  0
    1.5286   20.7200   38.9328 C   0  0  0  0  0  0  0  0  0  0  0  0
    1.3802   20.0169   40.1308 C   0  0  0  0  0  0  0  0  0  0  0  0
    2.3362   19.0901   40.5417 C   0  0  0  0  0  0  0  0  0  0  0  0
    2.8633   21.1595   36.9240 C   0  0  0  0  0  0  0  0  0  0  0  0
    3.9844   20.9161   36.1491 O   0  0  0  0  0  0  0  0  0  0  0  0
    1.9667   22.0002   36.5810 O   0  0  0  0  0  0  0  0  0  0  0  0
    4.4801   19.3257   38.0158 H   0  0  0  0  0  0  0  0  0  0  0  0
    0.7844   21.4449   38.6078 H   0  0  0  0  0  0  0  0  0  0  0  0
    0.4927   20.2317   40.7111 H   0  0  0  0  0  0  0  0  0  0  0  0
    2.2042   18.5501   41.4801 H   0  0  0  0  0  0  0  0  0  0  0  0
  1  2  1  0
  1  6  2  0
  2  3  2  0
  3  4  1  0
  3  7  1  0
  4  5  2  0
  5  6  1  0
  7  8  1  0
  7  9  2  0
  2 10  1  0
  4 11  1  0
  5 12  1  0
  6 13  1  0
M  CHG  1   8  -1
M  END
>  <mol_id>  (22) 
2026-09-18-3war-s0-n100-r3-0022

>  <rmsd_to_ref>  (22) 
1.4183673469400357

>  <pose_kind>  (22) 
conformer

$$$$
3war.A
     RDKit          3D

 13 13  0  0  0  0  0  0  0  0999 V2000
    2.8470   18.2660   40.2078 N   0  0  0  0  0  0  0  0  0  0  0  0
    3.7692   18.7708   39.2598 C   0  0  0  0  0  0  0  0  0  0  0  0
    3.2358   19.5776   38.1903 C   0  0  0  0  0  0  0  0  0  0  0  0
    1.8763   19.8154   38.0936 C   0  0  0  0  0  0  0  0  0  0  0  0
    1.0187   19.3260   39.0543 C   0  0  0  0  0  0  0  0  0  0  0  0
    1.5100   18.5382   40.0710 C   0  0  0  0  0  0  0  0  0  0  0  0
    4.1561   20.0723   37.0844 C   0  0  0  0  0  0  0  0  0  0  0  0
    5.4071   19.9860   37.2588 O   0  0  0  0  0  0  0  0  0  0  0  0
    3.5861   20.5068   36.1069 O   0  0  0  0  0  0  0  0  0  0  0  0
    4.8456   18.5570   39.3358 H   0  0  0  0  0  0  0  0  0  0  0  0
    1.4794   20.3963   37.2480 H   0  0  0  0  0  0  0  0  0  0  0  0
   -0.0543   19.5638   39.0093 H   0  0  0  0  0  0  0  0  0  0  0  0
    0.8048   18.1119   40.7997 H   0  0  0  0  0  0  0  0  0  0  0  0
  1  2  1  0
  1  6  2  0
  2  3  2  0
  3  4  1  0
  3  7  1  0
  4  5  2  0
  5  6  1  0
  7  8  1  0
  7  9  2  0
  2 10  1  0
  4 11  1  0
  5 12  1  0
  6 13  1  0
M  CHG  1   8  -1
M  END
>  <mol_id>  (23) 
2026-09-18-3war-s0-n100-r3-0023

>  <rmsd_to_ref>  (23) 
1.4642857142865953

>  <pose_kind>  (23) 
rigid

$$$$
3war.A
     RDKit          3D

 13 13  0  0  0  0  0  0  0  0999 V2000
    0.7344   19.8429   39.5619 N   0  0  0  0  0  0  0  0  0  0  0  0
    1.7729   19.6533   38.7244 C   0  0  0  0  0  0  0  0  0  0  0  0
    2.7318   20.6375   38.6053 C   0  0  0  0  0  0  0  0  0  0  0  0
    2.6603   21.8144   39.3195 C   0  0  0  0  0  0  0  0  0  0  0  0
    1.5665   21.9687   40.1760 C   0  0  0  0  0  0  0  0  0  0  0  0
    0.6134   20.9746   40.2855 C   0  0  0  0  0  0  0  0  0  0  0  0
    3.8559   20.4314   37.6983 C   0  0  0  0  0  0  0  0  0  0  0  0
    3.9723   19.2620   36.9567 O   0  0  0  0  0  0  0  0  0  0  0  0
    4.7451   21.3157   37.5718 O   0  0  0  0  0  0  0  0  0  0  0  0
    1.8403   18.7302   38.1562 H   0  0  0  0  0  0  0  0  0  0  0  0
    3.4217   22.5618   39.2057 H   0  0  0  0  0  0  0  0  0  0  0  0
    1.4740   22.8632   40.7456 H   0  0  0  0  0  0  0  0  0  0  0  0
   -0.2090   21.1599   40.9684 H   0  0  0  0  0  0  0  0  0  0  0  0
  1  2  1  0
  1  6  2  0
  2  3  2  0
  3  4  1  0
  3  7  1  0
  4  5  2  0
  5  6  1  0
  7  8  1  0
  7  9  2  0
  2 10  1  0
  4 11  1  0
  5 12  1  0
  6 13  1  0
M  CHG  1   8  -1
M  END
>  <mol_id>  (24) 
2026-09-18-3war-s0-n100-r3-0024

>  <rmsd_to_ref>  (24) 
1.5102040816338556

>  <pose_kind>  (24) 
conformer

$$$$
3war.A
     RDKit          3D

 13 13  0  0  0  0  0  0  0  0999 V2000
    1.1305   20.3160   40.3283 N   0  0  0  0  0  0  0  0  0  0  0  0
    2.0194   19.5457   39.5405 C   0  0  0  0  0  0  0  0  0  0  0  0
    2.9685   20.2656   38.7279 C   0  0  0  0  0  0  0  0  0  0  0  0
    2.9784   21.6490   38.7091 C   0  0  0  0  0  0  0  0  0  0  0  0
    2.1123   22.3575   39.5127 C   0  0  0  0  0  0  0  0  0  0  0  0
    1.1874   21.6852   40.2798 C   0  0  0  0  0  0  0  0  0  0  0  0
    3.8884   19.5041   37.7852 C   0  0  0  0  0  0  0  0  0  0  0  0
    3.9829   18.2489   37.9199 O   0  0  0  0  0  0  0  0  0  0  0  0
    4.4537   20.1922   36.9629 O   0  0  0  0  0  0  0  0  0  0  0  0
    1.9875   18.4462   39.5480 H   0  0  0  0  0  0  0  0  0  0  0  0
    3.6790   22.1840   38.0513 H   0  0  0  0  0  0  0  0  0  0  0  0
    2.1595   23.4562   39.5414 H   0  0  0  0  0  0  0  0  0  0  0  0
    0.4685   22.2673   40.8751 H   0  0  0  0  0  0  0  0  0  0  0  0
  1  2  1  0
  1  6  2  0
  2  3  2  0
  3  4  1  0
  3  7  1  0
  4  5  2  0
  5  6  1  0
  7  8  1  0
  7  9  2  0
  2 10  1  0
  4 11  1  0
  5 12  1  0
  6 13  1  0
M  CHG  1   8  -1
M  END
>  <mol_id>  (25) 
2026-09-18-3war-s0-n100-r3-0025

>  <rmsd_to_ref>  (25) 
1.5561224489814047

>  <pose_kind>  (25) 
rigid

$$$$
3war.A
     RDKit          3D

 13 13  0  0  0  0  0  0  0  0999 V2000
    0.7166   19.4770   39.7557 N   0  0  0  0  0  0  0  0  0  0  0  0
    0.9120   19.1761   38.4532 C   0  0  0  0  0  0  0  0  0  0  0  0
    1.8577   19.8271   37.6938 C   0  0  0  0  0  0  0  0  0  0  0  0
    2.6453   20.8152   38.2347 C   0  0  0  0  0  0  0  0  0  0  0  0
    2.4343   21.1157   39.5771 C   0  0  0  0  0  0  0  0  0  0  0  0
    1.4684   20.4406   40.3258 C   0  0  0  0  0  0  0  0  0  0  0  0
    2.0252   19.4639   36.3005 C   0  0  0  0  0  0  0  0  0  0  0  0
    2.9569   20.0789   35.4830 O   0  0  0  0  0  0  0  0  0  0  0  0
    1.3094   18.5520   35.7721 O   0  0  0  0  0  0  0  0  0  0  0  0
    0.2726   18.3882   38.0516 H   0  0  0  0  0  0  0  0  0  0  0  0
    3.3764   21.3171   37.6443 H   0  0  0  0  0  0  0  0  0  0  0  0
    3.0293   21.8954   40.0731 H   0  0  0  0  0  0  0  0  0  0  0  0
    1.3297   20.6995   41.3696 H   0  0  0  0  0  0  0  0  0  0  0  0
  1  2  1  0
  1  6  2  0
  2  3  2  0
  3  4  1  0
  3  7  1  0
  4  5  2  0
  5  6  1  0
  7  8  1  0
  7  9  2  0
  2 10  1  0
  4 11  1  0
  5 12  1  0
  6 13  1  0
M  CHG  1   8  -1
M  END
>  <mol_id>  (26) 
2026-09-18-3war-s0-n100-r3-0026

>  <rmsd_to_ref>  (26) 
1.602040816330043

>  <pose_kind>  (26) 
conformer

$$$$
3war.A
     RDKit          3D

 13 13  0  0  0  0  0  0  0  0999 V2000
    1.3758   19.2222   40.1687 N   0  0  0  0  0  0  0  0  0  0  0  0
    2.4913   18.5707   39.5898 C   0  0  0  0  0  0  0  0  0  0  0  0
    3.2725   19.3251   38.6410 C   0  0  0  0  0  0  0  0  0  0  0  0
    2.9175   20.6184   38.3015 C   0  0  0  0  0  0  0  0  0  0  0  0
    1.8391   21.2219   38.9104 C   0  0  0  0  0  0  0  0  0  0  0  0
    1.0719   20.5086   39.8040 C   0  0  0  0  0  0  0  0  0  0  0  0
    4.4268   18.6562   37.9097 C   0  0  0  0  0  0  0  0  0  0  0  0
    4.8399   17.5369   38.3332 O   0  0  0  0  0  0  0  0  0  0  0  0
    4.8480   19.2734   36.9553 O   0  0  0  0  0  0  0  0  0  0  0  0
    2.7509   17.5345   39.8522 H   0  0  0  0  0  0  0  0  0  0  0  0
    3.4974   21.1660   37.5440 H   0  0  0  0  0  0  0  0  0  0  0  0
    1.5918   22.2694   38.6835 H   0  0  0  0  0  0  0  0  0  0  0  0
    0.1835   20.9880   40.2411 H   0  0  0  0  0  0  0  0  0  0  0  0
  1  2  1  0
  1  6  2  0
  2  3  2  0
  3  4  1  0
  3  7  1  0
  4  5  2  0
  5  6  1  0
  7  8  1  0
  7  9  2  0
  2 10  1  0
  4 11  1  0
  5 12  1  0
  6 13  1  0
M  CHG  1   8  -1
M  END
>  <mol_id>  (27) 
2026-09-18-3war-s0-n100-r3-0027

>  <rmsd_to_ref>  (27) 
1.6479591836746634

>  <pose_kind>  (27) 
rigid

$$$$
3war.A
     RDKit          3D

 13 13  0  0  0  0  0  0  0  0999 V2000
    2.7244   18.6937   39.8087 N   0  0  0  0  0  0  0  0  0  0  0  0
    2.5513   19.3494   38.6448 C   0  0  0  0  0  0  0  0  0  0  0  0
    1.5002   20.2096   38.4347 C   0  0  0  0  0  0  0  0  0  0  0  0
    0.5698   20.4319   39.4328 C   0  0  0  0  0  0  0  0  0  0  0  0
    0.7497   19.7612   40.6186 C   0  0  0  0  0  0  0  0  0  0  0  0
    1.8322   18.8935   40.7950 C   0  0  0  0  0  0  0  0  0  0  0  0
    1.3724   20.8867   37.1517 C   0  0  0  0  0  0  0  0  0  0  0  0
    0.2996   21.7645   36.9375 O   0  0  0  0  0  0  0  0  0  0  0  0
    2.1876   20.7210   36.2133 O   0  0  0  0  0  0  0  0  0  0  0  0
    3.2621   19.1828   37.8752 H   0  0  0  0  0  0  0  0  0  0  0  0
   -0.2635   21.1132   39.2677 H   0  0  0  0  0  0  0  0  0  0  0  0
    0.0205   19.9381   41.3950 H   0  0  0  0  0  0  0  0  0  0  0  0
    1.9254   18.3837   41.7661 H   0  0  0  0  0  0  0  0  0  0  0  0
  1  2  1  0
  1  6  2  0
  2  3  2  0
  3  4  1  0
  3  7  1  0
  4  5  2  0
  5  6  1  0
  7  8  1  0
  7  9  2  0
  2 10  1  0
  4 11  1  0
  5 12  1  0
  6 13  1  0
M  CHG  1   8  -1
M  END
>  <mol_id>  (28) 
2026-09-18-3war-s0-n100-r3-0028

>  <rmsd_to_ref>  (28) 
1.6938775510241997

>  <pose_kind>  (28) 
conformer

$$$$
3war.A
     RDKit          3D

 13 13  0  0  0  0  0  0  0  0999 V2000
    4.3844   19.0424   40.9911 N   0  0  0  0  0  0  0  0  0  0  0  0
    4.0286   19.2292   39.6337 C   0  0  0  0  0  0  0  0  0  0  0  0
    2.7897   19.9179   39.3687 C   0  0  0  0  0  0  0  0  0  0  0  0
    1.9821   20.3465   40.4071 C   0  0  0  0  0  0  0  0  0  0  0  0
    2.3816   20.1667   41.7132 C   0  0  0  0  0  0  0  0  0  0  0  0
    3.5524   19.4941   41.9830 C   0  0  0  0  0  0  0  0  0  0  0  0
    2.2992   20.0686   37.9364 C   0  0  0  0  0  0  0  0  0  0  0  0
    3.1066   19.8176   36.9942 O   0  0  0  0  0  0  0  0  0  0  0  0
    1.1429   20.4163   37.8304 O   0  0  0  0  0  0  0  0  0  0  0  0
    4.6691   18.8650   38.8169 H   0  0  0  0  0  0  0  0  0  0  0  0
    1.0192   20.8316   40.1894 H   0  0  0  0  0  0  0  0  0  0  0  0
    1.7677   20.5589   42.5374 H   0  0  0  0  0  0  0  0  0  0  0  0
    3.8302   19.3127   43.0318 H   0  0  0  0  0  0  0  0  0  0  0  0
  1  2  1  0
  1  6  2  0
  2  3  2  0
  3  4  1  0
  3  7  1  0
  4  5  2  0
  5  6  1  0
  7  8  1  0
  7  9  2  0
  2 10  1  0
  4 11  1  0
  5 12  1  0
  6 13  1  0
M  CHG  1   8  -1
M  END
>  <mol_id>  (29) 
2026-09-18-3war-s0-n100-r3-0029

>  <rmsd_to_ref>  (29) 
1.7397959183709526

>  <pose_kind>  (29) 
rigid

$$$$
3war.A
     RDKit          3D

 13 13  0  0  0  0  0  0  0  0999 V2000
    3.5559   19.1360   41.3260 N   0  0  0  0  0  0  0  0  0  0  0  0
    2.9649   18.9774   40.1248 C   0  0  0  0  0  0  0  0  0  0  0  0
    2.8391   20.0190   39.2270 C   0  0  0  0  0  0  0  0  0  0  0  0
    3.3329   21.2864   39.5528 C   0  0  0  0  0  0  0  0  0  0  0  0
    3.9311   21.4112   40.7901 C   0  0  0  0  0  0  0  0  0  0  0  0
    4.0487   20.3552   41.6786 C   0  0  0  0  0  0  0  0  0  0  0  0
    2.1853   19.7590   37.9486 C   0  0  0  0  0  0  0  0  0  0  0  0
    2.0554   20.8195   37.0304 O   0  0  0  0  0  0  0  0  0  0  0  0
    1.7292   18.6363   37.6188 O   0  0  0  0  0  0  0  0  0  0  0  0
    2.5806   18.0105   39.8595 H   0  0  0  0  0  0  0  0  0  0  0  0
    3.2367   22.1106   38.8499 H   0  0  0  0  0  0  0  0  0  0  0  0
    4.3301   22.3695   41.0928 H   0  0  0  0  0  0  0  0  0  0  0  0
    4.5325   20.4932   42.6572 H   0  0  0  0  0  0  0  0  0  0  0  0
  1  2  1  0
  1  6  2  0
  2  3  2  0
  3  4  1  0
  3  7  1  0
  4  5  2  0
  5  6  1  0
  7  8  1  0
  7  9  2  0
  2 10  1  0
  4 11  1  0
  5 12  1  0
  6 13  1  0
M  CHG  1   8  -1
M  END
>  <mol_id>  (30) 
2026-09-18-3war-s0-n100-r3-0030

>  <rmsd_to_ref>  (30) 
1.785714285716208

>  <pose_kind>  (30) 
conformer

$$$$
3war.A
     RDKit          3D

 13 13  0  0  0  0  0  0  0  0999 V2000
    1.7571   17.8433   40.3479 N   0  0  0  0  0  0  0  0  0  0  0  0
    3.0906   18.1451   39.9811 C   0  0  0  0  0  0  0  0  0  0  0  0
    3.2974   19.3130   39.1608 C   0  0  0  0  0  0  0  0  0  0  0  0
    2.2259   20.0785   38.7365 C   0  0  0  0  0  0  0  0  0  0  0  0
    0.9473   19.7623   39.1403 C   0  0  0  0  0  0  0  0  0  0  0  0
    0.7313   18.6397   39.9076 C   0  0  0  0  0  0  0  0  0  0  0  0
    4.6925   19.6418   38.6507 C   0  0  0  0  0  0  0  0  0  0  0  0
    5.6791   19.0366   39.1636 O   0  0  0  0  0  0  0  0  0  0  0  0
    4.7269   20.4710   37.7672 O   0  0  0  0  0  0  0  0  0  0  0  0
    3.9321   17.5164   40.3073 H   0  0  0  0  0  0  0  0  0  0  0  0
    2.3953   20.9412   38.0754 H   0  0  0  0  0  0  0  0  0  0  0  0
    0.1022   20.4042   38.8508 H   0  0  0  0  0  0  0  0  0  0  0  0
   -0.3011   18.3721   40.1771 H   0  0  0  0  0  0  0  0  0  0  0  0
  1  2  1  0
  1  6  2  0
  2  3  2  0
  3  4  1  0
  3  7  1  0
  4  5  2  0
  5  6  1  0
  7  8  1  0
  7  9  2  0
  2 10  1  0
  4 11  1  0
  5 12  1  0
  6 13  1  0
M  CHG  1   8  -1
M  END
>  <mol_id>  (31) 
2026-09-18-3war-s0-n100-r3-0031

>  <rmsd_to_ref>  (31) 
1.8316326530634477

>  <pose_kind>  (31) 
rigid

$$$$
3war.A
     RDKit          3D

 13 13  0  0  0  0  0  0  0  0999 V2000
    3.8799   18.1789   39.7880 N   0  0  0  0  0  0  0  0  0  0  0  0
    3.1730   18.1566   38.6236 C   0  0  0  0  0  0  0  0  0  0  0  0
    2.8345   19.3510   38.0225 C   0  0  0  0  0  0  0  0  0  0  0  0
    3.2086   20.5447   38.5960 C   0  0  0  0  0  0  0  0  0  0  0  0
    3.9310   20.5557   39.7863 C   0  0  0  0  0  0  0  0  0  0  0  0
    4.2561   19.3362   40.3664 C   0  0  0  0  0  0  0  0  0  0  0  0
    2.0783   19.3896   36.7747 C   0  0  0  0  0  0  0  0  0  0  0  0
    1.6611   18.2347   36.1287 O   0  0  0  0  0  0  0  0  0  0  0  0
    1.8139   20.5370   36.2972 O   0  0  0  0  0  0  0  0  0  0  0  0
    2.8881   17.2245   38.1877 H   0  0  0  0  0  0  0  0  0  0  0  0
    2.9663   21.5041   38.1619 H   0  0  0  0  0  0  0  0  0  0  0  0
    4.2316   21.4853   40.2484 H   0  0  0  0  0  0  0  0  0  0  0  0
    4.8215   19.2724   41.3006 H   0  0  0  0  0  0  0  0  0  0  0  0
  1  2  1  0
  1  6  2  0
  2  3  2  0
  3  4  1  0
  3  7  1  0
  4  5  2  0
  5  6  1  0
  7  8  1  0
  7  9  2  0
  2 10  1  0
  4 11  1  0
  5 12  1  0
  6 13  1  0
M  CHG  1   8  -1
M  END
>  <mol_id>  (32) 
2026-09-18-3war-s0-n100-r3-0032

>  <rmsd_to_ref>  (32) 
1.8775510204110144

>  <pose_kind>  (32) 
conformer

$$$$
3war.A
     RDKit          3D

 13 13  0  0  0  0  0  0  0  0999 V2000
    1.4447   19.4830   40.6760 N   0  0  0  0  0  0  0  0  0  0  0  0
    2.7679   19.1072   40.3413 C   0  0  0  0  0  0  0  0  0  0  0  0
    3.4091   19.8396   39.2775 C   0  0  0  0  0  0  0  0  0  0  0  0
    2.7369   20.8445   38.6049 C   0  0  0  0  0  0  0  0  0  0  0  0
    1.4591   21.1944   38.9827 C   0  0  0  0  0  0  0  0  0  0  0  0
    0.8262   20.4921   39.9836 C   0  0  0  0  0  0  0  0  0  0  0  0
    4.7939   19.4262   38.8021 C   0  0  0  0  0  0  0  0  0  0  0  0
    5.4591   18.6189   39.5152 O   0  0  0  0  0  0  0  0  0  0  0  0
    5.1354   19.9169   37.7476 O   0  0  0  0  0  0  0  0  0  0  0  0
    3.2842   18.2921   40.8696 H   0  0  0  0  0  0  0  0  0  0  0  0
    3.2235   21.3649   37.7669 H   0  0  0  0  0  0  0  0  0  0  0  0
    0.9464   22.0317   38.4865 H   0  0  0  0  0  0  0  0  0  0  0  0
   -0.2128   20.7496   40.2369 H   0  0  0  0  0  0  0  0  0  0  0  0
  1  2  1  0
  1  6  2  0
  2  3  2  0
  3  4  1  0
  3  7  1  0
  4  5  2  0
  5  6  1  0
  7  8  1  0
  7  9  2  0
  2 10  1  0
  4 11  1  0
  5 12  1  0
  6 13  1  0
M  CHG  1   8  -1
M  END
>  <mol_id>  (33) 
2026-09-18-3war-s0-n100-r3-0033

>  <rmsd_to_ref>  (33) 
1.9234693877571674

>  <pose_kind>  (33) 
rigid

$$$$
3war.A
     RDKit          3D

 13 13  0  0  0  0  0  0  0  0999 V2000
    0.8301   18.3416   38.8761 N   0  0  0  0  0  0  0  0  0  0  0  0
    0.9007   19.0773   37.7498 C   0  0  0  0  0  0  0  0  0  0  0  0
    1.6004   20.2667   37.8126 C   0  0  0  0  0  0  0  0  0  0  0  0
    2.2145   20.7169   38.9604 C   0  0  0  0  0  0  0  0  0  0  0  0
    2.1138   19.9185   40.1053 C   0  0  0  0  0  0  0  0  0  0  0  0
    1.4092   18.7332   40.0188 C   0  0  0  0  0  0  0  0  0  0  0  0
    1.6957   21.0872   36.6096 C   0  0  0  0  0  0  0  0  0  0  0  0
    1.1077   20.7100   35.4117 O   0  0  0  0  0  0  0  0  0  0  0  0
    2.3421   22.1634   36.7096 O   0  0  0  0  0  0  0  0  0  0  0  0
    0.4459   18.7907   36.8136 H   0  0  0  0  0  0  0  0  0  0  0  0
    2.7589   21.6321   39.0281 H   0  0  0  0  0  0  0  0  0  0  0  0
    2.5681   20.2035   41.0425 H   0  0  0  0  0  0  0  0  0  0  0  0
    1.3324   18.1253   40.8903 H   0  0  0  0  0  0  0  0  0  0  0  0
  1  2  1  0
  1  6  2  0
  2  3  2  0
  3  4  1  0
  3  7  1  0
  4  5  2  0
  5  6  1  0
  7  8  1  0
  7  9  2  0
  2 10  1  0
  4 11  1  0
  5 12  1  0
  6 13  1  0
M  CHG  1   8  -1
M  END
>  <mol_id>  (34) 
2026-09-18-3war-s0-n100-r3-0034

>  <rmsd_to_ref>  (34) 
1.969387755102163

>  <pose_kind>  (34) 
conformer

$$$$
3war.A
     RDKit          3D

 13 13  0  0  0  0  0  0  0  0999 V2000
    3.3472   17.1945   40.2766 N   0  0  0  0  0  0  0  0  0  0  0  0
    3.4371   18.1972   39.2814 C   0  0  0  0  0  0  0  0  0  0  0  0
    2.2844   19.0435   39.0962 C   0  0  0  0  0  0  0  0  0  0  0  0
    1.1383   18.8527   39.8473 C   0  0  0  0  0  0  0  0  0  0  0  0
    1.1053   17.8812   40.8236 C   0  0  0  0  0  0  0  0  0  0  0  0
    2.1908   17.0527   40.9998 C   0  0  0  0  0  0  0  0  0  0  0  0
    2.2767   20.0780   37.9806 C   0  0  0  0  0  0  0  0  0  0  0  0
    3.3710   20.3517   37.4060 O   0  0  0  0  0  0  0  0  0  0  0  0
    1.1876   20.5493   37.7338 O   0  0  0  0  0  0  0  0  0  0  0  0
    4.3466   18.3252   38.6759 H   0  0  0  0  0  0  0  0  0  0  0  0
    0.2518   19.4778   39.6647 H   0  0  0  0  0  0  0  0  0  0  0  0
    0.2152   17.7679   41.4599 H   0  0  0  0  0  0  0  0  0  0  0  0
    2.1281   16.2482   41.7474 H   0  0  0  0  0  0  0  0  0  0  0  0
  1  2  1  0
  1  6  2  0
  2  3  2  0
  3  4  1  0
  3  7  1  0
  4  5  2  0
  5  6  1  0
  7  8  1  0
  7  9  2  0
  2 10  1  0
  4 11  1  0
  5 12  1  0
  6 13  1  0
M  CHG  1   8  -1
M  END
>  <mol_id>  (35) 
2026-09-18-3war-s0-n100-r3-0035

>  <rmsd_to_ref>  (35) 
2.0153061224522197

>  <pose_kind>  (35) 
rigid

$$$$
3war.A
     RDKit          3D

 13 13  0  0  0  0  0  0  0  0999 V2000
    1.2298   20.2457   39.6966 N   0  0  0  0  0  0  0  0  0  0  0  0
    2.0866   19.3506   39.1523 C   0  0  0  0  0  0  0  0  0  0  0  0
    2.3586   19.3696   37.7992 C   0  0  0  0  0  0  0  0  0  0  0  0
    1.7647   20.3003   36.9678 C   0  0  0  0  0  0  0  0  0  0  0  0
    0.8940   21.2045   37.5418 C   0  0  0  0  0  0  0  0  0  0  0  0
    0.6283   21.1745   38.9081 C   0  0  0  0  0  0  0  0  0  0  0  0
    3.2899   18.3831   37.2609 C   0  0  0  0  0  0  0  0  0  0  0  0
    3.6036   18.3511   35.9092 O   0  0  0  0  0  0  0  0  0  0  0  0
    3.8437   17.5188   38.0220 O   0  0  0  0  0  0  0  0  0  0  0  0
    2.5272   18.6423   39.8388 H   0  0  0  0  0  0  0  0  0  0  0  0
    1.9621   20.3354   35.9022 H   0  0  0  0  0  0  0  0  0  0  0  0
    0.3901   21.9661   36.9451 H   0  0  0  0  0  0  0  0  0  0  0  0
   -0.0529   21.8774   39.3749 H   0  0  0  0  0  0  0  0  0  0  0  0
  1  2  1  0
  1  6  2  0
  2  3  2  0
  3  4  1  0
  3  7  1  0
  4  5  2  0
  5  6  1  0
  7  8  1  0
  7  9  2  0
  2 10  1  0
  4 11  1  0
  5 12  1  0
  6 13  1  0
M  CHG  1   8  -1
M  END
>  <mol_id>  (36) 
2026-09-18-3war-s0-n100-r3-0036

>  <rmsd_to_ref>  (36) 
2.0612244897965746

>  <pose_kind>  (36) 
conformer

$$$$
3war.A
     RDKit          3D

 13 13  0  0  0  0  0  0  0  0999 V2000
   -0.1354   19.4021   40.1154 N   0  0  0  0  0  0  0  0  0  0  0  0
    1.2603   19.1944   40.0010 C   0  0  0  0  0  0  0  0  0  0  0  0
    2.0481   20.2917   39.4965 C   0  0  0  0  0  0  0  0  0  0  0  0
    1.4473   21.4794   39.1191 C   0  0  0  0  0  0  0  0  0  0  0  0
    0.0885   21.6464   39.2730 C   0  0  0  0  0  0  0  0  0  0  0  0
   -0.6801   20.6017   39.7353 C   0  0  0  0  0  0  0  0  0  0  0  0
    3.5391   20.1057   39.2578 C   0  0  0  0  0  0  0  0  0  0  0  0
    4.1038   19.0831   39.7457 O   0  0  0  0  0  0  0  0  0  0  0  0
    4.0588   20.9768   38.5942 O   0  0  0  0  0  0  0  0  0  0  0  0
    1.7235   18.2378   40.2846 H   0  0  0  0  0  0  0  0  0  0  0  0
    2.0557   22.2920   38.6952 H   0  0  0  0  0  0  0  0  0  0  0  0
   -0.3807   22.6106   39.0274 H   0  0  0  0  0  0  0  0  0  0  0  0
   -1.7700   20.7342   39.8021 H   0  0  0  0  0  0  0  0  0  0  0  0
  1  2  1  0
  1  6  2  0
  2  3  2  0
  3  4  1  0
  3  7  1  0
  4  5  2  0
  5  6  1  0
  7  8  1  0
  7  9  2  0
  2 10  1  0
  4 11  1  0
  5 12  1  0
  6 13  1  0
M  CHG  1   8  -1
M  END
>  <mol_id>  (37) 
2026-09-18-3war-s0-n100-r3-0037

>  <rmsd_to_ref>  (37) 
2.1071428571428883

>  <pose_kind>  (37) 
rigid

$$$$
3war.A
     RDKit          3D

 13 13  0  0  0  0  0  0  0  0999 V2000
    1.2584   19.7011   38.8924 N   0  0  0  0  0  0  0  0  0  0  0  0
    1.5815   19.2106   37.6621 C   0  0  0  0  0  0  0  0  0  0  0  0
    2.8631   19.2937   37.1656 C   0  0  0  0  0  0  0  0  0  0  0  0
    3.8710   19.8828   37.9068 C   0  0  0  0  0  0  0  0  0  0  0  0
    3.5016   20.3709   39.1562 C   0  0  0  0  0  0  0  0  0  0  0  0
    2.2077   20.2734   39.6281 C   0  0  0  0  0  0  0  0  0  0  0  0
    3.1707   18.7567   35.8432 C   0  0  0  0  0  0  0  0  0  0  0  0
    2.1678   18.1619   35.0870 O   0  0  0  0  0  0  0  0  0  0  0  0
    4.3433   18.8338   35.3914 O   0  0  0  0  0  0  0  0  0  0  0  0
    0.7702   18.7570   37.1101 H   0  0  0  0  0  0  0  0  0  0  0  0
    4.8767   19.9680   37.5605 H   0  0  0  0  0  0  0  0  0  0  0  0
    4.2141   20.8503   39.8163 H   0  0  0  0  0  0  0  0  0  0  0  0
    1.9121   20.6533   40.6049 H   0  0  0  0  0  0  0  0  0  0  0  0
  1  2  1  0
  1  6  2  0
  2  3  2  0
  3  4  1  0
  3  7  1  0
  4  5  2  0
  5  6  1  0
  7  8  1  0
  7  9  2  0
  2 10  1  0
  4 11  1  0
  5 12  1  0
  6 13  1  0
M  CHG  1   8  -1
M  END
>  <mol_id>  (38) 
2026-09-18-3war-s0-n100-r3-0038

>  <rmsd_to_ref>  (38) 
2.153061224490056

>  <pose_kind>  (38) 
conformer

$$$$
3war.A
     RDKit          3D

 13 13  0  0  0  0  0  0  0  0999 V2000
    0.1469   20.6875   41.0860 N   0  0  0  0  0  0  0  0  0  0  0  0
    1.3842   20.1108   40.7108 C   0  0  0  0  0  0  0  0  0  0  0  0
    1.7180   20.1281   39.3081 C   0  0  0  0  0  0  0  0  0  0  0  0
    0.8438   20.6638   38.3792 C   0  0  0  0  0  0  0  0  0  0  0  0
   -0.3379   21.2386   38.7929 C   0  0  0  0  0  0  0  0  0  0  0  0
   -0.6798   21.2131   40.1264 C   0  0  0  0  0  0  0  0  0  0  0  0
    2.9862   19.4412   38.8237 C   0  0  0  0  0  0  0  0  0  0  0  0
    3.8488   19.0946   39.6830 O   0  0  0  0  0  0  0  0  0  0  0  0
    3.0474   19.2773   37.6243 O   0  0  0  0  0  0  0  0  0  0  0  0
    2.0612   19.6689   41.4567 H   0  0  0  0  0  0  0  0  0  0  0  0
    1.0927   20.6306   37.3082 H   0  0  0  0  0  0  0  0  0  0  0  0
   -1.0057   21.7161   38.0608 H   0  0  0  0  0  0  0  0  0  0  0  0
   -1.6508   21.6291   40.4330 H   0  0  0  0  0  0  0  0  0  0  0  0
  1  2  1  0
  1  6  2  0
  2  3  2  0
  3  4  1  0
  3  7  1  0
  4  5  2  0
  5  6  1  0
  7  8  1  0
  7  9  2  0
  2 10  1  0
  4 11  1  0
  5 12  1  0
  6 13  1  0
M  CHG  1   8  -1
M  END
>  <mol_id>  (39) 
2026-09-18-3war-s0-n100-r3-0039

>  <rmsd_to_ref>  (39) 
2.1989795918411246

>  <pose_kind>  (39) 
rigid

$$$$
3war.A
     RDKit          3D

 13 13  0  0  0  0  0  0  0  0999 V2000
    0.6638   21.3720   40.4661 N   0  0  0  0  0  0  0  0  0  0  0  0
    1.6185   20.4786   40.1339 C   0  0  0  0  0  0  0  0  0  0  0  0
    2.2248   20.5364   38.8928 C   0  0  0  0  0  0  0  0  0  0  0  0
    1.8491   21.5142   37.9913 C   0  0  0  0  0  0  0  0  0  0  0  0
    0.8571   22.4306   38.3560 C   0  0  0  0  0  0  0  0  0  0  0  0
    0.2603   22.3540   39.6103 C   0  0  0  0  0  0  0  0  0  0  0  0
    3.2572   19.5580   38.5540 C   0  0  0  0  0  0  0  0  0  0  0  0
    3.8601   19.6323   37.2919 O   0  0  0  0  0  0  0  0  0  0  0  0
    3.6193   18.6501   39.3659 O   0  0  0  0  0  0  0  0  0  0  0  0
    1.8770   19.7320   40.8758 H   0  0  0  0  0  0  0  0  0  0  0  0
    2.2982   21.5942   37.0107 H   0  0  0  0  0  0  0  0  0  0  0  0
    0.5662   23.1926   37.6501 H   0  0  0  0  0  0  0  0  0  0  0  0
   -0.5127   23.0565   39.9135 H   0  0  0  0  0  0  0  0  0  0  0  0
  1  2  1  0
  1  6  2  0
  2  3  2  0
  3  4  1  0
  3  7  1  0
  4  5  2  0
  5  6  1  0
  7  8  1  0
  7  9  2  0
  2 10  1  0
  4 11  1  0
  5 12  1  0
  6 13  1  0
M  CHG  1   8  -1
M  END
>  <mol_id>  (40) 
2026-09-18-3war-s0-n100-r3-0040

>  <rmsd_to_ref>  (40) 
2.2448979591840406

>  <pose_kind>  (40) 
conformer

$$$$
3war.A
     RDKit          3D

 13 13  0  0  0  0  0  0  0  0999 V2000
    1.8023   20.1820   40.3203 N   0  0  0  0  0  0  0  0  0  0  0  0
    2.9289   19.3511   40.1094 C   0  0  0  0  0  0  0  0  0  0  0  0
    3.6601   19.5362   38.8804 C   0  0  0  0  0  0  0  0  0  0  0  0
    3.2491   20.4703   37.9462 C   0  0  0  0  0  0  0  0  0  0  0  0
    2.1621   21.2759   38.2059 C   0  0  0  0  0  0  0  0  0  0  0  0
    1.4421   21.0985   39.3660 C   0  0  0  0  0  0  0  0  0  0  0  0
    4.8227   18.6138   38.5455 C   0  0  0  0  0  0  0  0  0  0  0  0
    5.2870   17.8736   39.4616 O   0  0  0  0  0  0  0  0  0  0  0  0
    5.1994   18.6702   37.3948 O   0  0  0  0  0  0  0  0  0  0  0  0
    3.2331   18.5974   40.8505 H   0  0  0  0  0  0  0  0  0  0  0  0
    3.7913   20.5700   36.9943 H   0  0  0  0  0  0  0  0  0  0  0  0
    1.8705   22.0577   37.4891 H   0  0  0  0  0  0  0  0  0  0  0  0
    0.5459   21.7140   39.5333 H   0  0  0  0  0  0  0  0  0  0  0  0
  1  2  1  0
  1  6  2  0
  2  3  2  0
  3  4  1  0
  3  7  1  0
  4  5  2  0
  5  6  1  0
  7  8  1  0
  7  9  2  0
  2 10  1  0
  4 11  1  0
  5 12  1  0
  6 13  1  0
M  CHG  1   8  -1
M  END
>  <mol_id>  (41) 
2026-09-18-3war-s0-n100-r3-0041

>  <rmsd_to_ref>  (41) 
2.290816326532606

>  <pose_kind>  (41) 
rigid

$$$$
3war.A
     RDKit          3D

 13 13  0  0  0  0  0  0  0  0999 V2000
    4.5350   18.7173   40.7611 N   0  0  0  0  0  0  0  0  0  0  0  0
    3.5371   18.7386   39.8322 C   0  0  0  0  0  0  0  0  0  0  0  0
    3.0278   19.9566   39.4077 C   0  0  0  0  0  0  0  0  0  0  0  0
    3.5340   21.1313   39.9275 C   0  0  0  0  0  0  0  0  0  0  0  0
    4.5581   21.1022   40.8804 C   0  0  0  0  0  0  0  0  0  0  0  0
    5.0294   19.8641   41.2687 C   0  0  0  0  0  0  0  0  0  0  0  0
    1.9499   19.9464   38.4031 C   0  0  0  0  0  0  0  0  0  0  0  0
    1.4540   21.1911   37.9922 O   0  0  0  0  0  0  0  0  0  0  0  0
    1.4963   18.8662   37.9361 O   0  0  0  0  0  0  0  0  0  0  0  0
    3.1681   17.8009   39.4500 H   0  0  0  0  0  0  0  0  0  0  0  0
    3.1336   22.0776   39.5932 H   0  0  0  0  0  0  0  0  0  0  0  0
    4.9507   22.0201   41.2838 H   0  0  0  0  0  0  0  0  0  0  0  0
    5.8270   19.8594   42.0116 H   0  0  0  0  0  0  0  0  0  0  0  0
  1  2  1  0
  1  6  2  0
  2  3  2  0
  3  4  1  0
  3  7  1  0
  4  5  2  0
  5  6  1  0
  7  8  1  0
  7  9  2  0
  2 10  1  0
  4 11  1  0
  5 12  1  0
  6 13  1  0
M  CHG  1   8  -1
M  END
>  <mol_id>  (42) 
2026-09-18-3war-s0-n100-r3-0042

>  <rmsd_to_ref>  (42) 
2.3367346938792357

>  <pose_kind>  (42) 
conformer

$$$$
3war.A
     RDKit          3D

 13 13  0  0  0  0  0  0  0  0999 V2000
    3.9930   18.9525   39.5729 N   0  0  0  0  0  0  0  0  0  0  0  0
    3.2544   18.0602   38.7591 C   0  0  0  0  0  0  0  0  0  0  0  0
    2.2429   18.6339   37.9064 C   0  0  0  0  0  0  0  0  0  0  0  0
    1.9986   19.9957   37.9155 C   0  0  0  0  0  0  0  0  0  0  0  0
    2.7606   20.8295   38.7043 C   0  0  0  0  0  0  0  0  0  0  0  0
    3.7171   20.2952   39.5381 C   0  0  0  0  0  0  0  0  0  0  0  0
    1.3476   17.7250   37.0775 C   0  0  0  0  0  0  0  0  0  0  0  0
    1.6742   16.5081   36.9543 O   0  0  0  0  0  0  0  0  0  0  0  0
    0.3710   18.2674   36.6071 O   0  0  0  0  0  0  0  0  0  0  0  0
    3.4437   16.9768   38.7765 H   0  0  0  0  0  0  0  0  0  0  0  0
    1.1945   20.4133   37.2919 H   0  0  0  0  0  0  0  0  0  0  0  0
    2.6053   21.9179   38.6680 H   0  0  0  0  0  0  0  0  0  0  0  0
    4.2801   20.9697   40.2001 H   0  0  0  0  0  0  0  0  0  0  0  0
  1  2  1  0
  1  6  2  0
  2  3  2  0
  3  4  1  0
  3  7  1  0
  4  5  2  0
  5  6  1  0
  7  8  1  0
  7  9  2  0
  2 10  1  0
  4 11  1  0
  5 12  1  0
  6 13  1  0
M  CHG  1   8  -1
M  END
>  <mol_id>  (43) 
2026-09-18-3war-s0-n100-r3-0043

>  <rmsd_to_ref>  (43) 
2.3826530612248273

>  <pose_kind>  (43) 
rigid

$$$$
3war.A
     RDKit          3D

 13 13  0  0  0  0  0  0  0  0999 V2000
    5.0874   19.1826   39.2494 N   0  0  0  0  0  0  0  0  0  0  0  0
    4.2731   19.6892   38.3018 C   0  0  0  0  0  0  0  0  0  0  0  0
    3.2013   20.4579   38.7095 C   0  0  0  0  0  0  0  0  0  0  0  0
    2.9299   20.7281   40.0368 C   0  0  0  0  0  0  0  0  0  0  0  0
    3.7916   20.1891   40.9926 C   0  0  0  0  0  0  0  0  0  0  0  0
    4.8521   19.4268   40.5612 C   0  0  0  0  0  0  0  0  0  0  0  0
    2.3032   21.0191   37.7056 C   0  0  0  0  0  0  0  0  0  0  0  0
    2.5254   20.7813   36.3453 O   0  0  0  0  0  0  0  0  0  0  0  0
    1.3190   21.7233   38.0529 O   0  0  0  0  0  0  0  0  0  0  0  0
    4.4299   19.5155   37.2492 H   0  0  0  0  0  0  0  0  0  0  0  0
    2.0854   21.3332   40.3490 H   0  0  0  0  0  0  0  0  0  0  0  0
    3.6198   20.3728   42.0390 H   0  0  0  0  0  0  0  0  0  0  0  0
    5.5095   19.0187   41.3401 H   0  0  0  0  0  0  0  0  0  0  0  0
  1  2  1  0
  1  6  2  0
  2  3  2  0
  3  4  1  0
  3  7  1  0
  4  5  2  0
  5  6  1  0
  7  8  1  0
  7  9  2  0
  2 10  1  0
  4 11  1  0
  5 12  1  0
  6 13  1  0
M  CHG  1   8  -1
M  END
>  <mol_id>  (44) 
2026-09-18-3war-s0-n100-r3-0044

>  <rmsd_to_ref>  (44) 
2.428571428573668

>  <pose_kind>  (44) 
conformer

$$$$
3war.A
     RDKit          3D

 13 13  0  0  0  0  0  0  0  0999 V2000
    3.0956   18.6053   39.0118 N   0  0  0  0  0  0  0  0  0  0  0  0
    2.8833   19.7536   38.2116 C   0  0  0  0  0  0  0  0  0  0  0  0
    2.9192   21.0327   38.8763 C   0  0  0  0  0  0  0  0  0  0  0  0
    3.1256   21.1151   40.2418 C   0  0  0  0  0  0  0  0  0  0  0  0
    3.3544   19.9724   40.9767 C   0  0  0  0  0  0  0  0  0  0  0  0
    3.3044   18.7424   40.3601 C   0  0  0  0  0  0  0  0  0  0  0  0
    2.6045   22.3001   38.0956 C   0  0  0  0  0  0  0  0  0  0  0  0
    2.5716   22.2360   36.8317 O   0  0  0  0  0  0  0  0  0  0  0  0
    2.3994   23.2793   38.7800 O   0  0  0  0  0  0  0  0  0  0  0  0
    2.6991   19.6736   37.1300 H   0  0  0  0  0  0  0  0  0  0  0  0
    3.1070   22.0947   40.7418 H   0  0  0  0  0  0  0  0  0  0  0  0
    3.5761   20.0426   42.0518 H   0  0  0  0  0  0  0  0  0  0  0  0
    3.4368   17.8372   40.9710 H   0  0  0  0  0  0  0  0  0  0  0  0
  1  2  1  0
  1  6  2  0
  2  3  2  0
  3  4  1  0
  3  7  1  0
  4  5  2  0
  5  6  1  0
  7  8  1  0
  7  9  2  0
  2 10  1  0
  4 11  1  0
  5 12  1  0
  6 13  1  0
M  CHG  1   8  -1
M  END
>  <mol_id>  (45) 
2026-09-18-3war-s0-n100-r3-0045

>  <rmsd_to_ref>  (45) 
2.474489795923389

>  <pose_kind>  (45) 
rigid

$$$$
3war.A
     RDKit          3D

 13 13  0  0  0  0  0  0  0  0999 V2000
    3.2887   17.8233   40.6082 N   0  0  0  0  0  0  0  0  0  0  0  0
    2.3671   18.3857   39.7818 C   0  0  0  0  0  0  0  0  0  0  0  0
    2.0450   19.7221   39.9116 C   0  0  0  0  0  0  0  0  0  0  0  0
    2.6745   20.4744   40.8935 C   0  0  0  0  0  0  0  0  0  0  0  0
    3.6109   19.9075   41.7348 C   0  0  0  0  0  0  0  0  0  0  0  0
    3.9071   18.5585   41.5713 C   0  0  0  0  0  0  0  0  0  0  0  0
    1.0563   20.3337   39.0279 C   0  0  0  0  0  0  0  0  0  0  0  0
    0.7530   21.6802   39.1824 O   0  0  0  0  0  0  0  0  0  0  0  0
    0.4952   19.6147   38.1351 O   0  0  0  0  0  0  0  0  0  0  0  0
    1.8763   17.7928   39.0139 H   0  0  0  0  0  0  0  0  0  0  0  0
    2.4641   21.5209   41.0419 H   0  0  0  0  0  0  0  0  0  0  0  0
    4.0904   20.5112   42.4939 H   0  0  0  0  0  0  0  0  0  0  0  0
    4.6524   18.0993   42.2380 H   0  0  0  0  0  0  0  0  0  0  0  0
  1  2  1  0
  1  6  2  0
  2  3  2  0
  3  4  1  0
  3  7  1  0
  4  5  2  0
  5  6  1  0
  7  8  1  0
  7  9  2  0
  2 10  1  0
  4 11  1  0
  5 12  1  0
  6 13  1  0
M  CHG  1   8  -1
M  END
>  <mol_id>  (46) 
2026-09-18-3war-s0-n100-r3-0046

>  <rmsd_to_ref>  (46) 
2.520408163269415

>  <pose_kind>  (46) 
conformer

$$$$
3war.A
     RDKit          3D

 13 13  0  0  0  0  0  0  0  0999 V2000
    1.5773   22.7119   40.7884 N   0  0  0  0  0  0  0  0  0  0  0  0
    2.4032   21.7495   40.1594 C   0  0  0  0  0  0  0  0  0  0  0  0
    1.7888   20.9085   39.1620 C   0  0  0  0  0  0  0  0  0  0  0  0
    0.4433   21.0310   38.8645 C   0  0  0  0  0  0  0  0  0  0  0  0
   -0.3162   22.0000   39.4827 C   0  0  0  0  0  0  0  0  0  0  0  0
    0.2510   22.7980   40.4508 C   0  0  0  0  0  0  0  0  0  0  0  0
    2.5930   19.7904   38.5156 C   0  0  0  0  0  0  0  0  0  0  0  0
    3.8490   19.7833   38.6737 O   0  0  0  0  0  0  0  0  0  0  0  0
    1.9327   18.9820   37.8994 O   0  0  0  0  0  0  0  0  0  0  0  0
    3.4670   21.6477   40.4200 H   0  0  0  0  0  0  0  0  0  0  0  0
   -0.0211   20.3533   38.1329 H   0  0  0  0  0  0  0  0  0  0  0  0
   -1.3716   22.1356   39.2040 H   0  0  0  0  0  0  0  0  0  0  0  0
   -0.3824   23.5308   40.9721 H   0  0  0  0  0  0  0  0  0  0  0  0
  1  2  1  0
  1  6  2  0
  2  3  2  0
  3  4  1  0
  3  7  1  0
  4  5  2  0
  5  6  1  0
  7  8  1  0
  7  9  2  0
  2 10  1  0
  4 11  1  0
  5 12  1  0
  6 13  1  0
M  CHG  1   8  -1
M  END
>  <mol_id>  (47) 
2026-09-18-3war-s0-n100-r3-0047

>  <rmsd_to_ref>  (47) 
2.5663265306159055

>  <pose_kind>  (47) 
rigid

$$$$
3war.A
     RDKit          3D

 13 13  0  0  0  0  0  0  0  0999 V2000
    1.6991   21.8019   40.1738 N   0  0  0  0  0  0  0  0  0  0  0  0
    1.1583   21.0187   39.2218 C   0  0  0  0  0  0  0  0  0  0  0  0
    1.8324   20.9035   38.0066 C   0  0  0  0  0  0  0  0  0  0  0  0
    3.0308   21.5817   37.7889 C   0  0  0  0  0  0  0  0  0  0  0  0
    3.5278   22.3756   38.8268 C   0  0  0  0  0  0  0  0  0  0  0  0
    2.8502   22.4816   40.0270 C   0  0  0  0  0  0  0  0  0  0  0  0
    1.2381   20.0504   36.9772 C   0  0  0  0  0  0  0  0  0  0  0  0
    1.8883   19.9137   35.7485 O   0  0  0  0  0  0  0  0  0  0  0  0
    0.1600   19.4254   37.1402 O   0  0  0  0  0  0  0  0  0  0  0  0
    0.2225   20.4973   39.4098 H   0  0  0  0  0  0  0  0  0  0  0  0
    3.5450   21.4866   36.8460 H   0  0  0  0  0  0  0  0  0  0  0  0
    4.4657   22.8942   38.6297 H   0  0  0  0  0  0  0  0  0  0  0  0
    3.2515   23.1017   40.8189 H   0  0  0  0  0  0  0  0  0  0  0  0
  1  2  1  0
  1  6  2  0
  2  3  2  0
  3  4  1  0
  3  7  1  0
  4  5  2  0
  5  6  1  0
  7  8  1  0
  7  9  2  0
  2 10  1  0
  4 11  1  0
  5 12  1  0
  6 13  1  0
M  CHG  1   8  -1
M  END
>  <mol_id>  (48) 
2026-09-18-3war-s0-n100-r3-0048

>  <rmsd_to_ref>  (48) 
2.6122448979615887

>  <pose_kind>  (48) 
conformer

$$$$
3war.A
     RDKit          3D

 13 13  0  0  0  0  0  0  0  0999 V2000
    3.1158   16.5230   38.2865 N   0  0  0  0  0  0  0  0  0  0  0  0
    3.2767   17.8705   37.8834 C   0  0  0  0  0  0  0  0  0  0  0  0
    2.4184   18.8485   38.5048 C   0  0  0  0  0  0  0  0  0  0  0  0
    1.4655   18.4664   39.4323 C   0  0  0  0  0  0  0  0  0  0  0  0
    1.3626   17.1468   39.8143 C   0  0  0  0  0  0  0  0  0  0  0  0
    2.1618   16.1983   39.2164 C   0  0  0  0  0  0  0  0  0  0  0  0
    2.4713   20.2994   38.0500 C   0  0  0  0  0  0  0  0  0  0  0  0
    3.4403   20.6674   37.3232 O   0  0  0  0  0  0  0  0  0  0  0  0
    1.5463   20.9841   38.4307 O   0  0  0  0  0  0  0  0  0  0  0  0
    4.0237   18.1588   37.1292 H   0  0  0  0  0  0  0  0  0  0  0  0
    0.7888   19.2177   39.8654 H   0  0  0  0  0  0  0  0  0  0  0  0
    0.6448   16.8521   40.5939 H   0  0  0  0  0  0  0  0  0  0  0  0
    2.0302   15.1422   39.4946 H   0  0  0  0  0  0  0  0  0  0  0  0
  1  2  1  0
  1  6  2  0
  2  3  2  0
  3  4  1  0
  3  7  1  0
  4  5  2  0
  5  6  1  0
  7  8  1  0
  7  9  2  0
  2 10  1  0
  4 11  1  0
  5 12  1  0
  6 13  1  0
M  CHG  1   8  -1
M  END
>  <mol_id>  (49) 
2026-09-18-3war-s0-n100-r3-0049

>  <rmsd_to_ref>  (49) 
2.658163265308163

>  <pose_kind>  (49) 
rigid

$$$$
3war.A
     RDKit          3D

 13 13  0  0  0  0  0  0  0  0999 V2000
   -0.0024   18.6033   39.3521 N   0  0  0  0  0  0  0  0  0  0  0  0
    1.3101   18.2823   39.4453 C   0  0  0  0  0  0  0  0  0  0  0  0
    2.1697   18.5059   38.3820 C   0  0  0  0  0  0  0  0  0  0  0  0
    1.6693   19.0586   37.2314 C   0  0  0  0  0  0  0  0  0  0  0  0
    0.3410   19.3908   37.1181 C   0  0  0  0  0  0  0  0  0  0  0  0
   -0.4905   19.1534   38.2014 C   0  0  0  0  0  0  0  0  0  0  0  0
    3.5786   18.1563   38.4952 C   0  0  0  0  0  0  0  0  0  0  0  0
    4.0673   17.5978   39.6674 O   0  0  0  0  0  0  0  0  0  0  0  0
    4.3249   18.3825   37.4890 O   0  0  0  0  0  0  0  0  0  0  0  0
    1.6635   17.8482   40.3711 H   0  0  0  0  0  0  0  0  0  0  0  0
    2.3651   19.2236   36.4124 H   0  0  0  0  0  0  0  0  0  0  0  0
   -0.0432   19.8273   36.2034 H   0  0  0  0  0  0  0  0  0  0  0  0
   -1.5521   19.4055   38.1455 H   0  0  0  0  0  0  0  0  0  0  0  0
  1  2  1  0
  1  6  2  0
  2  3  2  0
  3  4  1  0
  3  7  1  0
  4  5  2  0
  5  6  1  0
  7  8  1  0
  7  9  2  0
  2 10  1  0
  4 11  1  0
  5 12  1  0
  6 13  1  0
M  CHG  1   8  -1
M  END
>  <mol_id>  (50) 
2026-09-18-3war-s0-n100-r3-0050

>  <rmsd_to_ref>  (50) 
2.7040816326550847

>  <pose_kind>  (50) 
conformer

$$$$
3war.A
     RDKit          3D

 13 13  0  0  0  0  0  0  0  0999 V2000
    4.3963   17.8200   38.2707 N   0  0  0  0  0  0  0  0  0  0  0  0
    4.6480   19.1859   37.9969 C   0  0  0  0  0  0  0  0  0  0  0  0
    3.5149   20.0777   38.0097 C   0  0  0  0  0  0  0  0  0  0  0  0
    2.2400   19.5986   38.2533 C   0  0  0  0  0  0  0  0  0  0  0  0
    2.0457   18.2655   38.5415 C   0  0  0  0  0  0  0  0  0  0  0  0
    3.1146   17.3980   38.5144 C   0  0  0  0  0  0  0  0  0  0  0  0
    3.6983   21.5396   37.6302 C   0  0  0  0  0  0  0  0  0  0  0  0
    4.8753   22.0007   37.5623 O   0  0  0  0  0  0  0  0  0  0  0  0
    2.6680   22.1400   37.4129 O   0  0  0  0  0  0  0  0  0  0  0  0
    5.6635   19.5510   37.7837 H   0  0  0  0  0  0  0  0  0  0  0  0
    1.3799   20.2834   38.2168 H   0  0  0  0  0  0  0  0  0  0  0  0
    1.0406   17.8956   38.7922 H   0  0  0  0  0  0  0  0  0  0  0  0
    2.9338   16.3280   38.6947 H   0  0  0  0  0  0  0  0  0  0  0  0
  1  2  1  0
  1  6  2  0
  2  3  2  0
  3  4  1  0
  3  7  1  0
  4  5  2  0
  5  6  1  0
  7  8  1  0
  7  9  2  0
  2 10  1  0
  4 11  1  0
  5 12  1  0
  6 13  1  0
M  CHG  1   8  -1
M  END
>  <mol_id>  (51) 
2026-09-18-3war-s0-n100-r3-0051

>  <rmsd_to_ref>  (51) 
2.750000000001705

>  <pose_kind>  (51) 
rigid

$$$$
3war.A
     RDKit          3D

 13 13  0  0  0  0  0  0  0  0999 V2000
    2.2583   22.6122   39.0833 N   0  0  0  0  0  0  0  0  0  0  0  0
    3.3549   21.9230   38.6533 C   0  0  0  0  0  0  0  0  0  0  0  0
    3.1788   20.9161   37.7253 C   0  0  0  0  0  0  0  0  0  0  0  0
    1.9481   20.5691   37.2083 C   0  0  0  0  0  0  0  0  0  0  0  0
    0.8470   21.2907   37.6664 C   0  0  0  0  0  0  0  0  0  0  0  0
    1.0491   22.2890   38.5911 C   0  0  0  0  0  0  0  0  0  0  0  0
    4.3536   20.1823   37.2688 C   0  0  0  0  0  0  0  0  0  0  0  0
    5.6303   20.4229   37.6986 O   0  0  0  0  0  0  0  0  0  0  0  0
    4.1541   19.2615   36.4137 O   0  0  0  0  0  0  0  0  0  0  0  0
    4.3365   22.1719   39.0409 H   0  0  0  0  0  0  0  0  0  0  0  0
    1.8281   19.7919   36.4946 H   0  0  0  0  0  0  0  0  0  0  0  0
   -0.1353   21.0471   37.2834 H   0  0  0  0  0  0  0  0  0  0  0  0
    0.2088   22.8706   38.9684 H   0  0  0  0  0  0  0  0  0  0  0  0
  1  2  1  0
  1  6  2  0
  2  3  2  0
  3  4  1  0
  3  7  1  0
  4  5  2  0
  5  6  1  0
  7  8  1  0
  7  9  2  0
  2 10  1  0
  4 11  1  0
  5 12  1  0
  6 13  1  0
M  CHG  1   8  -1
M  END
>  <mol_id>  (52) 
2026-09-18-3war-s0-n100-r3-0052

>  <rmsd_to_ref>  (52) 
2.7959183673471206

>  <pose_kind>  (52) 
conformer

$$$$
3war.A
     RDKit          3D

 13 13  0  0  0  0  0  0  0  0999 V2000
   -0.6522   18.2652   37.5003 N   0  0  0  0  0  0  0  0  0  0  0  0
    0.6623   17.7446   37.5713 C   0  0  0  0  0  0  0  0  0  0  0  0
    1.5593   18.3545   38.5215 C   0  0  0  0  0  0  0  0  0  0  0  0
    1.1460   19.4191   39.3024 C   0  0  0  0  0  0  0  0  0  0  0  0
   -0.1511   19.8755   39.2186 C   0  0  0  0  0  0  0  0  0  0  0  0
   -1.0141   19.3164   38.3029 C   0  0  0  0  0  0  0  0  0  0  0  0
    3.0128   17.9091   38.5833 C   0  0  0  0  0  0  0  0  0  0  0  0
    3.3415   16.8426   37.9856 O   0  0  0  0  0  0  0  0  0  0  0  0
    3.7426   18.6461   39.2105 O   0  0  0  0  0  0  0  0  0  0  0  0
    0.9853   16.9115   36.9298 H   0  0  0  0  0  0  0  0  0  0  0  0
    1.8545   19.9021   39.9915 H   0  0  0  0  0  0  0  0  0  0  0  0
   -0.4960   20.6834   39.8807 H   0  0  0  0  0  0  0  0  0  0  0  0
   -2.0303   19.7278   38.2120 H   0  0  0  0  0  0  0  0  0  0  0  0
  1  2  1  0
  1  6  2  0
  2  3  2  0
  3  4  1  0
  3  7  1  0
  4  5  2  0
  5  6  1  0
  7  8  1  0
  7  9  2  0
  2 10  1  0
  4 11  1  0
  5 12  1  0
  6 13  1  0
M  CHG  1   8  -1
M  END
>  <mol_id>  (53) 
2026-09-18-3war-s0-n100-r3-0053

>  <rmsd_to_ref>  (53) 
2.841836734694821

>  <pose_kind>  (53) 
rigid

$$$$
3war.A
     RDKit          3D

 13 13  0  0  0  0  0  0  0  0999 V2000
    5.0485   21.3488   39.7300 N   0  0  0  0  0  0  0  0  0  0  0  0
    4.5983   20.1157   39.4349 C   0  0  0  0  0  0  0  0  0  0  0  0
    3.6076   19.9504   38.4879 C   0  0  0  0  0  0  0  0  0  0  0  0
    3.0517   21.0396   37.8186 C   0  0  0  0  0  0  0  0  0  0  0  0
    3.5479   22.2856   38.1570 C   0  0  0  0  0  0  0  0  0  0  0  0
    4.5434   22.4318   39.1110 C   0  0  0  0  0  0  0  0  0  0  0  0
    3.1170   18.6376   38.1626 C   0  0  0  0  0  0  0  0  0  0  0  0
    3.6406   17.5076   38.8052 O   0  0  0  0  0  0  0  0  0  0  0  0
    2.2248   18.4494   37.3142 O   0  0  0  0  0  0  0  0  0  0  0  0
    5.0183   19.2606   39.9444 H   0  0  0  0  0  0  0  0  0  0  0  0
    2.2898   20.8890   37.0929 H   0  0  0  0  0  0  0  0  0  0  0  0
    3.1632   23.1790   37.6776 H   0  0  0  0  0  0  0  0  0  0  0  0
    4.9407   23.3959   39.3859 H   0  0  0  0  0  0  0  0  0  0  0  0
  1  2  1  0
  1  6  2  0
  2  3  2  0
  3  4  1  0
  3  7  1  0
  4  5  2  0
  5  6  1  0
  7  8  1  0
  7  9  2  0
  2 10  1  0
  4 11  1  0
  5 12  1  0
  6 13  1  0
M  CHG  1   8  -1
M  END
>  <mol_id>  (54) 
2026-09-18-3war-s0-n100-r3-0054

>  <rmsd_to_ref>  (54) 
2.8877551020436156

>  <pose_kind>  (54) 
conformer

$$$$
3war.A
     RDKit          3D

 13 13  0  0  0  0  0  0  0  0999 V2000
    1.2179   18.0276   37.1971 N   0  0  0  0  0  0  0  0  0  0  0  0
    1.8008   19.1146   36.5023 C   0  0  0  0  0  0  0  0  0  0  0  0
    3.1365   19.4989   36.8865 C   0  0  0  0  0  0  0  0  0  0  0  0
    3.7950   18.8416   37.9104 C   0  0  0  0  0  0  0  0  0  0  0  0
    3.1991   17.7715   38.5410 C   0  0  0  0  0  0  0  0  0  0  0  0
    1.9170   17.4044   38.1988 C   0  0  0  0  0  0  0  0  0  0  0  0
    3.7862   20.7176   36.2483 C   0  0  0  0  0  0  0  0  0  0  0  0
    3.2493   21.2141   35.2149 O   0  0  0  0  0  0  0  0  0  0  0  0
    4.7820   21.1155   36.8134 O   0  0  0  0  0  0  0  0  0  0  0  0
    1.2586   19.6428   35.7042 H   0  0  0  0  0  0  0  0  0  0  0  0
    4.7964   19.1740   38.2216 H   0  0  0  0  0  0  0  0  0  0  0  0
    3.7454   17.2125   39.3150 H   0  0  0  0  0  0  0  0  0  0  0  0
    1.4362   16.5818   38.7484 H   0  0  0  0  0  0  0  0  0  0  0  0
  1  2  1  0
  1  6  2  0
  2  3  2  0
  3  4  1  0
  3  7  1  0
  4  5  2  0
  5  6  1  0
  7  8  1  0
  7  9  2  0
  2 10  1  0
  4 11  1  0
  5 12  1  0
  6 13  1  0
M  CHG  1   8  -1
M  END
>  <mol_id>  (55) 
2026-09-18-3war-s0-n100-r3-0055

>  <rmsd_to_ref>  (55) 
2.933673469387971

>  <pose_kind>  (55) 
rigid

$$$$
3war.A
     RDKit          3D

 13 13  0  0  0  0  0  0  0  0999 V2000
    3.0672   17.2687   40.9142 N   0  0  0  0  0  0  0  0  0  0  0  0
    2.9789   18.5674   40.5243 C   0  0  0  0  0  0  0  0  0  0  0  0
    1.7761   19.0508   40.0450 C   0  0  0  0  0  0  0  0  0  0  0  0
    0.6588   18.2472   39.9515 C   0  0  0  0  0  0  0  0  0  0  0  0
    0.7637   16.9296   40.3515 C   0  0  0  0  0  0  0  0  0  0  0  0
    1.9719   16.4584   40.8289 C   0  0  0  0  0  0  0  0  0  0  0  0
    1.6731   20.4431   39.6247 C   0  0  0  0  0  0  0  0  0  0  0  0
    2.7890   21.2835   39.7074 O   0  0  0  0  0  0  0  0  0  0  0  0
    0.5792   20.8869   39.1876 O   0  0  0  0  0  0  0  0  0  0  0  0
    3.8559   19.1948   40.5986 H   0  0  0  0  0  0  0  0  0  0  0  0
   -0.2765   18.6567   39.5694 H   0  0  0  0  0  0  0  0  0  0  0  0
   -0.0817   16.2546   40.2995 H   0  0  0  0  0  0  0  0  0  0  0  0
    2.1305   15.4429   41.1593 H   0  0  0  0  0  0  0  0  0  0  0  0
  1  2  1  0
  1  6  2  0
  2  3  2  0
  3  4  1  0
  3  7  1  0
  4  5  2  0
  5  6  1  0
  7  8  1  0
  7  9  2  0
  2 10  1  0
  4 11  1  0
  5 12  1  0
  6 13  1  0
M  CHG  1   8  -1
M  END
>  <mol_id>  (56) 
2026-09-18-3war-s0-n100-r3-0056

>  <rmsd_to_ref>  (56) 
2.9795918367365424

>  <pose_kind>  (56) 
conformer

$$$$
3war.A
     RDKit          3D

 13 13  0  0  0  0  0  0  0  0999 V2000
    3.1919   20.3456   41.4212 N   0  0  0  0  0  0  0  0  0  0  0  0
    4.1412   19.9301   40.4567 C   0  0  0  0  0  0  0  0  0  0  0  0
    4.0963   18.5491   40.0441 C   0  0  0  0  0  0  0  0  0  0  0  0
    3.1774   17.6748   40.5969 C   0  0  0  0  0  0  0  0  0  0  0  0
    2.2547   18.1298   41.5131 C   0  0  0  0  0  0  0  0  0  0  0  0
    2.2967   19.4409   41.9315 C   0  0  0  0  0  0  0  0  0  0  0  0
    5.1467   18.0119   39.0835 C   0  0  0  0  0  0  0  0  0  0  0  0
    5.8792   18.8407   38.4677 O   0  0  0  0  0  0  0  0  0  0  0  0
    5.1901   16.8032   39.0039 O   0  0  0  0  0  0  0  0  0  0  0  0
    4.8806   20.6299   40.0402 H   0  0  0  0  0  0  0  0  0  0  0  0
    3.1836   16.6145   40.3042 H   0  0  0  0  0  0  0  0  0  0  0  0
    1.4873   17.4483   41.9089 H   0  0  0  0  0  0  0  0  0  0  0  0
    1.5868   19.7745   42.7026 H   0  0  0  0  0  0  0  0  0  0  0  0
  1  2  1  0
  1  6  2  0
  2  3  2  0
  3  4  1  0
  3  7  1  0
  4  5  2  0
  5  6  1  0
  7  8  1  0
  7  9  2  0
  2 10  1  0
  4 11  1  0
  5 12  1  0
  6 13  1  0
M  CHG  1   8  -1
M  END
>  <mol_id>  (57) 
2026-09-18-3war-s0-n100-r3-0057

>  <rmsd_to_ref>  (57) 
3.0255102040816944

>  <pose_kind>  (57) 
rigid

$$$$
3war.A
     RDKit          3D

 13 13  0  0  0  0  0  0  0  0999 V2000
    5.0726   21.3389   38.6136 N   0  0  0  0  0  0  0  0  0  0  0  0
    5.2581   20.0515   38.2295 C   0  0  0  0  0  0  0  0  0  0  0  0
    4.1609   19.2152   38.0706 C   0  0  0  0  0  0  0  0  0  0  0  0
    2.8744   19.7100   38.3086 C   0  0  0  0  0  0  0  0  0  0  0  0
    2.7144   21.0243   38.6985 C   0  0  0  0  0  0  0  0  0  0  0  0
    3.8276   21.8248   38.8459 C   0  0  0  0  0  0  0  0  0  0  0  0
    4.4130   17.8541   37.6605 C   0  0  0  0  0  0  0  0  0  0  0  0
    3.2951   17.0160   37.5026 O   0  0  0  0  0  0  0  0  0  0  0  0
    5.5468   17.3687   37.4366 O   0  0  0  0  0  0  0  0  0  0  0  0
    6.2452   19.6821   38.0499 H   0  0  0  0  0  0  0  0  0  0  0  0
    2.0264   19.0665   38.1866 H   0  0  0  0  0  0  0  0  0  0  0  0
    1.6978   21.3811   38.8767 H   0  0  0  0  0  0  0  0  0  0  0  0
    3.6534   22.8437   39.1519 H   0  0  0  0  0  0  0  0  0  0  0  0
  1  2  1  0
  1  6  2  0
  2  3  2  0
  3  4  1  0
  3  7  1  0
  4  5  2  0
  5  6  1  0
  7  8  1  0
  7  9  2  0
  2 10  1  0
  4 11  1  0
  5 12  1  0
  6 13  1  0
M  CHG  1   8  -1
M  END
>  <mol_id>  (58) 
2026-09-18-3war-s0-n100-r3-0058

>  <rmsd_to_ref>  (58) 
3.071428571430632

>  <pose_kind>  (58) 
conformer

$$$$
3war.A
     RDKit          3D

 13 13  0  0  0  0  0  0  0  0999 V2000
    2.7824   19.1392   37.1898 N   0  0  0  0  0  0  0  0  0  0  0  0
    3.4159   20.3646   37.5081 C   0  0  0  0  0  0  0  0  0  0  0  0
    2.6285   21.3476   38.2103 C   0  0  0  0  0  0  0  0  0  0  0  0
    1.3049   21.0991   38.5272 C   0  0  0  0  0  0  0  0  0  0  0  0
    0.7375   19.8815   38.2214 C   0  0  0  0  0  0  0  0  0  0  0  0
    1.4702   18.9398   37.5343 C   0  0  0  0  0  0  0  0  0  0  0  0
    3.2153   22.7213   38.4989 C   0  0  0  0  0  0  0  0  0  0  0  0
    4.4614   22.8871   38.3490 O   0  0  0  0  0  0  0  0  0  0  0  0
    2.4070   23.5550   38.8466 O   0  0  0  0  0  0  0  0  0  0  0  0
    4.4628   20.5584   37.2318 H   0  0  0  0  0  0  0  0  0  0  0  0
    0.7044   21.8752   39.0243 H   0  0  0  0  0  0  0  0  0  0  0  0
   -0.2968   19.6625   38.5250 H   0  0  0  0  0  0  0  0  0  0  0  0
    0.9856   17.9937   37.2515 H   0  0  0  0  0  0  0  0  0  0  0  0
  1  2  1  0
  1  6  2  0
  2  3  2  0
  3  4  1  0
  3  7  1  0
  4  5  2  0
  5  6  1  0
  7  8  1  0
  7  9  2  0
  2 10  1  0
  4 11  1  0
  5 12  1  0
  6 13  1  0
M  CHG  1   8  -1
M  END
>  <mol_id>  (59) 
2026-09-18-3war-s0-n100-r3-0059

>  <rmsd_to_ref>  (59) 
3.1173469387791704

>  <pose_kind>  (59) 
rigid

$$$$
3war.A
     RDKit          3D

 13 13  0  0  0  0  0  0  0  0999 V2000
    1.7594   18.9724   37.4384 N   0  0  0  0  0  0  0  0  0  0  0  0
    2.7981   18.2888   37.9679 C   0  0  0  0  0  0  0  0  0  0  0  0
    3.9464   18.9938   38.3270 C   0  0  0  0  0  0  0  0  0  0  0  0
    4.0228   20.3732   38.1445 C   0  0  0  0  0  0  0  0  0  0  0  0
    2.9440   21.0390   37.6014 C   0  0  0  0  0  0  0  0  0  0  0  0
    1.8258   20.3228   37.2563 C   0  0  0  0  0  0  0  0  0  0  0  0
    5.0782   18.2498   38.9039 C   0  0  0  0  0  0  0  0  0  0  0  0
    6.2192   18.9563   39.2598 O   0  0  0  0  0  0  0  0  0  0  0  0
    5.0017   17.0009   39.0662 O   0  0  0  0  0  0  0  0  0  0  0  0
    2.7558   17.2314   38.1145 H   0  0  0  0  0  0  0  0  0  0  0  0
    4.9252   20.9188   38.4280 H   0  0  0  0  0  0  0  0  0  0  0  0
    2.9742   22.0932   37.4504 H   0  0  0  0  0  0  0  0  0  0  0  0
    0.9786   20.8121   36.8349 H   0  0  0  0  0  0  0  0  0  0  0  0
  1  2  1  0
  1  6  2  0
  2  3  2  0
  3  4  1  0
  3  7  1  0
  4  5  2  0
  5  6  1  0
  7  8  1  0
  7  9  2  0
  2 10  1  0
  4 11  1  0
  5 12  1  0
  6 13  1  0
M  CHG  1   8  -1
M  END
>  <mol_id>  (60) 
2026-09-18-3war-s0-n100-r3-0060

>  <rmsd_to_ref>  (60) 
3.1632653061263176

>  <pose_kind>  (60) 
conformer

$$$$
3war.A
     RDKit          3D

 13 13  0  0  0  0  0  0  0  0999 V2000
    1.7659   22.4592   39.8546 N   0  0  0  0  0  0  0  0  0  0  0  0
    1.8860   21.0487   39.8653 C   0  0  0  0  0  0  0  0  0  0  0  0
    0.8896   20.2997   39.1404 C   0  0  0  0  0  0  0  0  0  0  0  0
   -0.1478   20.9452   38.4914 C   0  0  0  0  0  0  0  0  0  0  0  0
   -0.2096   22.3215   38.4853 C   0  0  0  0  0  0  0  0  0  0  0  0
    0.7232   23.0503   39.1885 C   0  0  0  0  0  0  0  0  0  0  0  0
    0.9025   18.7791   39.1890 C   0  0  0  0  0  0  0  0  0  0  0  0
    1.9307   18.2002   39.6478 O   0  0  0  0  0  0  0  0  0  0  0  0
   -0.1085   18.2502   38.7799 O   0  0  0  0  0  0  0  0  0  0  0  0
    2.7035   20.5462   40.4029 H   0  0  0  0  0  0  0  0  0  0  0  0
   -0.9246   20.3585   37.9792 H   0  0  0  0  0  0  0  0  0  0  0  0
   -1.0012   22.8361   37.9209 H   0  0  0  0  0  0  0  0  0  0  0  0
    0.6285   24.1458   39.2170 H   0  0  0  0  0  0  0  0  0  0  0  0
  1  2  1  0
  1  6  2  0
  2  3  2  0
  3  4  1  0
  3  7  1  0
  4  5  2  0
  5  6  1  0
  7  8  1  0
  7  9  2  0
  2 10  1  0
  4 11  1  0
  5 12  1  0
  6 13  1  0
M  CHG  1   8  -1
M  END
>  <mol_id>  (61) 
2026-09-18-3war-s0-n100-r3-0061

>  <rmsd_to_ref>  (61) 
3.2091836734710335

>  <pose_kind>  (61) 
rigid

$$$$
3war.A
     RDKit          3D

 13 13  0  0  0  0  0  0  0  0999 V2000
    4.1018   18.3829   38.0667 N   0  0  0  0  0  0  0  0  0  0  0  0
    3.0631   17.5188   37.8762 C   0  0  0  0  0  0  0  0  0  0  0  0
    1.7751   17.9798   38.0554 C   0  0  0  0  0  0  0  0  0  0  0  0
    1.5315   19.2997   38.4234 C   0  0  0  0  0  0  0  0  0  0  0  0
    2.5989   20.1576   38.6109 C   0  0  0  0  0  0  0  0  0  0  0  0
    3.8747   19.6685   38.4246 C   0  0  0  0  0  0  0  0  0  0  0  0
    0.6669   17.0530   37.8509 C   0  0  0  0  0  0  0  0  0  0  0  0
   -0.6511   17.5053   38.0290 O   0  0  0  0  0  0  0  0  0  0  0  0
    0.8243   15.8495   37.5180 O   0  0  0  0  0  0  0  0  0  0  0  0
    3.3178   16.5235   37.5957 H   0  0  0  0  0  0  0  0  0  0  0  0
    0.5150   19.6411   38.5587 H   0  0  0  0  0  0  0  0  0  0  0  0
    2.3864   21.1782   38.8965 H   0  0  0  0  0  0  0  0  0  0  0  0
    4.7389   20.3371   38.5695 H   0  0  0  0  0  0  0  0  0  0  0  0
  1  2  1  0
  1  6  2  0
  2  3  2  0
  3  4  1  0
  3  7  1  0
  4  5  2  0
  5  6  1  0
  7  8  1  0
  7  9  2  0
  2 10  1  0
  4 11  1  0
  5 12  1  0
  6 13  1  0
M  CHG  1   8  -1
M  END
>  <mol_id>  (62) 
2026-09-18-3war-s0-n100-r3-0062

>  <rmsd_to_ref>  (62) 
3.2551020408200375

>  <pose_kind>  (62) 
conformer

$$$$
3war.A
     RDKit          3D

 13 13  0  0  0  0  0  0  0  0999 V2000
    4.6521   19.8158   39.8697 N   0  0  0  0  0  0  0  0  0  0  0  0
    4.2736   21.1680   39.6899 C   0  0  0  0  0  0  0  0  0  0  0  0
    2.8628   21.4647   39.7230 C   0  0  0  0  0  0  0  0  0  0  0  0
    1.9314   20.4564   39.8962 C   0  0  0  0  0  0  0  0  0  0  0  0
    2.3469   19.1579   40.0942 C   0  0  0  0  0  0  0  0  0  0  0  0
    3.6893   18.8555   40.0463 C   0  0  0  0  0  0  0  0  0  0  0  0
    2.3806   22.8800   39.4417 C   0  0  0  0  0  0  0  0  0  0  0  0
    3.2321   23.8168   39.4396 O   0  0  0  0  0  0  0  0  0  0  0  0
    1.1910   22.9776   39.2303 O   0  0  0  0  0  0  0  0  0  0  0  0
    5.0228   21.9577   39.5318 H   0  0  0  0  0  0  0  0  0  0  0  0
    0.8572   20.6920   39.8758 H   0  0  0  0  0  0  0  0  0  0  0  0
    1.6091   18.3659   40.2898 H   0  0  0  0  0  0  0  0  0  0  0  0
    4.0006   17.8059   40.1536 H   0  0  0  0  0  0  0  0  0  0  0  0
  1  2  1  0
  1  6  2  0
  2  3  2  0
  3  4  1  0
  3  7  1  0
  4  5  2  0
  5  6  1  0
  7  8  1  0
  7  9  2  0
  2 10  1  0
  4 11  1  0
  5 12  1  0
  6 13  1  0
M  CHG  1   8  -1
M  END
>  <mol_id>  (63) 
2026-09-18-3war-s0-n100-r3-0063

>  <rmsd_to_ref>  (63) 
3.3010204081665875

>  <pose_kind>  (63) 
rigid

$$$$
3war.A
     RDKit          3D

 13 13  0  0  0  0  0  0  0  0999 V2000
    2.2693   18.6363   39.3560 N   0  0  0  0  0  0  0  0  0  0  0  0
    3.3173   18.9217   40.1746 C   0  0  0  0  0  0  0  0  0  0  0  0
    3.9943   20.1099   40.0299 C   0  0  0  0  0  0  0  0  0  0  0  0
    3.6309   21.0255   39.0650 C   0  0  0  0  0  0  0  0  0  0  0  0
    2.5625   20.6928   38.2584 C   0  0  0  0  0  0  0  0  0  0  0  0
    1.8722   19.4937   38.3978 C   0  0  0  0  0  0  0  0  0  0  0  0
    5.1243   20.4508   40.8904 C   0  0  0  0  0  0  0  0  0  0  0  0
    5.5471   19.5645   41.8927 O   0  0  0  0  0  0  0  0  0  0  0  0
    5.7088   21.5512   40.7152 O   0  0  0  0  0  0  0  0  0  0  0  0
    3.6019   18.2120   40.9253 H   0  0  0  0  0  0  0  0  0  0  0  0
    4.1116   21.9644   38.8983 H   0  0  0  0  0  0  0  0  0  0  0  0
    2.2480   21.3857   37.4903 H   0  0  0  0  0  0  0  0  0  0  0  0
    1.0424   19.2965   37.7303 H   0  0  0  0  0  0  0  0  0  0  0  0
  1  2  1  0
  1  6  2  0
  2  3  2  0
  3  4  1  0
  3  7  1  0
  4  5  2  0
  5  6  1  0
  7  8  1  0
  7  9  2  0
  2 10  1  0
  4 11  1  0
  5 12  1  0
  6 13  1  0
M  CHG  1   8  -1
M  END
>  <mol_id>  (64) 
2026-09-18-3war-s0-n100-r3-0064

>  <rmsd_to_ref>  (64) 
3.3469387755140154

>  <pose_kind>  (64) 
conformer

$$$$
3war.A
     RDKit          3D

 13 13  0  0  0  0  0  0  0  0999 V2000
    3.5664   21.9410   38.9108 N   0  0  0  0  0  0  0  0  0  0  0  0
    3.1178   20.6249   38.6450 C   0  0  0  0  0  0  0  0  0  0  0  0
    4.0999   19.6787   38.1763 C   0  0  0  0  0  0  0  0  0  0  0  0
    5.4133   20.0637   37.9740 C   0  0  0  0  0  0  0  0  0  0  0  0
    5.8108   21.3487   38.2716 C   0  0  0  0  0  0  0  0  0  0  0  0
    4.8813   22.2689   38.7018 C   0  0  0  0  0  0  0  0  0  0  0  0
    3.6688   18.2744   37.7803 C   0  0  0  0  0  0  0  0  0  0  0  0
    2.5108   17.8844   38.1113 O   0  0  0  0  0  0  0  0  0  0  0  0
    4.4977   17.6464   37.1575 O   0  0  0  0  0  0  0  0  0  0  0  0
    2.0661   20.3366   38.7896 H   0  0  0  0  0  0  0  0  0  0  0  0
    6.1415   19.3423   37.5748 H   0  0  0  0  0  0  0  0  0  0  0  0
    6.8667   21.6385   38.1660 H   0  0  0  0  0  0  0  0  0  0  0  0
    5.2051   23.3042   38.8843 H   0  0  0  0  0  0  0  0  0  0  0  0
  1  2  1  0
  1  6  2  0
  2  3  2  0
  3  4  1  0
  3  7  1  0
  4  5  2  0
  5  6  1  0
  7  8  1  0
  7  9  2  0
  2 10  1  0
  4 11  1  0
  5 12  1  0
  6 13  1  0
M  CHG  1   8  -1
M  END
>  <mol_id>  (65) 
2026-09-18-3war-s0-n100-r3-0065

>  <rmsd_to_ref>  (65) 
3.3928571428592917

>  <pose_kind>  (65) 
rigid

$$$$
3war.A
     RDKit          3D

 13 13  0  0  0  0  0  0  0  0999 V2000
    3.7171   20.9240   39.5331 N   0  0  0  0  0  0  0  0  0  0  0  0
    2.5120   20.3626   39.4177 C   0  0  0  0  0  0  0  0  0  0  0  0
    1.4639   20.9267   40.1095 C   0  0  0  0  0  0  0  0  0  0  0  0
    1.5927   22.0393   40.9142 C   0  0  0  0  0  0  0  0  0  0  0  0
    2.8549   22.5930   41.0091 C   0  0  0  0  0  0  0  0  0  0  0  0
    3.9214   22.0207   40.3064 C   0  0  0  0  0  0  0  0  0  0  0  0
    0.1224   20.3271   40.0003 C   0  0  0  0  0  0  0  0  0  0  0  0
   -0.0682   19.1926   39.1950 O   0  0  0  0  0  0  0  0  0  0  0  0
   -0.8339   20.8517   40.6390 O   0  0  0  0  0  0  0  0  0  0  0  0
    2.4116   19.4875   38.7847 H   0  0  0  0  0  0  0  0  0  0  0  0
    0.7752   22.4781   41.4529 H   0  0  0  0  0  0  0  0  0  0  0  0
    3.0071   23.4759   41.6348 H   0  0  0  0  0  0  0  0  0  0  0  0
    4.8989   22.4767   40.4005 H   0  0  0  0  0  0  0  0  0  0  0  0
  1  2  1  0
  1  6  2  0
  2  3  2  0
  3  4  1  0
  3  7  1  0
  4  5  2  0
  5  6  1  0
  7  8  1  0
  7  9  2  0
  2 10  1  0
  4 11  1  0
  5 12  1  0
  6 13  1  0
M  CHG  1   8  -1
M  END
>  <mol_id>  (66) 
2026-09-18-3war-s0-n100-r3-0066

>  <rmsd_to_ref>  (66) 
3.4387755102046804

>  <pose_kind>  (66) 
conformer

$$$$
3war.A
     RDKit          3D

 13 13  0  0  0  0  0  0  0  0999 V2000
    5.1843   20.4068   37.0865 N   0  0  0  0  0  0  0  0  0  0  0  0
    4.0272   21.1418   36.7329 C   0  0  0  0  0  0  0  0  0  0  0  0
    2.9162   21.0987   37.6511 C   0  0  0  0  0  0  0  0  0  0  0  0
    2.9841   20.3450   38.8093 C   0  0  0  0  0  0  0  0  0  0  0  0
    4.1407   19.6669   39.1261 C   0  0  0  0  0  0  0  0  0  0  0  0
    5.2033   19.6825   38.2507 C   0  0  0  0  0  0  0  0  0  0  0  0
    1.6083   21.7865   37.2889 C   0  0  0  0  0  0  0  0  0  0  0  0
    1.6030   22.5949   36.3148 O   0  0  0  0  0  0  0  0  0  0  0  0
    0.6640   21.4778   37.9834 O   0  0  0  0  0  0  0  0  0  0  0  0
    3.9778   21.7203   35.7986 H   0  0  0  0  0  0  0  0  0  0  0  0
    2.1129   20.2870   39.4784 H   0  0  0  0  0  0  0  0  0  0  0  0
    4.2149   19.1151   40.0748 H   0  0  0  0  0  0  0  0  0  0  0  0
    6.0995   19.0929   38.4939 H   0  0  0  0  0  0  0  0  0  0  0  0
  1  2  1  0
  1  6  2  0
  2  3  2  0
  3  4  1  0
  3  7  1  0
  4  5  2  0
  5  6  1  0
  7  8  1  0
  7  9  2  0
  2 10  1  0
  4 11  1  0
  5 12  1  0
  6 13  1  0
M  CHG  1   8  -1
M  END
>  <mol_id>  (67) 
2026-09-18-3war-s0-n100-r3-0067

>  <rmsd_to_ref>  (67) 
3.4846938775515337

>  <pose_kind>  (67) 
rigid

$$$$
3war.A
     RDKit          3D

 13 13  0  0  0  0  0  0  0  0999 V2000
    2.6998   19.8396   39.6419 N   0  0  0  0  0  0  0  0  0  0  0  0
    1.7907   20.7694   39.3514 C   0  0  0  0  0  0  0  0  0  0  0  0
    0.4582   20.5400   39.6035 C   0  0  0  0  0  0  0  0  0  0  0  0
    0.0468   19.3320   40.1655 C   0  0  0  0  0  0  0  0  0  0  0  0
    1.0393   18.4094   40.4433 C   0  0  0  0  0  0  0  0  0  0  0  0
    2.3750   18.6421   40.1894 C   0  0  0  0  0  0  0  0  0  0  0  0
   -0.5588   21.5123   39.3073 C   0  0  0  0  0  0  0  0  0  0  0  0
   -0.1670   22.7371   38.7404 O   0  0  0  0  0  0  0  0  0  0  0  0
   -1.7615   21.2914   39.5408 O   0  0  0  0  0  0  0  0  0  0  0  0
    2.1009   21.7130   38.9137 H   0  0  0  0  0  0  0  0  0  0  0  0
   -1.0012   19.1585   40.3608 H   0  0  0  0  0  0  0  0  0  0  0  0
    0.7485   17.4673   40.8781 H   0  0  0  0  0  0  0  0  0  0  0  0
    3.1570   17.9102   40.4105 H   0  0  0  0  0  0  0  0  0  0  0  0
  1  2  1  0
  1  6  2  0
  2  3  2  0
  3  4  1  0
  3  7  1  0
  4  5  2  0
  5  6  1  0
  7  8  1  0
  7  9  2  0
  2 10  1  0
  4 11  1  0
  5 12  1  0
  6 13  1  0
M  CHG  1   8  -1
M  END
>  <mol_id>  (68) 
2026-09-18-3war-s0-n100-r3-0068

>  <rmsd_to_ref>  (68) 
3.5306122448982737

>  <pose_kind>  (68) 
conformer

$$$$
3war.A
     RDKit          3D

 13 13  0  0  0  0  0  0  0  0999 V2000
    4.3344   20.0782   38.3543 N   0  0  0  0  0  0  0  0  0  0  0  0
    4.5437   18.9234   37.5627 C   0  0  0  0  0  0  0  0  0  0  0  0
    4.3285   17.6457   38.1958 C   0  0  0  0  0  0  0  0  0  0  0  0
    3.9607   17.5687   39.5273 C   0  0  0  0  0  0  0  0  0  0  0  0
    3.7422   18.7198   40.2519 C   0  0  0  0  0  0  0  0  0  0  0  0
    3.9617   19.9470   39.6674 C   0  0  0  0  0  0  0  0  0  0  0  0
    4.6273   16.3636   37.4331 C   0  0  0  0  0  0  0  0  0  0  0  0
    4.8102   16.4359   36.1825 O   0  0  0  0  0  0  0  0  0  0  0  0
    4.6727   15.3649   38.1185 O   0  0  0  0  0  0  0  0  0  0  0  0
    4.8567   18.9974   36.5108 H   0  0  0  0  0  0  0  0  0  0  0  0
    3.8426   16.5865   40.0082 H   0  0  0  0  0  0  0  0  0  0  0  0
    3.3935   18.6588   41.2934 H   0  0  0  0  0  0  0  0  0  0  0  0
    3.8337   20.8546   40.2755 H   0  0  0  0  0  0  0  0  0  0  0  0
  1  2  1  0
  1  6  2  0
  2  3  2  0
  3  4  1  0
  3  7  1  0
  4  5  2  0
  5  6  1  0
  7  8  1  0
  7  9  2  0
  2 10  1  0
  4 11  1  0
  5 12  1  0
  6 13  1  0
M  CHG  1   8  -1
M  END
>  <mol_id>  (69) 
2026-09-18-3war-s0-n100-r3-0069

>  <rmsd_to_ref>  (69) 
3.5765306122459455

>  <pose_kind>  (69) 
rigid

$$$$
3war.A
     RDKit          3D

 13 13  0  0  0  0  0  0  0  0999 V2000
    2.5146   19.7909   35.8375 N   0  0  0  0  0  0  0  0  0  0  0  0
    2.8251   21.0148   36.3021 C   0  0  0  0  0  0  0  0  0  0  0  0
    2.6508   21.3108   37.6392 C   0  0  0  0  0  0  0  0  0  0  0  0
    2.1552   20.3649   38.5352 C   0  0  0  0  0  0  0  0  0  0  0  0
    1.8511   19.1223   38.0092 C   0  0  0  0  0  0  0  0  0  0  0  0
    2.0329   18.8435   36.6632 C   0  0  0  0  0  0  0  0  0  0  0  0
    2.9788   22.6154   38.1493 C   0  0  0  0  0  0  0  0  0  0  0  0
    3.4806   23.6043   37.2925 O   0  0  0  0  0  0  0  0  0  0  0  0
    2.8351   22.9190   39.3487 O   0  0  0  0  0  0  0  0  0  0  0  0
    3.2104   21.7598   35.6210 H   0  0  0  0  0  0  0  0  0  0  0  0
    2.0291   20.6145   39.5607 H   0  0  0  0  0  0  0  0  0  0  0  0
    1.4611   18.3363   38.6466 H   0  0  0  0  0  0  0  0  0  0  0  0
    1.8006   17.8802   36.2379 H   0  0  0  0  0  0  0  0  0  0  0  0
  1  2  1  0
  1  6  2  0
  2  3  2  0
  3  4  1  0
  3  7  1  0
  4  5  2  0
  5  6  1  0
  7  8  1  0
  7  9  2  0
  2 10  1  0
  4 11  1  0
  5 12  1  0
  6 13  1  0
M  CHG  1   8  -1
M  END
>  <mol_id>  (70) 
2026-09-18-3war-s0-n100-r3-0070

>  <rmsd_to_ref>  (70) 
3.6224489795924453

>  <pose_kind>  (70) 
conformer

$$$$
3war.A
     RDKit          3D

 13 13  0  0  0  0  0  0  0  0999 V2000
    1.5473   21.8129   41.0187 N   0  0  0  0  0  0  0  0  0  0  0  0
    0.7957   20.6265   41.1968 C   0  0  0  0  0  0  0  0  0  0  0  0
    0.7656   19.6969   40.0949 C   0  0  0  0  0  0  0  0  0  0  0  0
    1.4251   19.9798   38.9121 C   0  0  0  0  0  0  0  0  0  0  0  0
    2.1667   21.1347   38.7931 C   0  0  0  0  0  0  0  0  0  0  0  0
    2.1899   22.0414   39.8291 C   0  0  0  0  0  0  0  0  0  0  0  0
   -0.0995   18.4483   40.1819 C   0  0  0  0  0  0  0  0  0  0  0  0
   -0.5701   18.1195   41.3102 O   0  0  0  0  0  0  0  0  0  0  0  0
   -0.2689   17.8746   39.1277 O   0  0  0  0  0  0  0  0  0  0  0  0
    0.2581   20.4229   42.1347 H   0  0  0  0  0  0  0  0  0  0  0  0
    1.3572   19.2813   38.0650 H   0  0  0  0  0  0  0  0  0  0  0  0
    2.7381   21.3318   37.8741 H   0  0  0  0  0  0  0  0  0  0  0  0
    2.7436   22.9827   39.6977 H   0  0  0  0  0  0  0  0  0  0  0  0
  1  2  1  0
  1  6  2  0
  2  3  2  0
  3  4  1  0
  3  7  1  0
  4  5  2  0
  5  6  1  0
  7  8  1  0
  7  9  2  0
  2 10  1  0
  4 11  1  0
  5 12  1  0
  6 13  1  0
M  CHG  1   8  -1
M  END
>  <mol_id>  (71) 
2026-09-18-3war-s0-n100-r3-0071

>  <rmsd_to_ref>  (71) 
3.6683673469402027

>  <pose_kind>  (71) 
rigid

$$$$
3war.A
     RDKit          3D

 13 13  0  0  0  0  0  0  0  0999 V2000
    4.3226   18.6387   39.0020 N   0  0  0  0  0  0  0  0  0  0  0  0
    3.0323   18.3596   38.7506 C   0  0  0  0  0  0  0  0  0  0  0  0
    2.6540   18.0454   37.4642 C   0  0  0  0  0  0  0  0  0  0  0  0
    3.5676   18.0109   36.4309 C   0  0  0  0  0  0  0  0  0  0  0  0
    4.8885   18.3073   36.7436 C   0  0  0  0  0  0  0  0  0  0  0  0
    5.2517   18.6202   38.0372 C   0  0  0  0  0  0  0  0  0  0  0  0
    1.2643   17.7362   37.1489 C   0  0  0  0  0  0  0  0  0  0  0  0
    0.2610   17.7403   38.1076 O   0  0  0  0  0  0  0  0  0  0  0  0
    0.9836   17.4541   35.9384 O   0  0  0  0  0  0  0  0  0  0  0  0
    2.2955   18.3807   39.5493 H   0  0  0  0  0  0  0  0  0  0  0  0
    3.3130   17.7716   35.4196 H   0  0  0  0  0  0  0  0  0  0  0  0
    5.6403   18.2968   35.9862 H   0  0  0  0  0  0  0  0  0  0  0  0
    6.2670   18.8552   38.3152 H   0  0  0  0  0  0  0  0  0  0  0  0
  1  2  1  0
  1  6  2  0
  2  3  2  0
  3  4  1  0
  3  7  1  0
  4  5  2  0
  5  6  1  0
  7  8  1  0
  7  9  2  0
  2 10  1  0
  4 11  1  0
  5 12  1  0
  6 13  1  0
M  CHG  1   8  -1
M  END
>  <mol_id>  (72) 
2026-09-18-3war-s0-n100-r3-0072

>  <rmsd_to_ref>  (72) 
3.714285714288326

>  <pose_kind>  (72) 
conformer

$$$$
3war.A
     RDKit          3D

 13 13  0  0  0  0  0  0  0  0999 V2000
    2.4573   17.0387   41.5861 N   0  0  0  0  0  0  0  0  0  0  0  0
    1.2718   17.8125   41.5782 C   0  0  0  0  0  0  0  0  0  0  0  0
    1.2809   19.0193   40.7889 C   0  0  0  0  0  0  0  0  0  0  0  0
    2.4158   19.4043   40.0977 C   0  0  0  0  0  0  0  0  0  0  0  0
    3.5386   18.6061   40.1126 C   0  0  0  0  0  0  0  0  0  0  0  0
    3.5522   17.4607   40.8766 C   0  0  0  0  0  0  0  0  0  0  0  0
    0.0752   19.9470   40.8113 C   0  0  0  0  0  0  0  0  0  0  0  0
   -1.0050   19.5182   41.3132 O   0  0  0  0  0  0  0  0  0  0  0  0
    0.2727   21.0463   40.3404 O   0  0  0  0  0  0  0  0  0  0  0  0
    0.3827   17.5065   42.1491 H   0  0  0  0  0  0  0  0  0  0  0  0
    2.4218   20.3496   39.5352 H   0  0  0  0  0  0  0  0  0  0  0  0
    4.4207   18.8827   39.5165 H   0  0  0  0  0  0  0  0  0  0  0  0
    4.4745   16.8627   40.9193 H   0  0  0  0  0  0  0  0  0  0  0  0
  1  2  1  0
  1  6  2  0
  2  3  2  0
  3  4  1  0
  3  7  1  0
  4  5  2  0
  5  6  1  0
  7  8  1  0
  7  9  2  0
  2 10  1  0
  4 11  1  0
  5 12  1  0
  6 13  1  0
M  CHG  1   8  -1
M  END
>  <mol_id>  (73) 
2026-09-18-3war-s0-n100-r3-0073

>  <rmsd_to_ref>  (73) 
3.7602040816347584

>  <pose_kind>  (73) 
rigid

$$$$
3war.A
     RDKit          3D

 13 13  0  0  0  0  0  0  0  0999 V2000
    3.0053   18.4680   38.4016 N   0  0  0  0  0  0  0  0  0  0  0  0
    3.7834   19.3684   39.0520 C   0  0  0  0  0  0  0  0  0  0  0  0
    3.9642   19.2582   40.4245 C   0  0  0  0  0  0  0  0  0  0  0  0
    3.3412   18.2184   41.1225 C   0  0  0  0  0  0  0  0  0  0  0  0
    2.5546   17.3159   40.4356 C   0  0  0  0  0  0  0  0  0  0  0  0
    2.3984   17.4574   39.0727 C   0  0  0  0  0  0  0  0  0  0  0  0
    4.8018   20.2422   41.0685 C   0  0  0  0  0  0  0  0  0  0  0  0
    4.9781   20.1212   42.4583 O   0  0  0  0  0  0  0  0  0  0  0  0
    5.3787   21.1890   40.4838 O   0  0  0  0  0  0  0  0  0  0  0  0
    4.2556   20.1599   38.5101 H   0  0  0  0  0  0  0  0  0  0  0  0
    3.4794   18.1315   42.1815 H   0  0  0  0  0  0  0  0  0  0  0  0
    2.0817   16.5154   41.0082 H   0  0  0  0  0  0  0  0  0  0  0  0
    1.7753   16.7291   38.5793 H   0  0  0  0  0  0  0  0  0  0  0  0
  1  2  1  0
  1  6  2  0
  2  3  2  0
  3  4  1  0
  3  7  1  0
  4  5  2  0
  5  6  1  0
  7  8  1  0
  7  9  2  0
  2 10  1  0
  4 11  1  0
  5 12  1  0
  6 13  1  0
M  CHG  1   8  -1
M  END
>  <mol_id>  (74) 
2026-09-18-3war-s0-n100-r3-0074

>  <rmsd_to_ref>  (74) 
3.806122448981302

>  <pose_kind>  (74) 
conformer

$$$$
3war.A
     RDKit          3D

 13 13  0  0  0  0  0  0  0  0999 V2000
    1.9820   20.4042   38.6273 N   0  0  0  0  0  0  0  0  0  0  0  0
    2.8937   20.4185   39.7102 C   0  0  0  0  0  0  0  0  0  0  0  0
    2.4220   20.9658   40.9581 C   0  0  0  0  0  0  0  0  0  0  0  0
    1.1406   21.4759   41.0679 C   0  0  0  0  0  0  0  0  0  0  0  0
    0.2786   21.4166   39.9949 C   0  0  0  0  0  0  0  0  0  0  0  0
    0.7198   20.9145   38.7911 C   0  0  0  0  0  0  0  0  0  0  0  0
    3.3774   21.1001   42.1345 C   0  0  0  0  0  0  0  0  0  0  0  0
    4.4886   20.4961   42.0794 O   0  0  0  0  0  0  0  0  0  0  0  0
    2.9750   21.8025   43.0367 O   0  0  0  0  0  0  0  0  0  0  0  0
    3.9170   20.0292   39.6043 H   0  0  0  0  0  0  0  0  0  0  0  0
    0.8095   21.9296   42.0136 H   0  0  0  0  0  0  0  0  0  0  0  0
   -0.7582   21.7690   40.0994 H   0  0  0  0  0  0  0  0  0  0  0  0
    0.0354   20.9232   37.9300 H   0  0  0  0  0  0  0  0  0  0  0  0
  1  2  1  0
  1  6  2  0
  2  3  2  0
  3  4  1  0
  3  7  1  0
  4  5  2  0
  5  6  1  0
  7  8  1  0
  7  9  2  0
  2 10  1  0
  4 11  1  0
  5 12  1  0
  6 13  1  0
M  CHG  1   8  -1
M  END
>  <mol_id>  (75) 
2026-09-18-3war-s0-n100-r3-0075

>  <rmsd_to_ref>  (75) 
3.8520408163290885

>  <pose_kind>  (75) 
rigid

$$$$
3war.A
     RDKit          3D

 13 13  0  0  0  0  0  0  0  0999 V2000
    2.0584   17.2230   38.1760 N   0  0  0  0  0  0  0  0  0  0  0  0
    2.7508   16.9677   39.3231 C   0  0  0  0  0  0  0  0  0  0  0  0
    2.6974   17.8373   40.3865 C   0  0  0  0  0  0  0  0  0  0  0  0
    1.9304   18.9790   40.2798 C   0  0  0  0  0  0  0  0  0  0  0  0
    1.2279   19.2248   39.0981 C   0  0  0  0  0  0  0  0  0  0  0  0
    1.3009   18.3270   38.0388 C   0  0  0  0  0  0  0  0  0  0  0  0
    3.4373   17.5632   41.6105 C   0  0  0  0  0  0  0  0  0  0  0  0
    4.2069   16.4180   41.7180 O   0  0  0  0  0  0  0  0  0  0  0  0
    3.3759   18.3715   42.5734 O   0  0  0  0  0  0  0  0  0  0  0  0
    3.3489   16.0759   39.4042 H   0  0  0  0  0  0  0  0  0  0  0  0
    1.8498   19.7035   41.0879 H   0  0  0  0  0  0  0  0  0  0  0  0
    0.6118   20.1112   38.9708 H   0  0  0  0  0  0  0  0  0  0  0  0
    0.7485   18.5370   37.1325 H   0  0  0  0  0  0  0  0  0  0  0  0
  1  2  1  0
  1  6  2  0
  2  3  2  0
  3  4  1  0
  3  7  1  0
  4  5  2  0
  5  6  1  0
  7  8  1  0
  7  9  2  0
  2 10  1  0
  4 11  1  0
  5 12  1  0
  6 13  1  0
M  CHG  1   8  -1
M  END
>  <mol_id>  (76) 
2026-09-18-3war-s0-n100-r3-0076

>  <rmsd_to_ref>  (76) 
3.897959183675513

>  <pose_kind>  (76) 
conformer

$$$$
3war.A
     RDKit          3D

 13 13  0  0  0  0  0  0  0  0999 V2000
    3.1772   21.4992   35.1262 N   0  0  0  0  0  0  0  0  0  0  0  0
    3.7362   20.2007   35.0512 C   0  0  0  0  0  0  0  0  0  0  0  0
    3.6997   19.4001   36.2499 C   0  0  0  0  0  0  0  0  0  0  0  0
    3.1633   19.9040   37.4214 C   0  0  0  0  0  0  0  0  0  0  0  0
    2.6060   21.1638   37.4409 C   0  0  0  0  0  0  0  0  0  0  0  0
    2.6501   21.9478   36.3099 C   0  0  0  0  0  0  0  0  0  0  0  0
    4.3673   18.0331   36.2673 C   0  0  0  0  0  0  0  0  0  0  0  0
    4.7140   17.5184   35.1639 O   0  0  0  0  0  0  0  0  0  0  0  0
    4.5171   17.5561   37.3715 O   0  0  0  0  0  0  0  0  0  0  0  0
    4.1790   19.8192   34.1193 H   0  0  0  0  0  0  0  0  0  0  0  0
    3.1818   19.2977   38.3390 H   0  0  0  0  0  0  0  0  0  0  0  0
    2.1277   21.5419   38.3565 H   0  0  0  0  0  0  0  0  0  0  0  0
    2.2481   22.9706   36.3576 H   0  0  0  0  0  0  0  0  0  0  0  0
  1  2  1  0
  1  6  2  0
  2  3  2  0
  3  4  1  0
  3  7  1  0
  4  5  2  0
  5  6  1  0
  7  8  1  0
  7  9  2  0
  2 10  1  0
  4 11  1  0
  5 12  1  0
  6 13  1  0
M  CHG  1   8  -1
M  END
>  <mol_id>  (77) 
2026-09-18-3war-s0-n100-r3-0077

>  <rmsd_to_ref>  (77) 
3.9438775510216293

>  <pose_kind>  (77) 
rigid

$$$$
3war.A
     RDKit          3D

 13 13  0  0  0  0  0  0  0  0999 V2000
    5.0374   18.9172   39.2174 N   0  0  0  0  0  0  0  0  0  0  0  0
    3.7194   18.6582   39.1005 C   0  0  0  0  0  0  0  0  0  0  0  0
    3.1124   17.9166   40.0942 C   0  0  0  0  0  0  0  0  0  0  0  0
    3.7927   17.4324   41.1947 C   0  0  0  0  0  0  0  0  0  0  0  0
    5.1554   17.7178   41.2859 C   0  0  0  0  0  0  0  0  0  0  0  0
    5.7369   18.4584   40.2832 C   0  0  0  0  0  0  0  0  0  0  0  0
    1.6870   17.6210   39.9937 C   0  0  0  0  0  0  0  0  0  0  0  0
    0.9435   18.0837   38.9031 O   0  0  0  0  0  0  0  0  0  0  0  0
    1.1111   16.9465   40.8874 O   0  0  0  0  0  0  0  0  0  0  0  0
    3.1317   19.0071   38.2665 H   0  0  0  0  0  0  0  0  0  0  0  0
    3.3083   16.8503   41.9714 H   0  0  0  0  0  0  0  0  0  0  0  0
    5.7265   17.3614   42.1255 H   0  0  0  0  0  0  0  0  0  0  0  0
    6.8103   18.6640   40.3873 H   0  0  0  0  0  0  0  0  0  0  0  0
  1  2  1  0
  1  6  2  0
  2  3  2  0
  3  4  1  0
  3  7  1  0
  4  5  2  0
  5  6  1  0
  7  8  1  0
  7  9  2  0
  2 10  1  0
  4 11  1  0
  5 12  1  0
  6 13  1  0
M  CHG  1   8  -1
M  END
>  <mol_id>  (78) 
2026-09-18-3war-s0-n100-r3-0078

>  <rmsd_to_ref>  (78) 
3.989795918367783

>  <pose_kind>  (78) 
conformer

$$$$
3war.A
     RDKit          3D

 13 13  0  0  0  0  0  0  0  0999 V2000
    4.4791   19.1392   39.7529 N   0  0  0  0  0  0  0  0  0  0  0  0
    3.1670   19.0698   40.2798 C   0  0  0  0  0  0  0  0  0  0  0  0
    2.7154   20.1908   41.0665 C   0  0  0  0  0  0  0  0  0  0  0  0
    3.5503   21.2669   41.3097 C   0  0  0  0  0  0  0  0  0  0  0  0
    4.8105   21.3036   40.7542 C   0  0  0  0  0  0  0  0  0  0  0  0
    5.2633   20.2328   40.0165 C   0  0  0  0  0  0  0  0  0  0  0  0
    1.3532   20.1410   41.7422 C   0  0  0  0  0  0  0  0  0  0  0  0
    0.5408   19.2351   41.3929 O   0  0  0  0  0  0  0  0  0  0  0  0
    1.1733   20.9944   42.5839 O   0  0  0  0  0  0  0  0  0  0  0  0
    2.5203   18.1990   40.0970 H   0  0  0  0  0  0  0  0  0  0  0  0
    3.2073   22.0947   41.9477 H   0  0  0  0  0  0  0  0  0  0  0  0
    5.4524   22.1850   40.8995 H   0  0  0  0  0  0  0  0  0  0  0  0
    6.2909   20.2554   39.6247 H   0  0  0  0  0  0  0  0  0  0  0  0
  1  2  1  0
  1  6  2  0
  2  3  2  0
  3  4  1  0
  3  7  1  0
  4  5  2  0
  5  6  1  0
  7  8  1  0
  7  9  2  0
  2 10  1  0
  4 11  1  0
  5 12  1  0
  6 13  1  0
M  CHG  1   8  -1
M  END
>  <mol_id>  (79) 
2026-09-18-3war-s0-n100-r3-0079

>  <rmsd_to_ref>  (79) 
4.035714285715059

>  <pose_kind>  (79) 
rigid

$$$$
3war.A
     RDKit          3D

 13 13  0  0  0  0  0  0  0  0999 V2000
    1.4600   19.1845   39.2281 N   0  0  0  0  0  0  0  0  0  0  0  0
    0.8507   20.3332   39.6370 C   0  0  0  0  0  0  0  0  0  0  0  0
   -0.1834   20.8592   38.8836 C   0  0  0  0  0  0  0  0  0  0  0  0
   -0.6163   20.2474   37.7223 C   0  0  0  0  0  0  0  0  0  0  0  0
    0.0176   19.0733   37.3182 C   0  0  0  0  0  0  0  0  0  0  0  0
    1.0452   18.5839   38.1008 C   0  0  0  0  0  0  0  0  0  0  0  0
   -0.8143   22.0896   39.3486 C   0  0  0  0  0  0  0  0  0  0  0  0
   -1.8585   22.6780   38.6461 O   0  0  0  0  0  0  0  0  0  0  0  0
   -0.4297   22.6719   40.4197 O   0  0  0  0  0  0  0  0  0  0  0  0
    1.2001   20.8068   40.5537 H   0  0  0  0  0  0  0  0  0  0  0  0
   -1.4235   20.6749   37.1514 H   0  0  0  0  0  0  0  0  0  0  0  0
   -0.2850   18.5562   36.4156 H   0  0  0  0  0  0  0  0  0  0  0  0
    1.5185   17.6677   37.7588 H   0  0  0  0  0  0  0  0  0  0  0  0
  1  2  1  0
  1  6  2  0
  2  3  2  0
  3  4  1  0
  3  7  1  0
  4  5  2  0
  5  6  1  0
  7  8  1  0
  7  9  2  0
  2 10  1  0
  4 11  1  0
  5 12  1  0
  6 13  1  0
M  CHG  1   8  -1
M  END
>  <mol_id>  (80) 
2026-09-18-3war-s0-n100-r3-0080

>  <rmsd_to_ref>  (80) 
4.081632653063047

>  <pose_kind>  (80) 
conformer

$$$$
3war.A
     RDKit          3D

 13 13  0  0  0  0  0  0  0  0999 V2000
    3.2607   17.2167   40.3299 N   0  0  0  0  0  0  0  0  0  0  0  0
    2.1324   17.8109   40.9447 C   0  0  0  0  0  0  0  0  0  0  0  0
    2.2168   19.2174   41.2516 C   0  0  0  0  0  0  0  0  0  0  0  0
    3.3677   19.9340   40.9761 C   0  0  0  0  0  0  0  0  0  0  0  0
    4.4318   19.3202   40.3525 C   0  0  0  0  0  0  0  0  0  0  0  0
    4.3741   17.9738   40.0703 C   0  0  0  0  0  0  0  0  0  0  0  0
    1.0795   19.8983   41.9984 C   0  0  0  0  0  0  0  0  0  0  0  0
   -0.0221   19.2841   42.1071 O   0  0  0  0  0  0  0  0  0  0  0  0
    1.3481   20.9945   42.4405 O   0  0  0  0  0  0  0  0  0  0  0  0
    1.2308   17.2255   41.1780 H   0  0  0  0  0  0  0  0  0  0  0  0
    3.4333   20.9959   41.2556 H   0  0  0  0  0  0  0  0  0  0  0  0
    5.3240   19.9035   40.0811 H   0  0  0  0  0  0  0  0  0  0  0  0
    5.2526   17.4881   39.6204 H   0  0  0  0  0  0  0  0  0  0  0  0
  1  2  1  0
  1  6  2  0
  2  3  2  0
  3  4  1  0
  3  7  1  0
  4  5  2  0
  5  6  1  0
  7  8  1  0
  7  9  2  0
  2 10  1  0
  4 11  1  0
  5 12  1  0
  6 13  1  0
M  CHG  1   8  -1
M  END
>  <mol_id>  (81) 
2026-09-18-3war-s0-n100-r3-0081

>  <rmsd_to_ref>  (81) 
4.127551020409441

>  <pose_kind>  (81) 
rigid

$$$$
3war.A
     RDKit          3D

 13 13  0  0  0  0  0  0  0  0999 V2000
    3.7779   19.9333   35.1348 N   0  0  0  0  0  0  0  0  0  0  0  0
    2.5661   20.1068   35.7103 C   0  0  0  0  0  0  0  0  0  0  0  0
    2.5421   20.7661   36.9127 C   0  0  0  0  0  0  0  0  0  0  0  0
    3.6591   21.2494   37.5503 C   0  0  0  0  0  0  0  0  0  0  0  0
    4.8769   21.0468   36.9206 C   0  0  0  0  0  0  0  0  0  0  0  0
    4.9102   20.3827   35.7074 C   0  0  0  0  0  0  0  0  0  0  0  0
    1.2577   20.9718   37.5624 C   0  0  0  0  0  0  0  0  0  0  0  0
    0.0595   20.5123   36.9855 O   0  0  0  0  0  0  0  0  0  0  0  0
    1.1286   21.5642   38.6660 O   0  0  0  0  0  0  0  0  0  0  0  0
    1.6871   19.7246   35.2052 H   0  0  0  0  0  0  0  0  0  0  0  0
    3.6178   21.7589   38.4844 H   0  0  0  0  0  0  0  0  0  0  0  0
    5.7734   21.4181   37.4022 H   0  0  0  0  0  0  0  0  0  0  0  0
    5.8892   20.2372   35.2327 H   0  0  0  0  0  0  0  0  0  0  0  0
  1  2  1  0
  1  6  2  0
  2  3  2  0
  3  4  1  0
  3  7  1  0
  4  5  2  0
  5  6  1  0
  7  8  1  0
  7  9  2  0
  2 10  1  0
  4 11  1  0
  5 12  1  0
  6 13  1  0
M  CHG  1   8  -1
M  END
>  <mol_id>  (82) 
2026-09-18-3war-s0-n100-r3-0082

>  <rmsd_to_ref>  (82) 
4.173469387758016

>  <pose_kind>  (82) 
conformer

$$$$
3war.A
     RDKit          3D

 13 13  0  0  0  0  0  0  0  0999 V2000
    3.3627   20.2958   34.8545 N   0  0  0  0  0  0  0  0  0  0  0  0
    3.5333   21.2061   35.9252 C   0  0  0  0  0  0  0  0  0  0  0  0
    2.7589   20.9687   37.1182 C   0  0  0  0  0  0  0  0  0  0  0  0
    1.8718   19.9093   37.1870 C   0  0  0  0  0  0  0  0  0  0  0  0
    1.7581   19.0329   36.1301 C   0  0  0  0  0  0  0  0  0  0  0  0
    2.4764   19.2567   34.9769 C   0  0  0  0  0  0  0  0  0  0  0  0
    2.8210   21.9605   38.2702 C   0  0  0  0  0  0  0  0  0  0  0  0
    3.7398   22.8313   38.2659 O   0  0  0  0  0  0  0  0  0  0  0  0
    1.9516   21.8243   39.1039 O   0  0  0  0  0  0  0  0  0  0  0  0
    4.2262   22.0571   35.8503 H   0  0  0  0  0  0  0  0  0  0  0  0
    1.2560   19.7664   38.0872 H   0  0  0  0  0  0  0  0  0  0  0  0
    1.0961   18.1578   36.2072 H   0  0  0  0  0  0  0  0  0  0  0  0
    2.3342   18.5775   34.1234 H   0  0  0  0  0  0  0  0  0  0  0  0
  1  2  1  0
  1  6  2  0
  2  3  2  0
  3  4  1  0
  3  7  1  0
  4  5  2  0
  5  6  1  0
  7  8  1  0
  7  9  2  0
  2 10  1  0
  4 11  1  0
  5 12  1  0
  6 13  1  0
M  CHG  1   8  -1
M  END
>  <mol_id>  (83) 
2026-09-18-3war-s0-n100-r3-0083

>  <rmsd_to_ref>  (83) 
4.219387755104975

>  <pose_kind>  (83) 
rigid

$$$$
3war.A
     RDKit          3D

 13 13  0  0  0  0  0  0  0  0999 V2000
    4.6917   17.0655   37.1861 N   0  0  0  0  0  0  0  0  0  0  0  0
    3.9624   17.9832   37.8747 C   0  0  0  0  0  0  0  0  0  0  0  0
    2.6438   17.7547   38.2103 C   0  0  0  0  0  0  0  0  0  0  0  0
    2.0556   16.5447   37.8263 C   0  0  0  0  0  0  0  0  0  0  0  0
    2.7999   15.5970   37.1181 C   0  0  0  0  0  0  0  0  0  0  0  0
    4.1310   15.8957   36.8121 C   0  0  0  0  0  0  0  0  0  0  0  0
    1.8767   18.7453   38.9468 C   0  0  0  0  0  0  0  0  0  0  0  0
    0.5514   18.4786   39.2663 O   0  0  0  0  0  0  0  0  0  0  0  0
    2.4356   19.8306   39.2807 O   0  0  0  0  0  0  0  0  0  0  0  0
    4.4090   18.9220   38.1760 H   0  0  0  0  0  0  0  0  0  0  0  0
    1.0200   16.3150   38.0656 H   0  0  0  0  0  0  0  0  0  0  0  0
    2.3581   14.6680   36.8200 H   0  0  0  0  0  0  0  0  0  0  0  0
    4.7100   15.1531   36.2586 H   0  0  0  0  0  0  0  0  0  0  0  0
  1  2  1  0
  1  6  2  0
  2  3  2  0
  3  4  1  0
  3  7  1  0
  4  5  2  0
  5  6  1  0
  7  8  1  0
  7  9  2  0
  2 10  1  0
  4 11  1  0
  5 12  1  0
  6 13  1  0
M  CHG  1   8  -1
M  END
>  <mol_id>  (84) 
2026-09-18-3war-s0-n100-r3-0084

>  <rmsd_to_ref>  (84) 
4.265306122450754

>  <pose_kind>  (84) 
conformer

$$$$
3war.A
     RDKit          3D

 13 13  0  0  0  0  0  0  0  0999 V2000
    1.8909   18.5316   38.6685 N   0  0  0  0  0  0  0  0  0  0  0  0
    2.4932   17.5760   39.5217 C   0  0  0  0  0  0  0  0  0  0  0  0
    1.7957   17.2533   40.7418 C   0  0  0  0  0  0  0  0  0  0  0  0
    0.6047   17.8798   41.0630 C   0  0  0  0  0  0  0  0  0  0  0  0
    0.0417   18.7843   40.1894 C   0  0  0  0  0  0  0  0  0  0  0  0
    0.7047   19.1172   39.0295 C   0  0  0  0  0  0  0  0  0  0  0  0
    2.4317   16.3072   41.7494 C   0  0  0  0  0  0  0  0  0  0  0  0
    3.4337   15.6247   41.3849 O   0  0  0  0  0  0  0  0  0  0  0  0
    1.9079   16.3041   42.8425 O   0  0  0  0  0  0  0  0  0  0  0  0
    3.4514   17.1004   39.2652 H   0  0  0  0  0  0  0  0  0  0  0  0
    0.1063   17.6554   42.0176 H   0  0  0  0  0  0  0  0  0  0  0  0
   -0.9337   19.2387   40.4178 H   0  0  0  0  0  0  0  0  0  0  0  0
    0.2672   19.8801   38.3689 H   0  0  0  0  0  0  0  0  0  0  0  0
  1  2  1  0
  1  6  2  0
  2  3  2  0
  3  4  1  0
  3  7  1  0
  4  5  2  0
  5  6  1  0
  7  8  1  0
  7  9  2  0
  2 10  1  0
  4 11  1  0
  5 12  1  0
  6 13  1  0
M  CHG  1   8  -1
M  END
>  <mol_id>  (85) 
2026-09-18-3war-s0-n100-r3-0085

>  <rmsd_to_ref>  (85) 
4.311224489796337

>  <pose_kind>  (85) 
rigid

$$$$
3war.A
     RDKit          3D

 13 13  0  0  0  0  0  0  0  0999 V2000
    3.2392   19.3935   36.8507 N   0  0  0  0  0  0  0  0  0  0  0  0
    3.3086   18.8877   38.0938 C   0  0  0  0  0  0  0  0  0  0  0  0
    4.5475   18.6921   38.6331 C   0  0  0  0  0  0  0  0  0  0  0  0
    5.7317   18.9806   37.9834 C   0  0  0  0  0  0  0  0  0  0  0  0
    5.6286   19.5005   36.7041 C   0  0  0  0  0  0  0  0  0  0  0  0
    4.3621   19.6994   36.1552 C   0  0  0  0  0  0  0  0  0  0  0  0
    4.6419   18.1405   39.9896 C   0  0  0  0  0  0  0  0  0  0  0  0
    3.5077   17.8178   40.7258 O   0  0  0  0  0  0  0  0  0  0  0  0
    5.7799   17.9432   40.5283 O   0  0  0  0  0  0  0  0  0  0  0  0
    2.4043   18.6459   38.6428 H   0  0  0  0  0  0  0  0  0  0  0  0
    6.7060   18.8319   38.3947 H   0  0  0  0  0  0  0  0  0  0  0  0
    6.5150   19.7504   36.1344 H   0  0  0  0  0  0  0  0  0  0  0  0
    4.2187   20.1027   35.1598 H   0  0  0  0  0  0  0  0  0  0  0  0
  1  2  1  0
  1  6  2  0
  2  3  2  0
  3  4  1  0
  3  7  1  0
  4  5  2  0
  5  6  1  0
  7  8  1  0
  7  9  2  0
  2 10  1  0
  4 11  1  0
  5 12  1  0
  6 13  1  0
M  CHG  1   8  -1
M  END
>  <mol_id>  (86) 
2026-09-18-3war-s0-n100-r3-0086

>  <rmsd_to_ref>  (86) 
4.357142857143978

>  <pose_kind>  (86) 
conformer

$$$$
3war.A
     RDKit          3D

 13 13  0  0  0  0  0  0  0  0999 V2000
    5.5661   20.0364   38.3043 N   0  0  0  0  0  0  0  0  0  0  0  0
    5.4683   20.1718   39.7100 C   0  0  0  0  0  0  0  0  0  0  0  0
    4.4120   21.0125   40.2166 C   0  0  0  0  0  0  0  0  0  0  0  0
    3.5571   21.6731   39.3523 C   0  0  0  0  0  0  0  0  0  0  0  0
    3.6728   21.4905   37.9917 C   0  0  0  0  0  0  0  0  0  0  0  0
    4.6879   20.7062   37.4916 C   0  0  0  0  0  0  0  0  0  0  0  0
    4.3078   21.2789   41.7109 C   0  0  0  0  0  0  0  0  0  0  0  0
    4.9858   20.5572   42.4997 O   0  0  0  0  0  0  0  0  0  0  0  0
    3.5698   22.1918   42.0129 O   0  0  0  0  0  0  0  0  0  0  0  0
    6.1675   19.6582   40.3863 H   0  0  0  0  0  0  0  0  0  0  0  0
    2.7837   22.3452   39.7522 H   0  0  0  0  0  0  0  0  0  0  0  0
    2.9569   21.9695   37.3075 H   0  0  0  0  0  0  0  0  0  0  0  0
    4.7984   20.6136   36.4011 H   0  0  0  0  0  0  0  0  0  0  0  0
  1  2  1  0
  1  6  2  0
  2  3  2  0
  3  4  1  0
  3  7  1  0
  4  5  2  0
  5  6  1  0
  7  8  1  0
  7  9  2  0
  2 10  1  0
  4 11  1  0
  5 12  1  0
  6 13  1  0
M  CHG  1   8  -1
M  END
>  <mol_id>  (87) 
2026-09-18-3war-s0-n100-r3-0087

>  <rmsd_to_ref>  (87) 
4.403061224491991

>  <pose_kind>  (87) 
rigid

$$$$
3war.A
     RDKit          3D

 13 13  0  0  0  0  0  0  0  0999 V2000
    5.6086   22.1199   37.9624 N   0  0  0  0  0  0  0  0  0  0  0  0
    4.5998   22.0527   38.8577 C   0  0  0  0  0  0  0  0  0  0  0  0
    3.3151   22.0562   38.3512 C   0  0  0  0  0  0  0  0  0  0  0  0
    3.0356   22.1241   37.0033 C   0  0  0  0  0  0  0  0  0  0  0  0
    4.1155   22.1911   36.1359 C   0  0  0  0  0  0  0  0  0  0  0  0
    5.4108   22.1885   36.6286 C   0  0  0  0  0  0  0  0  0  0  0  0
    2.1850   21.9850   39.2782 C   0  0  0  0  0  0  0  0  0  0  0  0
    2.4048   21.9142   40.6607 O   0  0  0  0  0  0  0  0  0  0  0  0
    1.0060   21.9872   38.8345 O   0  0  0  0  0  0  0  0  0  0  0  0
    4.7423   21.9979   39.9165 H   0  0  0  0  0  0  0  0  0  0  0  0
    2.0612   22.1290   36.5775 H   0  0  0  0  0  0  0  0  0  0  0  0
    3.9247   22.2455   35.0671 H   0  0  0  0  0  0  0  0  0  0  0  0
    6.2357   22.2414   35.9354 H   0  0  0  0  0  0  0  0  0  0  0  0
  1  2  1  0
  1  6  2  0
  2  3  2  0
  3  4  1  0
  3  7  1  0
  4  5  2  0
  5  6  1  0
  7  8  1  0
  7  9  2  0
  2 10  1  0
  4 11  1  0
  5 12  1  0
  6 13  1  0
M  CHG  1   8  -1
M  END
>  <mol_id>  (88) 
2026-09-18-3war-s0-n100-r3-0088

>  <rmsd_to_ref>  (88) 
4.448979591837596

>  <pose_kind>  (88) 
conformer

$$$$
3war.A
     RDKit          3D

 13 13  0  0  0  0  0  0  0  0999 V2000
    2.8315   22.5580   36.0388 N   0  0  0  0  0  0  0  0  0  0  0  0
    3.7560   22.8063   37.0817 C   0  0  0  0  0  0  0  0  0  0  0  0
    4.3781   21.6588   37.6945 C   0  0  0  0  0  0  0  0  0  0  0  0
    4.0539   20.3767   37.2881 C   0  0  0  0  0  0  0  0  0  0  0  0
    3.1684   20.1835   36.2506 C   0  0  0  0  0  0  0  0  0  0  0  0
    2.5516   21.2679   35.6680 C   0  0  0  0  0  0  0  0  0  0  0  0
    5.3080   21.8473   38.8839 C   0  0  0  0  0  0  0  0  0  0  0  0
    5.7185   23.0154   39.1477 O   0  0  0  0  0  0  0  0  0  0  0  0
    5.5678   20.8305   39.4904 O   0  0  0  0  0  0  0  0  0  0  0  0
    3.9896   23.8298   37.4103 H   0  0  0  0  0  0  0  0  0  0  0  0
    4.5040   19.5100   37.7943 H   0  0  0  0  0  0  0  0  0  0  0  0
    2.9549   19.1668   35.8890 H   0  0  0  0  0  0  0  0  0  0  0  0
    1.8077   21.0931   34.8768 H   0  0  0  0  0  0  0  0  0  0  0  0
  1  2  1  0
  1  6  2  0
  2  3  2  0
  3  4  1  0
  3  7  1  0
  4  5  2  0
  5  6  1  0
  7  8  1  0
  7  9  2  0
  2 10  1  0
  4 11  1  0
  5 12  1  0
  6 13  1  0
M  CHG  1   8  -1
M  END
>  <mol_id>  (89) 
2026-09-18-3war-s0-n100-r3-0089

>  <rmsd_to_ref>  (89) 
4.494897959184362

>  <pose_kind>  (89) 
rigid

$$$$
3war.A
     RDKit          3D

 13 13  0  0  0  0  0  0  0  0999 V2000
    3.7405   21.1765   40.2792 N   0  0  0  0  0  0  0  0  0  0  0  0
    2.9259   21.7651   41.1946 C   0  0  0  0  0  0  0  0  0  0  0  0
    1.5863   21.8944   40.8980 C   0  0  0  0  0  0  0  0  0  0  0  0
    1.0287   21.4554   39.7157 C   0  0  0  0  0  0  0  0  0  0  0  0
    1.8832   20.8572   38.7969 C   0  0  0  0  0  0  0  0  0  0  0  0
    3.2075   20.7362   39.1047 C   0  0  0  0  0  0  0  0  0  0  0  0
    0.7286   22.5321   41.9004 C   0  0  0  0  0  0  0  0  0  0  0  0
   -0.6453   22.6904   41.6515 O   0  0  0  0  0  0  0  0  0  0  0  0
    1.1463   22.9591   42.9967 O   0  0  0  0  0  0  0  0  0  0  0  0
    3.3458   22.1123   42.1205 H   0  0  0  0  0  0  0  0  0  0  0  0
   -0.0200   21.5800   39.5338 H   0  0  0  0  0  0  0  0  0  0  0  0
    1.5006   20.4902   37.8444 H   0  0  0  0  0  0  0  0  0  0  0  0
    3.8643   20.2698   38.3843 H   0  0  0  0  0  0  0  0  0  0  0  0
  1  2  1  0
  1  6  2  0
  2  3  2  0
  3  4  1  0
  3  7  1  0
  4  5  2  0
  5  6  1  0
  7  8  1  0
  7  9  2  0
  2 10  1  0
  4 11  1  0
  5 12  1  0
  6 13  1  0
M  CHG  1   8  -1
M  END
>  <mol_id>  (90) 
2026-09-18-3war-s0-n100-r3-0090

>  <rmsd_to_ref>  (90) 
4.540816326530634

>  <pose_kind>  (90) 
conformer

$$$$
3war.A
     RDKit          3D

 13 13  0  0  0  0  0  0  0  0999 V2000
    4.0905   20.7376   40.3362 N   0  0  0  0  0  0  0  0  0  0  0  0
    3.8207   20.2072   41.6207 C   0  0  0  0  0  0  0  0  0  0  0  0
    2.7931   19.1996   41.7122 C   0  0  0  0  0  0  0  0  0  0  0  0
    2.0918   18.7999   40.5886 C   0  0  0  0  0  0  0  0  0  0  0  0
    2.4068   19.3242   39.3542 C   0  0  0  0  0  0  0  0  0  0  0  0
    3.3721   20.3008   39.2529 C   0  0  0  0  0  0  0  0  0  0  0  0
    2.3856   18.6561   43.0736 C   0  0  0  0  0  0  0  0  0  0  0  0
    3.1278   18.9060   44.0682 O   0  0  0  0  0  0  0  0  0  0  0  0
    1.3515   18.0238   43.0781 O   0  0  0  0  0  0  0  0  0  0  0  0
    4.3707   20.5487   42.5100 H   0  0  0  0  0  0  0  0  0  0  0  0
    1.2812   18.0621   40.6811 H   0  0  0  0  0  0  0  0  0  0  0  0
    1.8891   18.9641   38.4529 H   0  0  0  0  0  0  0  0  0  0  0  0
    3.5743   20.7465   38.2678 H   0  0  0  0  0  0  0  0  0  0  0  0
  1  2  1  0
  1  6  2  0
  2  3  2  0
  3  4  1  0
  3  7  1  0
  4  5  2  0
  5  6  1  0
  7  8  1  0
  7  9  2  0
  2 10  1  0
  4 11  1  0
  5 12  1  0
  6 13  1  0
M  CHG  1   8  -1
M  END
>  <mol_id>  (91) 
2026-09-18-3war-s0-n100-r3-0091

>  <rmsd_to_ref>  (91) 
4.586734693877739

>  <pose_kind>  (91) 
rigid

$$$$
3war.A
     RDKit          3D

 13 13  0  0  0  0  0  0  0  0999 V2000
    2.0219   23.6164   38.7886 N   0  0  0  0  0  0  0  0  0  0  0  0
    2.0681   23.3397   40.1206 C   0  0  0  0  0  0  0  0  0  0  0  0
    2.0345   22.0212   40.5029 C   0  0  0  0  0  0  0  0  0  0  0  0
    1.9580   20.9903   39.6194 C   0  0  0  0  0  0  0  0  0  0  0  0
    1.9118   21.2990   38.2604 C   0  0  0  0  0  0  0  0  0  0  0  0
    1.9460   22.6254   37.8853 C   0  0  0  0  0  0  0  0  0  0  0  0
    2.0842   21.7271   41.9300 C   0  0  0  0  0  0  0  0  0  0  0  0
    2.0545   20.4105   42.4007 O   0  0  0  0  0  0  0  0  0  0  0  0
    2.1563   22.6433   42.8114 O   0  0  0  0  0  0  0  0  0  0  0  0
    2.1289   24.1684   40.8142 H   0  0  0  0  0  0  0  0  0  0  0  0
    1.9313   19.9493   39.9164 H   0  0  0  0  0  0  0  0  0  0  0  0
    1.8503   20.5333   37.4956 H   0  0  0  0  0  0  0  0  0  0  0  0
    1.9128   22.9209   36.8451 H   0  0  0  0  0  0  0  0  0  0  0  0
  1  2  1  0
  1  6  2  0
  2  3  2  0
  3  4  1  0
  3  7  1  0
  4  5  2  0
  5  6  1  0
  7  8  1  0
  7  9  2  0
  2 10  1  0
  4 11  1  0
  5 12  1  0
  6 13  1  0
M  CHG  1   8  -1
M  END
>  <mol_id>  (92) 
2026-09-18-3war-s0-n100-r3-0092

>  <rmsd_to_ref>  (92) 
4.632653061226049

>  <pose_kind>  (92) 
conformer

$$$$
3war.A
     RDKit          3D

 13 13  0  0  0  0  0  0  0  0999 V2000
    2.0219   18.9446   38.6344 N   0  0  0  0  0  0  0  0  0  0  0  0
    0.8074   18.6877   39.3148 C   0  0  0  0  0  0  0  0  0  0  0  0
    0.5061   17.3116   39.6232 C   0  0  0  0  0  0  0  0  0  0  0  0
    1.3638   16.2962   39.2394 C   0  0  0  0  0  0  0  0  0  0  0  0
    2.5482   16.5954   38.6024 C   0  0  0  0  0  0  0  0  0  0  0  0
    2.8413   17.9024   38.2839 C   0  0  0  0  0  0  0  0  0  0  0  0
   -0.8254   16.9546   40.2670 C   0  0  0  0  0  0  0  0  0  0  0  0
   -1.5289   17.8885   40.7525 O   0  0  0  0  0  0  0  0  0  0  0  0
   -1.0989   15.7740   40.2446 O   0  0  0  0  0  0  0  0  0  0  0  0
    0.1234   19.5020   39.5960 H   0  0  0  0  0  0  0  0  0  0  0  0
    1.0996   15.2480   39.4431 H   0  0  0  0  0  0  0  0  0  0  0  0
    3.2569   15.7931   38.3492 H   0  0  0  0  0  0  0  0  0  0  0  0
    3.7658   18.1184   37.7284 H   0  0  0  0  0  0  0  0  0  0  0  0
  1  2  1  0
  1  6  2  0
  2  3  2  0
  3  4  1  0
  3  7  1  0
  4  5  2  0
  5  6  1  0
  7  8  1  0
  7  9  2  0
  2 10  1  0
  4 11  1  0
  5 12  1  0
  6 13  1  0
M  CHG  1   8  -1
M  END
>  <mol_id>  (93) 
2026-09-18-3war-s0-n100-r3-0093

>  <rmsd_to_ref>  (93) 
4.678571428572931

>  <pose_kind>  (93) 
rigid

$$$$
3war.A
     RDKit          3D

 13 13  0  0  0  0  0  0  0  0999 V2000
    1.3567   17.2572   34.5560 N   0  0  0  0  0  0  0  0  0  0  0  0
    1.0298   17.7759   35.7543 C   0  0  0  0  0  0  0  0  0  0  0  0
    1.9127   18.6187   36.4001 C   0  0  0  0  0  0  0  0  0  0  0  0
    3.1349   18.9254   35.8060 C   0  0  0  0  0  0  0  0  0  0  0  0
    3.4521   18.3834   34.5763 C   0  0  0  0  0  0  0  0  0  0  0  0
    2.5299   17.5335   33.9545 C   0  0  0  0  0  0  0  0  0  0  0  0
    1.5359   19.1691   37.6991 C   0  0  0  0  0  0  0  0  0  0  0  0
    2.3912   20.0210   38.3857 O   0  0  0  0  0  0  0  0  0  0  0  0
    0.4199   18.8818   38.2292 O   0  0  0  0  0  0  0  0  0  0  0  0
    0.0632   17.5159   36.1939 H   0  0  0  0  0  0  0  0  0  0  0  0
    3.8319   19.5696   36.2794 H   0  0  0  0  0  0  0  0  0  0  0  0
    4.3855   18.5916   34.0775 H   0  0  0  0  0  0  0  0  0  0  0  0
    2.7690   17.0942   32.9741 H   0  0  0  0  0  0  0  0  0  0  0  0
  1  2  1  0
  1  6  2  0
  2  3  2  0
  3  4  1  0
  3  7  1  0
  4  5  2  0
  5  6  1  0
  7  8  1  0
  7  9  2  0
  2 10  1  0
  4 11  1  0
  5 12  1  0
  6 13  1  0
M  CHG  1   8  -1
M  END
>  <mol_id>  (94) 
2026-09-18-3war-s0-n100-r3-0094

>  <rmsd_to_ref>  (94) 
4.724489795918767

>  <pose_kind>  (94) 
conformer

$$$$
3war.A
     RDKit          3D

 13 13  0  0  0  0  0  0  0  0999 V2000
   -0.9916   20.7597   38.0288 N   0  0  0  0  0  0  0  0  0  0  0  0
   -1.1034   20.8937   39.4336 C   0  0  0  0  0  0  0  0  0  0  0  0
   -0.3085   20.0037   40.2433 C   0  0  0  0  0  0  0  0  0  0  0  0
    0.5017   19.0476   39.6572 C   0  0  0  0  0  0  0  0  0  0  0  0
    0.5996   18.9711   38.2852 C   0  0  0  0  0  0  0  0  0  0  0  0
   -0.1672   19.8009   37.4983 C   0  0  0  0  0  0  0  0  0  0  0  0
   -0.4514   20.0280   41.7578 C   0  0  0  0  0  0  0  0  0  0  0  0
   -1.0680   20.9979   42.2887 O   0  0  0  0  0  0  0  0  0  0  0  0
    0.0459   19.0818   42.3291 O   0  0  0  0  0  0  0  0  0  0  0  0
   -1.7674   21.6439   39.8878 H   0  0  0  0  0  0  0  0  0  0  0  0
    1.0688   18.3471   40.2879 H   0  0  0  0  0  0  0  0  0  0  0  0
    1.2878   18.2499   37.8201 H   0  0  0  0  0  0  0  0  0  0  0  0
   -0.1166   19.6909   36.4050 H   0  0  0  0  0  0  0  0  0  0  0  0
  1  2  1  0
  1  6  2  0
  2  3  2  0
  3  4  1  0
  3  7  1  0
  4  5  2  0
  5  6  1  0
  7  8  1  0
  7  9  2  0
  2 10  1  0
  4 11  1  0
  5 12  1  0
  6 13  1  0
M  CHG  1   8  -1
M  END
>  <mol_id>  (95) 
2026-09-18-3war-s0-n100-r3-0095

>  <rmsd_to_ref>  (95) 
4.770408163266554

>  <pose_kind>  (95) 
rigid

$$$$
3war.A
     RDKit          3D

 13 13  0  0  0  0  0  0  0  0999 V2000
    2.0065   21.7911   35.4139 N   0  0  0  0  0  0  0  0  0  0  0  0
    1.1788   21.8390   36.4977 C   0  0  0  0  0  0  0  0  0  0  0  0
    0.4656   20.7070   36.8366 C   0  0  0  0  0  0  0  0  0  0  0  0
    0.5453   19.5226   36.1340 C   0  0  0  0  0  0  0  0  0  0  0  0
    1.3976   19.5122   35.0378 C   0  0  0  0  0  0  0  0  0  0  0  0
    2.1157   20.6408   34.6908 C   0  0  0  0  0  0  0  0  0  0  0  0
   -0.4310   20.7442   38.0032 C   0  0  0  0  0  0  0  0  0  0  0  0
   -0.5504   21.9182   38.7513 O   0  0  0  0  0  0  0  0  0  0  0  0
   -1.0787   19.7020   38.3037 O   0  0  0  0  0  0  0  0  0  0  0  0
    1.0918   22.7604   37.0763 H   0  0  0  0  0  0  0  0  0  0  0  0
   -0.0163   18.6335   36.4021 H   0  0  0  0  0  0  0  0  0  0  0  0
    1.5007   18.6010   34.4437 H   0  0  0  0  0  0  0  0  0  0  0  0
    2.7628   20.5671   33.8252 H   0  0  0  0  0  0  0  0  0  0  0  0
  1  2  1  0
  1  6  2  0
  2  3  2  0
  3  4  1  0
  3  7  1  0
  4  5  2  0
  5  6  1  0
  7  8  1  0
  7  9  2  0
  2 10  1  0
  4 11  1  0
  5 12  1  0
  6 13  1  0
M  CHG  1   8  -1
M  END
>  <mol_id>  (96) 
2026-09-18-3war-s0-n100-r3-0096

>  <rmsd_to_ref>  (96) 
4.816326530613893

>  <pose_kind>  (96) 
conformer

$$$$
