3war.A
     RDKit          3D

 13 13  0  0  0  0  0  0  0  0999 V2000
    2.0001   18.6245   40.6926 N   0  0  0  0  0  0  0  0  0  0  0  0
    2.5782   18.5757   39.4013 C   0  0  0  0  0  0  0  0  0  0  0  0
    2.4967   19.7718   38.6000 C   0  0  0  0  0  0  0  0  0  0  0  0
    1.8538   20.9004   39.0765 C   0  0  0  0  0  0  0  0  0  0  0  0
    1.3289   20.9112   40.3502 C   0  0  0  0  0  0  0  0  0  0  0  0
    1.3818   19.7712   41.1205 C   0  0  0  0  0  0  0  0  0  0  0  0
    3.0116   19.7599   37.1684 C   0  0  0  0  0  0  0  0  0  0  0  0
    3.7306   18.7870   36.7954 O   0  0  0  0  0  0  0  0  0  0  0  0
    2.6655   20.7081   36.4973 O   0  0  0  0  0  0  0  0  0  0  0  0
    3.0681   17.6653   39.0256 H   0  0  0  0  0  0  0  0  0  0  0  0
    1.7616   21.7908   38.4372 H   0  0  0  0  0  0  0  0  0  0  0  0
    0.8693   21.8270   40.7502 H   0  0  0  0  0  0  0  0  0  0  0  0
    0.9112   19.7806   42.1147 H   0  0  0  0  0  0  0  0  0  0  0  0
  1  2  1  0
  1  6  2  0
  2  3  2  0
  3  4  1  0
  3  7  1  0
  4  5  2  0
  5  6  1  0
  7  8  1  0
  7  9  2  0
  2 10  1  0
  4 11  1  0
  5 12  1  0
  6 13  1  0
M  CHG  1   8  -1
M  END
>  <mol_id>  (1) 
2026-09-18-3war-s0-n100-r7-0001

>  <rmsd_to_ref>  (1) 
0.0

>  <pose_kind>  (1) 
native

$$$$
3war.A
     RDKit          3D

 13 13  0  0  0  0  0  0  0  0999 V2000
    1.4137   18.4174   40.5053 N   0  0  0  0  0  0  0  0  0  0  0  0
    2.0273   18.3266   39.2942 C   0  0  0  0  0  0  0  0  0  0  0  0
    2.3500   19.4871   38.6145 C   0  0  0  0  0  0  0  0  0  0  0  0
    2.0478   20.7109   39.1693 C   0  0  0  0  0  0  0  0  0  0  0  0
    1.4247   20.7485   40.4010 C   0  0  0  0  0  0  0  0  0  0  0  0
    1.0974   19.5871   41.0899 C   0  0  0  0  0  0  0  0  0  0  0  0
    3.0049   19.3984   37.3216 C   0  0  0  0  0  0  0  0  0  0  0  0
    3.3299   20.5753   36.6367 O   0  0  0  0  0  0  0  0  0  0  0  0
    3.2811   18.2606   36.8153 O   0  0  0  0  0  0  0  0  0  0  0  0
    2.2698   17.3716   38.8482 H   0  0  0  0  0  0  0  0  0  0  0  0
    2.2954   21.6290   38.6467 H   0  0  0  0  0  0  0  0  0  0  0  0
    1.1982   21.7275   40.8147 H   0  0  0  0  0  0  0  0  0  0  0  0
    0.6089   19.6221   42.0555 H   0  0  0  0  0  0  0  0  0  0  0  0
  1  2  1  0
  1  6  2  0
  2  3  2  0
  3  4  1  0
  3  7  1  0
  4  5  2  0
  5  6  1  0
  7  8  1  0
  7  9  2  0
  2 10  1  0
  4 11  1  0
  5 12  1  0
  6 13  1  0
M  CHG  1   8  -1
M  END
>  <mol_id>  (2) 
2026-09-18-3war-s0-n100-r7-0002

>  <rmsd_to_ref>  (2) 
0.5000000000024887

>  <pose_kind>  (2) 
conformer

$$$$
3war.A
     RDKit          3D

 13 13  0  0  0  0  0  0  0  0999 V2000
    1.9105   18.4200   40.3415 N   0  0  0  0  0  0  0  0  0  0  0  0
    2.6208   18.6251   39.1343 C   0  0  0  0  0  0  0  0  0  0  0  0
    2.7590   19.9857   38.6771 C   0  0  0  0  0  0  0  0  0  0  0  0
    2.1924   21.0310   39.3845 C   0  0  0  0  0  0  0  0  0  0  0  0
    1.5326   20.7868   40.5690 C   0  0  0  0  0  0  0  0  0  0  0  0
    1.3756   19.4917   41.0091 C   0  0  0  0  0  0  0  0  0  0  0  0
    3.4265   20.2704   37.3399 C   0  0  0  0  0  0  0  0  0  0  0  0
    4.0735   19.3377   36.7794 O   0  0  0  0  0  0  0  0  0  0  0  0
    3.2621   21.3957   36.9206 O   0  0  0  0  0  0  0  0  0  0  0  0
    3.0485   17.7835   38.5697 H   0  0  0  0  0  0  0  0  0  0  0  0
    2.2689   22.0590   39.0005 H   0  0  0  0  0  0  0  0  0  0  0  0
    1.1327   21.6234   41.1608 H   0  0  0  0  0  0  0  0  0  0  0  0
    0.8006   19.3102   41.9290 H   0  0  0  0  0  0  0  0  0  0  0  0
  1  2  1  0
  1  6  2  0
  2  3  2  0
  3  4  1  0
  3  7  1  0
  4  5  2  0
  5  6  1  0
  7  8  1  0
  7  9  2  0
  2 10  1  0
  4 11  1  0
  5 12  1  0
  6 13  1  0
M  CHG  1   8  -1
M  END
>  <mol_id>  (3) 
2026-09-18-3war-s0-n100-r7-0003

>  <rmsd_to_ref>  (3) 
0.5459183673501519

>  <pose_kind>  (3) 
rigid

$$$$
3war.A
     RDKit          3D

 13 13  0  0  0  0  0  0  0  0999 V2000
    1.9334   19.0920   40.6018 N   0  0  0  0  0  0  0  0  0  0  0  0
    2.5052   18.8138   39.4063 C   0  0  0  0  0  0  0  0  0  0  0  0
    2.2605   19.6245   38.3185 C   0  0  0  0  0  0  0  0  0  0  0  0
    1.4239   20.7253   38.4634 C   0  0  0  0  0  0  0  0  0  0  0  0
    0.8457   20.9953   39.6983 C   0  0  0  0  0  0  0  0  0  0  0  0
    1.1233   20.1531   40.7532 C   0  0  0  0  0  0  0  0  0  0  0  0
    2.8784   19.3254   37.0235 C   0  0  0  0  0  0  0  0  0  0  0  0
    2.6176   20.1560   35.9415 O   0  0  0  0  0  0  0  0  0  0  0  0
    3.6423   18.3069   36.9221 O   0  0  0  0  0  0  0  0  0  0  0  0
    3.1614   17.9322   39.3347 H   0  0  0  0  0  0  0  0  0  0  0  0
    1.2069   21.3937   37.6155 H   0  0  0  0  0  0  0  0  0  0  0  0
    0.1970   21.8485   39.8112 H   0  0  0  0  0  0  0  0  0  0  0  0
    0.6946   20.3251   41.7336 H   0  0  0  0  0  0  0  0  0  0  0  0
  1  2  1  0
  1  6  2  0
  2  3  2  0
  3  4  1  0
  3  7  1  0
  4  5  2  0
  5  6  1  0
  7  8  1  0
  7  9  2  0
  2 10  1  0
  4 11  1  0
  5 12  1  0
  6 13  1  0
M  CHG  1   8  -1
M  END
>  <mol_id>  (4) 
2026-09-18-3war-s0-n100-r7-0004

>  <rmsd_to_ref>  (4) 
0.5918367346949656

>  <pose_kind>  (4) 
conformer

$$$$
3war.A
     RDKit          3D

 13 13  0  0  0  0  0  0  0  0999 V2000
    1.2388   19.0198   40.7501 N   0  0  0  0  0  0  0  0  0  0  0  0
    2.1037   18.7440   39.6638 C   0  0  0  0  0  0  0  0  0  0  0  0
    2.2762   19.7854   38.6814 C   0  0  0  0  0  0  0  0  0  0  0  0
    1.5973   20.9854   38.7955 C   0  0  0  0  0  0  0  0  0  0  0  0
    0.7863   21.2202   39.8841 C   0  0  0  0  0  0  0  0  0  0  0  0
    0.5962   20.2291   40.8207 C   0  0  0  0  0  0  0  0  0  0  0  0
    3.1150   19.5225   37.4396 C   0  0  0  0  0  0  0  0  0  0  0  0
    3.8511   18.4928   37.4173 O   0  0  0  0  0  0  0  0  0  0  0  0
    2.9872   20.3447   36.5582 O   0  0  0  0  0  0  0  0  0  0  0  0
    2.6214   17.7777   39.5732 H   0  0  0  0  0  0  0  0  0  0  0  0
    1.7053   21.7536   38.0156 H   0  0  0  0  0  0  0  0  0  0  0  0
    0.2924   22.1957   40.0045 H   0  0  0  0  0  0  0  0  0  0  0  0
   -0.0958   20.4140   41.6555 H   0  0  0  0  0  0  0  0  0  0  0  0
  1  2  1  0
  1  6  2  0
  2  3  2  0
  3  4  1  0
  3  7  1  0
  4  5  2  0
  5  6  1  0
  7  8  1  0
  7  9  2  0
  2 10  1  0
  4 11  1  0
  5 12  1  0
  6 13  1  0
M  CHG  1   8  -1
M  END
>  <mol_id>  (5) 
2026-09-18-3war-s0-n100-r7-0005

>  <rmsd_to_ref>  (5) 
0.63775510204476

>  <pose_kind>  (5) 
rigid

$$$$
3war.A
     RDKit          3D

 13 13  0  0  0  0  0  0  0  0999 V2000
    1.9269   18.9776   40.7792 N   0  0  0  0  0  0  0  0  0  0  0  0
    2.5215   18.5899   39.6144 C   0  0  0  0  0  0  0  0  0  0  0  0
    2.4900   19.3997   38.5039 C   0  0  0  0  0  0  0  0  0  0  0  0
    1.8459   20.6173   38.5812 C   0  0  0  0  0  0  0  0  0  0  0  0
    1.2425   20.9984   39.7817 C   0  0  0  0  0  0  0  0  0  0  0  0
    1.2905   20.1584   40.8887 C   0  0  0  0  0  0  0  0  0  0  0  0
    3.1253   18.9843   37.2611 C   0  0  0  0  0  0  0  0  0  0  0  0
    3.7716   17.7630   37.1830 O   0  0  0  0  0  0  0  0  0  0  0  0
    3.0858   19.7396   36.2550 O   0  0  0  0  0  0  0  0  0  0  0  0
    3.0237   17.6392   39.5562 H   0  0  0  0  0  0  0  0  0  0  0  0
    1.7885   21.2999   37.7356 H   0  0  0  0  0  0  0  0  0  0  0  0
    0.7246   21.9482   39.8872 H   0  0  0  0  0  0  0  0  0  0  0  0
    0.8163   20.4735   41.8088 H   0  0  0  0  0  0  0  0  0  0  0  0
  1  2  1  0
  1  6  2  0
  2  3  2  0
  3  4  1  0
  3  7  1  0
  4  5  2  0
  5  6  1  0
  7  8  1  0
  7  9  2  0
  2 10  1  0
  4 11  1  0
  5 12  1  0
  6 13  1  0
M  CHG  1   8  -1
M  END
>  <mol_id>  (6) 
2026-09-18-3war-s0-n100-r7-0006

>  <rmsd_to_ref>  (6) 
0.6836734693904897

>  <pose_kind>  (6) 
conformer

$$$$
3war.A
     RDKit          3D

 13 13  0  0  0  0  0  0  0  0999 V2000
    1.5657   19.0023   41.1616 N   0  0  0  0  0  0  0  0  0  0  0  0
    2.4363   18.8440   40.0566 C   0  0  0  0  0  0  0  0  0  0  0  0
    2.2618   19.7500   38.9484 C   0  0  0  0  0  0  0  0  0  0  0  0
    1.2644   20.7086   38.9683 C   0  0  0  0  0  0  0  0  0  0  0  0
    0.4573   20.8438   40.0766 C   0  0  0  0  0  0  0  0  0  0  0  0
    0.5987   19.9742   41.1347 C   0  0  0  0  0  0  0  0  0  0  0  0
    3.0985   19.5756   37.6897 C   0  0  0  0  0  0  0  0  0  0  0  0
    4.1036   18.8074   37.7367 O   0  0  0  0  0  0  0  0  0  0  0  0
    2.7050   20.2010   36.7288 O   0  0  0  0  0  0  0  0  0  0  0  0
    3.2118   18.0640   40.0439 H   0  0  0  0  0  0  0  0  0  0  0  0
    1.1154   21.3639   38.0975 H   0  0  0  0  0  0  0  0  0  0  0  0
   -0.2971   21.6433   40.1160 H   0  0  0  0  0  0  0  0  0  0  0  0
   -0.0885   20.0623   41.9890 H   0  0  0  0  0  0  0  0  0  0  0  0
  1  2  1  0
  1  6  2  0
  2  3  2  0
  3  4  1  0
  3  7  1  0
  4  5  2  0
  5  6  1  0
  7  8  1  0
  7  9  2  0
  2 10  1  0
  4 11  1  0
  5 12  1  0
  6 13  1  0
M  CHG  1   8  -1
M  END
>  <mol_id>  (7) 
2026-09-18-3war-s0-n100-r7-0007

>  <rmsd_to_ref>  (7) 
0.7295918367347335

>  <pose_kind>  (7) 
rigid

$$$$
3war.A
     RDKit          3D

 13 13  0  0  0  0  0  0  0  0999 V2000
    1.9124   18.9582   40.8989 N   0  0  0  0  0  0  0  0  0  0  0  0
    2.5368   18.5143   39.7973 C   0  0  0  0  0  0  0  0  0  0  0  0
    2.4846   19.2892   38.6549 C   0  0  0  0  0  0  0  0  0  0  0  0
    1.7981   20.5077   38.6441 C   0  0  0  0  0  0  0  0  0  0  0  0
    1.1655   20.9286   39.8084 C   0  0  0  0  0  0  0  0  0  0  0  0
    1.2390   20.1277   40.9310 C   0  0  0  0  0  0  0  0  0  0  0  0
    3.1614   18.8170   37.4461 C   0  0  0  0  0  0  0  0  0  0  0  0
    3.1082   19.6026   36.2892 O   0  0  0  0  0  0  0  0  0  0  0  0
    3.7823   17.7227   37.4428 O   0  0  0  0  0  0  0  0  0  0  0  0
    3.0629   17.5693   39.8241 H   0  0  0  0  0  0  0  0  0  0  0  0
    1.7773   21.0907   37.7301 H   0  0  0  0  0  0  0  0  0  0  0  0
    0.6394   21.8741   39.7804 H   0  0  0  0  0  0  0  0  0  0  0  0
    0.7310   20.4971   41.8135 H   0  0  0  0  0  0  0  0  0  0  0  0
  1  2  1  0
  1  6  2  0
  2  3  2  0
  3  4  1  0
  3  7  1  0
  4  5  2  0
  5  6  1  0
  7  8  1  0
  7  9  2  0
  2 10  1  0
  4 11  1  0
  5 12  1  0
  6 13  1  0
M  CHG  1   8  -1
M  END
>  <mol_id>  (8) 
2026-09-18-3war-s0-n100-r7-0008

>  <rmsd_to_ref>  (8) 
0.7755102040823647

>  <pose_kind>  (8) 
conformer

$$$$
3war.A
     RDKit          3D

 13 13  0  0  0  0  0  0  0  0999 V2000
    1.7818   18.0290   40.5859 N   0  0  0  0  0  0  0  0  0  0  0  0
    2.6700   18.3915   39.5449 C   0  0  0  0  0  0  0  0  0  0  0  0
    2.5733   19.7384   39.0389 C   0  0  0  0  0  0  0  0  0  0  0  0
    1.6297   20.6169   39.5408 C   0  0  0  0  0  0  0  0  0  0  0  0
    0.8035   20.2289   40.5727 C   0  0  0  0  0  0  0  0  0  0  0  0
    0.8705   18.9405   41.0538 C   0  0  0  0  0  0  0  0  0  0  0  0
    3.4306   20.1659   37.8570 C   0  0  0  0  0  0  0  0  0  0  0  0
    4.3907   19.4181   37.5081 O   0  0  0  0  0  0  0  0  0  0  0  0
    3.0963   21.2098   37.3395 O   0  0  0  0  0  0  0  0  0  0  0  0
    3.4018   17.6772   39.1397 H   0  0  0  0  0  0  0  0  0  0  0  0
    1.5388   21.6271   39.1150 H   0  0  0  0  0  0  0  0  0  0  0  0
    0.0932   20.9456   41.0107 H   0  0  0  0  0  0  0  0  0  0  0  0
    0.1677   18.6314   41.8416 H   0  0  0  0  0  0  0  0  0  0  0  0
  1  2  1  0
  1  6  2  0
  2  3  2  0
  3  4  1  0
  3  7  1  0
  4  5  2  0
  5  6  1  0
  7  8  1  0
  7  9  2  0
  2 10  1  0
  4 11  1  0
  5 12  1  0
  6 13  1  0
M  CHG  1   8  -1
M  END
>  <mol_id>  (9) 
2026-09-18-3war-s0-n100-r7-0009

>  <rmsd_to_ref>  (9) 
0.8214285714337954

>  <pose_kind>  (9) 
rigid

$$$$
3war.A
     RDKit          3D

 13 13  0  0  0  0  0  0  0  0999 V2000
    2.1098   19.9483   40.9378 N   0  0  0  0  0  0  0  0  0  0  0  0
    2.6388   19.5056   39.7636 C   0  0  0  0  0  0  0  0  0  0  0  0
    2.3212   20.1206   38.5694 C   0  0  0  0  0  0  0  0  0  0  0  0
    1.4617   21.1957   38.5414 C   0  0  0  0  0  0  0  0  0  0  0  0
    0.9231   21.6466   39.7363 C   0  0  0  0  0  0  0  0  0  0  0  0
    1.2719   20.9970   40.9077 C   0  0  0  0  0  0  0  0  0  0  0  0
    2.9024   19.6270   37.3179 C   0  0  0  0  0  0  0  0  0  0  0  0
    3.7631   18.5621   37.2820 O   0  0  0  0  0  0  0  0  0  0  0  0
    2.5626   20.2454   36.2553 O   0  0  0  0  0  0  0  0  0  0  0  0
    3.3257   18.6535   39.7467 H   0  0  0  0  0  0  0  0  0  0  0  0
    1.1963   21.6955   37.6202 H   0  0  0  0  0  0  0  0  0  0  0  0
    0.2405   22.4852   39.7971 H   0  0  0  0  0  0  0  0  0  0  0  0
    0.8700   21.3213   41.8649 H   0  0  0  0  0  0  0  0  0  0  0  0
  1  2  1  0
  1  6  2  0
  2  3  2  0
  3  4  1  0
  3  7  1  0
  4  5  2  0
  5  6  1  0
  7  8  1  0
  7  9  2  0
  2 10  1  0
  4 11  1  0
  5 12  1  0
  6 13  1  0
M  CHG  1   8  -1
M  END
>  <mol_id>  (10) 
2026-09-18-3war-s0-n100-r7-0010

>  <rmsd_to_ref>  (10) 
0.8673469387785622

>  <pose_kind>  (10) 
conformer

$$$$
3war.A
     RDKit          3D

 13 13  0  0  0  0  0  0  0  0999 V2000
    2.6417   17.9082   40.6043 N   0  0  0  0  0  0  0  0  0  0  0  0
    2.6777   18.0564   39.1969 C   0  0  0  0  0  0  0  0  0  0  0  0
    2.5692   19.3962   38.6749 C   0  0  0  0  0  0  0  0  0  0  0  0
    2.4095   20.4761   39.5249 C   0  0  0  0  0  0  0  0  0  0  0  0
    2.4069   20.2873   40.8895 C   0  0  0  0  0  0  0  0  0  0  0  0
    2.4903   19.0125   41.4030 C   0  0  0  0  0  0  0  0  0  0  0  0
    2.5043   19.6194   37.1713 C   0  0  0  0  0  0  0  0  0  0  0  0
    2.8048   18.6565   36.4064 O   0  0  0  0  0  0  0  0  0  0  0  0
    2.1507   20.7300   36.8385 O   0  0  0  0  0  0  0  0  0  0  0  0
    2.7838   17.1875   38.5307 H   0  0  0  0  0  0  0  0  0  0  0  0
    2.2844   21.4872   39.1103 H   0  0  0  0  0  0  0  0  0  0  0  0
    2.3383   21.1518   41.5663 H   0  0  0  0  0  0  0  0  0  0  0  0
    2.4335   18.8750   42.4929 H   0  0  0  0  0  0  0  0  0  0  0  0
  1  2  1  0
  1  6  2  0
  2  3  2  0
  3  4  1  0
  3  7  1  0
  4  5  2  0
  5  6  1  0
  7  8  1  0
  7  9  2  0
  2 10  1  0
  4 11  1  0
  5 12  1  0
  6 13  1  0
M  CHG  1   8  -1
M  END
>  <mol_id>  (11) 
2026-09-18-3war-s0-n100-r7-0011

>  <rmsd_to_ref>  (11) 
0.9132653061277703

>  <pose_kind>  (11) 
rigid

$$$$
3war.A
     RDKit          3D

 13 13  0  0  0  0  0  0  0  0999 V2000
    1.7552   19.6541   40.5151 N   0  0  0  0  0  0  0  0  0  0  0  0
    2.4701   19.1431   39.5023 C   0  0  0  0  0  0  0  0  0  0  0  0
    2.6825   19.8840   38.3450 C   0  0  0  0  0  0  0  0  0  0  0  0
    2.1331   21.1576   38.2783 C   0  0  0  0  0  0  0  0  0  0  0  0
    1.3982   21.6544   39.3469 C   0  0  0  0  0  0  0  0  0  0  0  0
    1.2116   20.8846   40.4776 C   0  0  0  0  0  0  0  0  0  0  0  0
    3.4632   19.3070   37.2574 C   0  0  0  0  0  0  0  0  0  0  0  0
    3.6445   20.0980   36.1173 O   0  0  0  0  0  0  0  0  0  0  0  0
    3.9626   18.1406   37.3266 O   0  0  0  0  0  0  0  0  0  0  0  0
    2.8847   18.1485   39.5846 H   0  0  0  0  0  0  0  0  0  0  0  0
    2.2930   21.7442   37.3794 H   0  0  0  0  0  0  0  0  0  0  0  0
    0.9653   22.6588   39.2934 H   0  0  0  0  0  0  0  0  0  0  0  0
    0.6364   21.2870   41.3011 H   0  0  0  0  0  0  0  0  0  0  0  0
  1  2  1  0
  1  6  2  0
  2  3  2  0
  3  4  1  0
  3  7  1  0
  4  5  2  0
  5  6  1  0
  7  8  1  0
  7  9  2  0
  2 10  1  0
  4 11  1  0
  5 12  1  0
  6 13  1  0
M  CHG  1   8  -1
M  END
>  <mol_id>  (12) 
2026-09-18-3war-s0-n100-r7-0012

>  <rmsd_to_ref>  (12) 
0.9591836734717694

>  <pose_kind>  (12) 
conformer

$$$$
3war.A
     RDKit          3D

 13 13  0  0  0  0  0  0  0  0999 V2000
    1.7123   19.1923   41.4378 N   0  0  0  0  0  0  0  0  0  0  0  0
    1.9237   18.6701   40.1390 C   0  0  0  0  0  0  0  0  0  0  0  0
    2.2424   19.6136   39.0961 C   0  0  0  0  0  0  0  0  0  0  0  0
    2.3075   20.9693   39.3639 C   0  0  0  0  0  0  0  0  0  0  0  0
    2.1209   21.4300   40.6488 C   0  0  0  0  0  0  0  0  0  0  0  0
    1.7971   20.5441   41.6518 C   0  0  0  0  0  0  0  0  0  0  0  0
    2.3876   19.1331   37.6598 C   0  0  0  0  0  0  0  0  0  0  0  0
    2.4813   17.8886   37.4480 O   0  0  0  0  0  0  0  0  0  0  0  0
    2.3900   20.0149   36.8281 O   0  0  0  0  0  0  0  0  0  0  0  0
    1.8482   17.5920   39.9344 H   0  0  0  0  0  0  0  0  0  0  0  0
    2.5088   21.6808   38.5495 H   0  0  0  0  0  0  0  0  0  0  0  0
    2.2301   22.5015   40.8725 H   0  0  0  0  0  0  0  0  0  0  0  0
    1.5994   20.9346   42.6610 H   0  0  0  0  0  0  0  0  0  0  0  0
  1  2  1  0
  1  6  2  0
  2  3  2  0
  3  4  1  0
  3  7  1  0
  4  5  2  0
  5  6  1  0
  7  8  1  0
  7  9  2  0
  2 10  1  0
  4 11  1  0
  5 12  1  0
  6 13  1  0
M  CHG  1   8  -1
M  END
>  <mol_id>  (13) 
2026-09-18-3war-s0-n100-r7-0013

>  <rmsd_to_ref>  (13) 
1.005102040819229

>  <pose_kind>  (13) 
rigid

$$$$
3war.A
     RDKit          3D

 13 13  0  0  0  0  0  0  0  0999 V2000
    1.6503   19.1682   40.5515 N   0  0  0  0  0  0  0  0  0  0  0  0
    2.4686   18.7022   39.5826 C   0  0  0  0  0  0  0  0  0  0  0  0
    2.9170   19.5411   38.5832 C   0  0  0  0  0  0  0  0  0  0  0  0
    2.5566   20.8857   38.5222 C   0  0  0  0  0  0  0  0  0  0  0  0
    1.7205   21.3327   39.5244 C   0  0  0  0  0  0  0  0  0  0  0  0
    1.2827   20.4794   40.5148 C   0  0  0  0  0  0  0  0  0  0  0  0
    3.8028   19.0055   37.5480 C   0  0  0  0  0  0  0  0  0  0  0  0
    4.2796   19.7994   36.5273 O   0  0  0  0  0  0  0  0  0  0  0  0
    4.1702   17.7895   37.5441 O   0  0  0  0  0  0  0  0  0  0  0  0
    2.7626   17.6653   39.6069 H   0  0  0  0  0  0  0  0  0  0  0  0
    2.8898   21.5486   37.7626 H   0  0  0  0  0  0  0  0  0  0  0  0
    1.3942   22.3482   39.5555 H   0  0  0  0  0  0  0  0  0  0  0  0
    0.6225   20.8693   41.2903 H   0  0  0  0  0  0  0  0  0  0  0  0
  1  2  1  0
  1  6  2  0
  2  3  2  0
  3  4  1  0
  3  7  1  0
  4  5  2  0
  5  6  1  0
  7  8  1  0
  7  9  2  0
  2 10  1  0
  4 11  1  0
  5 12  1  0
  6 13  1  0
M  CHG  1   8  -1
M  END
>  <mol_id>  (14) 
2026-09-18-3war-s0-n100-r7-0014

>  <rmsd_to_ref>  (14) 
1.0510204081649062

>  <pose_kind>  (14) 
conformer

$$$$
3war.A
     RDKit          3D

 13 13  0  0  0  0  0  0  0  0999 V2000
    0.7249   18.0652   39.5465 N   0  0  0  0  0  0  0  0  0  0  0  0
    1.5802   18.4490   38.4858 C   0  0  0  0  0  0  0  0  0  0  0  0
    1.9831   19.8327   38.4353 C   0  0  0  0  0  0  0  0  0  0  0  0
    1.5226   20.7385   39.3741 C   0  0  0  0  0  0  0  0  0  0  0  0
    0.7128   20.3145   40.4049 C   0  0  0  0  0  0  0  0  0  0  0  0
    0.3040   19.0008   40.4563 C   0  0  0  0  0  0  0  0  0  0  0  0
    2.8227   20.3341   37.2698 C   0  0  0  0  0  0  0  0  0  0  0  0
    3.3651   19.4811   36.5077 O   0  0  0  0  0  0  0  0  0  0  0  0
    2.8866   21.5407   37.1732 O   0  0  0  0  0  0  0  0  0  0  0  0
    1.9225   17.7236   37.7330 H   0  0  0  0  0  0  0  0  0  0  0  0
    1.8036   21.7993   39.2975 H   0  0  0  0  0  0  0  0  0  0  0  0
    0.3942   21.0228   41.1839 H   0  0  0  0  0  0  0  0  0  0  0  0
   -0.3850   18.6907   41.2557 H   0  0  0  0  0  0  0  0  0  0  0  0
  1  2  1  0
  1  6  2  0
  2  3  2  0
  3  4  1  0
  3  7  1  0
  4  5  2  0
  5  6  1  0
  7  8  1  0
  7  9  2  0
  2 10  1  0
  4 11  1  0
  5 12  1  0
  6 13  1  0
M  CHG  1   8  -1
M  END
>  <mol_id>  (15) 
2026-09-18-3war-s0-n100-r7-0015

>  <rmsd_to_ref>  (15) 
1.0969387755133568

>  <pose_kind>  (15) 
rigid

$$$$
3war.A
     RDKit          3D

 13 13  0  0  0  0  0  0  0  0999 V2000
    2.6113   17.8171   40.4049 N   0  0  0  0  0  0  0  0  0  0  0  0
    2.8050   18.3723   39.1778 C   0  0  0  0  0  0  0  0  0  0  0  0
    2.6455   19.7375   39.0239 C   0  0  0  0  0  0  0  0  0  0  0  0
    2.2949   20.5114   40.1080 C   0  0  0  0  0  0  0  0  0  0  0  0
    2.1099   19.8991   41.3318 C   0  0  0  0  0  0  0  0  0  0  0  0
    2.2684   18.5284   41.4942 C   0  0  0  0  0  0  0  0  0  0  0  0
    2.8505   20.3374   37.7177 C   0  0  0  0  0  0  0  0  0  0  0  0
    2.6881   21.7196   37.5659 O   0  0  0  0  0  0  0  0  0  0  0  0
    3.1751   19.6130   36.7191 O   0  0  0  0  0  0  0  0  0  0  0  0
    3.0805   17.7753   38.3190 H   0  0  0  0  0  0  0  0  0  0  0  0
    2.1665   21.5835   40.0011 H   0  0  0  0  0  0  0  0  0  0  0  0
    1.8338   20.5339   42.1694 H   0  0  0  0  0  0  0  0  0  0  0  0
    2.1221   18.0531   42.4560 H   0  0  0  0  0  0  0  0  0  0  0  0
  1  2  1  0
  1  6  2  0
  2  3  2  0
  3  4  1  0
  3  7  1  0
  4  5  2  0
  5  6  1  0
  7  8  1  0
  7  9  2  0
  2 10  1  0
  4 11  1  0
  5 12  1  0
  6 13  1  0
M  CHG  1   8  -1
M  END
>  <mol_id>  (16) 
2026-09-18-3war-s0-n100-r7-0016

>  <rmsd_to_ref>  (16) 
1.1428571428571468

>  <pose_kind>  (16) 
conformer

$$$$
3war.A
     RDKit          3D

 13 13  0  0  0  0  0  0  0  0999 V2000
    2.0011   18.4505   40.2656 N   0  0  0  0  0  0  0  0  0  0  0  0
    2.0174   18.1795   38.8762 C   0  0  0  0  0  0  0  0  0  0  0  0
    2.4839   19.2318   38.0077 C   0  0  0  0  0  0  0  0  0  0  0  0
    2.8689   20.4565   38.5233 C   0  0  0  0  0  0  0  0  0  0  0  0
    2.8619   20.6665   39.8849 C   0  0  0  0  0  0  0  0  0  0  0  0
    2.4013   19.6786   40.7260 C   0  0  0  0  0  0  0  0  0  0  0  0
    2.4378   19.0434   36.4986 C   0  0  0  0  0  0  0  0  0  0  0  0
    2.2356   17.8796   36.0432 O   0  0  0  0  0  0  0  0  0  0  0  0
    2.5944   20.0591   35.8560 O   0  0  0  0  0  0  0  0  0  0  0  0
    1.6887   17.2087   38.4767 H   0  0  0  0  0  0  0  0  0  0  0  0
    3.1811   21.2642   37.8449 H   0  0  0  0  0  0  0  0  0  0  0  0
    3.2229   21.6198   40.2984 H   0  0  0  0  0  0  0  0  0  0  0  0
    2.3526   19.8817   41.8060 H   0  0  0  0  0  0  0  0  0  0  0  0
  1  2  1  0
  1  6  2  0
  2  3  2  0
  3  4  1  0
  3  7  1  0
  4  5  2  0
  5  6  1  0
  7  8  1  0
  7  9  2  0
  2 10  1  0
  4 11  1  0
  5 12  1  0
  6 13  1  0
M  CHG  1   8  -1
M  END
>  <mol_id>  (17) 
2026-09-18-3war-s0-n100-r7-0017

>  <rmsd_to_ref>  (17) 
1.1887755102078608

>  <pose_kind>  (17) 
rigid

$$$$
3war.A
     RDKit          3D

 13 13  0  0  0  0  0  0  0  0999 V2000
    2.1179   18.9386   41.0893 N   0  0  0  0  0  0  0  0  0  0  0  0
    2.5776   18.8979   39.8253 C   0  0  0  0  0  0  0  0  0  0  0  0
    1.7388   19.2154   38.7667 C   0  0  0  0  0  0  0  0  0  0  0  0
    0.4267   19.5754   39.0005 C   0  0  0  0  0  0  0  0  0  0  0  0
   -0.0439   19.6155   40.3153 C   0  0  0  0  0  0  0  0  0  0  0  0
    0.8428   19.2863   41.3455 C   0  0  0  0  0  0  0  0  0  0  0  0
    2.2168   19.1777   37.3880 C   0  0  0  0  0  0  0  0  0  0  0  0
    3.5009   18.8335   37.0467 O   0  0  0  0  0  0  0  0  0  0  0  0
    1.3665   19.4868   36.4915 O   0  0  0  0  0  0  0  0  0  0  0  0
    3.6120   18.6175   39.5933 H   0  0  0  0  0  0  0  0  0  0  0  0
   -0.2518   19.8272   38.2126 H   0  0  0  0  0  0  0  0  0  0  0  0
   -1.0530   19.8883   40.5510 H   0  0  0  0  0  0  0  0  0  0  0  0
    0.4406   19.3286   42.3580 H   0  0  0  0  0  0  0  0  0  0  0  0
  1  2  1  0
  1  6  2  0
  2  3  2  0
  3  4  1  0
  3  7  1  0
  4  5  2  0
  5  6  1  0
  7  8  1  0
  7  9  2  0
  2 10  1  0
  4 11  1  0
  5 12  1  0
  6 13  1  0
M  CHG  1   8  -1
M  END
>  <mol_id>  (18) 
2026-09-18-3war-s0-n100-r7-0018

>  <rmsd_to_ref>  (18) 
1.2346938775546281

>  <pose_kind>  (18) 
conformer

$$$$
3war.A
     RDKit          3D

 13 13  0  0  0  0  0  0  0  0999 V2000
    1.6543   18.2378   39.0423 N   0  0  0  0  0  0  0  0  0  0  0  0
    2.5606   18.7305   38.0727 C   0  0  0  0  0  0  0  0  0  0  0  0
    2.9205   20.1242   38.1590 C   0  0  0  0  0  0  0  0  0  0  0  0
    2.3736   20.9372   39.1358 C   0  0  0  0  0  0  0  0  0  0  0  0
    1.5160   20.4083   40.0752 C   0  0  0  0  0  0  0  0  0  0  0  0
    1.1477   19.0840   39.9950 C   0  0  0  0  0  0  0  0  0  0  0  0
    3.8138   20.7422   37.0937 C   0  0  0  0  0  0  0  0  0  0  0  0
    4.4297   19.9696   36.3023 O   0  0  0  0  0  0  0  0  0  0  0  0
    3.8442   21.9540   37.0981 O   0  0  0  0  0  0  0  0  0  0  0  0
    2.9722   18.0788   37.2880 H   0  0  0  0  0  0  0  0  0  0  0  0
    2.6241   22.0080   39.1623 H   0  0  0  0  0  0  0  0  0  0  0  0
    1.1269   21.0414   40.8862 H   0  0  0  0  0  0  0  0  0  0  0  0
    0.4211   18.6907   40.7212 H   0  0  0  0  0  0  0  0  0  0  0  0
  1  2  1  0
  1  6  2  0
  2  3  2  0
  3  4  1  0
  3  7  1  0
  4  5  2  0
  5  6  1  0
  7  8  1  0
  7  9  2  0
  2 10  1  0
  4 11  1  0
  5 12  1  0
  6 13  1  0
M  CHG  1   8  -1
M  END
>  <mol_id>  (19) 
2026-09-18-3war-s0-n100-r7-0019

>  <rmsd_to_ref>  (19) 
1.280612244898551

>  <pose_kind>  (19) 
rigid

$$$$
3war.A
     RDKit          3D

 13 13  0  0  0  0  0  0  0  0999 V2000
    1.5750   18.8164   41.3181 N   0  0  0  0  0  0  0  0  0  0  0  0
    1.8300   18.3520   40.0784 C   0  0  0  0  0  0  0  0  0  0  0  0
    2.5615   19.1307   39.1794 C   0  0  0  0  0  0  0  0  0  0  0  0
    3.0032   20.3650   39.5984 C   0  0  0  0  0  0  0  0  0  0  0  0
    2.7442   20.8467   40.8704 C   0  0  0  0  0  0  0  0  0  0  0  0
    2.0146   20.0303   41.7168 C   0  0  0  0  0  0  0  0  0  0  0  0
    2.8551   18.6596   37.8319 C   0  0  0  0  0  0  0  0  0  0  0  0
    2.4046   17.4132   37.4202 O   0  0  0  0  0  0  0  0  0  0  0  0
    3.5204   19.4318   37.0948 O   0  0  0  0  0  0  0  0  0  0  0  0
    1.4799   17.3783   39.7521 H   0  0  0  0  0  0  0  0  0  0  0  0
    3.5719   20.9799   38.9115 H   0  0  0  0  0  0  0  0  0  0  0  0
    3.1084   21.8259   41.1673 H   0  0  0  0  0  0  0  0  0  0  0  0
    1.7967   20.3812   42.7184 H   0  0  0  0  0  0  0  0  0  0  0  0
  1  2  1  0
  1  6  2  0
  2  3  2  0
  3  4  1  0
  3  7  1  0
  4  5  2  0
  5  6  1  0
  7  8  1  0
  7  9  2  0
  2 10  1  0
  4 11  1  0
  5 12  1  0
  6 13  1  0
M  CHG  1   8  -1
M  END
>  <mol_id>  (20) 
2026-09-18-3war-s0-n100-r7-0020

>  <rmsd_to_ref>  (20) 
1.3265306122482974

>  <pose_kind>  (20) 
conformer

$$$$
3war.A
     RDKit          3D

 13 13  0  0  0  0  0  0  0  0999 V2000
    1.1353   17.9740   39.9776 N   0  0  0  0  0  0  0  0  0  0  0  0
    1.4452   17.9163   38.5976 C   0  0  0  0  0  0  0  0  0  0  0  0
    2.3950   18.8792   38.0973 C   0  0  0  0  0  0  0  0  0  0  0  0
    2.9489   19.8289   38.9371 C   0  0  0  0  0  0  0  0  0  0  0  0
    2.6383   19.8305   40.2793 C   0  0  0  0  0  0  0  0  0  0  0  0
    1.7188   18.9300   40.7687 C   0  0  0  0  0  0  0  0  0  0  0  0
    2.7017   18.9361   36.6082 C   0  0  0  0  0  0  0  0  0  0  0  0
    2.3174   17.9765   35.8774 O   0  0  0  0  0  0  0  0  0  0  0  0
    3.2949   19.9307   36.2505 O   0  0  0  0  0  0  0  0  0  0  0  0
    0.9819   17.1697   37.9358 H   0  0  0  0  0  0  0  0  0  0  0  0
    3.6387   20.5842   38.5324 H   0  0  0  0  0  0  0  0  0  0  0  0
    3.1229   20.5484   40.9573 H   0  0  0  0  0  0  0  0  0  0  0  0
    1.4425   18.9793   41.8323 H   0  0  0  0  0  0  0  0  0  0  0  0
  1  2  1  0
  1  6  2  0
  2  3  2  0
  3  4  1  0
  3  7  1  0
  4  5  2  0
  5  6  1  0
  7  8  1  0
  7  9  2  0
  2 10  1  0
  4 11  1  0
  5 12  1  0
  6 13  1  0
M  CHG  1   8  -1
M  END
>  <mol_id>  (21) 
2026-09-18-3war-s0-n100-r7-0021

>  <rmsd_to_ref>  (21) 
1.3724489795951458

>  <pose_kind>  (21) 
rigid

$$$$
3war.A
     RDKit          3D

 13 13  0  0  0  0  0  0  0  0999 V2000
    2.5799   19.3722   41.3331 N   0  0  0  0  0  0  0  0  0  0  0  0
    2.6770   18.5852   40.2454 C   0  0  0  0  0  0  0  0  0  0  0  0
    2.7200   19.2051   39.0133 C   0  0  0  0  0  0  0  0  0  0  0  0
    2.6684   20.5758   38.8535 C   0  0  0  0  0  0  0  0  0  0  0  0
    2.5678   21.3557   40.0069 C   0  0  0  0  0  0  0  0  0  0  0  0
    2.5256   20.7186   41.2390 C   0  0  0  0  0  0  0  0  0  0  0  0
    2.8260   18.3764   37.8038 C   0  0  0  0  0  0  0  0  0  0  0  0
    2.8823   16.9913   37.8924 O   0  0  0  0  0  0  0  0  0  0  0  0
    2.8651   18.9542   36.6743 O   0  0  0  0  0  0  0  0  0  0  0  0
    2.7231   17.5147   40.2694 H   0  0  0  0  0  0  0  0  0  0  0  0
    2.6995   21.0845   37.9163 H   0  0  0  0  0  0  0  0  0  0  0  0
    2.5251   22.4274   39.9239 H   0  0  0  0  0  0  0  0  0  0  0  0
    2.4472   21.3407   42.1262 H   0  0  0  0  0  0  0  0  0  0  0  0
  1  2  1  0
  1  6  2  0
  2  3  2  0
  3  4  1  0
  3  7  1  0
  4  5  2  0
  5  6  1  0
  7  8  1  0
  7  9  2  0
  2 10  1  0
  4 11  1  0
  5 12  1  0
  6 13  1  0
M  CHG  1   8  -1
M  END
>  <mol_id>  (22) 
2026-09-18-3war-s0-n100-r7-0022

>  <rmsd_to_ref>  (22) 
1.4183673469396976

>  <pose_kind>  (22) 
conformer

$$$$
3war.A
     RDKit          3D

 13 13  0  0  0  0  0  0  0  0999 V2000
    2.4000   18.2097   40.1181 N   0  0  0  0  0  0  0  0  0  0  0  0
    3.5327   18.6866   39.4154 C   0  0  0  0  0  0  0  0  0  0  0  0
    3.3501   19.8570   38.5931 C   0  0  0  0  0  0  0  0  0  0  0  0
    2.1093   20.4592   38.4846 C   0  0  0  0  0  0  0  0  0  0  0  0
    1.0408   19.9764   39.2080 C   0  0  0  0  0  0  0  0  0  0  0  0
    1.1942   18.8485   39.9827 C   0  0  0  0  0  0  0  0  0  0  0  0
    4.4996   20.3666   37.7365 C   0  0  0  0  0  0  0  0  0  0  0  0
    5.6610   19.9130   37.9560 O   0  0  0  0  0  0  0  0  0  0  0  0
    4.1825   21.1767   36.8924 O   0  0  0  0  0  0  0  0  0  0  0  0
    4.5092   18.1863   39.4933 H   0  0  0  0  0  0  0  0  0  0  0  0
    1.9756   21.3252   37.8196 H   0  0  0  0  0  0  0  0  0  0  0  0
    0.0690   20.4900   39.1668 H   0  0  0  0  0  0  0  0  0  0  0  0
    0.3182   18.4455   40.5120 H   0  0  0  0  0  0  0  0  0  0  0  0
  1  2  1  0
  1  6  2  0
  2  3  2  0
  3  4  1  0
  3  7  1  0
  4  5  2  0
  5  6  1  0
  7  8  1  0
  7  9  2  0
  2 10  1  0
  4 11  1  0
  5 12  1  0
  6 13  1  0
M  CHG  1   8  -1
M  END
>  <mol_id>  (23) 
2026-09-18-3war-s0-n100-r7-0023

>  <rmsd_to_ref>  (23) 
1.4642857142887549

>  <pose_kind>  (23) 
rigid

$$$$
3war.A
     RDKit          3D

 13 13  0  0  0  0  0  0  0  0999 V2000
    1.2872   18.4815   39.7609 N   0  0  0  0  0  0  0  0  0  0  0  0
    2.3187   18.9026   39.0056 C   0  0  0  0  0  0  0  0  0  0  0  0
    2.0402   19.7895   37.9857 C   0  0  0  0  0  0  0  0  0  0  0  0
    0.7688   20.2544   37.7133 C   0  0  0  0  0  0  0  0  0  0  0  0
   -0.2728   19.7930   38.5202 C   0  0  0  0  0  0  0  0  0  0  0  0
    0.0222   18.9015   39.5418 C   0  0  0  0  0  0  0  0  0  0  0  0
    3.1428   20.2703   37.1408 C   0  0  0  0  0  0  0  0  0  0  0  0
    4.4463   19.8430   37.3598 O   0  0  0  0  0  0  0  0  0  0  0  0
    2.8784   21.0860   36.2048 O   0  0  0  0  0  0  0  0  0  0  0  0
    3.3375   18.5983   39.1404 H   0  0  0  0  0  0  0  0  0  0  0  0
    0.5213   20.9391   36.9335 H   0  0  0  0  0  0  0  0  0  0  0  0
   -1.2776   20.1321   38.3395 H   0  0  0  0  0  0  0  0  0  0  0  0
   -0.8001   18.5526   40.1601 H   0  0  0  0  0  0  0  0  0  0  0  0
  1  2  1  0
  1  6  2  0
  2  3  2  0
  3  4  1  0
  3  7  1  0
  4  5  2  0
  5  6  1  0
  7  8  1  0
  7  9  2  0
  2 10  1  0
  4 11  1  0
  5 12  1  0
  6 13  1  0
M  CHG  1   8  -1
M  END
>  <mol_id>  (24) 
2026-09-18-3war-s0-n100-r7-0024

>  <rmsd_to_ref>  (24) 
1.5102040816370401

>  <pose_kind>  (24) 
conformer

$$$$
3war.A
     RDKit          3D

 13 13  0  0  0  0  0  0  0  0999 V2000
    1.3253   19.7021   40.6377 N   0  0  0  0  0  0  0  0  0  0  0  0
    2.5296   19.9156   39.9248 C   0  0  0  0  0  0  0  0  0  0  0  0
    2.4533   20.7274   38.7354 C   0  0  0  0  0  0  0  0  0  0  0  0
    1.2433   21.2446   38.3080 C   0  0  0  0  0  0  0  0  0  0  0  0
    0.1009   21.0333   39.0484 C   0  0  0  0  0  0  0  0  0  0  0  0
    0.1537   20.2447   40.1759 C   0  0  0  0  0  0  0  0  0  0  0  0
    3.6893   20.9183   37.8691 C   0  0  0  0  0  0  0  0  0  0  0  0
    4.8136   20.5783   38.3413 O   0  0  0  0  0  0  0  0  0  0  0  0
    3.4719   21.3834   36.7711 O   0  0  0  0  0  0  0  0  0  0  0  0
    3.4818   19.4812   40.2632 H   0  0  0  0  0  0  0  0  0  0  0  0
    1.1934   21.8256   37.3753 H   0  0  0  0  0  0  0  0  0  0  0  0
   -0.8498   21.4928   38.7401 H   0  0  0  0  0  0  0  0  0  0  0  0
   -0.7773   20.0426   40.7258 H   0  0  0  0  0  0  0  0  0  0  0  0
  1  2  1  0
  1  6  2  0
  2  3  2  0
  3  4  1  0
  3  7  1  0
  4  5  2  0
  5  6  1  0
  7  8  1  0
  7  9  2  0
  2 10  1  0
  4 11  1  0
  5 12  1  0
  6 13  1  0
M  CHG  1   8  -1
M  END
>  <mol_id>  (25) 
2026-09-18-3war-s0-n100-r7-0025

>  <rmsd_to_ref>  (25) 
1.5561224489820118

>  <pose_kind>  (25) 
rigid

$$$$
3war.A
     RDKit          3D

 13 13  0  0  0  0  0  0  0  0999 V2000
    0.7081   19.1936   39.6426 N   0  0  0  0  0  0  0  0  0  0  0  0
    1.8632   18.8156   39.0533 C   0  0  0  0  0  0  0  0  0  0  0  0
    2.4116   19.5403   38.0131 C   0  0  0  0  0  0  0  0  0  0  0  0
    1.7343   20.6602   37.6033 C   0  0  0  0  0  0  0  0  0  0  0  0
    0.5509   21.0560   38.1999 C   0  0  0  0  0  0  0  0  0  0  0  0
    0.0455   20.2954   39.2364 C   0  0  0  0  0  0  0  0  0  0  0  0
    3.6666   19.1240   37.3776 C   0  0  0  0  0  0  0  0  0  0  0  0
    4.2959   17.9777   37.8473 O   0  0  0  0  0  0  0  0  0  0  0  0
    4.1042   19.8281   36.4417 O   0  0  0  0  0  0  0  0  0  0  0  0
    2.3693   17.9120   39.4158 H   0  0  0  0  0  0  0  0  0  0  0  0
    2.1412   21.2475   36.7899 H   0  0  0  0  0  0  0  0  0  0  0  0
    0.0023   21.9483   37.8803 H   0  0  0  0  0  0  0  0  0  0  0  0
   -0.8750   20.5378   39.7556 H   0  0  0  0  0  0  0  0  0  0  0  0
  1  2  1  0
  1  6  2  0
  2  3  2  0
  3  4  1  0
  3  7  1  0
  4  5  2  0
  5  6  1  0
  7  8  1  0
  7  9  2  0
  2 10  1  0
  4 11  1  0
  5 12  1  0
  6 13  1  0
M  CHG  1   8  -1
M  END
>  <mol_id>  (26) 
2026-09-18-3war-s0-n100-r7-0026

>  <rmsd_to_ref>  (26) 
1.6020408163269406

>  <pose_kind>  (26) 
conformer

$$$$
3war.A
     RDKit          3D

 13 13  0  0  0  0  0  0  0  0999 V2000
    2.7132   19.4025   41.4395 N   0  0  0  0  0  0  0  0  0  0  0  0
    2.2406   18.8689   40.2164 C   0  0  0  0  0  0  0  0  0  0  0  0
    1.8020   19.8098   39.2156 C   0  0  0  0  0  0  0  0  0  0  0  0
    1.8226   21.1703   39.4660 C   0  0  0  0  0  0  0  0  0  0  0  0
    2.3161   21.6460   40.6611 C   0  0  0  0  0  0  0  0  0  0  0  0
    2.7208   20.7599   41.6341 C   0  0  0  0  0  0  0  0  0  0  0  0
    1.1935   19.3036   37.9162 C   0  0  0  0  0  0  0  0  0  0  0  0
    1.3199   18.0769   37.6302 O   0  0  0  0  0  0  0  0  0  0  0  0
    0.6193   20.1477   37.2627 O   0  0  0  0  0  0  0  0  0  0  0  0
    2.2094   17.7840   40.0373 H   0  0  0  0  0  0  0  0  0  0  0  0
    1.4443   21.8736   38.7095 H   0  0  0  0  0  0  0  0  0  0  0  0
    2.3865   22.7295   40.8373 H   0  0  0  0  0  0  0  0  0  0  0  0
    3.0624   21.1549   42.6022 H   0  0  0  0  0  0  0  0  0  0  0  0
  1  2  1  0
  1  6  2  0
  2  3  2  0
  3  4  1  0
  3  7  1  0
  4  5  2  0
  5  6  1  0
  7  8  1  0
  7  9  2  0
  2 10  1  0
  4 11  1  0
  5 12  1  0
  6 13  1  0
M  CHG  1   8  -1
M  END
>  <mol_id>  (27) 
2026-09-18-3war-s0-n100-r7-0027

>  <rmsd_to_ref>  (27) 
1.6479591836742589

>  <pose_kind>  (27) 
rigid

$$$$
3war.A
     RDKit          3D

 13 13  0  0  0  0  0  0  0  0999 V2000
    0.9751   20.4901   40.8250 N   0  0  0  0  0  0  0  0  0  0  0  0
    1.4541   19.5314   39.9781 C   0  0  0  0  0  0  0  0  0  0  0  0
    1.7560   19.8501   38.6508 C   0  0  0  0  0  0  0  0  0  0  0  0
    1.5690   21.1459   38.1888 C   0  0  0  0  0  0  0  0  0  0  0  0
    1.0842   22.0677   39.0879 C   0  0  0  0  0  0  0  0  0  0  0  0
    0.7854   21.7565   40.3980 C   0  0  0  0  0  0  0  0  0  0  0  0
    2.2633   18.7831   37.7985 C   0  0  0  0  0  0  0  0  0  0  0  0
    2.5619   19.1027   36.4818 O   0  0  0  0  0  0  0  0  0  0  0  0
    2.4440   17.6057   38.1802 O   0  0  0  0  0  0  0  0  0  0  0  0
    1.5883   18.5388   40.3633 H   0  0  0  0  0  0  0  0  0  0  0  0
    1.8012   21.3959   37.1640 H   0  0  0  0  0  0  0  0  0  0  0  0
    0.9423   23.0844   38.7087 H   0  0  0  0  0  0  0  0  0  0  0  0
    0.4057   22.5134   41.0720 H   0  0  0  0  0  0  0  0  0  0  0  0
  1  2  1  0
  1  6  2  0
  2  3  2  0
  3  4  1  0
  3  7  1  0
  4  5  2  0
  5  6  1  0
  7  8  1  0
  7  9  2  0
  2 10  1  0
  4 11  1  0
  5 12  1  0
  6 13  1  0
M  CHG  1   8  -1
M  END
>  <mol_id>  (28) 
2026-09-18-3war-s0-n100-r7-0028

>  <rmsd_to_ref>  (28) 
1.6938775510213406

>  <pose_kind>  (28) 
conformer

$$$$
3war.A
     RDKit          3D

 13 13  0  0  0  0  0  0  0  0999 V2000
    1.0125   18.0588   39.2136 N   0  0  0  0  0  0  0  0  0  0  0  0
    2.2454   18.5631   38.7343 C   0  0  0  0  0  0  0  0  0  0  0  0
    2.2035   19.7912   37.9798 C   0  0  0  0  0  0  0  0  0  0  0  0
    0.9996   20.4219   37.7207 C   0  0  0  0  0  0  0  0  0  0  0  0
   -0.1732   19.9091   38.2301 C   0  0  0  0  0  0  0  0  0  0  0  0
   -0.1522   18.7273   38.9362 C   0  0  0  0  0  0  0  0  0  0  0  0
    3.4777   20.3385   37.3539 C   0  0  0  0  0  0  0  0  0  0  0  0
    4.5864   19.8497   37.7206 O   0  0  0  0  0  0  0  0  0  0  0  0
    3.3038   21.2112   36.5309 O   0  0  0  0  0  0  0  0  0  0  0  0
    3.1938   18.0410   38.9290 H   0  0  0  0  0  0  0  0  0  0  0  0
    0.9789   21.3345   37.1069 H   0  0  0  0  0  0  0  0  0  0  0  0
   -1.1228   20.4418   38.0732 H   0  0  0  0  0  0  0  0  0  0  0  0
   -1.1038   18.3041   39.2904 H   0  0  0  0  0  0  0  0  0  0  0  0
  1  2  1  0
  1  6  2  0
  2  3  2  0
  3  4  1  0
  3  7  1  0
  4  5  2  0
  5  6  1  0
  7  8  1  0
  7  9  2  0
  2 10  1  0
  4 11  1  0
  5 12  1  0
  6 13  1  0
M  CHG  1   8  -1
M  END
>  <mol_id>  (29) 
2026-09-18-3war-s0-n100-r7-0029

>  <rmsd_to_ref>  (29) 
1.7397959183722953

>  <pose_kind>  (29) 
rigid

$$$$
3war.A
     RDKit          3D

 13 13  0  0  0  0  0  0  0  0999 V2000
    1.8930   17.1612   38.5136 N   0  0  0  0  0  0  0  0  0  0  0  0
    2.6365   18.0548   37.8531 C   0  0  0  0  0  0  0  0  0  0  0  0
    2.4410   19.4025   38.0941 C   0  0  0  0  0  0  0  0  0  0  0  0
    1.4861   19.8320   39.0095 C   0  0  0  0  0  0  0  0  0  0  0  0
    0.7283   18.8893   39.6814 C   0  0  0  0  0  0  0  0  0  0  0  0
    0.9597   17.5372   39.4064 C   0  0  0  0  0  0  0  0  0  0  0  0
    3.2791   20.3343   37.3464 C   0  0  0  0  0  0  0  0  0  0  0  0
    3.0831   21.7075   37.5890 O   0  0  0  0  0  0  0  0  0  0  0  0
    4.1486   19.9679   36.5140 O   0  0  0  0  0  0  0  0  0  0  0  0
    3.3738   17.6990   37.1453 H   0  0  0  0  0  0  0  0  0  0  0  0
    1.3406   20.8715   39.1905 H   0  0  0  0  0  0  0  0  0  0  0  0
   -0.0208   19.2053   40.3986 H   0  0  0  0  0  0  0  0  0  0  0  0
    0.3723   16.7642   39.9253 H   0  0  0  0  0  0  0  0  0  0  0  0
  1  2  1  0
  1  6  2  0
  2  3  2  0
  3  4  1  0
  3  7  1  0
  4  5  2  0
  5  6  1  0
  7  8  1  0
  7  9  2  0
  2 10  1  0
  4 11  1  0
  5 12  1  0
  6 13  1  0
M  CHG  1   8  -1
M  END
>  <mol_id>  (30) 
2026-09-18-3war-s0-n100-r7-0030

>  <rmsd_to_ref>  (30) 
1.7857142857191233

>  <pose_kind>  (30) 
conformer

$$$$
3war.A
     RDKit          3D

 13 13  0  0  0  0  0  0  0  0999 V2000
    1.2358   18.7007   39.4022 N   0  0  0  0  0  0  0  0  0  0  0  0
    2.3202   19.3701   38.7856 C   0  0  0  0  0  0  0  0  0  0  0  0
    2.6083   20.7086   39.2383 C   0  0  0  0  0  0  0  0  0  0  0  0
    1.8319   21.3082   40.2139 C   0  0  0  0  0  0  0  0  0  0  0  0
    0.8027   20.6088   40.8052 C   0  0  0  0  0  0  0  0  0  0  0  0
    0.5030   19.3371   40.3709 C   0  0  0  0  0  0  0  0  0  0  0  0
    3.6975   21.5207   38.5536 C   0  0  0  0  0  0  0  0  0  0  0  0
    4.4984   20.9206   37.7784 O   0  0  0  0  0  0  0  0  0  0  0  0
    3.6885   22.7040   38.8164 O   0  0  0  0  0  0  0  0  0  0  0  0
    2.9168   18.8902   37.9958 H   0  0  0  0  0  0  0  0  0  0  0  0
    2.0367   22.3452   40.5180 H   0  0  0  0  0  0  0  0  0  0  0  0
    0.2227   21.0646   41.6212 H   0  0  0  0  0  0  0  0  0  0  0  0
   -0.3550   18.8128   40.8169 H   0  0  0  0  0  0  0  0  0  0  0  0
  1  2  1  0
  1  6  2  0
  2  3  2  0
  3  4  1  0
  3  7  1  0
  4  5  2  0
  5  6  1  0
  7  8  1  0
  7  9  2  0
  2 10  1  0
  4 11  1  0
  5 12  1  0
  6 13  1  0
M  CHG  1   8  -1
M  END
>  <mol_id>  (31) 
2026-09-18-3war-s0-n100-r7-0031

>  <rmsd_to_ref>  (31) 
1.8316326530632239

>  <pose_kind>  (31) 
rigid

$$$$
3war.A
     RDKit          3D

 13 13  0  0  0  0  0  0  0  0999 V2000
    1.2953   20.5307   39.6831 N   0  0  0  0  0  0  0  0  0  0  0  0
    2.1114   20.0543   38.7019 C   0  0  0  0  0  0  0  0  0  0  0  0
    3.3891   20.5441   38.5180 C   0  0  0  0  0  0  0  0  0  0  0  0
    3.8687   21.5413   39.3392 C   0  0  0  0  0  0  0  0  0  0  0  0
    3.0225   22.0061   40.3247 C   0  0  0  0  0  0  0  0  0  0  0  0
    1.7418   21.5180   40.5121 C   0  0  0  0  0  0  0  0  0  0  0  0
    4.2521   20.0253   37.4639 C   0  0  0  0  0  0  0  0  0  0  0  0
    3.8216   19.0209   36.6072 O   0  0  0  0  0  0  0  0  0  0  0  0
    5.4123   20.5339   37.3669 O   0  0  0  0  0  0  0  0  0  0  0  0
    1.7062   19.2721   38.0741 H   0  0  0  0  0  0  0  0  0  0  0  0
    4.8753   21.9588   39.2290 H   0  0  0  0  0  0  0  0  0  0  0  0
    3.3842   22.7896   40.9784 H   0  0  0  0  0  0  0  0  0  0  0  0
    1.1003   21.9068   41.2990 H   0  0  0  0  0  0  0  0  0  0  0  0
  1  2  1  0
  1  6  2  0
  2  3  2  0
  3  4  1  0
  3  7  1  0
  4  5  2  0
  5  6  1  0
  7  8  1  0
  7  9  2  0
  2 10  1  0
  4 11  1  0
  5 12  1  0
  6 13  1  0
M  CHG  1   8  -1
M  END
>  <mol_id>  (32) 
2026-09-18-3war-s0-n100-r7-0032

>  <rmsd_to_ref>  (32) 
1.8775510204090164

>  <pose_kind>  (32) 
conformer

$$$$
3war.A
     RDKit          3D

 13 13  0  0  0  0  0  0  0  0999 V2000
    4.2384   18.1508   40.5348 N   0  0  0  0  0  0  0  0  0  0  0  0
    3.8117   18.7247   39.3130 C   0  0  0  0  0  0  0  0  0  0  0  0
    2.7390   19.6861   39.3787 C   0  0  0  0  0  0  0  0  0  0  0  0
    2.1448   20.0020   40.5875 C   0  0  0  0  0  0  0  0  0  0  0  0
    2.6107   19.4385   41.7551 C   0  0  0  0  0  0  0  0  0  0  0  0
    3.6214   18.5047   41.7071 C   0  0  0  0  0  0  0  0  0  0  0  0
    2.1668   20.2700   38.0956 C   0  0  0  0  0  0  0  0  0  0  0  0
    2.8091   20.0998   37.0180 O   0  0  0  0  0  0  0  0  0  0  0  0
    1.1125   20.8528   38.2298 O   0  0  0  0  0  0  0  0  0  0  0  0
    4.2781   18.4494   38.3556 H   0  0  0  0  0  0  0  0  0  0  0  0
    1.2987   20.7044   40.6164 H   0  0  0  0  0  0  0  0  0  0  0  0
    2.1770   19.7335   42.7220 H   0  0  0  0  0  0  0  0  0  0  0  0
    3.9455   18.0255   42.6427 H   0  0  0  0  0  0  0  0  0  0  0  0
  1  2  1  0
  1  6  2  0
  2  3  2  0
  3  4  1  0
  3  7  1  0
  4  5  2  0
  5  6  1  0
  7  8  1  0
  7  9  2  0
  2 10  1  0
  4 11  1  0
  5 12  1  0
  6 13  1  0
M  CHG  1   8  -1
M  END
>  <mol_id>  (33) 
2026-09-18-3war-s0-n100-r7-0033

>  <rmsd_to_ref>  (33) 
1.9234693877584

>  <pose_kind>  (33) 
rigid

$$$$
3war.A
     RDKit          3D

 13 13  0  0  0  0  0  0  0  0999 V2000
    4.1255   18.6326   39.1478 N   0  0  0  0  0  0  0  0  0  0  0  0
    3.9127   19.4862   38.1188 C   0  0  0  0  0  0  0  0  0  0  0  0
    2.9441   20.4516   38.2579 C   0  0  0  0  0  0  0  0  0  0  0  0
    2.1846   20.5715   39.4193 C   0  0  0  0  0  0  0  0  0  0  0  0
    2.4638   19.6630   40.4201 C   0  0  0  0  0  0  0  0  0  0  0  0
    3.4297   18.6845   40.3074 C   0  0  0  0  0  0  0  0  0  0  0  0
    2.6831   21.3927   37.1705 C   0  0  0  0  0  0  0  0  0  0  0  0
    3.4186   21.3095   35.9913 O   0  0  0  0  0  0  0  0  0  0  0  0
    1.7940   22.2738   37.3066 O   0  0  0  0  0  0  0  0  0  0  0  0
    4.4912   19.4190   37.1943 H   0  0  0  0  0  0  0  0  0  0  0  0
    1.4296   21.3385   39.5038 H   0  0  0  0  0  0  0  0  0  0  0  0
    1.8808   19.7356   41.3437 H   0  0  0  0  0  0  0  0  0  0  0  0
    3.6137   17.9944   41.1180 H   0  0  0  0  0  0  0  0  0  0  0  0
  1  2  1  0
  1  6  2  0
  2  3  2  0
  3  4  1  0
  3  7  1  0
  4  5  2  0
  5  6  1  0
  7  8  1  0
  7  9  2  0
  2 10  1  0
  4 11  1  0
  5 12  1  0
  6 13  1  0
M  CHG  1   8  -1
M  END
>  <mol_id>  (34) 
2026-09-18-3war-s0-n100-r7-0034

>  <rmsd_to_ref>  (34) 
1.969387755103295

>  <pose_kind>  (34) 
conformer

$$$$
3war.A
     RDKit          3D

 13 13  0  0  0  0  0  0  0  0999 V2000
    2.6608   20.7456   40.0960 N   0  0  0  0  0  0  0  0  0  0  0  0
    2.4916   19.6550   39.2095 C   0  0  0  0  0  0  0  0  0  0  0  0
    2.3414   19.9645   37.8091 C   0  0  0  0  0  0  0  0  0  0  0  0
    2.3371   21.2768   37.3709 C   0  0  0  0  0  0  0  0  0  0  0  0
    2.5319   22.3054   38.2665 C   0  0  0  0  0  0  0  0  0  0  0  0
    2.6578   22.0275   39.6091 C   0  0  0  0  0  0  0  0  0  0  0  0
    2.0602   18.8489   36.8136 C   0  0  0  0  0  0  0  0  0  0  0  0
    2.2193   17.6510   37.1912 O   0  0  0  0  0  0  0  0  0  0  0  0
    1.6897   19.2246   35.7224 O   0  0  0  0  0  0  0  0  0  0  0  0
    2.4755   18.6169   39.5729 H   0  0  0  0  0  0  0  0  0  0  0  0
    2.1779   21.4993   36.3055 H   0  0  0  0  0  0  0  0  0  0  0  0
    2.5866   23.3447   37.9103 H   0  0  0  0  0  0  0  0  0  0  0  0
    2.7596   22.8637   40.3165 H   0  0  0  0  0  0  0  0  0  0  0  0
  1  2  1  0
  1  6  2  0
  2  3  2  0
  3  4  1  0
  3  7  1  0
  4  5  2  0
  5  6  1  0
  7  8  1  0
  7  9  2  0
  2 10  1  0
  4 11  1  0
  5 12  1  0
  6 13  1  0
M  CHG  1   8  -1
M  END
>  <mol_id>  (35) 
2026-09-18-3war-s0-n100-r7-0035

>  <rmsd_to_ref>  (35) 
2.0153061224524027

>  <pose_kind>  (35) 
rigid

$$$$
3war.A
     RDKit          3D

 13 13  0  0  0  0  0  0  0  0999 V2000
    2.0279   20.7649   39.7781 N   0  0  0  0  0  0  0  0  0  0  0  0
    2.4289   19.6603   39.1219 C   0  0  0  0  0  0  0  0  0  0  0  0
    2.1443   19.5826   37.7738 C   0  0  0  0  0  0  0  0  0  0  0  0
    1.4767   20.5744   37.0829 C   0  0  0  0  0  0  0  0  0  0  0  0
    1.0782   21.7034   37.8007 C   0  0  0  0  0  0  0  0  0  0  0  0
    1.3712   21.7678   39.1555 C   0  0  0  0  0  0  0  0  0  0  0  0
    2.5675   18.3902   37.0255 C   0  0  0  0  0  0  0  0  0  0  0  0
    3.2433   17.3548   37.6586 O   0  0  0  0  0  0  0  0  0  0  0  0
    2.3020   18.3263   35.7858 O   0  0  0  0  0  0  0  0  0  0  0  0
    2.9518   18.8398   39.5715 H   0  0  0  0  0  0  0  0  0  0  0  0
    1.2420   20.5442   36.0426 H   0  0  0  0  0  0  0  0  0  0  0  0
    0.5556   22.4980   37.2979 H   0  0  0  0  0  0  0  0  0  0  0  0
    1.0538   22.6534   39.6988 H   0  0  0  0  0  0  0  0  0  0  0  0
  1  2  1  0
  1  6  2  0
  2  3  2  0
  3  4  1  0
  3  7  1  0
  4  5  2  0
  5  6  1  0
  7  8  1  0
  7  9  2  0
  2 10  1  0
  4 11  1  0
  5 12  1  0
  6 13  1  0
M  CHG  1   8  -1
M  END
>  <mol_id>  (36) 
2026-09-18-3war-s0-n100-r7-0036

>  <rmsd_to_ref>  (36) 
2.061224489799595

>  <pose_kind>  (36) 
conformer

$$$$
3war.A
     RDKit          3D

 13 13  0  0  0  0  0  0  0  0999 V2000
    0.8168   20.9095   40.7308 N   0  0  0  0  0  0  0  0  0  0  0  0
    1.1218   19.6985   40.0640 C   0  0  0  0  0  0  0  0  0  0  0  0
    1.5325   19.7939   38.6850 C   0  0  0  0  0  0  0  0  0  0  0  0
    1.5936   21.0205   38.0480 C   0  0  0  0  0  0  0  0  0  0  0  0
    1.3135   22.1758   38.7442 C   0  0  0  0  0  0  0  0  0  0  0  0
    0.9016   22.1001   40.0559 C   0  0  0  0  0  0  0  0  0  0  0  0
    1.7828   18.5269   37.8808 C   0  0  0  0  0  0  0  0  0  0  0  0
    1.8770   17.4281   38.5025 O   0  0  0  0  0  0  0  0  0  0  0  0
    1.8609   18.6940   36.6828 O   0  0  0  0  0  0  0  0  0  0  0  0
    1.0489   18.7274   40.5755 H   0  0  0  0  0  0  0  0  0  0  0  0
    1.8665   21.0734   36.9837 H   0  0  0  0  0  0  0  0  0  0  0  0
    1.4184   23.1550   38.2541 H   0  0  0  0  0  0  0  0  0  0  0  0
    0.6310   23.0279   40.5812 H   0  0  0  0  0  0  0  0  0  0  0  0
  1  2  1  0
  1  6  2  0
  2  3  2  0
  3  4  1  0
  3  7  1  0
  4  5  2  0
  5  6  1  0
  7  8  1  0
  7  9  2  0
  2 10  1  0
  4 11  1  0
  5 12  1  0
  6 13  1  0
M  CHG  1   8  -1
M  END
>  <mol_id>  (37) 
2026-09-18-3war-s0-n100-r7-0037

>  <rmsd_to_ref>  (37) 
2.1071428571481876

>  <pose_kind>  (37) 
rigid

$$$$
3war.A
     RDKit          3D

 13 13  0  0  0  0  0  0  0  0999 V2000
    0.2925   20.6233   39.7268 N   0  0  0  0  0  0  0  0  0  0  0  0
    0.8443   19.5394   39.1491 C   0  0  0  0  0  0  0  0  0  0  0  0
    1.7227   19.6798   38.0898 C   0  0  0  0  0  0  0  0  0  0  0  0
    2.0182   20.9532   37.6414 C   0  0  0  0  0  0  0  0  0  0  0  0
    1.4358   22.0437   38.2550 C   0  0  0  0  0  0  0  0  0  0  0  0
    0.5626   21.8731   39.3106 C   0  0  0  0  0  0  0  0  0  0  0  0
    2.3195   18.4890   37.4665 C   0  0  0  0  0  0  0  0  0  0  0  0
    3.1967   18.6748   36.4052 O   0  0  0  0  0  0  0  0  0  0  0  0
    2.0174   17.3446   37.9131 O   0  0  0  0  0  0  0  0  0  0  0  0
    0.6379   18.5218   39.4719 H   0  0  0  0  0  0  0  0  0  0  0  0
    2.7083   21.0288   36.8117 H   0  0  0  0  0  0  0  0  0  0  0  0
    1.7074   23.0160   37.8578 H   0  0  0  0  0  0  0  0  0  0  0  0
    0.1116   22.7388   39.7841 H   0  0  0  0  0  0  0  0  0  0  0  0
  1  2  1  0
  1  6  2  0
  2  3  2  0
  3  4  1  0
  3  7  1  0
  4  5  2  0
  5  6  1  0
  7  8  1  0
  7  9  2  0
  2 10  1  0
  4 11  1  0
  5 12  1  0
  6 13  1  0
M  CHG  1   8  -1
M  END
>  <mol_id>  (38) 
2026-09-18-3war-s0-n100-r7-0038

>  <rmsd_to_ref>  (38) 
2.1530612244947

>  <pose_kind>  (38) 
conformer

$$$$
3war.A
     RDKit          3D

 13 13  0  0  0  0  0  0  0  0999 V2000
    2.7533   19.8587   40.2032 N   0  0  0  0  0  0  0  0  0  0  0  0
    2.5251   20.4639   38.9439 C   0  0  0  0  0  0  0  0  0  0  0  0
    1.1522   20.6421   38.5404 C   0  0  0  0  0  0  0  0  0  0  0  0
    0.1154   20.2098   39.3481 C   0  0  0  0  0  0  0  0  0  0  0  0
    0.3842   19.6501   40.5779 C   0  0  0  0  0  0  0  0  0  0  0  0
    1.6899   19.4558   40.9693 C   0  0  0  0  0  0  0  0  0  0  0  0
    0.8354   21.1975   37.1599 C   0  0  0  0  0  0  0  0  0  0  0  0
    1.7723   21.7305   36.4960 O   0  0  0  0  0  0  0  0  0  0  0  0
   -0.3181   21.0640   36.8122 O   0  0  0  0  0  0  0  0  0  0  0  0
    3.3585   20.7842   38.3014 H   0  0  0  0  0  0  0  0  0  0  0  0
   -0.9254   20.3130   39.0076 H   0  0  0  0  0  0  0  0  0  0  0  0
   -0.4411   19.3597   41.2446 H   0  0  0  0  0  0  0  0  0  0  0  0
    1.8870   18.9595   41.9310 H   0  0  0  0  0  0  0  0  0  0  0  0
  1  2  1  0
  1  6  2  0
  2  3  2  0
  3  4  1  0
  3  7  1  0
  4  5  2  0
  5  6  1  0
  7  8  1  0
  7  9  2  0
  2 10  1  0
  4 11  1  0
  5 12  1  0
  6 13  1  0
M  CHG  1   8  -1
M  END
>  <mol_id>  (39) 
2026-09-18-3war-s0-n100-r7-0039

>  <rmsd_to_ref>  (39) 
2.198979591837925

>  <pose_kind>  (39) 
rigid

$$$$
3war.A
     RDKit          3D

 13 13  0  0  0  0  0  0  0  0999 V2000
    1.4123   19.0127   39.2729 N   0  0  0  0  0  0  0  0  0  0  0  0
    2.7040   18.5899   39.1632 C   0  0  0  0  0  0  0  0  0  0  0  0
    3.6717   19.5479   38.9526 C   0  0  0  0  0  0  0  0  0  0  0  0
    3.3859   20.8923   38.8509 C   0  0  0  0  0  0  0  0  0  0  0  0
    2.0714   21.2799   38.9669 C   0  0  0  0  0  0  0  0  0  0  0  0
    1.0978   20.3241   39.1779 C   0  0  0  0  0  0  0  0  0  0  0  0
    5.0627   19.1400   38.8297 C   0  0  0  0  0  0  0  0  0  0  0  0
    6.0896   20.0253   38.6194 O   0  0  0  0  0  0  0  0  0  0  0  0
    5.3858   17.9060   38.9159 O   0  0  0  0  0  0  0  0  0  0  0  0
    2.9258   17.5332   39.2434 H   0  0  0  0  0  0  0  0  0  0  0  0
    4.1464   21.6439   38.6856 H   0  0  0  0  0  0  0  0  0  0  0  0
    1.7966   22.3268   38.8939 H   0  0  0  0  0  0  0  0  0  0  0  0
    0.0398   20.5942   39.2755 H   0  0  0  0  0  0  0  0  0  0  0  0
  1  2  1  0
  1  6  2  0
  2  3  2  0
  3  4  1  0
  3  7  1  0
  4  5  2  0
  5  6  1  0
  7  8  1  0
  7  9  2  0
  2 10  1  0
  4 11  1  0
  5 12  1  0
  6 13  1  0
M  CHG  1   8  -1
M  END
>  <mol_id>  (40) 
2026-09-18-3war-s0-n100-r7-0040

>  <rmsd_to_ref>  (40) 
2.2448979591856024

>  <pose_kind>  (40) 
conformer

$$$$
3war.A
     RDKit          3D

 13 13  0  0  0  0  0  0  0  0999 V2000
    3.1902   18.8607   39.3460 N   0  0  0  0  0  0  0  0  0  0  0  0
    2.2544   18.4366   38.3720 C   0  0  0  0  0  0  0  0  0  0  0  0
    1.3334   19.4269   37.8716 C   0  0  0  0  0  0  0  0  0  0  0  0
    1.3582   20.7237   38.3530 C   0  0  0  0  0  0  0  0  0  0  0  0
    2.3043   21.0985   39.2817 C   0  0  0  0  0  0  0  0  0  0  0  0
    3.1782   20.1602   39.7834 C   0  0  0  0  0  0  0  0  0  0  0  0
    0.2403   19.0186   36.8954 C   0  0  0  0  0  0  0  0  0  0  0  0
    0.3186   17.8811   36.3453 O   0  0  0  0  0  0  0  0  0  0  0  0
   -0.6343   19.8433   36.7397 O   0  0  0  0  0  0  0  0  0  0  0  0
    2.2309   17.3972   38.0127 H   0  0  0  0  0  0  0  0  0  0  0  0
    0.6212   21.4570   37.9936 H   0  0  0  0  0  0  0  0  0  0  0  0
    2.3612   22.1433   39.6212 H   0  0  0  0  0  0  0  0  0  0  0  0
    3.8923   20.4640   40.5630 H   0  0  0  0  0  0  0  0  0  0  0  0
  1  2  1  0
  1  6  2  0
  2  3  2  0
  3  4  1  0
  3  7  1  0
  4  5  2  0
  5  6  1  0
  7  8  1  0
  7  9  2  0
  2 10  1  0
  4 11  1  0
  5 12  1  0
  6 13  1  0
M  CHG  1   8  -1
M  END
>  <mol_id>  (41) 
2026-09-18-3war-s0-n100-r7-0041

>  <rmsd_to_ref>  (41) 
2.2908163265314676

>  <pose_kind>  (41) 
rigid

$$$$
3war.A
     RDKit          3D

 13 13  0  0  0  0  0  0  0  0999 V2000
    1.7703   18.3117   39.8368 N   0  0  0  0  0  0  0  0  0  0  0  0
    2.7519   18.7040   39.0023 C   0  0  0  0  0  0  0  0  0  0  0  0
    2.5868   18.5462   37.6442 C   0  0  0  0  0  0  0  0  0  0  0  0
    1.4219   17.9884   37.1292 C   0  0  0  0  0  0  0  0  0  0  0  0
    0.4341   17.5963   38.0134 C   0  0  0  0  0  0  0  0  0  0  0  0
    0.6242   17.7666   39.3904 C   0  0  0  0  0  0  0  0  0  0  0  0
    3.6675   18.9804   36.7655 C   0  0  0  0  0  0  0  0  0  0  0  0
    3.5115   18.8259   35.3935 O   0  0  0  0  0  0  0  0  0  0  0  0
    4.7383   19.4898   37.1837 O   0  0  0  0  0  0  0  0  0  0  0  0
    3.6682   19.1430   39.4126 H   0  0  0  0  0  0  0  0  0  0  0  0
    1.2827   17.8596   36.0556 H   0  0  0  0  0  0  0  0  0  0  0  0
   -0.5087   17.1490   37.6624 H   0  0  0  0  0  0  0  0  0  0  0  0
   -0.1559   17.4579   40.1028 H   0  0  0  0  0  0  0  0  0  0  0  0
  1  2  1  0
  1  6  2  0
  2  3  2  0
  3  4  1  0
  3  7  1  0
  4  5  2  0
  5  6  1  0
  7  8  1  0
  7  9  2  0
  2 10  1  0
  4 11  1  0
  5 12  1  0
  6 13  1  0
M  CHG  1   8  -1
M  END
>  <mol_id>  (42) 
2026-09-18-3war-s0-n100-r7-0042

>  <rmsd_to_ref>  (42) 
2.3367346938806475

>  <pose_kind>  (42) 
conformer

$$$$
3war.A
     RDKit          3D

 13 13  0  0  0  0  0  0  0  0999 V2000
    2.1598   17.6480   39.6815 N   0  0  0  0  0  0  0  0  0  0  0  0
    2.5311   18.8737   39.0782 C   0  0  0  0  0  0  0  0  0  0  0  0
    2.3821   20.0680   39.8725 C   0  0  0  0  0  0  0  0  0  0  0  0
    1.8711   20.0046   41.1566 C   0  0  0  0  0  0  0  0  0  0  0  0
    1.5480   18.7864   41.7129 C   0  0  0  0  0  0  0  0  0  0  0  0
    1.6665   17.6391   40.9609 C   0  0  0  0  0  0  0  0  0  0  0  0
    2.6711   21.4281   39.2551 C   0  0  0  0  0  0  0  0  0  0  0  0
    3.2801   21.4686   38.1460 O   0  0  0  0  0  0  0  0  0  0  0  0
    2.2696   22.3730   39.8995 O   0  0  0  0  0  0  0  0  0  0  0  0
    2.9163   18.9133   38.0486 H   0  0  0  0  0  0  0  0  0  0  0  0
    1.7225   20.9287   41.7345 H   0  0  0  0  0  0  0  0  0  0  0  0
    1.1967   18.7305   42.7538 H   0  0  0  0  0  0  0  0  0  0  0  0
    1.3543   16.6811   41.4022 H   0  0  0  0  0  0  0  0  0  0  0  0
  1  2  1  0
  1  6  2  0
  2  3  2  0
  3  4  1  0
  3  7  1  0
  4  5  2  0
  5  6  1  0
  7  8  1  0
  7  9  2  0
  2 10  1  0
  4 11  1  0
  5 12  1  0
  6 13  1  0
M  CHG  1   8  -1
M  END
>  <mol_id>  (43) 
2026-09-18-3war-s0-n100-r7-0043

>  <rmsd_to_ref>  (43) 
2.3826530612246417

>  <pose_kind>  (43) 
rigid

$$$$
3war.A
     RDKit          3D

 13 13  0  0  0  0  0  0  0  0999 V2000
    1.3690   18.3130   41.5485 N   0  0  0  0  0  0  0  0  0  0  0  0
    1.7958   18.7599   40.3486 C   0  0  0  0  0  0  0  0  0  0  0  0
    3.1415   18.9168   40.0895 C   0  0  0  0  0  0  0  0  0  0  0  0
    4.0551   18.6100   41.0771 C   0  0  0  0  0  0  0  0  0  0  0  0
    3.6075   18.1543   42.2989 C   0  0  0  0  0  0  0  0  0  0  0  0
    2.2480   18.0087   42.5245 C   0  0  0  0  0  0  0  0  0  0  0  0
    3.5270   19.4045   38.7691 C   0  0  0  0  0  0  0  0  0  0  0  0
    4.8557   19.5958   38.4107 O   0  0  0  0  0  0  0  0  0  0  0  0
    2.6597   19.6808   37.8736 O   0  0  0  0  0  0  0  0  0  0  0  0
    1.0613   18.9997   39.5741 H   0  0  0  0  0  0  0  0  0  0  0  0
    5.1251   18.7338   40.8737 H   0  0  0  0  0  0  0  0  0  0  0  0
    4.3148   17.9070   43.0909 H   0  0  0  0  0  0  0  0  0  0  0  0
    1.8633   17.6484   43.4864 H   0  0  0  0  0  0  0  0  0  0  0  0
  1  2  1  0
  1  6  2  0
  2  3  2  0
  3  4  1  0
  3  7  1  0
  4  5  2  0
  5  6  1  0
  7  8  1  0
  7  9  2  0
  2 10  1  0
  4 11  1  0
  5 12  1  0
  6 13  1  0
M  CHG  1   8  -1
M  END
>  <mol_id>  (44) 
2026-09-18-3war-s0-n100-r7-0044

>  <rmsd_to_ref>  (44) 
2.428571428571593

>  <pose_kind>  (44) 
conformer

$$$$
3war.A
     RDKit          3D

 13 13  0  0  0  0  0  0  0  0999 V2000
    1.1374   21.8585   41.1435 N   0  0  0  0  0  0  0  0  0  0  0  0
    1.8335   20.6670   40.8278 C   0  0  0  0  0  0  0  0  0  0  0  0
    1.9237   20.3091   39.4338 C   0  0  0  0  0  0  0  0  0  0  0  0
    1.3266   21.0923   38.4621 C   0  0  0  0  0  0  0  0  0  0  0  0
    0.6820   22.2581   38.8133 C   0  0  0  0  0  0  0  0  0  0  0  0
    0.5708   22.6037   40.1415 C   0  0  0  0  0  0  0  0  0  0  0  0
    2.5738   18.9939   39.0309 C   0  0  0  0  0  0  0  0  0  0  0  0
    3.2483   18.3653   39.8983 O   0  0  0  0  0  0  0  0  0  0  0  0
    2.3695   18.6578   37.8843 O   0  0  0  0  0  0  0  0  0  0  0  0
    2.2859   20.0415   41.6115 H   0  0  0  0  0  0  0  0  0  0  0  0
    1.3666   20.7835   37.4070 H   0  0  0  0  0  0  0  0  0  0  0  0
    0.2578   22.9103   38.0357 H   0  0  0  0  0  0  0  0  0  0  0  0
    0.0074   23.5099   40.4082 H   0  0  0  0  0  0  0  0  0  0  0  0
  1  2  1  0
  1  6  2  0
  2  3  2  0
  3  4  1  0
  3  7  1  0
  4  5  2  0
  5  6  1  0
  7  8  1  0
  7  9  2  0
  2 10  1  0
  4 11  1  0
  5 12  1  0
  6 13  1  0
M  CHG  1   8  -1
M  END
>  <mol_id>  (45) 
2026-09-18-3war-s0-n100-r7-0045

>  <rmsd_to_ref>  (45) 
2.4744897959205527

>  <pose_kind>  (45) 
rigid

$$$$
3war.A
     RDKit          3D

 13 13  0  0  0  0  0  0  0  0999 V2000
    2.8444   19.3253   41.1004 N   0  0  0  0  0  0  0  0  0  0  0  0
    2.9580   19.4863   39.7706 C   0  0  0  0  0  0  0  0  0  0  0  0
    4.2188   19.3318   39.1976 C   0  0  0  0  0  0  0  0  0  0  0  0
    5.3168   19.0231   39.9701 C   0  0  0  0  0  0  0  0  0  0  0  0
    5.1651   18.8633   41.3422 C   0  0  0  0  0  0  0  0  0  0  0  0
    3.8886   19.0240   41.8918 C   0  0  0  0  0  0  0  0  0  0  0  0
    4.3139   19.5135   37.7412 C   0  0  0  0  0  0  0  0  0  0  0  0
    5.5881   19.3575   37.1604 O   0  0  0  0  0  0  0  0  0  0  0  0
    3.3119   19.7959   37.0312 O   0  0  0  0  0  0  0  0  0  0  0  0
    2.0833   19.7250   39.2083 H   0  0  0  0  0  0  0  0  0  0  0  0
    6.2721   18.9141   39.4766 H   0  0  0  0  0  0  0  0  0  0  0  0
    6.0269   18.6247   41.9215 H   0  0  0  0  0  0  0  0  0  0  0  0
    3.8101   18.8919   42.9627 H   0  0  0  0  0  0  0  0  0  0  0  0
  1  2  1  0
  1  6  2  0
  2  3  2  0
  3  4  1  0
  3  7  1  0
  4  5  2  0
  5  6  1  0
  7  8  1  0
  7  9  2  0
  2 10  1  0
  4 11  1  0
  5 12  1  0
  6 13  1  0
M  CHG  1   8  -1
M  END
>  <mol_id>  (46) 
2026-09-18-3war-s0-n100-r7-0046

>  <rmsd_to_ref>  (46) 
2.5204081632674264

>  <pose_kind>  (46) 
conformer

$$$$
3war.A
     RDKit          3D

 13 13  0  0  0  0  0  0  0  0999 V2000
    2.5873   21.3791   40.3604 N   0  0  0  0  0  0  0  0  0  0  0  0
    3.2782   20.1607   40.1550 C   0  0  0  0  0  0  0  0  0  0  0  0
    3.6659   19.8459   38.8023 C   0  0  0  0  0  0  0  0  0  0  0  0
    3.3446   20.6949   37.7582 C   0  0  0  0  0  0  0  0  0  0  0  0
    2.6946   21.8834   38.0086 C   0  0  0  0  0  0  0  0  0  0  0  0
    2.3008   22.1895   39.2919 C   0  0  0  0  0  0  0  0  0  0  0  0
    4.3258   18.5096   38.4960 C   0  0  0  0  0  0  0  0  0  0  0  0
    4.7536   17.8139   39.4631 O   0  0  0  0  0  0  0  0  0  0  0  0
    4.3718   18.2251   37.3186 O   0  0  0  0  0  0  0  0  0  0  0  0
    3.5092   19.4838   40.9908 H   0  0  0  0  0  0  0  0  0  0  0  0
    3.6088   20.4204   36.7263 H   0  0  0  0  0  0  0  0  0  0  0  0
    2.4908   22.5852   37.1863 H   0  0  0  0  0  0  0  0  0  0  0  0
    1.7363   23.1173   39.4664 H   0  0  0  0  0  0  0  0  0  0  0  0
  1  2  1  0
  1  6  2  0
  2  3  2  0
  3  4  1  0
  3  7  1  0
  4  5  2  0
  5  6  1  0
  7  8  1  0
  7  9  2  0
  2 10  1  0
  4 11  1  0
  5 12  1  0
  6 13  1  0
M  CHG  1   8  -1
M  END
>  <mol_id>  (47) 
2026-09-18-3war-s0-n100-r7-0047

>  <rmsd_to_ref>  (47) 
2.5663265306133063

>  <pose_kind>  (47) 
rigid

$$$$
3war.A
     RDKit          3D

 13 13  0  0  0  0  0  0  0  0999 V2000
    0.1628   19.0784   38.5415 N   0  0  0  0  0  0  0  0  0  0  0  0
    1.2494   19.8371   38.3704 C   0  0  0  0  0  0  0  0  0  0  0  0
    1.5745   20.7550   39.3470 C   0  0  0  0  0  0  0  0  0  0  0  0
    0.7979   20.9025   40.4953 C   0  0  0  0  0  0  0  0  0  0  0  0
   -0.3053   20.0807   40.5925 C   0  0  0  0  0  0  0  0  0  0  0  0
   -0.6477   19.1554   39.6255 C   0  0  0  0  0  0  0  0  0  0  0  0
    2.7676   21.5911   39.1637 C   0  0  0  0  0  0  0  0  0  0  0  0
    3.1109   22.5239   40.1407 O   0  0  0  0  0  0  0  0  0  0  0  0
    3.4872   21.4643   38.1144 O   0  0  0  0  0  0  0  0  0  0  0  0
    1.8902   19.7624   37.4930 H   0  0  0  0  0  0  0  0  0  0  0  0
    1.0470   21.6204   41.2653 H   0  0  0  0  0  0  0  0  0  0  0  0
   -0.9216   20.1783   41.4747 H   0  0  0  0  0  0  0  0  0  0  0  0
   -1.5185   18.5125   39.7107 H   0  0  0  0  0  0  0  0  0  0  0  0
  1  2  1  0
  1  6  2  0
  2  3  2  0
  3  4  1  0
  3  7  1  0
  4  5  2  0
  5  6  1  0
  7  8  1  0
  7  9  2  0
  2 10  1  0
  4 11  1  0
  5 12  1  0
  6 13  1  0
M  CHG  1   8  -1
M  END
>  <mol_id>  (48) 
2026-09-18-3war-s0-n100-r7-0048

>  <rmsd_to_ref>  (48) 
2.6122448979619635

>  <pose_kind>  (48) 
conformer

$$$$
3war.A
     RDKit          3D

 13 13  0  0  0  0  0  0  0  0999 V2000
    3.6313   16.8697   37.9622 N   0  0  0  0  0  0  0  0  0  0  0  0
    3.2448   18.0439   37.2723 C   0  0  0  0  0  0  0  0  0  0  0  0
    2.9873   19.2182   38.0685 C   0  0  0  0  0  0  0  0  0  0  0  0
    3.0908   19.1751   39.4474 C   0  0  0  0  0  0  0  0  0  0  0  0
    3.4962   18.0172   40.0744 C   0  0  0  0  0  0  0  0  0  0  0  0
    3.7274   16.8823   39.3300 C   0  0  0  0  0  0  0  0  0  0  0  0
    2.4760   20.4868   37.4021 C   0  0  0  0  0  0  0  0  0  0  0  0
    2.5324   20.5685   36.1401 O   0  0  0  0  0  0  0  0  0  0  0  0
    2.0408   21.3209   38.1664 O   0  0  0  0  0  0  0  0  0  0  0  0
    3.1454   18.0598   36.1769 H   0  0  0  0  0  0  0  0  0  0  0  0
    2.8491   20.0668   40.0443 H   0  0  0  0  0  0  0  0  0  0  0  0
    3.6346   17.9996   41.1655 H   0  0  0  0  0  0  0  0  0  0  0  0
    3.9990   15.9524   39.8511 H   0  0  0  0  0  0  0  0  0  0  0  0
  1  2  1  0
  1  6  2  0
  2  3  2  0
  3  4  1  0
  3  7  1  0
  4  5  2  0
  5  6  1  0
  7  8  1  0
  7  9  2  0
  2 10  1  0
  4 11  1  0
  5 12  1  0
  6 13  1  0
M  CHG  1   8  -1
M  END
>  <mol_id>  (49) 
2026-09-18-3war-s0-n100-r7-0049

>  <rmsd_to_ref>  (49) 
2.6581632653075133

>  <pose_kind>  (49) 
rigid

$$$$
3war.A
     RDKit          3D

 13 13  0  0  0  0  0  0  0  0999 V2000
    1.8134   17.2444   39.5023 N   0  0  0  0  0  0  0  0  0  0  0  0
    1.8892   18.4969   39.0297 C   0  0  0  0  0  0  0  0  0  0  0  0
    1.9381   19.5781   39.9028 C   0  0  0  0  0  0  0  0  0  0  0  0
    1.9059   19.3151   41.2659 C   0  0  0  0  0  0  0  0  0  0  0  0
    1.8272   18.0047   41.7193 C   0  0  0  0  0  0  0  0  0  0  0  0
    1.7807   16.9605   40.8174 C   0  0  0  0  0  0  0  0  0  0  0  0
    2.0204   20.9307   39.3652 C   0  0  0  0  0  0  0  0  0  0  0  0
    2.0669   21.9795   40.2903 O   0  0  0  0  0  0  0  0  0  0  0  0
    2.0495   21.1627   38.1161 O   0  0  0  0  0  0  0  0  0  0  0  0
    1.9124   18.6690   37.9631 H   0  0  0  0  0  0  0  0  0  0  0  0
    1.9436   20.1518   41.9559 H   0  0  0  0  0  0  0  0  0  0  0  0
    1.8018   17.7983   42.7943 H   0  0  0  0  0  0  0  0  0  0  0  0
    1.7194   15.9457   41.1876 H   0  0  0  0  0  0  0  0  0  0  0  0
  1  2  1  0
  1  6  2  0
  2  3  2  0
  3  4  1  0
  3  7  1  0
  4  5  2  0
  5  6  1  0
  7  8  1  0
  7  9  2  0
  2 10  1  0
  4 11  1  0
  5 12  1  0
  6 13  1  0
M  CHG  1   8  -1
M  END
>  <mol_id>  (50) 
2026-09-18-3war-s0-n100-r7-0050

>  <rmsd_to_ref>  (50) 
2.7040816326536654

>  <pose_kind>  (50) 
conformer

$$$$
3war.A
     RDKit          3D

 13 13  0  0  0  0  0  0  0  0999 V2000
   -0.8365   18.4895   39.6120 N   0  0  0  0  0  0  0  0  0  0  0  0
    0.0812   19.3771   39.0004 C   0  0  0  0  0  0  0  0  0  0  0  0
    1.1937   19.8253   39.8008 C   0  0  0  0  0  0  0  0  0  0  0  0
    1.3287   19.4181   41.1162 C   0  0  0  0  0  0  0  0  0  0  0  0
    0.4259   18.5320   41.6617 C   0  0  0  0  0  0  0  0  0  0  0  0
   -0.6522   18.1097   40.9167 C   0  0  0  0  0  0  0  0  0  0  0  0
    2.1642   20.8535   39.2391 C   0  0  0  0  0  0  0  0  0  0  0  0
    2.1275   21.1008   37.9980 O   0  0  0  0  0  0  0  0  0  0  0  0
    2.8967   21.3611   40.0607 O   0  0  0  0  0  0  0  0  0  0  0  0
   -0.0488   19.7103   37.9602 H   0  0  0  0  0  0  0  0  0  0  0  0
    2.1584   19.8027   41.7275 H   0  0  0  0  0  0  0  0  0  0  0  0
    0.5658   18.1632   42.6886 H   0  0  0  0  0  0  0  0  0  0  0  0
   -1.3922   17.4439   41.3848 H   0  0  0  0  0  0  0  0  0  0  0  0
  1  2  1  0
  1  6  2  0
  2  3  2  0
  3  4  1  0
  3  7  1  0
  4  5  2  0
  5  6  1  0
  7  8  1  0
  7  9  2  0
  2 10  1  0
  4 11  1  0
  5 12  1  0
  6 13  1  0
M  CHG  1   8  -1
M  END
>  <mol_id>  (51) 
2026-09-18-3war-s0-n100-r7-0051

>  <rmsd_to_ref>  (51) 
2.7500000000015885

>  <pose_kind>  (51) 
rigid

$$$$
3war.A
     RDKit          3D

 13 13  0  0  0  0  0  0  0  0999 V2000
    1.1257   19.7549   39.8078 N   0  0  0  0  0  0  0  0  0  0  0  0
    1.7036   18.5240   39.6947 C   0  0  0  0  0  0  0  0  0  0  0  0
    2.5482   18.2272   38.6481 C   0  0  0  0  0  0  0  0  0  0  0  0
    2.8429   19.1511   37.6802 C   0  0  0  0  0  0  0  0  0  0  0  0
    2.2514   20.4131   37.7947 C   0  0  0  0  0  0  0  0  0  0  0  0
    1.4022   20.6785   38.8663 C   0  0  0  0  0  0  0  0  0  0  0  0
    3.1748   16.9015   38.5204 C   0  0  0  0  0  0  0  0  0  0  0  0
    2.8914   15.9509   39.4877 O   0  0  0  0  0  0  0  0  0  0  0  0
    3.9330   16.7026   37.5412 O   0  0  0  0  0  0  0  0  0  0  0  0
    1.5090   17.7610   40.4236 H   0  0  0  0  0  0  0  0  0  0  0  0
    3.4902   18.9705   36.8506 H   0  0  0  0  0  0  0  0  0  0  0  0
    2.4549   21.1751   37.0535 H   0  0  0  0  0  0  0  0  0  0  0  0
    0.9774   21.6806   38.8922 H   0  0  0  0  0  0  0  0  0  0  0  0
  1  2  1  0
  1  6  2  0
  2  3  2  0
  3  4  1  0
  3  7  1  0
  4  5  2  0
  5  6  1  0
  7  8  1  0
  7  9  2  0
  2 10  1  0
  4 11  1  0
  5 12  1  0
  6 13  1  0
M  CHG  1   8  -1
M  END
>  <mol_id>  (52) 
2026-09-18-3war-s0-n100-r7-0052

>  <rmsd_to_ref>  (52) 
2.795918367347586

>  <pose_kind>  (52) 
conformer

$$$$
3war.A
     RDKit          3D

 13 13  0  0  0  0  0  0  0  0999 V2000
    4.1771   21.4540   40.2746 N   0  0  0  0  0  0  0  0  0  0  0  0
    3.2109   20.5701   39.7368 C   0  0  0  0  0  0  0  0  0  0  0  0
    2.6757   20.8943   38.4376 C   0  0  0  0  0  0  0  0  0  0  0  0
    3.0789   22.0378   37.7713 C   0  0  0  0  0  0  0  0  0  0  0  0
    4.0419   22.8552   38.3213 C   0  0  0  0  0  0  0  0  0  0  0  0
    4.5487   22.5697   39.5693 C   0  0  0  0  0  0  0  0  0  0  0  0
    1.5654   20.0412   37.8425 C   0  0  0  0  0  0  0  0  0  0  0  0
    1.3137   18.9219   38.3776 O   0  0  0  0  0  0  0  0  0  0  0  0
    1.0033   20.5344   36.8885 O   0  0  0  0  0  0  0  0  0  0  0  0
    2.8828   19.6752   40.2859 H   0  0  0  0  0  0  0  0  0  0  0  0
    2.6298   22.2947   36.8006 H   0  0  0  0  0  0  0  0  0  0  0  0
    4.4045   23.7325   37.7656 H   0  0  0  0  0  0  0  0  0  0  0  0
    5.2778   23.2614   40.0165 H   0  0  0  0  0  0  0  0  0  0  0  0
  1  2  1  0
  1  6  2  0
  2  3  2  0
  3  4  1  0
  3  7  1  0
  4  5  2  0
  5  6  1  0
  7  8  1  0
  7  9  2  0
  2 10  1  0
  4 11  1  0
  5 12  1  0
  6 13  1  0
M  CHG  1   8  -1
M  END
>  <mol_id>  (53) 
2026-09-18-3war-s0-n100-r7-0053

>  <rmsd_to_ref>  (53) 
2.841836734697622

>  <pose_kind>  (53) 
rigid

$$$$
3war.A
     RDKit          3D

 13 13  0  0  0  0  0  0  0  0999 V2000
    1.8781   22.9021   40.2002 N   0  0  0  0  0  0  0  0  0  0  0  0
    1.8643   22.7731   38.8763 C   0  0  0  0  0  0  0  0  0  0  0  0
    2.8488   22.0116   38.2904 C   0  0  0  0  0  0  0  0  0  0  0  0
    3.8097   21.4098   39.0671 C   0  0  0  0  0  0  0  0  0  0  0  0
    3.8052   21.5582   40.4524 C   0  0  0  0  0  0  0  0  0  0  0  0
    2.8007   22.3303   41.0042 C   0  0  0  0  0  0  0  0  0  0  0  0
    2.8683   21.8478   36.8596 C   0  0  0  0  0  0  0  0  0  0  0  0
    3.8268   21.0972   36.2016 O   0  0  0  0  0  0  0  0  0  0  0  0
    1.9849   22.3986   36.1228 O   0  0  0  0  0  0  0  0  0  0  0  0
    1.1248   23.2320   38.2382 H   0  0  0  0  0  0  0  0  0  0  0  0
    4.5589   20.8266   38.5866 H   0  0  0  0  0  0  0  0  0  0  0  0
    4.5418   21.1006   41.0835 H   0  0  0  0  0  0  0  0  0  0  0  0
    2.7067   22.5088   42.0687 H   0  0  0  0  0  0  0  0  0  0  0  0
  1  2  1  0
  1  6  2  0
  2  3  2  0
  3  4  1  0
  3  7  1  0
  4  5  2  0
  5  6  1  0
  7  8  1  0
  7  9  2  0
  2 10  1  0
  4 11  1  0
  5 12  1  0
  6 13  1  0
M  CHG  1   8  -1
M  END
>  <mol_id>  (54) 
2026-09-18-3war-s0-n100-r7-0054

>  <rmsd_to_ref>  (54) 
2.8877551020423087

>  <pose_kind>  (54) 
conformer

$$$$
3war.A
     RDKit          3D

 13 13  0  0  0  0  0  0  0  0999 V2000
   -0.2778   17.6079   40.0974 N   0  0  0  0  0  0  0  0  0  0  0  0
    1.0054   17.9633   40.5782 C   0  0  0  0  0  0  0  0  0  0  0  0
    1.6743   19.0566   39.9175 C   0  0  0  0  0  0  0  0  0  0  0  0
    1.0858   19.7014   38.8441 C   0  0  0  0  0  0  0  0  0  0  0  0
   -0.1763   19.3391   38.4273 C   0  0  0  0  0  0  0  0  0  0  0  0
   -0.8202   18.2849   39.0354 C   0  0  0  0  0  0  0  0  0  0  0  0
    3.0936   19.4291   40.3194 C   0  0  0  0  0  0  0  0  0  0  0  0
    3.5617   18.9463   41.3920 O   0  0  0  0  0  0  0  0  0  0  0  0
    3.6624   20.1681   39.5451 O   0  0  0  0  0  0  0  0  0  0  0  0
    1.4718   17.4289   41.4190 H   0  0  0  0  0  0  0  0  0  0  0  0
    1.6266   20.5048   38.3226 H   0  0  0  0  0  0  0  0  0  0  0  0
   -0.6678   19.8900   37.6118 H   0  0  0  0  0  0  0  0  0  0  0  0
   -1.8048   17.9746   38.6558 H   0  0  0  0  0  0  0  0  0  0  0  0
  1  2  1  0
  1  6  2  0
  2  3  2  0
  3  4  1  0
  3  7  1  0
  4  5  2  0
  5  6  1  0
  7  8  1  0
  7  9  2  0
  2 10  1  0
  4 11  1  0
  5 12  1  0
  6 13  1  0
M  CHG  1   8  -1
M  END
>  <mol_id>  (55) 
2026-09-18-3war-s0-n100-r7-0055

>  <rmsd_to_ref>  (55) 
2.9336734693889217

>  <pose_kind>  (55) 
rigid

$$$$
3war.A
     RDKit          3D

 13 13  0  0  0  0  0  0  0  0999 V2000
    3.6267   22.0819   41.4094 N   0  0  0  0  0  0  0  0  0  0  0  0
    3.6158   21.0316   40.5662 C   0  0  0  0  0  0  0  0  0  0  0  0
    2.5951   20.1079   40.6618 C   0  0  0  0  0  0  0  0  0  0  0  0
    1.6046   20.2639   41.6085 C   0  0  0  0  0  0  0  0  0  0  0  0
    1.6179   21.3399   42.4705 C   0  0  0  0  0  0  0  0  0  0  0  0
    2.6698   22.2379   42.3283 C   0  0  0  0  0  0  0  0  0  0  0  0
    2.5834   18.9684   39.7469 C   0  0  0  0  0  0  0  0  0  0  0  0
    1.5925   18.0119   39.7912 O   0  0  0  0  0  0  0  0  0  0  0  0
    3.4877   18.8143   38.8731 O   0  0  0  0  0  0  0  0  0  0  0  0
    4.4007   20.9250   39.8298 H   0  0  0  0  0  0  0  0  0  0  0  0
    0.8213   19.5482   41.6763 H   0  0  0  0  0  0  0  0  0  0  0  0
    0.8744   21.5176   43.2304 H   0  0  0  0  0  0  0  0  0  0  0  0
    2.7159   23.0836   42.9763 H   0  0  0  0  0  0  0  0  0  0  0  0
  1  2  1  0
  1  6  2  0
  2  3  2  0
  3  4  1  0
  3  7  1  0
  4  5  2  0
  5  6  1  0
  7  8  1  0
  7  9  2  0
  2 10  1  0
  4 11  1  0
  5 12  1  0
  6 13  1  0
M  CHG  1   8  -1
M  END
>  <mol_id>  (56) 
2026-09-18-3war-s0-n100-r7-0056

>  <rmsd_to_ref>  (56) 
2.979591836734876

>  <pose_kind>  (56) 
conformer

$$$$
3war.A
     RDKit          3D

 13 13  0  0  0  0  0  0  0  0999 V2000
    1.1850   23.0562   40.6455 N   0  0  0  0  0  0  0  0  0  0  0  0
    1.1346   21.8139   39.9686 C   0  0  0  0  0  0  0  0  0  0  0  0
    2.3782   21.1012   39.8111 C   0  0  0  0  0  0  0  0  0  0  0  0
    3.5644   21.6351   40.2823 C   0  0  0  0  0  0  0  0  0  0  0  0
    3.5619   22.8352   40.9589 C   0  0  0  0  0  0  0  0  0  0  0  0
    2.3858   23.5369   41.1008 C   0  0  0  0  0  0  0  0  0  0  0  0
    2.4128   19.8076   39.0110 C   0  0  0  0  0  0  0  0  0  0  0  0
    1.3140   19.2502   38.7202 O   0  0  0  0  0  0  0  0  0  0  0  0
    3.5236   19.4271   38.7104 O   0  0  0  0  0  0  0  0  0  0  0  0
    0.1882   21.4100   39.5798 H   0  0  0  0  0  0  0  0  0  0  0  0
    4.5113   21.1004   40.1164 H   0  0  0  0  0  0  0  0  0  0  0  0
    4.4959   23.2312   41.3841 H   0  0  0  0  0  0  0  0  0  0  0  0
    2.4104   24.5183   41.5971 H   0  0  0  0  0  0  0  0  0  0  0  0
  1  2  1  0
  1  6  2  0
  2  3  2  0
  3  4  1  0
  3  7  1  0
  4  5  2  0
  5  6  1  0
  7  8  1  0
  7  9  2  0
  2 10  1  0
  4 11  1  0
  5 12  1  0
  6 13  1  0
M  CHG  1   8  -1
M  END
>  <mol_id>  (57) 
2026-09-18-3war-s0-n100-r7-0057

>  <rmsd_to_ref>  (57) 
3.025510204084633

>  <pose_kind>  (57) 
rigid

$$$$
3war.A
     RDKit          3D

 13 13  0  0  0  0  0  0  0  0999 V2000
   -0.2216   21.4326   40.9338 N   0  0  0  0  0  0  0  0  0  0  0  0
    1.0504   20.9819   41.1197 C   0  0  0  0  0  0  0  0  0  0  0  0
    1.7934   20.5081   40.0564 C   0  0  0  0  0  0  0  0  0  0  0  0
    1.2825   20.4717   38.7717 C   0  0  0  0  0  0  0  0  0  0  0  0
   -0.0262   20.9415   38.6141 C   0  0  0  0  0  0  0  0  0  0  0  0
   -0.7616   21.4138   39.6848 C   0  0  0  0  0  0  0  0  0  0  0  0
    3.1554   20.0275   40.2675 C   0  0  0  0  0  0  0  0  0  0  0  0
    3.7721   20.0131   41.4938 O   0  0  0  0  0  0  0  0  0  0  0  0
    3.7776   19.6048   39.2328 O   0  0  0  0  0  0  0  0  0  0  0  0
    1.4513   21.0133   42.1440 H   0  0  0  0  0  0  0  0  0  0  0  0
    1.8458   20.1050   37.9238 H   0  0  0  0  0  0  0  0  0  0  0  0
   -0.4291   20.9177   37.6283 H   0  0  0  0  0  0  0  0  0  0  0  0
   -1.7766   21.7770   39.5564 H   0  0  0  0  0  0  0  0  0  0  0  0
  1  2  1  0
  1  6  2  0
  2  3  2  0
  3  4  1  0
  3  7  1  0
  4  5  2  0
  5  6  1  0
  7  8  1  0
  7  9  2  0
  2 10  1  0
  4 11  1  0
  5 12  1  0
  6 13  1  0
M  CHG  1   8  -1
M  END
>  <mol_id>  (58) 
2026-09-18-3war-s0-n100-r7-0058

>  <rmsd_to_ref>  (58) 
3.07142857142981

>  <pose_kind>  (58) 
conformer

$$$$
3war.A
     RDKit          3D

 13 13  0  0  0  0  0  0  0  0999 V2000
    0.9449   21.7726   41.8183 N   0  0  0  0  0  0  0  0  0  0  0  0
    2.2934   21.4133   41.5808 C   0  0  0  0  0  0  0  0  0  0  0  0
    2.5282   20.2400   40.7761 C   0  0  0  0  0  0  0  0  0  0  0  0
    1.4706   19.4933   40.2882 C   0  0  0  0  0  0  0  0  0  0  0  0
    0.1740   19.8959   40.5220 C   0  0  0  0  0  0  0  0  0  0  0  0
   -0.0670   21.0030   41.3044 C   0  0  0  0  0  0  0  0  0  0  0  0
    3.9496   19.7421   40.5610 C   0  0  0  0  0  0  0  0  0  0  0  0
    4.9090   20.5067   40.8735 O   0  0  0  0  0  0  0  0  0  0  0  0
    4.0309   18.6217   40.1057 O   0  0  0  0  0  0  0  0  0  0  0  0
    3.1257   22.0033   41.9921 H   0  0  0  0  0  0  0  0  0  0  0  0
    1.6653   18.5765   39.7125 H   0  0  0  0  0  0  0  0  0  0  0  0
   -0.6656   19.3351   40.0854 H   0  0  0  0  0  0  0  0  0  0  0  0
   -1.1084   21.2800   41.5250 H   0  0  0  0  0  0  0  0  0  0  0  0
  1  2  1  0
  1  6  2  0
  2  3  2  0
  3  4  1  0
  3  7  1  0
  4  5  2  0
  5  6  1  0
  7  8  1  0
  7  9  2  0
  2 10  1  0
  4 11  1  0
  5 12  1  0
  6 13  1  0
M  CHG  1   8  -1
M  END
>  <mol_id>  (59) 
2026-09-18-3war-s0-n100-r7-0059

>  <rmsd_to_ref>  (59) 
3.11734693877581

>  <pose_kind>  (59) 
rigid

$$$$
3war.A
     RDKit          3D

 13 13  0  0  0  0  0  0  0  0999 V2000
    1.6405   18.4676   38.8514 N   0  0  0  0  0  0  0  0  0  0  0  0
    2.0050   18.5394   37.5511 C   0  0  0  0  0  0  0  0  0  0  0  0
    2.8514   17.5903   37.0018 C   0  0  0  0  0  0  0  0  0  0  0  0
    3.3319   16.5505   37.7992 C   0  0  0  0  0  0  0  0  0  0  0  0
    2.9495   16.4863   39.1391 C   0  0  0  0  0  0  0  0  0  0  0  0
    2.0981   17.4646   39.6394 C   0  0  0  0  0  0  0  0  0  0  0  0
    3.2012   17.7282   35.6011 C   0  0  0  0  0  0  0  0  0  0  0  0
    4.0578   16.7609   35.0599 O   0  0  0  0  0  0  0  0  0  0  0  0
    2.8008   18.6346   34.8479 O   0  0  0  0  0  0  0  0  0  0  0  0
    1.6067   19.3701   36.9592 H   0  0  0  0  0  0  0  0  0  0  0  0
    3.9879   15.8155   37.3724 H   0  0  0  0  0  0  0  0  0  0  0  0
    3.3152   15.6829   39.7727 H   0  0  0  0  0  0  0  0  0  0  0  0
    1.8154   17.3919   40.6857 H   0  0  0  0  0  0  0  0  0  0  0  0
  1  2  1  0
  1  6  2  0
  2  3  2  0
  3  4  1  0
  3  7  1  0
  4  5  2  0
  5  6  1  0
  7  8  1  0
  7  9  2  0
  2 10  1  0
  4 11  1  0
  5 12  1  0
  6 13  1  0
M  CHG  1   8  -1
M  END
>  <mol_id>  (60) 
2026-09-18-3war-s0-n100-r7-0060

>  <rmsd_to_ref>  (60) 
3.163265306123651

>  <pose_kind>  (60) 
conformer

$$$$
3war.A
     RDKit          3D

 13 13  0  0  0  0  0  0  0  0999 V2000
    0.8207   17.3727   37.5346 N   0  0  0  0  0  0  0  0  0  0  0  0
    0.4346   18.7019   37.2376 C   0  0  0  0  0  0  0  0  0  0  0  0
    0.8064   19.7212   38.1874 C   0  0  0  0  0  0  0  0  0  0  0  0
    1.4864   19.3939   39.3469 C   0  0  0  0  0  0  0  0  0  0  0  0
    1.8653   18.0904   39.5817 C   0  0  0  0  0  0  0  0  0  0  0  0
    1.5014   17.1028   38.6940 C   0  0  0  0  0  0  0  0  0  0  0  0
    0.3414   21.1548   37.9793 C   0  0  0  0  0  0  0  0  0  0  0  0
   -0.1396   21.4742   36.8527 O   0  0  0  0  0  0  0  0  0  0  0  0
    0.4710   21.8751   38.9457 O   0  0  0  0  0  0  0  0  0  0  0  0
   -0.1246   18.9464   36.3224 H   0  0  0  0  0  0  0  0  0  0  0  0
    1.7249   20.1760   40.0828 H   0  0  0  0  0  0  0  0  0  0  0  0
    2.4564   17.8395   40.4748 H   0  0  0  0  0  0  0  0  0  0  0  0
    1.7661   16.0600   38.9230 H   0  0  0  0  0  0  0  0  0  0  0  0
  1  2  1  0
  1  6  2  0
  2  3  2  0
  3  4  1  0
  3  7  1  0
  4  5  2  0
  5  6  1  0
  7  8  1  0
  7  9  2  0
  2 10  1  0
  4 11  1  0
  5 12  1  0
  6 13  1  0
M  CHG  1   8  -1
M  END
>  <mol_id>  (61) 
2026-09-18-3war-s0-n100-r7-0061

>  <rmsd_to_ref>  (61) 
3.2091836734716366

>  <pose_kind>  (61) 
rigid

$$$$
3war.A
     RDKit          3D

 13 13  0  0  0  0  0  0  0  0999 V2000
   -0.8745   18.5556   37.3704 N   0  0  0  0  0  0  0  0  0  0  0  0
   -0.0177   19.6002   37.4008 C   0  0  0  0  0  0  0  0  0  0  0  0
    0.6252   19.8699   38.5953 C   0  0  0  0  0  0  0  0  0  0  0  0
    0.4181   19.1162   39.7307 C   0  0  0  0  0  0  0  0  0  0  0  0
   -0.4683   18.0511   39.6639 C   0  0  0  0  0  0  0  0  0  0  0  0
   -1.0968   17.8022   38.4624 C   0  0  0  0  0  0  0  0  0  0  0  0
    1.5575   20.9936   38.6576 C   0  0  0  0  0  0  0  0  0  0  0  0
    1.7988   21.7821   37.5389 O   0  0  0  0  0  0  0  0  0  0  0  0
    2.1498   21.2461   39.7493 O   0  0  0  0  0  0  0  0  0  0  0  0
    0.1718   20.2146   36.5334 H   0  0  0  0  0  0  0  0  0  0  0  0
    0.9406   19.3621   40.6408 H   0  0  0  0  0  0  0  0  0  0  0  0
   -0.6649   17.4323   40.5216 H   0  0  0  0  0  0  0  0  0  0  0  0
   -1.8048   16.9699   38.3671 H   0  0  0  0  0  0  0  0  0  0  0  0
  1  2  1  0
  1  6  2  0
  2  3  2  0
  3  4  1  0
  3  7  1  0
  4  5  2  0
  5  6  1  0
  7  8  1  0
  7  9  2  0
  2 10  1  0
  4 11  1  0
  5 12  1  0
  6 13  1  0
M  CHG  1   8  -1
M  END
>  <mol_id>  (62) 
2026-09-18-3war-s0-n100-r7-0062

>  <rmsd_to_ref>  (62) 
3.2551020408171714

>  <pose_kind>  (62) 
conformer

$$$$
3war.A
     RDKit          3D

 13 13  0  0  0  0  0  0  0  0999 V2000
    3.7104   22.3416   41.2337 N   0  0  0  0  0  0  0  0  0  0  0  0
    3.0505   21.1012   41.0606 C   0  0  0  0  0  0  0  0  0  0  0  0
    3.2394   20.4275   39.7997 C   0  0  0  0  0  0  0  0  0  0  0  0
    4.0125   20.9954   38.8027 C   0  0  0  0  0  0  0  0  0  0  0  0
    4.6579   22.1919   39.0254 C   0  0  0  0  0  0  0  0  0  0  0  0
    4.4724   22.8568   40.2167 C   0  0  0  0  0  0  0  0  0  0  0  0
    2.4842   19.1389   39.5098 C   0  0  0  0  0  0  0  0  0  0  0  0
    1.9085   18.5494   40.4709 O   0  0  0  0  0  0  0  0  0  0  0  0
    2.4979   18.7937   38.3480 O   0  0  0  0  0  0  0  0  0  0  0  0
    2.4212   20.6702   41.8532 H   0  0  0  0  0  0  0  0  0  0  0  0
    4.1120   20.4905   37.8305 H   0  0  0  0  0  0  0  0  0  0  0  0
    5.3189   22.6145   38.2544 H   0  0  0  0  0  0  0  0  0  0  0  0
    4.9526   23.8364   40.3577 H   0  0  0  0  0  0  0  0  0  0  0  0
  1  2  1  0
  1  6  2  0
  2  3  2  0
  3  4  1  0
  3  7  1  0
  4  5  2  0
  5  6  1  0
  7  8  1  0
  7  9  2  0
  2 10  1  0
  4 11  1  0
  5 12  1  0
  6 13  1  0
M  CHG  1   8  -1
M  END
>  <mol_id>  (63) 
2026-09-18-3war-s0-n100-r7-0063

>  <rmsd_to_ref>  (63) 
3.301020408164125

>  <pose_kind>  (63) 
rigid

$$$$
3war.A
     RDKit          3D

 13 13  0  0  0  0  0  0  0  0999 V2000
    3.7036   20.0339   37.9036 N   0  0  0  0  0  0  0  0  0  0  0  0
    2.8431   19.0066   37.9502 C   0  0  0  0  0  0  0  0  0  0  0  0
    1.6708   19.1183   37.2311 C   0  0  0  0  0  0  0  0  0  0  0  0
    1.4040   20.2670   36.4857 C   0  0  0  0  0  0  0  0  0  0  0  0
    2.3311   21.3081   36.4696 C   0  0  0  0  0  0  0  0  0  0  0  0
    3.4948   21.1606   37.2024 C   0  0  0  0  0  0  0  0  0  0  0  0
    0.7196   18.0053   37.2710 C   0  0  0  0  0  0  0  0  0  0  0  0
   -0.4737   18.0968   36.5505 O   0  0  0  0  0  0  0  0  0  0  0  0
    0.9269   16.9560   37.9314 O   0  0  0  0  0  0  0  0  0  0  0  0
    3.0146   18.1065   38.5132 H   0  0  0  0  0  0  0  0  0  0  0  0
    0.4662   20.3468   35.9155 H   0  0  0  0  0  0  0  0  0  0  0  0
    2.1529   22.2039   35.9051 H   0  0  0  0  0  0  0  0  0  0  0  0
    4.2606   21.9229   37.2395 H   0  0  0  0  0  0  0  0  0  0  0  0
  1  2  1  0
  1  6  2  0
  2  3  2  0
  3  4  1  0
  3  7  1  0
  4  5  2  0
  5  6  1  0
  7  8  1  0
  7  9  2  0
  2 10  1  0
  4 11  1  0
  5 12  1  0
  6 13  1  0
M  CHG  1   8  -1
M  END
>  <mol_id>  (64) 
2026-09-18-3war-s0-n100-r7-0064

>  <rmsd_to_ref>  (64) 
3.3469387755134337

>  <pose_kind>  (64) 
conformer

$$$$
3war.A
     RDKit          3D

 13 13  0  0  0  0  0  0  0  0999 V2000
    3.8501   22.2392   38.0061 N   0  0  0  0  0  0  0  0  0  0  0  0
    3.5104   20.8771   38.1891 C   0  0  0  0  0  0  0  0  0  0  0  0
    2.4807   20.3371   37.3363 C   0  0  0  0  0  0  0  0  0  0  0  0
    1.8429   21.1359   36.4039 C   0  0  0  0  0  0  0  0  0  0  0  0
    2.2249   22.4496   36.2422 C   0  0  0  0  0  0  0  0  0  0  0  0
    3.1932   22.9853   37.0616 C   0  0  0  0  0  0  0  0  0  0  0  0
    1.9993   18.9087   37.5428 C   0  0  0  0  0  0  0  0  0  0  0  0
    2.6852   18.1433   38.2820 O   0  0  0  0  0  0  0  0  0  0  0  0
    0.9673   18.6336   36.9696 O   0  0  0  0  0  0  0  0  0  0  0  0
    4.0102   20.2578   38.9486 H   0  0  0  0  0  0  0  0  0  0  0  0
    1.0294   20.7213   35.7906 H   0  0  0  0  0  0  0  0  0  0  0  0
    1.7582   23.0683   35.4615 H   0  0  0  0  0  0  0  0  0  0  0  0
    3.4489   24.0498   36.9547 H   0  0  0  0  0  0  0  0  0  0  0  0
  1  2  1  0
  1  6  2  0
  2  3  2  0
  3  4  1  0
  3  7  1  0
  4  5  2  0
  5  6  1  0
  7  8  1  0
  7  9  2  0
  2 10  1  0
  4 11  1  0
  5 12  1  0
  6 13  1  0
M  CHG  1   8  -1
M  END
>  <mol_id>  (65) 
2026-09-18-3war-s0-n100-r7-0065

>  <rmsd_to_ref>  (65) 
3.392857142859759

>  <pose_kind>  (65) 
rigid

$$$$
3war.A
     RDKit          3D

 13 13  0  0  0  0  0  0  0  0999 V2000
    3.2926   18.2027   38.0648 N   0  0  0  0  0  0  0  0  0  0  0  0
    2.8475   19.3883   37.6111 C   0  0  0  0  0  0  0  0  0  0  0  0
    3.7214   20.2954   37.0481 C   0  0  0  0  0  0  0  0  0  0  0  0
    5.0702   20.0230   36.9307 C   0  0  0  0  0  0  0  0  0  0  0  0
    5.4889   18.7908   37.4100 C   0  0  0  0  0  0  0  0  0  0  0  0
    4.6107   17.8803   37.9754 C   0  0  0  0  0  0  0  0  0  0  0  0
    3.2271   21.5787   36.5592 C   0  0  0  0  0  0  0  0  0  0  0  0
    1.8610   21.8801   36.6667 O   0  0  0  0  0  0  0  0  0  0  0  0
    4.0279   22.4021   36.0468 O   0  0  0  0  0  0  0  0  0  0  0  0
    1.7874   19.6630   37.6761 H   0  0  0  0  0  0  0  0  0  0  0  0
    5.7792   20.7257   36.4887 H   0  0  0  0  0  0  0  0  0  0  0  0
    6.5439   18.5096   37.3487 H   0  0  0  0  0  0  0  0  0  0  0  0
    4.9731   16.9251   38.3403 H   0  0  0  0  0  0  0  0  0  0  0  0
  1  2  1  0
  1  6  2  0
  2  3  2  0
  3  4  1  0
  3  7  1  0
  4  5  2  0
  5  6  1  0
  7  8  1  0
  7  9  2  0
  2 10  1  0
  4 11  1  0
  5 12  1  0
  6 13  1  0
M  CHG  1   8  -1
M  END
>  <mol_id>  (66) 
2026-09-18-3war-s0-n100-r7-0066

>  <rmsd_to_ref>  (66) 
3.4387755102043602

>  <pose_kind>  (66) 
conformer

$$$$
3war.A
     RDKit          3D

 13 13  0  0  0  0  0  0  0  0999 V2000
    1.8533   22.7651   39.1749 N   0  0  0  0  0  0  0  0  0  0  0  0
    1.9061   21.3507   39.2010 C   0  0  0  0  0  0  0  0  0  0  0  0
    0.6543   20.6497   39.3457 C   0  0  0  0  0  0  0  0  0  0  0  0
   -0.5345   21.3445   39.4800 C   0  0  0  0  0  0  0  0  0  0  0  0
   -0.5412   22.7209   39.4221 C   0  0  0  0  0  0  0  0  0  0  0  0
    0.6476   23.4054   39.3034 C   0  0  0  0  0  0  0  0  0  0  0  0
    0.6469   19.1339   39.4773 C   0  0  0  0  0  0  0  0  0  0  0  0
    1.7072   18.5004   39.1999 O   0  0  0  0  0  0  0  0  0  0  0  0
   -0.4038   18.6632   39.8565 O   0  0  0  0  0  0  0  0  0  0  0  0
    2.8602   20.8101   39.1146 H   0  0  0  0  0  0  0  0  0  0  0  0
   -1.4761   20.7969   39.6333 H   0  0  0  0  0  0  0  0  0  0  0  0
   -1.4925   23.2710   39.4705 H   0  0  0  0  0  0  0  0  0  0  0  0
    0.6294   24.5052   39.3120 H   0  0  0  0  0  0  0  0  0  0  0  0
  1  2  1  0
  1  6  2  0
  2  3  2  0
  3  4  1  0
  3  7  1  0
  4  5  2  0
  5  6  1  0
  7  8  1  0
  7  9  2  0
  2 10  1  0
  4 11  1  0
  5 12  1  0
  6 13  1  0
M  CHG  1   8  -1
M  END
>  <mol_id>  (67) 
2026-09-18-3war-s0-n100-r7-0067

>  <rmsd_to_ref>  (67) 
3.4846938775512775

>  <pose_kind>  (67) 
rigid

$$$$
3war.A
     RDKit          3D

 13 13  0  0  0  0  0  0  0  0999 V2000
    0.5024   20.9561   36.9729 N   0  0  0  0  0  0  0  0  0  0  0  0
    1.5957   21.5773   37.4555 C   0  0  0  0  0  0  0  0  0  0  0  0
    1.7377   21.7161   38.8212 C   0  0  0  0  0  0  0  0  0  0  0  0
    0.7712   21.2240   39.6728 C   0  0  0  0  0  0  0  0  0  0  0  0
   -0.3471   20.5885   39.1763 C   0  0  0  0  0  0  0  0  0  0  0  0
   -0.4369   20.4775   37.7932 C   0  0  0  0  0  0  0  0  0  0  0  0
    2.9239   22.3902   39.3447 C   0  0  0  0  0  0  0  0  0  0  0  0
    3.1245   22.5605   40.6973 O   0  0  0  0  0  0  0  0  0  0  0  0
    3.8186   22.8465   38.5725 O   0  0  0  0  0  0  0  0  0  0  0  0
    2.3437   21.9572   36.7730 H   0  0  0  0  0  0  0  0  0  0  0  0
    0.8873   21.3346   40.7239 H   0  0  0  0  0  0  0  0  0  0  0  0
   -1.1362   20.1829   39.7883 H   0  0  0  0  0  0  0  0  0  0  0  0
   -1.2869   19.9924   37.3698 H   0  0  0  0  0  0  0  0  0  0  0  0
  1  2  1  0
  1  6  2  0
  2  3  2  0
  3  4  1  0
  3  7  1  0
  4  5  2  0
  5  6  1  0
  7  8  1  0
  7  9  2  0
  2 10  1  0
  4 11  1  0
  5 12  1  0
  6 13  1  0
M  CHG  1   8  -1
M  END
>  <mol_id>  (68) 
2026-09-18-3war-s0-n100-r7-0068

>  <rmsd_to_ref>  (68) 
3.5306122449008117

>  <pose_kind>  (68) 
conformer

$$$$
3war.A
     RDKit          3D

 13 13  0  0  0  0  0  0  0  0999 V2000
    0.7119   18.0849   38.0412 N   0  0  0  0  0  0  0  0  0  0  0  0
    1.4888   19.0306   38.7524 C   0  0  0  0  0  0  0  0  0  0  0  0
    0.9266   19.5588   39.9707 C   0  0  0  0  0  0  0  0  0  0  0  0
   -0.3304   19.1688   40.3974 C   0  0  0  0  0  0  0  0  0  0  0  0
   -1.0397   18.2252   39.6871 C   0  0  0  0  0  0  0  0  0  0  0  0
   -0.5249   17.7255   38.5119 C   0  0  0  0  0  0  0  0  0  0  0  0
    1.6642   20.6488   40.7341 C   0  0  0  0  0  0  0  0  0  0  0  0
    2.8698   20.8865   40.4295 O   0  0  0  0  0  0  0  0  0  0  0  0
    1.0036   21.2101   41.5814 O   0  0  0  0  0  0  0  0  0  0  0  0
    2.4781   19.3487   38.3916 H   0  0  0  0  0  0  0  0  0  0  0  0
   -0.7642   19.6129   41.3054 H   0  0  0  0  0  0  0  0  0  0  0  0
   -2.0135   17.8723   40.0575 H   0  0  0  0  0  0  0  0  0  0  0  0
   -1.1273   17.0126   37.9298 H   0  0  0  0  0  0  0  0  0  0  0  0
  1  2  1  0
  1  6  2  0
  2  3  2  0
  3  4  1  0
  3  7  1  0
  4  5  2  0
  5  6  1  0
  7  8  1  0
  7  9  2  0
  2 10  1  0
  4 11  1  0
  5 12  1  0
  6 13  1  0
M  CHG  1   8  -1
M  END
>  <mol_id>  (69) 
2026-09-18-3war-s0-n100-r7-0069

>  <rmsd_to_ref>  (69) 
3.576530612248224

>  <pose_kind>  (69) 
rigid

$$$$
3war.A
     RDKit          3D

 13 13  0  0  0  0  0  0  0  0999 V2000
   -1.8104   18.0151   39.0252 N   0  0  0  0  0  0  0  0  0  0  0  0
   -0.7059   18.6603   38.6078 C   0  0  0  0  0  0  0  0  0  0  0  0
    0.4805   17.9544   38.5671 C   0  0  0  0  0  0  0  0  0  0  0  0
    0.5321   16.6273   38.9430 C   0  0  0  0  0  0  0  0  0  0  0  0
   -0.6349   15.9941   39.3699 C   0  0  0  0  0  0  0  0  0  0  0  0
   -1.8065   16.7236   39.4006 C   0  0  0  0  0  0  0  0  0  0  0  0
    1.7049   18.6152   38.1203 C   0  0  0  0  0  0  0  0  0  0  0  0
    1.6715   19.9535   37.7373 O   0  0  0  0  0  0  0  0  0  0  0  0
    2.7855   17.9841   38.0798 O   0  0  0  0  0  0  0  0  0  0  0  0
   -0.7245   19.7027   38.3079 H   0  0  0  0  0  0  0  0  0  0  0  0
    1.4757   16.0903   38.9036 H   0  0  0  0  0  0  0  0  0  0  0  0
   -0.6255   14.9664   39.6674 H   0  0  0  0  0  0  0  0  0  0  0  0
   -2.6909   16.1960   39.7380 H   0  0  0  0  0  0  0  0  0  0  0  0
  1  2  1  0
  1  6  2  0
  2  3  2  0
  3  4  1  0
  3  7  1  0
  4  5  2  0
  5  6  1  0
  7  8  1  0
  7  9  2  0
  2 10  1  0
  4 11  1  0
  5 12  1  0
  6 13  1  0
M  CHG  1   8  -1
M  END
>  <mol_id>  (70) 
2026-09-18-3war-s0-n100-r7-0070

>  <rmsd_to_ref>  (70) 
3.6224489795932024

>  <pose_kind>  (70) 
conformer

$$$$
3war.A
     RDKit          3D

 13 13  0  0  0  0  0  0  0  0999 V2000
   -0.7596   19.1041   38.1956 N   0  0  0  0  0  0  0  0  0  0  0  0
   -0.1111   18.2087   39.0799 C   0  0  0  0  0  0  0  0  0  0  0  0
    1.3281   18.1484   39.0143 C   0  0  0  0  0  0  0  0  0  0  0  0
    2.0278   18.9181   38.1021 C   0  0  0  0  0  0  0  0  0  0  0  0
    1.3567   19.7957   37.2791 C   0  0  0  0  0  0  0  0  0  0  0  0
   -0.0186   19.8511   37.3163 C   0  0  0  0  0  0  0  0  0  0  0  0
    2.0827   17.1399   39.8676 C   0  0  0  0  0  0  0  0  0  0  0  0
    1.4593   16.5557   40.8018 O   0  0  0  0  0  0  0  0  0  0  0  0
    3.2430   16.9795   39.5558 O   0  0  0  0  0  0  0  0  0  0  0  0
   -0.6802   17.5863   39.7861 H   0  0  0  0  0  0  0  0  0  0  0  0
    3.1221   18.8293   38.0339 H   0  0  0  0  0  0  0  0  0  0  0  0
    1.9173   20.4495   36.5949 H   0  0  0  0  0  0  0  0  0  0  0  0
   -0.5416   20.5186   36.6156 H   0  0  0  0  0  0  0  0  0  0  0  0
  1  2  1  0
  1  6  2  0
  2  3  2  0
  3  4  1  0
  3  7  1  0
  4  5  2  0
  5  6  1  0
  7  8  1  0
  7  9  2  0
  2 10  1  0
  4 11  1  0
  5 12  1  0
  6 13  1  0
M  CHG  1   8  -1
M  END
>  <mol_id>  (71) 
2026-09-18-3war-s0-n100-r7-0071

>  <rmsd_to_ref>  (71) 
3.6683673469390983

>  <pose_kind>  (71) 
rigid

$$$$
3war.A
     RDKit          3D

 13 13  0  0  0  0  0  0  0  0999 V2000
    0.9484   17.1537   38.3898 N   0  0  0  0  0  0  0  0  0  0  0  0
    1.7468   17.3080   39.4707 C   0  0  0  0  0  0  0  0  0  0  0  0
    1.5642   18.3899   40.3090 C   0  0  0  0  0  0  0  0  0  0  0  0
    0.5734   19.3237   40.0609 C   0  0  0  0  0  0  0  0  0  0  0  0
   -0.2470   19.1536   38.9391 C   0  0  0  0  0  0  0  0  0  0  0  0
   -0.0392   18.0485   38.1077 C   0  0  0  0  0  0  0  0  0  0  0  0
    2.4151   18.5696   41.4757 C   0  0  0  0  0  0  0  0  0  0  0  0
    3.4244   17.6318   41.7413 O   0  0  0  0  0  0  0  0  0  0  0  0
    2.2848   19.5238   42.2508 O   0  0  0  0  0  0  0  0  0  0  0  0
    2.5350   16.6094   39.7108 H   0  0  0  0  0  0  0  0  0  0  0  0
    0.3980   20.1765   40.6850 H   0  0  0  0  0  0  0  0  0  0  0  0
   -1.0359   19.8608   38.7065 H   0  0  0  0  0  0  0  0  0  0  0  0
   -0.6611   17.8985   37.2368 H   0  0  0  0  0  0  0  0  0  0  0  0
  1  2  1  0
  1  6  2  0
  2  3  2  0
  3  4  1  0
  3  7  1  0
  4  5  2  0
  5  6  1  0
  7  8  1  0
  7  9  2  0
  2 10  1  0
  4 11  1  0
  5 12  1  0
  6 13  1  0
M  CHG  1   8  -1
M  END
>  <mol_id>  (72) 
2026-09-18-3war-s0-n100-r7-0072

>  <rmsd_to_ref>  (72) 
3.7142857142889047

>  <pose_kind>  (72) 
conformer

$$$$
3war.A
     RDKit          3D

 13 13  0  0  0  0  0  0  0  0999 V2000
    5.1257   18.1235   37.5038 N   0  0  0  0  0  0  0  0  0  0  0  0
    3.7253   18.1679   37.7063 C   0  0  0  0  0  0  0  0  0  0  0  0
    2.9913   19.1855   36.9955 C   0  0  0  0  0  0  0  0  0  0  0  0
    3.6457   20.0887   36.1770 C   0  0  0  0  0  0  0  0  0  0  0  0
    5.0069   19.9909   35.9887 C   0  0  0  0  0  0  0  0  0  0  0  0
    5.7246   19.0370   36.6749 C   0  0  0  0  0  0  0  0  0  0  0  0
    1.4988   19.3516   37.2398 C   0  0  0  0  0  0  0  0  0  0  0  0
    0.8849   18.4352   37.8610 O   0  0  0  0  0  0  0  0  0  0  0  0
    1.0267   20.3825   36.8113 O   0  0  0  0  0  0  0  0  0  0  0  0
    3.2193   17.4574   38.3764 H   0  0  0  0  0  0  0  0  0  0  0  0
    3.0781   20.8864   35.6755 H   0  0  0  0  0  0  0  0  0  0  0  0
    5.5185   20.6722   35.2930 H   0  0  0  0  0  0  0  0  0  0  0  0
    6.8175   19.0066   36.5538 H   0  0  0  0  0  0  0  0  0  0  0  0
  1  2  1  0
  1  6  2  0
  2  3  2  0
  3  4  1  0
  3  7  1  0
  4  5  2  0
  5  6  1  0
  7  8  1  0
  7  9  2  0
  2 10  1  0
  4 11  1  0
  5 12  1  0
  6 13  1  0
M  CHG  1   8  -1
M  END
>  <mol_id>  (73) 
2026-09-18-3war-s0-n100-r7-0073

>  <rmsd_to_ref>  (73) 
3.760204081632757

>  <pose_kind>  (73) 
rigid

$$$$
3war.A
     RDKit          3D

 13 13  0  0  0  0  0  0  0  0999 V2000
    2.1462   18.8468   38.4088 N   0  0  0  0  0  0  0  0  0  0  0  0
    0.9100   18.4999   38.8114 C   0  0  0  0  0  0  0  0  0  0  0  0
   -0.0488   19.4758   39.0422 C   0  0  0  0  0  0  0  0  0  0  0  0
    0.2567   20.8100   38.8612 C   0  0  0  0  0  0  0  0  0  0  0  0
    1.5422   21.1630   38.4431 C   0  0  0  0  0  0  0  0  0  0  0  0
    2.4707   20.1403   38.2246 C   0  0  0  0  0  0  0  0  0  0  0  0
   -1.3957   19.1217   39.4793 C   0  0  0  0  0  0  0  0  0  0  0  0
   -1.8021   17.8276   39.6888 O   0  0  0  0  0  0  0  0  0  0  0  0
   -2.1989   20.0931   39.6626 O   0  0  0  0  0  0  0  0  0  0  0  0
    0.6236   17.4530   38.9679 H   0  0  0  0  0  0  0  0  0  0  0  0
   -0.4534   21.5924   39.0283 H   0  0  0  0  0  0  0  0  0  0  0  0
    1.8305   22.1833   38.2878 H   0  0  0  0  0  0  0  0  0  0  0  0
    3.4631   20.4533   37.8992 H   0  0  0  0  0  0  0  0  0  0  0  0
  1  2  1  0
  1  6  2  0
  2  3  2  0
  3  4  1  0
  3  7  1  0
  4  5  2  0
  5  6  1  0
  7  8  1  0
  7  9  2  0
  2 10  1  0
  4 11  1  0
  5 12  1  0
  6 13  1  0
M  CHG  1   8  -1
M  END
>  <mol_id>  (74) 
2026-09-18-3war-s0-n100-r7-0074

>  <rmsd_to_ref>  (74) 
3.8061224489815637

>  <pose_kind>  (74) 
conformer

$$$$
3war.A
     RDKit          3D

 13 13  0  0  0  0  0  0  0  0999 V2000
    0.4093   19.6630   35.6997 N   0  0  0  0  0  0  0  0  0  0  0  0
    1.2733   19.8122   36.8111 C   0  0  0  0  0  0  0  0  0  0  0  0
    0.7210   20.4244   37.9942 C   0  0  0  0  0  0  0  0  0  0  0  0
   -0.5898   20.8662   38.0163 C   0  0  0  0  0  0  0  0  0  0  0  0
   -1.4022   20.6759   36.9200 C   0  0  0  0  0  0  0  0  0  0  0  0
   -0.8846   20.1104   35.7763 C   0  0  0  0  0  0  0  0  0  0  0  0
    1.6182   20.7026   39.1911 C   0  0  0  0  0  0  0  0  0  0  0  0
    2.7622   20.1616   39.2245 O   0  0  0  0  0  0  0  0  0  0  0  0
    1.1409   21.4470   40.0202 O   0  0  0  0  0  0  0  0  0  0  0  0
    2.3199   19.4759   36.7739 H   0  0  0  0  0  0  0  0  0  0  0  0
   -0.9842   21.3705   38.9108 H   0  0  0  0  0  0  0  0  0  0  0  0
   -2.4601   20.9746   36.9583 H   0  0  0  0  0  0  0  0  0  0  0  0
   -1.5323   20.0140   34.8925 H   0  0  0  0  0  0  0  0  0  0  0  0
  1  2  1  0
  1  6  2  0
  2  3  2  0
  3  4  1  0
  3  7  1  0
  4  5  2  0
  5  6  1  0
  7  8  1  0
  7  9  2  0
  2 10  1  0
  4 11  1  0
  5 12  1  0
  6 13  1  0
M  CHG  1   8  -1
M  END
>  <mol_id>  (75) 
2026-09-18-3war-s0-n100-r7-0075

>  <rmsd_to_ref>  (75) 
3.8520408163276136

>  <pose_kind>  (75) 
rigid

$$$$
3war.A
     RDKit          3D

 13 13  0  0  0  0  0  0  0  0999 V2000
   -1.5608   19.3763   37.3966 N   0  0  0  0  0  0  0  0  0  0  0  0
   -0.2094   19.3856   37.5025 C   0  0  0  0  0  0  0  0  0  0  0  0
    0.4182   18.1947   37.8147 C   0  0  0  0  0  0  0  0  0  0  0  0
   -0.2636   17.0134   38.0202 C   0  0  0  0  0  0  0  0  0  0  0  0
   -1.6405   17.0400   37.9043 C   0  0  0  0  0  0  0  0  0  0  0  0
   -2.2667   18.2460   37.5889 C   0  0  0  0  0  0  0  0  0  0  0  0
    1.8720   18.1631   37.9378 C   0  0  0  0  0  0  0  0  0  0  0  0
    2.6306   19.3299   37.7417 O   0  0  0  0  0  0  0  0  0  0  0  0
    2.4381   17.0629   38.2250 O   0  0  0  0  0  0  0  0  0  0  0  0
    0.3689   20.2870   37.3504 H   0  0  0  0  0  0  0  0  0  0  0  0
    0.2333   16.0746   38.2664 H   0  0  0  0  0  0  0  0  0  0  0  0
   -2.2741   16.1865   38.0414 H   0  0  0  0  0  0  0  0  0  0  0  0
   -3.3445   18.3240   37.4855 H   0  0  0  0  0  0  0  0  0  0  0  0
  1  2  1  0
  1  6  2  0
  2  3  2  0
  3  4  1  0
  3  7  1  0
  4  5  2  0
  5  6  1  0
  7  8  1  0
  7  9  2  0
  2 10  1  0
  4 11  1  0
  5 12  1  0
  6 13  1  0
M  CHG  1   8  -1
M  END
>  <mol_id>  (76) 
2026-09-18-3war-s0-n100-r7-0076

>  <rmsd_to_ref>  (76) 
3.8979591836746477

>  <pose_kind>  (76) 
conformer

$$$$
3war.A
     RDKit          3D

 13 13  0  0  0  0  0  0  0  0999 V2000
    2.4760   22.3215   38.1781 N   0  0  0  0  0  0  0  0  0  0  0  0
    1.5155   21.3799   38.6197 C   0  0  0  0  0  0  0  0  0  0  0  0
    0.8993   20.5500   37.6142 C   0  0  0  0  0  0  0  0  0  0  0  0
    1.2235   20.6991   36.2775 C   0  0  0  0  0  0  0  0  0  0  0  0
    2.1839   21.6104   35.8965 C   0  0  0  0  0  0  0  0  0  0  0  0
    2.7676   22.4233   36.8421 C   0  0  0  0  0  0  0  0  0  0  0  0
   -0.2093   19.5844   38.0057 C   0  0  0  0  0  0  0  0  0  0  0  0
   -0.3902   19.3420   39.2350 O   0  0  0  0  0  0  0  0  0  0  0  0
   -0.8399   19.1322   37.0745 O   0  0  0  0  0  0  0  0  0  0  0  0
    1.2508   21.2856   39.6832 H   0  0  0  0  0  0  0  0  0  0  0  0
    0.7134   20.0890   35.5176 H   0  0  0  0  0  0  0  0  0  0  0  0
    2.4833   21.6881   34.8409 H   0  0  0  0  0  0  0  0  0  0  0  0
    3.4937   23.1817   36.5140 H   0  0  0  0  0  0  0  0  0  0  0  0
  1  2  1  0
  1  6  2  0
  2  3  2  0
  3  4  1  0
  3  7  1  0
  4  5  2  0
  5  6  1  0
  7  8  1  0
  7  9  2  0
  2 10  1  0
  4 11  1  0
  5 12  1  0
  6 13  1  0
M  CHG  1   8  -1
M  END
>  <mol_id>  (77) 
2026-09-18-3war-s0-n100-r7-0077

>  <rmsd_to_ref>  (77) 
3.94387755102137

>  <pose_kind>  (77) 
rigid

$$$$
3war.A
     RDKit          3D

 13 13  0  0  0  0  0  0  0  0999 V2000
    4.5268   21.4182   38.7463 N   0  0  0  0  0  0  0  0  0  0  0  0
    3.8988   20.2314   38.8828 C   0  0  0  0  0  0  0  0  0  0  0  0
    4.6054   19.0883   39.1937 C   0  0  0  0  0  0  0  0  0  0  0  0
    5.9721   19.1703   39.3654 C   0  0  0  0  0  0  0  0  0  0  0  0
    6.6029   20.3880   39.2235 C   0  0  0  0  0  0  0  0  0  0  0  0
    5.8615   21.5161   38.9106 C   0  0  0  0  0  0  0  0  0  0  0  0
    3.8578   17.8419   39.3251 C   0  0  0  0  0  0  0  0  0  0  0  0
    4.4773   16.6376   39.6356 O   0  0  0  0  0  0  0  0  0  0  0  0
    2.5923   17.7950   39.1607 O   0  0  0  0  0  0  0  0  0  0  0  0
    2.8148   20.1799   38.7441 H   0  0  0  0  0  0  0  0  0  0  0  0
    6.5360   18.2633   39.6126 H   0  0  0  0  0  0  0  0  0  0  0  0
    7.6819   20.4716   39.3555 H   0  0  0  0  0  0  0  0  0  0  0  0
    6.3364   22.4977   38.7916 H   0  0  0  0  0  0  0  0  0  0  0  0
  1  2  1  0
  1  6  2  0
  2  3  2  0
  3  4  1  0
  3  7  1  0
  4  5  2  0
  5  6  1  0
  7  8  1  0
  7  9  2  0
  2 10  1  0
  4 11  1  0
  5 12  1  0
  6 13  1  0
M  CHG  1   8  -1
M  END
>  <mol_id>  (78) 
2026-09-18-3war-s0-n100-r7-0078

>  <rmsd_to_ref>  (78) 
3.9897959183678005

>  <pose_kind>  (78) 
conformer

$$$$
3war.A
     RDKit          3D

 13 13  0  0  0  0  0  0  0  0999 V2000
    5.6792   19.0860   36.0116 N   0  0  0  0  0  0  0  0  0  0  0  0
    4.6885   18.1875   36.4755 C   0  0  0  0  0  0  0  0  0  0  0  0
    3.8178   18.6554   37.5254 C   0  0  0  0  0  0  0  0  0  0  0  0
    3.9750   19.9199   38.0642 C   0  0  0  0  0  0  0  0  0  0  0  0
    4.9359   20.7704   37.5630 C   0  0  0  0  0  0  0  0  0  0  0  0
    5.7874   20.3320   36.5739 C   0  0  0  0  0  0  0  0  0  0  0  0
    2.7943   17.7102   38.1369 C   0  0  0  0  0  0  0  0  0  0  0  0
    2.5513   16.6195   37.5419 O   0  0  0  0  0  0  0  0  0  0  0  0
    2.3005   18.0994   39.1732 O   0  0  0  0  0  0  0  0  0  0  0  0
    4.5872   17.1767   36.0535 H   0  0  0  0  0  0  0  0  0  0  0  0
    3.3315   20.2469   38.8943 H   0  0  0  0  0  0  0  0  0  0  0  0
    5.0226   21.7958   37.9516 H   0  0  0  0  0  0  0  0  0  0  0  0
    6.5830   21.0053   36.2220 H   0  0  0  0  0  0  0  0  0  0  0  0
  1  2  1  0
  1  6  2  0
  2  3  2  0
  3  4  1  0
  3  7  1  0
  4  5  2  0
  5  6  1  0
  7  8  1  0
  7  9  2  0
  2 10  1  0
  4 11  1  0
  5 12  1  0
  6 13  1  0
M  CHG  1   8  -1
M  END
>  <mol_id>  (79) 
2026-09-18-3war-s0-n100-r7-0079

>  <rmsd_to_ref>  (79) 
4.035714285715414

>  <pose_kind>  (79) 
rigid

$$$$
3war.A
     RDKit          3D

 13 13  0  0  0  0  0  0  0  0999 V2000
    1.6405   17.3882   36.7256 N   0  0  0  0  0  0  0  0  0  0  0  0
    2.3419   18.3087   37.4175 C   0  0  0  0  0  0  0  0  0  0  0  0
    3.6214   18.6167   37.0722 C   0  0  0  0  0  0  0  0  0  0  0  0
    4.1866   17.9649   35.9963 C   0  0  0  0  0  0  0  0  0  0  0  0
    3.4989   17.0117   35.2585 C   0  0  0  0  0  0  0  0  0  0  0  0
    2.1879   16.7458   35.6704 C   0  0  0  0  0  0  0  0  0  0  0  0
    4.4296   19.6178   37.7997 C   0  0  0  0  0  0  0  0  0  0  0  0
    3.8836   20.2857   38.8841 O   0  0  0  0  0  0  0  0  0  0  0  0
    5.5866   19.8171   37.3946 O   0  0  0  0  0  0  0  0  0  0  0  0
    1.8782   18.8091   38.2600 H   0  0  0  0  0  0  0  0  0  0  0  0
    5.1910   18.1845   35.6993 H   0  0  0  0  0  0  0  0  0  0  0  0
    3.9252   16.4947   34.4171 H   0  0  0  0  0  0  0  0  0  0  0  0
    1.6072   16.0253   35.1463 H   0  0  0  0  0  0  0  0  0  0  0  0
  1  2  1  0
  1  6  2  0
  2  3  2  0
  3  4  1  0
  3  7  1  0
  4  5  2  0
  5  6  1  0
  7  8  1  0
  7  9  2  0
  2 10  1  0
  4 11  1  0
  5 12  1  0
  6 13  1  0
M  CHG  1   8  -1
M  END
>  <mol_id>  (80) 
2026-09-18-3war-s0-n100-r7-0080

>  <rmsd_to_ref>  (80) 
4.081632653062544

>  <pose_kind>  (80) 
conformer

$$$$
3war.A
     RDKit          3D

 13 13  0  0  0  0  0  0  0  0999 V2000
    1.9416   23.5578   40.3112 N   0  0  0  0  0  0  0  0  0  0  0  0
    0.7478   22.8049   40.4213 C   0  0  0  0  0  0  0  0  0  0  0  0
    0.8027   21.4237   40.0108 C   0  0  0  0  0  0  0  0  0  0  0  0
    1.9715   20.8808   39.5075 C   0  0  0  0  0  0  0  0  0  0  0  0
    3.1167   21.6439   39.4435 C   0  0  0  0  0  0  0  0  0  0  0  0
    3.0759   22.9694   39.8136 C   0  0  0  0  0  0  0  0  0  0  0  0
   -0.4655   20.5831   40.0122 C   0  0  0  0  0  0  0  0  0  0  0  0
   -1.4848   21.0324   40.6136 O   0  0  0  0  0  0  0  0  0  0  0  0
   -0.3793   19.5346   39.4101 O   0  0  0  0  0  0  0  0  0  0  0  0
   -0.1809   23.2539   40.8032 H   0  0  0  0  0  0  0  0  0  0  0  0
    1.9864   19.8380   39.1578 H   0  0  0  0  0  0  0  0  0  0  0  0
    4.0601   21.1959   39.0979 H   0  0  0  0  0  0  0  0  0  0  0  0
    3.9858   23.5782   39.7064 H   0  0  0  0  0  0  0  0  0  0  0  0
  1  2  1  0
  1  6  2  0
  2  3  2  0
  3  4  1  0
  3  7  1  0
  4  5  2  0
  5  6  1  0
  7  8  1  0
  7  9  2  0
  2 10  1  0
  4 11  1  0
  5 12  1  0
  6 13  1  0
M  CHG  1   8  -1
M  END
>  <mol_id>  (81) 
2026-09-18-3war-s0-n100-r7-0081

>  <rmsd_to_ref>  (81) 
4.1275510204101495

>  <pose_kind>  (81) 
rigid

$$$$
3war.A
     RDKit          3D

 13 13  0  0  0  0  0  0  0  0999 V2000
    0.2597   18.3951   35.7498 N   0  0  0  0  0  0  0  0  0  0  0  0
    0.6386   17.9372   36.9616 C   0  0  0  0  0  0  0  0  0  0  0  0
    1.8999   18.1993   37.4546 C   0  0  0  0  0  0  0  0  0  0  0  0
    2.7781   18.9403   36.6908 C   0  0  0  0  0  0  0  0  0  0  0  0
    2.3802   19.4029   35.4545 C   0  0  0  0  0  0  0  0  0  0  0  0
    1.1053   19.1206   34.9905 C   0  0  0  0  0  0  0  0  0  0  0  0
    2.2376   17.6712   38.7725 C   0  0  0  0  0  0  0  0  0  0  0  0
    3.4811   17.8803   39.3562 O   0  0  0  0  0  0  0  0  0  0  0  0
    1.4046   16.9880   39.4580 O   0  0  0  0  0  0  0  0  0  0  0  0
   -0.0672   17.3508   37.5573 H   0  0  0  0  0  0  0  0  0  0  0  0
    3.7811   19.1500   37.0803 H   0  0  0  0  0  0  0  0  0  0  0  0
    3.0607   19.9899   34.8372 H   0  0  0  0  0  0  0  0  0  0  0  0
    0.7615   19.4755   34.0112 H   0  0  0  0  0  0  0  0  0  0  0  0
  1  2  1  0
  1  6  2  0
  2  3  2  0
  3  4  1  0
  3  7  1  0
  4  5  2  0
  5  6  1  0
  7  8  1  0
  7  9  2  0
  2 10  1  0
  4 11  1  0
  5 12  1  0
  6 13  1  0
M  CHG  1   8  -1
M  END
>  <mol_id>  (82) 
2026-09-18-3war-s0-n100-r7-0082

>  <rmsd_to_ref>  (82) 
4.173469387756794

>  <pose_kind>  (82) 
conformer

$$$$
3war.A
     RDKit          3D

 13 13  0  0  0  0  0  0  0  0999 V2000
    3.2518   23.6914   37.9203 N   0  0  0  0  0  0  0  0  0  0  0  0
    3.7862   22.9843   39.0241 C   0  0  0  0  0  0  0  0  0  0  0  0
    3.8362   21.5469   38.9208 C   0  0  0  0  0  0  0  0  0  0  0  0
    3.3534   20.9009   37.7967 C   0  0  0  0  0  0  0  0  0  0  0  0
    2.8664   21.6315   36.7351 C   0  0  0  0  0  0  0  0  0  0  0  0
    2.7944   23.0034   36.8259 C   0  0  0  0  0  0  0  0  0  0  0  0
    4.3091   20.7192   40.1066 C   0  0  0  0  0  0  0  0  0  0  0  0
    4.8897   21.3131   41.0619 O   0  0  0  0  0  0  0  0  0  0  0  0
    4.0687   19.5339   40.0256 O   0  0  0  0  0  0  0  0  0  0  0  0
    4.1475   23.5083   39.9212 H   0  0  0  0  0  0  0  0  0  0  0  0
    3.3582   19.8018   37.7505 H   0  0  0  0  0  0  0  0  0  0  0  0
    2.5365   21.1207   35.8184 H   0  0  0  0  0  0  0  0  0  0  0  0
    2.3541   23.5678   35.9906 H   0  0  0  0  0  0  0  0  0  0  0  0
  1  2  1  0
  1  6  2  0
  2  3  2  0
  3  4  1  0
  3  7  1  0
  4  5  2  0
  5  6  1  0
  7  8  1  0
  7  9  2  0
  2 10  1  0
  4 11  1  0
  5 12  1  0
  6 13  1  0
M  CHG  1   8  -1
M  END
>  <mol_id>  (83) 
2026-09-18-3war-s0-n100-r7-0083

>  <rmsd_to_ref>  (83) 
4.219387755104634

>  <pose_kind>  (83) 
rigid

$$$$
3war.A
     RDKit          3D

 13 13  0  0  0  0  0  0  0  0999 V2000
    1.8132   21.6105   36.8325 N   0  0  0  0  0  0  0  0  0  0  0  0
    0.9265   20.7966   37.4468 C   0  0  0  0  0  0  0  0  0  0  0  0
    0.7686   19.4764   37.0520 C   0  0  0  0  0  0  0  0  0  0  0  0
    1.5537   19.0154   36.0010 C   0  0  0  0  0  0  0  0  0  0  0  0
    2.4546   19.8589   35.3840 C   0  0  0  0  0  0  0  0  0  0  0  0
    2.5795   21.1677   35.8099 C   0  0  0  0  0  0  0  0  0  0  0  0
   -0.1980   18.6242   37.7366 C   0  0  0  0  0  0  0  0  0  0  0  0
   -0.3100   17.2948   37.2878 O   0  0  0  0  0  0  0  0  0  0  0  0
   -0.9181   19.0185   38.6884 O   0  0  0  0  0  0  0  0  0  0  0  0
    0.3416   21.2101   38.2599 H   0  0  0  0  0  0  0  0  0  0  0  0
    1.4439   17.9795   35.6759 H   0  0  0  0  0  0  0  0  0  0  0  0
    3.0802   19.5428   34.5685 H   0  0  0  0  0  0  0  0  0  0  0  0
    3.2711   21.8708   35.3600 H   0  0  0  0  0  0  0  0  0  0  0  0
  1  2  1  0
  1  6  2  0
  2  3  2  0
  3  4  1  0
  3  7  1  0
  4  5  2  0
  5  6  1  0
  7  8  1  0
  7  9  2  0
  2 10  1  0
  4 11  1  0
  5 12  1  0
  6 13  1  0
M  CHG  1   8  -1
M  END
>  <mol_id>  (84) 
2026-09-18-3war-s0-n100-r7-0084

>  <rmsd_to_ref>  (84) 
4.265306122451349

>  <pose_kind>  (84) 
conformer

$$$$
3war.A
     RDKit          3D

 13 13  0  0  0  0  0  0  0  0999 V2000
    3.2382   17.9119   35.2884 N   0  0  0  0  0  0  0  0  0  0  0  0
    3.0140   18.8288   36.3434 C   0  0  0  0  0  0  0  0  0  0  0  0
    1.9589   18.5132   37.2742 C   0  0  0  0  0  0  0  0  0  0  0  0
    1.1902   17.3742   37.1131 C   0  0  0  0  0  0  0  0  0  0  0  0
    1.4618   16.4964   36.0866 C   0  0  0  0  0  0  0  0  0  0  0  0
    2.4533   16.7930   35.1785 C   0  0  0  0  0  0  0  0  0  0  0  0
    1.6006   19.5006   38.3749 C   0  0  0  0  0  0  0  0  0  0  0  0
    2.3987   20.4545   38.6110 O   0  0  0  0  0  0  0  0  0  0  0  0
    0.5473   19.2785   38.9320 O   0  0  0  0  0  0  0  0  0  0  0  0
    3.6183   19.7420   36.4485 H   0  0  0  0  0  0  0  0  0  0  0  0
    0.3607   17.1692   37.8058 H   0  0  0  0  0  0  0  0  0  0  0  0
    0.8886   15.5622   35.9929 H   0  0  0  0  0  0  0  0  0  0  0  0
    2.6218   16.1077   34.3346 H   0  0  0  0  0  0  0  0  0  0  0  0
  1  2  1  0
  1  6  2  0
  2  3  2  0
  3  4  1  0
  3  7  1  0
  4  5  2  0
  5  6  1  0
  7  8  1  0
  7  9  2  0
  2 10  1  0
  4 11  1  0
  5 12  1  0
  6 13  1  0
M  CHG  1   8  -1
M  END
>  <mol_id>  (85) 
2026-09-18-3war-s0-n100-r7-0085

>  <rmsd_to_ref>  (85) 
4.3112244897973735

>  <pose_kind>  (85) 
rigid

$$$$
3war.A
     RDKit          3D

 13 13  0  0  0  0  0  0  0  0999 V2000
    1.3338   21.4807   35.9218 N   0  0  0  0  0  0  0  0  0  0  0  0
    1.4611   20.6330   36.9727 C   0  0  0  0  0  0  0  0  0  0  0  0
    0.5258   19.6608   37.2602 C   0  0  0  0  0  0  0  0  0  0  0  0
   -0.5848   19.5289   36.4642 C   0  0  0  0  0  0  0  0  0  0  0  0
   -0.7223   20.3980   35.3808 C   0  0  0  0  0  0  0  0  0  0  0  0
    0.2360   21.3666   35.1169 C   0  0  0  0  0  0  0  0  0  0  0  0
    0.7194   18.7835   38.4004 C   0  0  0  0  0  0  0  0  0  0  0  0
   -0.1860   17.7995   38.7264 O   0  0  0  0  0  0  0  0  0  0  0  0
    1.7426   18.9066   39.1319 O   0  0  0  0  0  0  0  0  0  0  0  0
    2.3416   20.7270   37.6156 H   0  0  0  0  0  0  0  0  0  0  0  0
   -1.3365   18.7865   36.6520 H   0  0  0  0  0  0  0  0  0  0  0  0
   -1.5831   20.3431   34.7112 H   0  0  0  0  0  0  0  0  0  0  0  0
    0.0865   22.0115   34.2727 H   0  0  0  0  0  0  0  0  0  0  0  0
  1  2  1  0
  1  6  2  0
  2  3  2  0
  3  4  1  0
  3  7  1  0
  4  5  2  0
  5  6  1  0
  7  8  1  0
  7  9  2  0
  2 10  1  0
  4 11  1  0
  5 12  1  0
  6 13  1  0
M  CHG  1   8  -1
M  END
>  <mol_id>  (86) 
2026-09-18-3war-s0-n100-r7-0086

>  <rmsd_to_ref>  (86) 
4.357142857145358

>  <pose_kind>  (86) 
conformer

$$$$
3war.A
     RDKit          3D

 13 13  0  0  0  0  0  0  0  0999 V2000
    1.6236   19.7506   39.5700 N   0  0  0  0  0  0  0  0  0  0  0  0
    2.3871   19.2169   40.6359 C   0  0  0  0  0  0  0  0  0  0  0  0
    1.9787   17.9368   41.1593 C   0  0  0  0  0  0  0  0  0  0  0  0
    0.8701   17.2848   40.6493 C   0  0  0  0  0  0  0  0  0  0  0  0
    0.1726   17.8295   39.5935 C   0  0  0  0  0  0  0  0  0  0  0  0
    0.5384   19.0598   39.0953 C   0  0  0  0  0  0  0  0  0  0  0  0
    2.6949   17.3495   42.3663 C   0  0  0  0  0  0  0  0  0  0  0  0
    3.7927   17.8675   42.7257 O   0  0  0  0  0  0  0  0  0  0  0  0
    2.1234   16.4185   42.8914 O   0  0  0  0  0  0  0  0  0  0  0  0
    3.2540   19.7550   41.0469 H   0  0  0  0  0  0  0  0  0  0  0  0
    0.5450   16.3297   41.0877 H   0  0  0  0  0  0  0  0  0  0  0  0
   -0.6733   17.2835   39.1503 H   0  0  0  0  0  0  0  0  0  0  0  0
   -0.0614   19.5044   38.2874 H   0  0  0  0  0  0  0  0  0  0  0  0
  1  2  1  0
  1  6  2  0
  2  3  2  0
  3  4  1  0
  3  7  1  0
  4  5  2  0
  5  6  1  0
  7  8  1  0
  7  9  2  0
  2 10  1  0
  4 11  1  0
  5 12  1  0
  6 13  1  0
M  CHG  1   8  -1
M  END
>  <mol_id>  (87) 
2026-09-18-3war-s0-n100-r7-0087

>  <rmsd_to_ref>  (87) 
4.403061224491684

>  <pose_kind>  (87) 
rigid

$$$$
3war.A
     RDKit          3D

 13 13  0  0  0  0  0  0  0  0999 V2000
    3.2536   22.5462   34.9704 N   0  0  0  0  0  0  0  0  0  0  0  0
    3.9819   22.0783   36.0038 C   0  0  0  0  0  0  0  0  0  0  0  0
    3.5049   21.0091   36.7649 C   0  0  0  0  0  0  0  0  0  0  0  0
    2.2880   20.4625   36.4269 C   0  0  0  0  0  0  0  0  0  0  0  0
    1.5359   20.9393   35.3665 C   0  0  0  0  0  0  0  0  0  0  0  0
    2.0600   22.0003   34.6491 C   0  0  0  0  0  0  0  0  0  0  0  0
    4.2663   20.4784   37.8886 C   0  0  0  0  0  0  0  0  0  0  0  0
    5.4924   21.0375   38.2204 O   0  0  0  0  0  0  0  0  0  0  0  0
    3.7548   19.5144   38.5139 O   0  0  0  0  0  0  0  0  0  0  0  0
    4.9409   22.5120   36.2670 H   0  0  0  0  0  0  0  0  0  0  0  0
    1.9055   19.6326   37.0085 H   0  0  0  0  0  0  0  0  0  0  0  0
    0.5793   20.4836   35.1280 H   0  0  0  0  0  0  0  0  0  0  0  0
    1.4934   22.3943   33.8139 H   0  0  0  0  0  0  0  0  0  0  0  0
  1  2  1  0
  1  6  2  0
  2  3  2  0
  3  4  1  0
  3  7  1  0
  4  5  2  0
  5  6  1  0
  7  8  1  0
  7  9  2  0
  2 10  1  0
  4 11  1  0
  5 12  1  0
  6 13  1  0
M  CHG  1   8  -1
M  END
>  <mol_id>  (88) 
2026-09-18-3war-s0-n100-r7-0088

>  <rmsd_to_ref>  (88) 
4.448979591837736

>  <pose_kind>  (88) 
conformer

$$$$
3war.A
     RDKit          3D

 13 13  0  0  0  0  0  0  0  0999 V2000
    0.0340   20.6084   36.5197 N   0  0  0  0  0  0  0  0  0  0  0  0
   -0.5513   21.3665   37.5622 C   0  0  0  0  0  0  0  0  0  0  0  0
    0.0600   21.2728   38.8648 C   0  0  0  0  0  0  0  0  0  0  0  0
    1.1533   20.4518   39.0761 C   0  0  0  0  0  0  0  0  0  0  0  0
    1.7062   19.7527   38.0257 C   0  0  0  0  0  0  0  0  0  0  0  0
    1.1228   19.8166   36.7802 C   0  0  0  0  0  0  0  0  0  0  0  0
   -0.5735   21.9848   40.0508 C   0  0  0  0  0  0  0  0  0  0  0  0
   -1.4703   22.8493   39.8250 O   0  0  0  0  0  0  0  0  0  0  0  0
   -0.1529   21.6387   41.1336 O   0  0  0  0  0  0  0  0  0  0  0  0
   -1.4337   21.9993   37.3862 H   0  0  0  0  0  0  0  0  0  0  0  0
    1.5820   20.3572   40.0847 H   0  0  0  0  0  0  0  0  0  0  0  0
    2.6102   19.1456   38.1814 H   0  0  0  0  0  0  0  0  0  0  0  0
    1.5452   19.2109   35.9649 H   0  0  0  0  0  0  0  0  0  0  0  0
  1  2  1  0
  1  6  2  0
  2  3  2  0
  3  4  1  0
  3  7  1  0
  4  5  2  0
  5  6  1  0
  7  8  1  0
  7  9  2  0
  2 10  1  0
  4 11  1  0
  5 12  1  0
  6 13  1  0
M  CHG  1   8  -1
M  END
>  <mol_id>  (89) 
2026-09-18-3war-s0-n100-r7-0089

>  <rmsd_to_ref>  (89) 
4.494897959183983

>  <pose_kind>  (89) 
rigid

$$$$
3war.A
     RDKit          3D

 13 13  0  0  0  0  0  0  0  0999 V2000
    1.5484   19.1797   37.3574 N   0  0  0  0  0  0  0  0  0  0  0  0
    1.3032   18.6421   38.5798 C   0  0  0  0  0  0  0  0  0  0  0  0
    1.3813   17.2806   38.7638 C   0  0  0  0  0  0  0  0  0  0  0  0
    1.7072   16.5012   37.6985 C   0  0  0  0  0  0  0  0  0  0  0  0
    1.9629   17.0184   36.4405 C   0  0  0  0  0  0  0  0  0  0  0  0
    1.8712   18.4004   36.3051 C   0  0  0  0  0  0  0  0  0  0  0  0
    1.1282   16.6762   40.0437 C   0  0  0  0  0  0  0  0  0  0  0  0
    0.7893   17.3740   41.1934 O   0  0  0  0  0  0  0  0  0  0  0  0
    1.2264   15.4027   40.1110 O   0  0  0  0  0  0  0  0  0  0  0  0
    1.0497   19.3105   39.3849 H   0  0  0  0  0  0  0  0  0  0  0  0
    1.7824   15.4228   37.7888 H   0  0  0  0  0  0  0  0  0  0  0  0
    2.2169   16.3703   35.6257 H   0  0  0  0  0  0  0  0  0  0  0  0
    2.0716   18.8294   35.3104 H   0  0  0  0  0  0  0  0  0  0  0  0
  1  2  1  0
  1  6  2  0
  2  3  2  0
  3  4  1  0
  3  7  1  0
  4  5  2  0
  5  6  1  0
  7  8  1  0
  7  9  2  0
  2 10  1  0
  4 11  1  0
  5 12  1  0
  6 13  1  0
M  CHG  1   8  -1
M  END
>  <mol_id>  (90) 
2026-09-18-3war-s0-n100-r7-0090

>  <rmsd_to_ref>  (90) 
4.540816326531545

>  <pose_kind>  (90) 
conformer

$$$$
3war.A
     RDKit          3D

 13 13  0  0  0  0  0  0  0  0999 V2000
    3.1647   22.8037   35.4627 N   0  0  0  0  0  0  0  0  0  0  0  0
    3.2550   22.4553   36.8319 C   0  0  0  0  0  0  0  0  0  0  0  0
    3.4442   21.0601   37.1432 C   0  0  0  0  0  0  0  0  0  0  0  0
    3.5048   20.1124   36.1370 C   0  0  0  0  0  0  0  0  0  0  0  0
    3.4390   20.5006   34.8168 C   0  0  0  0  0  0  0  0  0  0  0  0
    3.2395   21.8264   34.5037 C   0  0  0  0  0  0  0  0  0  0  0  0
    3.4537   20.6032   38.5943 C   0  0  0  0  0  0  0  0  0  0  0  0
    3.5542   21.4810   39.5011 O   0  0  0  0  0  0  0  0  0  0  0  0
    3.3513   19.4055   38.7494 O   0  0  0  0  0  0  0  0  0  0  0  0
    3.1841   23.2157   37.6236 H   0  0  0  0  0  0  0  0  0  0  0  0
    3.6057   19.0471   36.3916 H   0  0  0  0  0  0  0  0  0  0  0  0
    3.5456   19.7541   34.0159 H   0  0  0  0  0  0  0  0  0  0  0  0
    3.1363   22.1120   33.4464 H   0  0  0  0  0  0  0  0  0  0  0  0
  1  2  1  0
  1  6  2  0
  2  3  2  0
  3  4  1  0
  3  7  1  0
  4  5  2  0
  5  6  1  0
  7  8  1  0
  7  9  2  0
  2 10  1  0
  4 11  1  0
  5 12  1  0
  6 13  1  0
M  CHG  1   8  -1
M  END
>  <mol_id>  (91) 
2026-09-18-3war-s0-n100-r7-0091

>  <rmsd_to_ref>  (91) 
4.5867346938794045

>  <pose_kind>  (91) 
rigid

$$$$
3war.A
     RDKit          3D

 13 13  0  0  0  0  0  0  0  0999 V2000
    2.0301   22.1314   39.1844 N   0  0  0  0  0  0  0  0  0  0  0  0
    0.9990   22.0305   40.0439 C   0  0  0  0  0  0  0  0  0  0  0  0
   -0.1228   21.2511   39.7661 C   0  0  0  0  0  0  0  0  0  0  0  0
   -0.1210   20.5847   38.5572 C   0  0  0  0  0  0  0  0  0  0  0  0
    0.9344   20.6862   37.6742 C   0  0  0  0  0  0  0  0  0  0  0  0
    2.0180   21.4760   38.0094 C   0  0  0  0  0  0  0  0  0  0  0  0
   -1.2147   21.1709   40.7246 C   0  0  0  0  0  0  0  0  0  0  0  0
   -2.3021   20.3658   40.3655 O   0  0  0  0  0  0  0  0  0  0  0  0
   -1.2150   21.7773   41.8234 O   0  0  0  0  0  0  0  0  0  0  0  0
    1.0792   22.5845   40.9664 H   0  0  0  0  0  0  0  0  0  0  0  0
   -0.9880   19.9812   38.3403 H   0  0  0  0  0  0  0  0  0  0  0  0
    0.8643   20.1337   36.7442 H   0  0  0  0  0  0  0  0  0  0  0  0
    2.8521   21.5660   37.3292 H   0  0  0  0  0  0  0  0  0  0  0  0
  1  2  1  0
  1  6  2  0
  2  3  2  0
  3  4  1  0
  3  7  1  0
  4  5  2  0
  5  6  1  0
  7  8  1  0
  7  9  2  0
  2 10  1  0
  4 11  1  0
  5 12  1  0
  6 13  1  0
M  CHG  1   8  -1
M  END
>  <mol_id>  (92) 
2026-09-18-3war-s0-n100-r7-0092

>  <rmsd_to_ref>  (92) 
4.63265306122476

>  <pose_kind>  (92) 
conformer

$$$$
3war.A
     RDKit          3D

 13 13  0  0  0  0  0  0  0  0999 V2000
    5.9580   21.3063   36.2234 N   0  0  0  0  0  0  0  0  0  0  0  0
    4.8109   21.3336   37.0525 C   0  0  0  0  0  0  0  0  0  0  0  0
    3.7786   20.3653   36.7768 C   0  0  0  0  0  0  0  0  0  0  0  0
    3.9068   19.4736   35.7267 C   0  0  0  0  0  0  0  0  0  0  0  0
    5.0531   19.4656   34.9626 C   0  0  0  0  0  0  0  0  0  0  0  0
    6.0395   20.3962   35.2010 C   0  0  0  0  0  0  0  0  0  0  0  0
    2.4784   20.4000   37.5662 C   0  0  0  0  0  0  0  0  0  0  0  0
    2.4301   21.1063   38.6157 O   0  0  0  0  0  0  0  0  0  0  0  0
    1.5813   19.7348   37.0950 O   0  0  0  0  0  0  0  0  0  0  0  0
    4.7114   22.0616   37.8711 H   0  0  0  0  0  0  0  0  0  0  0  0
    3.0920   18.7697   35.5016 H   0  0  0  0  0  0  0  0  0  0  0  0
    5.1798   18.7187   34.1651 H   0  0  0  0  0  0  0  0  0  0  0  0
    6.9245   20.4100   34.5479 H   0  0  0  0  0  0  0  0  0  0  0  0
  1  2  1  0
  1  6  2  0
  2  3  2  0
  3  4  1  0
  3  7  1  0
  4  5  2  0
  5  6  1  0
  7  8  1  0
  7  9  2  0
  2 10  1  0
  4 11  1  0
  5 12  1  0
  6 13  1  0
M  CHG  1   8  -1
M  END
>  <mol_id>  (93) 
2026-09-18-3war-s0-n100-r7-0093

>  <rmsd_to_ref>  (93) 
4.678571428571783

>  <pose_kind>  (93) 
rigid

$$$$
3war.A
     RDKit          3D

 13 13  0  0  0  0  0  0  0  0999 V2000
    4.8438   20.5058   35.3898 N   0  0  0  0  0  0  0  0  0  0  0  0
    5.0788   20.6648   36.7154 C   0  0  0  0  0  0  0  0  0  0  0  0
    4.8511   19.5813   37.5423 C   0  0  0  0  0  0  0  0  0  0  0  0
    4.4010   18.3616   37.0815 C   0  0  0  0  0  0  0  0  0  0  0  0
    4.1718   18.2345   35.7245 C   0  0  0  0  0  0  0  0  0  0  0  0
    4.4040   19.3328   34.8964 C   0  0  0  0  0  0  0  0  0  0  0  0
    5.0922   19.7122   38.9756 C   0  0  0  0  0  0  0  0  0  0  0  0
    5.5514   20.9264   39.5144 O   0  0  0  0  0  0  0  0  0  0  0  0
    4.8796   18.7097   39.7260 O   0  0  0  0  0  0  0  0  0  0  0  0
    5.4322   21.6020   37.1240 H   0  0  0  0  0  0  0  0  0  0  0  0
    4.2219   17.5077   37.7354 H   0  0  0  0  0  0  0  0  0  0  0  0
    3.8224   17.3376   35.2532 H   0  0  0  0  0  0  0  0  0  0  0  0
    4.2406   19.2886   33.8241 H   0  0  0  0  0  0  0  0  0  0  0  0
  1  2  1  0
  1  6  2  0
  2  3  2  0
  3  4  1  0
  3  7  1  0
  4  5  2  0
  5  6  1  0
  7  8  1  0
  7  9  2  0
  2 10  1  0
  4 11  1  0
  5 12  1  0
  6 13  1  0
M  CHG  1   8  -1
M  END
>  <mol_id>  (94) 
2026-09-18-3war-s0-n100-r7-0094

>  <rmsd_to_ref>  (94) 
4.724489795918717

>  <pose_kind>  (94) 
conformer

$$$$
3war.A
     RDKit          3D

 13 13  0  0  0  0  0  0  0  0999 V2000
    0.1907   21.4100   36.6423 N   0  0  0  0  0  0  0  0  0  0  0  0
   -0.3728   21.7254   37.9021 C   0  0  0  0  0  0  0  0  0  0  0  0
   -0.4217   20.6690   38.8823 C   0  0  0  0  0  0  0  0  0  0  0  0
    0.0408   19.4007   38.5795 C   0  0  0  0  0  0  0  0  0  0  0  0
    0.6059   19.1463   37.3492 C   0  0  0  0  0  0  0  0  0  0  0  0
    0.6427   20.1391   36.3959 C   0  0  0  0  0  0  0  0  0  0  0  0
   -1.1003   20.9111   40.2223 C   0  0  0  0  0  0  0  0  0  0  0  0
   -1.3780   22.1019   40.5499 O   0  0  0  0  0  0  0  0  0  0  0  0
   -1.3262   19.9083   40.8647 O   0  0  0  0  0  0  0  0  0  0  0  0
   -0.7566   22.7322   38.1235 H   0  0  0  0  0  0  0  0  0  0  0  0
   -0.0430   18.5939   39.3226 H   0  0  0  0  0  0  0  0  0  0  0  0
    1.0262   18.1538   37.1292 H   0  0  0  0  0  0  0  0  0  0  0  0
    1.0491   19.9043   35.4011 H   0  0  0  0  0  0  0  0  0  0  0  0
  1  2  1  0
  1  6  2  0
  2  3  2  0
  3  4  1  0
  3  7  1  0
  4  5  2  0
  5  6  1  0
  7  8  1  0
  7  9  2  0
  2 10  1  0
  4 11  1  0
  5 12  1  0
  6 13  1  0
M  CHG  1   8  -1
M  END
>  <mol_id>  (95) 
2026-09-18-3war-s0-n100-r7-0095

>  <rmsd_to_ref>  (95) 
4.770408163265622

>  <pose_kind>  (95) 
rigid

$$$$
3war.A
     RDKit          3D

 13 13  0  0  0  0  0  0  0  0999 V2000
    3.3779   21.8944   39.4660 N   0  0  0  0  0  0  0  0  0  0  0  0
    3.1735   21.9394   40.8124 C   0  0  0  0  0  0  0  0  0  0  0  0
    3.4739   20.8354   41.5755 C   0  0  0  0  0  0  0  0  0  0  0  0
    3.9790   19.6690   41.0346 C   0  0  0  0  0  0  0  0  0  0  0  0
    4.1719   19.6686   39.6531 C   0  0  0  0  0  0  0  0  0  0  0  0
    3.8713   20.7771   38.8798 C   0  0  0  0  0  0  0  0  0  0  0  0
    3.2438   20.9119   43.0227 C   0  0  0  0  0  0  0  0  0  0  0  0
    3.5352   19.8125   43.8377 O   0  0  0  0  0  0  0  0  0  0  0  0
    2.7773   21.9738   43.5624 O   0  0  0  0  0  0  0  0  0  0  0  0
    2.7779   22.8625   41.2104 H   0  0  0  0  0  0  0  0  0  0  0  0
    4.2186   18.7970   41.6202 H   0  0  0  0  0  0  0  0  0  0  0  0
    4.5637   18.8030   39.1307 H   0  0  0  0  0  0  0  0  0  0  0  0
    4.0085   20.8106   37.8081 H   0  0  0  0  0  0  0  0  0  0  0  0
  1  2  1  0
  1  6  2  0
  2  3  2  0
  3  4  1  0
  3  7  1  0
  4  5  2  0
  5  6  1  0
  7  8  1  0
  7  9  2  0
  2 10  1  0
  4 11  1  0
  5 12  1  0
  6 13  1  0
M  CHG  1   8  -1
M  END
>  <mol_id>  (96) 
2026-09-18-3war-s0-n100-r7-0096

>  <rmsd_to_ref>  (96) 
4.81632653061317

>  <pose_kind>  (96) 
conformer

$$$$
