
     RDKit          3D

 16 16  0  0  0  0  0  0  0  0999 V2000
    0.5445   21.4549   43.0432 S   0  0  0  0  0  0  0  0  0  0  0  0
    0.6100   18.3274   43.6135 C   0  0  0  0  0  0  0  0  0  0  0  0
    1.6345   20.2614   42.5934 C   0  0  0  0  0  0  0  0  0  0  0  0
   -0.0460   20.1477   44.0282 C   0  0  1  0  0  0  0  0  0  0  0  0
   -1.3023   18.7729   45.8860 C   0  0  0  0  0  0  0  0  0  0  0  0
    3.2456   20.0570   42.2444 S   0  0  0  0  0  0  0  0  0  0  0  0
    1.0045   18.8292   43.4909 C   0  0  1  0  0  0  0  0  0  0  0  0
   -0.5223   19.9403   45.2487 O   0  0  0  0  0  0  0  0  0  0  0  0
    0.5286   18.1821   44.7008 H   0  0  0  0  0  0  0  0  0  0  0  0
   -0.3864   18.5338   43.1955 H   0  0  0  0  0  0  0  0  0  0  0  0
    1.0199   17.4172   43.1515 H   0  0  0  0  0  0  0  0  0  0  0  0
   -1.1063   20.4253   43.9352 H   0  0  0  0  0  0  0  0  0  0  0  0
   -1.2411   18.8459   46.9819 H   0  0  0  0  0  0  0  0  0  0  0  0
   -2.3559   18.8219   45.5736 H   0  0  0  0  0  0  0  0  0  0  0  0
   -0.8664   17.8179   45.5573 H   0  0  0  0  0  0  0  0  0  0  0  0
    1.8217   18.0928   43.4959 H   0  0  0  0  0  0  0  0  0  0  0  0
  1  4  1  0
  3  1  1  0
  3  7  1  0
  4  8  1  0
  6  3  2  0
  7  2  1  0
  7  4  1  0
  8  5  1  0
  2  9  1  0
  2 10  1  0
  2 11  1  0
  4 12  1  6
  5 13  1  0
  5 14  1  0
  5 15  1  0
  7 16  1  1
M  END
>  <mol_id>  (1) 
2026-09-18-6fnk-s0-n100-refligand-0001

>  <rmsd_to_ref>  (1) 


$$$$

     RDKit          3D

 12 13  0  0  0  0  0  0  0  0999 V2000
    0.2258   21.3399   44.0930 N   0  0  0  0  0  0  0  0  0  0  0  0
    1.9131   18.2265   43.7856 N   0  0  0  0  0  0  0  0  0  0  0  0
    2.7301   18.3506   42.8083 C   0  0  0  0  0  0  0  0  0  0  0  0
    0.3349   19.5171   45.3863 N   0  0  0  0  0  0  0  0  0  0  0  0
    2.7988   19.4111   42.0687 N   0  0  0  0  0  0  0  0  0  0  0  0
   -0.2172   20.7217   45.2196 C   0  0  0  0  0  0  0  0  0  0  0  0
    1.1988   20.4723   43.5115 C   0  0  0  0  0  0  0  0  0  0  0  0
    2.3008   21.5657   41.7305 O   0  0  0  0  0  0  0  0  0  0  0  0
    2.1101   20.4999   42.4025 C   0  0  0  0  0  0  0  0  0  0  0  0
    1.1683   19.3151   44.2321 C   0  0  0  0  0  0  0  0  0  0  0  0
    3.4083   17.5138   42.5854 H   0  0  0  0  0  0  0  0  0  0  0  0
   -0.9469   21.1630   45.9146 H   0  0  0  0  0  0  0  0  0  0  0  0
  1  6  1  0
  2 10  2  0
  3  2  1  0
  4  6  2  0
  5  3  2  0
  5  9  1  0
  7 10  1  0
  7  1  2  0
  8  9  2  0
  9  7  1  0
 10  4  1  0
  3 11  1  0
  6 12  1  0
M  END
>  <mol_id>  (2) 
2026-09-18-6fnk-s0-n100-refligand-0002

>  <rmsd_to_ref>  (2) 


$$$$

     RDKit          3D

 31 32  0  0  0  0  0  0  0  0999 V2000
   -1.3240   20.2857   44.6983 O   0  0  0  0  0  0  0  0  0  0  0  0
    1.4142   17.1597   42.3703 C   0  0  0  0  0  0  0  0  0  0  0  0
    0.3095   17.1005   44.6689 C   0  0  2  0  0  0  0  0  0  0  0  0
    1.4369   15.5006   41.9270 S   0  0  0  0  0  0  0  0  0  0  0  0
    2.5747   20.1630   40.5791 N   0  0  0  0  0  0  0  0  0  0  0  0
    0.1923   19.7271   46.2855 O   0  0  0  0  0  0  0  0  0  0  0  0
   -0.5164   19.2780   45.0886 C   0  0  0  0  0  0  0  0  0  0  0  0
    1.9125   19.3201   41.5884 C   0  0  0  0  0  0  0  0  0  0  0  0
   -0.4372   14.9491   45.8728 C   0  0  0  0  0  0  0  0  0  0  0  0
    1.2922   19.8261   42.6698 C   0  0  0  0  0  0  0  0  0  0  0  0
    1.9822   18.0284   41.4838 C   0  0  0  0  0  0  0  0  0  0  0  0
    0.6840   15.7979   45.3274 C   0  0  0  0  0  0  0  0  0  0  0  0
    2.6914   19.5993   39.4696 O   0  0  0  0  0  0  0  0  0  0  0  0
    0.8855   17.6880   43.5821 N   0  0  0  0  0  0  0  0  0  0  0  0
    0.7302   18.9813   43.6716 C   0  0  0  0  0  0  0  0  0  0  0  0
   -0.7689   17.9026   45.1857 C   0  0  0  0  0  0  0  0  0  0  0  0
    1.8162   15.4894   45.3835 O   0  0  0  0  0  0  0  0  0  0  0  0
    3.0076   21.2883   40.8341 N   0  0  0  0  0  0  0  0  0  0  0  0
   -1.6918   20.7418   45.4963 H   0  0  0  0  0  0  0  0  0  0  0  0
   -0.3990   16.5676   44.0177 H   0  0  0  0  0  0  0  0  0  0  0  0
   -0.4183   19.6901   47.0639 H   0  0  0  0  0  0  0  0  0  0  0  0
   -0.5488   15.1375   46.9507 H   0  0  0  0  0  0  0  0  0  0  0  0
   -1.3746   15.2044   45.3570 H   0  0  0  0  0  0  0  0  0  0  0  0
   -0.2059   13.8864   45.7083 H   0  0  0  0  0  0  0  0  0  0  0  0
    1.2166   20.9175   42.7837 H   0  0  0  0  0  0  0  0  0  0  0  0
    2.5323   17.6081   40.6289 H   0  0  0  0  0  0  0  0  0  0  0  0
    2.6170   18.6192   39.5879 H   0  0  0  0  0  0  0  0  0  0  0  0
   -1.6823   17.6719   44.6179 H   0  0  0  0  0  0  0  0  0  0  0  0
   -0.8805   17.6604   46.2528 H   0  0  0  0  0  0  0  0  0  0  0  0
    2.8957   21.4793   41.8401 H   0  0  0  0  0  0  0  0  0  0  0  0
    4.0057   21.3370   40.5842 H   0  0  0  0  0  0  0  0  0  0  0  0
  1  7  1  0
  2 14  1  0
  3 12  1  0
  3 16  1  0
  4  2  2  0
  5 18  1  0
  5  8  1  0
  7  6  1  0
  8 10  1  0
 10 15  2  0
 11  8  2  0
 11  2  1  0
 12  9  1  0
 13  5  1  0
 14 15  1  0
 14  3  1  0
 15  7  1  0
 16  7  1  0
 17 12  2  0
  1 19  1  0
  3 20  1  6
  6 21  1  0
  9 22  1  0
  9 23  1  0
  9 24  1  0
 10 25  1  0
 11 26  1  0
 13 27  1  0
 16 28  1  0
 16 29  1  0
 18 30  1  0
 18 31  1  0
M  END
>  <mol_id>  (3) 
2026-09-18-6fnk-s0-n100-refligand-0003

>  <rmsd_to_ref>  (3) 


$$$$

     RDKit          3D

 25 27  0  0  0  0  0  0  0  0999 V2000
   -0.8256   18.2887   45.4154 C   0  0  0  0  0  0  0  0  0  0  0  0
    0.1728   20.0177   43.9573 C   0  0  0  0  0  0  0  0  0  0  0  0
    2.4561   19.6922   42.9463 C   0  0  0  0  0  0  0  0  0  0  0  0
   -0.8653   16.9058   45.4082 N   0  0  0  0  0  0  0  0  0  0  0  0
    0.2049   16.2771   44.6962 N   0  0  0  0  0  0  0  0  0  0  0  0
    2.2001   17.0826   43.4389 C   0  0  2  0  0  0  0  0  0  0  0  0
   -0.7823   20.7885   44.0704 O   0  0  0  0  0  0  0  0  0  0  0  0
    0.2054   18.8001   44.4674 C   0  0  2  0  0  0  0  0  0  0  0  0
    2.4045   18.4295   42.1394 C   0  0  2  0  0  0  0  0  0  0  0  0
    3.2533   17.3986   42.4653 C   0  0  0  0  0  0  0  0  0  0  0  0
   -1.4417   19.0757   46.0130 O   0  0  0  0  0  0  0  0  0  0  0  0
    0.8479   17.4851   44.0801 C   0  0  0  0  0  0  0  0  0  0  0  0
    1.2623   20.4211   43.1471 N   0  0  0  0  0  0  0  0  0  0  0  0
    1.0740   21.5280   42.4021 C   0  0  0  0  0  0  0  0  0  0  0  0
    3.1665   20.3668   42.4460 H   0  0  0  0  0  0  0  0  0  0  0  0
    2.7328   19.3520   43.9551 H   0  0  0  0  0  0  0  0  0  0  0  0
   -1.6083   16.3699   45.8792 H   0  0  0  0  0  0  0  0  0  0  0  0
    2.7360   17.6604   44.2063 H   0  0  0  0  0  0  0  0  0  0  0  0
    0.9861   19.5747   44.4840 H   0  0  0  0  0  0  0  0  0  0  0  0
    2.0493   18.8369   41.1813 H   0  0  0  0  0  0  0  0  0  0  0  0
    4.2224   17.6965   42.8920 H   0  0  0  0  0  0  0  0  0  0  0  0
    3.6585   16.6790   41.7386 H   0  0  0  0  0  0  0  0  0  0  0  0
    0.7127   22.3449   43.0439 H   0  0  0  0  0  0  0  0  0  0  0  0
    2.0257   21.8220   41.9353 H   0  0  0  0  0  0  0  0  0  0  0  0
    0.3301   21.3205   41.6188 H   0  0  0  0  0  0  0  0  0  0  0  0
  1  4  1  0
  1 11  2  0
  2  7  2  0
  3 13  1  0
  5  4  1  0
  6 10  1  0
  6 12  1  0
  8  2  1  0
  8  1  1  0
  9 10  1  0
  9  3  1  0
  9  6  1  0
 12  8  1  0
 12  5  2  0
 13  2  1  0
 14 13  1  0
  3 15  1  0
  3 16  1  0
  4 17  1  0
  6 18  1  6
  8 19  1  1
  9 20  1  6
 10 21  1  0
 10 22  1  0
 14 23  1  0
 14 24  1  0
 14 25  1  0
M  END
>  <mol_id>  (4) 
2026-09-18-6fnk-s0-n100-refligand-0004

>  <rmsd_to_ref>  (4) 


$$$$

     RDKit          3D

 26 28  0  0  0  0  0  0  0  0999 V2000
    3.2491   16.3709   41.6709 O   0  0  0  0  0  0  0  0  0  0  0  0
   -1.5488   19.2857   46.0455 N   0  0  0  0  0  0  0  0  0  0  0  0
    2.5963   19.2749   41.7397 O   0  0  0  0  0  0  0  0  0  0  0  0
    3.5825   14.3365   42.2650 O   0  0  0  0  0  0  0  0  0  0  0  0
    2.3326   18.2767   40.7646 C   0  0  0  0  0  0  0  0  0  0  0  0
   -0.8430   18.3202   45.4515 C   0  0  0  0  0  0  0  0  0  0  0  0
   -1.4084   20.4390   45.3323 N   0  0  0  0  0  0  0  0  0  0  0  0
    1.9867   17.0336   41.5732 C   0  0  2  0  0  0  0  0  0  0  0  0
   -0.6223   20.1303   44.2552 C   0  0  0  0  0  0  0  0  0  0  0  0
    1.4444   17.1187   43.1039 C   0  0  0  0  0  0  0  0  0  0  0  0
    3.5521   14.7092   40.1890 O   0  0  0  0  0  0  0  0  0  0  0  0
    0.6805   20.7138   42.3384 C   0  0  0  0  0  0  0  0  0  0  0  0
    3.4342   15.1092   41.2659 C   0  0  0  0  0  0  0  0  0  0  0  0
    1.3384   19.5305   42.4641 C   0  0  0  0  0  0  0  0  0  0  0  0
   -0.1296   18.7794   44.2687 C   0  0  0  0  0  0  0  0  0  0  0  0
    0.8904   18.5404   43.2181 C   0  0  0  0  0  0  0  0  0  0  0  0
   -0.2531   21.0118   43.2879 C   0  0  0  0  0  0  0  0  0  0  0  0
    3.2206   18.0993   40.1402 H   0  0  0  0  0  0  0  0  0  0  0  0
    1.5235   18.5668   40.0781 H   0  0  0  0  0  0  0  0  0  0  0  0
   -0.8046   17.2839   45.8184 H   0  0  0  0  0  0  0  0  0  0  0  0
    1.1306   16.5875   41.0458 H   0  0  0  0  0  0  0  0  0  0  0  0
    0.6537   16.3749   43.2812 H   0  0  0  0  0  0  0  0  0  0  0  0
    2.2295   16.9081   43.8451 H   0  0  0  0  0  0  0  0  0  0  0  0
    0.8920   21.4018   41.5065 H   0  0  0  0  0  0  0  0  0  0  0  0
    0.1205   21.9027   43.8139 H   0  0  0  0  0  0  0  0  0  0  0  0
   -1.1710   21.0809   42.6856 H   0  0  0  0  0  0  0  0  0  0  0  0
  3 14  1  0
  5  8  1  0
  5  3  1  0
  6  2  2  0
  7  2  1  0
  8  1  1  0
  8 10  1  0
  9  7  2  0
 10 16  1  0
 11 13  2  0
 12 17  1  0
 13  4  1  0
 13  1  1  0
 14 12  2  0
 14 16  1  0
 15  9  1  0
 15  6  1  0
 16 15  2  0
 17  9  1  0
  5 18  1  0
  5 19  1  0
  6 20  1  0
  8 21  1  6
 10 22  1  0
 10 23  1  0
 12 24  1  0
 17 25  1  0
 17 26  1  0
M  CHG  1   4  -1
M  END
>  <mol_id>  (5) 
2026-09-18-6fnk-s0-n100-refligand-0005

>  <rmsd_to_ref>  (5) 


$$$$

     RDKit          3D

 48 52  0  0  0  0  0  0  0  0999 V2000
    3.0364   22.0753   40.5509 C   0  0  0  0  0  0  0  0  0  0  0  0
    1.1348   20.3878   42.5398 C   0  0  0  0  0  0  0  0  0  0  0  0
    0.1612   21.7266   44.2074 C   0  0  0  0  0  0  0  0  0  0  0  0
    5.6238   23.3562   38.6212 O   0  0  0  0  0  0  0  0  0  0  0  0
   -0.7770   17.9234   46.1824 C   0  0  0  0  0  0  0  0  0  0  0  0
    0.9362   15.5851   44.5698 C   0  0  0  0  0  0  0  0  0  0  0  0
    0.5096   19.5548   44.7853 C   0  0  0  0  0  0  0  0  0  0  0  0
    5.2497   22.0163   39.0499 C   0  0  2  0  0  0  0  0  0  0  0  0
    2.2854   20.4929   38.9458 O   0  0  0  0  0  0  0  0  0  0  0  0
    1.6615   20.0996   41.2327 N   0  0  0  0  0  0  0  0  0  0  0  0
    5.3271   21.8307   40.5239 C   0  0  1  0  0  0  0  0  0  0  0  0
    0.7365   21.6307   43.0382 C   0  0  0  0  0  0  0  0  0  0  0  0
    2.8686   13.8734   41.6093 C   0  0  0  0  0  0  0  0  0  0  0  0
    1.0223   19.3264   43.4518 C   0  0  0  0  0  0  0  0  0  0  0  0
    1.8575   15.9853   42.4850 C   0  0  0  0  0  0  0  0  0  0  0  0
    4.1531   21.2590   40.9658 O   0  0  0  0  0  0  0  0  0  0  0  0
    6.4112   21.5307   39.7563 C   0  0  0  0  0  0  0  0  0  0  0  0
    1.3121   16.6703   43.5445 C   0  0  0  0  0  0  0  0  0  0  0  0
    2.0685   21.0283   40.2724 C   0  0  0  0  0  0  0  0  0  0  0  0
    1.3204   13.9365   43.9465 S   0  0  0  0  0  0  0  0  0  0  0  0
    2.2928   16.6745   41.3877 N   0  0  0  0  0  0  0  0  0  0  0  0
    2.1248   14.6062   42.6069 N   0  0  0  0  0  0  0  0  0  0  0  0
    1.3946   18.0357   43.0153 C   0  0  1  0  0  0  0  0  0  0  0  0
    1.9193   18.9116   40.8741 N   0  0  0  0  0  0  0  0  0  0  0  0
    0.5793   18.5275   45.9451 C   0  0  0  0  0  0  0  0  0  0  0  0
    1.8437   17.9416   41.7073 C   0  0  0  0  0  0  0  0  0  0  0  0
    0.0034   20.7752   45.0777 N   0  0  0  0  0  0  0  0  0  0  0  0
    2.6967   22.7458   41.3540 H   0  0  0  0  0  0  0  0  0  0  0  0
    3.2407   22.7603   39.7147 H   0  0  0  0  0  0  0  0  0  0  0  0
   -0.2307   22.7167   44.4836 H   0  0  0  0  0  0  0  0  0  0  0  0
    5.8784   23.8963   39.4109 H   0  0  0  0  0  0  0  0  0  0  0  0
   -0.9443   17.8108   47.2638 H   0  0  0  0  0  0  0  0  0  0  0  0
   -1.5505   18.5806   45.7582 H   0  0  0  0  0  0  0  0  0  0  0  0
   -0.8286   16.9367   45.6988 H   0  0  0  0  0  0  0  0  0  0  0  0
    1.5003   15.7580   45.4983 H   0  0  0  0  0  0  0  0  0  0  0  0
   -0.1463   15.6430   44.7568 H   0  0  0  0  0  0  0  0  0  0  0  0
    4.5250   21.7174   38.2782 H   0  0  0  0  0  0  0  0  0  0  0  0
    5.4155   22.2496   41.5372 H   0  0  0  0  0  0  0  0  0  0  0  0
    0.9090   22.5378   42.4403 H   0  0  0  0  0  0  0  0  0  0  0  0
    3.6468   13.2713   42.1011 H   0  0  0  0  0  0  0  0  0  0  0  0
    2.1864   13.2104   41.0569 H   0  0  0  0  0  0  0  0  0  0  0  0
    3.3391   14.5802   40.9100 H   0  0  0  0  0  0  0  0  0  0  0  0
    6.7131   20.4795   39.6380 H   0  0  0  0  0  0  0  0  0  0  0  0
    7.4642   21.8474   39.7828 H   0  0  0  0  0  0  0  0  0  0  0  0
    2.4245   18.2177   43.3559 H   0  0  0  0  0  0  0  0  0  0  0  0
    2.1934   18.7236   39.8992 H   0  0  0  0  0  0  0  0  0  0  0  0
    1.2917   17.7312   45.6835 H   0  0  0  0  0  0  0  0  0  0  0  0
    0.9104   19.0398   46.8605 H   0  0  0  0  0  0  0  0  0  0  0  0
  1 16  1  0
  2 12  2  0
  2 14  1  0
  3 27  2  0
  7 27  1  0
  7 25  1  0
  8  4  1  0
  8 17  1  0
  8 11  1  0
  9 19  2  0
 10  2  1  0
 11 16  1  0
 12  3  1  0
 13 22  1  0
 14  7  2  0
 15 22  1  0
 15 18  2  0
 17 11  1  0
 18  6  1  0
 19  1  1  0
 19 10  1  0
 20  6  1  0
 21 26  2  0
 21 15  1  0
 22 20  1  0
 23 26  1  0
 23 14  1  0
 23 18  1  0
 24 10  1  0
 24 26  1  0
 25  5  1  0
  1 28  1  0
  1 29  1  0
  3 30  1  0
  4 31  1  0
  5 32  1  0
  5 33  1  0
  5 34  1  0
  6 35  1  0
  6 36  1  0
  8 37  1  6
 11 38  1  1
 12 39  1  0
 13 40  1  0
 13 41  1  0
 13 42  1  0
 17 43  1  0
 17 44  1  0
 23 45  1  1
 24 46  1  0
 25 47  1  0
 25 48  1  0
M  END
>  <mol_id>  (6) 
2026-09-18-6fnk-s0-n100-refligand-0006

>  <rmsd_to_ref>  (6) 


$$$$

     RDKit          3D

 38 42  0  0  0  0  0  0  0  0999 V2000
    0.6768   19.8483   42.9668 C   0  0  1  0  0  0  0  0  0  0  0  0
   -0.3234   16.0640   45.4392 C   0  0  0  0  0  0  0  0  0  0  0  0
    3.6700   20.4407   41.6333 C   0  0  0  0  0  0  0  0  0  0  0  0
    0.7546   17.4108   43.8614 C   0  0  1  0  0  0  0  0  0  0  0  0
    1.8872   15.8543   42.5198 N   0  0  0  0  0  0  0  0  0  0  0  0
   -0.2700   20.8045   44.8328 O   0  0  0  0  0  0  0  0  0  0  0  0
    0.6570   18.8684   43.6641 C   0  0  2  0  0  0  0  0  0  0  0  0
    2.5294   19.8234   41.1492 C   0  0  0  0  0  0  0  0  0  0  0  0
    0.5154   16.1590   44.4738 C   0  0  2  0  0  0  0  0  0  0  0  0
    0.1076   18.4102   44.8922 C   0  0  1  0  0  0  0  0  0  0  0  0
    3.3976   20.9666   40.3666 C   0  0  0  0  0  0  0  0  0  0  0  0
    1.2312   20.1274   41.5142 C   0  0  0  0  0  0  0  0  0  0  0  0
   -0.5575   17.3946   45.8207 C   0  0  0  0  0  0  0  0  0  0  0  0
   -0.2070   19.7790   45.5417 C   0  0  0  0  0  0  0  0  0  0  0  0
    1.2294   13.8374   44.0499 N   0  0  0  0  0  0  0  0  0  0  0  0
    1.2190   15.1236   43.5735 C   0  0  0  0  0  0  0  0  0  0  0  0
    1.6575   17.1124   42.8209 N   0  0  0  0  0  0  0  0  0  0  0  0
   -0.0642   21.9817   42.9664 O   0  0  0  0  0  0  0  0  0  0  0  0
    0.1485   20.9467   43.5743 C   0  0  0  0  0  0  0  0  0  0  0  0
    1.6633   20.0890   43.3896 H   0  0  0  0  0  0  0  0  0  0  0  0
    0.1044   15.4881   46.2731 H   0  0  0  0  0  0  0  0  0  0  0  0
   -1.2453   15.5396   45.1478 H   0  0  0  0  0  0  0  0  0  0  0  0
    3.5639   21.1089   42.5006 H   0  0  0  0  0  0  0  0  0  0  0  0
    4.5971   19.9938   42.0216 H   0  0  0  0  0  0  0  0  0  0  0  0
    1.1233   19.6303   43.0221 H   0  0  0  0  0  0  0  0  0  0  0  0
    2.2103   18.7758   41.0456 H   0  0  0  0  0  0  0  0  0  0  0  0
    0.6202   15.6470   45.4418 H   0  0  0  0  0  0  0  0  0  0  0  0
    4.0231   20.7085   39.4992 H   0  0  0  0  0  0  0  0  0  0  0  0
    3.2223   21.9550   39.9168 H   0  0  0  0  0  0  0  0  0  0  0  0
    0.5802   19.5695   40.8250 H   0  0  0  0  0  0  0  0  0  0  0  0
    1.2356   21.2268   41.4789 H   0  0  0  0  0  0  0  0  0  0  0  0
   -1.6426   17.5743   45.8162 H   0  0  0  0  0  0  0  0  0  0  0  0
   -0.1216   17.5305   46.8214 H   0  0  0  0  0  0  0  0  0  0  0  0
    0.5738   19.9606   46.2949 H   0  0  0  0  0  0  0  0  0  0  0  0
   -1.2385   19.6571   45.9039 H   0  0  0  0  0  0  0  0  0  0  0  0
    0.6291   13.5781   44.8457 H   0  0  0  0  0  0  0  0  0  0  0  0
    1.8374   13.1309   43.6118 H   0  0  0  0  0  0  0  0  0  0  0  0
    2.1296   17.8686   42.3049 H   0  0  0  0  0  0  0  0  0  0  0  0
  1 12  1  0
  1 19  1  0
  1  7  1  0
  2 13  1  0
  4 17  1  1
  4  9  1  0
  4 10  1  0
  5 17  1  0
  5 16  2  0
  6 14  1  0
  7  4  1  0
  7 10  1  0
  8 12  1  0
  8  3  1  0
  9  2  1  0
 10 14  1  1
 10 13  1  0
 11  8  1  0
 11  3  1  0
 16 15  1  0
 16  9  1  0
 18 19  2  0
 19  6  1  0
  1 20  1  1
  2 21  1  0
  2 22  1  0
  3 23  1  0
  3 24  1  0
  7 25  1  1
  8 26  1  0
  9 27  1  1
 11 28  1  0
 11 29  1  0
 12 30  1  0
 12 31  1  0
 13 32  1  0
 13 33  1  0
 14 34  1  0
 14 35  1  0
 15 36  1  0
 15 37  1  0
 17 38  1  0
M  END
>  <mol_id>  (7) 
2026-09-18-6fnk-s0-n100-refligand-0007

>  <rmsd_to_ref>  (7) 


$$$$

     RDKit          3D

 39 42  0  0  0  0  0  0  0  0999 V2000
    2.3216   20.4112   39.7637 C   0  0  0  0  0  0  0  0  0  0  0  0
   -0.2518   20.6927   44.7254 C   0  0  0  0  0  0  0  0  0  0  0  0
    2.6475   19.1377   39.6618 C   0  0  0  0  0  0  0  0  0  0  0  0
    1.7875   17.8076   42.9537 N   0  0  0  0  0  0  0  0  0  0  0  0
    2.3455   18.2594   40.5902 C   0  0  0  0  0  0  0  0  0  0  0  0
    2.3576   18.6905   41.9591 C   0  0  1  0  0  0  0  0  0  0  0  0
   -1.0263   16.4354   46.0077 C   0  0  0  0  0  0  0  0  0  0  0  0
    1.6511   19.9887   41.9799 C   0  0  1  0  0  0  0  0  0  0  0  0
   -0.7526   20.4994   46.0129 N   0  0  0  0  0  0  0  0  0  0  0  0
    0.0541   21.1519   43.0510 N   0  0  0  0  0  0  0  0  0  0  0  0
    0.4095   19.3949   44.0932 C   0  0  1  0  0  0  0  0  0  0  0  0
   -0.1981   18.3925   45.0537 C   0  0  0  0  0  0  0  0  0  0  0  0
   -0.2651   17.0750   44.9989 C   0  0  0  0  0  0  0  0  0  0  0  0
    1.7646   20.9036   40.9508 C   0  0  0  0  0  0  0  0  0  0  0  0
   -0.6517   19.0985   46.1380 C   0  0  0  0  0  0  0  0  0  0  0  0
   -0.5155   21.2763   43.8414 N   0  0  0  0  0  0  0  0  0  0  0  0
    3.8356   19.0157   42.3102 C   0  0  0  0  0  0  0  0  0  0  0  0
   -1.3716   18.6560   47.1435 C   0  0  0  0  0  0  0  0  0  0  0  0
   -1.5541   17.1869   47.0883 C   0  0  0  0  0  0  0  0  0  0  0  0
    0.7223   20.1620   42.9418 C   0  0  0  0  0  0  0  0  0  0  0  0
    2.4875   21.0892   38.9136 H   0  0  0  0  0  0  0  0  0  0  0  0
    3.1915   18.7990   38.7678 H   0  0  0  0  0  0  0  0  0  0  0  0
    1.9804   18.1801   43.8944 H   0  0  0  0  0  0  0  0  0  0  0  0
    0.7693   17.7428   42.8121 H   0  0  0  0  0  0  0  0  0  0  0  0
    2.2070   16.8713   42.8625 H   0  0  0  0  0  0  0  0  0  0  0  0
    1.3323   17.8902   40.3732 H   0  0  0  0  0  0  0  0  0  0  0  0
    3.1507   17.5123   40.5319 H   0  0  0  0  0  0  0  0  0  0  0  0
   -1.2088   15.3520   45.9527 H   0  0  0  0  0  0  0  0  0  0  0  0
    2.5239   20.5829   42.2884 H   0  0  0  0  0  0  0  0  0  0  0  0
    1.1054   18.5826   43.8364 H   0  0  0  0  0  0  0  0  0  0  0  0
    0.2446   16.5030   44.2095 H   0  0  0  0  0  0  0  0  0  0  0  0
    2.3961   21.7326   41.3027 H   0  0  0  0  0  0  0  0  0  0  0  0
    0.7367   21.2040   40.6996 H   0  0  0  0  0  0  0  0  0  0  0  0
   -1.3178   21.9221   43.8364 H   0  0  0  0  0  0  0  0  0  0  0  0
    3.9389   19.1210   43.4003 H   0  0  0  0  0  0  0  0  0  0  0  0
    4.4843   18.2002   41.9575 H   0  0  0  0  0  0  0  0  0  0  0  0
    4.1302   19.9561   41.8214 H   0  0  0  0  0  0  0  0  0  0  0  0
   -1.7891   19.2993   47.9321 H   0  0  0  0  0  0  0  0  0  0  0  0
   -2.1034   16.6748   47.8920 H   0  0  0  0  0  0  0  0  0  0  0  0
  1 14  1  0
  2  9  2  0
  3  1  2  0
  3  5  1  0
  5  6  1  0
  6  8  1  0
  6 17  1  1
  6  4  1  0
  7 19  2  0
  8 20  1  0
  9 15  1  0
 10 16  1  0
 11 20  1  0
 11  2  1  0
 11 12  1  0
 12 15  1  0
 13 12  2  0
 13  7  1  0
 14  8  1  0
 15 18  2  0
 16  2  1  0
 19 18  1  0
 20 10  2  0
  1 21  1  0
  3 22  1  0
  4 23  1  0
  4 24  1  0
  4 25  1  0
  5 26  1  0
  5 27  1  0
  7 28  1  0
  8 29  1  1
 11 30  1  1
 13 31  1  0
 14 32  1  0
 14 33  1  0
 16 34  1  0
 17 35  1  0
 17 36  1  0
 17 37  1  0
 18 38  1  0
 19 39  1  0
M  CHG  1   4   1
M  END
>  <mol_id>  (8) 
2026-09-18-6fnk-s0-n100-refligand-0008

>  <rmsd_to_ref>  (8) 


$$$$

     RDKit          3D

 33 33  0  0  0  0  0  0  0  0999 V2000
   -0.0147   16.0404   45.5687 C   0  0  0  0  0  0  0  0  0  0  0  0
   -0.7570   20.0857   45.3665 O   0  0  0  0  0  0  0  0  0  0  0  0
    1.6171   19.8706   41.1998 O   0  0  0  0  0  0  0  0  0  0  0  0
   -0.8744   16.6924   46.4442 C   0  0  0  0  0  0  0  0  0  0  0  0
    1.0281   18.6588   43.5456 C   0  0  0  0  0  0  0  0  0  0  0  0
    1.8229   18.0540   42.7919 C   0  0  0  0  0  0  0  0  0  0  0  0
    2.3653   20.0005   42.1633 C   0  0  0  0  0  0  0  0  0  0  0  0
    1.6222   15.8966   43.7910 C   0  0  0  0  0  0  0  0  0  0  0  0
    3.5025   20.9091   41.4568 C   0  0  0  0  0  0  0  0  0  0  0  0
    2.6826   18.2516   42.1582 O   0  0  0  0  0  0  0  0  0  0  0  0
    3.5529   21.0425   40.0800 O   0  0  0  0  0  0  0  0  0  0  0  0
    0.3721   18.0127   44.5370 C   0  0  0  0  0  0  0  0  0  0  0  0
    2.1395   16.8799   43.0227 C   0  0  0  0  0  0  0  0  0  0  0  0
   -1.1001   18.0333   46.3910 C   0  0  0  0  0  0  0  0  0  0  0  0
    0.5692   16.7205   44.5788 C   0  0  0  0  0  0  0  0  0  0  0  0
   -0.5120   18.7459   45.5022 C   0  0  0  0  0  0  0  0  0  0  0  0
    3.0463   16.2493   41.7560 C   0  0  0  0  0  0  0  0  0  0  0  0
    0.1847   14.9655   45.6908 H   0  0  0  0  0  0  0  0  0  0  0  0
   -1.3437   20.5499   46.0150 H   0  0  0  0  0  0  0  0  0  0  0  0
    0.6822   19.7926   41.5160 H   0  0  0  0  0  0  0  0  0  0  0  0
   -1.3941   16.1003   47.2118 H   0  0  0  0  0  0  0  0  0  0  0  0
    0.2566   19.0985   42.8965 H   0  0  0  0  0  0  0  0  0  0  0  0
    1.6934   19.3363   44.1008 H   0  0  0  0  0  0  0  0  0  0  0  0
    1.8779   20.5219   43.0002 H   0  0  0  0  0  0  0  0  0  0  0  0
    2.7170   19.0668   42.6264 H   0  0  0  0  0  0  0  0  0  0  0  0
    1.8734   14.8270   43.8428 H   0  0  0  0  0  0  0  0  0  0  0  0
    3.3910   21.9242   41.8657 H   0  0  0  0  0  0  0  0  0  0  0  0
    4.4276   20.3579   41.6811 H   0  0  0  0  0  0  0  0  0  0  0  0
    3.3655   21.9825   39.8324 H   0  0  0  0  0  0  0  0  0  0  0  0
   -1.7861   18.5052   47.1097 H   0  0  0  0  0  0  0  0  0  0  0  0
    3.8870   15.6669   42.1613 H   0  0  0  0  0  0  0  0  0  0  0  0
    2.4109   15.5960   41.1400 H   0  0  0  0  0  0  0  0  0  0  0  0
    3.4345   17.0720   41.1378 H   0  0  0  0  0  0  0  0  0  0  0  0
  1  4  1  0
  2 16  1  0
  3  7  1  0
  4 14  2  0
  5 12  1  0
  6 13  1  0
  6  5  1  0
  8 15  1  0
  9  7  1  0
 10  6  2  0
 11  9  1  0
 12 16  2  0
 13  8  2  0
 15 12  1  0
 15  1  2  0
 16 14  1  0
 17 13  1  0
  1 18  1  0
  2 19  1  0
  3 20  1  0
  4 21  1  0
  5 22  1  0
  5 23  1  0
  7 24  1  0
  7 25  1  0
  8 26  1  0
  9 27  1  0
  9 28  1  0
 11 29  1  0
 14 30  1  0
 17 31  1  0
 17 32  1  0
 17 33  1  0
M  END
>  <mol_id>  (9) 
2026-09-18-6fnk-s0-n100-refligand-0009

>  <rmsd_to_ref>  (9) 


$$$$

     RDKit          3D

 19 20  0  0  0  0  0  0  0  0999 V2000
   -0.7277   19.8121   45.3674 C   0  0  0  0  0  0  0  0  0  0  0  0
    1.3229   17.5484   43.2643 C   0  0  0  0  0  0  0  0  0  0  0  0
    2.3142   21.0899   41.2225 N   0  0  0  0  0  0  0  0  0  0  0  0
    0.7796   18.8451   43.7600 C   0  0  0  0  0  0  0  0  0  0  0  0
    1.0489   19.9769   43.1184 C   0  0  0  0  0  0  0  0  0  0  0  0
    0.3317   20.9509   43.6376 C   0  0  0  0  0  0  0  0  0  0  0  0
    2.7775   18.7622   41.7595 C   0  0  0  0  0  0  0  0  0  0  0  0
    2.0046   19.9866   42.0353 C   0  0  0  0  0  0  0  0  0  0  0  0
   -0.5510   20.9259   44.6933 N   0  0  0  0  0  0  0  0  0  0  0  0
    2.3422   17.6040   42.3068 C   0  0  0  0  0  0  0  0  0  0  0  0
   -0.0835   18.7127   44.9091 C   0  0  0  0  0  0  0  0  0  0  0  0
   -1.3680   19.7745   46.2609 H   0  0  0  0  0  0  0  0  0  0  0  0
    0.9385   16.5872   43.6359 H   0  0  0  0  0  0  0  0  0  0  0  0
    1.8169   21.9822   41.3541 H   0  0  0  0  0  0  0  0  0  0  0  0
    3.0386   21.0065   40.4950 H   0  0  0  0  0  0  0  0  0  0  0  0
    0.4566   21.9317   43.1555 H   0  0  0  0  0  0  0  0  0  0  0  0
    3.6786   18.7892   41.1292 H   0  0  0  0  0  0  0  0  0  0  0  0
    2.8111   16.6626   41.9844 H   0  0  0  0  0  0  0  0  0  0  0  0
   -0.2153   17.7385   45.4027 H   0  0  0  0  0  0  0  0  0  0  0  0
  2  4  1  0
  3  8  1  0
  4 11  2  0
  5  6  2  0
  5  4  1  0
  6  9  1  0
  7  8  2  0
  7 10  1  0
  8  5  1  0
  9  1  2  0
 10  2  2  0
 11  1  1  0
  1 12  1  0
  2 13  1  0
  3 14  1  0
  3 15  1  0
  6 16  1  0
  7 17  1  0
 10 18  1  0
 11 19  1  0
M  END
>  <mol_id>  (10) 
2026-09-18-6fnk-s0-n100-refligand-0010

>  <rmsd_to_ref>  (10) 


$$$$

     RDKit          3D

 34 34  0  0  0  0  0  0  0  0999 V2000
    0.1795   19.6748   43.5228 C   0  0  0  0  0  0  0  0  0  0  0  0
   -0.3000   20.6958   44.0154 O   0  0  0  0  0  0  0  0  0  0  0  0
    2.6206   15.5416   41.2204 Cl  0  0  0  0  0  0  0  0  0  0  0  0
   -1.1089   16.5900   44.8997 N   0  0  0  0  0  0  0  0  0  0  0  0
   -1.6331   15.6991   45.7814 C   0  0  0  0  0  0  0  0  0  0  0  0
    2.8779   20.9274   42.6162 N   0  0  0  0  0  0  0  0  0  0  0  0
   -1.7332   18.4740   46.1725 C   0  0  0  0  0  0  0  0  0  0  0  0
    2.4459   19.4237   40.5909 C   0  0  0  0  0  0  0  0  0  0  0  0
   -0.6562   18.7150   44.0086 N   0  0  0  0  0  0  0  0  0  0  0  0
   -2.3121   16.2554   46.9014 C   0  0  0  0  0  0  0  0  0  0  0  0
    2.0738   20.0049   41.7720 C   0  0  0  0  0  0  0  0  0  0  0  0
   -2.3080   17.6142   47.0658 C   0  0  0  0  0  0  0  0  0  0  0  0
    1.3971   17.7749   42.3908 C   0  0  0  0  0  0  0  0  0  0  0  0
    2.3725   20.4943   40.4225 N   0  0  0  0  0  0  0  0  0  0  0  0
   -1.1333   17.9119   45.0330 C   0  0  0  0  0  0  0  0  0  0  0  0
    1.2453   19.1782   42.5364 C   0  0  1  0  0  0  0  0  0  0  0  0
    2.1495   17.3120   41.3224 C   0  0  0  0  0  0  0  0  0  0  0  0
    2.5576   18.0798   40.3003 C   0  0  0  0  0  0  0  0  0  0  0  0
   -1.5383   14.6126   45.6380 H   0  0  0  0  0  0  0  0  0  0  0  0
    2.7251   21.0274   43.6299 H   0  0  0  0  0  0  0  0  0  0  0  0
    2.9663   21.8604   42.1887 H   0  0  0  0  0  0  0  0  0  0  0  0
    3.7412   20.3907   42.4504 H   0  0  0  0  0  0  0  0  0  0  0  0
    2.0791   20.4314   42.1958 H   0  0  0  0  0  0  0  0  0  0  0  0
   -1.7399   19.5613   46.3387 H   0  0  0  0  0  0  0  0  0  0  0  0
   -1.2292   18.4484   43.1953 H   0  0  0  0  0  0  0  0  0  0  0  0
   -2.8307   15.6055   47.6216 H   0  0  0  0  0  0  0  0  0  0  0  0
    2.9791   20.2326   42.3539 H   0  0  0  0  0  0  0  0  0  0  0  0
    1.5077   20.9171   41.5326 H   0  0  0  0  0  0  0  0  0  0  0  0
   -2.7908   18.0346   47.9603 H   0  0  0  0  0  0  0  0  0  0  0  0
    0.9328   17.0768   43.1028 H   0  0  0  0  0  0  0  0  0  0  0  0
    2.5730   20.8839   39.4904 H   0  0  0  0  0  0  0  0  0  0  0  0
    0.4979   19.1811   41.7294 H   0  0  0  0  0  0  0  0  0  0  0  0
    1.9412   17.8543   39.4175 H   0  0  0  0  0  0  0  0  0  0  0  0
    3.6183   17.8588   40.1096 H   0  0  0  0  0  0  0  0  0  0  0  0
  1  9  1  0
  1  2  2  0
  3 17  1  0
  4 15  1  0
  4  5  2  0
  5 10  1  0
  7 12  1  0
  8 11  1  0
  9 15  1  0
 10 12  2  0
 11 16  1  0
 13 16  1  0
 14  8  2  3
 15  7  2  0
 16  1  1  0
 17 13  2  0
 18  8  1  0
 18 17  1  0
  5 19  1  0
  6 20  1  0
  6 21  1  0
  6 22  1  0
  6 23  1  0
  7 24  1  0
  9 25  1  0
 10 26  1  0
 11 27  1  0
 11 28  1  0
 12 29  1  0
 13 30  1  0
 14 31  1  0
 16 32  1  6
 18 33  1  0
 18 34  1  0
M  CHG  1   6   1
M  END
>  <mol_id>  (11) 
2026-09-18-6fnk-s0-n100-refligand-0011

>  <rmsd_to_ref>  (11) 


$$$$

     RDKit          3D

 17 18  0  0  0  0  0  0  0  0999 V2000
    1.9890   19.1423   42.8585 C   0  0  0  0  0  0  0  0  0  0  0  0
    0.2003   19.8239   44.3484 C   0  0  0  0  0  0  0  0  0  0  0  0
    0.5135   17.4582   43.7220 C   0  0  0  0  0  0  0  0  0  0  0  0
    2.7221   18.1813   42.2508 O   0  0  0  0  0  0  0  0  0  0  0  0
   -1.0505   18.1913   45.4126 C   0  0  0  0  0  0  0  0  0  0  0  0
   -0.4458   17.1323   44.6337 C   0  0  0  0  0  0  0  0  0  0  0  0
   -0.7281   19.5023   45.2540 N   0  0  0  0  0  0  0  0  0  0  0  0
    1.4791   21.4263   43.2892 C   0  0  0  0  0  0  0  0  0  0  0  0
    0.8866   18.7726   43.6560 C   0  0  0  0  0  0  0  0  0  0  0  0
    0.5420   21.0845   44.1624 N   0  0  0  0  0  0  0  0  0  0  0  0
    2.2487   20.4795   42.6755 C   0  0  0  0  0  0  0  0  0  0  0  0
    0.9673   16.6984   43.0687 H   0  0  0  0  0  0  0  0  0  0  0  0
    3.4979   18.4315   41.6890 H   0  0  0  0  0  0  0  0  0  0  0  0
   -1.8050   17.9234   46.1669 H   0  0  0  0  0  0  0  0  0  0  0  0
   -0.7540   16.0858   44.7745 H   0  0  0  0  0  0  0  0  0  0  0  0
    1.6393   22.4892   43.0553 H   0  0  0  0  0  0  0  0  0  0  0  0
    3.0831   20.7897   42.0293 H   0  0  0  0  0  0  0  0  0  0  0  0
  1  9  2  0
  2  7  1  0
  3  6  2  0
  4  1  1  0
  6  5  1  0
  7  5  2  0
  8 10  1  0
  9  3  1  0
  9  2  1  0
 10  2  2  0
 11  8  2  0
 11  1  1  0
  3 12  1  0
  4 13  1  0
  5 14  1  0
  6 15  1  0
  8 16  1  0
 11 17  1  0
M  END
>  <mol_id>  (12) 
2026-09-18-6fnk-s0-n100-refligand-0013

>  <rmsd_to_ref>  (12) 


$$$$

     RDKit          3D

 32 33  0  0  0  0  0  0  0  0999 V2000
    2.5960   17.9130   40.6170 N   0  0  0  0  0  0  0  0  0  0  0  0
    1.1850   16.1250   40.0890 N   0  0  0  0  0  0  0  0  0  0  0  0
   -0.0240   21.5350   42.8040 C   0  0  0  0  0  0  0  0  0  0  0  0
    0.2320   16.6330   44.1650 C   0  0  0  0  0  0  0  0  0  0  0  0
    2.5310   19.9560   41.6200 O   0  0  0  0  0  0  0  0  0  0  0  0
   -0.9560   17.4430   46.1330 C   0  0  0  0  0  0  0  0  0  0  0  0
    1.9400   18.7510   41.4560 C   0  0  2  0  0  0  0  0  0  0  0  0
   -0.2660   17.6720   44.9190 C   0  0  1  0  0  0  0  0  0  0  0  0
    0.8640   20.5560   43.1830 O   0  0  0  0  0  0  0  0  0  0  0  0
    2.2540   16.6980   39.9570 C   0  0  0  0  0  0  0  0  0  0  0  0
    1.1630   18.2200   42.6290 C   0  0  0  0  0  0  0  0  0  0  0  0
    0.5670   19.2160   43.3500 C   0  0  0  0  0  0  0  0  0  0  0  0
    3.3350   16.1660   39.3090 N   0  0  0  0  0  0  0  0  0  0  0  0
   -0.8020   19.9110   44.9610 O   0  0  0  0  0  0  0  0  0  0  0  0
    0.9870   16.9520   43.0170 C   0  0  0  0  0  0  0  0  0  0  0  0
    1.4170   19.8860   41.0090 C   0  0  0  0  0  0  0  0  0  0  0  0
   -0.1430   18.9860   44.4550 C   0  0  0  0  0  0  0  0  0  0  0  0
    1.0045   15.2479   39.5801 H   0  0  0  0  0  0  0  0  0  0  0  0
    0.4630   16.5184   40.7093 H   0  0  0  0  0  0  0  0  0  0  0  0
   -0.4529   22.0078   43.6999 H   0  0  0  0  0  0  0  0  0  0  0  0
    0.5005   22.2936   42.2045 H   0  0  0  0  0  0  0  0  0  0  0  0
   -0.8300   21.0868   42.2045 H   0  0  0  0  0  0  0  0  0  0  0  0
    0.0468   15.5866   44.4491 H   0  0  0  0  0  0  0  0  0  0  0  0
   -0.2903   17.6639   46.9804 H   0  0  0  0  0  0  0  0  0  0  0  0
   -1.8399   18.0960   46.1812 H   0  0  0  0  0  0  0  0  0  0  0  0
   -1.2741   16.3911   46.1812 H   0  0  0  0  0  0  0  0  0  0  0  0
   -1.2165   17.6161   44.3682 H   0  0  0  0  0  0  0  0  0  0  0  0
    4.2084   16.7068   39.2348 H   0  0  0  0  0  0  0  0  0  0  0  0
    3.2755   15.2246   38.8953 H   0  0  0  0  0  0  0  0  0  0  0  0
    1.4406   16.1410   42.4284 H   0  0  0  0  0  0  0  0  0  0  0  0
    1.3791   20.0766   39.9263 H   0  0  0  0  0  0  0  0  0  0  0  0
    0.4432   20.3803   41.1409 H   0  0  0  0  0  0  0  0  0  0  0  0
  3  9  1  0
  4  8  1  0
  7  1  1  0
  7  5  1  0
  7 11  1  1
  8  6  1  0
  9 12  1  0
 10  2  1  0
 10  1  2  3
 11 15  1  0
 11 12  2  0
 12 17  1  0
 13 10  1  0
 15  4  2  0
 16  7  1  0
 16  5  1  0
 17  8  1  0
 17 14  2  0
  2 18  1  0
  2 19  1  0
  3 20  1  0
  3 21  1  0
  3 22  1  0
  4 23  1  0
  6 24  1  0
  6 25  1  0
  6 26  1  0
  8 27  1  6
 13 28  1  0
 13 29  1  0
 15 30  1  0
 16 31  1  0
 16 32  1  0
M  END
>  <mol_id>  (13) 
2026-09-18-6fnk-s0-n100-refligand-0014

>  <rmsd_to_ref>  (13) 


$$$$

     RDKit          3D

 45 48  0  0  0  0  0  0  0  0999 V2000
   -0.4891   19.9240   44.6193 O   0  0  0  0  0  0  0  0  0  0  0  0
    2.8937   17.4913   41.9999 C   0  0  0  0  0  0  0  0  0  0  0  0
    0.4614   19.9072   43.6887 C   0  0  0  0  0  0  0  0  0  0  0  0
   -0.4634   16.4983   45.6493 C   0  0  0  0  0  0  0  0  0  0  0  0
    4.6152   21.7160   40.1302 C   0  0  0  0  0  0  0  0  0  0  0  0
    3.4616   19.4371   40.0786 C   0  0  0  0  0  0  0  0  0  0  0  0
    2.1802   18.7103   42.3141 C   0  0  0  0  0  0  0  0  0  0  0  0
    1.5556   16.4249   43.7732 C   0  0  0  0  0  0  0  0  0  0  0  0
    2.8041   19.9054   41.6008 N   0  0  0  0  0  0  0  0  0  0  0  0
    1.2865   18.7474   43.3247 C   0  0  0  0  0  0  0  0  0  0  0  0
    1.1491   15.2340   44.3411 N   0  0  0  0  0  0  0  0  0  0  0  0
    0.9000   17.5761   44.0913 C   0  0  0  0  0  0  0  0  0  0  0  0
    3.3461   15.0366   42.5000 C   0  0  0  0  0  0  0  0  0  0  0  0
    2.5699   16.3734   42.7514 C   0  0  0  0  0  0  0  0  0  0  0  0
    0.6651   21.2150   43.1838 C   0  0  0  0  0  0  0  0  0  0  0  0
    3.9012   20.6248   39.3391 C   0  0  0  0  0  0  0  0  0  0  0  0
    2.5954   21.1540   41.7535 C   0  0  0  0  0  0  0  0  0  0  0  0
    0.1769   15.2773   45.2995 C   0  0  0  0  0  0  0  0  0  0  0  0
    1.4080   21.5784   42.2324 C   0  0  0  0  0  0  0  0  0  0  0  0
   -0.2957   14.0171   46.0222 C   0  0  0  0  0  0  0  0  0  0  0  0
   -0.1728   17.6520   45.0222 N   0  0  0  0  0  0  0  0  0  0  0  0
    3.5778   22.0821   41.1936 C   0  0  0  0  0  0  0  0  0  0  0  0
   -0.1376   12.7964   45.2037 C   0  0  0  0  0  0  0  0  0  0  0  0
   -1.5038   16.5140   46.5934 O   0  0  0  0  0  0  0  0  0  0  0  0
   -0.9950   20.7566   44.7952 H   0  0  0  0  0  0  0  0  0  0  0  0
    3.6538   17.4541   41.2057 H   0  0  0  0  0  0  0  0  0  0  0  0
    4.8528   22.5797   39.4919 H   0  0  0  0  0  0  0  0  0  0  0  0
    5.5803   21.3952   40.5494 H   0  0  0  0  0  0  0  0  0  0  0  0
    4.3209   18.7702   40.2420 H   0  0  0  0  0  0  0  0  0  0  0  0
    2.6898   18.9125   39.4962 H   0  0  0  0  0  0  0  0  0  0  0  0
    3.4362   14.4816   43.4455 H   0  0  0  0  0  0  0  0  0  0  0  0
    2.7976   14.4263   41.7675 H   0  0  0  0  0  0  0  0  0  0  0  0
    4.3497   15.2630   42.1106 H   0  0  0  0  0  0  0  0  0  0  0  0
    0.1030   22.0160   43.6863 H   0  0  0  0  0  0  0  0  0  0  0  0
    3.0095   21.0781   38.8815 H   0  0  0  0  0  0  0  0  0  0  0  0
    4.6535   20.2528   38.6281 H   0  0  0  0  0  0  0  0  0  0  0  0
    0.9975   22.4290   41.6686 H   0  0  0  0  0  0  0  0  0  0  0  0
    0.2907   13.9001   46.9455 H   0  0  0  0  0  0  0  0  0  0  0  0
   -1.3684   14.1382   46.2341 H   0  0  0  0  0  0  0  0  0  0  0  0
   -0.6885   18.5253   45.2025 H   0  0  0  0  0  0  0  0  0  0  0  0
    4.1552   22.4536   42.0530 H   0  0  0  0  0  0  0  0  0  0  0  0
    2.9200   22.7456   40.6131 H   0  0  0  0  0  0  0  0  0  0  0  0
   -0.2435   11.9088   45.8447 H   0  0  0  0  0  0  0  0  0  0  0  0
   -0.9100   12.7773   44.4206 H   0  0  0  0  0  0  0  0  0  0  0  0
    0.8582   12.7946   44.7365 H   0  0  0  0  0  0  0  0  0  0  0  0
  2  7  2  0
  2 14  1  0
  3  1  1  0
  4 24  2  0
  5 22  1  0
  6  9  1  0
  7 10  1  0
  8 12  1  0
  8 11  1  0
  9 17  1  0
  9  7  1  0
 10  3  1  0
 10 12  2  0
 11 18  2  0
 12 21  1  0
 13 14  1  0
 14  8  2  0
 15  3  2  0
 16  5  1  0
 16  6  1  0
 17 19  2  0
 18  4  1  0
 18 20  1  0
 19 15  1  0
 21  4  1  0
 22 17  1  0
 23 20  1  0
  1 25  1  0
  2 26  1  0
  5 27  1  0
  5 28  1  0
  6 29  1  0
  6 30  1  0
 13 31  1  0
 13 32  1  0
 13 33  1  0
 15 34  1  0
 16 35  1  0
 16 36  1  0
 19 37  1  0
 20 38  1  0
 20 39  1  0
 21 40  1  0
 22 41  1  0
 22 42  1  0
 23 43  1  0
 23 44  1  0
 23 45  1  0
M  END
>  <mol_id>  (14) 
2026-09-18-6fnk-s0-n100-refligand-0015

>  <rmsd_to_ref>  (14) 


$$$$

     RDKit          3D

 49 53  0  0  0  0  0  0  0  0999 V2000
   -0.5225   19.1534   45.4983 N   0  0  0  0  0  0  0  0  0  0  0  0
    4.1972   21.2601   40.5301 C   0  0  0  0  0  0  0  0  0  0  0  0
   -1.6855   17.1931   47.5348 S   0  0  0  0  0  0  0  0  0  0  0  0
   -0.2097   15.6782   46.2217 C   0  0  0  0  0  0  0  0  0  0  0  0
    2.9922   19.1839   40.5041 C   0  0  0  0  0  0  0  0  0  0  0  0
    2.7276   16.6162   40.8080 C   0  0  2  0  0  0  0  0  0  0  0  0
    1.6389   18.2672   42.5580 C   0  0  1  0  0  0  0  0  0  0  0  0
    1.5531   17.2485   43.4581 N   0  0  0  0  0  0  0  0  0  0  0  0
    2.2562   18.0310   41.2635 C   0  0  1  0  0  0  0  0  0  0  0  0
    3.7977   20.1135   38.4341 C   0  0  0  0  0  0  0  0  0  0  0  0
    0.3729   20.6346   42.1530 Cl  0  0  0  0  0  0  0  0  0  0  0  0
    0.4169   19.3829   43.2996 C   0  0  1  0  0  0  0  0  0  0  0  0
   -1.0669   20.9252   44.3396 O   0  0  0  0  0  0  0  0  0  0  0  0
   -0.6143   14.8889   47.2769 C   0  0  0  0  0  0  0  0  0  0  0  0
    0.8328   17.2882   44.5014 C   0  0  0  0  0  0  0  0  0  0  0  0
   -1.4565   15.6325   48.2013 C   0  0  0  0  0  0  0  0  0  0  0  0
    3.0795   14.7168   39.7307 N   0  0  0  0  0  0  0  0  0  0  0  0
   -0.4930   19.8556   44.4324 C   0  0  0  0  0  0  0  0  0  0  0  0
    3.3758   15.7200   41.6363 N   0  0  0  0  0  0  0  0  0  0  0  0
    3.5437   20.2495   41.2115 C   0  0  0  0  0  0  0  0  0  0  0  0
    2.8628   16.0228   39.5604 C   0  0  0  0  0  0  0  0  0  0  0  0
    3.1919   14.4813   40.9256 C   0  0  0  0  0  0  0  0  0  0  0  0
    3.1115   19.0979   39.1885 N   0  0  0  0  0  0  0  0  0  0  0  0
   -0.6018   16.9683   46.2714 C   0  0  0  0  0  0  0  0  0  0  0  0
    0.9072   15.7261   45.1800 C   0  0  0  0  0  0  0  0  0  0  0  0
    4.3196   21.1536   39.1356 C   0  0  0  0  0  0  0  0  0  0  0  0
    0.0295   17.8103   45.3328 C   0  0  2  0  0  0  0  0  0  0  0  0
   -0.9000   19.5010   46.3913 H   0  0  0  0  0  0  0  0  0  0  0  0
    4.6109   22.1262   41.0676 H   0  0  0  0  0  0  0  0  0  0  0  0
    1.8006   17.2078   40.8336 H   0  0  0  0  0  0  0  0  0  0  0  0
    2.3766   18.9645   42.1344 H   0  0  0  0  0  0  0  0  0  0  0  0
    1.2104   18.0548   40.9233 H   0  0  0  0  0  0  0  0  0  0  0  0
    3.8951   20.0505   37.3402 H   0  0  0  0  0  0  0  0  0  0  0  0
    1.2209   19.9051   43.8389 H   0  0  0  0  0  0  0  0  0  0  0  0
   -0.3361   13.8323   47.4037 H   0  0  0  0  0  0  0  0  0  0  0  0
   -1.8690   15.2614   49.1512 H   0  0  0  0  0  0  0  0  0  0  0  0
    2.2866   14.1828   39.3472 H   0  0  0  0  0  0  0  0  0  0  0  0
    3.9428   14.4419   39.2405 H   0  0  0  0  0  0  0  0  0  0  0  0
    4.3745   15.9527   41.7331 H   0  0  0  0  0  0  0  0  0  0  0  0
    3.0158   15.7063   42.6013 H   0  0  0  0  0  0  0  0  0  0  0  0
    3.4599   20.2871   42.3077 H   0  0  0  0  0  0  0  0  0  0  0  0
    3.7126   16.4728   39.0263 H   0  0  0  0  0  0  0  0  0  0  0  0
    1.9479   16.1777   38.9697 H   0  0  0  0  0  0  0  0  0  0  0  0
    2.2826   13.9801   41.2890 H   0  0  0  0  0  0  0  0  0  0  0  0
    4.0594   13.8262   41.0935 H   0  0  0  0  0  0  0  0  0  0  0  0
    0.7431   14.9625   44.4054 H   0  0  0  0  0  0  0  0  0  0  0  0
    1.8910   15.5229   45.6279 H   0  0  0  0  0  0  0  0  0  0  0  0
    4.8585   21.9422   38.5900 H   0  0  0  0  0  0  0  0  0  0  0  0
    0.8759   18.0781   45.9823 H   0  0  0  0  0  0  0  0  0  0  0  0
  2 20  1  0
  3 16  1  0
  4 24  2  0
  4 14  1  0
  5 20  2  0
  6 19  1  0
  6  9  1  0
  7  9  1  0
  7  8  1  0
  7 12  1  0
  8 15  2  0
  9  5  1  0
 10 23  2  0
 10 26  1  0
 12 11  1  0
 12 18  1  0
 14 16  2  0
 15 25  1  0
 17 21  1  0
 17 22  1  0
 18 13  2  0
 18  1  1  0
 21  6  1  0
 22 19  1  0
 23  5  1  0
 24  3  1  0
 25  4  1  0
 26  2  2  0
 27 15  1  0
 27  1  1  0
 27 24  1  0
  1 28  1  0
  2 29  1  0
  6 30  1  1
  7 31  1  1
  9 32  1  6
 10 33  1  0
 12 34  1  6
 14 35  1  0
 16 36  1  0
 17 37  1  0
 17 38  1  0
 19 39  1  0
 19 40  1  0
 20 41  1  0
 21 42  1  0
 21 43  1  0
 22 44  1  0
 22 45  1  0
 25 46  1  0
 25 47  1  0
 26 48  1  0
 27 49  1  1
M  CHG  2  17   1  19   1
M  END
>  <mol_id>  (15) 
2026-09-18-6fnk-s0-n100-refligand-0016

>  <rmsd_to_ref>  (15) 


$$$$

     RDKit          3D

 11 10  0  0  0  0  0  0  0  0999 V2000
    0.1814   19.4667   42.8883 C   0  0  0  0  0  0  0  0  0  0  0  0
    3.4476   20.9767   41.0646 Cl  0  0  0  0  0  0  0  0  0  0  0  0
    1.5723   19.6070   42.5096 C   0  0  0  0  0  0  0  0  0  0  0  0
   -0.4051   20.8735   43.7262 S   0  0  0  0  0  0  0  0  0  0  0  0
    2.5434   19.9764   41.9728 C   0  0  0  0  0  0  0  0  0  0  0  0
   -0.3893   20.1848   45.4808 C   0  0  0  0  0  0  0  0  0  0  0  0
    0.0782   18.5915   43.5466 H   0  0  0  0  0  0  0  0  0  0  0  0
   -0.4121   19.3433   41.9704 H   0  0  0  0  0  0  0  0  0  0  0  0
   -0.3602   21.0159   46.2007 H   0  0  0  0  0  0  0  0  0  0  0  0
   -1.2970   19.5863   45.6480 H   0  0  0  0  0  0  0  0  0  0  0  0
    0.4987   19.5500   45.6175 H   0  0  0  0  0  0  0  0  0  0  0  0
  1  4  1  0
  2  5  1  0
  3  1  1  0
  4  6  1  0
  5  3  3  0
  1  7  1  0
  1  8  1  0
  6  9  1  0
  6 10  1  0
  6 11  1  0
M  END
>  <mol_id>  (16) 
2026-09-18-6fnk-s0-n100-refligand-0017

>  <rmsd_to_ref>  (16) 


$$$$

     RDKit          3D

 22 24  0  0  0  0  0  0  0  0999 V2000
   -0.1327   20.7845   45.4188 S   0  0  0  0  0  0  0  0  0  0  0  0
    1.1088   18.8698   43.7420 C   0  0  0  0  0  0  0  0  0  0  0  0
    2.4606   20.6596   42.2582 C   0  0  0  0  0  0  0  0  0  0  0  0
   -1.6458   18.9969   46.6215 O   0  0  0  0  0  0  0  0  0  0  0  0
    0.4974   17.8979   44.4596 C   0  0  0  0  0  0  0  0  0  0  0  0
    2.3744   19.3319   41.7655 C   0  0  0  0  0  0  0  0  0  0  0  0
    0.8933   16.5935   43.7891 C   0  0  0  0  0  0  0  0  0  0  0  0
    1.7919   17.0494   42.5451 C   0  0  0  0  0  0  0  0  0  0  0  0
    1.8122   18.4239   42.6895 C   0  0  0  0  0  0  0  0  0  0  0  0
   -0.1868   18.0506   45.4620 N   0  0  0  0  0  0  0  0  0  0  0  0
   -0.5966   19.2755   45.9702 C   0  0  0  0  0  0  0  0  0  0  0  0
    3.3548   21.7684   41.2736 Cl  0  0  0  0  0  0  0  0  0  0  0  0
    2.8231   18.8015   40.3877 C   0  0  0  0  0  0  0  0  0  0  0  0
    0.9783   20.2133   44.1413 C   0  0  0  0  0  0  0  0  0  0  0  0
    2.2510   16.1757   41.8253 O   0  0  0  0  0  0  0  0  0  0  0  0
    1.7949   21.0148   43.3829 C   0  0  0  0  0  0  0  0  0  0  0  0
    1.4723   15.9607   44.4777 H   0  0  0  0  0  0  0  0  0  0  0  0
    0.0223   15.9953   43.4833 H   0  0  0  0  0  0  0  0  0  0  0  0
    3.2316   17.7864   40.5008 H   0  0  0  0  0  0  0  0  0  0  0  0
    1.9603   18.7756   39.7060 H   0  0  0  0  0  0  0  0  0  0  0  0
    3.5975   19.4643   39.9740 H   0  0  0  0  0  0  0  0  0  0  0  0
    1.9217   22.0528   43.7240 H   0  0  0  0  0  0  0  0  0  0  0  0
  1 11  1  0
  2 14  1  0
  2  5  1  0
  3 16  1  0
  5 10  2  0
  6  3  2  0
  6  9  1  0
  7  5  1  0
  8  9  1  0
  8  7  1  0
  9  2  2  0
 10 11  1  0
 11  4  2  0
 12  3  1  0
 13  6  1  0
 14  1  1  0
 15  8  2  0
 16 14  2  0
  7 17  1  0
  7 18  1  0
 13 19  1  0
 13 20  1  0
 13 21  1  0
 16 22  1  0
M  END
>  <mol_id>  (17) 
2026-09-18-6fnk-s0-n100-refligand-0018

>  <rmsd_to_ref>  (17) 


$$$$

     RDKit          3D

 36 39  0  0  0  0  0  0  0  0999 V2000
    1.0994   18.8391   42.0930 C   0  0  1  0  0  0  0  0  0  0  0  0
    0.5509   18.8666   43.3871 C   0  0  0  0  0  0  0  0  0  0  0  0
   -0.2399   17.1810   44.9643 C   0  0  0  0  0  0  0  0  0  0  0  0
    4.4115   21.8017   38.1586 C   0  0  0  0  0  0  0  0  0  0  0  0
    3.9477   20.9524   40.5485 C   0  0  0  0  0  0  0  0  0  0  0  0
    0.7732   17.5281   40.0821 O   0  0  0  0  0  0  0  0  0  0  0  0
   -0.9911   17.8112   47.2265 N   0  0  0  0  0  0  0  0  0  0  0  0
    0.5073   16.7013   42.6314 N   0  0  0  0  0  0  0  0  0  0  0  0
    1.8637   20.1928   40.1743 N   0  0  0  0  0  0  0  0  0  0  0  0
    5.2631   22.0887   39.2309 C   0  0  0  0  0  0  0  0  0  0  0  0
    2.0576   19.7612   41.3280 C   0  0  0  0  0  0  0  0  0  0  0  0
    2.9764   20.7969   39.6532 C   0  0  0  0  0  0  0  0  0  0  0  0
    0.9078   17.6350   41.4238 C   0  0  0  0  0  0  0  0  0  0  0  0
    3.5763   20.1004   42.0196 S   0  0  0  0  0  0  0  0  0  0  0  0
   -0.4901   19.4318   45.5146 N   0  0  0  0  0  0  0  0  0  0  0  0
    0.0312   19.6595   44.3079 C   0  0  0  0  0  0  0  0  0  0  0  0
    5.1309   21.5927   40.4962 C   0  0  0  0  0  0  0  0  0  0  0  0
    0.7958   14.8506   41.5839 C   0  0  0  0  0  0  0  0  0  0  0  0
    3.2341   21.2201   38.3689 C   0  0  0  0  0  0  0  0  0  0  0  0
   -0.5266   18.0981   45.9250 C   0  0  0  0  0  0  0  0  0  0  0  0
    0.2528   15.2372   42.9966 C   0  0  0  0  0  0  0  0  0  0  0  0
    0.2087   17.5848   43.7823 C   0  0  0  0  0  0  0  0  0  0  0  0
    0.7060   19.8375   42.3347 H   0  0  0  0  0  0  0  0  0  0  0  0
   -0.3791   16.1085   45.1653 H   0  0  0  0  0  0  0  0  0  0  0  0
    4.7180   22.0591   37.1340 H   0  0  0  0  0  0  0  0  0  0  0  0
   -1.1811   18.5789   47.8864 H   0  0  0  0  0  0  0  0  0  0  0  0
   -1.1400   16.8341   47.5165 H   0  0  0  0  0  0  0  0  0  0  0  0
    6.1066   22.7683   39.0393 H   0  0  0  0  0  0  0  0  0  0  0  0
    0.0278   20.7216   44.0215 H   0  0  0  0  0  0  0  0  0  0  0  0
    5.8548   21.6966   41.3179 H   0  0  0  0  0  0  0  0  0  0  0  0
    1.7113   14.2508   41.6945 H   0  0  0  0  0  0  0  0  0  0  0  0
    0.0358   14.2639   41.0468 H   0  0  0  0  0  0  0  0  0  0  0  0
    1.0226   15.7646   41.0154 H   0  0  0  0  0  0  0  0  0  0  0  0
    2.5034   21.0841   37.5580 H   0  0  0  0  0  0  0  0  0  0  0  0
    0.8569   14.8638   43.8367 H   0  0  0  0  0  0  0  0  0  0  0  0
   -0.7318   14.8948   43.3480 H   0  0  0  0  0  0  0  0  0  0  0  0
  1 11  1  0
  1  2  1  0
  2 22  2  0
  2 16  1  0
  3 20  2  0
  4 19  1  0
  4 10  2  0
  5 17  2  0
  5 14  1  0
  6 13  2  0
  8 21  1  0
  8 22  1  0
  9 11  2  0
 10 17  1  0
 11 14  1  0
 12  9  1  0
 12  5  1  0
 13  1  1  0
 13  8  1  0
 15 20  1  0
 16 15  2  0
 18 21  1  0
 19 12  2  0
 20  7  1  0
 22  3  1  0
  1 23  1  6
  3 24  1  0
  4 25  1  0
  7 26  1  0
  7 27  1  0
 10 28  1  0
 16 29  1  0
 17 30  1  0
 18 31  1  0
 18 32  1  0
 18 33  1  0
 19 34  1  0
 21 35  1  0
 21 36  1  0
M  END
>  <mol_id>  (18) 
2026-09-18-6fnk-s0-n100-refligand-0019

>  <rmsd_to_ref>  (18) 


$$$$

     RDKit          3D

 47 49  0  0  0  0  0  0  0  0999 V2000
    2.7955   18.1510   41.4957 C   0  0  0  0  0  0  0  0  0  0  0  0
    0.6707   15.5919   44.7942 C   0  0  0  0  0  0  0  0  0  0  0  0
    0.3111   19.4915   45.6359 C   0  0  1  0  0  0  0  0  0  0  0  0
    1.2931   18.4514   43.5801 C   0  0  2  0  0  0  0  0  0  0  0  0
   -1.0509   17.8537   47.0715 C   0  0  0  0  0  0  0  0  0  0  0  0
    0.2325   20.7311   44.3834 S   0  0  0  0  0  0  0  0  0  0  0  0
    1.1588   18.6528   45.1999 C   0  0  0  0  0  0  0  0  0  0  0  0
   -0.4045   19.2599   46.8708 C   0  0  0  0  0  0  0  0  0  0  0  0
    3.8569   20.6918   40.6655 O   0  0  0  0  0  0  0  0  0  0  0  0
    1.6221   17.0478   43.0571 C   0  0  1  0  0  0  0  0  0  0  0  0
    1.2476   19.7959   43.1641 C   0  0  1  0  0  0  0  0  0  0  0  0
    1.8902   20.4843   41.9333 C   0  0  0  0  0  0  0  0  0  0  0  0
    2.2970   13.3887   43.3036 C   0  0  0  0  0  0  0  0  0  0  0  0
    2.9295   20.0849   41.0795 C   0  0  0  0  0  0  0  0  0  0  0  0
    2.3721   14.7958   42.9733 C   0  0  1  0  0  0  0  0  0  0  0  0
    2.4656   19.0765   40.1930 C   0  0  1  0  0  0  0  0  0  0  0  0
    3.3280   18.1040   39.2688 C   0  0  0  0  0  0  0  0  0  0  0  0
    2.6677   16.8851   41.7849 C   0  0  2  0  0  0  0  0  0  0  0  0
    1.6495   15.8998   43.6659 C   0  0  2  0  0  0  0  0  0  0  0  0
    3.3957   15.4249   41.7598 S   0  0  0  0  0  0  0  0  0  0  0  0
   -0.1783   15.3500   45.4644 C   0  0  0  0  0  0  0  0  0  0  0  0
    2.2201   18.6419   42.2944 H   0  0  0  0  0  0  0  0  0  0  0  0
    3.8763   18.0941   41.2994 H   0  0  0  0  0  0  0  0  0  0  0  0
   -0.4351   18.8941   45.0915 H   0  0  0  0  0  0  0  0  0  0  0  0
    1.0178   18.0055   42.6130 H   0  0  0  0  0  0  0  0  0  0  0  0
   -1.1260   17.6347   48.1468 H   0  0  0  0  0  0  0  0  0  0  0  0
   -2.0560   17.8450   46.6245 H   0  0  0  0  0  0  0  0  0  0  0  0
   -0.4264   17.0902   46.5845 H   0  0  0  0  0  0  0  0  0  0  0  0
    0.8982   17.6739   45.6287 H   0  0  0  0  0  0  0  0  0  0  0  0
    2.1311   19.0691   45.5021 H   0  0  0  0  0  0  0  0  0  0  0  0
    0.3034   19.4189   47.6977 H   0  0  0  0  0  0  0  0  0  0  0  0
   -1.2534   19.9588   46.8402 H   0  0  0  0  0  0  0  0  0  0  0  0
    0.5390   17.2116   42.9565 H   0  0  0  0  0  0  0  0  0  0  0  0
    0.3436   19.5830   42.5747 H   0  0  0  0  0  0  0  0  0  0  0  0
    1.0413   20.6454   41.2525 H   0  0  0  0  0  0  0  0  0  0  0  0
    2.4656   21.2366   42.4928 H   0  0  0  0  0  0  0  0  0  0  0  0
    2.3253   13.2666   44.3965 H   0  0  0  0  0  0  0  0  0  0  0  0
    1.3583   12.9697   42.9120 H   0  0  0  0  0  0  0  0  0  0  0  0
    3.1504   12.8603   42.8535 H   0  0  0  0  0  0  0  0  0  0  0  0
    1.5268   14.6779   42.2793 H   0  0  0  0  0  0  0  0  0  0  0  0
    1.6484   19.4335   39.5490 H   0  0  0  0  0  0  0  0  0  0  0  0
    3.9614   17.4639   39.9006 H   0  0  0  0  0  0  0  0  0  0  0  0
    2.6539   17.4750   38.6689 H   0  0  0  0  0  0  0  0  0  0  0  0
    3.9636   18.7025   38.5995 H   0  0  0  0  0  0  0  0  0  0  0  0
    2.8382   16.5477   40.7519 H   0  0  0  0  0  0  0  0  0  0  0  0
    2.3760   16.1427   44.4552 H   0  0  0  0  0  0  0  0  0  0  0  0
   -1.0209   15.1099   46.1296 H   0  0  0  0  0  0  0  0  0  0  0  0
  1 18  1  0
  2 21  3  0
  3  8  1  0
  4  7  1  0
  6  3  1  0
  7  3  1  0
  8  5  1  0
  9 14  2  0
 10  4  1  0
 10 19  1  0
 11  4  1  0
 11  6  1  0
 12 11  1  0
 14 12  1  0
 15 13  1  0
 15 19  1  0
 16 14  1  0
 16  1  1  0
 17 16  1  0
 18 10  1  0
 19  2  1  0
 20 18  1  0
 20 15  1  0
  1 22  1  0
  1 23  1  0
  3 24  1  1
  4 25  1  6
  5 26  1  0
  5 27  1  0
  5 28  1  0
  7 29  1  0
  7 30  1  0
  8 31  1  0
  8 32  1  0
 10 33  1  6
 11 34  1  6
 12 35  1  0
 12 36  1  0
 13 37  1  0
 13 38  1  0
 13 39  1  0
 15 40  1  6
 16 41  1  6
 17 42  1  0
 17 43  1  0
 17 44  1  0
 18 45  1  6
 19 46  1  1
 21 47  1  0
M  END
>  <mol_id>  (19) 
2026-09-18-6fnk-s0-n100-refligand-0020

>  <rmsd_to_ref>  (19) 


$$$$

     RDKit          3D

 31 31  0  0  0  0  0  0  0  0999 V2000
    0.4224   18.0227   45.7294 N   0  0  0  0  0  0  0  0  0  0  0  0
    0.1254   20.9907   43.9640 C   0  0  0  0  0  0  0  0  0  0  0  0
    2.7618   16.0786   42.5372 N   0  0  0  0  0  0  0  0  0  0  0  0
    2.4943   19.4395   41.5983 C   0  0  0  0  0  0  0  0  0  0  0  0
    0.6991   18.5577   44.5770 C   0  0  0  0  0  0  0  0  0  0  0  0
    2.6753   20.7931   41.7768 C   0  0  0  0  0  0  0  0  0  0  0  0
   -0.3888   18.8346   46.3229 N   0  0  0  0  0  0  0  0  0  0  0  0
    1.7249   18.0371   43.5777 C   0  0  2  0  0  0  0  0  0  0  0  0
    1.4620   18.8837   42.4862 N   0  0  0  0  0  0  0  0  0  0  0  0
    1.1159   15.7317   44.0558 O   0  0  0  0  0  0  0  0  0  0  0  0
    3.3607   21.3072   42.8105 C   0  0  0  0  0  0  0  0  0  0  0  0
    1.8027   16.5297   43.4820 C   0  0  0  0  0  0  0  0  0  0  0  0
   -0.6498   19.9634   45.6710 N   0  0  0  0  0  0  0  0  0  0  0  0
    3.0208   14.5756   42.4680 C   0  0  0  0  0  0  0  0  0  0  0  0
    0.0608   19.8520   44.4055 C   0  0  0  0  0  0  0  0  0  0  0  0
    0.0282   21.7103   44.7903 H   0  0  0  0  0  0  0  0  0  0  0  0
    1.0942   21.1355   43.4636 H   0  0  0  0  0  0  0  0  0  0  0  0
   -0.6882   21.1504   43.2412 H   0  0  0  0  0  0  0  0  0  0  0  0
    3.2620   16.7378   41.9239 H   0  0  0  0  0  0  0  0  0  0  0  0
    3.4463   18.9272   41.8013 H   0  0  0  0  0  0  0  0  0  0  0  0
    2.1613   19.2823   40.5618 H   0  0  0  0  0  0  0  0  0  0  0  0
    2.2390   21.4835   41.0400 H   0  0  0  0  0  0  0  0  0  0  0  0
   -0.8056   18.6214   47.2403 H   0  0  0  0  0  0  0  0  0  0  0  0
    2.7954   18.1071   43.8208 H   0  0  0  0  0  0  0  0  0  0  0  0
    0.9668   19.6969   42.8790 H   0  0  0  0  0  0  0  0  0  0  0  0
    0.9899   18.2297   41.8457 H   0  0  0  0  0  0  0  0  0  0  0  0
    3.4759   22.3969   42.9066 H   0  0  0  0  0  0  0  0  0  0  0  0
    3.8071   20.6386   43.5615 H   0  0  0  0  0  0  0  0  0  0  0  0
    2.9129   14.1383   43.4716 H   0  0  0  0  0  0  0  0  0  0  0  0
    2.2954   14.1095   41.7850 H   0  0  0  0  0  0  0  0  0  0  0  0
    4.0409   14.3960   42.0976 H   0  0  0  0  0  0  0  0  0  0  0  0
  1  7  1  0
  2 15  1  0
  3 14  1  0
  3 12  1  0
  4  9  1  0
  5  1  2  0
  6  4  1  0
  6 11  2  3
  8  9  1  0
  8 12  1  0
  8  5  1  0
 12 10  2  0
 13  7  1  0
 15  5  1  0
 15 13  2  0
  2 16  1  0
  2 17  1  0
  2 18  1  0
  3 19  1  0
  4 20  1  0
  4 21  1  0
  6 22  1  0
  7 23  1  0
  8 24  1  1
  9 25  1  0
  9 26  1  0
 11 27  1  0
 11 28  1  0
 14 29  1  0
 14 30  1  0
 14 31  1  0
M  CHG  1   9   1
M  END
>  <mol_id>  (20) 
2026-09-18-6fnk-s0-n100-refligand-0021

>  <rmsd_to_ref>  (20) 


$$$$

     RDKit          3D

 22 22  0  0  0  0  0  0  0  0999 V2000
    1.7663   18.0445   41.9353 C   0  0  0  0  0  0  0  0  0  0  0  0
    1.6392   15.9238   43.0825 O   0  0  0  0  0  0  0  0  0  0  0  0
    0.4214   17.7497   43.9644 C   0  0  0  0  0  0  0  0  0  0  0  0
    0.7948   19.9452   42.9386 C   0  0  1  0  0  0  0  0  0  0  0  0
    2.4932   17.3905   40.7939 C   0  0  0  0  0  0  0  0  0  0  0  0
    0.1605   19.1214   43.9399 C   0  0  0  0  0  0  0  0  0  0  0  0
    1.3067   17.2204   42.9692 C   0  0  0  0  0  0  0  0  0  0  0  0
    1.5511   19.3614   41.9536 N   0  0  0  0  0  0  0  0  0  0  0  0
   -0.5777   19.6408   44.7625 O   0  0  0  0  0  0  0  0  0  0  0  0
   -0.1598   16.9569   44.9698 C   0  0  0  0  0  0  0  0  0  0  0  0
    0.4838   21.3188   43.0865 C   0  0  0  0  0  0  0  0  0  0  0  0
    1.2853   15.3859   43.8346 H   0  0  0  0  0  0  0  0  0  0  0  0
    1.6677   20.0720   43.5959 H   0  0  0  0  0  0  0  0  0  0  0  0
    3.1727   16.6193   41.1857 H   0  0  0  0  0  0  0  0  0  0  0  0
    1.7645   16.9257   40.1133 H   0  0  0  0  0  0  0  0  0  0  0  0
    3.0742   18.1479   40.2472 H   0  0  0  0  0  0  0  0  0  0  0  0
    0.0555   17.3975   45.9545 H   0  0  0  0  0  0  0  0  0  0  0  0
   -1.2484   16.9123   44.8182 H   0  0  0  0  0  0  0  0  0  0  0  0
    0.2587   15.9408   44.9233 H   0  0  0  0  0  0  0  0  0  0  0  0
    0.3405   21.5495   44.1525 H   0  0  0  0  0  0  0  0  0  0  0  0
    1.3092   21.9267   42.6875 H   0  0  0  0  0  0  0  0  0  0  0  0
   -0.4398   21.5471   42.5345 H   0  0  0  0  0  0  0  0  0  0  0  0
  1  8  2  0
  1  7  1  0
  3 10  1  0
  4 11  1  0
  4  6  1  0
  5  1  1  0
  6  3  1  0
  6  9  2  0
  7  2  1  0
  7  3  2  0
  8  4  1  0
  2 12  1  0
  4 13  1  1
  5 14  1  0
  5 15  1  0
  5 16  1  0
 10 17  1  0
 10 18  1  0
 10 19  1  0
 11 20  1  0
 11 21  1  0
 11 22  1  0
M  END
>  <mol_id>  (21) 
2026-09-18-6fnk-s0-n100-refligand-0022

>  <rmsd_to_ref>  (21) 


$$$$

     RDKit          3D

 20 20  0  0  0  0  0  0  0  0999 V2000
    0.8106   19.0081   42.7382 N   0  0  0  0  0  0  0  0  0  0  0  0
    1.9299   17.1251   41.6614 C   0  0  0  0  0  0  0  0  0  0  0  0
    3.0426   14.9382   39.7806 S   0  0  0  0  0  0  0  0  0  0  0  0
    3.8887   14.1044   41.9718 O   0  0  0  0  0  0  0  0  0  0  0  0
    1.6075   17.8705   42.6340 C   0  0  0  0  0  0  0  0  0  0  0  0
    2.6621   16.2014   43.4867 N   0  0  0  0  0  0  0  0  0  0  0  0
    2.6497   16.0910   42.1909 C   0  0  0  0  0  0  0  0  0  0  0  0
    0.4367   19.5623   44.9884 C   0  0  0  0  0  0  0  0  0  0  0  0
    3.1705   14.9998   41.5158 C   0  0  0  0  0  0  0  0  0  0  0  0
   -0.8024   20.7023   43.2472 N   0  0  0  0  0  0  0  0  0  0  0  0
    0.1351   19.8167   43.5425 C   0  0  0  0  0  0  0  0  0  0  0  0
    0.0716   20.7360   45.7826 O   0  0  0  0  0  0  0  0  0  0  0  0
    2.0111   17.3835   43.5937 O   0  0  0  0  0  0  0  0  0  0  0  0
    0.6983   19.3788   41.7838 H   0  0  0  0  0  0  0  0  0  0  0  0
    1.6800   17.2796   40.6014 H   0  0  0  0  0  0  0  0  0  0  0  0
    3.9363   15.8155   39.2253 H   0  0  0  0  0  0  0  0  0  0  0  0
    1.5113   19.3600   45.1076 H   0  0  0  0  0  0  0  0  0  0  0  0
   -0.1433   18.6939   45.3341 H   0  0  0  0  0  0  0  0  0  0  0  0
   -1.2369   21.2612   43.9952 H   0  0  0  0  0  0  0  0  0  0  0  0
    0.7409   20.8705   46.4996 H   0  0  0  0  0  0  0  0  0  0  0  0
  1 11  1  0
  2  7  1  0
  2  5  2  0
  3  9  1  0
  5  1  1  0
  5 13  1  0
  6 13  1  0
  7  6  2  0
  8 12  1  0
  9  4  2  0
  9  7  1  0
 10 11  2  3
 11  8  1  0
  1 14  1  0
  2 15  1  0
  3 16  1  0
  8 17  1  0
  8 18  1  0
 10 19  1  0
 12 20  1  0
M  END
>  <mol_id>  (22) 
2026-09-18-6fnk-s0-n100-refligand-0023

>  <rmsd_to_ref>  (22) 


$$$$

     RDKit          3D

 20 21  0  0  0  0  0  0  0  0999 V2000
    1.4249   18.7850   43.1412 C   0  0  0  0  0  0  0  0  0  0  0  0
    1.9385   17.8176   42.4009 N   0  0  0  0  0  0  0  0  0  0  0  0
   -1.0225   18.3966   45.8599 N   0  0  0  0  0  0  0  0  0  0  0  0
    0.4495   17.1415   44.7520 C   0  0  0  0  0  0  0  0  0  0  0  0
    1.7112   21.1304   42.6582 N   0  0  0  0  0  0  0  0  0  0  0  0
    2.6445   19.4818   41.3984 N   0  0  0  0  0  0  0  0  0  0  0  0
   -0.4918   17.1082   45.7197 C   0  0  0  0  0  0  0  0  0  0  0  0
    1.9210   19.7974   42.4644 C   0  0  0  0  0  0  0  0  0  0  0  0
   -0.6499   20.3616   44.7202 O   0  0  0  0  0  0  0  0  0  0  0  0
   -0.4211   19.1892   44.9120 C   0  0  0  0  0  0  0  0  0  0  0  0
    0.5471   18.3839   44.2490 C   0  0  2  0  0  0  0  0  0  0  0  0
    2.5167   18.2203   41.3574 C   0  0  0  0  0  0  0  0  0  0  0  0
    1.8715   16.8217   42.6554 H   0  0  0  0  0  0  0  0  0  0  0  0
   -1.7311   18.6944   46.5454 H   0  0  0  0  0  0  0  0  0  0  0  0
    1.0482   16.2790   44.4240 H   0  0  0  0  0  0  0  0  0  0  0  0
    1.1584   21.4528   43.4652 H   0  0  0  0  0  0  0  0  0  0  0  0
    2.1055   21.8152   41.9975 H   0  0  0  0  0  0  0  0  0  0  0  0
   -0.7905   16.2216   46.2982 H   0  0  0  0  0  0  0  0  0  0  0  0
    1.3109   18.7074   44.9713 H   0  0  0  0  0  0  0  0  0  0  0  0
    2.8593   17.5757   40.5345 H   0  0  0  0  0  0  0  0  0  0  0  0
  2  1  1  0
  3  7  1  0
  4  7  2  0
  5  8  1  0
  6 12  2  0
  6  8  1  0
  8  1  2  0
  9 10  2  0
 10  3  1  0
 11  1  1  0
 11 10  1  0
 11  4  1  0
 12  2  1  0
  2 13  1  0
  3 14  1  0
  4 15  1  0
  5 16  1  0
  5 17  1  0
  7 18  1  0
 11 19  1  1
 12 20  1  0
M  END
>  <mol_id>  (23) 
2026-09-18-6fnk-s0-n100-refligand-0024

>  <rmsd_to_ref>  (23) 


$$$$

     RDKit          3D

 30 32  0  0  0  0  0  0  0  0999 V2000
    0.1460   18.5351   44.3370 C   0  0  0  0  0  0  0  0  0  0  0  0
    3.4896   17.0956   40.2594 C   0  0  1  0  0  0  0  0  0  0  0  0
    2.7623   17.5145   41.5439 C   0  0  0  0  0  0  0  0  0  0  0  0
    2.7626   21.2361   41.4665 C   0  0  0  0  0  0  0  0  0  0  0  0
   -0.9933   18.6746   45.1084 C   0  0  0  0  0  0  0  0  0  0  0  0
   -1.5175   19.8874   45.1963 C   0  0  0  0  0  0  0  0  0  0  0  0
    1.5929   19.7253   42.5243 C   0  0  0  0  0  0  0  0  0  0  0  0
    2.5671   19.0254   41.6868 C   0  0  0  0  0  0  0  0  0  0  0  0
    3.2733   20.0039   41.1317 N   0  0  0  0  0  0  0  0  0  0  0  0
    0.0472   20.8038   43.7964 C   0  0  0  0  0  0  0  0  0  0  0  0
    0.6112   19.5430   43.5635 C   0  0  0  0  0  0  0  0  0  0  0  0
   -1.0346   20.9739   44.5708 N   0  0  0  0  0  0  0  0  0  0  0  0
    1.6356   21.0745   42.3302 C   0  0  0  0  0  0  0  0  0  0  0  0
    3.5463   15.6382   40.3007 N   0  0  0  0  0  0  0  0  0  0  0  0
    0.7585   17.1628   44.4230 C   0  0  0  0  0  0  0  0  0  0  0  0
    0.7212   21.7436   43.0472 N   0  0  0  0  0  0  0  0  0  0  0  0
    2.7201   17.4771   39.0867 O   0  0  0  0  0  0  0  0  0  0  0  0
    4.4796   17.5713   40.1992 H   0  0  0  0  0  0  0  0  0  0  0  0
    1.7718   17.0359   41.5519 H   0  0  0  0  0  0  0  0  0  0  0  0
    3.3951   17.1954   42.3852 H   0  0  0  0  0  0  0  0  0  0  0  0
    3.1616   22.2013   41.1212 H   0  0  0  0  0  0  0  0  0  0  0  0
   -1.4446   17.8154   45.6263 H   0  0  0  0  0  0  0  0  0  0  0  0
   -2.4108   20.0142   45.8256 H   0  0  0  0  0  0  0  0  0  0  0  0
    3.2152   15.3076   41.2183 H   0  0  0  0  0  0  0  0  0  0  0  0
    2.9464   15.2502   39.5589 H   0  0  0  0  0  0  0  0  0  0  0  0
    4.5175   15.3282   40.1541 H   0  0  0  0  0  0  0  0  0  0  0  0
    0.5603   16.7345   45.4166 H   0  0  0  0  0  0  0  0  0  0  0  0
    0.3181   16.5156   43.6503 H   0  0  0  0  0  0  0  0  0  0  0  0
    1.8447   17.2356   44.2651 H   0  0  0  0  0  0  0  0  0  0  0  0
    1.7884   17.6781   39.3544 H   0  0  0  0  0  0  0  0  0  0  0  0
  1  5  2  0
  2 17  1  0
  2 14  1  0
  2  3  1  0
  3  8  1  0
  4 13  1  0
  5  6  1  0
  7 11  1  0
  8  7  2  0
  9  4  2  0
  9  8  1  0
 10 12  1  0
 11 10  2  0
 11  1  1  0
 12  6  2  0
 13  7  1  0
 13 16  2  0
 15  1  1  0
 16 10  1  0
  2 18  1  6
  3 19  1  0
  3 20  1  0
  4 21  1  0
  5 22  1  0
  6 23  1  0
 14 24  1  0
 14 25  1  0
 14 26  1  0
 15 27  1  0
 15 28  1  0
 15 29  1  0
 17 30  1  0
M  CHG  1  14   1
M  END
>  <mol_id>  (24) 
2026-09-18-6fnk-s0-n100-refligand-0025

>  <rmsd_to_ref>  (24) 


$$$$

     RDKit          3D

 23 25  0  0  0  0  0  0  0  0999 V2000
    2.3101   15.0961   42.9089 C   0  0  0  0  0  0  0  0  0  0  0  0
   -0.6130   16.5938   45.9306 C   0  0  0  0  0  0  0  0  0  0  0  0
    1.8191   16.3449   43.1351 C   0  0  0  0  0  0  0  0  0  0  0  0
    1.0797   19.0394   43.0093 N   0  0  0  0  0  0  0  0  0  0  0  0
    0.8676   16.8325   44.0943 C   0  0  0  0  0  0  0  0  0  0  0  0
    2.6534   18.9899   39.8587 O   0  0  0  0  0  0  0  0  0  0  0  0
   -0.3232   18.7534   44.8428 C   0  0  0  0  0  0  0  0  0  0  0  0
    2.3868   19.4421   40.9767 C   0  0  0  0  0  0  0  0  0  0  0  0
    0.5909   18.2281   43.9398 C   0  0  0  0  0  0  0  0  0  0  0  0
    3.2269   15.2520   41.8733 C   0  0  0  0  0  0  0  0  0  0  0  0
    3.2976   16.4755   41.3939 O   0  0  0  0  0  0  0  0  0  0  0  0
   -0.9173   17.9211   45.8448 C   0  0  0  0  0  0  0  0  0  0  0  0
    1.9567   18.5918   42.0985 C   0  0  0  0  0  0  0  0  0  0  0  0
    2.3938   17.2449   42.1577 C   0  0  0  0  0  0  0  0  0  0  0  0
   -0.4956   19.9080   44.8288 O   0  0  0  0  0  0  0  0  0  0  0  0
    2.2704   20.6705   41.1419 O   0  0  0  0  0  0  0  0  0  0  0  0
    0.2816   16.0455   45.0033 C   0  0  0  0  0  0  0  0  0  0  0  0
    2.0410   14.1660   43.4309 H   0  0  0  0  0  0  0  0  0  0  0  0
   -1.0622   15.9658   46.7140 H   0  0  0  0  0  0  0  0  0  0  0  0
    3.8398   14.4235   41.4886 H   0  0  0  0  0  0  0  0  0  0  0  0
   -0.6536   18.3651   46.8160 H   0  0  0  0  0  0  0  0  0  0  0  0
   -1.9764   17.9063   45.5480 H   0  0  0  0  0  0  0  0  0  0  0  0
    0.5024   14.9681   45.0224 H   0  0  0  0  0  0  0  0  0  0  0  0
  1  3  1  0
  3  5  2  0
  4  9  2  0
  5 17  1  0
  6  8  2  0
  7 15  2  0
  7 12  1  0
  8 16  1  0
  8 13  1  0
  9  5  1  0
  9  7  1  0
 10  1  2  0
 11 10  1  0
 11 14  1  0
 12  2  1  0
 13 14  2  0
 13  4  1  0
 14  3  1  0
 17  2  2  0
  1 18  1  0
  2 19  1  0
 10 20  1  0
 12 21  1  0
 12 22  1  0
 17 23  1  0
M  CHG  1  16  -1
M  END
>  <mol_id>  (25) 
2026-09-18-6fnk-s0-n100-refligand-0026

>  <rmsd_to_ref>  (25) 


$$$$

     RDKit          3D

 38 38  0  0  0  0  0  0  0  0999 V2000
    1.3111   19.6067   42.8412 C   0  0  0  0  0  0  0  0  0  0  0  0
    1.4655   22.1831   40.2416 C   0  0  0  0  0  0  0  0  0  0  0  0
   -0.2806   15.9359   43.5188 C   0  0  0  0  0  0  0  0  0  0  0  0
    0.6795   14.7960   43.8886 C   0  0  0  0  0  0  0  0  0  0  0  0
    0.1426   17.5541   45.4342 O   0  0  0  0  0  0  0  0  0  0  0  0
    2.6144   21.5526   40.4500 C   0  0  0  0  0  0  0  0  0  0  0  0
    1.1552   19.4547   44.2775 C   0  0  2  0  0  0  0  0  0  0  0  0
    0.5955   18.0040   44.2487 C   0  0  0  0  0  0  0  0  0  0  0  0
    0.4690   17.2137   43.2545 C   0  0  0  0  0  0  0  0  0  0  0  0
    1.5828   20.6861   42.1165 C   0  0  2  0  0  0  0  0  0  0  0  0
    1.4420   14.3508   42.7740 C   0  0  0  0  0  0  0  0  0  0  0  0
    0.3769   20.5681   45.0460 N   0  0  0  0  0  0  0  0  0  0  0  0
    0.9377   17.4132   42.0118 O   0  0  0  0  0  0  0  0  0  0  0  0
    0.6620   22.0428   41.6074 S   0  0  0  0  0  0  0  0  0  0  0  0
   -0.2755   13.6942   44.3477 C   0  0  0  0  0  0  0  0  0  0  0  0
    2.7002   20.6994   41.4243 O   0  0  0  0  0  0  0  0  0  0  0  0
    2.1163   18.9028   42.5840 H   0  0  0  0  0  0  0  0  0  0  0  0
    0.2479   19.5193   42.5728 H   0  0  0  0  0  0  0  0  0  0  0  0
    0.9106   21.7120   39.4169 H   0  0  0  0  0  0  0  0  0  0  0  0
    1.6180   23.2353   39.9593 H   0  0  0  0  0  0  0  0  0  0  0  0
   -0.8404   15.6546   42.6147 H   0  0  0  0  0  0  0  0  0  0  0  0
   -0.9661   16.1021   44.3629 H   0  0  0  0  0  0  0  0  0  0  0  0
    1.4217   15.0991   44.6418 H   0  0  0  0  0  0  0  0  0  0  0  0
   -0.2312   16.6403   45.5068 H   0  0  0  0  0  0  0  0  0  0  0  0
    2.8553   21.0091   39.5245 H   0  0  0  0  0  0  0  0  0  0  0  0
    3.3046   22.3568   40.7446 H   0  0  0  0  0  0  0  0  0  0  0  0
    2.0554   19.5922   44.8945 H   0  0  0  0  0  0  0  0  0  0  0  0
    1.1804   20.7317   43.1393 H   0  0  0  0  0  0  0  0  0  0  0  0
    2.3242   13.7987   43.1301 H   0  0  0  0  0  0  0  0  0  0  0  0
    0.8244   13.6903   42.1476 H   0  0  0  0  0  0  0  0  0  0  0  0
    1.7672   15.2190   42.1819 H   0  0  0  0  0  0  0  0  0  0  0  0
    0.6306   20.5381   46.0438 H   0  0  0  0  0  0  0  0  0  0  0  0
    0.6224   21.4896   44.6569 H   0  0  0  0  0  0  0  0  0  0  0  0
   -0.6360   20.4115   44.9445 H   0  0  0  0  0  0  0  0  0  0  0  0
    1.4361   18.2414   41.7977 H   0  0  0  0  0  0  0  0  0  0  0  0
    0.0886   13.2633   45.2921 H   0  0  0  0  0  0  0  0  0  0  0  0
   -1.2786   14.1188   44.5012 H   0  0  0  0  0  0  0  0  0  0  0  0
   -0.3239   12.9076   43.5803 H   0  0  0  0  0  0  0  0  0  0  0  0
  1  7  1  0
  2 14  1  0
  2  6  1  0
  3  4  1  0
  4 15  1  0
  6 16  1  0
  7 12  1  0
  7  8  1  0
  8  5  1  0
  9  3  1  0
  9  8  2  3
 10  1  1  0
 11  4  1  0
 13  9  1  0
 14 10  1  0
 16 10  1  0
  1 17  1  0
  1 18  1  0
  2 19  1  0
  2 20  1  0
  3 21  1  0
  3 22  1  0
  4 23  1  0
  5 24  1  0
  6 25  1  0
  6 26  1  0
  7 27  1  1
 10 28  1  1
 11 29  1  0
 11 30  1  0
 11 31  1  0
 12 32  1  0
 12 33  1  0
 12 34  1  0
 13 35  1  0
 15 36  1  0
 15 37  1  0
 15 38  1  0
M  CHG  1  12   1
M  END
>  <mol_id>  (26) 
2026-09-18-6fnk-s0-n100-refligand-0027

>  <rmsd_to_ref>  (26) 


$$$$

     RDKit          3D

 66 68  0  0  0  0  0  0  0  0999 V2000
   -1.0762   15.9655   48.3901 N   0  0  0  0  0  0  0  0  0  0  0  0
   -1.1290   16.8371   47.5651 N   0  0  0  0  0  0  0  0  0  0  0  0
    3.2845   20.7452   36.7569 O   0  0  0  0  0  0  0  0  0  0  0  0
   -0.3285   15.9965   45.9763 O   0  0  0  0  0  0  0  0  0  0  0  0
    2.4648   19.0536   40.4539 C   0  0  2  0  0  0  0  0  0  0  0  0
    2.5954   17.0468   41.9330 C   0  0  0  0  0  0  0  0  0  0  0  0
    4.6342   21.8272   38.5389 C   0  0  1  0  0  0  0  0  0  0  0  0
    0.7669   19.5791   43.7423 C   0  0  0  0  0  0  0  0  0  0  0  0
    1.1963   17.3543   44.7356 O   0  0  0  0  0  0  0  0  0  0  0  0
   -1.6231   15.3487   50.7739 C   0  0  0  0  0  0  0  0  0  0  0  0
   -0.5063   16.7744   46.4720 C   0  0  0  0  0  0  0  0  0  0  0  0
   -1.6691   15.0617   49.1764 C   0  0  0  0  0  0  0  0  0  0  0  0
    2.5112   17.6686   40.6114 C   0  0  0  0  0  0  0  0  0  0  0  0
   -1.4102   14.5605   48.3039 C   0  0  0  0  0  0  0  0  0  0  0  0
    2.6055   15.3367   39.8799 C   0  0  0  0  0  0  0  0  0  0  0  0
    1.4179   18.3218   43.8533 C   0  0  1  0  0  0  0  0  0  0  0  0
    3.1475   14.8747   41.1773 C   0  0  0  0  0  0  0  0  0  0  0  0
    2.4193   18.0925   43.0000 O   0  0  0  0  0  0  0  0  0  0  0  0
    2.5860   16.7077   39.5829 C   0  0  0  0  0  0  0  0  0  0  0  0
   -1.2884   16.8264   50.6333 C   0  0  0  0  0  0  0  0  0  0  0  0
    2.0713   19.2794   39.1638 O   0  0  0  0  0  0  0  0  0  0  0  0
    3.6646   21.0302   38.0176 C   0  0  1  0  0  0  0  0  0  0  0  0
    4.6758   21.9170   39.8829 C   0  0  0  0  0  0  0  0  0  0  0  0
    2.5907   20.1184   38.8053 C   0  0  0  0  0  0  0  0  0  0  0  0
   -0.2470   19.0881   45.8759 C   0  0  0  0  0  0  0  0  0  0  0  0
    3.0708   20.2656   40.9553 C   0  0  0  0  0  0  0  0  0  0  0  0
   -0.4288   19.6768   44.3888 C   0  0  1  0  0  0  0  0  0  0  0  0
   -0.7494   21.0664   44.7436 O   0  0  0  0  0  0  0  0  0  0  0  0
    5.8925   22.3554   37.7968 C   0  0  0  0  0  0  0  0  0  0  0  0
    2.9377   15.6839   42.2499 C   0  0  0  0  0  0  0  0  0  0  0  0
    3.9669   21.1237   40.7479 C   0  0  0  0  0  0  0  0  0  0  0  0
    0.1090   17.6006   45.5451 C   0  0  1  0  0  0  0  0  0  0  0  0
   -0.0716   15.8638   48.5931 H   0  0  0  0  0  0  0  0  0  0  0  0
   -1.7058   17.6681   47.7592 H   0  0  0  0  0  0  0  0  0  0  0  0
    2.3482   20.4235   36.7592 H   0  0  0  0  0  0  0  0  0  0  0  0
    2.1099   19.0302   41.4948 H   0  0  0  0  0  0  0  0  0  0  0  0
    4.0925   22.5908   37.9615 H   0  0  0  0  0  0  0  0  0  0  0  0
    0.5928   19.7782   42.6746 H   0  0  0  0  0  0  0  0  0  0  0  0
    1.4331   20.3093   44.2249 H   0  0  0  0  0  0  0  0  0  0  0  0
   -0.8372   14.7780   51.2900 H   0  0  0  0  0  0  0  0  0  0  0  0
   -2.5093   15.0794   51.3674 H   0  0  0  0  0  0  0  0  0  0  0  0
   -1.6443   13.4914   48.1937 H   0  0  0  0  0  0  0  0  0  0  0  0
   -0.9021   15.0989   47.4904 H   0  0  0  0  0  0  0  0  0  0  0  0
    2.2196   14.6083   39.1516 H   0  0  0  0  0  0  0  0  0  0  0  0
    2.1296   18.7537   44.5723 H   0  0  0  0  0  0  0  0  0  0  0  0
    3.6930   13.9240   41.2694 H   0  0  0  0  0  0  0  0  0  0  0  0
    2.6297   17.0368   38.5342 H   0  0  0  0  0  0  0  0  0  0  0  0
   -1.2072   17.2806   51.6319 H   0  0  0  0  0  0  0  0  0  0  0  0
   -0.3319   16.9367   50.1015 H   0  0  0  0  0  0  0  0  0  0  0  0
   -2.0841   17.3302   50.0650 H   0  0  0  0  0  0  0  0  0  0  0  0
    4.3699   20.1864   37.9957 H   0  0  0  0  0  0  0  0  0  0  0  0
    5.3292   22.6865   40.3199 H   0  0  0  0  0  0  0  0  0  0  0  0
    2.8098   20.5363   39.7990 H   0  0  0  0  0  0  0  0  0  0  0  0
    2.1149   19.9308   37.8314 H   0  0  0  0  0  0  0  0  0  0  0  0
    0.5683   19.5914   46.4162 H   0  0  0  0  0  0  0  0  0  0  0  0
   -1.1199   19.2179   46.5327 H   0  0  0  0  0  0  0  0  0  0  0  0
    2.1863   20.9176   41.0065 H   0  0  0  0  0  0  0  0  0  0  0  0
    3.7588   19.6787   41.5815 H   0  0  0  0  0  0  0  0  0  0  0  0
   -1.1648   19.1925   43.7301 H   0  0  0  0  0  0  0  0  0  0  0  0
   -0.7369   21.1668   45.7284 H   0  0  0  0  0  0  0  0  0  0  0  0
    6.5934   22.7882   38.5258 H   0  0  0  0  0  0  0  0  0  0  0  0
    6.3813   21.5246   37.2667 H   0  0  0  0  0  0  0  0  0  0  0  0
    5.5938   23.1274   37.0723 H   0  0  0  0  0  0  0  0  0  0  0  0
    3.0233   15.3234   43.2856 H   0  0  0  0  0  0  0  0  0  0  0  0
    4.3835   21.3447   41.7418 H   0  0  0  0  0  0  0  0  0  0  0  0
   -0.2494   17.0656   44.6532 H   0  0  0  0  0  0  0  0  0  0  0  0
  1 12  1  0
  2  1  1  0
  4 11  2  0
  5 13  1  0
  5 26  1  0
  6 30  2  0
  6 18  1  0
  7 29  1  0
  7 23  1  0
  8 27  1  0
  9 32  1  0
 10 20  1  0
 11  2  1  0
 12 10  1  0
 13  6  1  0
 14 12  2  3
 15 17  2  0
 16 18  1  0
 16  8  1  0
 16  9  1  0
 17 30  1  0
 19 15  1  0
 19 13  2  0
 21  5  1  0
 22  3  1  0
 22  7  1  0
 22 24  1  0
 23 31  2  0
 24 21  1  0
 27 28  1  0
 27 25  1  0
 31 26  1  0
 32 25  1  0
 32 11  1  0
  1 33  1  0
  2 34  1  0
  3 35  1  0
  5 36  1  1
  7 37  1  6
  8 38  1  0
  8 39  1  0
 10 40  1  0
 10 41  1  0
 14 42  1  0
 14 43  1  0
 15 44  1  0
 16 45  1  1
 17 46  1  0
 19 47  1  0
 20 48  1  0
 20 49  1  0
 20 50  1  0
 22 51  1  6
 23 52  1  0
 24 53  1  0
 24 54  1  0
 25 55  1  0
 25 56  1  0
 26 57  1  0
 26 58  1  0
 27 59  1  6
 28 60  1  0
 29 61  1  0
 29 62  1  0
 29 63  1  0
 30 64  1  0
 31 65  1  0
 32 66  1  6
M  END
>  <mol_id>  (27) 
2026-09-18-6fnk-s0-n100-refligand-0028

>  <rmsd_to_ref>  (27) 


$$$$

     RDKit          3D

 50 53  0  0  0  0  0  0  0  0999 V2000
   -0.8896   19.8690   45.5252 C   0  0  0  0  0  0  0  0  0  0  0  0
    0.6193   19.7138   43.2942 C   0  0  0  0  0  0  0  0  0  0  0  0
    2.5598   20.1863   40.0778 C   0  0  1  0  0  0  0  0  0  0  0  0
    1.9299   18.6217   41.6070 N   0  0  0  0  0  0  0  0  0  0  0  0
    0.8558   16.3405   44.6373 C   0  0  0  0  0  0  0  0  0  0  0  0
    5.9165   15.7610   37.6492 N   0  0  0  0  0  0  0  0  0  0  0  0
   -0.0011   20.8492   43.6623 C   0  0  0  0  0  0  0  0  0  0  0  0
    5.1221   21.4126   38.7251 O   0  0  0  0  0  0  0  0  0  0  0  0
    3.4813   17.9908   39.8883 O   0  0  0  0  0  0  0  0  0  0  0  0
   -0.2508   16.3638   45.4685 C   0  0  0  0  0  0  0  0  0  0  0  0
    0.5224   18.5720   44.1936 C   0  0  0  0  0  0  0  0  0  0  0  0
    4.7904   15.7632   39.9488 O   0  0  0  0  0  0  0  0  0  0  0  0
    3.1119   20.2865   38.7217 C   0  0  0  0  0  0  0  0  0  0  0  0
    1.2428   17.4666   44.0099 N   0  0  0  0  0  0  0  0  0  0  0  0
   -0.3535   18.6054   45.2021 C   0  0  0  0  0  0  0  0  0  0  0  0
    1.4935   15.1193   44.3584 C   0  0  0  0  0  0  0  0  0  0  0  0
    2.6661   18.8529   40.5318 C   0  0  0  0  0  0  0  0  0  0  0  0
    3.7871   15.8036   38.9744 C   0  0  2  0  0  0  0  0  0  0  0  0
    0.8022   13.9148   44.7574 C   0  0  0  0  0  0  0  0  0  0  0  0
    4.5036   15.4356   37.5796 C   0  0  0  0  0  0  0  0  0  0  0  0
   -0.7314   20.9419   44.7496 N   0  0  0  0  0  0  0  0  0  0  0  0
   -0.3244   13.9622   45.4400 C   0  0  0  0  0  0  0  0  0  0  0  0
    3.1435   17.1042   38.8040 C   0  0  0  0  0  0  0  0  0  0  0  0
   -0.7448   17.5748   45.8892 N   0  0  0  0  0  0  0  0  0  0  0  0
    1.7995   20.7980   41.2734 C   0  0  0  0  0  0  0  0  0  0  0  0
   -0.9198   15.1672   45.8590 C   0  0  0  0  0  0  0  0  0  0  0  0
    1.4051   19.6699   42.1099 C   0  0  0  0  0  0  0  0  0  0  0  0
    3.9308   21.0522   38.1915 C   0  0  0  0  0  0  0  0  0  0  0  0
   -1.4632   19.9741   46.4579 H   0  0  0  0  0  0  0  0  0  0  0  0
    1.5678   19.9641   39.6575 H   0  0  0  0  0  0  0  0  0  0  0  0
    6.1692   15.9872   38.6217 H   0  0  0  0  0  0  0  0  0  0  0  0
    6.4708   14.9540   37.3293 H   0  0  0  0  0  0  0  0  0  0  0  0
    6.1120   16.5726   37.0459 H   0  0  0  0  0  0  0  0  0  0  0  0
    0.1082   21.7388   43.0246 H   0  0  0  0  0  0  0  0  0  0  0  0
    5.0168   21.5597   39.6984 H   0  0  0  0  0  0  0  0  0  0  0  0
    4.3938   15.9406   40.8384 H   0  0  0  0  0  0  0  0  0  0  0  0
    3.5521   19.2923   38.5550 H   0  0  0  0  0  0  0  0  0  0  0  0
    2.2204   20.7485   38.2725 H   0  0  0  0  0  0  0  0  0  0  0  0
    2.4733   15.0823   43.8596 H   0  0  0  0  0  0  0  0  0  0  0  0
    2.9947   15.1085   39.2888 H   0  0  0  0  0  0  0  0  0  0  0  0
    1.2255   12.9366   44.4855 H   0  0  0  0  0  0  0  0  0  0  0  0
    4.0364   16.0108   36.7666 H   0  0  0  0  0  0  0  0  0  0  0  0
    4.3890   14.3587   37.3865 H   0  0  0  0  0  0  0  0  0  0  0  0
   -0.8231   13.0153   45.6943 H   0  0  0  0  0  0  0  0  0  0  0  0
    3.4787   17.5504   37.8561 H   0  0  0  0  0  0  0  0  0  0  0  0
    2.0533   16.9585   38.7956 H   0  0  0  0  0  0  0  0  0  0  0  0
    1.5970   21.8635   41.4566 H   0  0  0  0  0  0  0  0  0  0  0  0
   -1.8460   15.1843   46.4523 H   0  0  0  0  0  0  0  0  0  0  0  0
    3.3868   21.9943   38.0283 H   0  0  0  0  0  0  0  0  0  0  0  0
    4.2726   20.4248   37.3551 H   0  0  0  0  0  0  0  0  0  0  0  0
  2  7  1  0
  2 11  2  0
  3 13  1  0
  3 17  1  0
  3 25  1  0
  4 27  1  0
  5 10  1  0
  6 20  1  0
  7 21  2  0
  9 17  1  0
 10 26  1  0
 10 24  2  0
 11 15  1  0
 14 11  1  0
 14  5  2  0
 15  1  2  0
 15 24  1  0
 16 19  2  0
 16  5  1  0
 17  4  2  0
 18 23  1  0
 18 12  1  0
 19 22  1  0
 20 18  1  0
 21  1  1  0
 22 26  2  0
 23  9  1  0
 25 27  2  0
 27  2  1  0
 28  8  1  0
 28 13  1  0
  1 29  1  0
  3 30  1  1
  6 31  1  0
  6 32  1  0
  6 33  1  0
  7 34  1  0
  8 35  1  0
 12 36  1  0
 13 37  1  0
 13 38  1  0
 16 39  1  0
 18 40  1  1
 19 41  1  0
 20 42  1  0
 20 43  1  0
 22 44  1  0
 23 45  1  0
 23 46  1  0
 25 47  1  0
 26 48  1  0
 28 49  1  0
 28 50  1  0
M  CHG  1   6   1
M  END
>  <mol_id>  (28) 
2026-09-18-6fnk-s0-n100-refligand-0029

>  <rmsd_to_ref>  (28) 


$$$$

     RDKit          3D

 68 72  0  0  0  0  0  0  0  0999 V2000
    6.0120   22.7353   39.6479 C   0  0  0  0  0  0  0  0  0  0  0  0
    1.8027   18.5304   40.3961 C   0  0  0  0  0  0  0  0  0  0  0  0
    2.9507   21.3002   41.4622 C   0  0  0  0  0  0  0  0  0  0  0  0
   -0.5237   20.9566   45.8522 C   0  0  0  0  0  0  0  0  0  0  0  0
    1.6412   16.0286   42.1940 C   0  0  0  0  0  0  0  0  0  0  0  0
    5.0973   22.2274   38.7754 C   0  0  0  0  0  0  0  0  0  0  0  0
    5.7473   22.7085   40.9783 C   0  0  0  0  0  0  0  0  0  0  0  0
    1.9118   14.8538   43.1731 C   0  0  0  0  0  0  0  0  0  0  0  0
    3.1863   14.6785   40.7651 C   0  0  0  0  0  0  0  0  0  0  0  0
    4.6369   22.3154   41.4387 C   0  0  0  0  0  0  0  0  0  0  0  0
    3.8638   21.8801   39.2601 C   0  0  0  0  0  0  0  0  0  0  0  0
    0.2598   18.3786   44.9180 C   0  0  2  0  0  0  0  0  0  0  0  0
    2.2649   13.6734   41.0612 O   0  0  0  0  0  0  0  0  0  0  0  0
    1.4218   18.8144   42.5259 C   0  0  2  0  0  0  0  0  0  0  0  0
    1.5714   21.3921   41.4936 O   0  0  0  0  0  0  0  0  0  0  0  0
    0.9370   20.9526   40.3791 C   0  0  0  0  0  0  0  0  0  0  0  0
   -1.0344   16.6337   46.0814 C   0  0  0  0  0  0  0  0  0  0  0  0
    0.2203   20.8206   44.6697 N   0  0  0  0  0  0  0  0  0  0  0  0
   -0.6415   17.9323   45.9919 C   0  0  0  0  0  0  0  0  0  0  0  0
    1.3034   17.2967   42.8952 C   0  0  2  0  0  0  0  0  0  0  0  0
    3.6933   21.9245   40.5707 C   0  0  0  0  0  0  0  0  0  0  0  0
    1.0039   17.2999   44.3510 C   0  0  0  0  0  0  0  0  0  0  0  0
   -1.1760   18.8195   46.7925 C   0  0  0  0  0  0  0  0  0  0  0  0
    2.2006   19.8777   38.5599 O   0  0  0  0  0  0  0  0  0  0  0  0
    1.7699   13.5617   42.3862 C   0  0  0  0  0  0  0  0  0  0  0  0
    1.4782   18.5851   41.6345 N   0  0  0  0  0  0  0  0  0  0  0  0
    1.5901   19.8565   39.6801 C   0  0  0  0  0  0  0  0  0  0  0  0
    0.5790   19.7621   44.3948 C   0  0  0  0  0  0  0  0  0  0  0  0
   -2.2862   17.1593   47.9520 C   0  0  0  0  0  0  0  0  0  0  0  0
    2.8385   16.0714   41.2187 C   0  0  0  0  0  0  0  0  0  0  0  0
   -0.8699   20.2071   46.7107 N   0  0  0  0  0  0  0  0  0  0  0  0
   -1.9407   18.4128   47.8160 C   0  0  0  0  0  0  0  0  0  0  0  0
    1.3232   19.8692   43.3697 O   0  0  0  0  0  0  0  0  0  0  0  0
   -1.8275   16.2042   47.0178 C   0  0  0  0  0  0  0  0  0  0  0  0
    6.9555   23.1628   39.2776 H   0  0  0  0  0  0  0  0  0  0  0  0
    2.8652   18.2552   40.3214 H   0  0  0  0  0  0  0  0  0  0  0  0
    1.1570   17.7820   39.9135 H   0  0  0  0  0  0  0  0  0  0  0  0
    3.2997   21.6499   42.4450 H   0  0  0  0  0  0  0  0  0  0  0  0
    3.0935   20.2497   41.1689 H   0  0  0  0  0  0  0  0  0  0  0  0
   -1.4748   21.3798   45.4969 H   0  0  0  0  0  0  0  0  0  0  0  0
    0.2953   21.4040   46.4346 H   0  0  0  0  0  0  0  0  0  0  0  0
    0.7288   15.8724   41.5997 H   0  0  0  0  0  0  0  0  0  0  0  0
    5.3424   22.0997   37.7107 H   0  0  0  0  0  0  0  0  0  0  0  0
    6.5258   23.0402   41.6811 H   0  0  0  0  0  0  0  0  0  0  0  0
    2.9292   14.9337   43.5836 H   0  0  0  0  0  0  0  0  0  0  0  0
    1.2005   14.8768   44.0119 H   0  0  0  0  0  0  0  0  0  0  0  0
    4.1418   14.4037   41.2360 H   0  0  0  0  0  0  0  0  0  0  0  0
    3.2129   14.7310   39.6667 H   0  0  0  0  0  0  0  0  0  0  0  0
    4.4505   22.2948   42.5226 H   0  0  0  0  0  0  0  0  0  0  0  0
    3.0487   21.5767   38.5866 H   0  0  0  0  0  0  0  0  0  0  0  0
   -0.5391   18.2156   44.1797 H   0  0  0  0  0  0  0  0  0  0  0  0
    0.3271   18.8789   42.4400 H   0  0  0  0  0  0  0  0  0  0  0  0
   -0.0690   20.6171   40.6713 H   0  0  0  0  0  0  0  0  0  0  0  0
    0.9344   21.8002   39.6780 H   0  0  0  0  0  0  0  0  0  0  0  0
   -0.6665   15.9178   45.3315 H   0  0  0  0  0  0  0  0  0  0  0  0
    0.9492   16.8804   41.9407 H   0  0  0  0  0  0  0  0  0  0  0  0
    1.9703   17.2687   44.8755 H   0  0  0  0  0  0  0  0  0  0  0  0
    0.3366   16.4345   44.4770 H   0  0  0  0  0  0  0  0  0  0  0  0
    0.7047   13.2907   42.3428 H   0  0  0  0  0  0  0  0  0  0  0  0
    2.3636   12.7914   42.9001 H   0  0  0  0  0  0  0  0  0  0  0  0
    0.4723   18.7103   41.4520 H   0  0  0  0  0  0  0  0  0  0  0  0
    2.4087   18.1965   41.8444 H   0  0  0  0  0  0  0  0  0  0  0  0
   -2.9300   16.8503   48.7886 H   0  0  0  0  0  0  0  0  0  0  0  0
    3.7065   16.5158   41.7275 H   0  0  0  0  0  0  0  0  0  0  0  0
    2.5674   16.6783   40.3422 H   0  0  0  0  0  0  0  0  0  0  0  0
   -0.9735   20.6806   47.6195 H   0  0  0  0  0  0  0  0  0  0  0  0
   -2.2846   19.1494   48.5571 H   0  0  0  0  0  0  0  0  0  0  0  0
   -2.1269   15.1475   47.0797 H   0  0  0  0  0  0  0  0  0  0  0  0
  1  7  1  0
  2 26  1  0
  3 15  1  0
  4 31  1  0
  5  8  1  0
  6 11  1  0
  6  1  2  0
  7 10  2  0
  9 13  1  0
  9 30  1  0
 11 21  2  0
 12 22  1  0
 12 19  1  0
 13 25  1  0
 14 26  1  0
 14 20  1  0
 14 33  1  0
 16 15  1  0
 17 34  1  0
 18  4  1  0
 19 17  2  0
 19 23  1  0
 20  5  1  0
 20 22  1  0
 21 10  1  0
 21  3  1  0
 23 32  2  0
 24 27  2  0
 25  8  1  0
 27 16  1  0
 27  2  1  0
 28 18  2  0
 28 12  1  0
 30  5  1  0
 31 23  1  0
 32 29  1  0
 33 28  1  0
 34 29  2  0
  1 35  1  0
  2 36  1  0
  2 37  1  0
  3 38  1  0
  3 39  1  0
  4 40  1  0
  4 41  1  0
  5 42  1  0
  6 43  1  0
  7 44  1  0
  8 45  1  0
  8 46  1  0
  9 47  1  0
  9 48  1  0
 10 49  1  0
 11 50  1  0
 12 51  1  6
 14 52  1  1
 16 53  1  0
 16 54  1  0
 17 55  1  0
 20 56  1  6
 22 57  1  0
 22 58  1  0
 25 59  1  0
 25 60  1  0
 26 61  1  0
 26 62  1  0
 29 63  1  0
 30 64  1  0
 30 65  1  0
 31 66  1  0
 32 67  1  0
 34 68  1  0
M  CHG  1  26   1
M  END
>  <mol_id>  (29) 
2026-09-18-6fnk-s0-n100-refligand-0030

>  <rmsd_to_ref>  (29) 


$$$$

     RDKit          3D

 21 22  0  0  0  0  0  0  0  0999 V2000
   -0.9183   17.5586   45.7014 C   0  0  0  0  0  0  0  0  0  0  0  0
    0.3789   18.6855   44.2229 C   0  0  0  0  0  0  0  0  0  0  0  0
    1.0538   19.6874   43.4067 C   0  0  0  0  0  0  0  0  0  0  0  0
    1.6544   16.8641   43.2091 C   0  0  0  0  0  0  0  0  0  0  0  0
   -0.4681   18.9044   45.1683 C   0  0  0  0  0  0  0  0  0  0  0  0
    1.8341   15.4186   43.0846 C   0  0  0  0  0  0  0  0  0  0  0  0
   -0.8450   19.9388   45.7289 O   0  0  0  0  0  0  0  0  0  0  0  0
    0.6144   17.2984   44.1146 C   0  0  0  0  0  0  0  0  0  0  0  0
   -0.0326   16.4848   44.9535 N   0  0  0  0  0  0  0  0  0  0  0  0
    2.4896   17.8529   42.5019 C   0  0  0  0  0  0  0  0  0  0  0  0
    2.2991   19.2559   42.7118 C   0  0  0  0  0  0  0  0  0  0  0  0
    3.4698   20.3673   42.3444 Cl  0  0  0  0  0  0  0  0  0  0  0  0
    0.6275   20.9593   43.3511 C   0  0  0  0  0  0  0  0  0  0  0  0
   -1.6992   17.3689   46.4526 H   0  0  0  0  0  0  0  0  0  0  0  0
    1.7450   14.9513   44.0763 H   0  0  0  0  0  0  0  0  0  0  0  0
    1.0626   15.0094   42.4158 H   0  0  0  0  0  0  0  0  0  0  0  0
    2.8301   15.2075   42.6680 H   0  0  0  0  0  0  0  0  0  0  0  0
    3.2679   17.5082   41.8052 H   0  0  0  0  0  0  0  0  0  0  0  0
    0.3608   21.3011   44.3620 H   0  0  0  0  0  0  0  0  0  0  0  0
    1.4279   21.5969   42.9477 H   0  0  0  0  0  0  0  0  0  0  0  0
   -0.2554   21.0218   42.6980 H   0  0  0  0  0  0  0  0  0  0  0  0
  2  5  1  0
  3  2  2  0
  4  8  2  0
  5  7  2  0
  5  1  1  0
  6  4  1  0
  8  2  1  0
  8  9  1  0
  9  1  2  0
 10 11  2  0
 10  4  1  0
 11  3  1  0
 12 11  1  0
 13  3  1  0
  1 14  1  0
  6 15  1  0
  6 16  1  0
  6 17  1  0
 10 18  1  0
 13 19  1  0
 13 20  1  0
 13 21  1  0
M  END
>  <mol_id>  (30) 
2026-09-18-6fnk-s0-n100-refligand-0031

>  <rmsd_to_ref>  (30) 


$$$$

     RDKit          3D

 25 27  0  0  0  0  0  0  0  0999 V2000
    3.0415   16.0159   43.1455 C   0  0  0  0  0  0  0  0  0  0  0  0
    1.9401   18.3571   42.3454 C   0  0  0  0  0  0  0  0  0  0  0  0
    2.0285   20.4423   40.9894 C   0  0  0  0  0  0  0  0  0  0  0  0
    2.5106   17.6727   41.3916 O   0  0  0  0  0  0  0  0  0  0  0  0
    0.1262   21.8954   43.7618 N   0  0  0  0  0  0  0  0  0  0  0  0
    2.6669   16.2101   41.6627 C   0  0  0  0  0  0  0  0  0  0  0  0
    2.8698   15.4922   40.7626 O   0  0  0  0  0  0  0  0  0  0  0  0
    0.3053   20.7306   44.1669 C   0  0  0  0  0  0  0  0  0  0  0  0
    0.9644   18.8345   44.1972 C   0  0  0  0  0  0  0  0  0  0  0  0
    1.8079   16.5015   43.9681 C   0  0  0  0  0  0  0  0  0  0  0  0
    0.2990   18.7921   45.2986 N   0  0  0  0  0  0  0  0  0  0  0  0
   -0.1777   20.1639   45.3325 N   0  0  0  0  0  0  0  0  0  0  0  0
    1.6633   19.7167   42.2734 C   0  0  0  0  0  0  0  0  0  0  0  0
    0.9771   19.8926   43.5214 C   0  0  0  0  0  0  0  0  0  0  0  0
    1.6404   17.9081   43.5510 N   0  0  0  0  0  0  0  0  0  0  0  0
    3.9287   16.6155   43.3971 H   0  0  0  0  0  0  0  0  0  0  0  0
    3.2844   14.9658   43.3653 H   0  0  0  0  0  0  0  0  0  0  0  0
    2.4944   21.4083   41.2339 H   0  0  0  0  0  0  0  0  0  0  0  0
    2.7360   19.8302   40.4108 H   0  0  0  0  0  0  0  0  0  0  0  0
    1.1197   20.6138   40.3939 H   0  0  0  0  0  0  0  0  0  0  0  0
    0.5418   22.2001   42.8700 H   0  0  0  0  0  0  0  0  0  0  0  0
   -0.4376   22.5534   44.3186 H   0  0  0  0  0  0  0  0  0  0  0  0
    0.9140   15.9099   43.7208 H   0  0  0  0  0  0  0  0  0  0  0  0
    1.9498   16.3928   45.0535 H   0  0  0  0  0  0  0  0  0  0  0  0
   -0.7485   20.6144   46.0621 H   0  0  0  0  0  0  0  0  0  0  0  0
  1 10  1  0
  2 13  2  0
  2 15  1  0
  3 13  1  0
  4  6  1  0
  4  2  1  0
  5  8  1  0
  6  1  1  0
  7  6  2  0
  8 12  1  0
  9 11  2  0
 11 12  1  0
 13 14  1  0
 14  9  1  0
 14  8  2  0
 15 10  1  0
 15  9  1  0
  1 16  1  0
  1 17  1  0
  3 18  1  0
  3 19  1  0
  3 20  1  0
  5 21  1  0
  5 22  1  0
 10 23  1  0
 10 24  1  0
 12 25  1  0
M  END
>  <mol_id>  (31) 
2026-09-18-6fnk-s0-n100-refligand-0032

>  <rmsd_to_ref>  (31) 


$$$$

     RDKit          3D

 29 30  0  0  0  0  0  0  0  0999 V2000
    1.5657   20.5906   41.5222 C   0  0  0  0  0  0  0  0  0  0  0  0
   -0.3924   18.4538   43.5797 C   0  0  0  0  0  0  0  0  0  0  0  0
    1.5322   19.3879   42.4062 C   0  0  0  0  0  0  0  0  0  0  0  0
    0.2302   19.1025   42.7172 N   0  0  0  0  0  0  0  0  0  0  0  0
   -0.4282   21.1329   45.8720 O   0  0  0  0  0  0  0  0  0  0  0  0
   -1.9043   15.9238   45.9794 Cl  0  0  0  0  0  0  0  0  0  0  0  0
   -0.3808   21.5923   43.7586 O   0  0  0  0  0  0  0  0  0  0  0  0
    1.8237   20.1193   40.1245 C   0  0  0  0  0  0  0  0  0  0  0  0
   -1.4853   17.2212   45.1133 C   0  0  0  0  0  0  0  0  0  0  0  0
   -0.7245   19.2722   44.6222 C   0  0  2  0  0  0  0  0  0  0  0  0
    1.6702   18.2109   41.5101 C   0  0  0  0  0  0  0  0  0  0  0  0
   -1.3165   18.5013   45.5571 C   0  0  0  0  0  0  0  0  0  0  0  0
   -0.5275   20.7636   44.7216 C   0  0  0  0  0  0  0  0  0  0  0  0
   -1.0046   17.1671   43.7694 C   0  0  0  0  0  0  0  0  0  0  0  0
    1.2400   18.6779   40.1591 C   0  0  0  0  0  0  0  0  0  0  0  0
    0.6008   21.1167   41.5683 H   0  0  0  0  0  0  0  0  0  0  0  0
    2.3537   21.2861   41.8465 H   0  0  0  0  0  0  0  0  0  0  0  0
    2.2428   19.5539   43.2293 H   0  0  0  0  0  0  0  0  0  0  0  0
   -0.1757   20.0432   42.8228 H   0  0  0  0  0  0  0  0  0  0  0  0
    0.1587   18.3554   42.0119 H   0  0  0  0  0  0  0  0  0  0  0  0
    1.2994   20.7457   39.3878 H   0  0  0  0  0  0  0  0  0  0  0  0
    2.8823   20.1631   39.8289 H   0  0  0  0  0  0  0  0  0  0  0  0
    0.2695   19.1114   45.0652 H   0  0  0  0  0  0  0  0  0  0  0  0
    2.7158   17.8703   41.4830 H   0  0  0  0  0  0  0  0  0  0  0  0
    1.0629   17.3625   41.8585 H   0  0  0  0  0  0  0  0  0  0  0  0
   -1.6242   18.8585   46.5509 H   0  0  0  0  0  0  0  0  0  0  0  0
   -1.0839   16.3382   43.0507 H   0  0  0  0  0  0  0  0  0  0  0  0
    0.1438   18.6867   40.0680 H   0  0  0  0  0  0  0  0  0  0  0  0
    1.5835   18.0366   39.3341 H   0  0  0  0  0  0  0  0  0  0  0  0
  1  3  1  0
  2 10  1  0
  3  4  1  0
  4  2  1  0
  7 13  2  0
  8  1  1  0
  9  6  1  0
  9 12  2  0
 10 13  1  0
 10 12  1  0
 11  3  1  0
 13  5  1  0
 14  2  2  0
 14  9  1  0
 15  8  1  0
 15 11  1  0
  1 16  1  0
  1 17  1  0
  3 18  1  0
  4 19  1  0
  4 20  1  0
  8 21  1  0
  8 22  1  0
 10 23  1  1
 11 24  1  0
 11 25  1  0
 12 26  1  0
 14 27  1  0
 15 28  1  0
 15 29  1  0
M  CHG  2   4   1   5  -1
M  END
>  <mol_id>  (32) 
2026-09-18-6fnk-s0-n100-refligand-0033

>  <rmsd_to_ref>  (32) 


$$$$

     RDKit          3D

 27 28  0  0  0  0  0  0  0  0999 V2000
    1.9593   18.9687   42.8043 O   0  0  0  0  0  0  0  0  0  0  0  0
    1.1540   15.7204   42.0794 C   0  0  0  0  0  0  0  0  0  0  0  0
    0.7687   16.8436   42.6773 C   0  0  0  0  0  0  0  0  0  0  0  0
   -0.8844   20.2763   45.2760 N   0  0  0  0  0  0  0  0  0  0  0  0
    0.1608   18.4821   44.0977 C   0  0  0  0  0  0  0  0  0  0  0  0
   -1.4669   18.0448   45.7145 N   0  0  0  0  0  0  0  0  0  0  0  0
   -0.7821   18.9142   45.0508 C   0  0  0  0  0  0  0  0  0  0  0  0
    0.8457   20.7344   43.7121 C   0  0  0  0  0  0  0  0  0  0  0  0
    0.9700   19.3857   43.4685 C   0  0  0  0  0  0  0  0  0  0  0  0
   -0.0271   14.5998   43.7513 C   0  0  0  0  0  0  0  0  0  0  0  0
   -0.0987   21.2091   44.5874 C   0  0  0  0  0  0  0  0  0  0  0  0
    3.2681   19.5205   43.0920 C   0  0  0  0  0  0  0  0  0  0  0  0
   -0.2663   15.7702   44.2851 C   0  0  0  0  0  0  0  0  0  0  0  0
    0.7836   14.4765   42.5735 C   0  0  0  0  0  0  0  0  0  0  0  0
    0.2405   17.0388   43.7613 C   0  0  0  0  0  0  0  0  0  0  0  0
    1.7783   15.7775   41.1756 H   0  0  0  0  0  0  0  0  0  0  0  0
    0.9590   17.7566   42.0941 H   0  0  0  0  0  0  0  0  0  0  0  0
   -2.1573   18.3568   46.4123 H   0  0  0  0  0  0  0  0  0  0  0  0
   -1.3231   17.0388   45.5464 H   0  0  0  0  0  0  0  0  0  0  0  0
    1.5128   21.4419   43.1980 H   0  0  0  0  0  0  0  0  0  0  0  0
   -0.4538   13.6967   44.2122 H   0  0  0  0  0  0  0  0  0  0  0  0
   -0.2346   22.2895   44.7434 H   0  0  0  0  0  0  0  0  0  0  0  0
    3.4538   19.4777   44.1753 H   0  0  0  0  0  0  0  0  0  0  0  0
    4.0364   18.9359   42.5649 H   0  0  0  0  0  0  0  0  0  0  0  0
    3.3072   20.5666   42.7543 H   0  0  0  0  0  0  0  0  0  0  0  0
   -0.8911   15.8025   45.1898 H   0  0  0  0  0  0  0  0  0  0  0  0
    1.0749   13.5178   42.1194 H   0  0  0  0  0  0  0  0  0  0  0  0
  1 12  1  0
  1  9  1  0
  2  3  1  0
  2 14  2  0
  3 15  2  0
  5  7  2  0
  7  4  1  0
  7  6  1  0
  8 11  1  0
  9  8  2  0
  9  5  1  0
 10 13  2  0
 11  4  2  0
 14 10  1  0
 15  5  1  0
 15 13  1  0
  2 16  1  0
  3 17  1  0
  6 18  1  0
  6 19  1  0
  8 20  1  0
 10 21  1  0
 11 22  1  0
 12 23  1  0
 12 24  1  0
 12 25  1  0
 13 26  1  0
 14 27  1  0
M  END
>  <mol_id>  (33) 
2026-09-18-6fnk-s0-n100-refligand-0034

>  <rmsd_to_ref>  (33) 


$$$$

     RDKit          3D

 54 56  0  0  0  0  0  0  0  0999 V2000
    1.9543   18.8410   43.4470 C   0  0  0  0  0  0  0  0  0  0  0  0
    0.8315   10.8278   43.4458 O   0  0  0  0  0  0  0  0  0  0  0  0
    2.5224   16.6520   40.5592 O   0  0  0  0  0  0  0  0  0  0  0  0
    2.4206   17.5116   42.7796 C   0  0  0  0  0  0  0  0  0  0  0  0
    1.8354   12.3204   41.7206 C   0  0  0  0  0  0  0  0  0  0  0  0
    0.8761   17.1721   44.8924 N   0  0  0  0  0  0  0  0  0  0  0  0
    0.1311   19.7787   45.1488 C   0  0  0  0  0  0  0  0  0  0  0  0
    2.1182   13.3927   41.0784 O   0  0  0  0  0  0  0  0  0  0  0  0
    2.5471   20.2909   40.6981 C   0  0  2  0  0  0  0  0  0  0  0  0
    0.5577   13.1738   43.9203 C   0  0  0  0  0  0  0  0  0  0  0  0
    2.5529   18.8930   40.6098 C   0  0  2  0  0  0  0  0  0  0  0  0
   -1.0745   17.2307   45.8131 O   0  0  0  0  0  0  0  0  0  0  0  0
    1.7991   20.2930   42.8410 C   0  0  0  0  0  0  0  0  0  0  0  0
    2.6818   21.0579   39.7314 O   0  0  0  0  0  0  0  0  0  0  0  0
    2.4156   11.0502   41.3679 N   0  0  0  0  0  0  0  0  0  0  0  0
    2.0103   17.1163   39.3102 C   0  0  0  0  0  0  0  0  0  0  0  0
   -0.1562   15.0193   45.4541 C   0  0  0  0  0  0  0  0  0  0  0  0
    0.7773   12.2204   42.7770 C   0  0  2  0  0  0  0  0  0  0  0  0
    2.9292   21.3516   38.7412 C   0  0  0  0  0  0  0  0  0  0  0  0
    0.7759   21.2182   43.3655 C   0  0  0  0  0  0  0  0  0  0  0  0
   -0.4609   19.7816   46.3801 O   0  0  0  0  0  0  0  0  0  0  0  0
   -0.0171   21.0370   44.4530 C   0  0  0  0  0  0  0  0  0  0  0  0
    0.8290   14.5589   44.4025 C   0  0  0  0  0  0  0  0  0  0  0  0
   -0.1848   16.5651   45.4429 C   0  0  0  0  0  0  0  0  0  0  0  0
    2.2817   18.4604   39.2605 O   0  0  0  0  0  0  0  0  0  0  0  0
    1.0083   18.5289   44.6748 C   0  0  0  0  0  0  0  0  0  0  0  0
    2.4606   17.7333   41.2608 C   0  0  2  0  0  0  0  0  0  0  0  0
    2.5027   20.9046   41.9104 C   0  0  0  0  0  0  0  0  0  0  0  0
    0.8690   10.9353   44.4293 H   0  0  0  0  0  0  0  0  0  0  0  0
    3.4228   17.2420   43.1442 H   0  0  0  0  0  0  0  0  0  0  0  0
    1.7276   16.6946   43.0289 H   0  0  0  0  0  0  0  0  0  0  0  0
    1.6632   16.5725   44.6062 H   0  0  0  0  0  0  0  0  0  0  0  0
    1.4571   20.2957   40.5502 H   0  0  0  0  0  0  0  0  0  0  0  0
    0.9844   12.5895   44.7489 H   0  0  0  0  0  0  0  0  0  0  0  0
   -0.4054   13.4914   43.4942 H   0  0  0  0  0  0  0  0  0  0  0  0
    3.1335   19.2745   41.4627 H   0  0  0  0  0  0  0  0  0  0  0  0
    3.1537   11.0025   40.6510 H   0  0  0  0  0  0  0  0  0  0  0  0
    2.0925   10.1896   41.8324 H   0  0  0  0  0  0  0  0  0  0  0  0
    2.5065   16.5962   38.4777 H   0  0  0  0  0  0  0  0  0  0  0  0
    0.9311   16.9220   39.2226 H   0  0  0  0  0  0  0  0  0  0  0  0
   -1.1576   14.6264   45.2240 H   0  0  0  0  0  0  0  0  0  0  0  0
    0.1456   14.6513   46.4457 H   0  0  0  0  0  0  0  0  0  0  0  0
   -0.0462   12.4979   42.1026 H   0  0  0  0  0  0  0  0  0  0  0  0
    3.8044   22.0176   38.7641 H   0  0  0  0  0  0  0  0  0  0  0  0
    3.1631   20.4593   38.1419 H   0  0  0  0  0  0  0  0  0  0  0  0
    2.0764   21.8818   38.2921 H   0  0  0  0  0  0  0  0  0  0  0  0
    0.6404   22.1602   42.8136 H   0  0  0  0  0  0  0  0  0  0  0  0
   -0.4239   18.9724   46.9491 H   0  0  0  0  0  0  0  0  0  0  0  0
   -0.7316   21.8044   44.7855 H   0  0  0  0  0  0  0  0  0  0  0  0
    1.8411   14.5890   44.8325 H   0  0  0  0  0  0  0  0  0  0  0  0
    0.7308   15.2341   43.5398 H   0  0  0  0  0  0  0  0  0  0  0  0
    3.5534   17.7156   41.3844 H   0  0  0  0  0  0  0  0  0  0  0  0
    3.5353   21.0003   42.2774 H   0  0  0  0  0  0  0  0  0  0  0  0
    1.9957   21.8655   41.7384 H   0  0  0  0  0  0  0  0  0  0  0  0
  1 26  1  0
  3 27  1  0
  4  1  1  0
  5 18  1  0
  6 24  1  0
  7 21  1  0
  8  5  2  0
  9 14  1  0
  9 11  1  0
  9 28  1  0
 10 23  1  0
 11 25  1  0
 11 27  1  0
 13 20  1  0
 13  1  2  0
 15  5  1  0
 16  3  1  0
 18  2  1  0
 18 10  1  0
 19 14  1  0
 20 22  2  0
 22  7  1  0
 23 17  1  0
 24 17  1  0
 24 12  2  0
 25 16  1  0
 26  6  1  0
 26  7  2  0
 27  4  1  0
 28 13  1  0
  2 29  1  0
  4 30  1  0
  4 31  1  0
  6 32  1  0
  9 33  1  6
 10 34  1  0
 10 35  1  0
 11 36  1  6
 15 37  1  0
 15 38  1  0
 16 39  1  0
 16 40  1  0
 17 41  1  0
 17 42  1  0
 18 43  1  6
 19 44  1  0
 19 45  1  0
 19 46  1  0
 20 47  1  0
 21 48  1  0
 22 49  1  0
 23 50  1  0
 23 51  1  0
 27 52  1  6
 28 53  1  0
 28 54  1  0
M  END
>  <mol_id>  (34) 
2026-09-18-6fnk-s0-n100-refligand-0035

>  <rmsd_to_ref>  (34) 


$$$$

     RDKit          3D

 46 47  0  0  0  0  0  0  0  0999 V2000
    4.6498   16.2825   41.2312 O   0  0  0  0  0  0  0  0  0  0  0  0
    2.3775   13.6926   42.2813 C   0  0  0  0  0  0  0  0  0  0  0  0
   -0.8210   20.4564   45.9563 N   0  0  0  0  0  0  0  0  0  0  0  0
    2.5673   15.9112   42.2834 C   0  0  0  0  0  0  0  0  0  0  0  0
    3.1574   20.0168   41.8836 C   0  0  0  0  0  0  0  0  0  0  0  0
    0.1235   20.9466   45.2162 C   0  0  0  0  0  0  0  0  0  0  0  0
    4.6516   21.5860   40.6277 C   0  0  0  0  0  0  0  0  0  0  0  0
   -0.8387   17.9757   46.3319 C   0  0  0  0  0  0  0  0  0  0  0  0
    0.7526   16.3965   44.8789 C   0  0  0  0  0  0  0  0  0  0  0  0
   -0.9320   16.5984   46.5920 C   0  0  0  0  0  0  0  0  0  0  0  0
    2.8819   19.2025   43.2069 C   0  0  0  0  0  0  0  0  0  0  0  0
    3.7052   15.4544   41.6758 C   0  0  0  0  0  0  0  0  0  0  0  0
    0.1479   21.9651   44.7226 O   0  0  0  0  0  0  0  0  0  0  0  0
   -0.1136   15.8327   45.7792 C   0  0  0  0  0  0  0  0  0  0  0  0
    2.0234   18.0758   43.3499 C   0  0  1  0  0  0  0  0  0  0  0  0
    1.0091   20.3114   44.8443 O   0  0  0  0  0  0  0  0  0  0  0  0
    0.9438   17.6326   44.4671 C   0  0  0  0  0  0  0  0  0  0  0  0
    2.7438   20.4461   39.4317 C   0  0  0  0  0  0  0  0  0  0  0  0
    2.4839   19.7676   40.7111 C   0  0  0  0  0  0  0  0  0  0  0  0
    0.1337   18.4577   45.4170 C   0  0  0  0  0  0  0  0  0  0  0  0
    1.7159   14.8256   42.7342 N   0  0  0  0  0  0  0  0  0  0  0  0
    3.6661   14.0704   41.4960 N   0  0  0  0  0  0  0  0  0  0  0  0
    3.6029   21.6750   39.4794 C   0  0  0  0  0  0  0  0  0  0  0  0
    2.0895   17.1043   42.3428 N   0  0  0  0  0  0  0  0  0  0  0  0
    4.1504   21.0528   41.9604 C   0  0  0  0  0  0  0  0  0  0  0  0
    2.0353   12.6617   42.4551 H   0  0  0  0  0  0  0  0  0  0  0  0
   -0.7267   19.5102   46.3519 H   0  0  0  0  0  0  0  0  0  0  0  0
   -1.6659   21.0132   46.1487 H   0  0  0  0  0  0  0  0  0  0  0  0
    5.0468   22.5981   40.7993 H   0  0  0  0  0  0  0  0  0  0  0  0
    5.4003   20.8570   40.2841 H   0  0  0  0  0  0  0  0  0  0  0  0
   -1.5177   18.6791   46.8361 H   0  0  0  0  0  0  0  0  0  0  0  0
    1.4252   15.6676   44.4032 H   0  0  0  0  0  0  0  0  0  0  0  0
   -1.5892   16.1714   47.3638 H   0  0  0  0  0  0  0  0  0  0  0  0
    3.8708   18.8506   43.5358 H   0  0  0  0  0  0  0  0  0  0  0  0
    2.2916   19.9494   43.7579 H   0  0  0  0  0  0  0  0  0  0  0  0
   -0.1599   14.7366   45.8586 H   0  0  0  0  0  0  0  0  0  0  0  0
    2.8127   17.5444   43.9018 H   0  0  0  0  0  0  0  0  0  0  0  0
    1.7721   20.7359   39.0054 H   0  0  0  0  0  0  0  0  0  0  0  0
    3.3128   19.7206   38.8317 H   0  0  0  0  0  0  0  0  0  0  0  0
    1.6921   19.0044   40.7311 H   0  0  0  0  0  0  0  0  0  0  0  0
    0.3089   19.5437   45.4051 H   0  0  0  0  0  0  0  0  0  0  0  0
    4.1299   21.7817   38.5199 H   0  0  0  0  0  0  0  0  0  0  0  0
    2.9559   22.5448   39.6658 H   0  0  0  0  0  0  0  0  0  0  0  0
    1.6629   17.4121   41.4572 H   0  0  0  0  0  0  0  0  0  0  0  0
    3.7175   21.8951   42.5201 H   0  0  0  0  0  0  0  0  0  0  0  0
    5.0240   20.5953   42.4479 H   0  0  0  0  0  0  0  0  0  0  0  0
  1 12  2  0
  2 21  1  0
  4 24  1  0
  4 21  2  0
  5 25  1  0
  5 11  1  0
  6  3  1  0
  7 25  1  0
  8 10  2  0
  9 14  2  0
 12  4  1  0
 13  6  1  0
 14 10  1  0
 15 11  1  0
 15 17  1  0
 16  6  2  0
 17  9  1  0
 17 20  2  0
 18 23  1  0
 18 19  1  0
 19  5  2  0
 20  8  1  0
 22 12  1  0
 22  2  2  0
 23  7  1  0
 24 15  1  0
  2 26  1  0
  3 27  1  0
  3 28  1  0
  7 29  1  0
  7 30  1  0
  8 31  1  0
  9 32  1  0
 10 33  1  0
 11 34  1  0
 11 35  1  0
 14 36  1  0
 15 37  1  1
 18 38  1  0
 18 39  1  0
 19 40  1  0
 20 41  1  0
 23 42  1  0
 23 43  1  0
 24 44  1  0
 25 45  1  0
 25 46  1  0
M  CHG  1  13  -1
M  END
>  <mol_id>  (35) 
2026-09-18-6fnk-s0-n100-refligand-0036

>  <rmsd_to_ref>  (35) 


$$$$

     RDKit          3D

 21 21  0  0  0  0  0  0  0  0999 V2000
    1.6368   17.4761   44.1582 C   0  0  0  0  0  0  0  0  0  0  0  0
    1.3278   16.5987   43.0160 N   0  0  0  0  0  0  0  0  0  0  0  0
    2.0788   18.9642   40.9380 O   0  0  0  0  0  0  0  0  0  0  0  0
    2.2136   21.1176   41.5097 N   0  0  0  0  0  0  0  0  0  0  0  0
    0.6816   20.9682   43.4906 C   0  0  0  0  0  0  0  0  0  0  0  0
    0.1028   18.8835   45.2099 C   0  0  0  0  0  0  0  0  0  0  0  0
   -0.1298   21.2002   44.6007 N   0  0  0  0  0  0  0  0  0  0  0  0
   -0.4403   20.1064   45.4292 C   0  0  0  0  0  0  0  0  0  0  0  0
    1.1689   19.6838   43.1566 C   0  0  0  0  0  0  0  0  0  0  0  0
    0.8366   18.6725   44.1034 C   0  0  0  0  0  0  0  0  0  0  0  0
    1.9064   19.8706   41.8052 C   0  0  0  0  0  0  0  0  0  0  0  0
    1.4239   16.9402   45.0949 H   0  0  0  0  0  0  0  0  0  0  0  0
    2.6999   17.7558   44.1159 H   0  0  0  0  0  0  0  0  0  0  0  0
    1.0437   15.6713   43.3625 H   0  0  0  0  0  0  0  0  0  0  0  0
    0.5603   17.0094   42.4654 H   0  0  0  0  0  0  0  0  0  0  0  0
    2.1632   16.5020   42.4214 H   0  0  0  0  0  0  0  0  0  0  0  0
    2.0766   21.8613   42.2091 H   0  0  0  0  0  0  0  0  0  0  0  0
    2.5906   21.3486   40.5794 H   0  0  0  0  0  0  0  0  0  0  0  0
    0.9534   21.8190   42.8487 H   0  0  0  0  0  0  0  0  0  0  0  0
   -0.0560   18.0695   45.9325 H   0  0  0  0  0  0  0  0  0  0  0  0
   -1.1359   20.2458   46.2699 H   0  0  0  0  0  0  0  0  0  0  0  0
  2  1  1  0
  3 11  2  0
  4 11  1  0
  5  7  1  0
  6  8  1  0
  7  8  2  0
  9  5  2  0
  9 10  1  0
 10  1  1  0
 10  6  2  0
 11  9  1  0
  1 12  1  0
  1 13  1  0
  2 14  1  0
  2 15  1  0
  2 16  1  0
  4 17  1  0
  4 18  1  0
  5 19  1  0
  6 20  1  0
  8 21  1  0
M  CHG  1   2   1
M  END
>  <mol_id>  (36) 
2026-09-18-6fnk-s0-n100-refligand-0037

>  <rmsd_to_ref>  (36) 


$$$$

     RDKit          3D

 19 20  0  0  0  0  0  0  0  0999 V2000
    2.1191   19.1090   41.7304 C   0  0  0  0  0  0  0  0  0  0  0  0
    1.6984   17.7544   41.3724 N   0  0  0  0  0  0  0  0  0  0  0  0
    1.6970   15.1414   41.3095 Cl  0  0  0  0  0  0  0  0  0  0  0  0
    0.9673   18.3486   43.4003 C   0  0  0  0  0  0  0  0  0  0  0  0
   -0.0942   16.4687   44.1619 C   0  0  0  0  0  0  0  0  0  0  0  0
    0.6713   16.2026   42.7729 N   0  0  0  0  0  0  0  0  0  0  0  0
    1.5848   19.5311   42.9727 C   0  0  0  0  0  0  0  0  0  0  0  0
    1.7029   20.7203   43.4990 N   0  0  0  0  0  0  0  0  0  0  0  0
    1.0865   17.2936   42.4534 N   0  0  0  0  0  0  0  0  0  0  0  0
   -0.3595   18.4801   45.6705 C   0  0  0  0  0  0  0  0  0  0  0  0
   -0.1957   19.7729   45.7111 O   0  0  0  0  0  0  0  0  0  0  0  0
    0.1908   17.8065   44.4269 C   0  0  0  0  0  0  0  0  0  0  0  0
    2.7769   19.7304   41.1049 H   0  0  0  0  0  0  0  0  0  0  0  0
   -0.6958   15.7662   44.7573 H   0  0  0  0  0  0  0  0  0  0  0  0
    1.2735   20.9240   44.4128 H   0  0  0  0  0  0  0  0  0  0  0  0
    2.2255   21.4547   43.0004 H   0  0  0  0  0  0  0  0  0  0  0  0
    0.1432   18.0441   46.5464 H   0  0  0  0  0  0  0  0  0  0  0  0
   -1.4455   18.3063   45.6614 H   0  0  0  0  0  0  0  0  0  0  0  0
   -0.1330   20.0681   46.6540 H   0  0  0  0  0  0  0  0  0  0  0  0
  1  7  1  0
  2  1  2  0
  2  9  1  0
  3  6  1  0
  4 12  1  0
  5 12  2  0
  6  5  1  0
  7  8  1  0
  7  4  2  0
  9  6  1  0
  9  4  1  0
 11 10  1  0
 12 10  1  0
  1 13  1  0
  5 14  1  0
  8 15  1  0
  8 16  1  0
 10 17  1  0
 10 18  1  0
 11 19  1  0
M  END
>  <mol_id>  (37) 
2026-09-18-6fnk-s0-n100-refligand-0038

>  <rmsd_to_ref>  (37) 


$$$$

     RDKit          3D

 44 47  0  0  0  0  0  0  0  0999 V2000
    3.1922   13.7032   43.4571 C   0  0  0  0  0  0  0  0  0  0  0  0
    3.9988   20.6842   40.3850 N   0  0  0  0  0  0  0  0  0  0  0  0
    2.9162   14.5499   42.2199 C   0  0  0  0  0  0  0  0  0  0  0  0
    0.0126   22.0491   43.3689 N   0  0  0  0  0  0  0  0  0  0  0  0
    3.3010   15.9926   42.4675 C   0  0  0  0  0  0  0  0  0  0  0  0
    2.0388   17.9086   43.2649 C   0  0  0  0  0  0  0  0  0  0  0  0
    2.6513   14.3292   44.6722 C   0  0  0  0  0  0  0  0  0  0  0  0
    2.6825   18.7613   42.4494 N   0  0  0  0  0  0  0  0  0  0  0  0
   -0.5250   20.5235   45.0510 N   0  0  0  0  0  0  0  0  0  0  0  0
    0.2501   18.2726   44.9642 C   0  0  0  0  0  0  0  0  0  0  0  0
    2.1454   21.0640   41.4966 C   0  0  0  0  0  0  0  0  0  0  0  0
    1.0791   19.8794   43.4113 C   0  0  0  0  0  0  0  0  0  0  0  0
    1.1069   18.5893   43.9077 N   0  0  0  0  0  0  0  0  0  0  0  0
    0.2068   20.8144   43.9367 C   0  0  0  0  0  0  0  0  0  0  0  0
    2.9754   21.0117   40.5141 C   0  0  1  0  0  0  0  0  0  0  0  0
    2.0246   19.9470   42.4058 C   0  0  0  0  0  0  0  0  0  0  0  0
   -1.0182   19.0058   46.7462 N   0  0  0  0  0  0  0  0  0  0  0  0
   -0.3874   19.2725   45.5534 C   0  0  0  0  0  0  0  0  0  0  0  0
    2.4845   15.8657   44.7359 C   0  0  0  0  0  0  0  0  0  0  0  0
    3.4777   21.6608   39.6253 C   0  0  0  0  0  0  0  0  0  0  0  0
    2.3516   16.4521   43.4374 C   0  0  0  0  0  0  0  0  0  0  0  0
    4.2795   13.5820   43.5715 H   0  0  0  0  0  0  0  0  0  0  0  0
    2.7004   12.7283   43.3238 H   0  0  0  0  0  0  0  0  0  0  0  0
    4.7077   20.9052   41.0988 H   0  0  0  0  0  0  0  0  0  0  0  0
    4.4660   19.7837   40.2067 H   0  0  0  0  0  0  0  0  0  0  0  0
    1.8445   14.4978   41.9774 H   0  0  0  0  0  0  0  0  0  0  0  0
    3.5143   14.1612   41.3824 H   0  0  0  0  0  0  0  0  0  0  0  0
   -0.6482   22.7141   43.7956 H   0  0  0  0  0  0  0  0  0  0  0  0
    0.5277   22.3104   42.5160 H   0  0  0  0  0  0  0  0  0  0  0  0
    4.3253   16.0602   42.8627 H   0  0  0  0  0  0  0  0  0  0  0  0
    3.2859   16.5950   41.5472 H   0  0  0  0  0  0  0  0  0  0  0  0
    1.6551   13.8933   44.8387 H   0  0  0  0  0  0  0  0  0  0  0  0
    3.4224   14.1245   45.4296 H   0  0  0  0  0  0  0  0  0  0  0  0
    0.1102   17.2327   45.2941 H   0  0  0  0  0  0  0  0  0  0  0  0
    1.1486   21.2268   41.0608 H   0  0  0  0  0  0  0  0  0  0  0  0
    2.5586   21.8612   42.1320 H   0  0  0  0  0  0  0  0  0  0  0  0
    1.9554   20.6205   40.6432 H   0  0  0  0  0  0  0  0  0  0  0  0
   -0.9443   18.0699   47.1699 H   0  0  0  0  0  0  0  0  0  0  0  0
   -1.5645   19.7420   47.2159 H   0  0  0  0  0  0  0  0  0  0  0  0
    1.5845   16.0997   45.3235 H   0  0  0  0  0  0  0  0  0  0  0  0
    3.3889   16.2833   45.2026 H   0  0  0  0  0  0  0  0  0  0  0  0
    3.7583   22.7146   39.7695 H   0  0  0  0  0  0  0  0  0  0  0  0
    3.3083   21.8879   38.5624 H   0  0  0  0  0  0  0  0  0  0  0  0
    1.3632   16.0168   43.2285 H   0  0  0  0  0  0  0  0  0  0  0  0
  1  7  1  0
  2 15  1  0
  3  5  1  0
  3  1  1  0
  4 14  1  0
  5 21  1  0
  6 21  1  0
  6 13  1  0
  7 19  1  0
  8 16  1  0
  8  6  2  0
  9 18  1  0
 10 18  2  0
 11 16  1  0
 12 13  1  0
 12 14  1  0
 13 10  1  0
 14  9  2  0
 15 11  1  0
 16 12  2  0
 18 17  1  0
 20  2  1  0
 20 15  1  0
 21 19  1  0
  1 22  1  0
  1 23  1  0
  2 24  1  0
  2 25  1  0
  3 26  1  0
  3 27  1  0
  4 28  1  0
  4 29  1  0
  5 30  1  0
  5 31  1  0
  7 32  1  0
  7 33  1  0
 10 34  1  0
 11 35  1  0
 11 36  1  0
 15 37  1  6
 17 38  1  0
 17 39  1  0
 19 40  1  0
 19 41  1  0
 20 42  1  0
 20 43  1  0
 21 44  1  0
M  CHG  1   2   1
M  END
>  <mol_id>  (38) 
2026-09-18-6fnk-s0-n100-refligand-0039

>  <rmsd_to_ref>  (38) 


$$$$

     RDKit          3D

 53 55  0  0  0  0  0  0  0  0999 V2000
    0.3600   13.9640   43.8490 C   0  0  0  0  0  0  0  0  0  0  0  0
    1.3040   14.7270   43.2360 C   0  0  0  0  0  0  0  0  0  0  0  0
    2.6700   20.4270   39.8680 C   0  0  0  0  0  0  0  0  0  0  0  0
    2.5510   15.7400   41.0700 C   0  0  2  0  0  0  0  0  0  0  0  0
    2.9210   14.3600   41.3590 C   0  0  0  0  0  0  0  0  0  0  0  0
    0.2300   14.2590   44.1150 C   0  0  0  0  0  0  0  0  0  0  0  0
    0.2520   15.5070   41.5390 C   0  0  0  0  0  0  0  0  0  0  0  0
    0.3180   17.6880   43.7860 C   0  0  0  0  0  0  0  0  0  0  0  0
    1.2660   21.6180   41.5550 N   0  0  0  0  0  0  0  0  0  0  0  0
    2.1950   19.4710   39.0470 O   0  0  0  0  0  0  0  0  0  0  0  0
    2.6290   17.2010   41.0020 C   0  0  0  0  0  0  0  0  0  0  0  0
   -0.1650   19.6930   44.6450 C   0  0  0  0  0  0  0  0  0  0  0  0
    1.5070   17.2620   43.0720 C   0  0  2  0  0  0  0  0  0  0  0  0
    0.5390   21.1770   42.5590 N   0  0  0  0  0  0  0  0  0  0  0  0
    0.7680   19.8480   42.8450 C   0  0  0  0  0  0  0  0  0  0  0  0
   -0.8070   18.7120   46.0170 C   0  0  0  0  0  0  0  0  0  0  0  0
    2.4890   13.8130   42.7280 C   0  0  0  0  0  0  0  0  0  0  0  0
    1.9420   20.5420   41.1020 C   0  0  0  0  0  0  0  0  0  0  0  0
    1.5990   19.3910   41.9350 C   0  0  0  0  0  0  0  0  0  0  0  0
    1.9270   18.0120   42.0220 C   0  0  0  0  0  0  0  0  0  0  0  0
   -0.3190   17.1610   44.6750 N   0  0  0  0  0  0  0  0  0  0  0  0
    0.2680   19.0690   43.7510 C   0  0  1  0  0  0  0  0  0  0  0  0
    2.7070   12.8850   43.2030 O   0  0  0  0  0  0  0  0  0  0  0  0
    1.2810   15.9580   42.3810 C   0  0  2  0  0  0  0  0  0  0  0  0
   -1.2720   17.4580   45.5850 C   0  0  0  0  0  0  0  0  0  0  0  0
    3.4680   21.2950   39.4660 O   0  0  0  0  0  0  0  0  0  0  0  0
   -0.9580   19.8730   45.3890 O   0  0  0  0  0  0  0  0  0  0  0  0
    0.7879   13.0896   44.3611 H   0  0  0  0  0  0  0  0  0  0  0  0
   -0.4019   13.4983   43.2066 H   0  0  0  0  0  0  0  0  0  0  0  0
    1.9221   15.2266   43.9964 H   0  0  0  0  0  0  0  0  0  0  0  0
    1.9413   14.0873   42.6078 H   0  0  0  0  0  0  0  0  0  0  0  0
    0.8122   15.4843   42.6078 H   0  0  0  0  0  0  0  0  0  0  0  0
    2.9901   15.5462   40.0803 H   0  0  0  0  0  0  0  0  0  0  0  0
    2.4686   13.7224   40.5852 H   0  0  0  0  0  0  0  0  0  0  0  0
    4.0209   14.3472   41.3713 H   0  0  0  0  0  0  0  0  0  0  0  0
    0.3821   13.9138   45.1483 H   0  0  0  0  0  0  0  0  0  0  0  0
    0.8047   15.1820   43.9484 H   0  0  0  0  0  0  0  0  0  0  0  0
   -0.8390   14.4576   43.9484 H   0  0  0  0  0  0  0  0  0  0  0  0
   -0.5864   15.1395   42.1490 H   0  0  0  0  0  0  0  0  0  0  0  0
   -0.0924   16.3367   40.9042 H   0  0  0  0  0  0  0  0  0  0  0  0
    0.6286   14.6914   40.9042 H   0  0  0  0  0  0  0  0  0  0  0  0
    3.2032   17.6903   40.2014 H   0  0  0  0  0  0  0  0  0  0  0  0
   -0.1564   20.6857   44.1712 H   0  0  0  0  0  0  0  0  0  0  0  0
    0.2952   18.9758   45.3406 H   0  0  0  0  0  0  0  0  0  0  0  0
    2.2373   17.2919   43.8941 H   0  0  0  0  0  0  0  0  0  0  0  0
   -0.1310   21.7632   43.0770 H   0  0  0  0  0  0  0  0  0  0  0  0
   -1.2654   18.8609   47.0058 H   0  0  0  0  0  0  0  0  0  0  0  0
    0.2729   18.5652   45.8680 H   0  0  0  0  0  0  0  0  0  0  0  0
    1.8501   14.4906   43.3134 H   0  0  0  0  0  0  0  0  0  0  0  0
   -0.6760   19.0206   43.1884 H   0  0  0  0  0  0  0  0  0  0  0  0
    1.1558   15.4614   43.3545 H   0  0  0  0  0  0  0  0  0  0  0  0
   -2.2690   17.5274   45.1255 H   0  0  0  0  0  0  0  0  0  0  0  0
   -1.4041   16.7109   46.3815 H   0  0  0  0  0  0  0  0  0  0  0  0
  1  6  1  0
  2  1  1  0
  3 18  1  0
  4  5  1  0
  4 24  1  0
  5 17  1  0
  8 21  2  0
  9 14  1  0
 10  3  2  0
 11  4  1  0
 11 20  2  0
 12 27  1  0
 13 20  1  0
 13  8  1  0
 14 15  1  0
 15 22  1  0
 17 23  2  0
 18  9  2  0
 18 19  1  0
 19 20  1  0
 19 15  2  0
 21 25  1  0
 22  8  1  0
 22 12  1  0
 24  7  1  0
 24 13  1  0
 25 16  1  0
 26  3  1  0
 27 16  1  0
  1 28  1  0
  1 29  1  0
  2 30  1  0
  2 31  1  0
  2 32  1  0
  4 33  1  6
  5 34  1  0
  5 35  1  0
  6 36  1  0
  6 37  1  0
  6 38  1  0
  7 39  1  0
  7 40  1  0
  7 41  1  0
 11 42  1  0
 12 43  1  0
 12 44  1  0
 13 45  1  1
 14 46  1  0
 16 47  1  0
 16 48  1  0
 17 49  1  0
 22 50  1  6
 24 51  1  1
 25 52  1  0
 25 53  1  0
M  CHG  1  26  -1
M  END
>  <mol_id>  (39) 
2026-09-18-6fnk-s0-n100-refligand-0040

>  <rmsd_to_ref>  (39) 


$$$$

     RDKit          3D

 54 56  0  0  0  0  0  0  0  0999 V2000
   -0.3994   20.5951   44.2925 N   0  0  0  0  0  0  0  0  0  0  0  0
    3.5083   15.5332   41.7936 C   0  0  0  0  0  0  0  0  0  0  0  0
    0.5660   17.3486   44.3421 C   0  0  0  0  0  0  0  0  0  0  0  0
    1.2386   15.9077   41.1879 C   0  0  1  0  0  0  0  0  0  0  0  0
    0.5652   18.4039   43.6929 C   0  0  1  0  0  0  0  0  0  0  0  0
    4.0470   15.1247   40.5127 C   0  0  0  0  0  0  0  0  0  0  0  0
    2.6727   20.2362   41.3795 C   0  0  2  0  0  0  0  0  0  0  0  0
    1.1421   18.5102   42.3102 C   0  0  2  0  0  0  0  0  0  0  0  0
    1.3135   20.4901   40.9106 C   0  0  0  0  0  0  0  0  0  0  0  0
    3.4147   19.9894   40.2078 O   0  0  0  0  0  0  0  0  0  0  0  0
   -0.4582   19.2081   44.1954 C   0  0  1  0  0  0  0  0  0  0  0  0
   -1.6114   16.7112   48.3917 N   0  0  0  0  0  0  0  0  0  0  0  0
   -0.8805   19.0815   45.7635 C   0  0  0  0  0  0  0  0  0  0  0  0
    3.0653   16.8871   42.0556 O   0  0  0  0  0  0  0  0  0  0  0  0
   -1.3717   17.1633   47.2659 C   0  0  0  0  0  0  0  0  0  0  0  0
    3.9206   21.2452   39.9475 O   0  0  0  0  0  0  0  0  0  0  0  0
    2.0301   15.9996   39.8627 C   0  0  2  0  0  0  0  0  0  0  0  0
    1.5591   17.2100   41.6665 C   0  0  1  0  0  0  0  0  0  0  0  0
    0.3498   21.0021   43.4068 O   0  0  0  0  0  0  0  0  0  0  0  0
   -0.1229   16.0650   41.0104 F   0  0  0  0  0  0  0  0  0  0  0  0
   -0.9857   17.7828   46.1406 C   0  0  2  0  0  0  0  0  0  0  0  0
   -0.3672   17.0921   45.3840 N   0  0  0  0  0  0  0  0  0  0  0  0
    3.4879   15.8391   39.3064 C   0  0  0  0  0  0  0  0  0  0  0  0
    2.0390   17.4857   40.0905 C   0  0  0  0  0  0  0  0  0  0  0  0
    2.3462   19.1041   42.4144 C   0  0  0  0  0  0  0  0  0  0  0  0
   -1.3402   20.9954   44.1670 H   0  0  0  0  0  0  0  0  0  0  0  0
    4.2908   15.3188   42.5365 H   0  0  0  0  0  0  0  0  0  0  0  0
    2.5608   14.9755   41.8280 H   0  0  0  0  0  0  0  0  0  0  0  0
    1.5634   17.2720   44.7995 H   0  0  0  0  0  0  0  0  0  0  0  0
    0.2614   16.6152   43.5809 H   0  0  0  0  0  0  0  0  0  0  0  0
    1.4500   14.9808   41.7413 H   0  0  0  0  0  0  0  0  0  0  0  0
    1.5100   18.9584   43.7916 H   0  0  0  0  0  0  0  0  0  0  0  0
    5.1333   15.2966   40.5332 H   0  0  0  0  0  0  0  0  0  0  0  0
    3.7632   14.0688   40.3926 H   0  0  0  0  0  0  0  0  0  0  0  0
    3.3032   20.9809   41.8872 H   0  0  0  0  0  0  0  0  0  0  0  0
    0.3479   19.0062   41.7329 H   0  0  0  0  0  0  0  0  0  0  0  0
    0.6720   20.7461   41.7667 H   0  0  0  0  0  0  0  0  0  0  0  0
    1.3224   21.3264   40.1960 H   0  0  0  0  0  0  0  0  0  0  0  0
    0.9221   19.5891   40.4156 H   0  0  0  0  0  0  0  0  0  0  0  0
   -1.0796   18.7960   43.3867 H   0  0  0  0  0  0  0  0  0  0  0  0
   -0.1154   19.5737   46.3818 H   0  0  0  0  0  0  0  0  0  0  0  0
   -1.8595   19.5639   45.9003 H   0  0  0  0  0  0  0  0  0  0  0  0
    3.9981   21.7518   40.7945 H   0  0  0  0  0  0  0  0  0  0  0  0
    1.6201   15.1989   39.2296 H   0  0  0  0  0  0  0  0  0  0  0  0
    1.0229   21.6131   43.7990 H   0  0  0  0  0  0  0  0  0  0  0  0
   -2.0227   18.0590   46.3817 H   0  0  0  0  0  0  0  0  0  0  0  0
   -1.1048   16.5547   44.9065 H   0  0  0  0  0  0  0  0  0  0  0  0
    0.3395   16.8032   46.0754 H   0  0  0  0  0  0  0  0  0  0  0  0
    3.5283   15.2258   38.3941 H   0  0  0  0  0  0  0  0  0  0  0  0
    4.0037   16.7562   38.9859 H   0  0  0  0  0  0  0  0  0  0  0  0
    3.0296   17.9540   39.9929 H   0  0  0  0  0  0  0  0  0  0  0  0
    1.4731   18.1640   39.4350 H   0  0  0  0  0  0  0  0  0  0  0  0
    3.1124   18.3226   42.3042 H   0  0  0  0  0  0  0  0  0  0  0  0
    2.3338   19.6061   43.3931 H   0  0  0  0  0  0  0  0  0  0  0  0
  2 14  1  0
  3 22  1  0
  4 20  1  0
  4 18  1  0
  5  8  1  0
  5  3  1  0
  5 11  1  0
  6  2  1  0
  7  9  1  0
  7 25  1  0
  8 25  1  0
 10  7  1  0
 11  1  1  0
 11 13  1  0
 13 21  1  0
 15 12  3  0
 16 10  1  0
 17 23  1  0
 17 24  1  0
 17  4  1  0
 18 14  1  1
 18  8  1  0
 19  1  1  0
 21 15  1  0
 22 21  1  0
 23  6  1  0
 24 18  1  0
  1 26  1  0
  2 27  1  0
  2 28  1  0
  3 29  1  0
  3 30  1  0
  4 31  1  1
  5 32  1  1
  6 33  1  0
  6 34  1  0
  7 35  1  1
  8 36  1  6
  9 37  1  0
  9 38  1  0
  9 39  1  0
 11 40  1  6
 13 41  1  0
 13 42  1  0
 16 43  1  0
 17 44  1  6
 19 45  1  0
 21 46  1  6
 22 47  1  0
 22 48  1  0
 23 49  1  0
 23 50  1  0
 24 51  1  0
 24 52  1  0
 25 53  1  0
 25 54  1  0
M  CHG  1  22   1
M  END
>  <mol_id>  (40) 
2026-09-18-6fnk-s0-n100-refligand-0041

>  <rmsd_to_ref>  (40) 


$$$$

     RDKit          3D

 46 50  0  0  0  0  0  0  0  0999 V2000
    1.3170   21.2979   41.5837 C   0  0  0  0  0  0  0  0  0  0  0  0
    2.2552   21.0273   40.6236 C   0  0  0  0  0  0  0  0  0  0  0  0
    0.8168   13.8775   43.2422 C   0  0  1  0  0  0  0  0  0  0  0  0
    2.6064   18.7343   41.4225 C   0  0  0  0  0  0  0  0  0  0  0  0
    0.2459   13.4226   44.5777 C   0  0  0  0  0  0  0  0  0  0  0  0
    0.2775   20.3474   43.8791 C   0  0  0  0  0  0  0  0  0  0  0  0
   -0.0013   19.5311   44.9423 C   0  0  0  0  0  0  0  0  0  0  0  0
    0.9227   15.7032   43.4877 C   0  0  2  0  0  0  0  0  0  0  0  0
    0.0196   18.2615   45.2400 C   0  0  0  0  0  0  0  0  0  0  0  0
    1.0028   20.2419   42.5056 C   0  0  0  0  0  0  0  0  0  0  0  0
   -0.0626   21.4252   44.1163 O   0  0  0  0  0  0  0  0  0  0  0  0
    3.0451   19.8125   40.7520 C   0  0  0  0  0  0  0  0  0  0  0  0
    0.4941   17.4038   44.1763 C   0  0  2  0  0  0  0  0  0  0  0  0
    1.3573   15.4275   42.9482 C   0  0  2  0  0  0  0  0  0  0  0  0
    1.5015   22.1807   38.7720 O   0  0  0  0  0  0  0  0  0  0  0  0
   -0.3587   14.5534   45.3910 C   0  0  0  0  0  0  0  0  0  0  0  0
    3.6653   22.2310   39.1541 O   0  0  0  0  0  0  0  0  0  0  0  0
    0.0311   15.8435   44.8742 C   0  0  1  0  0  0  0  0  0  0  0  0
    1.5247   18.9607   42.3787 C   0  0  0  0  0  0  0  0  0  0  0  0
    2.7439   14.1535   42.0868 C   0  0  0  0  0  0  0  0  0  0  0  0
    2.4955   21.9364   39.3792 N   0  0  0  0  0  0  0  0  0  0  0  0
    2.1084   15.5786   41.8685 C   0  0  0  0  0  0  0  0  0  0  0  0
    0.9863   17.8618   43.0911 N   0  0  0  0  0  0  0  0  0  0  0  0
    1.6032   13.1136   42.3865 C   0  0  0  0  0  0  0  0  0  0  0  0
    0.8258   22.2801   41.6462 H   0  0  0  0  0  0  0  0  0  0  0  0
   -0.2553   13.7080   43.0632 H   0  0  0  0  0  0  0  0  0  0  0  0
    3.0378   17.7355   41.2606 H   0  0  0  0  0  0  0  0  0  0  0  0
   -0.5367   12.6739   44.3856 H   0  0  0  0  0  0  0  0  0  0  0  0
    1.0802   13.0105   45.1642 H   0  0  0  0  0  0  0  0  0  0  0  0
    0.6478   19.9537   45.7234 H   0  0  0  0  0  0  0  0  0  0  0  0
   -1.0800   19.5221   44.7267 H   0  0  0  0  0  0  0  0  0  0  0  0
    1.8475   15.6950   44.0832 H   0  0  0  0  0  0  0  0  0  0  0  0
    0.6766   18.1237   46.1114 H   0  0  0  0  0  0  0  0  0  0  0  0
   -1.0224   17.9689   45.4364 H   0  0  0  0  0  0  0  0  0  0  0  0
    4.0391   19.7753   40.2824 H   0  0  0  0  0  0  0  0  0  0  0  0
    2.0167   16.2925   42.7845 H   0  0  0  0  0  0  0  0  0  0  0  0
   -1.4551   14.4712   45.3575 H   0  0  0  0  0  0  0  0  0  0  0  0
    0.0088   14.4701   46.4244 H   0  0  0  0  0  0  0  0  0  0  0  0
    0.9559   15.8353   45.4698 H   0  0  0  0  0  0  0  0  0  0  0  0
    3.4411   14.1888   42.9369 H   0  0  0  0  0  0  0  0  0  0  0  0
    3.2880   13.8509   41.1799 H   0  0  0  0  0  0  0  0  0  0  0  0
    2.8310   16.4050   41.9397 H   0  0  0  0  0  0  0  0  0  0  0  0
    1.6423   15.8315   40.9049 H   0  0  0  0  0  0  0  0  0  0  0  0
    0.9965   17.0698   42.4326 H   0  0  0  0  0  0  0  0  0  0  0  0
    1.9905   12.2107   42.8812 H   0  0  0  0  0  0  0  0  0  0  0  0
    1.0844   12.7187   41.5005 H   0  0  0  0  0  0  0  0  0  0  0  0
  1 10  1  0
  2 12  1  0
  2  1  2  0
  3 24  1  0
  3  5  1  0
  4 19  1  0
  5 16  1  0
  6  7  1  0
  7  9  1  0
  8 13  1  0
  8 18  1  0
 10 19  2  0
 10  6  1  0
 11  6  2  0
 12  4  2  0
 13  9  1  0
 13 18  1  0
 14  8  1  0
 14  3  1  0
 15 21  1  0
 17 21  2  0
 18 16  1  0
 19 23  1  0
 20 24  1  0
 21  2  1  0
 22 20  1  0
 22 14  1  0
 13 23  1  6
  1 25  1  0
  3 26  1  6
  4 27  1  0
  5 28  1  0
  5 29  1  0
  7 30  1  0
  7 31  1  0
  8 32  1  6
  9 33  1  0
  9 34  1  0
 12 35  1  0
 14 36  1  1
 16 37  1  0
 16 38  1  0
 18 39  1  1
 20 40  1  0
 20 41  1  0
 22 42  1  0
 22 43  1  0
 23 44  1  0
 24 45  1  0
 24 46  1  0
M  CHG  2  15  -1  21   1
M  END
>  <mol_id>  (41) 
2026-09-18-6fnk-s0-n100-refligand-0042

>  <rmsd_to_ref>  (41) 


$$$$

     RDKit          3D

 65 69  0  0  0  0  0  0  0  0999 V2000
    3.1923   19.8431   37.5314 C   0  0  0  0  0  0  0  0  0  0  0  0
   -1.3670   16.5690   47.0299 C   0  0  0  0  0  0  0  0  0  0  0  0
   -0.2626   17.5115   45.3841 C   0  0  0  0  0  0  0  0  0  0  0  0
    0.2535   18.0502   44.3382 O   0  0  0  0  0  0  0  0  0  0  0  0
    2.5172   21.6167   39.3389 C   0  0  0  0  0  0  0  0  0  0  0  0
    2.1470   17.6123   41.8211 O   0  0  0  0  0  0  0  0  0  0  0  0
    1.9100   20.4821   39.3245 C   0  0  0  0  0  0  0  0  0  0  0  0
   -0.3606   21.2836   44.4485 N   0  0  0  0  0  0  0  0  0  0  0  0
    2.4413   15.7531   38.6509 C   0  0  0  0  0  0  0  0  0  0  0  0
    1.1235   20.9401   42.3706 C   0  0  0  0  0  0  0  0  0  0  0  0
    1.1127   20.1013   40.2274 O   0  0  0  0  0  0  0  0  0  0  0  0
    3.6021   21.0769   37.3615 C   0  0  0  0  0  0  0  0  0  0  0  0
    2.2989   19.4209   38.4731 C   0  0  0  0  0  0  0  0  0  0  0  0
    1.8896   18.0851   38.9808 C   0  0  2  0  0  0  0  0  0  0  0  0
   -1.4764   17.9064   47.2638 N   0  0  0  0  0  0  0  0  0  0  0  0
   -2.0499   15.6116   47.8333 C   0  0  0  0  0  0  0  0  0  0  0  0
    1.0578   15.4401   44.3465 C   0  0  0  0  0  0  0  0  0  0  0  0
    3.0298   15.3303   40.9363 C   0  0  0  0  0  0  0  0  0  0  0  0
   -0.3379   14.9537   45.4509 C   0  0  0  0  0  0  0  0  0  0  0  0
   -1.0017   13.8967   46.1320 C   0  0  0  0  0  0  0  0  0  0  0  0
   -1.8108   14.2382   47.2858 C   0  0  0  0  0  0  0  0  0  0  0  0
   -2.8614   16.0443   49.0402 C   0  0  0  0  0  0  0  0  0  0  0  0
    2.0587   15.9789   39.9813 C   0  0  0  0  0  0  0  0  0  0  0  0
    2.1676   17.5408   40.4582 C   0  0  2  0  0  0  0  0  0  0  0  0
   -1.0702   19.7401   45.7855 C   0  0  0  0  0  0  0  0  0  0  0  0
    1.4743   14.6961   40.8338 C   0  0  0  0  0  0  0  0  0  0  0  0
    2.7855   17.2944   38.2671 O   0  0  0  0  0  0  0  0  0  0  0  0
    0.0232   20.4664   45.4071 C   0  0  0  0  0  0  0  0  0  0  0  0
   -0.8559   18.3904   46.1538 N   0  0  0  0  0  0  0  0  0  0  0  0
    3.4011   21.9225   38.4140 C   0  0  0  0  0  0  0  0  0  0  0  0
    1.4386   19.9066   41.6038 C   0  0  0  0  0  0  0  0  0  0  0  0
   -0.5878   16.2832   45.8747 C   0  0  0  0  0  0  0  0  0  0  0  0
    1.8130   15.4618   43.9136 N   0  0  0  0  0  0  0  0  0  0  0  0
   -0.2976   20.9848   43.0397 C   0  0  0  0  0  0  0  0  0  0  0  0
    3.6053   19.0804   36.8549 H   0  0  0  0  0  0  0  0  0  0  0  0
    2.2938   22.3411   40.1360 H   0  0  0  0  0  0  0  0  0  0  0  0
    2.6885   18.3856   42.1192 H   0  0  0  0  0  0  0  0  0  0  0  0
   -1.3508   21.4904   44.6425 H   0  0  0  0  0  0  0  0  0  0  0  0
    0.3655   22.0107   44.5191 H   0  0  0  0  0  0  0  0  0  0  0  0
    3.3199   15.0957   38.5734 H   0  0  0  0  0  0  0  0  0  0  0  0
    1.7061   15.2431   38.0111 H   0  0  0  0  0  0  0  0  0  0  0  0
    1.2161   21.8431   41.7492 H   0  0  0  0  0  0  0  0  0  0  0  0
    1.8146   20.8580   43.2225 H   0  0  0  0  0  0  0  0  0  0  0  0
    4.0788   21.4102   36.4278 H   0  0  0  0  0  0  0  0  0  0  0  0
    0.7918   18.0950   38.9109 H   0  0  0  0  0  0  0  0  0  0  0  0
   -1.9058   18.4077   48.0545 H   0  0  0  0  0  0  0  0  0  0  0  0
    3.8799   14.7547   40.5414 H   0  0  0  0  0  0  0  0  0  0  0  0
    3.6542   15.6997   41.7632 H   0  0  0  0  0  0  0  0  0  0  0  0
   -0.9047   12.8542   45.7947 H   0  0  0  0  0  0  0  0  0  0  0  0
   -2.2982   13.4044   47.8122 H   0  0  0  0  0  0  0  0  0  0  0  0
   -2.2330   15.9941   49.9417 H   0  0  0  0  0  0  0  0  0  0  0  0
   -3.2125   17.0766   48.8949 H   0  0  0  0  0  0  0  0  0  0  0  0
   -3.7269   15.3759   49.1588 H   0  0  0  0  0  0  0  0  0  0  0  0
    2.5972   18.4854   40.8231 H   0  0  0  0  0  0  0  0  0  0  0  0
   -1.7778   19.7447   44.9433 H   0  0  0  0  0  0  0  0  0  0  0  0
   -1.4315   20.2295   46.7019 H   0  0  0  0  0  0  0  0  0  0  0  0
    0.7492   14.8405   41.6482 H   0  0  0  0  0  0  0  0  0  0  0  0
    1.0062   13.7240   40.6195 H   0  0  0  0  0  0  0  0  0  0  0  0
    0.8110   19.7946   45.0357 H   0  0  0  0  0  0  0  0  0  0  0  0
    0.4293   21.0307   46.2596 H   0  0  0  0  0  0  0  0  0  0  0  0
    3.9765   22.8570   38.4885 H   0  0  0  0  0  0  0  0  0  0  0  0
    0.8950   19.0229   41.9692 H   0  0  0  0  0  0  0  0  0  0  0  0
    2.5294   19.7784   41.6640 H   0  0  0  0  0  0  0  0  0  0  0  0
   -0.8855   21.7513   42.5136 H   0  0  0  0  0  0  0  0  0  0  0  0
   -0.6803   19.9571   42.9537 H   0  0  0  0  0  0  0  0  0  0  0  0
  1 12  1  0
  1 13  2  0
  2 15  1  0
  2 16  2  0
  3 32  1  0
  3 29  1  0
  4  3  2  0
  7  5  2  0
  7 11  1  0
  8 28  1  0
  9 23  1  0
 10 34  1  0
 11 31  1  0
 12 30  2  0
 13  7  1  0
 14 13  1  0
 14 24  1  0
 16 22  1  0
 17 19  1  0
 19 20  1  0
 19 32  2  0
 20 21  2  0
 21 16  1  0
 23 26  1  0
 23 24  1  0
 23 18  1  0
 24  6  1  0
 25 29  1  0
 26 18  1  0
 27  9  1  0
 27 14  1  0
 28 25  1  0
 29 15  1  0
 30  5  1  0
 31 10  1  0
 32  2  1  0
 33 17  3  0
 34  8  1  0
  1 35  1  0
  5 36  1  0
  6 37  1  0
  8 38  1  0
  8 39  1  0
  9 40  1  0
  9 41  1  0
 10 42  1  0
 10 43  1  0
 12 44  1  0
 14 45  1  6
 15 46  1  0
 18 47  1  0
 18 48  1  0
 20 49  1  0
 21 50  1  0
 22 51  1  0
 22 52  1  0
 22 53  1  0
 24 54  1  6
 25 55  1  0
 25 56  1  0
 26 57  1  0
 26 58  1  0
 28 59  1  0
 28 60  1  0
 30 61  1  0
 31 62  1  0
 31 63  1  0
 34 64  1  0
 34 65  1  0
M  CHG  1   8   1
M  END
>  <mol_id>  (42) 
2026-09-18-6fnk-s0-n100-refligand-0043

>  <rmsd_to_ref>  (42) 


$$$$

     RDKit          3D

 25 25  0  0  0  0  0  0  0  0999 V2000
    2.1276   18.9563   41.4650 C   0  0  0  0  0  0  0  0  0  0  0  0
   -0.5323   20.8355   44.1311 C   0  0  0  0  0  0  0  0  0  0  0  0
    3.0210   19.3956   42.4402 C   0  0  0  0  0  0  0  0  0  0  0  0
   -0.5708   20.0900   45.3165 O   0  0  0  0  0  0  0  0  0  0  0  0
    2.1542   18.4540   42.9338 C   0  0  0  0  0  0  0  0  0  0  0  0
    1.0997   18.9514   43.7865 C   0  0  0  0  0  0  0  0  0  0  0  0
   -0.9962   18.6967   45.0685 C   0  0  0  0  0  0  0  0  0  0  0  0
    0.0275   17.9971   44.1549 C   0  0  0  0  0  0  0  0  0  0  0  0
    2.5337   16.9382   42.9667 C   0  0  0  0  0  0  0  0  0  0  0  0
    1.3178   19.6096   41.1082 H   0  0  0  0  0  0  0  0  0  0  0  0
    2.1868   18.5113   40.4608 H   0  0  0  0  0  0  0  0  0  0  0  0
   -0.6609   21.9027   44.3648 H   0  0  0  0  0  0  0  0  0  0  0  0
    0.4368   20.6832   43.6335 H   0  0  0  0  0  0  0  0  0  0  0  0
   -1.3426   20.5059   43.4642 H   0  0  0  0  0  0  0  0  0  0  0  0
    4.0834   19.1296   42.3378 H   0  0  0  0  0  0  0  0  0  0  0  0
    3.2708   20.4073   42.7925 H   0  0  0  0  0  0  0  0  0  0  0  0
    1.5650   19.3041   44.7187 H   0  0  0  0  0  0  0  0  0  0  0  0
    0.5978   19.7317   43.1955 H   0  0  0  0  0  0  0  0  0  0  0  0
   -1.0606   18.1581   46.0255 H   0  0  0  0  0  0  0  0  0  0  0  0
   -1.9812   18.6979   44.5787 H   0  0  0  0  0  0  0  0  0  0  0  0
   -0.4769   17.6436   43.2435 H   0  0  0  0  0  0  0  0  0  0  0  0
    0.4676   17.1414   44.6878 H   0  0  0  0  0  0  0  0  0  0  0  0
    2.5701   16.5919   44.0101 H   0  0  0  0  0  0  0  0  0  0  0  0
    1.7791   16.3591   42.4143 H   0  0  0  0  0  0  0  0  0  0  0  0
    3.5192   16.7967   42.4989 H   0  0  0  0  0  0  0  0  0  0  0  0
  1  3  1  0
  1  5  1  0
  2  4  1  0
  3  5  1  0
  5  6  1  0
  6  8  1  0
  7  4  1  0
  8  7  1  0
  9  5  1  0
  1 10  1  0
  1 11  1  0
  2 12  1  0
  2 13  1  0
  2 14  1  0
  3 15  1  0
  3 16  1  0
  6 17  1  0
  6 18  1  0
  7 19  1  0
  7 20  1  0
  8 21  1  0
  8 22  1  0
  9 23  1  0
  9 24  1  0
  9 25  1  0
M  END
>  <mol_id>  (43) 
2026-09-18-6fnk-s0-n100-refligand-0044

>  <rmsd_to_ref>  (43) 


$$$$

     RDKit          3D

 57 59  0  0  0  0  0  0  0  0999 V2000
    1.6805   20.9245   42.3839 O   0  0  0  0  0  0  0  0  0  0  0  0
    5.9055   23.4250   38.3201 C   0  0  0  0  0  0  0  0  0  0  0  0
    2.5585   16.3060   41.9677 C   0  0  0  0  0  0  0  0  0  0  0  0
    1.9949   19.4666   40.1116 C   0  0  0  0  0  0  0  0  0  0  0  0
   -0.0723   20.7216   44.5356 C   0  0  0  0  0  0  0  0  0  0  0  0
    5.2790   23.1738   40.3343 C   0  0  0  0  0  0  0  0  0  0  0  0
   -0.1802   17.7130   45.5004 C   0  0  0  0  0  0  0  0  0  0  0  0
   -0.4297   20.6726   45.7360 N   0  0  0  0  0  0  0  0  0  0  0  0
   -0.7263   18.4870   46.4857 C   0  0  0  0  0  0  0  0  0  0  0  0
    4.2662   21.6630   38.7369 O   0  0  0  0  0  0  0  0  0  0  0  0
   -0.1200   21.8385   43.7071 N   0  0  0  0  0  0  0  0  0  0  0  0
    6.6242   24.6788   39.1390 S   0  0  0  0  0  0  0  0  0  0  0  0
    3.1072   17.4791   41.1293 C   0  0  0  0  0  0  0  0  0  0  0  0
   -0.3137   15.9802   45.5451 S   0  0  0  0  0  0  0  0  0  0  0  0
    1.4248   14.9425   43.7943 C   0  0  0  0  0  0  0  0  0  0  0  0
    2.1357   18.4885   41.0948 C   0  0  2  0  0  0  0  0  0  0  0  0
    5.9625   24.2062   40.5424 C   0  0  0  0  0  0  0  0  0  0  0  0
    1.0764   17.0462   43.9664 C   0  0  1  0  0  0  0  0  0  0  0  0
   -0.6852   19.8230   46.6969 C   0  0  0  0  0  0  0  0  0  0  0  0
    0.7344   15.8725   44.2141 C   0  0  0  0  0  0  0  0  0  0  0  0
   -1.4233   17.7549   47.5670 O   0  0  0  0  0  0  0  0  0  0  0  0
    0.3742   19.4267   44.0549 C   0  0  0  0  0  0  0  0  0  0  0  0
    2.7773   20.7926   40.4013 C   0  0  1  0  0  0  0  0  0  0  0  0
    3.8869   20.7105   42.4759 O   0  0  0  0  0  0  0  0  0  0  0  0
    0.9857   17.7177   40.8700 O   0  0  0  0  0  0  0  0  0  0  0  0
    0.4817   18.0650   44.5057 C   0  0  0  0  0  0  0  0  0  0  0  0
    5.2112   22.7043   39.1011 N   0  0  0  0  0  0  0  0  0  0  0  0
    3.0105   20.9191   41.7924 C   0  0  0  0  0  0  0  0  0  0  0  0
    3.9256   21.5001   39.5698 N   0  0  0  0  0  0  0  0  0  0  0  0
    2.1321   17.0030   43.1856 N   0  0  0  0  0  0  0  0  0  0  0  0
    6.6868   22.8036   37.8583 H   0  0  0  0  0  0  0  0  0  0  0  0
    5.2405   23.8466   37.5519 H   0  0  0  0  0  0  0  0  0  0  0  0
    3.3405   15.5624   42.1814 H   0  0  0  0  0  0  0  0  0  0  0  0
    1.7615   15.7310   41.4735 H   0  0  0  0  0  0  0  0  0  0  0  0
    2.3596   19.0528   39.1599 H   0  0  0  0  0  0  0  0  0  0  0  0
    0.9276   19.7316   40.0829 H   0  0  0  0  0  0  0  0  0  0  0  0
    4.7498   22.6726   41.1581 H   0  0  0  0  0  0  0  0  0  0  0  0
    0.2940   21.2564   46.1791 H   0  0  0  0  0  0  0  0  0  0  0  0
   -1.4248   20.7274   45.4757 H   0  0  0  0  0  0  0  0  0  0  0  0
   -0.1330   22.6926   44.2826 H   0  0  0  0  0  0  0  0  0  0  0  0
    0.7092   21.8486   43.0963 H   0  0  0  0  0  0  0  0  0  0  0  0
   -0.9717   21.8010   43.1291 H   0  0  0  0  0  0  0  0  0  0  0  0
    3.3235   17.1361   40.1067 H   0  0  0  0  0  0  0  0  0  0  0  0
    4.0360   17.8625   41.5769 H   0  0  0  0  0  0  0  0  0  0  0  0
    1.1344   13.9028   44.0057 H   0  0  0  0  0  0  0  0  0  0  0  0
    2.3318   15.1518   43.2080 H   0  0  0  0  0  0  0  0  0  0  0  0
    2.3766   19.0893   41.9841 H   0  0  0  0  0  0  0  0  0  0  0  0
    6.0909   24.7063   41.5136 H   0  0  0  0  0  0  0  0  0  0  0  0
    0.4224   17.0502   43.0820 H   0  0  0  0  0  0  0  0  0  0  0  0
   -0.8729   20.2072   47.7104 H   0  0  0  0  0  0  0  0  0  0  0  0
   -1.8419   18.2538   48.3125 H   0  0  0  0  0  0  0  0  0  0  0  0
    0.7469   19.5142   43.0236 H   0  0  0  0  0  0  0  0  0  0  0  0
    2.0223   21.3940   39.8736 H   0  0  0  0  0  0  0  0  0  0  0  0
    0.5710   17.4829   41.7378 H   0  0  0  0  0  0  0  0  0  0  0  0
    4.7513   21.0759   40.0163 H   0  0  0  0  0  0  0  0  0  0  0  0
    2.8778   16.7488   43.8491 H   0  0  0  0  0  0  0  0  0  0  0  0
    1.8696   17.8601   42.6783 H   0  0  0  0  0  0  0  0  0  0  0  0
  2 27  1  0
  2 12  1  0
  3 30  1  0
  4 16  1  0
  5  8  1  0
  6 17  2  0
  7  9  1  0
  8 19  1  0
  9 19  2  0
  9 21  1  0
 10 27  1  0
 10 29  1  0
 11  5  1  0
 12 17  1  0
 13 16  1  0
 13  3  1  0
 14  7  1  0
 15 20  2  3
 16 25  1  0
 18 30  1  0
 18 20  1  0
 18 26  1  0
 20 14  1  0
 22 26  1  0
 22  5  2  0
 23  4  1  0
 23 28  1  0
 26  7  2  0
 27  6  1  0
 28  1  2  0
 28 24  1  0
 29 23  1  0
  2 31  1  0
  2 32  1  0
  3 33  1  0
  3 34  1  0
  4 35  1  0
  4 36  1  0
  6 37  1  0
  8 38  1  0
  8 39  1  0
 11 40  1  0
 11 41  1  0
 11 42  1  0
 13 43  1  0
 13 44  1  0
 15 45  1  0
 15 46  1  0
 16 47  1  1
 17 48  1  0
 18 49  1  6
 19 50  1  0
 21 51  1  0
 22 52  1  0
 23 53  1  1
 25 54  1  0
 29 55  1  0
 30 56  1  0
 30 57  1  0
M  CHG  4   8   1  11   1  24  -1  30   1
M  END
>  <mol_id>  (44) 
2026-09-18-6fnk-s0-n100-refligand-0045

>  <rmsd_to_ref>  (44) 


$$$$

     RDKit          3D

 12 12  0  0  0  0  0  0  0  0999 V2000
    1.6651   18.8087   43.6292 C   0  0  0  0  0  0  0  0  0  0  0  0
    1.5988   19.6588   42.9150 N   0  0  0  0  0  0  0  0  0  0  0  0
   -0.9373   19.8543   46.0988 O   0  0  0  0  0  0  0  0  0  0  0  0
    0.8492   20.8041   43.0496 C   0  0  0  0  0  0  0  0  0  0  0  0
    0.7493   18.7287   44.9779 C   0  0  0  0  0  0  0  0  0  0  0  0
   -0.0495   20.8560   44.1410 C   0  0  0  0  0  0  0  0  0  0  0  0
   -0.0883   19.8094   45.0566 C   0  0  0  0  0  0  0  0  0  0  0  0
    2.3729   17.9932   43.4193 H   0  0  0  0  0  0  0  0  0  0  0  0
   -1.5612   20.6167   46.1965 H   0  0  0  0  0  0  0  0  0  0  0  0
    0.9440   21.6406   42.3416 H   0  0  0  0  0  0  0  0  0  0  0  0
    0.7981   17.9188   45.7208 H   0  0  0  0  0  0  0  0  0  0  0  0
   -0.7162   21.7221   44.2653 H   0  0  0  0  0  0  0  0  0  0  0  0
  1  5  1  0
  2  4  1  0
  2  1  2  0
  4  6  2  0
  5  7  2  0
  6  7  1  0
  7  3  1  0
  1  8  1  0
  3  9  1  0
  4 10  1  0
  5 11  1  0
  6 12  1  0
M  END
>  <mol_id>  (45) 
2026-09-18-6fnk-s0-n100-refligand-0046

>  <rmsd_to_ref>  (45) 


$$$$

     RDKit          3D

 21 21  0  0  0  0  0  0  0  0999 V2000
   -0.2659   17.4767   44.7092 C   0  0  0  0  0  0  0  0  0  0  0  0
    1.8714   20.1421   42.5782 N   0  0  0  0  0  0  0  0  0  0  0  0
    1.2438   17.7787   42.9930 C   0  0  0  0  0  0  0  0  0  0  0  0
    1.0140   19.2482   43.1305 C   0  0  0  0  0  0  0  0  0  0  0  0
    3.5466   17.4409   41.8604 C   0  0  0  0  0  0  0  0  0  0  0  0
    0.5887   16.8822   43.7907 C   0  0  0  0  0  0  0  0  0  0  0  0
    2.0792   17.3879   41.9796 O   0  0  0  0  0  0  0  0  0  0  0  0
   -0.7462   20.9560   44.1148 C   0  0  0  0  0  0  0  0  0  0  0  0
   -0.7182   18.6578   44.7756 C   0  0  0  0  0  0  0  0  0  0  0  0
   -0.1168   19.5962   43.9933 C   0  0  0  0  0  0  0  0  0  0  0  0
   -0.6074   16.8100   45.5148 H   0  0  0  0  0  0  0  0  0  0  0  0
    1.6993   21.1523   42.6818 H   0  0  0  0  0  0  0  0  0  0  0  0
    2.6946   19.8109   42.0553 H   0  0  0  0  0  0  0  0  0  0  0  0
    4.0036   16.9880   42.7526 H   0  0  0  0  0  0  0  0  0  0  0  0
    3.8620   16.8857   40.9648 H   0  0  0  0  0  0  0  0  0  0  0  0
    3.8700   18.4888   41.7748 H   0  0  0  0  0  0  0  0  0  0  0  0
    0.7257   15.7936   43.7123 H   0  0  0  0  0  0  0  0  0  0  0  0
   -1.3539   20.9983   45.0307 H   0  0  0  0  0  0  0  0  0  0  0  0
    0.0420   21.7219   44.1619 H   0  0  0  0  0  0  0  0  0  0  0  0
   -1.3872   21.1429   43.2405 H   0  0  0  0  0  0  0  0  0  0  0  0
   -1.5598   18.9143   45.4359 H   0  0  0  0  0  0  0  0  0  0  0  0
  2  4  1  0
  3  6  1  0
  4  3  2  0
  4 10  1  0
  5  7  1  0
  6  1  2  0
  7  3  1  0
  8 10  1  0
  9  1  1  0
 10  9  2  0
  1 11  1  0
  2 12  1  0
  2 13  1  0
  5 14  1  0
  5 15  1  0
  5 16  1  0
  6 17  1  0
  8 18  1  0
  8 19  1  0
  8 20  1  0
  9 21  1  0
M  END
>  <mol_id>  (46) 
2026-09-18-6fnk-s0-n100-refligand-0047

>  <rmsd_to_ref>  (46) 


$$$$

     RDKit          3D

 22 23  0  0  0  0  0  0  0  0999 V2000
    0.3203   20.7903   44.3410 C   0  0  0  0  0  0  0  0  0  0  0  0
    1.2605   19.9600   43.1975 C   0  0  1  0  0  0  0  0  0  0  0  0
    1.1108   21.1608   43.2706 N   0  0  0  0  0  0  0  0  0  0  0  0
    0.0263   16.7747   44.1392 C   0  0  0  0  0  0  0  0  0  0  0  0
    0.8326   17.5556   43.2408 C   0  0  0  0  0  0  0  0  0  0  0  0
   -0.6245   17.3342   45.1450 C   0  0  0  0  0  0  0  0  0  0  0  0
    0.8627   18.8833   43.4232 C   0  0  0  0  0  0  0  0  0  0  0  0
    0.1421   19.4591   44.5110 C   0  0  0  0  0  0  0  0  0  0  0  0
   -0.6709   18.7158   45.2683 C   0  0  0  0  0  0  0  0  0  0  0  0
    0.0216   21.8625   45.0605 N   0  0  0  0  0  0  0  0  0  0  0  0
    1.9735   19.7875   41.7081 C   0  0  0  0  0  0  0  0  0  0  0  0
   -0.1883   15.2268   44.1329 O   0  0  0  0  0  0  0  0  0  0  0  0
    1.3184   20.0177   44.2945 H   0  0  0  0  0  0  0  0  0  0  0  0
    1.4158   22.0163   42.7849 H   0  0  0  0  0  0  0  0  0  0  0  0
    1.4054   17.0796   42.4314 H   0  0  0  0  0  0  0  0  0  0  0  0
   -1.1319   16.7013   45.8880 H   0  0  0  0  0  0  0  0  0  0  0  0
   -1.3648   19.1911   45.9772 H   0  0  0  0  0  0  0  0  0  0  0  0
    0.2653   22.8006   44.7121 H   0  0  0  0  0  0  0  0  0  0  0  0
    2.7665   19.0274   41.7671 H   0  0  0  0  0  0  0  0  0  0  0  0
    1.2175   19.4725   40.9739 H   0  0  0  0  0  0  0  0  0  0  0  0
    2.4091   20.7484   41.3966 H   0  0  0  0  0  0  0  0  0  0  0  0
    0.2398   14.6706   43.4346 H   0  0  0  0  0  0  0  0  0  0  0  0
  1  8  1  0
  2 11  1  0
  2  7  1  0
  3  2  1  0
  3  1  1  0
  4  6  1  0
  4 12  1  0
  5  4  2  0
  7  8  2  0
  7  5  1  0
  8  9  1  0
  9  6  2  0
 10  1  2  3
  2 13  1  1
  3 14  1  0
  5 15  1  0
  6 16  1  0
  9 17  1  0
 10 18  1  0
 11 19  1  0
 11 20  1  0
 11 21  1  0
 12 22  1  0
M  END
>  <mol_id>  (47) 
2026-09-18-6fnk-s0-n100-refligand-0048

>  <rmsd_to_ref>  (47) 


$$$$

     RDKit          3D

 39 41  0  0  0  0  0  0  0  0999 V2000
    2.1498   16.7726   42.4057 O   0  0  0  0  0  0  0  0  0  0  0  0
    0.1776   21.4965   42.3720 C   0  0  0  0  0  0  0  0  0  0  0  0
    2.7742   15.2585   44.1249 C   0  0  0  0  0  0  0  0  0  0  0  0
    0.6199   20.2820   42.8516 C   0  0  0  0  0  0  0  0  0  0  0  0
    1.4091   19.4276   42.0979 C   0  0  0  0  0  0  0  0  0  0  0  0
    0.0379   19.7511   46.5134 O   0  0  0  0  0  0  0  0  0  0  0  0
    1.7074   15.0757   45.1640 C   0  0  0  0  0  0  0  0  0  0  0  0
    0.3987   19.6203   44.2137 C   0  0  2  0  0  0  0  0  0  0  0  0
    1.9905   19.8601   40.9312 C   0  0  0  0  0  0  0  0  0  0  0  0
    0.9439   18.1695   43.8969 C   0  0  0  0  0  0  0  0  0  0  0  0
    3.3323   14.8406   41.6532 C   0  0  0  0  0  0  0  0  0  0  0  0
    0.6683   21.9740   41.1790 C   0  0  0  0  0  0  0  0  0  0  0  0
    1.3286   17.9889   42.5021 C   0  0  0  0  0  0  0  0  0  0  0  0
    1.6405   21.1541   40.4224 C   0  0  0  0  0  0  0  0  0  0  0  0
    0.5032   16.0348   45.0432 C   0  0  2  0  0  0  0  0  0  0  0  0
   -0.4091   19.4986   45.3870 C   0  0  0  0  0  0  0  0  0  0  0  0
    0.9176   17.3648   45.1359 N   0  0  0  0  0  0  0  0  0  0  0  0
   -1.6080   19.0434   45.0715 O   0  0  0  0  0  0  0  0  0  0  0  0
    2.3217   15.3756   42.6520 C   0  0  2  0  0  0  0  0  0  0  0  0
   -0.6244   15.6060   46.0001 C   0  0  0  0  0  0  0  0  0  0  0  0
   -0.5625   22.0796   42.9395 H   0  0  0  0  0  0  0  0  0  0  0  0
    3.3239   16.1778   44.3750 H   0  0  0  0  0  0  0  0  0  0  0  0
    3.3656   14.3318   44.1640 H   0  0  0  0  0  0  0  0  0  0  0  0
    1.3309   14.0450   45.0880 H   0  0  0  0  0  0  0  0  0  0  0  0
    2.1809   15.2994   46.1314 H   0  0  0  0  0  0  0  0  0  0  0  0
    0.5303   20.6075   44.6809 H   0  0  0  0  0  0  0  0  0  0  0  0
    2.7121   19.2249   40.3965 H   0  0  0  0  0  0  0  0  0  0  0  0
    4.2948   14.6739   42.1590 H   0  0  0  0  0  0  0  0  0  0  0  0
    2.9679   13.8902   41.2362 H   0  0  0  0  0  0  0  0  0  0  0  0
    3.4665   15.5700   40.8409 H   0  0  0  0  0  0  0  0  0  0  0  0
    0.3426   22.9512   40.7929 H   0  0  0  0  0  0  0  0  0  0  0  0
    2.0854   21.5295   39.4891 H   0  0  0  0  0  0  0  0  0  0  0  0
    0.0531   15.9655   44.0419 H   0  0  0  0  0  0  0  0  0  0  0  0
    1.8733   17.3621   45.5201 H   0  0  0  0  0  0  0  0  0  0  0  0
    0.2021   17.8176   45.7224 H   0  0  0  0  0  0  0  0  0  0  0  0
    1.4086   14.7771   42.5180 H   0  0  0  0  0  0  0  0  0  0  0  0
   -0.3126   15.7879   47.0392 H   0  0  0  0  0  0  0  0  0  0  0  0
   -1.5316   16.1887   45.7822 H   0  0  0  0  0  0  0  0  0  0  0  0
   -0.8346   14.5350   45.8625 H   0  0  0  0  0  0  0  0  0  0  0  0
  1 19  1  0
  1 13  1  0
  2  4  2  0
  3  7  1  0
  4  8  1  0
  5 13  1  0
  5  4  1  0
  8 16  1  0
  9  5  2  0
 10  8  1  0
 10 17  1  0
 12  2  1  0
 13 10  2  0
 14  9  1  0
 14 12  2  0
 15  7  1  0
 15 17  1  0
 15 20  1  0
 16  6  1  0
 18 16  2  0
 19 11  1  0
 19  3  1  0
  2 21  1  0
  3 22  1  0
  3 23  1  0
  7 24  1  0
  7 25  1  0
  8 26  1  1
  9 27  1  0
 11 28  1  0
 11 29  1  0
 11 30  1  0
 12 31  1  0
 14 32  1  0
 15 33  1  6
 17 34  1  0
 17 35  1  0
 19 36  1  1
 20 37  1  0
 20 38  1  0
 20 39  1  0
M  CHG  2   6  -1  17   1
M  END
>  <mol_id>  (48) 
2026-09-18-6fnk-s0-n100-refligand-0049

>  <rmsd_to_ref>  (48) 


$$$$

     RDKit          3D

 21 22  0  0  0  0  0  0  0  0999 V2000
    0.3299   18.0004   43.1297 C   0  0  0  0  0  0  0  0  0  0  0  0
   -0.0060   19.2174   43.8394 C   0  0  0  0  0  0  0  0  0  0  0  0
    1.2299   20.4920   42.2324 C   0  0  0  0  0  0  0  0  0  0  0  0
   -0.5887   20.3966   45.9060 O   0  0  0  0  0  0  0  0  0  0  0  0
    1.7845   19.2603   41.7902 C   0  0  0  0  0  0  0  0  0  0  0  0
    1.1403   17.9872   42.0238 C   0  0  0  0  0  0  0  0  0  0  0  0
   -0.3004   16.7679   43.4253 C   0  0  0  0  0  0  0  0  0  0  0  0
    1.5915   21.5516   41.5722 O   0  0  0  0  0  0  0  0  0  0  0  0
    0.3626   16.2121   42.1934 C   0  0  0  0  0  0  0  0  0  0  0  0
    0.4248   20.4800   43.3689 C   0  0  0  0  0  0  0  0  0  0  0  0
   -0.3170   19.1375   45.3399 C   0  0  0  0  0  0  0  0  0  0  0  0
   -0.5092   20.3396   46.8911 H   0  0  0  0  0  0  0  0  0  0  0  0
    2.7419   19.2764   41.2487 H   0  0  0  0  0  0  0  0  0  0  0  0
    0.0205   16.3027   44.3690 H   0  0  0  0  0  0  0  0  0  0  0  0
   -1.3868   16.6954   43.5814 H   0  0  0  0  0  0  0  0  0  0  0  0
    2.1680   21.4636   40.7722 H   0  0  0  0  0  0  0  0  0  0  0  0
   -0.3223   15.9210   41.3834 H   0  0  0  0  0  0  0  0  0  0  0  0
    0.9634   15.2907   42.1982 H   0  0  0  0  0  0  0  0  0  0  0  0
    0.1367   21.4114   43.8783 H   0  0  0  0  0  0  0  0  0  0  0  0
   -1.1949   18.4904   45.4834 H   0  0  0  0  0  0  0  0  0  0  0  0
    0.5735   18.7324   45.8427 H   0  0  0  0  0  0  0  0  0  0  0  0
  1  7  1  0
  1  2  2  0
  2 11  1  0
  3 10  2  0
  5  6  2  0
  5  3  1  0
  6  9  1  0
  6  1  1  0
  8  3  1  0
  9  7  1  0
 10  2  1  0
 11  4  1  0
  4 12  1  0
  5 13  1  0
  7 14  1  0
  7 15  1  0
  8 16  1  0
  9 17  1  0
  9 18  1  0
 10 19  1  0
 11 20  1  0
 11 21  1  0
M  END
>  <mol_id>  (49) 
2026-09-18-6fnk-s0-n100-refligand-0050

>  <rmsd_to_ref>  (49) 


$$$$

     RDKit          3D

 19 20  0  0  0  0  0  0  0  0999 V2000
   -0.2754   18.4915   45.2059 N   0  0  0  0  0  0  0  0  0  0  0  0
    1.1334   17.0398   43.9733 C   0  0  0  0  0  0  0  0  0  0  0  0
    0.1667   19.5883   44.4366 C   0  0  0  0  0  0  0  0  0  0  0  0
    1.4719   18.0541   43.2084 O   0  0  0  0  0  0  0  0  0  0  0  0
   -0.1879   17.2508   44.4542 C   0  0  0  0  0  0  0  0  0  0  0  0
    0.0869   21.8532   43.9459 C   0  0  0  0  0  0  0  0  0  0  0  0
   -0.2801   20.8405   44.8615 C   0  0  0  0  0  0  0  0  0  0  0  0
    0.8375   21.4815   42.7575 C   0  0  0  0  0  0  0  0  0  0  0  0
    0.8826   19.3071   43.3735 C   0  0  0  0  0  0  0  0  0  0  0  0
    1.1399   20.2473   42.4798 C   0  0  0  0  0  0  0  0  0  0  0  0
   -0.6163   18.5610   46.1753 H   0  0  0  0  0  0  0  0  0  0  0  0
    1.8290   16.9684   44.8224 H   0  0  0  0  0  0  0  0  0  0  0  0
    1.1765   16.1048   43.3956 H   0  0  0  0  0  0  0  0  0  0  0  0
   -0.8787   17.2984   43.5994 H   0  0  0  0  0  0  0  0  0  0  0  0
   -0.4563   16.4173   45.1199 H   0  0  0  0  0  0  0  0  0  0  0  0
   -0.1900   22.9019   44.1290 H   0  0  0  0  0  0  0  0  0  0  0  0
   -0.8447   21.0166   45.7889 H   0  0  0  0  0  0  0  0  0  0  0  0
    1.1619   22.2739   42.0671 H   0  0  0  0  0  0  0  0  0  0  0  0
    1.6028   19.9895   41.5159 H   0  0  0  0  0  0  0  0  0  0  0  0
  2  5  1  0
  3  7  2  0
  3  1  1  0
  4  2  1  0
  5  1  1  0
  6  7  1  0
  8  6  2  0
  9  4  1  0
  9  3  1  0
 10  8  1  0
 10  9  2  0
  1 11  1  0
  2 12  1  0
  2 13  1  0
  5 14  1  0
  5 15  1  0
  6 16  1  0
  7 17  1  0
  8 18  1  0
 10 19  1  0
M  END
>  <mol_id>  (50) 
2026-09-18-6fnk-s0-n100-refligand-0051

>  <rmsd_to_ref>  (50) 


$$$$

     RDKit          3D

 17 17  0  0  0  0  0  0  0  0999 V2000
   -0.9692   20.3064   46.0675 O   0  0  0  0  0  0  0  0  0  0  0  0
    0.8033   18.5564   45.9490 O   0  0  0  0  0  0  0  0  0  0  0  0
    0.5254   18.3259   43.7739 C   0  0  2  0  0  0  0  0  0  0  0  0
    0.4639   20.8393   44.2660 C   0  0  0  0  0  0  0  0  0  0  0  0
    0.5795   19.0467   45.3743 N   0  0  0  0  0  0  0  0  0  0  0  0
   -0.1590   20.2560   45.1875 C   0  0  0  0  0  0  0  0  0  0  0  0
    1.3948   17.1941   43.5376 N   0  0  0  0  0  0  0  0  0  0  0  0
    1.0959   20.0311   43.2771 C   0  0  0  0  0  0  0  0  0  0  0  0
    0.1095   18.5368   46.6550 H   0  0  0  0  0  0  0  0  0  0  0  0
   -0.3447   17.8228   43.3270 H   0  0  0  0  0  0  0  0  0  0  0  0
   -0.2534   21.4920   43.7470 H   0  0  0  0  0  0  0  0  0  0  0  0
    1.2924   21.3543   44.7741 H   0  0  0  0  0  0  0  0  0  0  0  0
    1.3713   16.5667   44.3541 H   0  0  0  0  0  0  0  0  0  0  0  0
    1.0741   16.6833   42.7027 H   0  0  0  0  0  0  0  0  0  0  0  0
    2.3581   17.5266   43.3877 H   0  0  0  0  0  0  0  0  0  0  0  0
    0.7519   20.2914   42.2651 H   0  0  0  0  0  0  0  0  0  0  0  0
    2.1892   20.1448   43.2355 H   0  0  0  0  0  0  0  0  0  0  0  0
  3  7  1  0
  3  5  1  0
  4  6  1  0
  5  2  1  0
  6  5  1  0
  6  1  2  0
  8  4  1  0
  8  3  1  0
  2  9  1  0
  3 10  1  6
  4 11  1  0
  4 12  1  0
  7 13  1  0
  7 14  1  0
  7 15  1  0
  8 16  1  0
  8 17  1  0
M  CHG  1   7   1
M  END
>  <mol_id>  (51) 
2026-09-18-6fnk-s0-n100-refligand-0052

>  <rmsd_to_ref>  (51) 


$$$$

     RDKit          3D

 36 39  0  0  0  0  0  0  0  0999 V2000
    2.3260   16.3911   42.1252 C   0  0  0  0  0  0  0  0  0  0  0  0
   -0.5462   18.0660   45.0416 C   0  0  0  0  0  0  0  0  0  0  0  0
    2.6003   20.1598   38.6818 C   0  0  0  0  0  0  0  0  0  0  0  0
    1.1563   14.2259   42.3739 S   0  0  0  0  0  0  0  0  0  0  0  0
    1.2029   15.8234   42.8254 C   0  0  0  0  0  0  0  0  0  0  0  0
    0.9304   18.8791   43.3089 C   0  0  2  0  0  0  0  0  0  0  0  0
    2.3694   22.2063   37.5874 F   0  0  0  0  0  0  0  0  0  0  0  0
    2.6159   14.2948   41.4144 C   0  0  0  0  0  0  0  0  0  0  0  0
    2.3766   21.4217   41.1380 C   0  0  0  0  0  0  0  0  0  0  0  0
    2.4245   20.0353   41.0135 C   0  0  0  0  0  0  0  0  0  0  0  0
   -0.8369   17.0651   45.8673 N   0  0  0  0  0  0  0  0  0  0  0  0
    0.2057   17.7253   43.9638 C   0  0  1  0  0  0  0  0  0  0  0  0
   -0.9583   19.3255   45.2466 N   0  0  0  0  0  0  0  0  0  0  0  0
    0.3861   19.9295   43.4179 N   0  0  0  0  0  0  0  0  0  0  0  0
    2.9706   19.5399   43.1558 O   0  0  0  0  0  0  0  0  0  0  0  0
    0.2995   16.3648   43.6490 N   0  0  0  0  0  0  0  0  0  0  0  0
    2.4782   22.1334   39.9612 C   0  0  0  0  0  0  0  0  0  0  0  0
    2.6370   17.6265   41.8742 N   0  0  0  0  0  0  0  0  0  0  0  0
    2.5115   21.5273   38.7297 C   0  0  0  0  0  0  0  0  0  0  0  0
    2.1765   18.9904   42.2561 C   0  0  1  0  0  0  0  0  0  0  0  0
    2.6452   19.4206   39.8834 C   0  0  0  0  0  0  0  0  0  0  0  0
    3.2169   15.3642   41.6127 N   0  0  0  0  0  0  0  0  0  0  0  0
   -0.4750   20.0950   44.3832 C   0  0  0  0  0  0  0  0  0  0  0  0
    2.6363   19.6417   37.7121 H   0  0  0  0  0  0  0  0  0  0  0  0
    1.6100   18.1473   43.7701 H   0  0  0  0  0  0  0  0  0  0  0  0
    2.3526   14.2198   40.3491 H   0  0  0  0  0  0  0  0  0  0  0  0
    3.2711   13.4597   41.7030 H   0  0  0  0  0  0  0  0  0  0  0  0
    2.2647   21.9175   42.1135 H   0  0  0  0  0  0  0  0  0  0  0  0
   -1.4037   17.2403   46.7093 H   0  0  0  0  0  0  0  0  0  0  0  0
   -0.6190   17.8350   43.2443 H   0  0  0  0  0  0  0  0  0  0  0  0
   -1.5857   19.6200   46.0086 H   0  0  0  0  0  0  0  0  0  0  0  0
    2.7487   19.1846   44.0528 H   0  0  0  0  0  0  0  0  0  0  0  0
    2.5349   23.2309   40.0111 H   0  0  0  0  0  0  0  0  0  0  0  0
    2.8629   18.3424   39.8677 H   0  0  0  0  0  0  0  0  0  0  0  0
    4.2218   15.5051   41.4358 H   0  0  0  0  0  0  0  0  0  0  0  0
   -0.8565   21.1243   44.4547 H   0  0  0  0  0  0  0  0  0  0  0  0
  1  5  1  0
  2 11  2  3
  3 21  2  0
  4  5  1  0
  5 16  2  0
  6 14  1  0
  6 12  1  0
  7 19  1  0
  8 22  1  0
  8  4  1  0
  9 10  2  0
 10 20  1  0
 12 16  1  0
 12  2  1  0
 13  2  1  0
 14 23  2  0
 17  9  1  0
 18 20  1  0
 18  1  2  0
 19  3  1  0
 19 17  2  0
 20 15  1  1
 20  6  1  0
 21 10  1  0
 22  1  1  0
 23 13  1  0
  3 24  1  0
  6 25  1  1
  8 26  1  0
  8 27  1  0
  9 28  1  0
 11 29  1  0
 12 30  1  6
 13 31  1  0
 15 32  1  0
 17 33  1  0
 21 34  1  0
 22 35  1  0
 23 36  1  0
M  END
>  <mol_id>  (52) 
2026-09-18-6fnk-s0-n100-refligand-0053

>  <rmsd_to_ref>  (52) 


$$$$

     RDKit          3D

 21 21  0  0  0  0  0  0  0  0999 V2000
   -0.0536   16.1789   44.3202 C   0  0  0  0  0  0  0  0  0  0  0  0
   -0.3840   20.9345   44.6562 C   0  0  0  0  0  0  0  0  0  0  0  0
    2.8499   20.7750   43.0257 O   0  0  0  0  0  0  0  0  0  0  0  0
    0.1635   18.6441   44.3122 C   0  0  0  0  0  0  0  0  0  0  0  0
   -0.4444   15.7249   42.2765 O   0  0  0  0  0  0  0  0  0  0  0  0
    0.0389   15.3812   43.2022 C   0  0  0  0  0  0  0  0  0  0  0  0
    0.3417   14.0682   43.3330 O   0  0  0  0  0  0  0  0  0  0  0  0
   -0.1956   17.3626   44.6111 C   0  0  0  0  0  0  0  0  0  0  0  0
    0.8357   21.3317   44.1194 C   0  0  0  0  0  0  0  0  0  0  0  0
    1.7304   20.3603   43.6328 C   0  0  0  0  0  0  0  0  0  0  0  0
    1.3281   18.9662   43.7251 C   0  0  0  0  0  0  0  0  0  0  0  0
   -0.6869   19.5889   44.7037 C   0  0  0  0  0  0  0  0  0  0  0  0
    0.8824   15.9342   44.8435 H   0  0  0  0  0  0  0  0  0  0  0  0
   -1.1239   15.9621   44.4527 H   0  0  0  0  0  0  0  0  0  0  0  0
   -1.0964   21.6812   45.0370 H   0  0  0  0  0  0  0  0  0  0  0  0
    3.0687   21.7401   42.9964 H   0  0  0  0  0  0  0  0  0  0  0  0
   -1.2888   17.4481   44.5245 H   0  0  0  0  0  0  0  0  0  0  0  0
    0.6327   17.2916   45.3314 H   0  0  0  0  0  0  0  0  0  0  0  0
    1.0997   22.3986   44.0755 H   0  0  0  0  0  0  0  0  0  0  0  0
    1.9757   18.1772   43.3151 H   0  0  0  0  0  0  0  0  0  0  0  0
   -1.6742   19.2847   45.0817 H   0  0  0  0  0  0  0  0  0  0  0  0
  1  8  1  0
  2 12  1  0
  3 10  1  0
  4 12  2  0
  4  8  1  0
  5  6  2  0
  6  7  1  0
  6  1  1  0
  9  2  2  0
 10 11  2  0
 10  9  1  0
 11  4  1  0
  1 13  1  0
  1 14  1  0
  2 15  1  0
  3 16  1  0
  8 17  1  0
  8 18  1  0
  9 19  1  0
 11 20  1  0
 12 21  1  0
M  CHG  1   7  -1
M  END
>  <mol_id>  (53) 
2026-09-18-6fnk-s0-n100-refligand-0054

>  <rmsd_to_ref>  (53) 


$$$$

     RDKit          3D

 17 18  0  0  0  0  0  0  0  0999 V2000
    0.9351   17.8153   44.4464 N   0  0  0  0  0  0  0  0  0  0  0  0
    0.2006   21.6399   43.4358 N   0  0  0  0  0  0  0  0  0  0  0  0
    0.0923   18.1538   46.5900 N   0  0  0  0  0  0  0  0  0  0  0  0
    0.1350   19.9817   45.1226 N   0  0  0  0  0  0  0  0  0  0  0  0
    1.0319   19.7184   42.9113 C   0  0  1  0  0  0  0  0  0  0  0  0
    0.3862   18.6801   45.3752 C   0  0  0  0  0  0  0  0  0  0  0  0
    1.2515   20.5297   41.8478 C   0  0  0  0  0  0  0  0  0  0  0  0
    0.5958   21.7436   42.2428 C   0  0  0  0  0  0  0  0  0  0  0  0
    0.4236   20.4301   43.8591 C   0  0  0  0  0  0  0  0  0  0  0  0
    1.8546   17.4564   41.9379 S   0  0  0  0  0  0  0  0  0  0  0  0
    1.2656   18.3597   43.3273 C   0  0  0  0  0  0  0  0  0  0  0  0
   -0.3187   18.7491   47.3233 H   0  0  0  0  0  0  0  0  0  0  0  0
    0.2800   17.1589   46.7793 H   0  0  0  0  0  0  0  0  0  0  0  0
   -0.2540   20.6071   45.8427 H   0  0  0  0  0  0  0  0  0  0  0  0
    2.0103   19.9996   43.3279 H   0  0  0  0  0  0  0  0  0  0  0  0
    1.7954   20.3124   40.9166 H   0  0  0  0  0  0  0  0  0  0  0  0
    0.4591   22.6281   41.6034 H   0  0  0  0  0  0  0  0  0  0  0  0
  1  6  2  0
  2  9  2  0
  4  6  1  0
  5  7  1  0
  5  9  1  0
  5 11  1  0
  6  3  1  0
  8  7  2  0
  8  2  1  0
  9  4  1  0
 10 11  2  0
 11  1  1  0
  3 12  1  0
  3 13  1  0
  4 14  1  0
  5 15  1  1
  7 16  1  0
  8 17  1  0
M  END
>  <mol_id>  (54) 
2026-09-18-6fnk-s0-n100-refligand-0055

>  <rmsd_to_ref>  (54) 


$$$$

     RDKit          3D

 17 18  0  0  0  0  0  0  0  0999 V2000
    0.2794   20.8266   44.4065 C   0  0  0  0  0  0  0  0  0  0  0  0
    1.4892   20.5896   44.0070 C   0  0  2  0  0  0  0  0  0  0  0  0
    1.2700   19.4940   42.5701 C   0  0  0  0  0  0  0  0  0  0  0  0
    0.6316   19.5197   44.6229 C   0  0  2  0  0  0  0  0  0  0  0  0
    0.8847   18.2568   44.1643 C   0  0  0  0  0  0  0  0  0  0  0  0
    2.3128   17.8120   42.1646 C   0  0  0  0  0  0  0  0  0  0  0  0
    1.5149   18.8601   42.9441 C   0  0  1  0  0  0  0  0  0  0  0  0
   -0.2207   21.7537   44.4276 O   0  0  0  0  0  0  0  0  0  0  0  0
    3.0546   17.7035   41.7864 O   0  0  0  0  0  0  0  0  0  0  0  0
    2.3915   21.2176   44.0466 H   0  0  0  0  0  0  0  0  0  0  0  0
    0.2242   19.4223   42.2367 H   0  0  0  0  0  0  0  0  0  0  0  0
    1.7700   19.7666   41.6289 H   0  0  0  0  0  0  0  0  0  0  0  0
    0.1998   18.8776   45.4049 H   0  0  0  0  0  0  0  0  0  0  0  0
    1.5765   17.6761   44.7923 H   0  0  0  0  0  0  0  0  0  0  0  0
    0.0792   17.5127   44.0777 H   0  0  0  0  0  0  0  0  0  0  0  0
    1.7145   16.8941   42.0674 H   0  0  0  0  0  0  0  0  0  0  0  0
    2.1233   19.6251   43.4488 H   0  0  0  0  0  0  0  0  0  0  0  0
  1  4  1  0
  2  3  1  0
  2  1  1  0
  2  4  1  0
  3  7  1  0
  4  5  1  0
  7  6  1  0
  7  5  1  0
  8  1  2  0
  9  6  2  0
  2 10  1  1
  3 11  1  0
  3 12  1  0
  4 13  1  1
  5 14  1  0
  5 15  1  0
  6 16  1  0
  7 17  1  1
M  END
>  <mol_id>  (55) 
2026-09-18-6fnk-s0-n100-refligand-0056

>  <rmsd_to_ref>  (55) 


$$$$

     RDKit          3D

 43 45  0  0  0  0  0  0  0  0999 V2000
    2.0430   17.7536   40.1983 N   0  0  0  0  0  0  0  0  0  0  0  0
    2.8146   13.4516   39.7771 O   0  0  0  0  0  0  0  0  0  0  0  0
    3.5493   14.4219   40.1974 C   0  0  0  0  0  0  0  0  0  0  0  0
    4.6594   14.7164   39.5968 O   0  0  0  0  0  0  0  0  0  0  0  0
    2.1445   16.4591   39.7090 C   0  0  0  0  0  0  0  0  0  0  0  0
    0.0022   18.0756   44.0363 C   0  0  1  0  0  0  0  0  0  0  0  0
   -0.8646   17.1778   46.4901 C   0  0  0  0  0  0  0  0  0  0  0  0
    2.1821   18.8992   39.3547 C   0  0  0  0  0  0  0  0  0  0  0  0
   -0.5846   18.9461   44.9992 C   0  0  0  0  0  0  0  0  0  0  0  0
   -1.3542   16.6036   47.7809 C   0  0  0  0  0  0  0  0  0  0  0  0
    0.3144   18.7345   42.8608 N   0  0  0  0  0  0  0  0  0  0  0  0
    0.1726   16.7356   44.3406 C   0  0  0  0  0  0  0  0  0  0  0  0
   -1.0171   18.4333   46.1746 N   0  0  0  0  0  0  0  0  0  0  0  0
   -0.3130   16.2445   45.6358 C   0  0  0  0  0  0  0  0  0  0  0  0
    1.5553   20.2449   41.5096 C   0  0  0  0  0  0  0  0  0  0  0  0
    2.9820   20.3539   41.1911 C   0  0  0  0  0  0  0  0  0  0  0  0
    3.1218   19.9926   39.7905 C   0  0  0  0  0  0  0  0  0  0  0  0
    2.4033   16.2264   42.1673 S   0  0  0  0  0  0  0  0  0  0  0  0
    2.7650   15.6870   40.5885 C   0  0  2  0  0  0  0  0  0  0  0  0
    1.2858   18.9034   42.0258 C   0  0  2  0  0  0  0  0  0  0  0  0
    1.8332   17.7655   41.4988 C   0  0  2  0  0  0  0  0  0  0  0  0
   -0.6584   20.1493   44.7002 O   0  0  0  0  0  0  0  0  0  0  0  0
    1.1363   16.0606   39.5226 H   0  0  0  0  0  0  0  0  0  0  0  0
    2.7209   16.4726   38.7722 H   0  0  0  0  0  0  0  0  0  0  0  0
   -1.0040   17.8594   43.6478 H   0  0  0  0  0  0  0  0  0  0  0  0
    2.5294   18.5421   38.3739 H   0  0  0  0  0  0  0  0  0  0  0  0
    1.1886   19.3712   39.3689 H   0  0  0  0  0  0  0  0  0  0  0  0
   -0.9130   17.1605   48.6206 H   0  0  0  0  0  0  0  0  0  0  0  0
   -2.4505   16.6819   47.8246 H   0  0  0  0  0  0  0  0  0  0  0  0
   -1.0591   15.5459   47.8470 H   0  0  0  0  0  0  0  0  0  0  0  0
   -0.4235   18.3811   42.2353 H   0  0  0  0  0  0  0  0  0  0  0  0
    0.5532   19.5987   43.3676 H   0  0  0  0  0  0  0  0  0  0  0  0
    0.6608   16.0546   43.6279 H   0  0  0  0  0  0  0  0  0  0  0  0
   -0.2406   15.1823   45.9127 H   0  0  0  0  0  0  0  0  0  0  0  0
    0.9600   20.4173   40.6009 H   0  0  0  0  0  0  0  0  0  0  0  0
    1.2840   20.9964   42.2657 H   0  0  0  0  0  0  0  0  0  0  0  0
    3.3300   21.3847   41.3541 H   0  0  0  0  0  0  0  0  0  0  0  0
    3.5842   19.6947   41.8336 H   0  0  0  0  0  0  0  0  0  0  0  0
    4.1540   19.6527   39.6200 H   0  0  0  0  0  0  0  0  0  0  0  0
    2.8735   20.8866   39.1997 H   0  0  0  0  0  0  0  0  0  0  0  0
    1.8517   15.0850   40.7044 H   0  0  0  0  0  0  0  0  0  0  0  0
    2.2246   19.1562   42.5405 H   0  0  0  0  0  0  0  0  0  0  0  0
    2.8410   18.1767   41.6578 H   0  0  0  0  0  0  0  0  0  0  0  0
  1  8  1  0
  1 21  1  0
  2  3  1  0
  4  3  2  0
  5  1  1  0
  5 19  1  0
  6 11  1  0
  6 12  1  0
  6  9  1  0
  7 10  1  0
  8 17  1  0
  9 13  1  0
 12 14  2  0
 13  7  2  0
 14  7  1  0
 15 20  1  0
 16 15  1  0
 17 16  1  0
 19  3  1  0
 19 18  1  0
 20 11  1  0
 21 20  1  0
 21 18  1  0
 22  9  2  0
  5 23  1  0
  5 24  1  0
  6 25  1  6
  8 26  1  0
  8 27  1  0
 10 28  1  0
 10 29  1  0
 10 30  1  0
 11 31  1  0
 11 32  1  0
 12 33  1  0
 14 34  1  0
 15 35  1  0
 15 36  1  0
 16 37  1  0
 16 38  1  0
 17 39  1  0
 17 40  1  0
 19 41  1  6
 20 42  1  1
 21 43  1  1
M  CHG  2   2  -1  11   1
M  END
>  <mol_id>  (56) 
2026-09-18-6fnk-s0-n100-refligand-0057

>  <rmsd_to_ref>  (56) 


$$$$

     RDKit          3D

 45 47  0  0  0  0  0  0  0  0999 V2000
    1.3708   16.4119   43.7780 C   0  0  1  0  0  0  0  0  0  0  0  0
    1.1729   19.4248   41.9871 N   0  0  0  0  0  0  0  0  0  0  0  0
    3.6555   21.7995   43.2362 O   0  0  0  0  0  0  0  0  0  0  0  0
    5.5549   22.8695   39.1066 F   0  0  0  0  0  0  0  0  0  0  0  0
    1.4755   15.7858   42.5355 C   0  0  0  0  0  0  0  0  0  0  0  0
   -0.4452   20.0486   43.6578 C   0  0  0  0  0  0  0  0  0  0  0  0
    2.5520   19.5432   42.1724 C   0  0  0  0  0  0  0  0  0  0  0  0
    3.0878   14.0294   42.6128 C   0  0  0  0  0  0  0  0  0  0  0  0
    0.6621   17.7575   43.8206 N   0  0  0  0  0  0  0  0  0  0  0  0
    0.4543   20.5598   42.5580 C   0  0  0  0  0  0  0  0  0  0  0  0
    1.5456   16.4898   46.0637 O   0  0  0  0  0  0  0  0  0  0  0  0
   -1.7487   19.8488   45.3735 N   0  0  0  0  0  0  0  0  0  0  0  0
   -0.2785   18.8249   44.1839 C   0  0  0  0  0  0  0  0  0  0  0  0
   -1.3353   20.6445   44.3198 N   0  0  0  0  0  0  0  0  0  0  0  0
    3.3142   14.1924   43.9434 C   0  0  0  0  0  0  0  0  0  0  0  0
    2.9503   20.5249   39.8904 C   0  0  0  0  0  0  0  0  0  0  0  0
    3.7030   21.6074   41.9139 C   0  0  0  0  0  0  0  0  0  0  0  0
    1.8972   15.9444   44.9673 C   0  0  0  0  0  0  0  0  0  0  0  0
    3.0033   20.5729   41.2653 C   0  0  0  0  0  0  0  0  0  0  0  0
    2.1197   14.7460   41.9966 C   0  0  0  0  0  0  0  0  0  0  0  0
    3.8022   21.3444   39.1413 C   0  0  0  0  0  0  0  0  0  0  0  0
   -1.0414   18.7321   45.2708 C   0  0  0  0  0  0  0  0  0  0  0  0
    2.7799   14.8044   44.9954 C   0  0  0  0  0  0  0  0  0  0  0  0
    4.6241   22.2135   39.8376 C   0  0  0  0  0  0  0  0  0  0  0  0
    4.6138   22.3506   41.1353 C   0  0  0  0  0  0  0  0  0  0  0  0
    2.3213   16.9194   43.5569 H   0  0  0  0  0  0  0  0  0  0  0  0
    0.8476   18.5600   42.4424 H   0  0  0  0  0  0  0  0  0  0  0  0
    0.9849   19.4010   40.9746 H   0  0  0  0  0  0  0  0  0  0  0  0
    4.1657   22.5418   43.6472 H   0  0  0  0  0  0  0  0  0  0  0  0
    0.8496   16.2922   41.7859 H   0  0  0  0  0  0  0  0  0  0  0  0
    2.7721   19.8295   43.2114 H   0  0  0  0  0  0  0  0  0  0  0  0
    3.0622   18.5889   41.9748 H   0  0  0  0  0  0  0  0  0  0  0  0
    3.6926   13.3138   42.0365 H   0  0  0  0  0  0  0  0  0  0  0  0
    1.2217   18.2618   43.1181 H   0  0  0  0  0  0  0  0  0  0  0  0
    1.1716   21.2842   42.9710 H   0  0  0  0  0  0  0  0  0  0  0  0
   -0.1438   21.0585   41.7811 H   0  0  0  0  0  0  0  0  0  0  0  0
   -1.7010   21.5839   44.1084 H   0  0  0  0  0  0  0  0  0  0  0  0
    4.2223   13.6486   44.2424 H   0  0  0  0  0  0  0  0  0  0  0  0
    2.2449   19.8487   39.3853 H   0  0  0  0  0  0  0  0  0  0  0  0
    1.8415   14.4504   40.9743 H   0  0  0  0  0  0  0  0  0  0  0  0
    3.8180   21.2996   38.0424 H   0  0  0  0  0  0  0  0  0  0  0  0
   -1.0786   17.8780   45.9629 H   0  0  0  0  0  0  0  0  0  0  0  0
    2.2192   14.0216   45.5273 H   0  0  0  0  0  0  0  0  0  0  0  0
    3.6818   15.2823   45.4056 H   0  0  0  0  0  0  0  0  0  0  0  0
    5.3149   23.0451   41.6212 H   0  0  0  0  0  0  0  0  0  0  0  0
  1  9  1  0
  1 18  1  0
  2 10  1  0
  4 24  1  0
  5  1  1  0
  6 13  2  0
  6 14  1  0
  7  2  1  0
  8 15  2  0
  9 13  1  0
 10  6  1  0
 13 22  1  0
 14 12  1  0
 15 23  1  0
 16 19  1  0
 17  3  1  0
 18 11  2  0
 19 17  2  0
 19  7  1  0
 20  8  1  0
 20  5  2  0
 21 24  1  0
 21 16  2  0
 22 12  2  0
 23 18  1  0
 24 25  2  0
 25 17  1  0
  1 26  1  6
  2 27  1  0
  2 28  1  0
  3 29  1  0
  5 30  1  0
  7 31  1  0
  7 32  1  0
  8 33  1  0
  9 34  1  0
 10 35  1  0
 10 36  1  0
 14 37  1  0
 15 38  1  0
 16 39  1  0
 20 40  1  0
 21 41  1  0
 22 42  1  0
 23 43  1  0
 23 44  1  0
 25 45  1  0
M  CHG  1   2   1
M  END
>  <mol_id>  (57) 
2026-09-18-6fnk-s0-n100-refligand-0058

>  <rmsd_to_ref>  (57) 


$$$$

     RDKit          3D

 35 37  0  0  0  0  0  0  0  0999 V2000
    0.0757   19.7365   45.2458 N   0  0  0  0  0  0  0  0  0  0  0  0
    3.8806   20.8051   40.1229 C   0  0  0  0  0  0  0  0  0  0  0  0
   -0.1925   21.9269   44.9083 N   0  0  0  0  0  0  0  0  0  0  0  0
    4.0904   21.2082   41.4381 C   0  0  0  0  0  0  0  0  0  0  0  0
    3.3191   20.6944   42.4668 C   0  0  0  0  0  0  0  0  0  0  0  0
    1.5979   17.1482   41.9602 N   0  0  0  0  0  0  0  0  0  0  0  0
    2.9938   19.7781   39.8708 C   0  0  0  0  0  0  0  0  0  0  0  0
    0.3505   21.4332   43.8062 N   0  0  0  0  0  0  0  0  0  0  0  0
    0.6224   20.1244   44.0625 C   0  0  0  0  0  0  0  0  0  0  0  0
    1.5560   18.0321   40.8057 C   0  0  0  0  0  0  0  0  0  0  0  0
    2.2555   19.2246   40.8758 C   0  0  0  0  0  0  0  0  0  0  0  0
    1.3631   19.2833   43.0409 C   0  0  2  0  0  0  0  0  0  0  0  0
    1.1357   17.8308   43.1507 N   0  0  0  0  0  0  0  0  0  0  0  0
   -0.1637   15.7279   43.7407 C   0  0  0  0  0  0  0  0  0  0  0  0
    0.4485   14.3474   43.8218 C   0  0  0  0  0  0  0  0  0  0  0  0
    0.7447   16.8998   44.2207 C   0  0  0  0  0  0  0  0  0  0  0  0
   -0.3682   20.9117   45.6929 C   0  0  0  0  0  0  0  0  0  0  0  0
    2.2667   19.8376   42.1623 C   0  0  0  0  0  0  0  0  0  0  0  0
    4.4138   21.2977   39.2964 H   0  0  0  0  0  0  0  0  0  0  0  0
    4.8775   21.9430   41.6629 H   0  0  0  0  0  0  0  0  0  0  0  0
    3.5359   20.9606   43.5119 H   0  0  0  0  0  0  0  0  0  0  0  0
    2.5669   16.8317   42.1076 H   0  0  0  0  0  0  0  0  0  0  0  0
    2.8804   19.4000   38.8441 H   0  0  0  0  0  0  0  0  0  0  0  0
    0.5314   21.9399   42.9278 H   0  0  0  0  0  0  0  0  0  0  0  0
    0.5005   18.2821   40.6230 H   0  0  0  0  0  0  0  0  0  0  0  0
    2.0572   17.4657   40.0070 H   0  0  0  0  0  0  0  0  0  0  0  0
    0.5081   19.3651   42.3536 H   0  0  0  0  0  0  0  0  0  0  0  0
   -1.0736   15.7307   44.3588 H   0  0  0  0  0  0  0  0  0  0  0  0
   -0.3492   15.9110   42.6721 H   0  0  0  0  0  0  0  0  0  0  0  0
    0.6168   14.0822   44.8760 H   0  0  0  0  0  0  0  0  0  0  0  0
   -0.2341   13.6162   43.3643 H   0  0  0  0  0  0  0  0  0  0  0  0
    1.4081   14.3396   43.2841 H   0  0  0  0  0  0  0  0  0  0  0  0
    1.6588   16.4720   44.6582 H   0  0  0  0  0  0  0  0  0  0  0  0
    0.1580   17.4796   44.9484 H   0  0  0  0  0  0  0  0  0  0  0  0
   -0.8565   21.0132   46.6734 H   0  0  0  0  0  0  0  0  0  0  0  0
  1 17  1  0
  2  4  2  0
  3 17  2  0
  4  5  1  0
  6 13  1  0
  7  2  1  0
  7 11  2  0
  8  9  1  0
  8  3  1  0
  9  1  2  0
 10 11  1  0
 10  6  1  0
 11 18  1  0
 12 13  1  0
 12  9  1  0
 13 16  1  0
 14 16  1  0
 15 14  1  0
 18  5  2  0
 18 12  1  0
  2 19  1  0
  4 20  1  0
  5 21  1  0
  6 22  1  0
  7 23  1  0
  8 24  1  0
 10 25  1  0
 10 26  1  0
 12 27  1  6
 14 28  1  0
 14 29  1  0
 15 30  1  0
 15 31  1  0
 15 32  1  0
 16 33  1  0
 16 34  1  0
 17 35  1  0
M  END
>  <mol_id>  (58) 
2026-09-18-6fnk-s0-n100-refligand-0059

>  <rmsd_to_ref>  (58) 


$$$$

     RDKit          3D

 53 56  0  0  0  0  0  0  0  0999 V2000
   -2.1069   13.8488   44.3113 C   0  0  0  0  0  0  0  0  0  0  0  0
   -1.1195   16.4408   44.3503 C   0  0  0  0  0  0  0  0  0  0  0  0
   -0.9306   15.5851   43.1303 C   0  0  0  0  0  0  0  0  0  0  0  0
    3.4799   21.7145   42.1738 C   0  0  0  0  0  0  0  0  0  0  0  0
    5.9977   23.4054   38.5323 C   0  0  0  0  0  0  0  0  0  0  0  0
   -1.1194   15.7586   45.6867 C   0  0  0  0  0  0  0  0  0  0  0  0
    1.6630   18.6717   41.6683 O   0  0  0  0  0  0  0  0  0  0  0  0
    3.8383   22.6378   39.0745 C   0  0  0  0  0  0  0  0  0  0  0  0
   -1.9988   14.5938   45.7294 C   0  0  0  0  0  0  0  0  0  0  0  0
    5.2030   22.5488   40.7703 C   0  0  0  0  0  0  0  0  0  0  0  0
    1.0931   18.8690   42.7910 C   0  0  0  0  0  0  0  0  0  0  0  0
   -2.1482   14.3990   43.4013 C   0  0  0  0  0  0  0  0  0  0  0  0
    6.4366   22.1192   39.0063 C   0  0  0  0  0  0  0  0  0  0  0  0
    0.9061   20.3729   42.8893 C   0  0  0  0  0  0  0  0  0  0  0  0
   -0.1093   17.5864   44.2864 N   0  0  0  0  0  0  0  0  0  0  0  0
    4.6748   22.0897   41.9135 C   0  0  0  0  0  0  0  0  0  0  0  0
    5.2427   22.7263   39.5251 C   0  0  0  0  0  0  0  0  0  0  0  0
    2.6968   22.1546   39.9937 C   0  0  0  0  0  0  0  0  0  0  0  0
    0.8498   17.5083   43.6343 C   0  0  0  0  0  0  0  0  0  0  0  0
    2.4213   21.8983   41.2745 C   0  0  1  0  0  0  0  0  0  0  0  0
    0.2001   20.7264   44.2619 C   0  0  0  0  0  0  0  0  0  0  0  0
   -0.1843   20.4749   46.5344 O   0  0  0  0  0  0  0  0  0  0  0  0
   -0.1844   22.1672   44.3783 O   0  0  0  0  0  0  0  0  0  0  0  0
   -0.2546   19.8613   45.4820 C   0  0  0  0  0  0  0  0  0  0  0  0
    1.0333   21.7282   42.0048 C   0  0  0  0  0  0  0  0  0  0  0  0
   -0.5551   18.6401   45.1660 N   0  0  0  0  0  0  0  0  0  0  0  0
    1.6207   16.5542   43.3711 O   0  0  0  0  0  0  0  0  0  0  0  0
   -1.2292   13.1898   44.2375 H   0  0  0  0  0  0  0  0  0  0  0  0
   -3.1045   13.3877   44.3581 H   0  0  0  0  0  0  0  0  0  0  0  0
   -2.1569   16.8033   44.3019 H   0  0  0  0  0  0  0  0  0  0  0  0
    0.0739   15.1381   43.0974 H   0  0  0  0  0  0  0  0  0  0  0  0
   -1.0122   16.1209   42.1730 H   0  0  0  0  0  0  0  0  0  0  0  0
    3.2758   21.2295   43.1398 H   0  0  0  0  0  0  0  0  0  0  0  0
    6.5641   24.3106   38.7965 H   0  0  0  0  0  0  0  0  0  0  0  0
    5.7732   23.8329   37.5439 H   0  0  0  0  0  0  0  0  0  0  0  0
   -0.0938   15.4327   45.9146 H   0  0  0  0  0  0  0  0  0  0  0  0
   -1.4928   16.4817   46.4268 H   0  0  0  0  0  0  0  0  0  0  0  0
    3.5965   22.9282   38.0415 H   0  0  0  0  0  0  0  0  0  0  0  0
   -3.0041   14.9223   46.0322 H   0  0  0  0  0  0  0  0  0  0  0  0
   -1.5712   13.8799   46.4489 H   0  0  0  0  0  0  0  0  0  0  0  0
    5.2695   23.6069   41.0635 H   0  0  0  0  0  0  0  0  0  0  0  0
    5.6039   21.5391   40.5978 H   0  0  0  0  0  0  0  0  0  0  0  0
   -3.1205   14.9128   43.3714 H   0  0  0  0  0  0  0  0  0  0  0  0
   -1.9867   13.6483   42.6137 H   0  0  0  0  0  0  0  0  0  0  0  0
    6.3685   21.2371   38.3528 H   0  0  0  0  0  0  0  0  0  0  0  0
    7.3648   21.7208   39.4420 H   0  0  0  0  0  0  0  0  0  0  0  0
    5.3770   22.0257   42.7578 H   0  0  0  0  0  0  0  0  0  0  0  0
    1.8037   21.9517   39.3844 H   0  0  0  0  0  0  0  0  0  0  0  0
    2.4003   22.9776   41.4859 H   0  0  0  0  0  0  0  0  0  0  0  0
   -0.6328   22.4952   45.1977 H   0  0  0  0  0  0  0  0  0  0  0  0
    0.8872   22.5903   42.6722 H   0  0  0  0  0  0  0  0  0  0  0  0
    0.2685   21.6634   41.2169 H   0  0  0  0  0  0  0  0  0  0  0  0
   -1.3665   18.3224   45.7151 H   0  0  0  0  0  0  0  0  0  0  0  0
  1  9  1  0
  2  6  1  0
  3 12  1  0
  3  2  1  0
  5 13  1  0
  5 17  1  0
  6  9  1  0
  7 11  2  0
  8 17  1  0
  8 18  2  0
 10 16  1  0
 11 19  1  0
 12  1  1  0
 13 17  1  0
 14 11  1  0
 14 21  2  0
 15  2  1  0
 15 26  1  0
 16  4  2  0
 17 10  1  0
 18 20  1  0
 19 15  1  0
 20 25  1  0
 20  4  1  0
 21 24  1  0
 23 21  1  0
 24 22  2  0
 25 14  1  0
 26 24  1  0
 27 19  2  0
  1 28  1  0
  1 29  1  0
  2 30  1  0
  3 31  1  0
  3 32  1  0
  4 33  1  0
  5 34  1  0
  5 35  1  0
  6 36  1  0
  6 37  1  0
  8 38  1  0
  9 39  1  0
  9 40  1  0
 10 41  1  0
 10 42  1  0
 12 43  1  0
 12 44  1  0
 13 45  1  0
 13 46  1  0
 16 47  1  0
 18 48  1  0
 20 49  1  1
 23 50  1  0
 25 51  1  0
 25 52  1  0
 26 53  1  0
M  END
>  <mol_id>  (59) 
2026-09-18-6fnk-s0-n100-refligand-0060

>  <rmsd_to_ref>  (59) 


$$$$

     RDKit          3D

 32 33  0  0  0  0  0  0  0  0999 V2000
   -0.7767   19.1506   45.2449 C   0  0  0  0  0  0  0  0  0  0  0  0
    0.7503   16.8564   42.9781 O   0  0  0  0  0  0  0  0  0  0  0  0
   -1.3904   18.9418   46.3950 N   0  0  0  0  0  0  0  0  0  0  0  0
   -0.6002   17.1435   44.8337 C   0  0  0  0  0  0  0  0  0  0  0  0
    0.3303   21.2384   41.4337 C   0  0  0  0  0  0  0  0  0  0  0  0
    0.8402   20.3121   40.6186 C   0  0  0  0  0  0  0  0  0  0  0  0
    0.2472   18.8185   43.2401 C   0  0  1  0  0  0  0  0  0  0  0  0
   -0.2294   18.1738   44.2853 C   0  0  0  0  0  0  0  0  0  0  0  0
   -0.2078   20.1354   43.5277 C   0  0  1  0  0  0  0  0  0  0  0  0
    0.2608   15.6944   43.2260 C   0  0  0  0  0  0  0  0  0  0  0  0
    1.2285   18.5218   42.2316 C   0  0  0  0  0  0  0  0  0  0  0  0
    1.4762   19.1190   41.0584 C   0  0  0  0  0  0  0  0  0  0  0  0
    0.8893   20.4862   39.3703 O   0  0  0  0  0  0  0  0  0  0  0  0
   -0.4771   15.8774   44.2811 C   0  0  0  0  0  0  0  0  0  0  0  0
   -0.5658   20.2963   44.7935 N   0  0  0  0  0  0  0  0  0  0  0  0
   -0.0135   21.1936   42.7617 C   0  0  0  0  0  0  0  0  0  0  0  0
    1.0410   17.2794   43.8247 H   0  0  0  0  0  0  0  0  0  0  0  0
   -1.7176   19.7408   46.9567 H   0  0  0  0  0  0  0  0  0  0  0  0
   -1.0607   17.2276   45.8290 H   0  0  0  0  0  0  0  0  0  0  0  0
   -0.6015   21.5410   40.9335 H   0  0  0  0  0  0  0  0  0  0  0  0
    1.2545   21.8215   41.5598 H   0  0  0  0  0  0  0  0  0  0  0  0
    0.2453   18.1411   42.3734 H   0  0  0  0  0  0  0  0  0  0  0  0
   -1.0339   20.1482   42.8014 H   0  0  0  0  0  0  0  0  0  0  0  0
   -0.3477   15.3390   42.3813 H   0  0  0  0  0  0  0  0  0  0  0  0
    1.0398   14.9339   43.3836 H   0  0  0  0  0  0  0  0  0  0  0  0
    1.8810   17.6663   42.4605 H   0  0  0  0  0  0  0  0  0  0  0  0
    2.2196   18.6565   40.3924 H   0  0  0  0  0  0  0  0  0  0  0  0
   -1.4926   15.5460   44.0189 H   0  0  0  0  0  0  0  0  0  0  0  0
    0.0555   15.3134   45.0611 H   0  0  0  0  0  0  0  0  0  0  0  0
   -0.6528   21.1872   45.3031 H   0  0  0  0  0  0  0  0  0  0  0  0
    0.7802   21.7600   43.2708 H   0  0  0  0  0  0  0  0  0  0  0  0
   -1.0609   21.5156   42.6661 H   0  0  0  0  0  0  0  0  0  0  0  0
  1  3  2  3
  5 16  1  0
  6 12  1  0
  6  5  1  0
  7 11  1  0
  7  9  1  0
  7  8  1  0
  8  4  2  3
  8  1  1  0
  9 16  1  0
  9 15  1  0
 10  2  1  0
 10 14  1  0
 12 11  2  0
 13  6  2  0
 14  4  1  0
 15  1  1  0
  2 17  1  0
  3 18  1  0
  4 19  1  0
  5 20  1  0
  5 21  1  0
  7 22  1  6
  9 23  1  6
 10 24  1  0
 10 25  1  0
 11 26  1  0
 12 27  1  0
 14 28  1  0
 14 29  1  0
 15 30  1  0
 16 31  1  0
 16 32  1  0
M  END
>  <mol_id>  (60) 
2026-09-18-6fnk-s0-n100-refligand-0061

>  <rmsd_to_ref>  (60) 


$$$$

     RDKit          3D

 47 49  0  0  0  0  0  0  0  0999 V2000
    3.0844   17.1024   40.0441 C   0  0  0  0  0  0  0  0  0  0  0  0
    0.0022   18.0693   44.1701 C   0  0  2  0  0  0  0  0  0  0  0  0
    2.4248   15.8668   42.1573 C   0  0  1  0  0  0  0  0  0  0  0  0
    3.2453   16.1458   40.9887 C   0  0  1  0  0  0  0  0  0  0  0  0
   -1.6698   14.2851   46.9552 C   0  0  0  0  0  0  0  0  0  0  0  0
    0.1963   19.3064   43.3548 C   0  0  0  0  0  0  0  0  0  0  0  0
    1.6676   18.2140   41.8470 C   0  0  0  0  0  0  0  0  0  0  0  0
   -1.6930   18.9021   45.6971 O   0  0  0  0  0  0  0  0  0  0  0  0
    1.5083   17.0542   42.5900 C   0  0  1  0  0  0  0  0  0  0  0  0
    3.0198   20.9217   40.9528 F   0  0  0  0  0  0  0  0  0  0  0  0
   -0.8565   17.9614   45.3490 C   0  0  0  0  0  0  0  0  0  0  0  0
    2.4385   18.2429   40.5242 C   0  0  2  0  0  0  0  0  0  0  0  0
    3.9014   20.7244   38.7548 C   0  0  0  0  0  0  0  0  0  0  0  0
   -0.4130   20.3047   43.7063 O   0  0  0  0  0  0  0  0  0  0  0  0
   -1.9504   16.7753   47.1232 C   0  0  0  0  0  0  0  0  0  0  0  0
    1.0632   19.3048   42.2584 N   0  0  0  0  0  0  0  0  0  0  0  0
    2.8268   14.2361   40.7278 C   0  0  0  0  0  0  0  0  0  0  0  0
    2.6779   20.5954   39.6459 C   0  0  1  0  0  0  0  0  0  0  0  0
    2.1562   14.4325   42.1364 C   0  0  0  0  0  0  0  0  0  0  0  0
   -2.5999   15.3697   47.3778 C   0  0  0  0  0  0  0  0  0  0  0  0
    0.6059   16.9203   43.6376 C   0  0  0  0  0  0  0  0  0  0  0  0
    3.9778   20.1220   37.6592 O   0  0  0  0  0  0  0  0  0  0  0  0
    4.7840   21.5549   39.1501 O   0  0  0  0  0  0  0  0  0  0  0  0
    0.4765   15.8051   44.2481 O   0  0  0  0  0  0  0  0  0  0  0  0
    2.3814   19.2039   39.5320 O   0  0  0  0  0  0  0  0  0  0  0  0
   -0.9777   16.7979   46.1385 N   0  0  0  0  0  0  0  0  0  0  0  0
    4.1022   15.0629   40.9105 O   0  0  0  0  0  0  0  0  0  0  0  0
    2.4887   16.6835   39.2196 H   0  0  0  0  0  0  0  0  0  0  0  0
    4.0878   17.4086   39.7131 H   0  0  0  0  0  0  0  0  0  0  0  0
   -0.8425   17.7787   43.5282 H   0  0  0  0  0  0  0  0  0  0  0  0
    2.8180   15.9247   43.1830 H   0  0  0  0  0  0  0  0  0  0  0  0
    3.4938   17.1998   40.7959 H   0  0  0  0  0  0  0  0  0  0  0  0
   -1.2785   13.7701   47.8450 H   0  0  0  0  0  0  0  0  0  0  0  0
   -2.2095   13.5651   46.3225 H   0  0  0  0  0  0  0  0  0  0  0  0
   -0.8347   14.7194   46.3860 H   0  0  0  0  0  0  0  0  0  0  0  0
    2.2834   17.3970   43.2913 H   0  0  0  0  0  0  0  0  0  0  0  0
    2.7901   18.8473   41.3733 H   0  0  0  0  0  0  0  0  0  0  0  0
   -2.7490   17.4729   46.8308 H   0  0  0  0  0  0  0  0  0  0  0  0
   -1.4476   17.0572   48.0601 H   0  0  0  0  0  0  0  0  0  0  0  0
    2.1968   14.6342   39.9186 H   0  0  0  0  0  0  0  0  0  0  0  0
    2.9964   13.1875   40.4423 H   0  0  0  0  0  0  0  0  0  0  0  0
    1.8362   21.2489   39.3726 H   0  0  0  0  0  0  0  0  0  0  0  0
    2.6643   13.8819   42.9418 H   0  0  0  0  0  0  0  0  0  0  0  0
    1.1216   14.0878   42.2804 H   0  0  0  0  0  0  0  0  0  0  0  0
   -3.5336   15.2917   46.8016 H   0  0  0  0  0  0  0  0  0  0  0  0
   -2.8097   15.2621   48.4523 H   0  0  0  0  0  0  0  0  0  0  0  0
   -0.3596   15.9882   45.9863 H   0  0  0  0  0  0  0  0  0  0  0  0
  1 12  1  0
  2 11  1  0
  3 19  1  0
  3  9  1  0
  4  1  1  0
  4  3  1  0
  5 20  1  0
  6  2  1  0
  6 14  2  0
  7 16  2  0
  9  7  1  0
  9 21  1  0
 11 26  1  0
 11  8  2  0
 12 25  1  0
 12  7  1  0
 13 23  1  0
 13 18  1  0
 15 20  1  0
 16  6  1  0
 17 27  1  0
 17 19  1  0
 18 10  1  0
 21 24  2  0
 21  2  1  0
 22 13  2  0
 25 18  1  0
 26 15  1  0
 27  4  1  0
  1 28  1  0
  1 29  1  0
  2 30  1  1
  3 31  1  1
  4 32  1  1
  5 33  1  0
  5 34  1  0
  5 35  1  0
  9 36  1  1
 12 37  1  1
 15 38  1  0
 15 39  1  0
 17 40  1  0
 17 41  1  0
 18 42  1  6
 19 43  1  0
 19 44  1  0
 20 45  1  0
 20 46  1  0
 26 47  1  0
M  CHG  1  23  -1
M  END
>  <mol_id>  (61) 
2026-09-18-6fnk-s0-n100-refligand-0062

>  <rmsd_to_ref>  (61) 


$$$$

     RDKit          3D

 51 55  0  0  0  0  0  0  0  0999 V2000
    4.0030   13.2550   40.6725 N   0  0  0  0  0  0  0  0  0  0  0  0
   -2.6292   17.7701   47.1115 C   0  0  0  0  0  0  0  0  0  0  0  0
    3.4451   14.4436   41.1033 C   0  0  0  0  0  0  0  0  0  0  0  0
    1.4411   15.9703   41.6491 O   0  0  0  0  0  0  0  0  0  0  0  0
    3.5709   20.4632   38.2357 C   0  0  0  0  0  0  0  0  0  0  0  0
    0.3757   19.6398   43.7575 N   0  0  0  0  0  0  0  0  0  0  0  0
   -1.7442   20.0210   46.4146 N   0  0  0  0  0  0  0  0  0  0  0  0
    3.2854   21.5158   40.3710 N   0  0  0  0  0  0  0  0  0  0  0  0
    2.0798   16.6961   40.9996 C   0  0  0  0  0  0  0  0  0  0  0  0
    3.1037   15.1806   40.1081 N   0  0  0  0  0  0  0  0  0  0  0  0
   -1.8801   18.7026   46.3083 C   0  0  0  0  0  0  0  0  0  0  0  0
   -0.7731   17.2420   44.5732 N   0  0  0  0  0  0  0  0  0  0  0  0
    1.6610   18.8299   42.0845 C   0  0  1  0  0  0  0  0  0  0  0  0
    3.6887   13.1971   39.4070 C   0  0  0  0  0  0  0  0  0  0  0  0
   -1.0732   18.3978   45.1902 C   0  0  0  0  0  0  0  0  0  0  0  0
    0.7327   18.5049   43.1496 C   0  0  0  0  0  0  0  0  0  0  0  0
    2.0086   18.1536   41.0320 N   0  0  0  0  0  0  0  0  0  0  0  0
   -0.9128   20.5794   45.5328 N   0  0  0  0  0  0  0  0  0  0  0  0
    2.7287   20.2111   40.6231 C   0  0  2  0  0  0  0  0  0  0  0  0
    2.2634   20.0492   41.9082 C   0  0  0  0  0  0  0  0  0  0  0  0
    3.3098   14.2971   39.0742 C   0  0  0  0  0  0  0  0  0  0  0  0
    3.1119   16.3533   39.9537 C   0  0  1  0  0  0  0  0  0  0  0  0
    0.1917   17.2701   43.5092 C   0  0  0  0  0  0  0  0  0  0  0  0
    3.1894   20.7253   39.5448 C   0  0  1  0  0  0  0  0  0  0  0  0
    2.2635   18.9406   40.0412 O   0  0  0  0  0  0  0  0  0  0  0  0
    2.8278   17.0077   38.6239 O   0  0  0  0  0  0  0  0  0  0  0  0
   -0.3931   19.5664   44.7609 C   0  0  0  0  0  0  0  0  0  0  0  0
    5.0255   13.2650   40.7955 H   0  0  0  0  0  0  0  0  0  0  0  0
    3.6597   12.4416   41.2030 H   0  0  0  0  0  0  0  0  0  0  0  0
   -2.6451   18.1158   48.1557 H   0  0  0  0  0  0  0  0  0  0  0  0
   -3.6593   17.7038   46.7315 H   0  0  0  0  0  0  0  0  0  0  0  0
   -2.1550   16.7789   47.0606 H   0  0  0  0  0  0  0  0  0  0  0  0
    2.5544   14.2236   41.7099 H   0  0  0  0  0  0  0  0  0  0  0  0
    4.1940   14.9857   41.6994 H   0  0  0  0  0  0  0  0  0  0  0  0
    4.6516   20.2613   38.2021 H   0  0  0  0  0  0  0  0  0  0  0  0
    3.0222   19.5858   37.8626 H   0  0  0  0  0  0  0  0  0  0  0  0
    3.3409   21.3347   37.6052 H   0  0  0  0  0  0  0  0  0  0  0  0
    2.6789   22.3483   40.3674 H   0  0  0  0  0  0  0  0  0  0  0  0
    4.0489   22.0828   40.7666 H   0  0  0  0  0  0  0  0  0  0  0  0
    2.4781   18.3633   42.6543 H   0  0  0  0  0  0  0  0  0  0  0  0
    4.5695   12.9084   38.8145 H   0  0  0  0  0  0  0  0  0  0  0  0
    2.9002   12.4490   39.2382 H   0  0  0  0  0  0  0  0  0  0  0  0
   -0.6997   21.5834   45.4461 H   0  0  0  0  0  0  0  0  0  0  0  0
    3.1099   20.1318   42.6058 H   0  0  0  0  0  0  0  0  0  0  0  0
    1.5134   20.8306   42.0999 H   0  0  0  0  0  0  0  0  0  0  0  0
    4.0659   14.7292   38.4022 H   0  0  0  0  0  0  0  0  0  0  0  0
    2.3302   14.1518   38.5954 H   0  0  0  0  0  0  0  0  0  0  0  0
    4.1396   16.7397   40.0209 H   0  0  0  0  0  0  0  0  0  0  0  0
    0.4945   16.3466   42.9938 H   0  0  0  0  0  0  0  0  0  0  0  0
    4.1031   20.2332   39.9095 H   0  0  0  0  0  0  0  0  0  0  0  0
    2.3876   17.8817   38.7736 H   0  0  0  0  0  0  0  0  0  0  0  0
  1  3  1  0
  6 27  1  0
  8 19  1  0
  9 17  1  0
  9  4  2  0
 10 22  1  0
 10  3  1  0
 11  7  2  0
 11  2  1  0
 12 15  1  0
 13 16  1  0
 14  1  1  0
 15 11  1  0
 16 23  1  0
 16  6  2  0
 17 13  1  0
 18  7  1  0
 19 20  1  0
 20 13  1  0
 21 14  1  0
 21 10  1  0
 22 26  1  0
 22  9  1  0
 23 12  2  0
 24  5  1  0
 24  8  1  0
 24 19  1  0
 19 25  1  1
 25 17  1  0
 27 15  2  0
 27 18  1  0
  1 28  1  0
  1 29  1  0
  2 30  1  0
  2 31  1  0
  2 32  1  0
  3 33  1  0
  3 34  1  0
  5 35  1  0
  5 36  1  0
  5 37  1  0
  8 38  1  0
  8 39  1  0
 13 40  1  1
 14 41  1  0
 14 42  1  0
 18 43  1  0
 20 44  1  0
 20 45  1  0
 21 46  1  0
 21 47  1  0
 22 48  1  1
 23 49  1  0
 24 50  1  6
 26 51  1  0
M  CHG  2   1   1   8   1
M  END
>  <mol_id>  (62) 
2026-09-18-6fnk-s0-n100-refligand-0063

>  <rmsd_to_ref>  (62) 


$$$$

     RDKit          3D

 65 69  0  0  0  0  0  0  0  0999 V2000
    1.0350   14.7536   39.0319 C   0  0  0  0  0  0  0  0  0  0  0  0
    4.8886   22.2409   40.8561 C   0  0  0  0  0  0  0  0  0  0  0  0
   -0.0281   20.7252   44.8095 C   0  0  0  0  0  0  0  0  0  0  0  0
    0.5457   14.9129   37.6451 C   0  0  0  0  0  0  0  0  0  0  0  0
    1.8430   19.9553   41.6766 C   0  0  1  0  0  0  0  0  0  0  0  0
    2.6310   20.5788   39.4767 N   0  0  0  0  0  0  0  0  0  0  0  0
    1.4459   17.5759   42.0520 N   0  0  0  0  0  0  0  0  0  0  0  0
    4.3054   20.8968   41.2895 C   0  0  0  0  0  0  0  0  0  0  0  0
    1.7124   17.0381   37.9716 C   0  0  0  0  0  0  0  0  0  0  0  0
    1.6886   18.6319   41.3205 C   0  0  0  0  0  0  0  0  0  0  0  0
    1.0954   17.5508   43.3278 C   0  0  0  0  0  0  0  0  0  0  0  0
    0.5633   20.1350   43.7073 C   0  0  0  0  0  0  0  0  0  0  0  0
    0.0112   18.5798   45.2678 C   0  0  0  0  0  0  0  0  0  0  0  0
    2.7634   20.1989   38.4163 C   0  0  0  0  0  0  0  0  0  0  0  0
   -1.5305   15.9183   47.1411 O   0  0  0  0  0  0  0  0  0  0  0  0
    1.3528   17.3053   39.3753 N   0  0  0  0  0  0  0  0  0  0  0  0
    2.9108   20.5222   40.8188 C   0  0  1  0  0  0  0  0  0  0  0  0
    1.9574   21.0405   38.8170 O   0  0  0  0  0  0  0  0  0  0  0  0
   -0.1072   17.2862   45.8831 C   0  0  0  0  0  0  0  0  0  0  0  0
   -1.8373   18.1277   47.4454 N   0  0  0  0  0  0  0  0  0  0  0  0
    1.2203   16.4197   44.0894 C   0  0  0  0  0  0  0  0  0  0  0  0
    0.5280   16.2082   45.2931 C   0  0  0  0  0  0  0  0  0  0  0  0
   -1.1218   17.1085   46.8995 C   0  0  0  0  0  0  0  0  0  0  0  0
    3.2705   19.6984   37.5549 O   0  0  0  0  0  0  0  0  0  0  0  0
    2.1418   18.2495   40.0954 N   0  0  0  0  0  0  0  0  0  0  0  0
   -0.2917   19.8192   45.7949 N   0  0  0  0  0  0  0  0  0  0  0  0
    0.5346   16.3611   37.2912 C   0  0  0  0  0  0  0  0  0  0  0  0
    0.4756   16.0986   39.8230 C   0  0  0  0  0  0  0  0  0  0  0  0
    5.4574   22.3093   39.4527 C   0  0  0  0  0  0  0  0  0  0  0  0
    5.9853   22.5042   41.8662 C   0  0  0  0  0  0  0  0  0  0  0  0
    2.2236   15.3580   43.5570 C   0  0  0  0  0  0  0  0  0  0  0  0
    1.2300   20.6411   42.6246 N   0  0  0  0  0  0  0  0  0  0  0  0
    0.5656   18.7044   44.0504 C   0  0  2  0  0  0  0  0  0  0  0  0
    2.1341   14.7172   39.0551 H   0  0  0  0  0  0  0  0  0  0  0  0
    0.6858   13.8189   39.4950 H   0  0  0  0  0  0  0  0  0  0  0  0
    4.0795   22.9855   40.8278 H   0  0  0  0  0  0  0  0  0  0  0  0
   -0.2585   21.7983   44.8830 H   0  0  0  0  0  0  0  0  0  0  0  0
    1.2105   14.3711   36.9562 H   0  0  0  0  0  0  0  0  0  0  0  0
   -0.4728   14.5053   37.5640 H   0  0  0  0  0  0  0  0  0  0  0  0
    2.6009   19.6278   42.4035 H   0  0  0  0  0  0  0  0  0  0  0  0
    4.9900   20.1151   40.9287 H   0  0  0  0  0  0  0  0  0  0  0  0
    4.2037   20.9887   42.3810 H   0  0  0  0  0  0  0  0  0  0  0  0
    1.9416   17.9850   37.4608 H   0  0  0  0  0  0  0  0  0  0  0  0
    2.5977   16.3868   37.9273 H   0  0  0  0  0  0  0  0  0  0  0  0
    3.3386   19.5174   40.6873 H   0  0  0  0  0  0  0  0  0  0  0  0
   -2.5461   17.9310   48.1663 H   0  0  0  0  0  0  0  0  0  0  0  0
   -1.6705   19.0965   47.1380 H   0  0  0  0  0  0  0  0  0  0  0  0
    0.4918   15.2105   45.7549 H   0  0  0  0  0  0  0  0  0  0  0  0
    3.0174   18.6262   39.7052 H   0  0  0  0  0  0  0  0  0  0  0  0
    0.6208   16.4763   36.2007 H   0  0  0  0  0  0  0  0  0  0  0  0
   -0.4067   16.8214   37.6260 H   0  0  0  0  0  0  0  0  0  0  0  0
   -0.5762   16.2801   39.5571 H   0  0  0  0  0  0  0  0  0  0  0  0
    0.5358   15.9596   40.9126 H   0  0  0  0  0  0  0  0  0  0  0  0
    6.5214   22.5842   39.5013 H   0  0  0  0  0  0  0  0  0  0  0  0
    5.3541   21.3278   38.9669 H   0  0  0  0  0  0  0  0  0  0  0  0
    4.9095   23.0656   38.8714 H   0  0  0  0  0  0  0  0  0  0  0  0
    5.5610   22.4867   42.8810 H   0  0  0  0  0  0  0  0  0  0  0  0
    6.7587   21.7269   41.7788 H   0  0  0  0  0  0  0  0  0  0  0  0
    6.4329   23.4902   41.6729 H   0  0  0  0  0  0  0  0  0  0  0  0
    2.7850   14.9287   44.4000 H   0  0  0  0  0  0  0  0  0  0  0  0
    1.6721   14.5594   43.0393 H   0  0  0  0  0  0  0  0  0  0  0  0
    2.9237   15.8346   42.8551 H   0  0  0  0  0  0  0  0  0  0  0  0
    1.9575   21.2520   43.0228 H   0  0  0  0  0  0  0  0  0  0  0  0
    0.4260   20.9895   42.0831 H   0  0  0  0  0  0  0  0  0  0  0  0
   -0.4009   18.5803   43.5399 H   0  0  0  0  0  0  0  0  0  0  0  0
  1 28  1  0
  2  8  1  0
  2 30  1  0
  3 26  1  0
  4  1  1  0
  5 17  1  0
  5 32  1  0
  6 17  1  0
  7 11  1  0
  9 16  1  0
 10  5  1  0
 10  7  2  0
 11 21  2  0
 12 33  1  0
 12  3  2  0
 13 19  1  0
 13 26  2  0
 14 18  1  0
 14  6  1  0
 16 28  1  0
 16 25  1  0
 17  8  1  0
 18  6  1  0
 19 23  1  0
 21 22  1  0
 22 19  2  0
 23 15  2  0
 23 20  1  0
 24 14  2  0
 25 10  1  0
 27  4  1  0
 27  9  1  0
 29  2  1  0
 31 21  1  0
 32 12  1  0
 33 11  1  0
 33 13  1  0
  1 34  1  0
  1 35  1  0
  2 36  1  0
  3 37  1  0
  4 38  1  0
  4 39  1  0
  5 40  1  1
  8 41  1  0
  8 42  1  0
  9 43  1  0
  9 44  1  0
 17 45  1  1
 20 46  1  0
 20 47  1  0
 22 48  1  0
 25 49  1  0
 27 50  1  0
 27 51  1  0
 28 52  1  0
 28 53  1  0
 29 54  1  0
 29 55  1  0
 29 56  1  0
 30 57  1  0
 30 58  1  0
 30 59  1  0
 31 60  1  0
 31 61  1  0
 31 62  1  0
 32 63  1  0
 32 64  1  0
 33 65  1  6
M  CHG  1  32   1
M  END
>  <mol_id>  (63) 
2026-09-18-6fnk-s0-n100-refligand-0064

>  <rmsd_to_ref>  (63) 


$$$$

     RDKit          3D

 38 40  0  0  0  0  0  0  0  0999 V2000
    0.3342   19.9132   44.5460 C   0  0  2  0  0  0  0  0  0  0  0  0
    0.9048   20.2111   43.4184 C   0  0  0  0  0  0  0  0  0  0  0  0
   -0.5821   16.4577   46.1668 S   0  0  0  0  0  0  0  0  0  0  0  0
   -1.3562   18.7694   48.2736 C   0  0  0  0  0  0  0  0  0  0  0  0
    2.1533   20.9115   40.0176 C   0  0  0  0  0  0  0  0  0  0  0  0
   -0.4456   18.1958   46.0749 C   0  0  0  0  0  0  0  0  0  0  0  0
    0.9206   21.9413   41.7307 O   0  0  0  0  0  0  0  0  0  0  0  0
    1.4543   17.1809   43.1997 C   0  0  0  0  0  0  0  0  0  0  0  0
    1.6269   20.5883   42.1055 C   0  0  2  0  0  0  0  0  0  0  0  0
   -0.6054   20.3848   46.6295 C   0  0  0  0  0  0  0  0  0  0  0  0
   -0.3822   16.3007   44.7208 C   0  0  0  0  0  0  0  0  0  0  0  0
   -0.1331   20.7962   45.4113 C   0  0  0  0  0  0  0  0  0  0  0  0
   -0.8202   19.1162   46.9694 C   0  0  0  0  0  0  0  0  0  0  0  0
    0.5295   17.4947   44.3343 C   0  0  2  0  0  0  0  0  0  0  0  0
    1.9472   19.8507   40.8703 C   0  0  0  0  0  0  0  0  0  0  0  0
    0.2083   18.5519   44.9317 C   0  0  0  0  0  0  0  0  0  0  0  0
    1.5433   22.0626   40.4677 N   0  0  0  0  0  0  0  0  0  0  0  0
    2.8475   20.8802   38.7178 C   0  0  0  0  0  0  0  0  0  0  0  0
   -0.1399   22.0558   45.2497 O   0  0  0  0  0  0  0  0  0  0  0  0
   -0.6404   19.8597   44.0388 H   0  0  0  0  0  0  0  0  0  0  0  0
    0.8407   19.1615   43.0953 H   0  0  0  0  0  0  0  0  0  0  0  0
    0.3922   21.1843   43.4161 H   0  0  0  0  0  0  0  0  0  0  0  0
   -0.7412   19.2345   49.0582 H   0  0  0  0  0  0  0  0  0  0  0  0
   -2.3906   19.1347   48.3539 H   0  0  0  0  0  0  0  0  0  0  0  0
   -1.3426   17.6764   48.3968 H   0  0  0  0  0  0  0  0  0  0  0  0
    2.4754   17.0454   43.5857 H   0  0  0  0  0  0  0  0  0  0  0  0
    1.1245   16.2566   42.7028 H   0  0  0  0  0  0  0  0  0  0  0  0
    1.4425   18.0100   42.4769 H   0  0  0  0  0  0  0  0  0  0  0  0
    2.6603   20.4164   42.4407 H   0  0  0  0  0  0  0  0  0  0  0  0
   -0.8227   21.1585   47.3807 H   0  0  0  0  0  0  0  0  0  0  0  0
    0.1114   15.3436   44.4963 H   0  0  0  0  0  0  0  0  0  0  0  0
   -1.3293   16.2937   44.1614 H   0  0  0  0  0  0  0  0  0  0  0  0
    1.4611   18.0634   44.4710 H   0  0  0  0  0  0  0  0  0  0  0  0
    1.1099   19.2173   40.5420 H   0  0  0  0  0  0  0  0  0  0  0  0
    2.7877   19.1457   40.9512 H   0  0  0  0  0  0  0  0  0  0  0  0
    3.9251   21.0367   38.8738 H   0  0  0  0  0  0  0  0  0  0  0  0
    2.6844   19.9037   38.2384 H   0  0  0  0  0  0  0  0  0  0  0  0
    2.4512   21.6770   38.0712 H   0  0  0  0  0  0  0  0  0  0  0  0
  1  2  1  0
  1 16  1  0
  1 12  1  0
  3  6  1  0
  5 17  2  0
  5 15  1  0
  6 13  1  0
  7  9  1  0
  9  2  1  0
 10 13  2  0
 11  3  1  0
 12 10  1  0
 13  4  1  0
 14  8  1  0
 14 11  1  0
 14 16  1  0
 15  9  1  0
 16  6  2  0
 17  7  1  0
 18  5  1  0
 19 12  2  0
  1 20  1  6
  2 21  1  0
  2 22  1  0
  4 23  1  0
  4 24  1  0
  4 25  1  0
  8 26  1  0
  8 27  1  0
  8 28  1  0
  9 29  1  1
 10 30  1  0
 11 31  1  0
 11 32  1  0
 14 33  1  1
 15 34  1  0
 15 35  1  0
 18 36  1  0
 18 37  1  0
 18 38  1  0
M  END
>  <mol_id>  (64) 
2026-09-18-6fnk-s0-n100-refligand-0065

>  <rmsd_to_ref>  (64) 


$$$$

     RDKit          3D

 20 22  0  0  0  0  0  0  0  0999 V2000
    2.6572   18.4954   40.4374 C   0  0  0  0  0  0  0  0  0  0  0  0
    2.2852   15.9095   39.6932 Cl  0  0  0  0  0  0  0  0  0  0  0  0
   -0.7044   20.3689   44.8755 N   0  0  0  0  0  0  0  0  0  0  0  0
    0.2020   19.9939   44.0064 C   0  0  0  0  0  0  0  0  0  0  0  0
    2.4645   19.6824   41.2142 C   0  0  0  0  0  0  0  0  0  0  0  0
    2.0090   17.2844   40.6425 C   0  0  0  0  0  0  0  0  0  0  0  0
    1.1974   17.1495   41.8598 C   0  0  0  0  0  0  0  0  0  0  0  0
   -0.5077   17.8179   45.0945 S   0  0  0  0  0  0  0  0  0  0  0  0
    1.0105   18.3461   42.6277 C   0  0  0  0  0  0  0  0  0  0  0  0
    0.3548   18.5717   43.8371 C   0  0  1  0  0  0  0  0  0  0  0  0
    1.0463   20.6423   43.0607 N   0  0  0  0  0  0  0  0  0  0  0  0
   -1.1369   19.3329   45.5105 C   0  0  0  0  0  0  0  0  0  0  0  0
    1.5186   19.6329   42.2485 C   0  0  0  0  0  0  0  0  0  0  0  0
    3.3789   18.5468   39.6089 H   0  0  0  0  0  0  0  0  0  0  0  0
    3.0368   20.5988   41.0076 H   0  0  0  0  0  0  0  0  0  0  0  0
    0.7591   16.1875   42.1642 H   0  0  0  0  0  0  0  0  0  0  0  0
    0.7394   17.5415   43.8661 H   0  0  0  0  0  0  0  0  0  0  0  0
    1.2585   21.6482   42.9971 H   0  0  0  0  0  0  0  0  0  0  0  0
   -0.9238   19.4923   46.5778 H   0  0  0  0  0  0  0  0  0  0  0  0
   -2.2003   19.2703   45.2364 H   0  0  0  0  0  0  0  0  0  0  0  0
  1  6  1  0
  1  5  2  0
  2  6  1  0
  3 12  1  0
  4  3  2  0
  5 13  1  0
  6  7  2  0
  7  9  1  0
  8 12  1  0
 10  9  1  0
 10  4  1  0
 10  8  1  0
 11  4  1  0
 13  9  2  0
 13 11  1  0
  1 14  1  0
  5 15  1  0
  7 16  1  0
 10 17  1  1
 11 18  1  0
 12 19  1  0
 12 20  1  0
M  END
>  <mol_id>  (65) 
2026-09-18-6fnk-s0-n100-refligand-0066

>  <rmsd_to_ref>  (65) 


$$$$

     RDKit          3D

 44 46  0  0  0  0  0  0  0  0999 V2000
    1.6179   20.4484   42.1873 C   0  0  0  0  0  0  0  0  0  0  0  0
   -0.7085   18.0191   45.8180 C   0  0  0  0  0  0  0  0  0  0  0  0
    3.2893   21.0728   38.8253 C   0  0  0  0  0  0  0  0  0  0  0  0
   -0.0830   19.6149   44.2464 C   0  0  0  0  0  0  0  0  0  0  0  0
    2.4738   20.7898   39.8740 C   0  0  0  0  0  0  0  0  0  0  0  0
    2.5873   21.0010   41.2315 C   0  0  0  0  0  0  0  0  0  0  0  0
   -0.0505   15.8841   47.2033 N   0  0  0  0  0  0  0  0  0  0  0  0
    0.6208   21.2404   42.7163 C   0  0  0  0  0  0  0  0  0  0  0  0
    0.6277   15.9744   46.0395 C   0  0  0  0  0  0  0  0  0  0  0  0
    3.2564   15.8576   43.0376 C   0  0  0  0  0  0  0  0  0  0  0  0
   -0.3083   14.5603   47.7273 C   0  0  0  0  0  0  0  0  0  0  0  0
    0.3848   17.2413   45.3748 C   0  0  2  0  0  0  0  0  0  0  0  0
    1.2468   15.0498   45.5898 O   0  0  0  0  0  0  0  0  0  0  0  0
    1.8035   19.1818   42.5792 N   0  0  0  0  0  0  0  0  0  0  0  0
    4.6376   21.4041   38.7486 C   0  0  0  0  0  0  0  0  0  0  0  0
   -0.8538   19.2382   45.3130 N   0  0  0  0  0  0  0  0  0  0  0  0
    6.6445   21.9893   39.5764 F   0  0  0  0  0  0  0  0  0  0  0  0
    3.3956   14.3267   43.1845 C   0  0  0  0  0  0  0  0  0  0  0  0
    2.4041   16.5521   43.5754 C   0  0  0  0  0  0  0  0  0  0  0  0
    1.0079   18.7353   43.6984 C   0  0  1  0  0  0  0  0  0  0  0  0
    1.2601   17.4475   44.1891 C   0  0  0  0  0  0  0  0  0  0  0  0
    5.3863   21.7697   39.8228 C   0  0  0  0  0  0  0  0  0  0  0  0
    4.9742   22.0025   41.1590 C   0  0  0  0  0  0  0  0  0  0  0  0
    5.7271   22.7812   41.8643 F   0  0  0  0  0  0  0  0  0  0  0  0
    3.7848   21.5219   41.7239 C   0  0  0  0  0  0  0  0  0  0  0  0
   -0.2168   20.8488   43.6783 N   0  0  0  0  0  0  0  0  0  0  0  0
   -1.6250   17.4575   45.5847 H   0  0  0  0  0  0  0  0  0  0  0  0
   -0.5093   18.1875   46.8866 H   0  0  0  0  0  0  0  0  0  0  0  0
    2.7860   21.0320   37.8480 H   0  0  0  0  0  0  0  0  0  0  0  0
    1.5370   21.3042   39.6139 H   0  0  0  0  0  0  0  0  0  0  0  0
    2.6934   19.7124   39.9050 H   0  0  0  0  0  0  0  0  0  0  0  0
   -0.3726   16.7269   47.7000 H   0  0  0  0  0  0  0  0  0  0  0  0
    0.5087   22.2603   42.3198 H   0  0  0  0  0  0  0  0  0  0  0  0
    3.9871   16.3685   42.3933 H   0  0  0  0  0  0  0  0  0  0  0  0
   -0.4535   14.6189   48.8161 H   0  0  0  0  0  0  0  0  0  0  0  0
   -1.2149   14.1504   47.2580 H   0  0  0  0  0  0  0  0  0  0  0  0
    0.5473   13.9054   47.5062 H   0  0  0  0  0  0  0  0  0  0  0  0
   -0.2693   16.7353   44.6494 H   0  0  0  0  0  0  0  0  0  0  0  0
    5.1258   21.3682   37.7635 H   0  0  0  0  0  0  0  0  0  0  0  0
    3.3132   14.0512   44.2463 H   0  0  0  0  0  0  0  0  0  0  0  0
    2.5975   13.8295   42.6137 H   0  0  0  0  0  0  0  0  0  0  0  0
    4.3753   14.0088   42.7982 H   0  0  0  0  0  0  0  0  0  0  0  0
    0.2610   18.3242   43.0033 H   0  0  0  0  0  0  0  0  0  0  0  0
    3.7986   21.5661   42.8230 H   0  0  0  0  0  0  0  0  0  0  0  0
  1 14  2  0
  1  8  1  0
  3  5  1  0
  4 16  2  0
  5  6  1  0
  6 25  2  0
  6  1  1  0
  7 11  1  0
  8 26  2  0
  9  7  1  0
 10 19  2  0
 12  9  1  0
 12  2  1  0
 13  9  2  0
 15  3  2  0
 15 22  1  0
 16  2  1  0
 17 22  1  0
 18 10  1  0
 19 21  2  0
 20 14  1  0
 20 21  1  0
 20  4  1  0
 21 12  1  0
 22 23  2  0
 23 25  1  0
 23 24  1  0
 26  4  1  0
  2 27  1  0
  2 28  1  0
  3 29  1  0
  5 30  1  0
  5 31  1  0
  7 32  1  0
  8 33  1  0
 10 34  1  0
 11 35  1  0
 11 36  1  0
 11 37  1  0
 12 38  1  1
 15 39  1  0
 18 40  1  0
 18 41  1  0
 18 42  1  0
 20 43  1  1
 25 44  1  0
M  END
>  <mol_id>  (66) 
2026-09-18-6fnk-s0-n100-refligand-0067

>  <rmsd_to_ref>  (66) 


$$$$

     RDKit          3D

 36 35  0  0  0  0  0  0  0  0999 V2000
    0.2714   17.8088   45.1928 O   0  0  0  0  0  0  0  0  0  0  0  0
    0.4096   16.6164   44.4957 C   0  0  0  0  0  0  0  0  0  0  0  0
    3.9747   20.8533   39.3563 N   0  0  0  0  0  0  0  0  0  0  0  0
    1.8700   15.0003   43.2793 C   0  0  0  0  0  0  0  0  0  0  0  0
    2.0428   19.3025   41.1622 N   0  0  0  0  0  0  0  0  0  0  0  0
    1.4242   17.3356   42.2690 C   0  0  0  0  0  0  0  0  0  0  0  0
    1.3483   18.9186   42.2636 C   0  0  1  0  0  0  0  0  0  0  0  0
   -0.2348   15.6676   44.9520 O   0  0  0  0  0  0  0  0  0  0  0  0
    3.4208   20.0601   38.4022 O   0  0  0  0  0  0  0  0  0  0  0  0
    0.8018   19.9574   42.9774 C   0  0  0  0  0  0  0  0  0  0  0  0
    0.1616   21.0417   43.3499 N   0  0  0  0  0  0  0  0  0  0  0  0
    3.9780   20.7843   41.5643 O   0  0  0  0  0  0  0  0  0  0  0  0
    1.1786   16.4303   43.3985 C   0  0  2  0  0  0  0  0  0  0  0  0
    3.3269   20.7595   40.4533 C   0  0  0  0  0  0  0  0  0  0  0  0
   -0.8508   18.0970   46.0725 C   0  0  0  0  0  0  0  0  0  0  0  0
    2.0968   20.5140   40.4008 C   0  0  0  0  0  0  0  0  0  0  0  0
    1.8846   16.8959   41.2641 O   0  0  0  0  0  0  0  0  0  0  0  0
    4.8033   21.4485   39.2145 H   0  0  0  0  0  0  0  0  0  0  0  0
    2.1265   14.6321   44.2836 H   0  0  0  0  0  0  0  0  0  0  0  0
    1.1757   14.2964   42.7970 H   0  0  0  0  0  0  0  0  0  0  0  0
    2.7851   15.0848   42.6749 H   0  0  0  0  0  0  0  0  0  0  0  0
    3.0235   19.1576   41.4417 H   0  0  0  0  0  0  0  0  0  0  0  0
    1.4584   18.7861   40.4892 H   0  0  0  0  0  0  0  0  0  0  0  0
    0.4259   18.8723   41.6659 H   0  0  0  0  0  0  0  0  0  0  0  0
    2.8554   19.3711   38.8333 H   0  0  0  0  0  0  0  0  0  0  0  0
    0.2771   19.3025   43.6887 H   0  0  0  0  0  0  0  0  0  0  0  0
    1.5140   20.6180   42.4615 H   0  0  0  0  0  0  0  0  0  0  0  0
    0.2008   21.1283   44.3755 H   0  0  0  0  0  0  0  0  0  0  0  0
    0.6030   21.8663   42.9186 H   0  0  0  0  0  0  0  0  0  0  0  0
   -0.8213   20.9810   43.0478 H   0  0  0  0  0  0  0  0  0  0  0  0
    0.2840   16.0401   42.8912 H   0  0  0  0  0  0  0  0  0  0  0  0
   -0.4956   18.1585   47.1117 H   0  0  0  0  0  0  0  0  0  0  0  0
   -1.3065   19.0555   45.7835 H   0  0  0  0  0  0  0  0  0  0  0  0
   -1.5988   17.2949   45.9875 H   0  0  0  0  0  0  0  0  0  0  0  0
    1.5023   21.3138   40.8665 H   0  0  0  0  0  0  0  0  0  0  0  0
    1.6868   20.4358   39.3831 H   0  0  0  0  0  0  0  0  0  0  0  0
  1 15  1  0
  2  8  2  0
  2  1  1  0
  3 14  1  0
  5  7  1  0
  6  7  1  0
  6 13  1  0
  7 10  1  0
  9  3  1  0
 10 11  1  0
 13  4  1  0
 13  2  1  0
 14 12  2  0
 16 14  1  0
 16  5  1  0
 17  6  2  0
  3 18  1  0
  4 19  1  0
  4 20  1  0
  4 21  1  0
  5 22  1  0
  5 23  1  0
  7 24  1  6
  9 25  1  0
 10 26  1  0
 10 27  1  0
 11 28  1  0
 11 29  1  0
 11 30  1  0
 13 31  1  1
 15 32  1  0
 15 33  1  0
 15 34  1  0
 16 35  1  0
 16 36  1  0
M  CHG  2   5   1  11   1
M  END
>  <mol_id>  (67) 
2026-09-18-6fnk-s0-n100-refligand-0068

>  <rmsd_to_ref>  (67) 


$$$$

     RDKit          3D

 58 61  0  0  0  0  0  0  0  0999 V2000
    5.0958   22.2861   39.6598 C   0  0  0  0  0  0  0  0  0  0  0  0
   -1.6535   17.2965   47.4747 C   0  0  0  0  0  0  0  0  0  0  0  0
    2.8536   16.2595   41.6487 C   0  0  1  0  0  0  0  0  0  0  0  0
    1.1596   18.8273   44.3900 N   0  0  0  0  0  0  0  0  0  0  0  0
    4.6214   21.6443   37.6167 N   0  0  0  0  0  0  0  0  0  0  0  0
    2.8196   18.2730   40.3322 C   0  0  0  0  0  0  0  0  0  0  0  0
   -0.9722   18.4115   46.6603 C   0  0  0  0  0  0  0  0  0  0  0  0
    3.1125   20.1143   37.2390 O   0  0  0  0  0  0  0  0  0  0  0  0
    0.1954   19.3009   45.2512 C   0  0  0  0  0  0  0  0  0  0  0  0
    2.5022   18.9372   41.7094 C   0  0  2  0  0  0  0  0  0  0  0  0
   -2.9674   15.6911   49.1949 N   0  0  0  0  0  0  0  0  0  0  0  0
    0.0095   16.7111   45.3930 C   0  0  0  0  0  0  0  0  0  0  0  0
    3.5747   20.5929   39.3431 N   0  0  0  0  0  0  0  0  0  0  0  0
    0.0613   20.7977   45.3008 C   0  0  0  0  0  0  0  0  0  0  0  0
    3.8869   20.9175   41.4592 O   0  0  0  0  0  0  0  0  0  0  0  0
    4.1776   21.3628   40.1297 C   0  0  0  0  0  0  0  0  0  0  0  0
   -0.4243   15.7137   46.3345 C   0  0  0  0  0  0  0  0  0  0  0  0
    2.1799   18.1501   42.5802 C   0  0  1  0  0  0  0  0  0  0  0  0
    2.5407   16.8326   42.8559 C   0  0  0  0  0  0  0  0  0  0  0  0
    2.8756   16.9748   40.4714 C   0  0  0  0  0  0  0  0  0  0  0  0
   -1.2976   16.1768   47.2988 C   0  0  0  0  0  0  0  0  0  0  0  0
    3.7761   20.7574   38.0700 C   0  0  0  0  0  0  0  0  0  0  0  0
    3.4213   14.8822   41.6891 N   0  0  0  0  0  0  0  0  0  0  0  0
   -2.0322   16.1978   48.2177 C   0  0  1  0  0  0  0  0  0  0  0  0
   -0.4514   21.3598   44.1039 O   0  0  0  0  0  0  0  0  0  0  0  0
    2.7462   19.9951   41.3051 C   0  0  0  0  0  0  0  0  0  0  0  0
   -0.2990   18.1273   45.6876 C   0  0  0  0  0  0  0  0  0  0  0  0
    5.2816   22.3607   38.3506 C   0  0  0  0  0  0  0  0  0  0  0  0
    1.7973   19.2005   43.7004 C   0  0  0  0  0  0  0  0  0  0  0  0
    4.7673   23.2787   40.0018 H   0  0  0  0  0  0  0  0  0  0  0  0
    6.0623   21.9430   40.0577 H   0  0  0  0  0  0  0  0  0  0  0  0
    1.8052   16.1817   41.3252 H   0  0  0  0  0  0  0  0  0  0  0  0
    2.0290   18.5295   39.6116 H   0  0  0  0  0  0  0  0  0  0  0  0
    3.7885   18.6419   39.9646 H   0  0  0  0  0  0  0  0  0  0  0  0
   -1.0941   19.4635   46.9575 H   0  0  0  0  0  0  0  0  0  0  0  0
    3.5521   18.8109   42.0122 H   0  0  0  0  0  0  0  0  0  0  0  0
   -2.6936   16.0164   50.1331 H   0  0  0  0  0  0  0  0  0  0  0  0
   -3.9133   16.0342   48.9751 H   0  0  0  0  0  0  0  0  0  0  0  0
   -2.9621   14.6613   49.1735 H   0  0  0  0  0  0  0  0  0  0  0  0
    0.5549   16.4287   44.4804 H   0  0  0  0  0  0  0  0  0  0  0  0
   -0.6165   21.0594   46.1266 H   0  0  0  0  0  0  0  0  0  0  0  0
    1.0716   21.2085   45.4443 H   0  0  0  0  0  0  0  0  0  0  0  0
   -0.0878   14.6673   46.2898 H   0  0  0  0  0  0  0  0  0  0  0  0
    1.5584   17.3454   42.1606 H   0  0  0  0  0  0  0  0  0  0  0  0
    1.7018   16.2980   43.3255 H   0  0  0  0  0  0  0  0  0  0  0  0
    3.3907   16.7877   43.5527 H   0  0  0  0  0  0  0  0  0  0  0  0
    2.0217   16.5922   39.8932 H   0  0  0  0  0  0  0  0  0  0  0  0
    3.9275   16.8156   40.1914 H   0  0  0  0  0  0  0  0  0  0  0  0
    3.5825   14.6059   42.6681 H   0  0  0  0  0  0  0  0  0  0  0  0
    2.7597   14.2252   41.2514 H   0  0  0  0  0  0  0  0  0  0  0  0
    4.3140   14.8637   41.1757 H   0  0  0  0  0  0  0  0  0  0  0  0
   -2.3727   15.6186   49.0885 H   0  0  0  0  0  0  0  0  0  0  0  0
   -1.0014   22.1537   44.3213 H   0  0  0  0  0  0  0  0  0  0  0  0
    2.6797   19.8642   40.2150 H   0  0  0  0  0  0  0  0  0  0  0  0
    2.0889   20.5272   42.0086 H   0  0  0  0  0  0  0  0  0  0  0  0
    6.0209   23.0589   37.9310 H   0  0  0  0  0  0  0  0  0  0  0  0
    2.7179   19.5199   44.2107 H   0  0  0  0  0  0  0  0  0  0  0  0
    1.2904   20.0411   43.2040 H   0  0  0  0  0  0  0  0  0  0  0  0
  1 16  1  0
  2 24  1  0
  3 23  1  0
  3 19  1  0
  4  9  2  3
  5 22  1  0
  5 28  2  0
  6 10  1  0
  7  2  1  0
  8 22  2  0
  9 14  1  0
  9 27  1  0
 10 26  1  0
 10 18  1  0
 12 27  1  0
 12 17  2  0
 13 16  2  0
 16 15  1  0
 17 21  1  0
 18 19  1  0
 18 29  1  0
 20  6  1  0
 20  3  1  0
 21  2  2  0
 21 24  1  0
 22 13  1  0
 24 11  1  0
 25 14  1  0
 26 15  1  0
 27  7  2  0
 28  1  1  0
 29  4  1  0
  1 30  1  0
  1 31  1  0
  3 32  1  6
  6 33  1  0
  6 34  1  0
  7 35  1  0
 10 36  1  1
 11 37  1  0
 11 38  1  0
 11 39  1  0
 12 40  1  0
 14 41  1  0
 14 42  1  0
 17 43  1  0
 18 44  1  6
 19 45  1  0
 19 46  1  0
 20 47  1  0
 20 48  1  0
 23 49  1  0
 23 50  1  0
 23 51  1  0
 24 52  1  1
 25 53  1  0
 26 54  1  0
 26 55  1  0
 28 56  1  0
 29 57  1  0
 29 58  1  0
M  CHG  2  11   1  23   1
M  END
>  <mol_id>  (68) 
2026-09-18-6fnk-s0-n100-refligand-0070

>  <rmsd_to_ref>  (68) 


$$$$

     RDKit          3D

 20 21  0  0  0  0  0  0  0  0999 V2000
    1.6287   15.8351   44.3640 N   0  0  0  0  0  0  0  0  0  0  0  0
   -0.2655   20.3646   44.6861 O   0  0  0  0  0  0  0  0  0  0  0  0
    3.5651   14.8509   41.5424 C   0  0  0  0  0  0  0  0  0  0  0  0
    1.9085   18.4869   42.7570 C   0  0  1  0  0  0  0  0  0  0  0  0
    2.8826   14.8035   42.6364 C   0  0  0  0  0  0  0  0  0  0  0  0
    2.4789   17.2066   42.5001 C   0  0  0  0  0  0  0  0  0  0  0  0
    2.2632   15.9753   43.2070 C   0  0  0  0  0  0  0  0  0  0  0  0
    3.2815   17.1613   41.4401 N   0  0  0  0  0  0  0  0  0  0  0  0
   -0.3327   19.3441   45.3710 N   0  0  0  0  0  0  0  0  0  0  0  0
    0.4688   20.2121   43.5542 N   0  0  0  0  0  0  0  0  0  0  0  0
    0.4647   18.4327   44.7697 N   0  0  0  0  0  0  0  0  0  0  0  0
    2.2881   19.4963   42.0193 O   0  0  0  0  0  0  0  0  0  0  0  0
    3.7632   16.0041   40.8859 N   0  0  0  0  0  0  0  0  0  0  0  0
    0.9613   18.8111   43.7807 C   0  0  0  0  0  0  0  0  0  0  0  0
    1.1737   16.6479   44.8036 H   0  0  0  0  0  0  0  0  0  0  0  0
    1.5912   14.9135   44.8224 H   0  0  0  0  0  0  0  0  0  0  0  0
    3.9953   13.9228   41.1379 H   0  0  0  0  0  0  0  0  0  0  0  0
    2.7333   18.6879   43.4564 H   0  0  0  0  0  0  0  0  0  0  0  0
    2.7692   13.8380   43.1510 H   0  0  0  0  0  0  0  0  0  0  0  0
    2.5813   20.2400   42.6034 H   0  0  0  0  0  0  0  0  0  0  0  0
  2  9  1  0
  3  5  2  0
  4 12  1  0
  4 14  1  0
  5  7  1  0
  6  4  1  0
  6  7  2  0
  7  1  1  0
  8  6  1  0
 10 14  2  0
 10  2  1  0
 11  9  2  0
 13  3  1  0
 13  8  2  0
 14 11  1  0
  1 15  1  0
  1 16  1  0
  3 17  1  0
  4 18  1  1
  5 19  1  0
 12 20  1  0
M  END
>  <mol_id>  (69) 
2026-09-18-6fnk-s0-n100-refligand-0071

>  <rmsd_to_ref>  (69) 


$$$$

     RDKit          3D

 55 57  0  0  0  0  0  0  0  0999 V2000
   -0.9350   18.5350   45.8250 C   0  0  0  0  0  0  0  0  0  0  0  0
   -1.4470   17.4090   44.8790 C   0  0  0  0  0  0  0  0  0  0  0  0
    0.8820   20.1000   42.8410 C   0  0  0  0  0  0  0  0  0  0  0  0
    1.7930   16.5110   39.3460 C   0  0  0  0  0  0  0  0  0  0  0  0
    3.2490   17.7250   41.2410 C   0  0  0  0  0  0  0  0  0  0  0  0
    0.2440   21.1110   43.5120 C   0  0  0  0  0  0  0  0  0  0  0  0
    0.5840   14.6090   43.8940 C   0  0  0  0  0  0  0  0  0  0  0  0
    0.1180   15.6660   44.6680 C   0  0  0  0  0  0  0  0  0  0  0  0
    2.7230   16.6780   37.9920 O   0  0  0  0  0  0  0  0  0  0  0  0
   -0.4810   20.7290   44.7400 O   0  0  0  0  0  0  0  0  0  0  0  0
    0.5040   19.0010   43.7660 C   0  0  2  0  0  0  0  0  0  0  0  0
    0.0450   17.7140   43.1790 C   0  0  0  0  0  0  0  0  0  0  0  0
   -0.0550   19.4690   45.0420 C   0  0  2  0  0  0  0  0  0  0  0  0
    3.1520   14.1050   41.1200 C   0  0  0  0  0  0  0  0  0  0  0  0
    1.9810   20.4840   40.5000 C   0  0  0  0  0  0  0  0  0  0  0  0
    3.4470   15.4780   40.4230 C   0  0  0  0  0  0  0  0  0  0  0  0
    2.8150   14.2570   42.6320 C   0  0  0  0  0  0  0  0  0  0  0  0
    1.4400   14.7400   42.6250 C   0  0  0  0  0  0  0  0  0  0  0  0
   -0.4050   16.7820   44.2120 N   0  0  0  0  0  0  0  0  0  0  0  0
    2.3560   16.4960   40.7910 C   0  0  2  0  0  0  0  0  0  0  0  0
    2.9080   18.9030   42.1550 C   0  0  0  0  0  0  0  0  0  0  0  0
    1.7480   19.8330   41.8340 C   0  0  1  0  0  0  0  0  0  0  0  0
   -1.7915   19.0911   46.2339 H   0  0  0  0  0  0  0  0  0  0  0  0
   -0.3630   18.0927   46.6540 H   0  0  0  0  0  0  0  0  0  0  0  0
   -1.9883   16.6608   45.4767 H   0  0  0  0  0  0  0  0  0  0  0  0
   -2.1064   17.8679   44.1276 H   0  0  0  0  0  0  0  0  0  0  0  0
    1.0719   17.3411   39.3161 H   0  0  0  0  0  0  0  0  0  0  0  0
    1.4593   15.4680   39.2419 H   0  0  0  0  0  0  0  0  0  0  0  0
    3.5523   18.1976   40.2951 H   0  0  0  0  0  0  0  0  0  0  0  0
    3.9025   17.1824   41.9399 H   0  0  0  0  0  0  0  0  0  0  0  0
    0.2708   22.1510   43.1546 H   0  0  0  0  0  0  0  0  0  0  0  0
    1.1755   13.9852   44.5803 H   0  0  0  0  0  0  0  0  0  0  0  0
   -0.3621   14.2624   43.4526 H   0  0  0  0  0  0  0  0  0  0  0  0
   -0.6543   15.2295   45.3184 H   0  0  0  0  0  0  0  0  0  0  0  0
    1.0723   16.0499   45.0577 H   0  0  0  0  0  0  0  0  0  0  0  0
    3.6623   16.8467   38.2555 H   0  0  0  0  0  0  0  0  0  0  0  0
    1.4632   18.5751   44.0953 H   0  0  0  0  0  0  0  0  0  0  0  0
   -0.7890   17.9131   42.4899 H   0  0  0  0  0  0  0  0  0  0  0  0
    0.8925   17.2562   42.6478 H   0  0  0  0  0  0  0  0  0  0  0  0
    0.6850   19.4918   45.8556 H   0  0  0  0  0  0  0  0  0  0  0  0
    4.0392   13.4624   41.0204 H   0  0  0  0  0  0  0  0  0  0  0  0
    2.2725   13.6652   40.6270 H   0  0  0  0  0  0  0  0  0  0  0  0
    2.3481   21.5098   40.6517 H   0  0  0  0  0  0  0  0  0  0  0  0
    2.7283   19.9068   39.9358 H   0  0  0  0  0  0  0  0  0  0  0  0
    1.0371   20.5121   39.9358 H   0  0  0  0  0  0  0  0  0  0  0  0
    3.4619   15.3376   39.3321 H   0  0  0  0  0  0  0  0  0  0  0  0
    4.4232   15.8544   40.7626 H   0  0  0  0  0  0  0  0  0  0  0  0
    2.8898   13.2900   43.1510 H   0  0  0  0  0  0  0  0  0  0  0  0
    3.5046   14.9323   43.1598 H   0  0  0  0  0  0  0  0  0  0  0  0
    1.4785   15.8104   42.3745 H   0  0  0  0  0  0  0  0  0  0  0  0
    0.9376   14.0765   41.9058 H   0  0  0  0  0  0  0  0  0  0  0  0
    1.5718   16.3901   41.5551 H   0  0  0  0  0  0  0  0  0  0  0  0
    2.7029   18.4786   43.1489 H   0  0  0  0  0  0  0  0  0  0  0  0
    3.7833   19.5594   42.0406 H   0  0  0  0  0  0  0  0  0  0  0  0
    0.6804   19.7604   41.5789 H   0  0  0  0  0  0  0  0  0  0  0  0
  2  1  1  0
  3  6  2  0
  3 11  1  0
  5 21  1  0
  6 10  1  0
  7  8  1  0
  9  4  1  0
 10 13  1  0
 11 12  1  0
 11 13  1  0
 13  1  1  0
 14 17  1  0
 16 20  1  0
 16 14  1  0
 18 17  1  0
 18  7  1  0
 19 12  1  0
 19  8  1  0
 19  2  1  0
 20  4  1  0
 20  5  1  0
 22 15  1  0
 22 21  1  0
 22  3  1  0
  1 23  1  0
  1 24  1  0
  2 25  1  0
  2 26  1  0
  4 27  1  0
  4 28  1  0
  5 29  1  0
  5 30  1  0
  6 31  1  0
  7 32  1  0
  7 33  1  0
  8 34  1  0
  8 35  1  0
  9 36  1  0
 11 37  1  1
 12 38  1  0
 12 39  1  0
 13 40  1  1
 14 41  1  0
 14 42  1  0
 15 43  1  0
 15 44  1  0
 15 45  1  0
 16 46  1  0
 16 47  1  0
 17 48  1  0
 17 49  1  0
 18 50  1  0
 18 51  1  0
 20 52  1  1
 21 53  1  0
 21 54  1  0
 22 55  1  6
M  END
>  <mol_id>  (70) 
2026-09-18-6fnk-s0-n100-refligand-0072

>  <rmsd_to_ref>  (70) 


$$$$

     RDKit          3D

 19 21  0  0  0  0  0  0  0  0999 V2000
   -0.0502   18.2475   44.6145 C   0  0  0  0  0  0  0  0  0  0  0  0
   -0.3246   16.9833   44.6166 C   0  0  0  0  0  0  0  0  0  0  0  0
    1.7728   17.2357   41.8228 N   0  0  0  0  0  0  0  0  0  0  0  0
    0.1444   20.7033   44.9661 C   0  0  0  0  0  0  0  0  0  0  0  0
    0.2485   16.3992   43.5318 N   0  0  0  0  0  0  0  0  0  0  0  0
    1.1085   20.7293   43.8744 C   0  0  0  0  0  0  0  0  0  0  0  0
    0.8527   18.4692   43.6187 C   0  0  0  0  0  0  0  0  0  0  0  0
   -1.0509   19.3284   46.3672 N   0  0  0  0  0  0  0  0  0  0  0  0
    1.0283   17.2871   42.9141 C   0  0  0  0  0  0  0  0  0  0  0  0
    2.3635   19.5151   42.1650 N   0  0  0  0  0  0  0  0  0  0  0  0
    1.4636   19.5598   43.2382 C   0  0  0  0  0  0  0  0  0  0  0  0
    2.3844   18.3582   41.4896 C   0  0  0  0  0  0  0  0  0  0  0  0
   -0.2929   19.4661   45.3275 C   0  0  0  0  0  0  0  0  0  0  0  0
   -0.9265   16.4634   45.3763 H   0  0  0  0  0  0  0  0  0  0  0  0
   -0.2058   21.6197   45.4638 H   0  0  0  0  0  0  0  0  0  0  0  0
    1.5537   21.6840   43.5574 H   0  0  0  0  0  0  0  0  0  0  0  0
   -1.2841   20.1475   46.9465 H   0  0  0  0  0  0  0  0  0  0  0  0
   -1.4208   18.3998   46.6153 H   0  0  0  0  0  0  0  0  0  0  0  0
    2.9724   18.3413   40.5601 H   0  0  0  0  0  0  0  0  0  0  0  0
  1  2  1  0
  1 13  2  0
  3  9  1  0
  4 13  1  0
  5  2  2  0
  6  4  2  0
  7  1  1  0
  9  7  2  0
  9  5  1  0
 10 11  2  0
 11  6  1  0
 11  7  1  0
 12 10  1  0
 12  3  2  0
 13  8  1  0
  2 14  1  0
  4 15  1  0
  6 16  1  0
  8 17  1  0
  8 18  1  0
 12 19  1  0
M  END
>  <mol_id>  (71) 
2026-09-18-6fnk-s0-n100-refligand-0073

>  <rmsd_to_ref>  (71) 


$$$$

     RDKit          3D

 39 43  0  0  0  0  0  0  0  0999 V2000
    0.5684   14.6824   42.6766 O   0  0  0  0  0  0  0  0  0  0  0  0
    4.7659   22.2403   39.1006 C   0  0  0  0  0  0  0  0  0  0  0  0
   -0.2002   19.8825   44.0010 C   0  0  0  0  0  0  0  0  0  0  0  0
    0.3376   18.8025   43.3496 C   0  0  0  0  0  0  0  0  0  0  0  0
    0.2821   16.2862   42.4861 C   0  0  1  0  0  0  0  0  0  0  0  0
    3.1477   13.7619   39.7644 O   0  0  0  0  0  0  0  0  0  0  0  0
    2.7069   20.6595   40.1476 C   0  0  0  0  0  0  0  0  0  0  0  0
    1.1284   14.3308   39.0144 O   0  0  0  0  0  0  0  0  0  0  0  0
   -0.8425   18.4082   45.6221 C   0  0  0  0  0  0  0  0  0  0  0  0
    0.1269   17.5935   43.8679 C   0  0  0  0  0  0  0  0  0  0  0  0
    3.5260   22.0413   38.4478 C   0  0  0  0  0  0  0  0  0  0  0  0
    3.8624   21.0100   40.9513 C   0  0  0  0  0  0  0  0  0  0  0  0
   -0.0804   21.1771   43.3622 C   0  0  0  0  0  0  0  0  0  0  0  0
   -0.8103   19.6315   45.1597 N   0  0  0  0  0  0  0  0  0  0  0  0
   -0.4357   17.4155   45.0032 N   0  0  0  0  0  0  0  0  0  0  0  0
    1.4213   18.9942   42.5016 C   0  0  0  0  0  0  0  0  0  0  0  0
    1.1459   20.1716   41.5751 C   0  0  0  0  0  0  0  0  0  0  0  0
    3.0738   16.1838   39.8599 O   0  0  0  0  0  0  0  0  0  0  0  0
    4.2188   20.5136   42.4381 Cl  0  0  0  0  0  0  0  0  0  0  0  0
    2.5112   21.2890   38.9482 C   0  0  0  0  0  0  0  0  0  0  0  0
    0.6478   21.2756   42.2519 C   0  0  0  0  0  0  0  0  0  0  0  0
    1.8129   16.5792   41.9463 C   0  0  2  0  0  0  0  0  0  0  0  0
    1.7572   19.8631   40.5480 O   0  0  0  0  0  0  0  0  0  0  0  0
    2.0986   17.8741   41.8278 O   0  0  0  0  0  0  0  0  0  0  0  0
    4.9223   21.7610   40.3660 C   0  0  0  0  0  0  0  0  0  0  0  0
    1.7924   15.9325   40.6391 C   0  0  2  0  0  0  0  0  0  0  0  0
    2.3214   14.9326   39.7111 P   0  0  2  0  0  5  0  0  0  0  0  0
    0.5951   14.4643   43.6419 H   0  0  0  0  0  0  0  0  0  0  0  0
    5.5867   22.7712   38.5963 H   0  0  0  0  0  0  0  0  0  0  0  0
   -0.6960   16.3964   41.9950 H   0  0  0  0  0  0  0  0  0  0  0  0
    3.2941   13.5041   40.7089 H   0  0  0  0  0  0  0  0  0  0  0  0
   -1.2588   18.2507   46.6280 H   0  0  0  0  0  0  0  0  0  0  0  0
    3.3740   22.5269   37.4727 H   0  0  0  0  0  0  0  0  0  0  0  0
   -0.5808   22.0604   43.7855 H   0  0  0  0  0  0  0  0  0  0  0  0
    1.5600   21.1889   38.4050 H   0  0  0  0  0  0  0  0  0  0  0  0
    0.8644   22.2776   41.8532 H   0  0  0  0  0  0  0  0  0  0  0  0
    2.5809   16.2081   42.6409 H   0  0  0  0  0  0  0  0  0  0  0  0
    5.8500   21.9504   40.9259 H   0  0  0  0  0  0  0  0  0  0  0  0
    0.7169   15.9984   40.8602 H   0  0  0  0  0  0  0  0  0  0  0  0
  2 25  1  0
  3 14  2  0
  4 10  2  0
  4  3  1  0
  5  1  1  0
  5 10  1  0
  7 23  1  0
  7 12  1  0
 10 15  1  0
 11 20  1  0
 11  2  2  0
 12 19  1  0
 13  3  1  0
 14  9  1  0
 15  9  2  0
 16  4  1  0
 17 21  1  0
 17 16  2  0
 20  7  2  0
 21 13  2  0
 22 24  1  0
 22  5  1  0
 23 17  1  0
 24 16  1  0
 25 12  2  0
 26 18  1  0
 26 22  1  0
 27  8  2  0
 27 18  1  0
 27  6  1  1
 27 26  1  0
  1 28  1  0
  2 29  1  0
  5 30  1  6
  6 31  1  0
  9 32  1  0
 11 33  1  0
 13 34  1  0
 20 35  1  0
 21 36  1  0
 22 37  1  1
 25 38  1  0
 26 39  1  6
M  END
>  <mol_id>  (72) 
2026-09-18-6fnk-s0-n100-refligand-0074

>  <rmsd_to_ref>  (72) 


$$$$

     RDKit          3D

 42 44  0  0  0  0  0  0  0  0999 V2000
   -1.0745   18.2649   46.4947 C   0  0  0  0  0  0  0  0  0  0  0  0
   -0.0034   16.0457   41.2746 C   0  0  0  0  0  0  0  0  0  0  0  0
   -1.0706   19.5239   45.8968 C   0  0  0  0  0  0  0  0  0  0  0  0
   -0.4322   19.7552   44.6472 C   0  0  0  0  0  0  0  0  0  0  0  0
   -0.3143   17.3269   45.7841 C   0  0  0  0  0  0  0  0  0  0  0  0
    1.7863   20.1130   40.3642 C   0  0  0  0  0  0  0  0  0  0  0  0
    0.3460   17.0489   40.1689 C   0  0  0  0  0  0  0  0  0  0  0  0
    2.2417   16.9114   41.8896 C   0  0  0  0  0  0  0  0  0  0  0  0
    1.0456   18.7985   43.0851 N   0  0  0  0  0  0  0  0  0  0  0  0
    0.0341   17.5703   44.6954 C   0  0  0  0  0  0  0  0  0  0  0  0
   -0.3191   20.9482   43.9851 N   0  0  0  0  0  0  0  0  0  0  0  0
    3.8769   21.1856   39.7104 C   0  0  0  0  0  0  0  0  0  0  0  0
   -1.5975   18.0514   47.6740 F   0  0  0  0  0  0  0  0  0  0  0  0
    1.0933   15.8800   42.2996 C   0  0  0  0  0  0  0  0  0  0  0  0
    0.2945   18.7178   44.0860 C   0  0  0  0  0  0  0  0  0  0  0  0
    2.2269   20.0360   41.6182 C   0  0  0  0  0  0  0  0  0  0  0  0
    1.6465   16.9811   39.5498 N   0  0  0  0  0  0  0  0  0  0  0  0
    4.3364   20.9314   40.9417 C   0  0  0  0  0  0  0  0  0  0  0  0
    2.5965   20.7456   39.4120 C   0  0  0  0  0  0  0  0  0  0  0  0
    2.6321   16.7127   40.5822 N   0  0  0  0  0  0  0  0  0  0  0  0
    0.4788   21.0527   43.0083 C   0  0  0  0  0  0  0  0  0  0  0  0
    1.2132   19.9245   42.6050 C   0  0  0  0  0  0  0  0  0  0  0  0
    3.5478   20.3075   41.9178 C   0  0  0  0  0  0  0  0  0  0  0  0
   -0.1977   15.0678   40.8100 H   0  0  0  0  0  0  0  0  0  0  0  0
   -0.8859   16.4369   41.8021 H   0  0  0  0  0  0  0  0  0  0  0  0
   -1.5740   20.3599   46.4044 H   0  0  0  0  0  0  0  0  0  0  0  0
   -0.0466   16.3663   46.2484 H   0  0  0  0  0  0  0  0  0  0  0  0
    0.8105   19.6906   40.0826 H   0  0  0  0  0  0  0  0  0  0  0  0
   -0.3987   16.9201   39.3696 H   0  0  0  0  0  0  0  0  0  0  0  0
    0.3495   18.0203   40.6850 H   0  0  0  0  0  0  0  0  0  0  0  0
    1.8616   17.9377   42.0008 H   0  0  0  0  0  0  0  0  0  0  0  0
    3.1101   16.7525   42.5457 H   0  0  0  0  0  0  0  0  0  0  0  0
    0.1711   16.6833   44.0594 H   0  0  0  0  0  0  0  0  0  0  0  0
    4.4881   21.7200   38.9682 H   0  0  0  0  0  0  0  0  0  0  0  0
    0.7137   16.1113   43.3058 H   0  0  0  0  0  0  0  0  0  0  0  0
    1.4701   14.8467   42.3218 H   0  0  0  0  0  0  0  0  0  0  0  0
    1.6601   16.2247   38.8508 H   0  0  0  0  0  0  0  0  0  0  0  0
    5.3666   21.2217   41.1957 H   0  0  0  0  0  0  0  0  0  0  0  0
    2.2043   20.8980   38.3957 H   0  0  0  0  0  0  0  0  0  0  0  0
    2.9178   15.7274   40.4899 H   0  0  0  0  0  0  0  0  0  0  0  0
    0.5956   22.0120   42.4830 H   0  0  0  0  0  0  0  0  0  0  0  0
    3.9700   20.0408   42.8979 H   0  0  0  0  0  0  0  0  0  0  0  0
  1 13  1  0
  2 14  1  0
  3  1  1  0
  4  3  2  0
  5  1  2  0
  6 16  1  0
  7  2  1  0
  8 14  1  0
  9 15  1  0
 10  5  1  0
 11  4  1  0
 12 18  2  0
 15 10  2  0
 15  4  1  0
 16 23  2  0
 16 22  1  0
 17  7  1  0
 17 20  1  0
 18 23  1  0
 19 12  1  0
 19  6  2  0
 20  8  1  0
 21 11  2  0
 22  9  2  0
 22 21  1  0
  2 24  1  0
  2 25  1  0
  3 26  1  0
  5 27  1  0
  6 28  1  0
  7 29  1  0
  7 30  1  0
  8 31  1  0
  8 32  1  0
 10 33  1  0
 12 34  1  0
 14 35  1  0
 14 36  1  0
 17 37  1  0
 18 38  1  0
 19 39  1  0
 20 40  1  0
 21 41  1  0
 23 42  1  0
M  END
>  <mol_id>  (73) 
2026-09-18-6fnk-s0-n100-refligand-0075

>  <rmsd_to_ref>  (73) 


$$$$

     RDKit          3D

 17 18  0  0  0  0  0  0  0  0999 V2000
    1.4799   19.3243   43.3267 C   0  0  0  0  0  0  0  0  0  0  0  0
   -0.2877   19.8200   45.3335 N   0  0  0  0  0  0  0  0  0  0  0  0
   -0.0312   20.7775   44.3661 C   0  0  0  0  0  0  0  0  0  0  0  0
    0.3032   18.5818   45.1858 C   0  0  0  0  0  0  0  0  0  0  0  0
    2.8192   17.6589   42.9659 C   0  0  0  0  0  0  0  0  0  0  0  0
    2.4809   18.8007   42.4601 N   0  0  0  0  0  0  0  0  0  0  0  0
    1.2088   18.3050   44.0403 C   0  0  0  0  0  0  0  0  0  0  0  0
    1.9438   17.3107   43.7966 C   0  0  0  0  0  0  0  0  0  0  0  0
    0.8938   20.6159   43.2987 C   0  0  0  0  0  0  0  0  0  0  0  0
   -0.5809   21.7283   44.4279 H   0  0  0  0  0  0  0  0  0  0  0  0
    0.1019   17.7912   45.9236 H   0  0  0  0  0  0  0  0  0  0  0  0
    3.7922   17.7514   43.4705 H   0  0  0  0  0  0  0  0  0  0  0  0
    2.8998   16.9053   42.1686 H   0  0  0  0  0  0  0  0  0  0  0  0
    2.8573   19.2396   41.6077 H   0  0  0  0  0  0  0  0  0  0  0  0
    1.3374   16.4944   43.3772 H   0  0  0  0  0  0  0  0  0  0  0  0
    2.4209   16.9572   44.7226 H   0  0  0  0  0  0  0  0  0  0  0  0
    1.1243   21.3891   42.5510 H   0  0  0  0  0  0  0  0  0  0  0  0
  1  7  1  0
  2  4  1  0
  3  2  2  0
  5  8  1  0
  6  1  1  0
  6  5  1  0
  7  8  1  0
  7  4  2  0
  9  1  2  0
  9  3  1  0
  3 10  1  0
  4 11  1  0
  5 12  1  0
  5 13  1  0
  6 14  1  0
  8 15  1  0
  8 16  1  0
  9 17  1  0
M  END
>  <mol_id>  (74) 
2026-09-18-6fnk-s0-n100-refligand-0076

>  <rmsd_to_ref>  (74) 


$$$$

     RDKit          3D

 19 19  0  0  0  0  0  0  0  0999 V2000
    0.8050   18.6317   43.2232 C   0  0  0  0  0  0  0  0  0  0  0  0
    3.0417   20.3882   41.1217 O   0  0  0  0  0  0  0  0  0  0  0  0
    2.1057   20.1041   41.9015 C   0  0  0  0  0  0  0  0  0  0  0  0
    0.2389   19.7728   43.8517 C   0  0  0  0  0  0  0  0  0  0  0  0
   -1.5030   18.7627   45.1408 N   0  0  0  0  0  0  0  0  0  0  0  0
    0.3594   20.9685   43.3234 C   0  0  0  0  0  0  0  0  0  0  0  0
    1.7991   18.8295   42.3746 C   0  0  0  0  0  0  0  0  0  0  0  0
    1.2603   21.1722   42.2592 C   0  0  0  0  0  0  0  0  0  0  0  0
   -0.3617   19.6827   45.2086 C   0  0  0  0  0  0  0  0  0  0  0  0
    0.4295   17.6196   43.4350 H   0  0  0  0  0  0  0  0  0  0  0  0
   -1.7922   18.5035   46.0948 H   0  0  0  0  0  0  0  0  0  0  0  0
   -2.2873   19.2235   44.6575 H   0  0  0  0  0  0  0  0  0  0  0  0
   -1.2306   17.9153   44.6225 H   0  0  0  0  0  0  0  0  0  0  0  0
   -0.2393   21.8066   43.7094 H   0  0  0  0  0  0  0  0  0  0  0  0
    2.3965   17.9706   42.0349 H   0  0  0  0  0  0  0  0  0  0  0  0
    1.9029   22.0225   42.5313 H   0  0  0  0  0  0  0  0  0  0  0  0
    0.6190   21.3251   41.3785 H   0  0  0  0  0  0  0  0  0  0  0  0
    0.3836   19.3006   45.9218 H   0  0  0  0  0  0  0  0  0  0  0  0
   -0.6920   20.6761   45.5463 H   0  0  0  0  0  0  0  0  0  0  0  0
  1  4  1  0
  2  3  2  0
  3  8  1  0
  3  7  1  0
  4  9  1  0
  6  4  2  0
  7  1  2  0
  8  6  1  0
  9  5  1  0
  1 10  1  0
  5 11  1  0
  5 12  1  0
  5 13  1  0
  6 14  1  0
  7 15  1  0
  8 16  1  0
  8 17  1  0
  9 18  1  0
  9 19  1  0
M  CHG  1   5   1
M  END
>  <mol_id>  (75) 
2026-09-18-6fnk-s0-n100-refligand-0077

>  <rmsd_to_ref>  (75) 


$$$$

     RDKit          3D

 27 29  0  0  0  0  0  0  0  0999 V2000
   -0.5444   20.9663   45.0414 O   0  0  0  0  0  0  0  0  0  0  0  0
    0.6116   19.7037   43.6939 N   0  0  0  0  0  0  0  0  0  0  0  0
    2.3872   16.1403   42.4259 C   0  0  0  0  0  0  0  0  0  0  0  0
   -0.1564   19.8938   44.8094 C   0  0  0  0  0  0  0  0  0  0  0  0
   -0.7199   16.7006   46.5120 C   0  0  0  0  0  0  0  0  0  0  0  0
    1.6025   19.5581   41.7463 C   0  0  0  0  0  0  0  0  0  0  0  0
   -0.3604   18.6066   45.5024 C   0  0  0  0  0  0  0  0  0  0  0  0
    3.3651   15.1591   41.8238 C   0  0  0  0  0  0  0  0  0  0  0  0
    0.9663   20.4198   42.5706 N   0  0  0  0  0  0  0  0  0  0  0  0
    0.9727   18.4262   43.6639 C   0  0  0  0  0  0  0  0  0  0  0  0
    0.2616   17.7185   44.7030 C   0  0  0  0  0  0  0  0  0  0  0  0
    1.5932   15.7923   43.2086 O   0  0  0  0  0  0  0  0  0  0  0  0
   -0.0031   16.4611   45.4049 C   0  0  0  0  0  0  0  0  0  0  0  0
    1.7183   18.3513   42.3947 C   0  0  0  0  0  0  0  0  0  0  0  0
    2.5463   17.3629   42.0347 N   0  0  0  0  0  0  0  0  0  0  0  0
   -0.8876   18.0457   46.6559 N   0  0  0  0  0  0  0  0  0  0  0  0
    2.0666   19.8295   40.3465 C   0  0  0  0  0  0  0  0  0  0  0  0
   -1.1109   15.9331   47.1961 H   0  0  0  0  0  0  0  0  0  0  0  0
    4.0732   14.8259   42.5969 H   0  0  0  0  0  0  0  0  0  0  0  0
    2.8173   14.2906   41.4295 H   0  0  0  0  0  0  0  0  0  0  0  0
    3.9172   15.6463   41.0065 H   0  0  0  0  0  0  0  0  0  0  0  0
    0.3355   15.4685   45.0733 H   0  0  0  0  0  0  0  0  0  0  0  0
    3.3430   17.5851   41.4208 H   0  0  0  0  0  0  0  0  0  0  0  0
   -1.3149   18.5403   47.4520 H   0  0  0  0  0  0  0  0  0  0  0  0
    2.8569   20.5945   40.3641 H   0  0  0  0  0  0  0  0  0  0  0  0
    2.4628   18.9030   39.9055 H   0  0  0  0  0  0  0  0  0  0  0  0
    1.2205   20.1902   39.7431 H   0  0  0  0  0  0  0  0  0  0  0  0
  2  4  1  0
  3 12  2  0
  4  7  1  0
  4  1  2  0
  5 16  1  0
  6 14  1  0
  6  9  2  0
  7 16  1  0
  8  3  1  0
  9  2  1  0
 10  2  1  0
 10 11  1  0
 11 13  1  0
 11  7  2  0
 13  5  2  0
 14 10  2  0
 15  3  1  0
 15 14  1  0
 17  6  1  0
  5 18  1  0
  8 19  1  0
  8 20  1  0
  8 21  1  0
 13 22  1  0
 15 23  1  0
 16 24  1  0
 17 25  1  0
 17 26  1  0
 17 27  1  0
M  END
>  <mol_id>  (76) 
2026-09-18-6fnk-s0-n100-refligand-0078

>  <rmsd_to_ref>  (76) 


$$$$

     RDKit          3D

 32 33  0  0  0  0  0  0  0  0999 V2000
   -1.5832   19.3336   44.1696 O   0  0  0  0  0  0  0  0  0  0  0  0
    1.3523   16.7188   43.3117 C   0  0  0  0  0  0  0  0  0  0  0  0
    2.5935   14.5734   42.5582 S   0  0  0  0  0  6  0  0  0  0  0  0
    2.8936   15.2964   41.2847 O   0  0  0  0  0  0  0  0  0  0  0  0
    1.7594   20.7292   40.9101 C   0  0  0  0  0  0  0  0  0  0  0  0
    2.1310   22.7912   40.2716 N   0  0  0  0  0  0  0  0  0  0  0  0
   -0.8951   18.1630   46.1550 C   0  0  0  0  0  0  0  0  0  0  0  0
    0.4851   20.0991   42.7522 N   0  0  0  0  0  0  0  0  0  0  0  0
    3.7158   13.8902   43.1053 O   0  0  0  0  0  0  0  0  0  0  0  0
    1.0454   21.0728   41.9987 C   0  0  0  0  0  0  0  0  0  0  0  0
    1.9970   15.6084   43.7028 N   0  0  0  0  0  0  0  0  0  0  0  0
    2.3801   21.1673   38.8390 O   0  0  0  0  0  0  0  0  0  0  0  0
    1.7694   18.4835   41.6512 C   0  0  0  0  0  0  0  0  0  0  0  0
    1.7828   17.2967   42.2268 N   0  0  0  0  0  0  0  0  0  0  0  0
    1.3179   13.4318   42.4671 C   0  0  0  0  0  0  0  0  0  0  0  0
    0.8379   18.9244   42.7287 C   0  0  0  0  0  0  0  0  0  0  0  0
    0.1883   17.6218   43.8610 C   0  0  2  0  0  0  0  0  0  0  0  0
    2.1001   21.6336   39.9705 C   0  0  0  0  0  0  0  0  0  0  0  0
    2.1342   19.3708   40.7213 C   0  0  0  0  0  0  0  0  0  0  0  0
   -0.8726   18.4257   44.6787 C   0  0  0  0  0  0  0  0  0  0  0  0
    1.8836   23.0812   41.2284 H   0  0  0  0  0  0  0  0  0  0  0  0
    2.4051   23.4976   39.5740 H   0  0  0  0  0  0  0  0  0  0  0  0
   -1.9061   18.3510   46.5455 H   0  0  0  0  0  0  0  0  0  0  0  0
   -0.6173   17.1158   46.3453 H   0  0  0  0  0  0  0  0  0  0  0  0
   -0.1783   18.8295   46.6570 H   0  0  0  0  0  0  0  0  0  0  0  0
    0.9195   22.1309   42.2716 H   0  0  0  0  0  0  0  0  0  0  0  0
    2.1189   15.4028   44.7047 H   0  0  0  0  0  0  0  0  0  0  0  0
    1.0222   13.1307   43.4829 H   0  0  0  0  0  0  0  0  0  0  0  0
    0.4569   13.8843   41.9535 H   0  0  0  0  0  0  0  0  0  0  0  0
    1.6563   12.5479   41.9064 H   0  0  0  0  0  0  0  0  0  0  0  0
   -0.3259   16.8178   44.4080 H   0  0  0  0  0  0  0  0  0  0  0  0
    2.7076   19.0596   39.8358 H   0  0  0  0  0  0  0  0  0  0  0  0
  1 20  2  0
  2 11  1  0
  2 17  1  0
  3 15  1  0
  3  9  2  0
  3 11  1  0
  4  3  2  0
  5 10  1  0
  8 16  1  0
 10  8  2  0
 12 18  2  0
 13 14  1  0
 13 16  2  0
 14  2  2  0
 16 17  1  0
 17 20  1  0
 18  6  1  0
 18  5  1  0
 19  5  2  0
 19 13  1  0
 20  7  1  0
  6 21  1  0
  6 22  1  0
  7 23  1  0
  7 24  1  0
  7 25  1  0
 10 26  1  0
 11 27  1  0
 15 28  1  0
 15 29  1  0
 15 30  1  0
 17 31  1  6
 19 32  1  0
M  END
>  <mol_id>  (77) 
2026-09-18-6fnk-s0-n100-refligand-0079

>  <rmsd_to_ref>  (77) 


$$$$

     RDKit          3D

 28 28  0  0  0  0  0  0  0  0999 V2000
    0.1744   20.9875   45.4004 C   0  0  0  0  0  0  0  0  0  0  0  0
    1.3922   15.7643   43.3856 C   0  0  0  0  0  0  0  0  0  0  0  0
    0.5066   20.8111   43.9739 C   0  0  2  0  0  0  0  0  0  0  0  0
    1.2015   19.6343   43.3835 C   0  0  0  0  0  0  0  0  0  0  0  0
    1.9257   17.4142   41.8294 C   0  0  0  0  0  0  0  0  0  0  0  0
    2.0489   20.9781   41.4095 N   0  0  0  0  0  0  0  0  0  0  0  0
    2.6166   18.9426   39.9591 C   0  0  0  0  0  0  0  0  0  0  0  0
    1.2369   18.3227   43.9871 C   0  0  0  0  0  0  0  0  0  0  0  0
    1.4777   17.2497   43.1061 C   0  0  0  0  0  0  0  0  0  0  0  0
    1.7430   19.8351   42.1019 C   0  0  0  0  0  0  0  0  0  0  0  0
    0.7137   21.9527   43.1733 N   0  0  0  0  0  0  0  0  0  0  0  0
    2.0645   18.6517   41.3171 C   0  0  0  0  0  0  0  0  0  0  0  0
   -0.0095   19.9010   46.1482 O   0  0  0  0  0  0  0  0  0  0  0  0
    0.1161   22.1040   45.7997 O   0  0  0  0  0  0  0  0  0  0  0  0
    1.5130   15.5866   44.4645 H   0  0  0  0  0  0  0  0  0  0  0  0
    0.4125   15.3855   43.0591 H   0  0  0  0  0  0  0  0  0  0  0  0
    2.1891   15.2414   42.8366 H   0  0  0  0  0  0  0  0  0  0  0  0
   -0.5291   20.4408   43.9675 H   0  0  0  0  0  0  0  0  0  0  0  0
    2.1741   16.5350   41.2168 H   0  0  0  0  0  0  0  0  0  0  0  0
    2.4467   20.9152   40.4615 H   0  0  0  0  0  0  0  0  0  0  0  0
    1.8810   21.8999   41.8374 H   0  0  0  0  0  0  0  0  0  0  0  0
    3.4137   19.6962   40.0410 H   0  0  0  0  0  0  0  0  0  0  0  0
    3.0280   18.0193   39.5251 H   0  0  0  0  0  0  0  0  0  0  0  0
    1.8143   19.3262   39.3116 H   0  0  0  0  0  0  0  0  0  0  0  0
    1.0855   18.1710   45.0660 H   0  0  0  0  0  0  0  0  0  0  0  0
    0.9504   22.7550   43.7743 H   0  0  0  0  0  0  0  0  0  0  0  0
    1.4871   21.7757   42.5165 H   0  0  0  0  0  0  0  0  0  0  0  0
   -0.1450   22.1614   42.6443 H   0  0  0  0  0  0  0  0  0  0  0  0
  1 13  2  0
  1 14  1  0
  2  9  1  0
  3 11  1  0
  3  1  1  0
  4  8  2  0
  4  3  1  0
  5  9  2  0
  6 10  1  0
  7 12  1  0
  9  8  1  0
 10  4  1  0
 12  5  1  0
 12 10  2  0
  2 15  1  0
  2 16  1  0
  2 17  1  0
  3 18  1  6
  5 19  1  0
  6 20  1  0
  6 21  1  0
  7 22  1  0
  7 23  1  0
  7 24  1  0
  8 25  1  0
 11 26  1  0
 11 27  1  0
 11 28  1  0
M  CHG  2  11   1  14  -1
M  END
>  <mol_id>  (78) 
2026-09-18-6fnk-s0-n100-refligand-0080

>  <rmsd_to_ref>  (78) 


$$$$

     RDKit          3D

 15 15  0  0  0  0  0  0  0  0999 V2000
    0.3533   20.5459   44.9149 C   0  0  0  0  0  0  0  0  0  0  0  0
    1.2456   18.3295   44.3335 C   0  0  0  0  0  0  0  0  0  0  0  0
    2.3100   20.6184   41.7284 C   0  0  0  0  0  0  0  0  0  0  0  0
    0.9748   21.0541   43.7424 C   0  0  0  0  0  0  0  0  0  0  0  0
    1.7877   20.2824   42.8258 C   0  0  0  0  0  0  0  0  0  0  0  0
    1.8515   18.8956   43.2209 C   0  0  0  0  0  0  0  0  0  0  0  0
    3.0042   20.4424   40.8661 O   0  0  0  0  0  0  0  0  0  0  0  0
    2.6154   18.1160   42.3864 O   0  0  0  0  0  0  0  0  0  0  0  0
    0.4208   19.1446   45.1164 C   0  0  0  0  0  0  0  0  0  0  0  0
   -0.1554   21.2077   45.6313 H   0  0  0  0  0  0  0  0  0  0  0  0
    1.4086   17.2728   44.5919 H   0  0  0  0  0  0  0  0  0  0  0  0
    1.8412   21.5862   41.4975 H   0  0  0  0  0  0  0  0  0  0  0  0
    0.8264   22.1196   43.5126 H   0  0  0  0  0  0  0  0  0  0  0  0
    2.7217   17.1494   42.5720 H   0  0  0  0  0  0  0  0  0  0  0  0
   -0.1904   18.6865   45.9079 H   0  0  0  0  0  0  0  0  0  0  0  0
  1  9  2  0
  2  9  1  0
  3  5  1  0
  4  1  1  0
  5  6  1  0
  5  4  2  0
  6  2  2  0
  7  3  2  0
  8  6  1  0
  1 10  1  0
  2 11  1  0
  3 12  1  0
  4 13  1  0
  8 14  1  0
  9 15  1  0
M  END
>  <mol_id>  (79) 
2026-09-18-6fnk-s0-n100-refligand-0081

>  <rmsd_to_ref>  (79) 


$$$$

     RDKit          3D

 69 71  0  0  0  0  0  0  0  0999 V2000
    0.0698   20.9133   43.9182 C   0  0  0  0  0  0  0  0  0  0  0  0
    2.8172   17.3104   38.8886 O   0  0  0  0  0  0  0  0  0  0  0  0
   -0.5255   20.1943   45.0223 C   0  0  2  0  0  0  0  0  0  0  0  0
   -2.0234   16.7354   49.8729 C   0  0  0  0  0  0  0  0  0  0  0  0
    2.2967   19.5557   39.6462 C   0  0  1  0  0  0  0  0  0  0  0  0
    3.6340   21.4569   39.1285 C   0  0  1  0  0  0  0  0  0  0  0  0
    2.0657   20.6934   41.9500 C   0  0  0  0  0  0  0  0  0  0  0  0
   -1.1963   20.2176   45.7857 O   0  0  0  0  0  0  0  0  0  0  0  0
    5.0819   21.9148   39.1190 C   0  0  0  0  0  0  0  0  0  0  0  0
   -0.8219   18.2959   46.6701 C   0  0  0  0  0  0  0  0  0  0  0  0
   -1.2684   17.0330   46.2514 C   0  0  0  0  0  0  0  0  0  0  0  0
    2.2028   19.7966   41.0082 C   0  0  1  0  0  0  0  0  0  0  0  0
    2.7255   15.6473   40.6324 C   0  0  0  0  0  0  0  0  0  0  0  0
    1.0118   20.3364   43.5250 C   0  0  0  0  0  0  0  0  0  0  0  0
   -1.7927   16.1596   47.2042 C   0  0  1  0  0  0  0  0  0  0  0  0
    3.4595   20.0185   38.8173 C   0  0  0  0  0  0  0  0  0  0  0  0
    1.6242   18.8307   42.8106 C   0  0  0  0  0  0  0  0  0  0  0  0
    4.0214   15.1213   41.0888 C   0  0  0  0  0  0  0  0  0  0  0  0
   -1.2149   16.5372   44.9211 C   0  0  0  0  0  0  0  0  0  0  0  0
    1.8089   18.5641   41.7501 C   0  0  0  0  0  0  0  0  0  0  0  0
    3.2959   21.5050   40.4486 O   0  0  0  0  0  0  0  0  0  0  0  0
   -1.6834   16.3903   48.4683 C   0  0  2  0  0  0  0  0  0  0  0  0
    1.9531   18.1591   39.2586 C   0  0  0  0  0  0  0  0  0  0  0  0
    0.8893   19.8275   43.0075 C   0  0  2  0  0  0  0  0  0  0  0  0
    2.7170   15.9034   39.1541 C   0  0  0  0  0  0  0  0  0  0  0  0
   -2.6626   15.7346   48.0929 C   0  0  0  0  0  0  0  0  0  0  0  0
   -0.3869   19.2806   45.7445 C   0  0  1  0  0  0  0  0  0  0  0  0
   -0.6656   21.0067   43.1056 H   0  0  0  0  0  0  0  0  0  0  0  0
    0.3758   21.9127   44.2614 H   0  0  0  0  0  0  0  0  0  0  0  0
   -0.3119   20.6198   44.0307 H   0  0  0  0  0  0  0  0  0  0  0  0
   -1.4733   16.0725   50.5569 H   0  0  0  0  0  0  0  0  0  0  0  0
   -1.7441   17.7806   50.0716 H   0  0  0  0  0  0  0  0  0  0  0  0
   -3.1048   16.6087   50.0302 H   0  0  0  0  0  0  0  0  0  0  0  0
    1.5271   20.2920   39.3714 H   0  0  0  0  0  0  0  0  0  0  0  0
    3.0696   22.0654   38.4065 H   0  0  0  0  0  0  0  0  0  0  0  0
    1.6535   21.6368   41.5626 H   0  0  0  0  0  0  0  0  0  0  0  0
    2.9989   21.0055   42.4416 H   0  0  0  0  0  0  0  0  0  0  0  0
    5.4264   22.0630   40.1531 H   0  0  0  0  0  0  0  0  0  0  0  0
    5.7049   21.1509   38.6309 H   0  0  0  0  0  0  0  0  0  0  0  0
    5.1633   22.8623   38.5661 H   0  0  0  0  0  0  0  0  0  0  0  0
   -0.8086   18.5292   47.7450 H   0  0  0  0  0  0  0  0  0  0  0  0
    2.8724   20.4953   40.4854 H   0  0  0  0  0  0  0  0  0  0  0  0
    1.9401   14.9152   40.8714 H   0  0  0  0  0  0  0  0  0  0  0  0
    2.5449   16.6032   41.1458 H   0  0  0  0  0  0  0  0  0  0  0  0
    1.7092   21.0778   43.1080 H   0  0  0  0  0  0  0  0  0  0  0  0
    1.4019   19.7847   44.3930 H   0  0  0  0  0  0  0  0  0  0  0  0
   -1.5922   15.6798   46.2348 H   0  0  0  0  0  0  0  0  0  0  0  0
    4.3669   19.4567   39.0837 H   0  0  0  0  0  0  0  0  0  0  0  0
    3.2799   19.8566   37.7442 H   0  0  0  0  0  0  0  0  0  0  0  0
    2.5978   19.0324   43.2812 H   0  0  0  0  0  0  0  0  0  0  0  0
    1.0842   17.9748   43.2415 H   0  0  0  0  0  0  0  0  0  0  0  0
    4.0471   15.1131   42.1885 H   0  0  0  0  0  0  0  0  0  0  0  0
    4.1547   14.0968   40.7114 H   0  0  0  0  0  0  0  0  0  0  0  0
    4.8314   15.7607   40.7080 H   0  0  0  0  0  0  0  0  0  0  0  0
   -1.2451   15.4377   44.9380 H   0  0  0  0  0  0  0  0  0  0  0  0
   -2.0758   16.9188   44.3526 H   0  0  0  0  0  0  0  0  0  0  0  0
   -0.2824   16.8711   44.4425 H   0  0  0  0  0  0  0  0  0  0  0  0
    0.8930   18.1438   41.3094 H   0  0  0  0  0  0  0  0  0  0  0  0
    2.6126   17.8158   41.6866 H   0  0  0  0  0  0  0  0  0  0  0  0
    4.1160   21.4586   41.0013 H   0  0  0  0  0  0  0  0  0  0  0  0
   -0.7110   16.8097   48.7661 H   0  0  0  0  0  0  0  0  0  0  0  0
    1.2372   18.2434   38.4276 H   0  0  0  0  0  0  0  0  0  0  0  0
    1.6320   17.7376   40.2225 H   0  0  0  0  0  0  0  0  0  0  0  0
   -0.1728   19.5427   43.0380 H   0  0  0  0  0  0  0  0  0  0  0  0
    1.7794   15.5197   38.7254 H   0  0  0  0  0  0  0  0  0  0  0  0
    3.5782   15.3926   38.6989 H   0  0  0  0  0  0  0  0  0  0  0  0
   -3.6679   16.1793   48.1321 H   0  0  0  0  0  0  0  0  0  0  0  0
   -3.0837   14.7530   48.3558 H   0  0  0  0  0  0  0  0  0  0  0  0
    0.4789   18.6044   45.6886 H   0  0  0  0  0  0  0  0  0  0  0  0
  2 25  1  0
  2 23  1  0
  3  1  1  0
  3 27  1  0
  3  8  1  0
  5 16  1  0
  6  9  1  0
  6 21  1  0
  7 24  1  0
 11 10  2  3
 12  5  1  0
 12 20  1  0
 12  7  1  0
 13 18  1  0
 14  1  1  0
 15 11  1  0
 15 26  1  0
 15 22  1  0
 16  6  1  0
 17 24  1  0
 19 11  1  0
 20 17  1  0
 22  4  1  0
 23  5  1  0
 24 14  1  0
 25 13  1  0
 26 22  1  0
 27  8  1  0
 27 10  1  0
  1 28  1  0
  1 29  1  0
  3 30  1  6
  4 31  1  0
  4 32  1  0
  4 33  1  0
  5 34  1  6
  6 35  1  6
  7 36  1  0
  7 37  1  0
  9 38  1  0
  9 39  1  0
  9 40  1  0
 10 41  1  0
 12 42  1  1
 13 43  1  0
 13 44  1  0
 14 45  1  0
 14 46  1  0
 15 47  1  1
 16 48  1  0
 16 49  1  0
 17 50  1  0
 17 51  1  0
 18 52  1  0
 18 53  1  0
 18 54  1  0
 19 55  1  0
 19 56  1  0
 19 57  1  0
 20 58  1  0
 20 59  1  0
 21 60  1  0
 22 61  1  1
 23 62  1  0
 23 63  1  0
 24 64  1  6
 25 65  1  0
 25 66  1  0
 26 67  1  0
 26 68  1  0
 27 69  1  1
M  END
>  <mol_id>  (80) 
2026-09-18-6fnk-s0-n100-refligand-0082

>  <rmsd_to_ref>  (80) 


$$$$

     RDKit          3D

 58 60  0  0  0  0  0  0  0  0999 V2000
    2.5478   15.2760   44.6178 C   0  0  0  0  0  0  0  0  0  0  0  0
    0.4497   19.1288   42.5476 O   0  0  0  0  0  0  0  0  0  0  0  0
   -0.9715   18.9175   47.2791 O   0  0  0  0  0  0  0  0  0  0  0  0
    1.7699   14.7569   45.7041 O   0  0  0  0  0  0  0  0  0  0  0  0
   -1.6120   19.4262   44.5430 F   0  0  0  0  0  0  0  0  0  0  0  0
    0.2834   20.8656   44.0679 C   0  0  0  0  0  0  0  0  0  0  0  0
    1.9194   19.5314   39.2130 C   0  0  0  0  0  0  0  0  0  0  0  0
    1.3972   17.6039   40.5852 O   0  0  0  0  0  0  0  0  0  0  0  0
    4.3249   14.1451   42.1392 O   0  0  0  0  0  0  0  0  0  0  0  0
    4.8230   22.3077   40.1350 F   0  0  0  0  0  0  0  0  0  0  0  0
    2.7805   14.4335   42.1065 S   0  0  0  0  0  4  0  0  0  0  0  0
    2.7359   19.2358   37.1729 O   0  0  0  0  0  0  0  0  0  0  0  0
    2.0199   15.1830   43.4610 C   0  0  2  0  0  0  0  0  0  0  0  0
    1.9758   20.3653   40.5979 C   0  0  0  0  0  0  0  0  0  0  0  0
    0.6947   15.7189   42.9483 O   0  0  0  0  0  0  0  0  0  0  0  0
    2.8779   19.7516   38.3705 C   0  0  0  0  0  0  0  0  0  0  0  0
    3.9180   20.5741   38.6543 C   0  0  0  0  0  0  0  0  0  0  0  0
    2.0142   13.4852   41.3231 O   0  0  0  0  0  0  0  0  0  0  0  0
    3.2148   20.8851   41.0472 C   0  0  0  0  0  0  0  0  0  0  0  0
    2.8728   15.6932   41.2207 O   0  0  0  0  0  0  0  0  0  0  0  0
    0.1220   18.3036   46.7606 C   0  0  1  0  0  0  0  0  0  0  0  0
   -0.6350   20.9038   41.9680 O   0  0  0  0  0  0  0  0  0  0  0  0
    1.1577   17.4428   45.0253 C   0  0  0  0  0  0  0  0  0  0  0  0
    3.9727   21.2606   39.8728 C   0  0  0  0  0  0  0  0  0  0  0  0
    1.9428   16.6818   38.5408 O   0  0  0  0  0  0  0  0  0  0  0  0
    4.8297   20.9701   37.7345 O   0  0  0  0  0  0  0  0  0  0  0  0
    0.3126   16.7387   46.3230 S   0  0  0  0  0  0  0  0  0  0  0  0
    0.3594   15.8978   41.6971 C   0  0  0  0  0  0  0  0  0  0  0  0
    0.2843   20.2140   42.5576 S   0  0  0  0  0  6  0  0  0  0  0  0
    1.5825   16.2480   41.0324 C   0  0  1  0  0  0  0  0  0  0  0  0
    1.5767   16.9228   39.5241 C   0  0  0  0  0  0  0  0  0  0  0  0
   -0.8160   20.8331   45.7919 F   0  0  0  0  0  0  0  0  0  0  0  0
    1.3838   20.6962   41.4062 N   0  0  0  0  0  0  0  0  0  0  0  0
    3.6558   20.9847   42.2448 C   0  0  0  0  0  0  0  0  0  0  0  0
   -0.4427   19.8463   44.8857 C   0  0  0  0  0  0  0  0  0  0  0  0
    0.4845   18.7817   45.3768 C   0  0  1  0  0  0  0  0  0  0  0  0
    2.7370   16.3411   44.8174 H   0  0  0  0  0  0  0  0  0  0  0  0
    3.4571   14.6581   44.5807 H   0  0  0  0  0  0  0  0  0  0  0  0
   -0.8313   19.0805   48.2455 H   0  0  0  0  0  0  0  0  0  0  0  0
    2.0427   15.1999   46.5465 H   0  0  0  0  0  0  0  0  0  0  0  0
   -0.2461   21.8297   44.0802 H   0  0  0  0  0  0  0  0  0  0  0  0
    1.2951   21.0766   44.4447 H   0  0  0  0  0  0  0  0  0  0  0  0
    1.1114   18.8165   38.9987 H   0  0  0  0  0  0  0  0  0  0  0  0
    4.6684   14.2904   43.0563 H   0  0  0  0  0  0  0  0  0  0  0  0
    1.9718   18.6368   36.9794 H   0  0  0  0  0  0  0  0  0  0  0  0
    1.5718   14.2189   43.7430 H   0  0  0  0  0  0  0  0  0  0  0  0
    1.4005   12.9855   41.9180 H   0  0  0  0  0  0  0  0  0  0  0  0
    0.6482   18.5230   47.7014 H   0  0  0  0  0  0  0  0  0  0  0  0
    0.8896   17.0433   44.0361 H   0  0  0  0  0  0  0  0  0  0  0  0
    2.2509   17.3565   44.9400 H   0  0  0  0  0  0  0  0  0  0  0  0
    5.5697   21.5725   37.9985 H   0  0  0  0  0  0  0  0  0  0  0  0
   -0.0604   14.9736   41.2732 H   0  0  0  0  0  0  0  0  0  0  0  0
   -0.4110   16.6745   41.5823 H   0  0  0  0  0  0  0  0  0  0  0  0
    1.5508   21.7050   41.5297 H   0  0  0  0  0  0  0  0  0  0  0  0
    2.8870   21.4469   42.8814 H   0  0  0  0  0  0  0  0  0  0  0  0
    3.8981   19.9835   42.6308 H   0  0  0  0  0  0  0  0  0  0  0  0
    4.5613   21.6091   42.2514 H   0  0  0  0  0  0  0  0  0  0  0  0
    1.1216   19.4958   44.8343 H   0  0  0  0  0  0  0  0  0  0  0  0
  1  4  1  0
  2 29  2  0
  5 35  1  0
  6 35  1  0
  7 14  1  0
 30  8  1  1
  9 11  1  0
 11 13  1  0
 12 16  1  0
 13  1  1  0
 14 19  2  0
 14 33  1  0
 15 13  1  0
 16 17  1  0
 16  7  2  0
 17 24  2  0
 18 11  1  0
 19 34  1  0
 20 11  1  0
 21  3  1  0
 22 29  2  0
 23 36  1  0
 23 27  1  0
 24 10  1  0
 24 19  1  0
 25 31  2  0
 26 17  1  0
 27 21  1  0
 28 15  1  0
 29  6  1  0
 30 20  1  0
 30 28  1  0
 31  8  1  0
 31 30  1  0
 33 29  1  0
 35 32  1  0
 36 35  1  0
 36 21  1  0
  1 37  1  0
  1 38  1  0
  3 39  1  0
  4 40  1  0
  6 41  1  0
  6 42  1  0
  7 43  1  0
  9 44  1  0
 12 45  1  0
 13 46  1  1
 18 47  1  0
 21 48  1  1
 23 49  1  0
 23 50  1  0
 26 51  1  0
 28 52  1  0
 28 53  1  0
 33 54  1  0
 34 55  1  0
 34 56  1  0
 34 57  1  0
 36 58  1  1
M  END
>  <mol_id>  (81) 
2026-09-18-6fnk-s0-n100-refligand-0083

>  <rmsd_to_ref>  (81) 


$$$$

     RDKit          3D

 51 53  0  0  0  0  0  0  0  0999 V2000
    2.1468   17.6710   40.9193 C   0  0  1  0  0  0  0  0  0  0  0  0
    5.6866   21.1710   41.6740 C   0  0  0  0  0  0  0  0  0  0  0  0
    5.5016   19.1585   44.7791 C   0  0  0  0  0  0  0  0  0  0  0  0
    1.4556   15.5754   43.1288 C   0  0  0  0  0  0  0  0  0  0  0  0
    0.9612   13.3585   44.1892 C   0  0  0  0  0  0  0  0  0  0  0  0
    0.5229   20.2877   43.7650 N   0  0  0  0  0  0  0  0  0  0  0  0
    2.4224   11.4073   43.9599 Cl  0  0  0  0  0  0  0  0  0  0  0  0
    5.0939   20.9685   40.4119 C   0  0  0  0  0  0  0  0  0  0  0  0
    4.3961   16.9385   39.5423 O   0  0  0  0  0  0  0  0  0  0  0  0
    0.4801   14.7644   43.9900 C   0  0  0  0  0  0  0  0  0  0  0  0
    5.1608   20.4656   42.7904 C   0  0  0  0  0  0  0  0  0  0  0  0
    3.9215   20.2258   40.3019 C   0  0  0  0  0  0  0  0  0  0  0  0
    3.9777   19.8229   42.6746 C   0  0  0  0  0  0  0  0  0  0  0  0
    0.2903   21.5191   43.3345 O   0  0  0  0  0  0  0  0  0  0  0  0
    6.6536   22.0083   41.8091 F   0  0  0  0  0  0  0  0  0  0  0  0
    5.8071   20.3612   44.0081 O   0  0  0  0  0  0  0  0  0  0  0  0
    2.1195   18.9580   41.5045 C   0  0  2  0  0  0  0  0  0  0  0  0
    0.2800   17.2431   44.6973 C   0  0  0  0  0  0  0  0  0  0  0  0
    2.1136   12.9003   43.5627 C   0  0  0  0  0  0  0  0  0  0  0  0
    2.2182   17.6442   38.5960 O   0  0  0  0  0  0  0  0  0  0  0  0
   -0.3816   19.5705   44.3297 C   0  0  0  0  0  0  0  0  0  0  0  0
   -0.2749   18.3066   45.1323 C   0  0  0  0  0  0  0  0  0  0  0  0
    2.2931   16.7947   40.8741 O   0  0  0  0  0  0  0  0  0  0  0  0
    3.2698   19.7499   41.4565 C   0  0  0  0  0  0  0  0  0  0  0  0
   -1.1015   18.0527   46.4606 C   0  0  0  0  0  0  0  0  0  0  0  0
    0.9947   17.0626   43.5536 C   0  0  1  0  0  0  0  0  0  0  0  0
    2.4930   14.8666   42.3512 C   0  0  0  0  0  0  0  0  0  0  0  0
    1.3621   18.1259   42.6074 C   0  0  2  0  0  0  0  0  0  0  0  0
    3.1266   17.4708   39.6929 S   0  0  0  0  0  4  0  0  0  0  0  0
    2.7702   13.6720   42.6184 C   0  0  0  0  0  0  0  0  0  0  0  0
    5.3551   19.4275   45.8355 H   0  0  0  0  0  0  0  0  0  0  0  0
    4.5837   18.6955   44.3880 H   0  0  0  0  0  0  0  0  0  0  0  0
    6.3361   18.4468   44.6944 H   0  0  0  0  0  0  0  0  0  0  0  0
    0.3930   12.6792   44.8415 H   0  0  0  0  0  0  0  0  0  0  0  0
    5.5582   21.3979   39.5119 H   0  0  0  0  0  0  0  0  0  0  0  0
   -0.4553   15.1639   44.4091 H   0  0  0  0  0  0  0  0  0  0  0  0
    3.5019   20.0094   39.3083 H   0  0  0  0  0  0  0  0  0  0  0  0
    3.5501   19.3379   43.5646 H   0  0  0  0  0  0  0  0  0  0  0  0
    1.0152   22.0384   42.9044 H   0  0  0  0  0  0  0  0  0  0  0  0
    1.7120   19.9395   41.2210 H   0  0  0  0  0  0  0  0  0  0  0  0
    0.1652   16.3524   45.3324 H   0  0  0  0  0  0  0  0  0  0  0  0
    1.3152   17.8516   38.9449 H   0  0  0  0  0  0  0  0  0  0  0  0
   -1.4076   19.9464   44.2036 H   0  0  0  0  0  0  0  0  0  0  0  0
    2.2142   16.3999   41.7786 H   0  0  0  0  0  0  0  0  0  0  0  0
   -0.5607   18.4824   47.3167 H   0  0  0  0  0  0  0  0  0  0  0  0
   -2.0893   18.5289   46.3744 H   0  0  0  0  0  0  0  0  0  0  0  0
   -1.2282   16.9707   46.6126 H   0  0  0  0  0  0  0  0  0  0  0  0
    0.0592   16.9338   42.9894 H   0  0  0  0  0  0  0  0  0  0  0  0
    3.0222   15.3856   41.5385 H   0  0  0  0  0  0  0  0  0  0  0  0
    0.7823   18.5176   43.4562 H   0  0  0  0  0  0  0  0  0  0  0  0
    3.5952   13.2035   42.0617 H   0  0  0  0  0  0  0  0  0  0  0  0
  1 23  1  1
  1 17  1  0
  1 28  1  0
  2 15  1  0
  2 11  2  0
  4 26  1  0
  4 10  1  0
  6 21  2  3
  8 12  2  0
  8  2  1  0
  9 29  2  0
 10  5  2  0
 11 13  1  0
 11 16  1  0
 12 24  1  0
 14  6  1  0
 16  3  1  0
 17 24  1  0
 17 28  1  0
 18 22  2  3
 19  7  1  0
 19  5  1  0
 21 22  1  0
 22 25  1  0
 24 13  2  0
 26 18  1  0
 27 30  1  0
 27  4  2  0
 28 26  1  0
 29 20  1  6
 29  1  1  0
 30 19  2  0
  3 31  1  0
  3 32  1  0
  3 33  1  0
  5 34  1  0
  8 35  1  0
 10 36  1  0
 12 37  1  0
 13 38  1  0
 14 39  1  0
 17 40  1  6
 18 41  1  0
 20 42  1  0
 21 43  1  0
 23 44  1  0
 25 45  1  0
 25 46  1  0
 25 47  1  0
 26 48  1  6
 27 49  1  0
 28 50  1  6
 30 51  1  0
M  END
>  <mol_id>  (82) 
2026-09-18-6fnk-s0-n100-refligand-0084

>  <rmsd_to_ref>  (82) 


$$$$

     RDKit          3D

 18 17  0  0  0  0  0  0  0  0999 V2000
   -0.8768   20.5523   45.5959 N   0  0  0  0  0  0  0  0  0  0  0  0
    1.2514   19.5914   44.2804 C   0  0  0  0  0  0  0  0  0  0  0  0
    2.2129   17.8361   42.3608 S   0  0  0  0  0  0  0  0  0  0  0  0
    0.6247   18.6023   43.2378 C   0  0  0  0  0  0  0  0  0  0  0  0
    1.2210   17.3443   40.9247 C   0  0  0  0  0  0  0  0  0  0  0  0
    0.2663   20.8420   44.5225 C   0  0  0  0  0  0  0  0  0  0  0  0
   -0.4566   20.1445   46.4433 H   0  0  0  0  0  0  0  0  0  0  0  0
   -1.3515   21.4337   45.8382 H   0  0  0  0  0  0  0  0  0  0  0  0
   -1.5605   19.8917   45.1997 H   0  0  0  0  0  0  0  0  0  0  0  0
    2.2163   19.9574   43.8996 H   0  0  0  0  0  0  0  0  0  0  0  0
    1.4001   19.0619   45.2331 H   0  0  0  0  0  0  0  0  0  0  0  0
   -0.0088   19.1368   42.5146 H   0  0  0  0  0  0  0  0  0  0  0  0
   -0.0308   17.8452   43.6931 H   0  0  0  0  0  0  0  0  0  0  0  0
    0.3811   16.7164   41.2568 H   0  0  0  0  0  0  0  0  0  0  0  0
    0.8314   18.2424   40.4232 H   0  0  0  0  0  0  0  0  0  0  0  0
    1.8488   16.7756   40.2228 H   0  0  0  0  0  0  0  0  0  0  0  0
    0.8659   21.6947   44.8737 H   0  0  0  0  0  0  0  0  0  0  0  0
   -0.2339   21.0501   43.5651 H   0  0  0  0  0  0  0  0  0  0  0  0
  2  6  1  0
  3  4  1  0
  4  2  1  0
  5  3  1  0
  6  1  1  0
  1  7  1  0
  1  8  1  0
  1  9  1  0
  2 10  1  0
  2 11  1  0
  4 12  1  0
  4 13  1  0
  5 14  1  0
  5 15  1  0
  5 16  1  0
  6 17  1  0
  6 18  1  0
M  CHG  1   1   1
M  END
>  <mol_id>  (83) 
2026-09-18-6fnk-s0-n100-refligand-0085

>  <rmsd_to_ref>  (83) 


$$$$

     RDKit          3D

 44 47  0  0  0  0  0  0  0  0999 V2000
    1.2721   14.9687   42.3770 O   0  0  0  0  0  0  0  0  0  0  0  0
   -0.9691   19.3518   46.0068 N   0  0  0  0  0  0  0  0  0  0  0  0
    1.4672   17.2233   42.1294 O   0  0  0  0  0  0  0  0  0  0  0  0
   -0.5890   17.4262   46.3261 C   0  0  0  0  0  0  0  0  0  0  0  0
    1.1567   14.4143   40.9957 C   0  0  0  0  0  0  0  0  0  0  0  0
    2.5409   22.1280   40.6736 O   0  0  0  0  0  0  0  0  0  0  0  0
    2.1260   13.1962   40.8933 C   0  0  0  0  0  0  0  0  0  0  0  0
    2.4148   18.5921   40.8801 C   0  0  0  0  0  0  0  0  0  0  0  0
    1.2610   20.9456   42.2397 C   0  0  0  0  0  0  0  0  0  0  0  0
   -0.3112   16.1297   46.1661 C   0  0  0  0  0  0  0  0  0  0  0  0
    0.9931   16.2527   42.7277 C   0  0  0  0  0  0  0  0  0  0  0  0
   -0.9785   18.3227   47.2408 N   0  0  0  0  0  0  0  0  0  0  0  0
    2.4577   12.9186   39.4563 C   0  0  0  0  0  0  0  0  0  0  0  0
    2.1028   21.0515   41.0887 C   0  0  0  0  0  0  0  0  0  0  0  0
    2.6727   19.8355   40.4397 C   0  0  0  0  0  0  0  0  0  0  0  0
   -0.2760   20.6880   44.0291 O   0  0  0  0  0  0  0  0  0  0  0  0
    3.5403   20.1140   39.4815 O   0  0  0  0  0  0  0  0  0  0  0  0
    0.2002   18.0334   44.1817 C   0  0  0  0  0  0  0  0  0  0  0  0
    4.2553   14.4217   38.6535 C   0  0  0  0  0  0  0  0  0  0  0  0
    1.6065   18.4694   42.0757 C   0  0  0  0  0  0  0  0  0  0  0  0
    0.4225   16.7038   43.9455 C   0  0  0  0  0  0  0  0  0  0  0  0
    3.8171   13.0773   39.0371 O   0  0  0  0  0  0  0  0  0  0  0  0
    1.0984   19.4849   42.7609 C   0  0  0  0  0  0  0  0  0  0  0  0
   -0.5817   18.2767   45.3093 C   0  0  0  0  0  0  0  0  0  0  0  0
    0.1381   15.7683   44.9279 C   0  0  0  0  0  0  0  0  0  0  0  0
    0.2430   19.5378   43.7154 C   0  0  0  0  0  0  0  0  0  0  0  0
   -1.1648   20.3486   45.8363 H   0  0  0  0  0  0  0  0  0  0  0  0
    0.1232   14.0879   40.8079 H   0  0  0  0  0  0  0  0  0  0  0  0
    1.4176   15.1792   40.2496 H   0  0  0  0  0  0  0  0  0  0  0  0
    3.0517   13.4210   41.4432 H   0  0  0  0  0  0  0  0  0  0  0  0
    1.6378   12.3110   41.3270 H   0  0  0  0  0  0  0  0  0  0  0  0
    2.8009   17.7059   40.3553 H   0  0  0  0  0  0  0  0  0  0  0  0
    0.2656   21.3351   41.9798 H   0  0  0  0  0  0  0  0  0  0  0  0
    1.7392   21.5241   43.0439 H   0  0  0  0  0  0  0  0  0  0  0  0
   -0.4361   15.3997   46.9794 H   0  0  0  0  0  0  0  0  0  0  0  0
   -1.1848   18.3430   48.2497 H   0  0  0  0  0  0  0  0  0  0  0  0
    2.1714   11.8767   39.2500 H   0  0  0  0  0  0  0  0  0  0  0  0
    1.9057   13.6861   38.8940 H   0  0  0  0  0  0  0  0  0  0  0  0
   -0.9378   20.7488   44.7629 H   0  0  0  0  0  0  0  0  0  0  0  0
    3.6850   21.0527   39.2022 H   0  0  0  0  0  0  0  0  0  0  0  0
    4.4297   15.0226   39.5583 H   0  0  0  0  0  0  0  0  0  0  0  0
    5.1877   14.3521   38.0742 H   0  0  0  0  0  0  0  0  0  0  0  0
    3.4774   14.8999   38.0401 H   0  0  0  0  0  0  0  0  0  0  0  0
    0.2787   14.7007   44.7032 H   0  0  0  0  0  0  0  0  0  0  0  0
  1 11  1  0
  2 12  1  0
  3 11  1  0
  4 12  1  0
  5  1  1  0
  6 14  2  0
  7  5  1  0
  8 20  1  0
  9 23  1  0
 10  4  1  0
 11 21  2  0
 13  7  1  0
 14  9  1  0
 15  8  2  0
 15 14  1  0
 17 15  1  0
 18 24  1  0
 19 22  1  0
 20  3  1  0
 20 23  2  0
 21 18  1  0
 21 25  1  0
 22 13  1  0
 23 26  1  0
 24  2  1  0
 24  4  2  0
 25 10  2  0
 26 16  1  0
 26 18  2  0
  2 27  1  0
  5 28  1  0
  5 29  1  0
  7 30  1  0
  7 31  1  0
  8 32  1  0
  9 33  1  0
  9 34  1  0
 10 35  1  0
 12 36  1  0
 13 37  1  0
 13 38  1  0
 16 39  1  0
 17 40  1  0
 19 41  1  0
 19 42  1  0
 19 43  1  0
 25 44  1  0
M  END
>  <mol_id>  (84) 
2026-09-18-6fnk-s0-n100-refligand-0086

>  <rmsd_to_ref>  (84) 


$$$$

     RDKit          3D

 51 53  0  0  0  0  0  0  0  0999 V2000
   -0.1838   16.1115   45.7839 C   0  0  0  0  0  0  0  0  0  0  0  0
    1.6050   19.8245   42.6437 C   0  0  0  0  0  0  0  0  0  0  0  0
    2.9674   17.9896   39.4587 C   0  0  0  0  0  0  0  0  0  0  0  0
    0.8521   19.8537   43.9838 C   0  0  1  0  0  0  0  0  0  0  0  0
    2.1236   18.7323   41.7110 C   0  0  0  0  0  0  0  0  0  0  0  0
    0.8129   13.6972   44.8453 C   0  0  0  0  0  0  0  0  0  0  0  0
   -0.6115   19.7139   46.6124 O   0  0  0  0  0  0  0  0  0  0  0  0
    2.5759   14.6243   39.0862 C   0  0  2  0  0  0  0  0  0  0  0  0
    3.0600   15.0463   41.5581 C   0  0  0  0  0  0  0  0  0  0  0  0
    4.7524   20.6782   40.2218 C   0  0  0  0  0  0  0  0  0  0  0  0
   -0.2143   18.5133   45.9044 C   0  0  0  0  0  0  0  0  0  0  0  0
    0.8707   17.3330   44.0025 C   0  0  0  0  0  0  0  0  0  0  0  0
    0.5219   16.0880   44.6322 C   0  0  0  0  0  0  0  0  0  0  0  0
    3.9725   13.1250   40.2209 O   0  0  0  0  0  0  0  0  0  0  0  0
    2.8967   13.9868   40.4466 C   0  0  2  0  0  0  0  0  0  0  0  0
    0.0048   22.0371   45.0327 N   0  0  0  0  0  0  0  0  0  0  0  0
    3.4376   20.4040   40.2304 C   0  0  0  0  0  0  0  0  0  0  0  0
    0.9187   14.9208   44.0756 O   0  0  0  0  0  0  0  0  0  0  0  0
    2.1202   17.3195   41.9320 N   0  0  0  0  0  0  0  0  0  0  0  0
    0.5071   18.4922   44.6253 C   0  0  0  0  0  0  0  0  0  0  0  0
    2.4331   16.2763   41.0574 C   0  0  1  0  0  0  0  0  0  0  0  0
   -0.5280   17.3055   46.4819 C   0  0  0  0  0  0  0  0  0  0  0  0
    1.7181   21.0587   42.2416 O   0  0  0  0  0  0  0  0  0  0  0  0
    0.3171   20.9974   44.7030 C   0  0  0  0  0  0  0  0  0  0  0  0
    3.1487   18.2562   38.3535 O   0  0  0  0  0  0  0  0  0  0  0  0
    3.4091   15.7345   38.9560 O   0  0  0  0  0  0  0  0  0  0  0  0
    1.1927   14.9607   38.9623 O   0  0  0  0  0  0  0  0  0  0  0  0
    2.9113   16.6929   39.8329 N   0  0  0  0  0  0  0  0  0  0  0  0
    2.8297   19.0502   40.4788 C   0  0  2  0  0  0  0  0  0  0  0  0
   -0.5126   15.1515   46.2084 H   0  0  0  0  0  0  0  0  0  0  0  0
   -0.1070   19.8430   43.4452 H   0  0  0  0  0  0  0  0  0  0  0  0
    0.7954   13.9393   45.9182 H   0  0  0  0  0  0  0  0  0  0  0  0
   -0.1142   13.1717   44.5728 H   0  0  0  0  0  0  0  0  0  0  0  0
    1.6772   13.0521   44.6290 H   0  0  0  0  0  0  0  0  0  0  0  0
   -0.4052   20.6042   46.2317 H   0  0  0  0  0  0  0  0  0  0  0  0
    2.7628   13.9108   38.2701 H   0  0  0  0  0  0  0  0  0  0  0  0
    2.5589   14.7118   42.4784 H   0  0  0  0  0  0  0  0  0  0  0  0
    4.1209   15.2101   41.7986 H   0  0  0  0  0  0  0  0  0  0  0  0
    5.0989   21.7043   40.0296 H   0  0  0  0  0  0  0  0  0  0  0  0
    5.4825   19.8767   40.4071 H   0  0  0  0  0  0  0  0  0  0  0  0
    1.4148   17.3507   43.0466 H   0  0  0  0  0  0  0  0  0  0  0  0
    4.4242   12.9289   41.0799 H   0  0  0  0  0  0  0  0  0  0  0  0
    2.0692   13.3865   40.8527 H   0  0  0  0  0  0  0  0  0  0  0  0
    2.7474   21.2390   40.0399 H   0  0  0  0  0  0  0  0  0  0  0  0
    2.7654   17.1867   42.7238 H   0  0  0  0  0  0  0  0  0  0  0  0
    1.0991   17.1852   41.9462 H   0  0  0  0  0  0  0  0  0  0  0  0
    1.4155   15.8850   40.9110 H   0  0  0  0  0  0  0  0  0  0  0  0
   -1.0321   17.2618   47.4586 H   0  0  0  0  0  0  0  0  0  0  0  0
    2.1774   21.2612   41.3883 H   0  0  0  0  0  0  0  0  0  0  0  0
    0.8345   15.2162   39.8492 H   0  0  0  0  0  0  0  0  0  0  0  0
    3.7654   18.7168   40.9517 H   0  0  0  0  0  0  0  0  0  0  0  0
  1 22  2  0
  2  4  1  0
  3 28  1  0
  3 29  1  0
  4 20  1  0
  4 24  1  0
  5  2  2  3
  8 27  1  0
  8 26  1  0
  8 15  1  0
 11 22  1  0
 11  7  1  0
 12 13  2  0
 12 20  1  0
 13  1  1  0
 15 14  1  0
 15  9  1  0
 17 10  2  3
 18  6  1  0
 18 13  1  0
 19  5  1  0
 20 11  2  0
 21  9  1  0
 21 19  1  0
 23  2  1  0
 24 16  3  0
 25  3  2  0
 26 28  1  0
 28 21  1  0
 29 17  1  0
 29  5  1  0
  1 30  1  0
  4 31  1  1
  6 32  1  0
  6 33  1  0
  6 34  1  0
  7 35  1  0
  8 36  1  6
  9 37  1  0
  9 38  1  0
 10 39  1  0
 10 40  1  0
 12 41  1  0
 14 42  1  0
 15 43  1  1
 17 44  1  0
 19 45  1  0
 19 46  1  0
 21 47  1  6
 22 48  1  0
 23 49  1  0
 27 50  1  0
 29 51  1  1
M  CHG  1  19   1
M  END
>  <mol_id>  (85) 
2026-09-18-6fnk-s0-n100-refligand-0087

>  <rmsd_to_ref>  (85) 


$$$$

     RDKit          3D

 30 32  0  0  0  0  0  0  0  0999 V2000
    0.7057   16.6025   43.7628 C   0  0  0  0  0  0  0  0  0  0  0  0
    3.4853   15.0150   42.2557 C   0  0  0  0  0  0  0  0  0  0  0  0
    2.1732   17.6901   42.4000 C   0  0  0  0  0  0  0  0  0  0  0  0
    2.2578   15.1784   42.8461 C   0  0  0  0  0  0  0  0  0  0  0  0
   -0.3464   19.9042   44.1319 C   0  0  0  0  0  0  0  0  0  0  0  0
    0.2916   20.9389   43.4021 C   0  0  0  0  0  0  0  0  0  0  0  0
    1.5281   18.9059   42.9159 C   0  0  0  0  0  0  0  0  0  0  0  0
    1.4746   20.3367   42.7237 C   0  0  0  0  0  0  0  0  0  0  0  0
    1.4991   16.4720   42.5605 C   0  0  1  0  0  0  0  0  0  0  0  0
    0.1133   17.7659   44.1746 C   0  0  0  0  0  0  0  0  0  0  0  0
    2.9912   20.4158   41.0305 O   0  0  0  0  0  0  0  0  0  0  0  0
    3.3268   21.5750   42.7677 O   0  0  0  0  0  0  0  0  0  0  0  0
   -0.9904   18.0807   45.0648 C   0  0  0  0  0  0  0  0  0  0  0  0
   -1.1960   19.4713   44.9402 N   0  0  0  0  0  0  0  0  0  0  0  0
    0.4437   18.7322   43.7988 C   0  0  0  0  0  0  0  0  0  0  0  0
    2.5995   20.7868   41.9372 C   0  0  0  0  0  0  0  0  0  0  0  0
    3.7415   13.5638   42.5050 N   0  0  0  0  0  0  0  0  0  0  0  0
    1.6252   14.2406   43.3002 O   0  0  0  0  0  0  0  0  0  0  0  0
    1.3658   16.2976   44.5883 H   0  0  0  0  0  0  0  0  0  0  0  0
   -0.1783   16.0068   43.4912 H   0  0  0  0  0  0  0  0  0  0  0  0
    4.2489   15.6463   42.7337 H   0  0  0  0  0  0  0  0  0  0  0  0
    3.5153   15.3010   41.1940 H   0  0  0  0  0  0  0  0  0  0  0  0
    2.3332   17.8364   41.3216 H   0  0  0  0  0  0  0  0  0  0  0  0
    3.0849   17.5830   43.0061 H   0  0  0  0  0  0  0  0  0  0  0  0
   -0.0269   21.9903   43.3469 H   0  0  0  0  0  0  0  0  0  0  0  0
    1.0300   16.3495   41.5732 H   0  0  0  0  0  0  0  0  0  0  0  0
   -1.5495   17.3808   45.7032 H   0  0  0  0  0  0  0  0  0  0  0  0
    3.4098   13.3136   43.4474 H   0  0  0  0  0  0  0  0  0  0  0  0
    3.2393   13.0011   41.8036 H   0  0  0  0  0  0  0  0  0  0  0  0
    4.7520   13.3768   42.4358 H   0  0  0  0  0  0  0  0  0  0  0  0
  1 10  1  0
  2 17  1  0
  2  4  1  0
  3  7  1  0
  3  9  1  0
  4 18  2  0
  5 14  2  0
  6  5  1  0
  7 15  2  0
  8  7  1  0
  8  6  2  0
  9  4  1  0
  9  1  1  0
 10 13  2  0
 11 16  2  0
 14 13  1  0
 15  5  1  0
 15 10  1  0
 16 12  1  0
 16  8  1  0
  1 19  1  0
  1 20  1  0
  2 21  1  0
  2 22  1  0
  3 23  1  0
  3 24  1  0
  6 25  1  0
  9 26  1  6
 13 27  1  0
 17 28  1  0
 17 29  1  0
 17 30  1  0
M  CHG  2  12  -1  17   1
M  END
>  <mol_id>  (86) 
2026-09-18-6fnk-s0-n100-refligand-0088

>  <rmsd_to_ref>  (86) 


$$$$

     RDKit          3D

 46 49  0  0  0  0  0  0  0  0999 V2000
    1.8620   18.5324   42.9022 C   0  0  0  0  0  0  0  0  0  0  0  0
    2.4577   11.4918   40.8876 N   0  0  0  0  0  0  0  0  0  0  0  0
    1.5264   21.3008   42.2920 C   0  0  0  0  0  0  0  0  0  0  0  0
    3.5863   17.4715   40.3619 O   0  0  0  0  0  0  0  0  0  0  0  0
   -0.5306   20.1747   45.0522 C   0  0  0  0  0  0  0  0  0  0  0  0
    0.9214   18.6903   43.9349 C   0  0  0  0  0  0  0  0  0  0  0  0
   -1.0453   19.1113   45.8393 N   0  0  0  0  0  0  0  0  0  0  0  0
    0.4906   17.6621   44.7596 C   0  0  0  0  0  0  0  0  0  0  0  0
   -0.8772   21.6431   44.6966 O   0  0  0  0  0  0  0  0  0  0  0  0
    2.3220   12.8878   40.5899 C   0  0  0  0  0  0  0  0  0  0  0  0
    2.2240   17.1896   42.5457 N   0  0  0  0  0  0  0  0  0  0  0  0
    2.8207   17.9343   41.1638 C   0  0  0  0  0  0  0  0  0  0  0  0
    1.5322   13.2150   42.9532 C   0  0  0  0  0  0  0  0  0  0  0  0
    1.4184   14.1138   44.0165 C   0  0  0  0  0  0  0  0  0  0  0  0
    0.3885   19.9861   44.0861 C   0  0  0  0  0  0  0  0  0  0  0  0
    0.7215   20.9807   43.1855 C   0  0  0  0  0  0  0  0  0  0  0  0
   -0.5686   17.8929   45.6337 C   0  0  0  0  0  0  0  0  0  0  0  0
    2.6077   20.6082   41.5552 C   0  0  0  0  0  0  0  0  0  0  0  0
   -1.3153   16.5707   46.2202 C   0  0  0  0  0  0  0  0  0  0  0  0
    2.1887   15.8820   42.7189 C   0  0  1  0  0  0  0  0  0  0  0  0
    3.3442   21.4249   40.8353 O   0  0  0  0  0  0  0  0  0  0  0  0
    2.6677   15.0200   41.7209 C   0  0  0  0  0  0  0  0  0  0  0  0
    1.7460   15.4374   43.8991 C   0  0  0  0  0  0  0  0  0  0  0  0
    2.4472   19.1731   41.6267 C   0  0  0  0  0  0  0  0  0  0  0  0
    4.3545   22.2751   41.4924 C   0  0  0  0  0  0  0  0  0  0  0  0
    2.1362   13.7341   41.7881 C   0  0  0  0  0  0  0  0  0  0  0  0
    2.3461   11.3444   41.9009 H   0  0  0  0  0  0  0  0  0  0  0  0
    1.7344   10.9609   40.3817 H   0  0  0  0  0  0  0  0  0  0  0  0
    3.3902   11.1671   40.5941 H   0  0  0  0  0  0  0  0  0  0  0  0
    1.4058   22.3470   41.9741 H   0  0  0  0  0  0  0  0  0  0  0  0
    0.9791   16.6771   44.7237 H   0  0  0  0  0  0  0  0  0  0  0  0
    3.2299   13.2214   40.0661 H   0  0  0  0  0  0  0  0  0  0  0  0
    1.4179   12.9993   39.9733 H   0  0  0  0  0  0  0  0  0  0  0  0
    1.1763   12.1762   43.0194 H   0  0  0  0  0  0  0  0  0  0  0  0
    1.0516   13.7436   44.9852 H   0  0  0  0  0  0  0  0  0  0  0  0
   -0.0002   21.8024   43.3038 H   0  0  0  0  0  0  0  0  0  0  0  0
   -1.2385   16.5626   47.3176 H   0  0  0  0  0  0  0  0  0  0  0  0
   -2.3753   16.5878   45.9269 H   0  0  0  0  0  0  0  0  0  0  0  0
   -0.8366   15.6681   45.8125 H   0  0  0  0  0  0  0  0  0  0  0  0
    1.1866   15.8492   42.2663 H   0  0  0  0  0  0  0  0  0  0  0  0
    2.4144   15.4495   40.7404 H   0  0  0  0  0  0  0  0  0  0  0  0
    3.7534   14.9268   41.8710 H   0  0  0  0  0  0  0  0  0  0  0  0
    1.6471   16.1197   44.7563 H   0  0  0  0  0  0  0  0  0  0  0  0
    4.3575   22.0721   42.5736 H   0  0  0  0  0  0  0  0  0  0  0  0
    5.3478   22.0535   41.0750 H   0  0  0  0  0  0  0  0  0  0  0  0
    4.1118   23.3339   41.3188 H   0  0  0  0  0  0  0  0  0  0  0  0
  1  6  1  0
  3 16  1  0
  4 12  2  0
  5  7  1  0
  6  8  2  0
  7 17  2  0
  8 17  1  0
  9  5  2  0
 10  2  1  0
 10 26  1  0
 11  1  1  0
 11 20  1  0
 12 24  1  0
 12 11  1  0
 13 14  1  0
 15  6  1  0
 15  5  1  0
 16 15  2  0
 17 19  1  0
 18 24  1  0
 18  3  2  0
 20 22  1  0
 20 23  1  0
 21 25  1  0
 21 18  1  0
 22 26  1  0
 23 14  2  0
 24  1  2  0
 26 13  2  0
  2 27  1  0
  2 28  1  0
  2 29  1  0
  3 30  1  0
  8 31  1  0
 10 32  1  0
 10 33  1  0
 13 34  1  0
 14 35  1  0
 16 36  1  0
 19 37  1  0
 19 38  1  0
 19 39  1  0
 20 40  1  6
 22 41  1  0
 22 42  1  0
 23 43  1  0
 25 44  1  0
 25 45  1  0
 25 46  1  0
M  CHG  1   2   1
M  END
>  <mol_id>  (87) 
2026-09-18-6fnk-s0-n100-refligand-0089

>  <rmsd_to_ref>  (87) 


$$$$

     RDKit          3D

 16 16  0  0  0  0  0  0  0  0999 V2000
    1.8605   19.9277   43.0372 C   0  0  0  0  0  0  0  0  0  0  0  0
    0.5407   18.3062   44.1402 C   0  0  0  0  0  0  0  0  0  0  0  0
    2.7015   18.9962   42.5748 C   0  0  0  0  0  0  0  0  0  0  0  0
    0.7196   19.5819   43.8338 C   0  0  0  0  0  0  0  0  0  0  0  0
    1.3217   17.2987   43.4222 C   0  0  0  0  0  0  0  0  0  0  0  0
   -0.2827   21.8404   43.5629 N   0  0  0  0  0  0  0  0  0  0  0  0
   -0.2054   20.7268   44.2615 C   0  0  0  0  0  0  0  0  0  0  0  0
    2.4082   17.6285   42.7853 C   0  0  0  0  0  0  0  0  0  0  0  0
   -0.8123   20.5408   45.2591 O   0  0  0  0  0  0  0  0  0  0  0  0
    2.0488   20.9854   42.8004 H   0  0  0  0  0  0  0  0  0  0  0  0
   -0.1793   18.0104   44.9174 H   0  0  0  0  0  0  0  0  0  0  0  0
    3.6137   19.2911   42.0354 H   0  0  0  0  0  0  0  0  0  0  0  0
    0.9872   16.2508   43.4206 H   0  0  0  0  0  0  0  0  0  0  0  0
   -0.9109   22.5973   43.8683 H   0  0  0  0  0  0  0  0  0  0  0  0
    0.2850   21.9545   42.7112 H   0  0  0  0  0  0  0  0  0  0  0  0
    3.0917   16.8508   42.4141 H   0  0  0  0  0  0  0  0  0  0  0  0
  1  4  2  0
  3  8  2  0
  3  1  1  0
  4  2  1  0
  4  7  1  0
  5  2  2  0
  6  7  1  0
  7  9  2  0
  8  5  1  0
  1 10  1  0
  2 11  1  0
  3 12  1  0
  5 13  1  0
  6 14  1  0
  6 15  1  0
  8 16  1  0
M  END
>  <mol_id>  (88) 
2026-09-18-6fnk-s0-n100-refligand-0090

>  <rmsd_to_ref>  (88) 


$$$$

     RDKit          3D

 26 28  0  0  0  0  0  0  0  0999 V2000
    3.1424   14.8603   39.9474 C   0  0  0  0  0  0  0  0  0  0  0  0
    2.4669   15.5585   42.1682 C   0  0  0  0  0  0  0  0  0  0  0  0
    2.4247   16.8587   41.6918 C   0  0  0  0  0  0  0  0  0  0  0  0
   -0.4321   19.5877   44.7729 C   0  0  0  0  0  0  0  0  0  0  0  0
    1.1577   20.5394   43.2607 N   0  0  0  0  0  0  0  0  0  0  0  0
   -0.8213   20.6752   45.0938 O   0  0  0  0  0  0  0  0  0  0  0  0
    1.0069   18.0893   43.5229 C   0  0  0  0  0  0  0  0  0  0  0  0
   -0.6240   17.2435   45.0124 C   0  0  0  0  0  0  0  0  0  0  0  0
    2.0583   17.9677   42.5101 C   0  0  0  0  0  0  0  0  0  0  0  0
    2.1775   20.3513   42.4651 C   0  0  0  0  0  0  0  0  0  0  0  0
    2.5798   17.0066   40.2874 C   0  0  0  0  0  0  0  0  0  0  0  0
   -1.0171   18.4554   45.3431 N   0  0  0  0  0  0  0  0  0  0  0  0
    2.7273   19.1779   42.2165 C   0  0  0  0  0  0  0  0  0  0  0  0
    2.9551   16.0942   39.4886 N   0  0  0  0  0  0  0  0  0  0  0  0
    0.4053   16.9679   44.1136 C   0  0  0  0  0  0  0  0  0  0  0  0
    2.7469   14.5124   41.2150 C   0  0  0  0  0  0  0  0  0  0  0  0
    0.6315   19.3838   43.8058 C   0  0  0  0  0  0  0  0  0  0  0  0
    3.6207   14.1083   39.3026 H   0  0  0  0  0  0  0  0  0  0  0  0
    2.2939   15.3329   43.2307 H   0  0  0  0  0  0  0  0  0  0  0  0
   -1.1423   16.3913   45.4763 H   0  0  0  0  0  0  0  0  0  0  0  0
    2.6076   21.2332   41.9678 H   0  0  0  0  0  0  0  0  0  0  0  0
    2.3561   17.9937   39.8564 H   0  0  0  0  0  0  0  0  0  0  0  0
    3.7316   19.1404   41.7694 H   0  0  0  0  0  0  0  0  0  0  0  0
   -0.0060   16.3406   43.3091 H   0  0  0  0  0  0  0  0  0  0  0  0
    1.1948   16.4750   44.7000 H   0  0  0  0  0  0  0  0  0  0  0  0
    2.6452   13.4547   41.4990 H   0  0  0  0  0  0  0  0  0  0  0  0
  1 16  1  0
  3  2  1  0
  3  9  1  0
  4 12  1  0
  4  6  2  0
  5 17  1  0
  7 15  1  0
  7 17  2  0
  8 12  2  0
  9  7  1  0
 10  5  2  0
 11  3  2  0
 13  9  2  0
 13 10  1  0
 14  1  2  0
 14 11  1  0
 15  8  1  0
 16  2  2  0
 17  4  1  0
  1 18  1  0
  2 19  1  0
  8 20  1  0
 10 21  1  0
 11 22  1  0
 13 23  1  0
 15 24  1  0
 15 25  1  0
 16 26  1  0
M  END
>  <mol_id>  (89) 
2026-09-18-6fnk-s0-n100-refligand-0091

>  <rmsd_to_ref>  (89) 


$$$$

     RDKit          3D

 46 50  0  0  0  0  0  0  0  0999 V2000
    0.7769   16.9133   43.6485 C   0  0  1  0  0  0  0  0  0  0  0  0
   -0.8401   16.7683   45.9249 C   0  0  0  0  0  0  0  0  0  0  0  0
    3.4264   21.6966   40.1299 N   0  0  0  0  0  0  0  0  0  0  0  0
    1.4401   18.9677   42.7596 C   0  0  0  0  0  0  0  0  0  0  0  0
    0.7219   20.8801   43.8030 C   0  0  0  0  0  0  0  0  0  0  0  0
   -0.7469   18.0462   46.7811 C   0  0  0  0  0  0  0  0  0  0  0  0
    1.3487   16.0238   43.0149 C   0  0  0  0  0  0  0  0  0  0  0  0
    4.3636   22.2746   39.4239 C   0  0  0  0  0  0  0  0  0  0  0  0
    5.5033   22.8038   41.4125 C   0  0  0  0  0  0  0  0  0  0  0  0
    2.3210   19.5318   42.0944 C   0  0  0  0  0  0  0  0  0  0  0  0
   -1.1746   19.3381   45.7338 S   0  0  0  0  0  0  0  0  0  0  0  0
    2.3944   20.9085   42.2191 C   0  0  0  0  0  0  0  0  0  0  0  0
    4.4526   22.2306   42.1423 C   0  0  0  0  0  0  0  0  0  0  0  0
    0.1102   18.8334   44.6380 C   0  0  1  0  0  0  0  0  0  0  0  0
    3.3771   21.6429   41.4985 C   0  0  0  0  0  0  0  0  0  0  0  0
    1.7297   14.5832   43.6931 C   0  0  1  0  0  0  0  0  0  0  0  0
    0.1424   16.5362   44.9086 C   0  0  2  0  0  0  0  0  0  0  0  0
   -0.2275   21.4711   44.5178 O   0  0  0  0  0  0  0  0  0  0  0  0
    2.9590   11.7327   43.8446 O   0  0  0  0  0  0  0  0  0  0  0  0
    0.5701   17.5976   44.4761 C   0  0  1  0  0  0  0  0  0  0  0  0
    0.7359   11.5619   43.2430 O   0  0  0  0  0  0  0  0  0  0  0  0
    1.9967   12.3210   43.3588 C   0  0  0  0  0  0  0  0  0  0  0  0
    5.4274   22.8247   40.0769 N   0  0  0  0  0  0  0  0  0  0  0  0
    0.5302   14.5344   44.9765 S   0  0  0  0  0  0  0  0  0  0  0  0
    2.0833   13.6102   42.6549 C   0  0  0  0  0  0  0  0  0  0  0  0
    0.7469   19.5691   43.7087 C   0  0  0  0  0  0  0  0  0  0  0  0
    1.5472   21.6516   43.0669 C   0  0  0  0  0  0  0  0  0  0  0  0
    0.9269   17.2455   42.6107 H   0  0  0  0  0  0  0  0  0  0  0  0
   -0.7957   15.9139   46.6164 H   0  0  0  0  0  0  0  0  0  0  0  0
   -1.7753   16.8984   45.3606 H   0  0  0  0  0  0  0  0  0  0  0  0
    1.2246   17.9100   42.5479 H   0  0  0  0  0  0  0  0  0  0  0  0
   -1.4458   17.9920   47.6288 H   0  0  0  0  0  0  0  0  0  0  0  0
    0.2604   18.1807   47.2021 H   0  0  0  0  0  0  0  0  0  0  0  0
    0.7046   15.7975   42.1524 H   0  0  0  0  0  0  0  0  0  0  0  0
    2.3405   16.4661   42.8398 H   0  0  0  0  0  0  0  0  0  0  0  0
    4.2954   22.3160   38.3268 H   0  0  0  0  0  0  0  0  0  0  0  0
    6.3760   23.2294   41.9295 H   0  0  0  0  0  0  0  0  0  0  0  0
    3.0057   18.9701   41.4419 H   0  0  0  0  0  0  0  0  0  0  0  0
    4.4830   22.2480   43.2417 H   0  0  0  0  0  0  0  0  0  0  0  0
    0.8626   19.1262   45.3852 H   0  0  0  0  0  0  0  0  0  0  0  0
    2.6539   14.3246   44.2307 H   0  0  0  0  0  0  0  0  0  0  0  0
   -0.2498   22.4581   44.5913 H   0  0  0  0  0  0  0  0  0  0  0  0
    1.2596   18.3643   44.8590 H   0  0  0  0  0  0  0  0  0  0  0  0
    1.3714   13.6509   41.8173 H   0  0  0  0  0  0  0  0  0  0  0  0
    3.0729   13.7936   42.2108 H   0  0  0  0  0  0  0  0  0  0  0  0
    1.5584   22.7501   43.1222 H   0  0  0  0  0  0  0  0  0  0  0  0
  1  7  1  0
  1 20  1  0
  1 17  1  0
  2  6  1  0
  3 15  2  0
  4 26  1  0
  5 26  2  0
  5 18  1  0
  7 16  1  0
  8 23  2  0
  8  3  1  0
  9 13  2  0
 10  4  2  0
 11  6  1  0
 12 10  1  0
 12 27  2  0
 14 26  1  0
 14 11  1  0
 15 13  1  0
 15 12  1  0
 16 25  1  0
 16 24  1  0
 17 24  1  1
 17  2  1  0
 20 14  1  0
 20 17  1  0
 22 21  2  0
 22 19  1  0
 23  9  1  0
 25 22  1  0
 27  5  1  0
  1 28  1  6
  2 29  1  0
  2 30  1  0
  4 31  1  0
  6 32  1  0
  6 33  1  0
  7 34  1  0
  7 35  1  0
  8 36  1  0
  9 37  1  0
 10 38  1  0
 13 39  1  0
 14 40  1  1
 16 41  1  1
 18 42  1  0
 20 43  1  1
 25 44  1  0
 25 45  1  0
 27 46  1  0
M  CHG  1  19  -1
M  END
>  <mol_id>  (90) 
2026-09-18-6fnk-s0-n100-refligand-0092

>  <rmsd_to_ref>  (90) 


$$$$

     RDKit          3D

 19 21  0  0  0  0  0  0  0  0999 V2000
    1.2093   18.4218   42.3913 C   0  0  0  0  0  0  0  0  0  0  0  0
    0.0423   18.8124   45.5506 N   0  0  0  0  0  0  0  0  0  0  0  0
    0.1671   19.7433   44.5781 C   0  0  0  0  0  0  0  0  0  0  0  0
   -1.0594   17.9349   45.6199 C   0  0  0  0  0  0  0  0  0  0  0  0
    0.2504   17.4466   45.3239 C   0  0  0  0  0  0  0  0  0  0  0  0
    1.5121   20.5925   41.5874 N   0  0  0  0  0  0  0  0  0  0  0  0
    0.5659   19.6336   43.3877 C   0  0  0  0  0  0  0  0  0  0  0  0
    1.6826   19.1597   41.4118 C   0  0  0  0  0  0  0  0  0  0  0  0
    0.3702   21.6800   43.6275 N   0  0  0  0  0  0  0  0  0  0  0  0
   -0.1613   21.1106   44.6949 N   0  0  0  0  0  0  0  0  0  0  0  0
    0.8459   20.7187   42.7384 C   0  0  0  0  0  0  0  0  0  0  0  0
    1.2258   17.3302   42.5261 H   0  0  0  0  0  0  0  0  0  0  0  0
   -1.5267   17.7102   46.5900 H   0  0  0  0  0  0  0  0  0  0  0  0
   -2.0451   17.8759   45.1354 H   0  0  0  0  0  0  0  0  0  0  0  0
    0.7930   16.8419   46.0653 H   0  0  0  0  0  0  0  0  0  0  0  0
    0.6947   16.8504   44.5134 H   0  0  0  0  0  0  0  0  0  0  0  0
    2.1706   18.7258   40.5266 H   0  0  0  0  0  0  0  0  0  0  0  0
    0.4254   22.6969   43.4737 H   0  0  0  0  0  0  0  0  0  0  0  0
   -0.6977   21.5654   45.4474 H   0  0  0  0  0  0  0  0  0  0  0  0
  1  7  1  0
  3 10  1  0
  3  2  1  0
  4  2  1  0
  5  4  1  0
  5  2  1  0
  6 11  2  0
  7  3  2  0
  8  6  1  0
  8  1  2  0
  9 10  1  0
 11  7  1  0
 11  9  1  0
  1 12  1  0
  4 13  1  0
  4 14  1  0
  5 15  1  0
  5 16  1  0
  8 17  1  0
  9 18  1  0
 10 19  1  0
M  END
>  <mol_id>  (91) 
2026-09-18-6fnk-s0-n100-refligand-0093

>  <rmsd_to_ref>  (91) 


$$$$

     RDKit          3D

 14 14  0  0  0  0  0  0  0  0999 V2000
    2.6583   19.0160   42.6151 N   0  0  0  0  0  0  0  0  0  0  0  0
   -1.0387   19.5989   44.8711 N   0  0  0  0  0  0  0  0  0  0  0  0
    0.2234   17.8484   45.1668 N   0  0  0  0  0  0  0  0  0  0  0  0
    2.2958   20.1430   42.1269 C   0  0  0  0  0  0  0  0  0  0  0  0
   -0.8977   20.9701   44.6006 O   0  0  0  0  0  0  0  0  0  0  0  0
    2.0068   18.5873   43.4890 N   0  0  0  0  0  0  0  0  0  0  0  0
    1.2707   20.5978   42.7428 N   0  0  0  0  0  0  0  0  0  0  0  0
    0.8953   19.6332   43.6401 C   0  0  0  0  0  0  0  0  0  0  0  0
   -0.0359   18.9738   44.5645 C   0  0  0  0  0  0  0  0  0  0  0  0
    3.4818   18.5117   42.2570 H   0  0  0  0  0  0  0  0  0  0  0  0
   -1.8838   19.1735   45.2780 H   0  0  0  0  0  0  0  0  0  0  0  0
   -0.4707   17.4340   45.8051 H   0  0  0  0  0  0  0  0  0  0  0  0
    2.7979   20.6514   41.2907 H   0  0  0  0  0  0  0  0  0  0  0  0
   -1.0178   21.4856   45.4372 H   0  0  0  0  0  0  0  0  0  0  0  0
  1  6  1  0
  4  1  1  0
  4  7  2  0
  5  2  1  0
  6  8  2  0
  7  8  1  0
  8  9  1  0
  9  3  2  3
  9  2  1  0
  1 10  1  0
  2 11  1  0
  3 12  1  0
  4 13  1  0
  5 14  1  0
M  END
>  <mol_id>  (92) 
2026-09-18-6fnk-s0-n100-refligand-0094

>  <rmsd_to_ref>  (92) 


$$$$

     RDKit          3D

 32 35  0  0  0  0  0  0  0  0999 V2000
    2.1147   20.3064   39.7350 C   0  0  0  0  0  0  0  0  0  0  0  0
   -0.4361   19.7871   44.8539 C   0  0  0  0  0  0  0  0  0  0  0  0
   -0.0359   18.4861   44.4679 C   0  0  0  0  0  0  0  0  0  0  0  0
    1.5297   18.7342   42.4766 N   0  0  0  0  0  0  0  0  0  0  0  0
    5.2577   21.5684   41.4476 C   0  0  0  0  0  0  0  0  0  0  0  0
    4.1184   21.0092   40.6902 C   0  0  0  0  0  0  0  0  0  0  0  0
    4.4765   20.9933   38.9798 S   0  0  0  0  0  0  0  0  0  0  0  0
   -0.4485   17.3266   45.2674 C   0  0  0  0  0  0  0  0  0  0  0  0
   -1.1855   17.5016   46.4629 C   0  0  0  0  0  0  0  0  0  0  0  0
    2.9217   20.5372   38.5295 C   0  0  0  0  0  0  0  0  0  0  0  0
    0.8037   21.0605   42.8691 C   0  0  0  0  0  0  0  0  0  0  0  0
    5.5669   22.2409   42.5167 C   0  0  0  0  0  0  0  0  0  0  0  0
    0.7665   17.9444   43.3836 C   0  0  0  0  0  0  0  0  0  0  0  0
   -1.4661   18.8232   46.7794 C   0  0  0  0  0  0  0  0  0  0  0  0
    0.0035   16.0623   44.6645 C   0  0  0  0  0  0  0  0  0  0  0  0
    2.6619   20.4216   41.0153 C   0  0  0  0  0  0  0  0  0  0  0  0
   -1.1027   19.9292   45.9772 N   0  0  0  0  0  0  0  0  0  0  0  0
   -0.0751   21.0148   43.9761 C   0  0  0  0  0  0  0  0  0  0  0  0
    0.7728   16.4716   43.4642 C   0  0  0  0  0  0  0  0  0  0  0  0
    1.5509   20.0532   42.1761 C   0  0  0  0  0  0  0  0  0  0  0  0
    1.0539   20.0363   39.6272 H   0  0  0  0  0  0  0  0  0  0  0  0
    6.1856   21.3266   40.9085 H   0  0  0  0  0  0  0  0  0  0  0  0
   -1.5097   16.6582   47.0904 H   0  0  0  0  0  0  0  0  0  0  0  0
    2.5649   20.4288   37.4946 H   0  0  0  0  0  0  0  0  0  0  0  0
    0.9411   22.0714   42.4579 H   0  0  0  0  0  0  0  0  0  0  0  0
    6.6201   22.4688   42.7376 H   0  0  0  0  0  0  0  0  0  0  0  0
    4.7753   22.5819   43.2000 H   0  0  0  0  0  0  0  0  0  0  0  0
   -2.0068   19.0235   47.7161 H   0  0  0  0  0  0  0  0  0  0  0  0
   -0.1869   15.0404   45.0243 H   0  0  0  0  0  0  0  0  0  0  0  0
   -1.3689   20.8760   46.2829 H   0  0  0  0  0  0  0  0  0  0  0  0
   -0.5611   21.9635   44.2475 H   0  0  0  0  0  0  0  0  0  0  0  0
    1.2652   15.7914   42.7537 H   0  0  0  0  0  0  0  0  0  0  0  0
  1 16  1  0
  2 17  1  0
  3  2  2  0
  3  8  1  0
  4 13  1  0
  5 12  2  3
  6 16  2  0
  6  5  1  0
  7  6  1  0
  8  9  1  0
  9 14  2  0
 10  7  1  0
 10  1  2  0
 11 18  2  0
 13  3  1  0
 15  8  2  0
 16 20  1  0
 17 14  1  0
 18  2  1  0
 19 13  2  0
 19 15  1  0
 20  4  2  0
 20 11  1  0
  1 21  1  0
  5 22  1  0
  9 23  1  0
 10 24  1  0
 11 25  1  0
 12 26  1  0
 12 27  1  0
 14 28  1  0
 15 29  1  0
 17 30  1  0
 18 31  1  0
 19 32  1  0
M  END
>  <mol_id>  (93) 
2026-09-18-6fnk-s0-n100-refligand-0095

>  <rmsd_to_ref>  (93) 


$$$$

     RDKit          3D

 26 26  0  0  0  0  0  0  0  0999 V2000
    0.7286   16.4533   45.3357 S   0  0  0  0  0  0  0  0  0  0  0  0
   -0.6957   18.5592   45.8929 C   0  0  0  0  0  0  0  0  0  0  0  0
    3.9792   15.5729   39.2388 O   0  0  0  0  0  0  0  0  0  0  0  0
    2.8608   15.7623   41.2838 C   0  0  0  0  0  0  0  0  0  0  0  0
    2.8162   18.1903   41.9341 C   0  0  0  0  0  0  0  0  0  0  0  0
   -0.0633   19.3302   44.7384 C   0  0  0  0  0  0  0  0  0  0  0  0
    3.5395   17.1076   41.7036 C   0  0  0  0  0  0  0  0  0  0  0  0
    0.8574   18.9019   43.8424 C   0  0  0  0  0  0  0  0  0  0  0  0
   -0.8456   17.1177   45.6729 C   0  0  0  0  0  0  0  0  0  0  0  0
   -0.5626   20.4275   44.6716 O   0  0  0  0  0  0  0  0  0  0  0  0
    3.9741   15.1165   40.5724 C   0  0  0  0  0  0  0  0  0  0  0  0
    1.4157   19.9641   42.8346 C   0  0  0  0  0  0  0  0  0  0  0  0
    0.9256   21.1179   42.6218 N   0  0  0  0  0  0  0  0  0  0  0  0
    2.4745   19.5111   41.9678 C   0  0  0  0  0  0  0  0  0  0  0  0
    5.1429   14.8131   40.9135 O   0  0  0  0  0  0  0  0  0  0  0  0
    1.2916   17.4684   43.8990 C   0  0  0  0  0  0  0  0  0  0  0  0
   -0.0668   18.7038   46.7838 H   0  0  0  0  0  0  0  0  0  0  0  0
   -1.7145   18.9584   46.0048 H   0  0  0  0  0  0  0  0  0  0  0  0
    2.5427   15.1766   42.1588 H   0  0  0  0  0  0  0  0  0  0  0  0
    1.9407   15.8762   40.6918 H   0  0  0  0  0  0  0  0  0  0  0  0
    4.6336   17.1537   41.8084 H   0  0  0  0  0  0  0  0  0  0  0  0
   -1.5161   16.9388   44.8193 H   0  0  0  0  0  0  0  0  0  0  0  0
   -1.2773   16.6396   46.5646 H   0  0  0  0  0  0  0  0  0  0  0  0
    1.3674   21.7465   41.9358 H   0  0  0  0  0  0  0  0  0  0  0  0
    3.0086   20.2321   41.3316 H   0  0  0  0  0  0  0  0  0  0  0  0
    1.9247   17.0351   43.1107 H   0  0  0  0  0  0  0  0  0  0  0  0
  1  9  1  0
  3 11  2  0
  4  7  1  0
  5 14  2  0
  6 10  2  0
  6  2  1  0
  7  5  2  0
  8  6  1  0
  9  2  1  0
 11 15  1  0
 11  4  1  0
 12  8  1  0
 13 12  2  3
 14 12  1  0
 16  8  2  0
 16  1  1  0
  2 17  1  0
  2 18  1  0
  4 19  1  0
  4 20  1  0
  7 21  1  0
  9 22  1  0
  9 23  1  0
 13 24  1  0
 14 25  1  0
 16 26  1  0
M  CHG  1  15  -1
M  END
>  <mol_id>  (94) 
2026-09-18-6fnk-s0-n100-refligand-0098

>  <rmsd_to_ref>  (94) 


$$$$

     RDKit          3D

 32 32  0  0  0  0  0  0  0  0999 V2000
    3.1335   14.6224   41.6753 C   0  0  0  0  0  0  0  0  0  0  0  0
   -0.9296   19.5888   45.2909 N   0  0  0  0  0  0  0  0  0  0  0  0
    2.6103   20.5142   42.2445 N   0  0  0  0  0  0  0  0  0  0  0  0
    1.6761   16.7907   42.7240 C   0  0  0  0  0  0  0  0  0  0  0  0
    0.6337   18.4792   43.8422 C   0  0  0  0  0  0  0  0  0  0  0  0
    1.6493   18.0342   42.8586 N   0  0  0  0  0  0  0  0  0  0  0  0
   -0.0567   19.6325   44.3229 C   0  0  0  0  0  0  0  0  0  0  0  0
    2.3896   15.9926   41.5581 C   0  0  0  0  0  0  0  0  0  0  0  0
    3.7028   20.4161   42.6295 O   0  0  0  0  0  0  0  0  0  0  0  0
    0.9424   14.9623   43.9343 O   0  0  0  0  0  0  0  0  0  0  0  0
    0.9284   16.2543   43.6871 C   0  0  1  0  0  0  0  0  0  0  0  0
    0.2272   17.2928   44.3512 C   0  0  0  0  0  0  0  0  0  0  0  0
    3.4749   14.0159   40.3213 C   0  0  0  0  0  0  0  0  0  0  0  0
   -1.2968   18.3778   45.7884 C   0  0  0  0  0  0  0  0  0  0  0  0
    1.6438   20.9248   42.8070 O   0  0  0  0  0  0  0  0  0  0  0  0
    2.7789   12.7798   39.7827 C   0  0  0  0  0  0  0  0  0  0  0  0
   -0.7428   17.2130   45.3636 C   0  0  0  0  0  0  0  0  0  0  0  0
    4.0670   14.7767   42.2362 H   0  0  0  0  0  0  0  0  0  0  0  0
    2.4579   13.9230   42.1895 H   0  0  0  0  0  0  0  0  0  0  0  0
    0.1577   20.6044   43.8546 H   0  0  0  0  0  0  0  0  0  0  0  0
    3.1398   16.6890   41.1554 H   0  0  0  0  0  0  0  0  0  0  0  0
    1.5012   15.6646   40.9984 H   0  0  0  0  0  0  0  0  0  0  0  0
    0.6594   14.8021   44.8693 H   0  0  0  0  0  0  0  0  0  0  0  0
    0.1081   16.1080   42.9690 H   0  0  0  0  0  0  0  0  0  0  0  0
    3.3048   14.8099   39.5792 H   0  0  0  0  0  0  0  0  0  0  0  0
    4.4957   13.6435   40.4920 H   0  0  0  0  0  0  0  0  0  0  0  0
   -2.0739   18.3402   46.5661 H   0  0  0  0  0  0  0  0  0  0  0  0
    0.7710   20.9462   42.3402 H   0  0  0  0  0  0  0  0  0  0  0  0
    2.2631   12.2619   40.6047 H   0  0  0  0  0  0  0  0  0  0  0  0
    2.0454   13.0757   39.0182 H   0  0  0  0  0  0  0  0  0  0  0  0
    3.5236   12.1055   39.3347 H   0  0  0  0  0  0  0  0  0  0  0  0
   -1.0415   16.2462   45.7950 H   0  0  0  0  0  0  0  0  0  0  0  0
  2 14  2  0
  3  9  2  0
  3 15  1  0
  4 11  1  0
  5  7  2  0
  5 12  1  0
  6  4  2  0
  6  5  1  0
  7  2  1  0
  8  1  1  0
  8  4  1  0
 11 10  1  0
 11 12  1  0
 12 17  2  0
 13  1  1  0
 16 13  1  0
 17 14  1  0
  1 18  1  0
  1 19  1  0
  7 20  1  0
  8 21  1  0
  8 22  1  0
 10 23  1  0
 11 24  1  6
 13 25  1  0
 13 26  1  0
 14 27  1  0
 15 28  1  0
 16 29  1  0
 16 30  1  0
 16 31  1  0
 17 32  1  0
M  END
>  <mol_id>  (95) 
2026-09-18-6fnk-s0-n100-refligand-0099

>  <rmsd_to_ref>  (95) 


$$$$

     RDKit          3D

 27 27  0  0  0  0  0  0  0  0999 V2000
    0.8027   19.2167   45.7017 F   0  0  0  0  0  0  0  0  0  0  0  0
    0.7806   21.8863   42.4388 F   0  0  0  0  0  0  0  0  0  0  0  0
    0.1702   20.1488   43.1208 C   0  0  0  0  0  0  0  0  0  0  0  0
    1.9496   18.5903   41.7006 C   0  0  0  0  0  0  0  0  0  0  0  0
    0.1296   17.0195   45.5505 C   0  0  0  0  0  0  0  0  0  0  0  0
    2.3443   17.5750   43.6749 O   0  0  0  0  0  0  0  0  0  0  0  0
    0.2948   18.5850   43.5620 C   0  0  2  0  0  0  0  0  0  0  0  0
   -0.2357   16.6677   46.4831 O   0  0  0  0  0  0  0  0  0  0  0  0
    0.0131   18.4557   44.9740 C   0  0  0  0  0  0  0  0  0  0  0  0
    1.6219   18.4522   43.0033 C   0  0  2  0  0  0  0  0  0  0  0  0
    1.9011   19.4784   40.7639 C   0  0  0  0  0  0  0  0  0  0  0  0
   -1.2155   18.8321   45.3415 F   0  0  0  0  0  0  0  0  0  0  0  0
    1.5050   20.6206   41.2089 N   0  0  0  0  0  0  0  0  0  0  0  0
    0.8690   20.8398   42.3226 C   0  0  1  0  0  0  0  0  0  0  0  0
   -0.8501   20.2297   42.7178 H   0  0  0  0  0  0  0  0  0  0  0  0
    0.5546   20.5861   44.0541 H   0  0  0  0  0  0  0  0  0  0  0  0
    3.0222   18.3466   41.7169 H   0  0  0  0  0  0  0  0  0  0  0  0
    1.0226   18.1050   41.3612 H   0  0  0  0  0  0  0  0  0  0  0  0
    0.6497   16.2822   44.9212 H   0  0  0  0  0  0  0  0  0  0  0  0
    2.1761   17.6824   44.6446 H   0  0  0  0  0  0  0  0  0  0  0  0
   -0.3754   17.7781   43.2306 H   0  0  0  0  0  0  0  0  0  0  0  0
    1.9075   19.5031   43.1587 H   0  0  0  0  0  0  0  0  0  0  0  0
    1.2025   19.1375   39.9856 H   0  0  0  0  0  0  0  0  0  0  0  0
    2.9155   19.6026   40.3570 H   0  0  0  0  0  0  0  0  0  0  0  0
    2.3583   21.1941   41.2708 H   0  0  0  0  0  0  0  0  0  0  0  0
    0.7456   20.8099   40.5393 H   0  0  0  0  0  0  0  0  0  0  0  0
    1.3534   19.9287   42.7039 H   0  0  0  0  0  0  0  0  0  0  0  0
  3  7  1  0
  4 10  1  0
  5  8  2  0
  7  9  1  0
  9 12  1  0
  9  5  1  0
  9  1  1  0
 10  7  1  0
 10  6  1  0
 11 13  1  0
 11  4  1  0
 13 14  1  0
 14  2  1  0
 14  3  1  0
  3 15  1  0
  3 16  1  0
  4 17  1  0
  4 18  1  0
  5 19  1  0
  6 20  1  0
  7 21  1  6
 10 22  1  1
 11 23  1  0
 11 24  1  0
 13 25  1  0
 13 26  1  0
 14 27  1  1
M  CHG  1  13   1
M  END
>  <mol_id>  (96) 
2026-09-18-6fnk-s0-n100-refligand-0100

>  <rmsd_to_ref>  (96) 


$$$$
