
     RDKit          3D

 58 62  0  0  0  0  0  0  0  0999 V2000
    4.0982   18.8580   38.8918 C   0  0  0  0  0  0  0  0  0  0  0  0
    4.4111   16.4003   38.0558 O   0  0  0  0  0  0  0  0  0  0  0  0
    3.1695   24.0484   31.1160 C   0  0  0  0  0  0  0  0  0  0  0  0
    4.0999   13.7502   40.3431 O   0  0  0  0  0  0  0  0  0  0  0  0
    3.9616   17.4652   38.9234 C   0  0  0  0  0  0  0  0  0  0  0  0
    3.2175   19.5036   39.8798 C   0  0  0  0  0  0  0  0  0  0  0  0
    3.1551   15.9204   40.6283 N   0  0  0  0  0  0  0  0  0  0  0  0
    4.9855   24.3594   28.3411 C   0  0  0  0  0  0  0  0  0  0  0  0
    3.0270   14.9047   41.8309 C   0  0  0  0  0  0  0  0  0  0  0  0
    2.2621   25.3644   31.8962 S   0  0  0  0  0  0  0  0  0  0  0  0
    4.0820   22.5861   32.9306 C   0  0  0  0  0  0  0  0  0  0  0  0
    3.0083   14.4893   40.3087 C   0  0  2  0  0  0  0  0  0  0  0  0
    3.2716   24.6587   29.6635 C   0  0  2  0  0  0  0  0  0  0  0  0
    2.3708   24.3591   33.3241 C   0  0  0  0  0  0  0  0  0  0  0  0
    3.3321   22.3135   34.3913 C   0  0  0  0  0  0  0  0  0  0  0  0
    3.9430   21.4585   35.4738 C   0  0  0  0  0  0  0  0  0  0  0  0
    0.0978   19.6466   43.0860 C   0  0  0  0  0  0  0  0  0  0  0  0
    1.5018   18.6351   41.6654 C   0  0  0  0  0  0  0  0  0  0  0  0
    0.8931   17.3427   42.4172 S   0  0  0  0  0  0  0  0  0  0  0  0
    2.7467   24.2230   28.5540 C   0  0  0  0  0  0  0  0  0  0  0  0
    0.9912   19.9151   42.0192 N   0  0  0  0  0  0  0  0  0  0  0  0
   -0.8993   17.6483   44.5157 C   0  0  0  0  0  0  0  0  0  0  0  0
    5.0960   19.5678   37.7909 C   0  0  0  0  0  0  0  0  0  0  0  0
    3.1343   17.1685   40.2191 C   0  0  0  0  0  0  0  0  0  0  0  0
    3.7045   23.2495   32.2103 C   0  0  0  0  0  0  0  0  0  0  0  0
    4.5865   25.2644   29.4758 O   0  0  0  0  0  0  0  0  0  0  0  0
    2.6117   18.4502   40.5985 C   0  0  0  0  0  0  0  0  0  0  0  0
   -0.0227   18.2716   43.4580 C   0  0  0  0  0  0  0  0  0  0  0  0
    2.6397   23.3696   34.5641 C   0  0  0  0  0  0  0  0  0  0  0  0
    3.7979   24.3702   27.4730 O   0  0  0  0  0  0  0  0  0  0  0  0
    5.5895   16.4945   37.3036 C   0  0  0  0  0  0  0  0  0  0  0  0
    4.0207   20.2538   36.8908 C   0  0  0  0  0  0  0  0  0  0  0  0
    4.3470   13.5702   41.2848 H   0  0  0  0  0  0  0  0  0  0  0  0
    3.8039   20.1422   40.5567 H   0  0  0  0  0  0  0  0  0  0  0  0
    2.4686   20.1479   39.3959 H   0  0  0  0  0  0  0  0  0  0  0  0
    5.8653   24.7540   27.8118 H   0  0  0  0  0  0  0  0  0  0  0  0
    5.2699   23.3497   28.6724 H   0  0  0  0  0  0  0  0  0  0  0  0
    3.8951   14.6734   42.4656 H   0  0  0  0  0  0  0  0  0  0  0  0
    2.3732   14.7756   42.7060 H   0  0  0  0  0  0  0  0  0  0  0  0
    5.0150   22.0466   32.7103 H   0  0  0  0  0  0  0  0  0  0  0  0
    2.3904   14.0459   39.5140 H   0  0  0  0  0  0  0  0  0  0  0  0
    2.3792   25.2897   29.7880 H   0  0  0  0  0  0  0  0  0  0  0  0
    2.2596   25.2270   33.9908 H   0  0  0  0  0  0  0  0  0  0  0  0
    1.8339   23.5553   32.7990 H   0  0  0  0  0  0  0  0  0  0  0  0
   -0.4656   20.4432   43.5939 H   0  0  0  0  0  0  0  0  0  0  0  0
    2.4619   23.1659   28.6613 H   0  0  0  0  0  0  0  0  0  0  0  0
    1.8419   24.7944   28.2993 H   0  0  0  0  0  0  0  0  0  0  0  0
   -0.5364   17.9411   45.5120 H   0  0  0  0  0  0  0  0  0  0  0  0
   -1.9346   17.9964   44.3858 H   0  0  0  0  0  0  0  0  0  0  0  0
   -0.8661   16.5529   44.4208 H   0  0  0  0  0  0  0  0  0  0  0  0
    5.7707   20.3003   38.2581 H   0  0  0  0  0  0  0  0  0  0  0  0
    5.7844   18.8867   37.2690 H   0  0  0  0  0  0  0  0  0  0  0  0
    3.1485   23.9611   35.3396 H   0  0  0  0  0  0  0  0  0  0  0  0
    1.6385   22.9826   34.8045 H   0  0  0  0  0  0  0  0  0  0  0  0
    6.4522   16.5717   37.9817 H   0  0  0  0  0  0  0  0  0  0  0  0
    5.6961   15.5979   36.6753 H   0  0  0  0  0  0  0  0  0  0  0  0
    5.5453   17.3878   36.6633 H   0  0  0  0  0  0  0  0  0  0  0  0
    3.0100   19.9292   37.1791 H   0  0  0  0  0  0  0  0  0  0  0  0
  1  5  2  0
  1  6  1  0
  2  5  1  0
  3 10  1  0
  3 25  2  0
  5 24  1  0
  6 27  1  0
  7  9  1  0
  8 26  1  0
 10 14  1  0
 11 15  1  0
 12  4  1  0
 12  7  1  0
 12  9  1  0
 13  3  1  0
 14 29  1  0
 15 29  1  0
 15 16  2  0
 16 32  2  0
 17 28  2  0
 18 21  2  0
 18 19  1  0
 19 28  1  0
 20 13  1  0
 21 17  1  0
 23  1  1  0
 24 27  2  0
 24  7  1  0
 25 11  2  0
 26 13  1  0
 27 18  1  0
 28 22  1  0
 30  8  1  0
 30 20  1  0
 31  2  1  0
 32 23  1  0
  4 33  1  0
  6 34  1  0
  6 35  1  0
  8 36  1  0
  8 37  1  0
  9 38  1  0
  9 39  1  0
 11 40  1  0
 12 41  1  6
 13 42  1  1
 14 43  1  0
 14 44  1  0
 17 45  1  0
 20 46  1  0
 20 47  1  0
 22 48  1  0
 22 49  1  0
 22 50  1  0
 23 51  1  0
 23 52  1  0
 29 53  1  0
 29 54  1  0
 31 55  1  0
 31 56  1  0
 31 57  1  0
 32 58  1  0
M  END
>  <mol_id>  (1) 
2026-08-24-6tgu-s0-n20-pocketids2-0001

>  <rmsd_to_ref>  (1) 


$$$$

     RDKit          3D

 47 48  0  0  0  0  0  0  0  0999 V2000
    1.7303   20.2989   39.3567 O   0  0  0  0  0  0  0  0  0  0  0  0
    2.6975   17.6460   36.7854 C   0  0  0  0  0  0  0  0  0  0  0  0
    1.3507   15.2001   39.5560 O   0  0  0  0  0  0  0  0  0  0  0  0
    1.7218   16.4657   38.8647 C   0  0  0  0  0  0  0  0  0  0  0  0
    3.7494   22.0296   35.2053 C   0  0  0  0  0  0  0  0  0  0  0  0
    3.0969   22.5890   33.9526 C   0  0  2  0  0  0  0  0  0  0  0  0
    0.6014   26.8770   31.7080 O   0  0  0  0  0  0  0  0  0  0  0  0
    3.2745   20.2418   36.9829 C   0  0  0  0  0  0  0  0  0  0  0  0
    4.0793   23.6540   31.5569 C   0  0  0  0  0  0  0  0  0  0  0  0
    1.3053   26.3472   30.8109 C   0  0  0  0  0  0  0  0  0  0  0  0
    3.7821   23.6497   33.1000 N   0  0  0  0  0  0  0  0  0  0  0  0
    2.1837   19.1290   38.9100 C   0  0  0  0  0  0  0  0  0  0  0  0
    2.7932   24.0865   30.8085 C   0  0  0  0  0  0  0  0  0  0  0  0
    3.3500   20.6215   35.4280 C   0  0  0  0  0  0  0  0  0  0  0  0
    1.3135   20.6603   40.5803 C   0  0  0  0  0  0  0  0  0  0  0  0
    2.3225   23.7890   33.7822 C   0  0  0  0  0  0  0  0  0  0  0  0
    2.6125   25.5890   31.0341 C   0  0  0  0  0  0  0  0  0  0  0  0
    0.8774   26.5050   29.3796 C   0  0  0  0  0  0  0  0  0  0  0  0
    2.6967   18.9775   37.4929 C   0  0  0  0  0  0  0  0  0  0  0  0
    1.8850   17.8054   39.6292 C   0  0  0  0  0  0  0  0  0  0  0  0
    2.0483   16.4627   37.4286 C   0  0  0  0  0  0  0  0  0  0  0  0
    1.6200   17.8792   40.9120 O   0  0  0  0  0  0  0  0  0  0  0  0
    3.1741   17.5455   35.7991 H   0  0  0  0  0  0  0  0  0  0  0  0
    1.2550   14.3624   39.0373 H   0  0  0  0  0  0  0  0  0  0  0  0
    3.4402   22.6325   36.0719 H   0  0  0  0  0  0  0  0  0  0  0  0
    4.8414   22.0683   35.0788 H   0  0  0  0  0  0  0  0  0  0  0  0
    2.7897   21.5411   33.8205 H   0  0  0  0  0  0  0  0  0  0  0  0
    2.6990   21.0483   37.4607 H   0  0  0  0  0  0  0  0  0  0  0  0
    4.3394   20.0988   37.2185 H   0  0  0  0  0  0  0  0  0  0  0  0
    4.8918   24.3624   31.3377 H   0  0  0  0  0  0  0  0  0  0  0  0
    4.3854   22.6495   31.2298 H   0  0  0  0  0  0  0  0  0  0  0  0
    1.9255   23.5400   31.2065 H   0  0  0  0  0  0  0  0  0  0  0  0
    2.8765   23.8634   29.7346 H   0  0  0  0  0  0  0  0  0  0  0  0
    2.3595   20.4606   34.9774 H   0  0  0  0  0  0  0  0  0  0  0  0
    4.1148   19.9807   34.9649 H   0  0  0  0  0  0  0  0  0  0  0  0
    1.8632   20.0848   41.3398 H   0  0  0  0  0  0  0  0  0  0  0  0
    1.4991   21.7343   40.7286 H   0  0  0  0  0  0  0  0  0  0  0  0
    0.2365   20.4578   40.6754 H   0  0  0  0  0  0  0  0  0  0  0  0
    2.1731   24.4739   34.6299 H   0  0  0  0  0  0  0  0  0  0  0  0
    1.3100   24.0200   33.4197 H   0  0  0  0  0  0  0  0  0  0  0  0
    3.3521   26.0767   30.3821 H   0  0  0  0  0  0  0  0  0  0  0  0
    2.6932   25.6411   32.1298 H   0  0  0  0  0  0  0  0  0  0  0  0
   -0.2100   26.6658   29.3376 H   0  0  0  0  0  0  0  0  0  0  0  0
    1.3933   27.3692   28.9357 H   0  0  0  0  0  0  0  0  0  0  0  0
    1.1354   25.5955   28.8172 H   0  0  0  0  0  0  0  0  0  0  0  0
    1.8112   15.5772   36.8205 H   0  0  0  0  0  0  0  0  0  0  0  0
    1.7272   18.7389   41.3910 H   0  0  0  0  0  0  0  0  0  0  0  0
  1 15  1  0
  2 19  1  0
  2 21  2  0
  4 20  2  0
  4  3  1  0
  5 14  1  0
  6  5  1  0
  8 19  1  0
  9 11  1  0
 10 17  1  0
 10  7  2  0
 11 16  1  0
 11  6  1  0
 12  1  1  0
 12 20  1  0
 13 17  1  0
 13  9  1  0
 14  8  1  0
 16  6  1  0
 18 10  1  0
 19 12  2  0
 20 22  1  0
 21  4  1  0
  2 23  1  0
  3 24  1  0
  5 25  1  0
  5 26  1  0
  6 27  1  6
  8 28  1  0
  8 29  1  0
  9 30  1  0
  9 31  1  0
 13 32  1  0
 13 33  1  0
 14 34  1  0
 14 35  1  0
 15 36  1  0
 15 37  1  0
 15 38  1  0
 16 39  1  0
 16 40  1  0
 17 41  1  0
 17 42  1  0
 18 43  1  0
 18 44  1  0
 18 45  1  0
 21 46  1  0
 22 47  1  0
M  END
>  <mol_id>  (2) 
2026-08-24-6tgu-s0-n20-pocketids2-0002

>  <rmsd_to_ref>  (2) 


$$$$

     RDKit          3D

 42 43  0  0  0  0  0  0  0  0999 V2000
    3.4195   25.2960   31.1171 O   0  0  0  0  0  0  0  0  0  0  0  0
    1.9701   20.2482   41.6414 C   0  0  0  0  0  0  0  0  0  0  0  0
    3.9288   21.0027   37.3228 C   0  0  0  0  0  0  0  0  0  0  0  0
    3.8961   23.3864   32.5100 S   0  0  0  0  0  0  0  0  0  0  0  0
    4.5391   22.9452   34.0649 C   0  0  0  0  0  0  0  0  0  0  0  0
    3.2891   18.8387   39.6601 C   0  0  0  0  0  0  0  0  0  0  0  0
    1.1183   25.4762   32.4282 C   0  0  0  0  0  0  0  0  0  0  0  0
    4.2888   16.7335   39.2464 O   0  0  0  0  0  0  0  0  0  0  0  0
    3.6744   22.5081   35.1969 C   0  0  0  0  0  0  0  0  0  0  0  0
    4.3921   18.2837   37.6058 O   0  0  0  0  0  0  0  0  0  0  0  0
    2.7892   20.1286   39.3900 C   0  0  0  0  0  0  0  0  0  0  0  0
    1.0905   25.4175   29.8373 C   0  0  0  0  0  0  0  0  0  0  0  0
    4.0813   17.9780   38.7372 C   0  0  0  0  0  0  0  0  0  0  0  0
    2.4500   24.7655   32.4350 C   0  0  2  0  0  0  0  0  0  0  0  0
    2.8479   20.7193   38.0377 C   0  0  0  0  0  0  0  0  0  0  0  0
    4.1138   21.1920   35.9815 C   0  0  0  0  0  0  0  0  0  0  0  0
    2.5025   24.8886   30.0320 C   0  0  0  0  0  0  0  0  0  0  0  0
    0.3994   25.7510   31.0733 C   0  0  0  0  0  0  0  0  0  0  0  0
    2.1824   20.8696   40.4471 C   0  0  0  0  0  0  0  0  0  0  0  0
    2.3501   18.9212   41.8837 C   0  0  0  0  0  0  0  0  0  0  0  0
    3.0031   18.2175   40.8424 C   0  0  0  0  0  0  0  0  0  0  0  0
    1.4799   20.8118   42.4489 H   0  0  0  0  0  0  0  0  0  0  0  0
    4.2958   21.9387   37.7690 H   0  0  0  0  0  0  0  0  0  0  0  0
    4.3763   19.9990   37.3700 H   0  0  0  0  0  0  0  0  0  0  0  0
    5.2415   22.1188   33.8810 H   0  0  0  0  0  0  0  0  0  0  0  0
    4.9190   23.9098   34.4324 H   0  0  0  0  0  0  0  0  0  0  0  0
    0.6582   25.7982   33.3740 H   0  0  0  0  0  0  0  0  0  0  0  0
    3.6404   23.3318   35.9249 H   0  0  0  0  0  0  0  0  0  0  0  0
    2.7086   22.2545   34.7353 H   0  0  0  0  0  0  0  0  0  0  0  0
    1.1450   26.3248   29.2178 H   0  0  0  0  0  0  0  0  0  0  0  0
    0.5144   24.6093   29.3630 H   0  0  0  0  0  0  0  0  0  0  0  0
    1.9214   24.6485   33.3925 H   0  0  0  0  0  0  0  0  0  0  0  0
    2.3122   21.6759   38.1265 H   0  0  0  0  0  0  0  0  0  0  0  0
    2.4842   19.8567   37.4601 H   0  0  0  0  0  0  0  0  0  0  0  0
    3.5877   20.3615   35.4881 H   0  0  0  0  0  0  0  0  0  0  0  0
    5.2095   21.2756   35.9318 H   0  0  0  0  0  0  0  0  0  0  0  0
    2.3957   23.7984   30.1324 H   0  0  0  0  0  0  0  0  0  0  0  0
    3.0054   25.3447   29.1665 H   0  0  0  0  0  0  0  0  0  0  0  0
   -0.6098   26.1880   31.0519 H   0  0  0  0  0  0  0  0  0  0  0  0
    1.8919   21.9205   40.3014 H   0  0  0  0  0  0  0  0  0  0  0  0
    2.1476   18.4410   42.8524 H   0  0  0  0  0  0  0  0  0  0  0  0
    3.2819   17.1632   40.9868 H   0  0  0  0  0  0  0  0  0  0  0  0
  1 14  1  0
  2 20  2  0
  3 15  1  0
  4  5  1  0
  5  9  1  0
  6 21  2  0
  7 14  1  0
  9 16  1  0
 10 13  2  0
 11  6  1  0
 11 19  2  0
 12 17  1  0
 12 18  1  0
 13  8  1  0
 13  6  1  0
 14  4  1  0
 15 11  1  0
 16  3  1  0
 17  1  1  0
 18  7  2  0
 19  2  1  0
 21 20  1  0
  2 22  1  0
  3 23  1  0
  3 24  1  0
  5 25  1  0
  5 26  1  0
  7 27  1  0
  9 28  1  0
  9 29  1  0
 12 30  1  0
 12 31  1  0
 14 32  1  1
 15 33  1  0
 15 34  1  0
 16 35  1  0
 16 36  1  0
 17 37  1  0
 17 38  1  0
 18 39  1  0
 19 40  1  0
 20 41  1  0
 21 42  1  0
M  CHG  1   8  -1
M  END
>  <mol_id>  (3) 
2026-08-24-6tgu-s0-n20-pocketids2-0003

>  <rmsd_to_ref>  (3) 


$$$$

     RDKit          3D

 89 90  0  0  0  0  0  0  0  0999 V2000
    0.9194   27.3207   32.2648 C   0  0  2  0  0  0  0  0  0  0  0  0
    1.6264   24.1825   34.5443 C   0  0  0  0  0  0  0  0  0  0  0  0
    1.1693   26.4611   33.5588 C   0  0  0  0  0  0  0  0  0  0  0  0
    2.5643   21.6517   34.5894 C   0  0  1  0  0  0  0  0  0  0  0  0
    1.9400   18.2111   40.0770 C   0  0  2  0  0  0  0  0  0  0  0  0
    1.2751   19.3234   40.7306 C   0  0  0  0  0  0  0  0  0  0  0  0
    4.0715   12.6192   40.2726 S   0  0  0  0  0  0  0  0  0  0  0  0
    2.6211   16.1278   39.2857 C   0  0  0  0  0  0  0  0  0  0  0  0
    3.2920   17.1843   38.2144 S   0  0  0  0  0  0  0  0  0  0  0  0
   -0.3826   29.2930   32.7782 C   0  0  0  0  0  0  0  0  0  0  0  0
    1.4300   25.0615   33.5668 C   0  0  0  0  0  0  0  0  0  0  0  0
    2.1777   28.7316   32.3475 C   0  0  2  0  0  0  0  0  0  0  0  0
    2.5997   14.7569   39.2040 C   0  0  1  0  0  0  0  0  0  0  0  0
    0.8979   20.3753   40.0579 C   0  0  0  0  0  0  0  0  0  0  0  0
    1.7181   26.3638   31.5266 C   0  0  1  0  0  0  0  0  0  0  0  0
    2.3009   13.1483   35.9722 N   0  0  0  0  0  0  0  0  0  0  0  0
    0.9636   26.9390   34.7977 O   0  0  0  0  0  0  0  0  0  0  0  0
    2.9742   13.1177   37.1609 C   0  0  0  0  0  0  0  0  0  0  0  0
    2.6766   30.1192   31.8359 C   0  0  0  0  0  0  0  0  0  0  0  0
    2.0785   16.9083   40.3187 C   0  0  0  0  0  0  0  0  0  0  0  0
    2.3313   11.8226   35.2395 C   0  0  0  0  0  0  0  0  0  0  0  0
    2.6692   23.2076   34.9256 C   0  0  0  0  0  0  0  0  0  0  0  0
    3.2660   14.3713   37.8268 C   0  0  0  0  0  0  0  0  0  0  0  0
    2.7398   18.6064   38.9157 C   0  0  1  0  0  0  0  0  0  0  0  0
    1.4117   20.6392   38.7051 C   0  0  0  0  0  0  0  0  0  0  0  0
    3.7329   11.4280   34.7977 C   0  0  0  0  0  0  0  0  0  0  0  0
    2.8702   20.1003   36.7956 C   0  0  0  0  0  0  0  0  0  0  0  0
    3.7155   21.0803   34.1419 O   0  0  0  0  0  0  0  0  0  0  0  0
    1.4279   25.9277   30.1105 C   0  0  0  0  0  0  0  0  0  0  0  0
    2.5585   27.5878   31.5679 C   0  0  1  0  0  0  0  0  0  0  0  0
    2.1034   19.5509   37.9871 C   0  0  1  0  0  0  0  0  0  0  0  0
    2.8201   13.7320   40.3000 C   0  0  0  0  0  0  0  0  0  0  0  0
    1.9790   20.8581   35.7931 C   0  0  0  0  0  0  0  0  0  0  0  0
   -0.3020   29.6126   32.8320 C   0  0  0  0  0  0  0  0  0  0  0  0
    3.7170   27.6277   30.6378 C   0  0  0  0  0  0  0  0  0  0  0  0
    0.7303   23.5489   34.4717 H   0  0  0  0  0  0  0  0  0  0  0  0
    1.9662   24.9426   35.2632 H   0  0  0  0  0  0  0  0  0  0  0  0
    1.8693   21.5929   33.7388 H   0  0  0  0  0  0  0  0  0  0  0  0
    1.0278   18.0066   39.4972 H   0  0  0  0  0  0  0  0  0  0  0  0
    0.3692   18.9126   41.2004 H   0  0  0  0  0  0  0  0  0  0  0  0
    2.0652   19.7259   41.3814 H   0  0  0  0  0  0  0  0  0  0  0  0
    4.4157   12.2873   41.5564 H   0  0  0  0  0  0  0  0  0  0  0  0
   -0.4680   29.3470   33.8735 H   0  0  0  0  0  0  0  0  0  0  0  0
   -0.4044   30.3095   32.3581 H   0  0  0  0  0  0  0  0  0  0  0  0
    0.5652   28.8048   32.5078 H   0  0  0  0  0  0  0  0  0  0  0  0
   -1.2235   28.7109   32.3731 H   0  0  0  0  0  0  0  0  0  0  0  0
    1.4785   24.6182   32.5613 H   0  0  0  0  0  0  0  0  0  0  0  0
    2.2559   29.3694   33.2403 H   0  0  0  0  0  0  0  0  0  0  0  0
    1.5222   14.6130   39.3718 H   0  0  0  0  0  0  0  0  0  0  0  0
    0.1827   21.0779   40.5105 H   0  0  0  0  0  0  0  0  0  0  0  0
    1.8716   25.3310   31.8725 H   0  0  0  0  0  0  0  0  0  0  0  0
    1.3190   13.3983   36.1575 H   0  0  0  0  0  0  0  0  0  0  0  0
    2.7680   13.8426   35.3717 H   0  0  0  0  0  0  0  0  0  0  0  0
    1.1337   26.3633   35.5848 H   0  0  0  0  0  0  0  0  0  0  0  0
    2.3748   12.5128   37.8572 H   0  0  0  0  0  0  0  0  0  0  0  0
    3.9645   12.7180   36.8972 H   0  0  0  0  0  0  0  0  0  0  0  0
    2.8165   30.7967   32.6912 H   0  0  0  0  0  0  0  0  0  0  0  0
    3.6333   29.9930   31.3079 H   0  0  0  0  0  0  0  0  0  0  0  0
    1.9318   30.5459   31.1481 H   0  0  0  0  0  0  0  0  0  0  0  0
    1.7822   16.4656   41.2811 H   0  0  0  0  0  0  0  0  0  0  0  0
    1.9402   11.0418   35.9084 H   0  0  0  0  0  0  0  0  0  0  0  0
    1.7151   11.9289   34.3345 H   0  0  0  0  0  0  0  0  0  0  0  0
    3.5994   23.5581   34.4546 H   0  0  0  0  0  0  0  0  0  0  0  0
    2.5786   23.2038   36.0219 H   0  0  0  0  0  0  0  0  0  0  0  0
    2.9938   15.1677   37.1185 H   0  0  0  0  0  0  0  0  0  0  0  0
    4.3224   14.2459   38.1064 H   0  0  0  0  0  0  0  0  0  0  0  0
    3.5866   19.2238   39.2499 H   0  0  0  0  0  0  0  0  0  0  0  0
    1.2832   21.6269   38.2384 H   0  0  0  0  0  0  0  0  0  0  0  0
    4.3683   11.2795   35.6833 H   0  0  0  0  0  0  0  0  0  0  0  0
    3.6856   10.4934   34.2195 H   0  0  0  0  0  0  0  0  0  0  0  0
    4.1580   12.2257   34.1710 H   0  0  0  0  0  0  0  0  0  0  0  0
    3.6431   20.7898   37.1659 H   0  0  0  0  0  0  0  0  0  0  0  0
    3.3019   19.2407   36.2621 H   0  0  0  0  0  0  0  0  0  0  0  0
    4.2739   20.8139   34.9148 H   0  0  0  0  0  0  0  0  0  0  0  0
    0.6160   25.1857   30.1145 H   0  0  0  0  0  0  0  0  0  0  0  0
    1.1244   26.8001   29.5131 H   0  0  0  0  0  0  0  0  0  0  0  0
    2.3319   25.4798   29.6723 H   0  0  0  0  0  0  0  0  0  0  0  0
    1.4011   18.8680   37.4866 H   0  0  0  0  0  0  0  0  0  0  0  0
    1.8926   13.1431   40.3546 H   0  0  0  0  0  0  0  0  0  0  0  0
    3.1153   14.3732   41.1436 H   0  0  0  0  0  0  0  0  0  0  0  0
    1.4009   21.5829   36.3850 H   0  0  0  0  0  0  0  0  0  0  0  0
    1.4563   20.0331   35.2870 H   0  0  0  0  0  0  0  0  0  0  0  0
   -0.3874   29.6666   33.9273 H   0  0  0  0  0  0  0  0  0  0  0  0
   -0.3238   30.6290   32.4119 H   0  0  0  0  0  0  0  0  0  0  0  0
    0.6458   29.1244   32.5616 H   0  0  0  0  0  0  0  0  0  0  0  0
   -1.1429   29.0305   32.4269 H   0  0  0  0  0  0  0  0  0  0  0  0
    4.6473   27.7332   31.2153 H   0  0  0  0  0  0  0  0  0  0  0  0
    3.7512   26.6958   30.0545 H   0  0  0  0  0  0  0  0  0  0  0  0
    3.6100   28.4837   29.9554 H   0  0  0  0  0  0  0  0  0  0  0  0
  1 12  1  0
  1  3  1  6
  2 22  1  0
  3 17  1  0
  4 28  1  0
  4 22  1  0
  4 33  1  0
  5 20  1  0
  5  6  1  0
  7 32  1  0
  8 20  2  0
  9  8  1  0
 11  3  2  3
 11  2  1  0
 12 19  1  0
 13 23  1  0
 13  8  1  0
 13 32  1  0
 14  6  1  0
 15 29  1  0
 15 30  1  0
 15  1  1  0
 16 18  1  0
 18 23  1  0
 21 16  1  0
 24  9  1  0
 24  5  1  0
 25 14  2  0
 26 21  1  0
 30 35  1  6
 30  1  1  0
 30 12  1  0
 31 27  1  0
 31 25  1  0
 31 24  1  0
 33 27  1  0
  2 36  1  0
  2 37  1  0
  4 38  1  6
  5 39  1  6
  6 40  1  0
  6 41  1  0
  7 42  1  0
 10 43  1  0
 10 44  1  0
 10 45  1  0
 10 46  1  0
 11 47  1  0
 12 48  1  1
 13 49  1  6
 14 50  1  0
 15 51  1  1
 16 52  1  0
 16 53  1  0
 17 54  1  0
 18 55  1  0
 18 56  1  0
 19 57  1  0
 19 58  1  0
 19 59  1  0
 20 60  1  0
 21 61  1  0
 21 62  1  0
 22 63  1  0
 22 64  1  0
 23 65  1  0
 23 66  1  0
 24 67  1  1
 25 68  1  0
 26 69  1  0
 26 70  1  0
 26 71  1  0
 27 72  1  0
 27 73  1  0
 28 74  1  0
 29 75  1  0
 29 76  1  0
 29 77  1  0
 31 78  1  6
 32 79  1  0
 32 80  1  0
 33 81  1  0
 33 82  1  0
 34 83  1  0
 34 84  1  0
 34 85  1  0
 34 86  1  0
 35 87  1  0
 35 88  1  0
 35 89  1  0
M  CHG  1  16   1
M  END
>  <mol_id>  (4) 
2026-08-24-6tgu-s0-n20-pocketids2-0004

>  <rmsd_to_ref>  (4) 


$$$$

     RDKit          3D

 36 36  0  0  0  0  0  0  0  0999 V2000
    2.7569   17.4308   41.7511 C   0  0  0  0  0  0  0  0  0  0  0  0
    3.4906   20.4971   38.8400 C   0  0  0  0  0  0  0  0  0  0  0  0
    3.2766   20.4588   37.5241 C   0  0  0  0  0  0  0  0  0  0  0  0
    3.4368   19.3508   39.8232 C   0  0  0  0  0  0  0  0  0  0  0  0
    2.2308   23.8673   33.8862 C   0  0  2  0  0  0  0  0  0  0  0  0
    2.5322   20.8382   41.5219 O   0  0  0  0  0  0  0  0  0  0  0  0
    2.1172   23.6369   35.3921 C   0  0  0  0  0  0  0  0  0  0  0  0
    3.8473   18.0220   39.6131 C   0  0  0  0  0  0  0  0  0  0  0  0
    2.9141   19.6894   41.1475 C   0  0  0  0  0  0  0  0  0  0  0  0
    4.0012   23.8948   33.5048 S   0  0  0  0  0  0  0  0  0  0  0  0
    3.5505   21.6616   35.2616 C   0  0  0  0  0  0  0  0  0  0  0  0
    1.7062   25.2913   33.6291 C   0  0  0  0  0  0  0  0  0  0  0  0
    3.6333   19.3467   36.7779 O   0  0  0  0  0  0  0  0  0  0  0  0
    2.2160   22.1815   35.6280 N   0  0  0  0  0  0  0  0  0  0  0  0
    3.4529   17.0666   40.6244 C   0  0  0  0  0  0  0  0  0  0  0  0
    4.4314   22.3042   34.1950 C   0  0  0  0  0  0  0  0  0  0  0  0
    2.4912   18.8111   42.0383 N   0  0  0  0  0  0  0  0  0  0  0  0
    2.3984   16.6539   42.4424 H   0  0  0  0  0  0  0  0  0  0  0  0
    2.7591   21.2253   39.2204 H   0  0  0  0  0  0  0  0  0  0  0  0
    4.5791   20.6556   38.8277 H   0  0  0  0  0  0  0  0  0  0  0  0
    2.1956   20.6005   37.3781 H   0  0  0  0  0  0  0  0  0  0  0  0
    3.9569   21.2352   37.1441 H   0  0  0  0  0  0  0  0  0  0  0  0
    1.6903   23.1082   33.3016 H   0  0  0  0  0  0  0  0  0  0  0  0
    2.9330   24.1582   35.9143 H   0  0  0  0  0  0  0  0  0  0  0  0
    1.1616   24.0269   35.7725 H   0  0  0  0  0  0  0  0  0  0  0  0
    4.4343   17.7268   38.7309 H   0  0  0  0  0  0  0  0  0  0  0  0
    3.9261   20.7689   35.7829 H   0  0  0  0  0  0  0  0  0  0  0  0
    1.6522   25.8397   34.5812 H   0  0  0  0  0  0  0  0  0  0  0  0
    2.3878   25.8147   32.9426 H   0  0  0  0  0  0  0  0  0  0  0  0
    0.7035   25.2372   33.1800 H   0  0  0  0  0  0  0  0  0  0  0  0
    3.9987   18.6497   37.3785 H   0  0  0  0  0  0  0  0  0  0  0  0
    2.0456   21.9920   36.6260 H   0  0  0  0  0  0  0  0  0  0  0  0
    1.5135   21.7108   35.0398 H   0  0  0  0  0  0  0  0  0  0  0  0
    3.7202   16.0086   40.4862 H   0  0  0  0  0  0  0  0  0  0  0  0
    5.3372   21.7850   33.8486 H   0  0  0  0  0  0  0  0  0  0  0  0
    1.9968   19.1016   42.8939 H   0  0  0  0  0  0  0  0  0  0  0  0
  1 17  1  0
  2  4  1  0
  3  2  1  0
  4  8  2  0
  4  9  1  0
  5 12  1  0
  5  7  1  0
  7 14  1  0
  8 15  1  0
  9  6  2  0
  9 17  1  0
 10  5  1  0
 10 16  1  0
 11 14  1  0
 13  3  1  0
 15  1  2  0
 16 11  2  0
  1 18  1  0
  2 19  1  0
  2 20  1  0
  3 21  1  0
  3 22  1  0
  5 23  1  6
  7 24  1  0
  7 25  1  0
  8 26  1  0
 11 27  1  0
 12 28  1  0
 12 29  1  0
 12 30  1  0
 13 31  1  0
 14 32  1  0
 14 33  1  0
 15 34  1  0
 16 35  1  0
 17 36  1  0
M  CHG  1  14   1
M  END
>  <mol_id>  (5) 
2026-08-24-6tgu-s0-n20-pocketids2-0005

>  <rmsd_to_ref>  (5) 


$$$$

     RDKit          3D

 70 75  0  0  0  0  0  0  0  0999 V2000
    3.0885   17.5831   39.2014 C   0  0  2  0  0  0  0  0  0  0  0  0
    1.4431   25.5977   31.6227 C   0  0  0  0  0  0  0  0  0  0  0  0
    1.6641   15.9688   42.0989 O   0  0  0  0  0  0  0  0  0  0  0  0
    2.4895   22.8451   34.7048 C   0  0  2  0  0  0  0  0  0  0  0  0
    1.8672   20.6754   41.1606 C   0  0  0  0  0  0  0  0  0  0  0  0
    3.0036   15.1757   39.8138 C   0  0  0  0  0  0  0  0  0  0  0  0
    4.3148   18.1985   37.1794 N   0  0  0  0  0  0  0  0  0  0  0  0
    2.6599   25.1071   33.6961 C   0  0  0  0  0  0  0  0  0  0  0  0
    0.9868   27.5680   28.6969 O   0  0  0  0  0  0  0  0  0  0  0  0
    3.9347   19.3988   37.3947 C   0  0  0  0  0  0  0  0  0  0  0  0
    2.2250   19.2619   40.7127 C   0  0  0  0  0  0  0  0  0  0  0  0
    2.2958   22.1075   37.4136 C   0  0  0  0  0  0  0  0  0  0  0  0
    0.6062   27.3240   30.0683 C   0  0  0  0  0  0  0  0  0  0  0  0
    2.6949   25.4528   32.1628 C   0  0  1  0  0  0  0  0  0  0  0  0
    2.3338   27.3383   28.6508 C   0  0  1  0  0  0  0  0  0  0  0  0
    4.1278   15.8537   37.7769 C   0  0  0  0  0  0  0  0  0  0  0  0
    3.8812   25.3745   31.2636 C   0  0  0  0  0  0  0  0  0  0  0  0
    2.8199   18.9295   39.4963 C   0  0  0  0  0  0  0  0  0  0  0  0
    3.8411   25.7735   30.0042 C   0  0  0  0  0  0  0  0  0  0  0  0
    1.4176   26.2741   30.4915 C   0  0  0  0  0  0  0  0  0  0  0  0
    3.2092   23.7640   33.8181 N   0  0  0  0  0  0  0  0  0  0  0  0
    2.6574   26.3466   29.6910 C   0  0  0  0  0  0  0  0  0  0  0  0
    2.1806   22.8686   36.1391 C   0  0  1  0  0  0  0  0  0  0  0  0
    4.9645   15.4205   36.6209 C   0  0  0  0  0  0  0  0  0  0  0  0
    1.7671   18.2046   41.6511 C   0  0  0  0  0  0  0  0  0  0  0  0
    2.5554   21.2718   38.2123 C   0  0  0  0  0  0  0  0  0  0  0  0
    3.8269   17.2430   38.0174 C   0  0  0  0  0  0  0  0  0  0  0  0
    2.7155   16.5377   40.0905 C   0  0  0  0  0  0  0  0  0  0  0  0
    3.1495   19.8410   38.4654 C   0  0  0  0  0  0  0  0  0  0  0  0
    3.2536   27.7598   27.5941 C   0  0  0  0  0  0  0  0  0  0  0  0
    3.4567   22.2694   35.5266 C   0  0  0  0  0  0  0  0  0  0  0  0
    1.9981   16.9098   41.2814 C   0  0  0  0  0  0  0  0  0  0  0  0
    3.6931   14.8616   38.6691 C   0  0  0  0  0  0  0  0  0  0  0  0
    4.0284   17.6462   39.7695 H   0  0  0  0  0  0  0  0  0  0  0  0
    1.0304   24.5956   31.4348 H   0  0  0  0  0  0  0  0  0  0  0  0
    0.8505   26.1737   32.3487 H   0  0  0  0  0  0  0  0  0  0  0  0
    1.1698   16.1862   42.9287 H   0  0  0  0  0  0  0  0  0  0  0  0
    1.7175   22.6630   33.9427 H   0  0  0  0  0  0  0  0  0  0  0  0
    1.9115   20.7345   42.2581 H   0  0  0  0  0  0  0  0  0  0  0  0
    2.5818   21.3897   40.7257 H   0  0  0  0  0  0  0  0  0  0  0  0
    0.8503   20.9212   40.8208 H   0  0  0  0  0  0  0  0  0  0  0  0
    2.6794   14.3843   40.5057 H   0  0  0  0  0  0  0  0  0  0  0  0
    1.6258   25.1323   34.0699 H   0  0  0  0  0  0  0  0  0  0  0  0
    3.2382   25.8336   34.2858 H   0  0  0  0  0  0  0  0  0  0  0  0
    4.2560   20.1591   36.6676 H   0  0  0  0  0  0  0  0  0  0  0  0
    1.2160   22.1083   37.6235 H   0  0  0  0  0  0  0  0  0  0  0  0
    3.3676   22.3544   37.4021 H   0  0  0  0  0  0  0  0  0  0  0  0
    0.7823   28.2193   30.6825 H   0  0  0  0  0  0  0  0  0  0  0  0
   -0.4626   27.0807   30.1611 H   0  0  0  0  0  0  0  0  0  0  0  0
    3.3970   26.2924   32.2731 H   0  0  0  0  0  0  0  0  0  0  0  0
    2.9190   28.2667   28.5760 H   0  0  0  0  0  0  0  0  0  0  0  0
    4.6720   25.9667   31.7475 H   0  0  0  0  0  0  0  0  0  0  0  0
    4.0120   24.2879   31.1538 H   0  0  0  0  0  0  0  0  0  0  0  0
    4.6449   26.5059   29.8380 H   0  0  0  0  0  0  0  0  0  0  0  0
    3.9696   24.8886   29.3636 H   0  0  0  0  0  0  0  0  0  0  0  0
    4.1729   23.8503   34.1712 H   0  0  0  0  0  0  0  0  0  0  0  0
    3.1357   23.3512   32.8774 H   0  0  0  0  0  0  0  0  0  0  0  0
    1.3802   23.5250   36.5113 H   0  0  0  0  0  0  0  0  0  0  0  0
    5.8808   14.9382   36.9919 H   0  0  0  0  0  0  0  0  0  0  0  0
    4.3978   14.7064   36.0053 H   0  0  0  0  0  0  0  0  0  0  0  0
    5.2319   16.2973   36.0129 H   0  0  0  0  0  0  0  0  0  0  0  0
    1.2660   18.4526   42.5984 H   0  0  0  0  0  0  0  0  0  0  0  0
    3.1959   21.8577   38.8880 H   0  0  0  0  0  0  0  0  0  0  0  0
    1.5564   20.8320   38.0757 H   0  0  0  0  0  0  0  0  0  0  0  0
    4.2001   28.0946   28.0438 H   0  0  0  0  0  0  0  0  0  0  0  0
    3.4478   26.9140   26.9181 H   0  0  0  0  0  0  0  0  0  0  0  0
    2.8046   28.5877   27.0258 H   0  0  0  0  0  0  0  0  0  0  0  0
    3.6055   21.1795   35.5214 H   0  0  0  0  0  0  0  0  0  0  0  0
    4.5363   22.4155   35.6788 H   0  0  0  0  0  0  0  0  0  0  0  0
    3.9101   13.8065   38.4458 H   0  0  0  0  0  0  0  0  0  0  0  0
  1 27  1  0
  1 18  1  0
  1 28  1  0
  2 14  1  0
  4 21  1  0
  4 31  1  0
  4 23  1  0
  6 28  1  0
  7 10  2  0
  7 27  1  0
  8 21  1  0
  9 15  1  0
  9 13  1  0
 10 29  1  0
 11  5  1  0
 11 25  2  0
 12 26  1  0
 13 20  1  0
 14  8  1  0
 15 30  1  0
 15 22  1  0
 16 27  2  0
 16 33  1  0
 17 14  1  0
 18 11  1  0
 19 17  1  0
 20  2  1  0
 22 19  1  0
 22 20  2  0
 23 12  1  0
 24 16  1  0
 26 29  1  0
 28 32  2  0
 29 18  2  0
 31 23  1  0
 32 25  1  0
 32  3  1  0
 33  6  2  0
  1 34  1  6
  2 35  1  0
  2 36  1  0
  3 37  1  0
  4 38  1  6
  5 39  1  0
  5 40  1  0
  5 41  1  0
  6 42  1  0
  8 43  1  0
  8 44  1  0
 10 45  1  0
 12 46  1  0
 12 47  1  0
 13 48  1  0
 13 49  1  0
 14 50  1  1
 15 51  1  1
 17 52  1  0
 17 53  1  0
 19 54  1  0
 19 55  1  0
 21 56  1  0
 21 57  1  0
 23 58  1  1
 24 59  1  0
 24 60  1  0
 24 61  1  0
 25 62  1  0
 26 63  1  0
 26 64  1  0
 30 65  1  0
 30 66  1  0
 30 67  1  0
 31 68  1  0
 31 69  1  0
 33 70  1  0
M  CHG  1  21   1
M  END
>  <mol_id>  (6) 
2026-08-24-6tgu-s0-n20-pocketids2-0006

>  <rmsd_to_ref>  (6) 


$$$$

     RDKit          3D

 53 56  0  0  0  0  0  0  0  0999 V2000
    1.7285   18.4672   40.2821 C   0  0  1  0  0  0  0  0  0  0  0  0
    2.0158   19.7312   39.3761 C   0  0  0  0  0  0  0  0  0  0  0  0
    3.2297   21.0231   36.3578 C   0  0  0  0  0  0  0  0  0  0  0  0
    2.2473   16.3162   38.9223 N   0  0  0  0  0  0  0  0  0  0  0  0
    3.4795   17.1728   36.6847 C   0  0  0  0  0  0  0  0  0  0  0  0
    2.8999   20.4629   37.3179 C   0  0  0  0  0  0  0  0  0  0  0  0
    4.7496   24.6497   30.6486 C   0  0  0  0  0  0  0  0  0  0  0  0
    4.4340   23.6116   32.7778 C   0  0  2  0  0  0  0  0  0  0  0  0
    0.7114   17.9476   41.2120 N   0  0  0  0  0  0  0  0  0  0  0  0
    4.6118   22.6634   33.6423 N   0  0  0  0  0  0  0  0  0  0  0  0
   -0.9670   18.4332   43.0015 C   0  0  0  0  0  0  0  0  0  0  0  0
    0.5430   16.3931   41.4874 C   0  0  0  0  0  0  0  0  0  0  0  0
    3.7272   22.3379   34.5003 C   0  0  0  0  0  0  0  0  0  0  0  0
    3.6357   24.4691   30.8540 C   0  0  1  0  0  0  0  0  0  0  0  0
    0.2829   18.8752   42.3673 C   0  0  0  0  0  0  0  0  0  0  0  0
    2.7487   24.5574   29.7335 C   0  0  0  0  0  0  0  0  0  0  0  0
    3.8631   24.0198   31.9672 C   0  0  2  0  0  0  0  0  0  0  0  0
    2.6393   19.4221   38.1403 C   0  0  0  0  0  0  0  0  0  0  0  0
    2.0062   17.3212   39.4135 C   0  0  0  0  0  0  0  0  0  0  0  0
    3.4279   21.7330   35.4120 C   0  0  0  0  0  0  0  0  0  0  0  0
    2.8261   17.9143   37.9447 C   0  0  0  0  0  0  0  0  0  0  0  0
    4.8438   24.2351   31.7047 C   0  0  2  0  0  0  0  0  0  0  0  0
   -0.3359   15.9735   42.6404 C   0  0  0  0  0  0  0  0  0  0  0  0
   -1.4176   16.9377   42.8925 C   0  0  0  0  0  0  0  0  0  0  0  0
    2.2249   18.9896   41.1133 H   0  0  0  0  0  0  0  0  0  0  0  0
    1.0590   20.2313   39.1659 H   0  0  0  0  0  0  0  0  0  0  0  0
    2.7135   20.3725   39.9345 H   0  0  0  0  0  0  0  0  0  0  0  0
    2.2751   16.2383   37.8957 H   0  0  0  0  0  0  0  0  0  0  0  0
    4.0360   16.2881   37.0278 H   0  0  0  0  0  0  0  0  0  0  0  0
    2.6853   16.8600   35.9909 H   0  0  0  0  0  0  0  0  0  0  0  0
    4.1661   17.8609   36.1698 H   0  0  0  0  0  0  0  0  0  0  0  0
    3.5862   20.9846   38.0011 H   0  0  0  0  0  0  0  0  0  0  0  0
    1.9645   20.2180   36.7935 H   0  0  0  0  0  0  0  0  0  0  0  0
    5.1961   24.0379   29.8510 H   0  0  0  0  0  0  0  0  0  0  0  0
    5.1771   25.6051   30.3103 H   0  0  0  0  0  0  0  0  0  0  0  0
    4.5314   23.4616   33.8632 H   0  0  0  0  0  0  0  0  0  0  0  0
   -1.7748   19.0401   42.5666 H   0  0  0  0  0  0  0  0  0  0  0  0
   -0.7613   18.5562   44.0750 H   0  0  0  0  0  0  0  0  0  0  0  0
    0.1253   15.9417   40.5753 H   0  0  0  0  0  0  0  0  0  0  0  0
    1.5500   16.0510   41.7682 H   0  0  0  0  0  0  0  0  0  0  0  0
    2.8318   22.9163   34.2285 H   0  0  0  0  0  0  0  0  0  0  0  0
    2.5797   24.7607   30.9532 H   0  0  0  0  0  0  0  0  0  0  0  0
    1.0796   18.8873   43.1257 H   0  0  0  0  0  0  0  0  0  0  0  0
    0.1123   19.8781   41.9489 H   0  0  0  0  0  0  0  0  0  0  0  0
    1.7236   24.3256   30.0581 H   0  0  0  0  0  0  0  0  0  0  0  0
    2.7808   25.5762   29.3199 H   0  0  0  0  0  0  0  0  0  0  0  0
    3.0603   23.8384   28.9616 H   0  0  0  0  0  0  0  0  0  0  0  0
    2.8249   23.8634   32.2952 H   0  0  0  0  0  0  0  0  0  0  0  0
    5.9077   24.4892   31.5887 H   0  0  0  0  0  0  0  0  0  0  0  0
   -0.7806   14.9943   42.4091 H   0  0  0  0  0  0  0  0  0  0  0  0
    0.2908   15.9246   43.5431 H   0  0  0  0  0  0  0  0  0  0  0  0
   -1.9072   16.6603   43.8377 H   0  0  0  0  0  0  0  0  0  0  0  0
   -2.0842   16.8831   42.0191 H   0  0  0  0  0  0  0  0  0  0  0  0
  1  2  1  0
  1  9  1  0
  3  6  1  0
  4 19  2  3
  5 21  1  0
  6 18  1  0
  7 14  1  0
  7 22  1  0
  8 10  1  0
  9 12  1  0
  9 15  1  0
 10 13  2  3
 11 24  1  0
 12 23  1  0
 13 20  1  0
 14 16  1  0
 14 17  1  0
 15 11  1  0
 17  8  1  0
 18 21  2  0
 18  2  1  0
 19  1  1  0
 20  3  3  0
 21 19  1  0
 22 17  1  0
 22  8  1  0
 23 24  1  0
  1 25  1  1
  2 26  1  0
  2 27  1  0
  4 28  1  0
  5 29  1  0
  5 30  1  0
  5 31  1  0
  6 32  1  0
  6 33  1  0
  7 34  1  0
  7 35  1  0
  8 36  1  1
 11 37  1  0
 11 38  1  0
 12 39  1  0
 12 40  1  0
 13 41  1  0
 14 42  1  1
 15 43  1  0
 15 44  1  0
 16 45  1  0
 16 46  1  0
 16 47  1  0
 17 48  1  1
 22 49  1  1
 23 50  1  0
 23 51  1  0
 24 52  1  0
 24 53  1  0
M  END
>  <mol_id>  (7) 
2026-08-24-6tgu-s0-n20-pocketids2-0007

>  <rmsd_to_ref>  (7) 


$$$$

     RDKit          3D

 40 42  0  0  0  0  0  0  0  0999 V2000
    3.0190   19.7640   38.8770 C   0  0  2  0  0  0  0  0  0  0  0  0
    3.0390   22.6340   34.1900 C   0  0  0  0  0  0  0  0  0  0  0  0
    2.6700   21.4670   36.9310 C   0  0  0  0  0  0  0  0  0  0  0  0
    3.5290   23.6140   30.7980 C   0  0  0  0  0  0  0  0  0  0  0  0
    3.7330   20.9250   35.9180 C   0  0  0  0  0  0  0  0  0  0  0  0
    3.1740   23.9040   31.9930 C   0  0  0  0  0  0  0  0  0  0  0  0
    3.0330   23.0760   32.9760 N   0  0  0  0  0  0  0  0  0  0  0  0
    4.0860   21.6240   34.6750 C   0  0  0  0  0  0  0  0  0  0  0  0
    1.9070   23.1930   34.9660 C   0  0  0  0  0  0  0  0  0  0  0  0
    2.3560   20.9260   38.2300 N   0  0  0  0  0  0  0  0  0  0  0  0
    1.0530   16.7150   41.8410 C   0  0  0  0  0  0  0  0  0  0  0  0
    3.4240   18.1610   38.4460 S   0  0  0  0  0  0  0  0  0  0  0  0
    1.2890   18.0390   41.6510 C   0  0  0  0  0  0  0  0  0  0  0  0
    1.7400   22.5710   36.3220 C   0  0  0  0  0  0  0  0  0  0  0  0
    2.4740   16.0960   39.9680 C   0  0  0  0  0  0  0  0  0  0  0  0
    2.6010   17.4550   39.6760 C   0  0  0  0  0  0  0  0  0  0  0  0
    2.6760   19.8530   40.2660 C   0  0  0  0  0  0  0  0  0  0  0  0
    1.6270   15.7200   41.0510 C   0  0  0  0  0  0  0  0  0  0  0  0
    4.1210   24.6420   30.1350 C   0  0  0  0  0  0  0  0  0  0  0  0
    2.1260   18.4380   40.6690 C   0  0  0  0  0  0  0  0  0  0  0  0
    3.9364   19.9567   38.3014 H   0  0  0  0  0  0  0  0  0  0  0  0
    4.2392   22.7751   30.8415 H   0  0  0  0  0  0  0  0  0  0  0  0
    2.6122   23.3626   30.2445 H   0  0  0  0  0  0  0  0  0  0  0  0
    4.2396   19.9760   36.1476 H   0  0  0  0  0  0  0  0  0  0  0  0
    3.9159   24.6376   32.3415 H   0  0  0  0  0  0  0  0  0  0  0  0
    2.1181   24.1546   31.8134 H   0  0  0  0  0  0  0  0  0  0  0  0
    2.7132   22.2370   32.4714 H   0  0  0  0  0  0  0  0  0  0  0  0
    5.0262   21.4378   34.1353 H   0  0  0  0  0  0  0  0  0  0  0  0
    1.2507   23.9890   34.5842 H   0  0  0  0  0  0  0  0  0  0  0  0
    1.6022   21.3877   38.7586 H   0  0  0  0  0  0  0  0  0  0  0  0
    0.3779   16.4140   42.6557 H   0  0  0  0  0  0  0  0  0  0  0  0
    0.7997   18.7844   42.2952 H   0  0  0  0  0  0  0  0  0  0  0  0
    0.8970   22.9182   36.9375 H   0  0  0  0  0  0  0  0  0  0  0  0
    3.0116   15.3377   39.3798 H   0  0  0  0  0  0  0  0  0  0  0  0
    3.5652   20.1017   40.8639 H   0  0  0  0  0  0  0  0  0  0  0  0
    1.9301   20.6410   40.4466 H   0  0  0  0  0  0  0  0  0  0  0  0
    1.4288   14.6585   41.2607 H   0  0  0  0  0  0  0  0  0  0  0  0
    4.5332   25.3578   30.8614 H   0  0  0  0  0  0  0  0  0  0  0  0
    4.9328   24.2519   29.5035 H   0  0  0  0  0  0  0  0  0  0  0  0
    3.3762   25.1484   29.5035 H   0  0  0  0  0  0  0  0  0  0  0  0
  1 10  1  0
  1 17  1  0
  2  8  1  0
  2  9  2  0
  3 10  1  0
  4  6  1  0
  5  3  1  0
  6  7  1  0
  7  2  1  0
  8  5  2  0
  9 14  1  0
 12  1  1  0
 12 16  1  0
 13 11  1  0
 14  3  2  0
 15 18  1  0
 16 15  2  0
 16 20  1  0
 17 20  1  0
 18 11  2  0
 19  4  1  0
 20 13  2  0
  1 21  1  1
  4 22  1  0
  4 23  1  0
  5 24  1  0
  6 25  1  0
  6 26  1  0
  7 27  1  0
  8 28  1  0
  9 29  1  0
 10 30  1  0
 11 31  1  0
 13 32  1  0
 14 33  1  0
 15 34  1  0
 17 35  1  0
 17 36  1  0
 18 37  1  0
 19 38  1  0
 19 39  1  0
 19 40  1  0
M  END
>  <mol_id>  (8) 
2026-08-24-6tgu-s0-n20-pocketids2-0008

>  <rmsd_to_ref>  (8) 


$$$$

     RDKit          3D

 48 46  0  0  0  0  0  0  0  0999 V2000
    2.6410   21.4270   37.0600 S   0  0  0  0  0  0  0  0  0  0  0  0
    1.8720   14.7770   37.1870 N   0  0  0  0  0  0  0  0  0  0  0  0
    2.0900   24.7070   30.2680 C   0  0  0  0  0  0  0  0  0  0  0  0
    2.2900   15.7680   37.6030 C   0  0  0  0  0  0  0  0  0  0  0  0
    1.2040   21.3790   39.4040 O   0  0  0  0  0  0  0  0  0  0  0  0
    4.5350   16.3410   36.8800 N   0  0  0  0  0  0  0  0  0  0  0  0
    3.1970   19.8440   37.6660 C   0  0  0  0  0  0  0  0  0  0  0  0
    3.7940   17.2080   37.3280 C   0  0  0  0  0  0  0  0  0  0  0  0
    3.1420   20.6460   40.7340 O   0  0  0  0  0  0  0  0  0  0  0  0
    2.1670   25.0920   31.5950 C   0  0  0  0  0  0  0  0  0  0  0  0
    1.0790   19.3950   40.7250 O   0  0  0  0  0  0  0  0  0  0  0  0
    3.8300   22.8370   33.7020 C   0  0  0  0  0  0  0  0  0  0  0  0
    3.6880   23.3170   32.4350 C   0  0  0  0  0  0  0  0  0  0  0  0
    2.7160   16.9890   37.9940 C   0  0  1  0  0  0  0  0  0  0  0  0
    2.1100   18.0280   38.8480 C   0  0  0  0  0  0  0  0  0  0  0  0
    3.1330   21.4580   35.4340 C   0  0  0  0  0  0  0  0  0  0  0  0
    2.7140   22.5580   34.5700 C   0  0  0  0  0  0  0  0  0  0  0  0
    1.9500   20.3440   39.8960 S   0  0  0  0  0  4  0  0  0  0  0  0
    4.4630   19.6140   37.4340 O   0  0  0  0  0  0  0  0  0  0  0  0
    1.9370   24.6760   32.9980 N   0  0  0  0  0  0  0  0  0  0  0  0
    2.4600   19.3200   38.7230 C   0  0  0  0  0  0  0  0  0  0  0  0
    1.8780   26.6340   31.6160 C   0  0  0  0  0  0  0  0  0  0  0  0
    2.5870   24.2110   32.4020 C   0  0  0  0  0  0  0  0  0  0  0  0
    1.8746   23.6298   30.2106 H   0  0  0  0  0  0  0  0  0  0  0  0
    1.2864   25.2687   29.7693 H   0  0  0  0  0  0  0  0  0  0  0  0
    3.0478   24.9164   29.7693 H   0  0  0  0  0  0  0  0  0  0  0  0
    0.8276   21.9012   40.1561 H   0  0  0  0  0  0  0  0  0  0  0  0
    5.3811   16.6069   36.3563 H   0  0  0  0  0  0  0  0  0  0  0  0
    4.0730   18.2564   37.1461 H   0  0  0  0  0  0  0  0  0  0  0  0
    2.8968   20.5839   41.6911 H   0  0  0  0  0  0  0  0  0  0  0  0
    2.8446   25.9563   31.6566 H   0  0  0  0  0  0  0  0  0  0  0  0
    1.1337   25.3099   31.9027 H   0  0  0  0  0  0  0  0  0  0  0  0
    1.2329   19.5627   41.6885 H   0  0  0  0  0  0  0  0  0  0  0  0
    4.4512   23.5716   34.2354 H   0  0  0  0  0  0  0  0  0  0  0  0
    4.2145   21.8245   33.5095 H   0  0  0  0  0  0  0  0  0  0  0  0
    4.6039   23.8483   32.1368 H   0  0  0  0  0  0  0  0  0  0  0  0
    3.5119   22.4838   31.7388 H   0  0  0  0  0  0  0  0  0  0  0  0
    3.3068   16.5255   38.7978 H   0  0  0  0  0  0  0  0  0  0  0  0
    1.3596   17.7410   39.5993 H   0  0  0  0  0  0  0  0  0  0  0  0
    4.2330   21.4541   35.4339 H   0  0  0  0  0  0  0  0  0  0  0  0
    2.6271   20.5841   34.9977 H   0  0  0  0  0  0  0  0  0  0  0  0
    2.4696   23.4447   35.1734 H   0  0  0  0  0  0  0  0  0  0  0  0
    1.8150   22.2941   33.9937 H   0  0  0  0  0  0  0  0  0  0  0  0
    1.8068   24.3549   33.9680 H   0  0  0  0  0  0  0  0  0  0  0  0
    1.8780   26.6340   32.7160 H   0  0  0  0  0  0  0  0  0  0  0  0
    1.8780   27.6711   31.2493 H   0  0  0  0  0  0  0  0  0  0  0  0
    2.7761   26.1155   31.2493 H   0  0  0  0  0  0  0  0  0  0  0  0
    0.9799   26.1155   31.2493 H   0  0  0  0  0  0  0  0  0  0  0  0
  1  7  1  0
  2  4  3  0
  3 10  1  0
  4 14  1  0
  5 18  1  0
  6  8  2  3
  7 21  1  0
 10 23  1  0
 12 17  1  0
 13 12  1  0
 14  8  1  0
 14 15  1  0
 16  1  1  0
 17 16  1  0
 18 11  1  0
 18  9  1  0
 19  7  2  0
 21 15  2  3
 21 18  1  0
 23 13  1  0
 23 20  2  3
  3 24  1  0
  3 25  1  0
  3 26  1  0
  5 27  1  0
  6 28  1  0
  8 29  1  0
  9 30  1  0
 10 31  1  0
 10 32  1  0
 11 33  1  0
 12 34  1  0
 12 35  1  0
 13 36  1  0
 13 37  1  0
 14 38  1  1
 15 39  1  0
 16 40  1  0
 16 41  1  0
 17 42  1  0
 17 43  1  0
 20 44  1  0
 22 45  1  0
 22 46  1  0
 22 47  1  0
 22 48  1  0
M  END
>  <mol_id>  (9) 
2026-08-24-6tgu-s0-n20-pocketids2-0009

>  <rmsd_to_ref>  (9) 


$$$$

     RDKit          3D

 23 24  0  0  0  0  0  0  0  0999 V2000
    3.1519   20.2830   39.6972 C   0  0  0  0  0  0  0  0  0  0  0  0
    3.4110   22.1090   36.4317 N   0  0  0  0  0  0  0  0  0  0  0  0
    2.9857   22.3433   35.0165 C   0  0  0  0  0  0  0  0  0  0  0  0
    3.0064   21.3133   37.3992 C   0  0  0  0  0  0  0  0  0  0  0  0
    3.6182   18.6100   37.9670 S   0  0  0  0  0  0  0  0  0  0  0  0
    3.6027   23.3839   34.1055 C   0  0  0  0  0  0  0  0  0  0  0  0
    3.8319   18.0673   39.5774 C   0  0  0  0  0  0  0  0  0  0  0  0
    3.1665   20.2327   38.3349 C   0  0  0  0  0  0  0  0  0  0  0  0
    3.7901   21.9829   33.8686 C   0  0  0  0  0  0  0  0  0  0  0  0
    3.6214   19.0903   40.3441 C   0  0  0  0  0  0  0  0  0  0  0  0
    1.6180   22.5636   35.0953 O   0  0  0  0  0  0  0  0  0  0  0  0
    2.8082   21.1662   40.2557 H   0  0  0  0  0  0  0  0  0  0  0  0
    3.3274   23.0447   36.8541 H   0  0  0  0  0  0  0  0  0  0  0  0
    4.2366   21.5438   36.1871 H   0  0  0  0  0  0  0  0  0  0  0  0
    2.7423   22.0949   38.1267 H   0  0  0  0  0  0  0  0  0  0  0  0
    2.7687   20.5626   36.6310 H   0  0  0  0  0  0  0  0  0  0  0  0
    4.4408   24.0024   34.4594 H   0  0  0  0  0  0  0  0  0  0  0  0
    3.2278   24.2361   33.5197 H   0  0  0  0  0  0  0  0  0  0  0  0
    4.0962   17.0488   39.8982 H   0  0  0  0  0  0  0  0  0  0  0  0
    3.3092   21.5132   32.9979 H   0  0  0  0  0  0  0  0  0  0  0  0
    4.6799   21.3498   33.7364 H   0  0  0  0  0  0  0  0  0  0  0  0
    3.7927   19.0475   41.4298 H   0  0  0  0  0  0  0  0  0  0  0  0
    1.3329   22.5336   36.0429 H   0  0  0  0  0  0  0  0  0  0  0  0
  1 10  1  0
  2  4  1  0
  3  2  1  0
  4  8  1  0
  5  7  1  0
  6  9  1  0
  6  3  1  0
  7 10  2  0
  8  5  1  0
  8  1  2  0
  9  3  1  0
 11  3  1  0
  1 12  1  0
  2 13  1  0
  2 14  1  0
  4 15  1  0
  4 16  1  0
  6 17  1  0
  6 18  1  0
  7 19  1  0
  9 20  1  0
  9 21  1  0
 10 22  1  0
 11 23  1  0
M  CHG  1   2   1
M  END
>  <mol_id>  (10) 
2026-08-24-6tgu-s0-n20-pocketids2-0010

>  <rmsd_to_ref>  (10) 


$$$$

     RDKit          3D

 63 67  0  0  0  0  0  0  0  0999 V2000
    3.2403   25.7355   31.1044 C   0  0  0  0  0  0  0  0  0  0  0  0
    3.3841   22.0646   36.5177 C   0  0  0  0  0  0  0  0  0  0  0  0
    2.3886   19.2342   39.1569 C   0  0  1  0  0  0  0  0  0  0  0  0
    2.9104   16.6530   40.9659 O   0  0  0  0  0  0  0  0  0  0  0  0
    2.1441   25.9722   27.3753 C   0  0  0  0  0  0  0  0  0  0  0  0
    3.7860   18.8460   39.3566 C   0  0  0  0  0  0  0  0  0  0  0  0
    1.0150   18.0865   41.0959 C   0  0  0  0  0  0  0  0  0  0  0  0
    2.4310   25.3178   28.6630 C   0  0  0  0  0  0  0  0  0  0  0  0
    3.2635   23.3205   29.8217 C   0  0  0  0  0  0  0  0  0  0  0  0
    3.3820   20.6463   37.2610 C   0  0  0  0  0  0  0  0  0  0  0  0
    1.1221   16.0073   42.4316 C   0  0  0  0  0  0  0  0  0  0  0  0
    4.2227   23.5269   32.2318 C   0  0  2  0  0  0  0  0  0  0  0  0
    2.5217   22.2606   35.1922 C   0  0  0  0  0  0  0  0  0  0  0  0
    3.4635   22.1171   30.0716 F   0  0  0  0  0  0  0  0  0  0  0  0
   -0.2472   16.1508   42.8740 C   0  0  0  0  0  0  0  0  0  0  0  0
    2.6835   23.5983   32.8661 C   0  0  1  0  0  0  0  0  0  0  0  0
    2.9226   23.4469   34.3282 C   0  0  2  0  0  0  0  0  0  0  0  0
    1.8137   14.9406   43.0942 O   0  0  0  0  0  0  0  0  0  0  0  0
   -0.3845   18.3357   41.7283 C   0  0  1  0  0  0  0  0  0  0  0  0
    1.3343   19.1939   40.3053 C   0  0  0  0  0  0  0  0  0  0  0  0
    1.4190   13.6006   43.0001 C   0  0  0  0  0  0  0  0  0  0  0  0
   -1.0832   17.2880   42.4742 C   0  0  0  0  0  0  0  0  0  0  0  0
    4.4804   18.3641   38.1249 C   0  0  0  0  0  0  0  0  0  0  0  0
    2.7661   26.2541   29.8271 C   0  0  0  0  0  0  0  0  0  0  0  0
    2.6118   23.8964   28.7416 C   0  0  0  0  0  0  0  0  0  0  0  0
    0.3634   20.1305   40.5128 C   0  0  0  0  0  0  0  0  0  0  0  0
    2.3135   20.5225   38.3367 C   0  0  0  0  0  0  0  0  0  0  0  0
   -0.6375   19.6661   41.3562 N   0  0  0  0  0  0  0  0  0  0  0  0
    3.9560   24.5575   33.5732 C   0  0  1  0  0  0  0  0  0  0  0  0
    4.0213   24.2964   30.8246 C   0  0  2  0  0  0  0  0  0  0  0  0
    1.7780   16.9282   41.5191 C   0  0  0  0  0  0  0  0  0  0  0  0
    3.9364   26.4537   31.5622 H   0  0  0  0  0  0  0  0  0  0  0  0
    2.3933   25.5805   31.7888 H   0  0  0  0  0  0  0  0  0  0  0  0
    3.9776   22.8989   36.9199 H   0  0  0  0  0  0  0  0  0  0  0  0
    2.0207   18.3492   38.6170 H   0  0  0  0  0  0  0  0  0  0  0  0
    3.4255   15.8605   41.2603 H   0  0  0  0  0  0  0  0  0  0  0  0
    1.2948   26.6610   27.4953 H   0  0  0  0  0  0  0  0  0  0  0  0
    3.0292   26.5355   27.0451 H   0  0  0  0  0  0  0  0  0  0  0  0
    1.8938   25.2089   26.6239 H   0  0  0  0  0  0  0  0  0  0  0  0
    4.3334   19.7201   39.7391 H   0  0  0  0  0  0  0  0  0  0  0  0
    3.7769   18.0003   40.0600 H   0  0  0  0  0  0  0  0  0  0  0  0
    3.2118   19.8606   36.5101 H   0  0  0  0  0  0  0  0  0  0  0  0
    4.3562   20.5436   37.7614 H   0  0  0  0  0  0  0  0  0  0  0  0
    5.0154   22.7891   32.0386 H   0  0  0  0  0  0  0  0  0  0  0  0
    1.6957   21.5865   34.9212 H   0  0  0  0  0  0  0  0  0  0  0  0
   -0.6763   15.3812   43.5325 H   0  0  0  0  0  0  0  0  0  0  0  0
    1.7396   23.3872   32.3422 H   0  0  0  0  0  0  0  0  0  0  0  0
    2.6903   23.4753   35.4030 H   0  0  0  0  0  0  0  0  0  0  0  0
   -0.8649   17.9947   40.7993 H   0  0  0  0  0  0  0  0  0  0  0  0
    1.0268   13.2648   43.9715 H   0  0  0  0  0  0  0  0  0  0  0  0
    0.6354   13.5021   42.2345 H   0  0  0  0  0  0  0  0  0  0  0  0
    2.2846   12.9820   42.7207 H   0  0  0  0  0  0  0  0  0  0  0  0
   -2.1545   17.3487   42.7168 H   0  0  0  0  0  0  0  0  0  0  0  0
    4.9626   17.3971   38.3305 H   0  0  0  0  0  0  0  0  0  0  0  0
    3.7469   18.2431   37.3142 H   0  0  0  0  0  0  0  0  0  0  0  0
    5.2428   19.0973   37.8232 H   0  0  0  0  0  0  0  0  0  0  0  0
    2.6468   27.3399   29.6970 H   0  0  0  0  0  0  0  0  0  0  0  0
    2.2283   23.2551   27.9343 H   0  0  0  0  0  0  0  0  0  0  0  0
    0.3727   21.1351   40.0647 H   0  0  0  0  0  0  0  0  0  0  0  0
    1.3282   20.5629   37.8492 H   0  0  0  0  0  0  0  0  0  0  0  0
    2.4786   21.3521   39.0399 H   0  0  0  0  0  0  0  0  0  0  0  0
    4.5259   25.4276   33.9310 H   0  0  0  0  0  0  0  0  0  0  0  0
    4.9783   24.5560   30.3486 H   0  0  0  0  0  0  0  0  0  0  0  0
  2 10  1  0
  3 27  1  0
  3 20  1  0
  4 31  1  0
  5  8  1  0
  6  3  1  0
  7 31  1  0
  7 19  1  0
  8 25  1  0
  8 24  2  0
  9 14  1  0
  9 30  1  0
 10 27  1  0
 11 18  1  0
 11 15  1  0
 12 16  1  0
 12 29  1  0
 13  2  2  3
 16 29  1  0
 16 17  1  0
 17 13  1  0
 18 21  1  0
 19 22  1  0
 20 26  1  0
 20  7  2  0
 22 15  2  0
 23  6  1  0
 24  1  1  0
 25  9  2  0
 26 28  2  0
 28 19  1  0
 29 17  1  0
 30  1  1  0
 30 12  1  0
 31 11  2  0
  1 32  1  0
  1 33  1  0
  2 34  1  0
  3 35  1  6
  4 36  1  0
  5 37  1  0
  5 38  1  0
  5 39  1  0
  6 40  1  0
  6 41  1  0
 10 42  1  0
 10 43  1  0
 12 44  1  6
 13 45  1  0
 15 46  1  0
 16 47  1  6
 17 48  1  1
 19 49  1  6
 21 50  1  0
 21 51  1  0
 21 52  1  0
 22 53  1  0
 23 54  1  0
 23 55  1  0
 23 56  1  0
 24 57  1  0
 25 58  1  0
 26 59  1  0
 27 60  1  0
 27 61  1  0
 29 62  1  1
 30 63  1  6
M  END
>  <mol_id>  (11) 
2026-08-24-6tgu-s0-n20-pocketids2-0011

>  <rmsd_to_ref>  (11) 


$$$$

     RDKit          3D

 56 56  0  0  0  0  0  0  0  0999 V2000
    1.5987   18.1721   40.9874 C   0  0  0  0  0  0  0  0  0  0  0  0
    2.7844   22.1291   36.2090 C   0  0  0  0  0  0  0  0  0  0  0  0
    1.5098   17.0602   36.7624 C   0  0  0  0  0  0  0  0  0  0  0  0
    0.8082   18.1439   42.2027 C   0  0  0  0  0  0  0  0  0  0  0  0
    4.5676   22.8380   27.4707 O   0  0  0  0  0  0  0  0  0  0  0  0
    1.5235   18.1727   38.7304 C   0  0  1  0  0  0  0  0  0  0  0  0
    4.0322   23.5163   28.0731 C   0  0  0  0  0  0  0  0  0  0  0  0
    2.7719   20.0526   34.4258 C   0  0  0  0  0  0  0  0  0  0  0  0
    2.5320   19.4301   36.8687 C   0  0  1  0  0  0  0  0  0  0  0  0
    1.8705   18.2017   35.9570 C   0  0  0  0  0  0  0  0  0  0  0  0
    4.6822   25.1494   29.6871 F   0  0  0  0  0  0  0  0  0  0  0  0
    0.6188   16.0983   40.1786 O   0  0  0  0  0  0  0  0  0  0  0  0
    4.9271   24.2081   27.1404 C   0  0  0  0  0  0  0  0  0  0  0  0
    4.1056   23.9931   29.5135 C   0  0  0  0  0  0  0  0  0  0  0  0
    3.1640   20.7043   36.1449 S   0  0  2  0  0  4  0  0  0  0  0  0
    1.1976   17.0603   40.1051 N   0  0  0  0  0  0  0  0  0  0  0  0
    2.7153   18.7253   40.9719 O   0  0  0  0  0  0  0  0  0  0  0  0
    4.0367   21.7494   32.8686 C   0  0  0  0  0  0  0  0  0  0  0  0
    1.0749   18.8431   43.0924 O   0  0  0  0  0  0  0  0  0  0  0  0
   -0.5036   17.7466   42.1031 O   0  0  0  0  0  0  0  0  0  0  0  0
    4.6222   22.8454   30.3956 C   0  0  0  0  0  0  0  0  0  0  0  0
    2.8925   24.4169   29.9948 F   0  0  0  0  0  0  0  0  0  0  0  0
    2.4570   19.2281   38.3389 C   0  0  0  0  0  0  0  0  0  0  0  0
    3.0696   20.7230   33.7373 C   0  0  0  0  0  0  0  0  0  0  0  0
    3.8090   22.3059   31.5915 C   0  0  0  0  0  0  0  0  0  0  0  0
    2.1946   17.0280   38.0904 C   0  0  0  0  0  0  0  0  0  0  0  0
    2.8270   22.4732   37.2528 H   0  0  0  0  0  0  0  0  0  0  0  0
    3.4814   22.7220   35.5986 H   0  0  0  0  0  0  0  0  0  0  0  0
    1.7619   22.2538   35.8232 H   0  0  0  0  0  0  0  0  0  0  0  0
    1.7763   16.1465   36.2108 H   0  0  0  0  0  0  0  0  0  0  0  0
    0.4294   17.1297   36.9568 H   0  0  0  0  0  0  0  0  0  0  0  0
    0.6399   18.8252   38.6700 H   0  0  0  0  0  0  0  0  0  0  0  0
    4.1180   24.4556   27.5072 H   0  0  0  0  0  0  0  0  0  0  0  0
    3.1957   22.8256   28.2551 H   0  0  0  0  0  0  0  0  0  0  0  0
    3.3010   19.1017   34.2646 H   0  0  0  0  0  0  0  0  0  0  0  0
    1.6880   19.8889   34.3339 H   0  0  0  0  0  0  0  0  0  0  0  0
    3.5131   18.9331   36.8505 H   0  0  0  0  0  0  0  0  0  0  0  0
    0.9684   18.5800   35.4540 H   0  0  0  0  0  0  0  0  0  0  0  0
    2.6275   17.8759   35.2285 H   0  0  0  0  0  0  0  0  0  0  0  0
    0.6868   15.7417   41.0997 H   0  0  0  0  0  0  0  0  0  0  0  0
    5.3173   24.7111   28.0374 H   0  0  0  0  0  0  0  0  0  0  0  0
    5.6985   24.2060   26.3563 H   0  0  0  0  0  0  0  0  0  0  0  0
    4.0371   24.7434   26.7777 H   0  0  0  0  0  0  0  0  0  0  0  0
    4.3758   20.9570   36.7319 H   0  0  0  0  0  0  0  0  0  0  0  0
    4.1760   22.6195   33.5270 H   0  0  0  0  0  0  0  0  0  0  0  0
    4.8224   21.0312   32.5913 H   0  0  0  0  0  0  0  0  0  0  0  0
    4.7867   21.9902   29.7237 H   0  0  0  0  0  0  0  0  0  0  0  0
    5.4879   23.3069   30.8931 H   0  0  0  0  0  0  0  0  0  0  0  0
    3.4591   18.9619   38.7065 H   0  0  0  0  0  0  0  0  0  0  0  0
    2.0904   20.1673   38.7788 H   0  0  0  0  0  0  0  0  0  0  0  0
    2.3158   21.4813   33.9954 H   0  0  0  0  0  0  0  0  0  0  0  0
    3.5825   19.8936   33.2283 H   0  0  0  0  0  0  0  0  0  0  0  0
    3.1714   23.1687   31.8348 H   0  0  0  0  0  0  0  0  0  0  0  0
    3.6643   21.3208   31.1238 H   0  0  0  0  0  0  0  0  0  0  0  0
    2.0057   16.0871   38.6280 H   0  0  0  0  0  0  0  0  0  0  0  0
    3.2926   17.0853   38.0554 H   0  0  0  0  0  0  0  0  0  0  0  0
  1 17  2  0
  1  4  1  0
  3 26  1  0
  4 19  1  0
  5  7  1  0
  6 16  1  0
  7 14  1  0
  8 15  1  0
  9 15  1  0
  9 23  1  0
 10  9  1  0
 10  3  1  0
 13  5  1  0
 14 11  1  0
 14 22  1  0
 14 21  1  0
 15  2  1  0
 16 12  1  0
 16  1  1  0
 18 24  1  0
 20  4  2  0
 21 25  1  0
 23  6  1  0
 24  8  1  0
 25 18  1  0
 26  6  1  0
  2 27  1  0
  2 28  1  0
  2 29  1  0
  3 30  1  0
  3 31  1  0
  6 32  1  6
  7 33  1  0
  7 34  1  0
  8 35  1  0
  8 36  1  0
  9 37  1  6
 10 38  1  0
 10 39  1  0
 12 40  1  0
 13 41  1  0
 13 42  1  0
 13 43  1  0
 15 44  1  6
 18 45  1  0
 18 46  1  0
 21 47  1  0
 21 48  1  0
 23 49  1  0
 23 50  1  0
 24 51  1  0
 24 52  1  0
 25 53  1  0
 25 54  1  0
 26 55  1  0
 26 56  1  0
M  CHG  1  19  -1
M  END
>  <mol_id>  (12) 
2026-08-24-6tgu-s0-n20-pocketids2-0012

>  <rmsd_to_ref>  (12) 


$$$$

     RDKit          3D

 53 54  0  0  0  0  0  0  0  0999 V2000
    4.7907   23.3146   33.5229 C   0  0  0  0  0  0  0  0  0  0  0  0
    2.0876   18.3541   39.6454 N   0  0  0  0  0  0  0  0  0  0  0  0
    0.6960   19.2819   41.9760 C   0  0  0  0  0  0  0  0  0  0  0  0
    4.7279   23.2761   35.2631 S   0  0  0  0  0  0  0  0  0  0  0  0
    3.7989   16.1850   37.0592 C   0  0  0  0  0  0  0  0  0  0  0  0
    3.7704   24.7926   31.6476 C   0  0  0  0  0  0  0  0  0  0  0  0
    0.9627   17.7629   41.8576 C   0  0  0  0  0  0  0  0  0  0  0  0
    2.4344   15.6576   39.0915 C   0  0  0  0  0  0  0  0  0  0  0  0
    1.5865   17.4425   40.5158 C   0  0  0  0  0  0  0  0  0  0  0  0
    3.0862   23.0695   35.5922 C   0  0  0  0  0  0  0  0  0  0  0  0
    4.0143   20.8893   36.6367 C   0  0  0  0  0  0  0  0  0  0  0  0
   -0.3268   16.9792   42.1235 C   0  0  0  0  0  0  0  0  0  0  0  0
   -0.4546   19.9088   42.8112 C   0  0  0  0  0  0  0  0  0  0  0  0
   -1.1842   18.8364   43.6376 C   0  0  0  0  0  0  0  0  0  0  0  0
    3.2446   18.9193   37.7633 C   0  0  0  0  0  0  0  0  0  0  0  0
    3.6844   19.9451   37.6575 C   0  0  0  0  0  0  0  0  0  0  0  0
    3.0313   16.6199   38.2239 C   0  0  0  0  0  0  0  0  0  0  0  0
    1.7322   16.0403   40.1786 C   0  0  0  0  0  0  0  0  0  0  0  0
    2.8613   21.8133   36.3645 C   0  0  0  0  0  0  0  0  0  0  0  0
   -1.5774   17.7262   42.6800 C   0  0  0  0  0  0  0  0  0  0  0  0
    3.5599   24.0546   32.9867 C   0  0  0  0  0  0  0  0  0  0  0  0
    2.8063   17.9363   38.5438 C   0  0  0  0  0  0  0  0  0  0  0  0
    5.7031   23.8372   33.1999 H   0  0  0  0  0  0  0  0  0  0  0  0
    4.8012   22.2864   33.1322 H   0  0  0  0  0  0  0  0  0  0  0  0
    1.6238   19.7151   42.3781 H   0  0  0  0  0  0  0  0  0  0  0  0
    0.3559   19.5103   40.9552 H   0  0  0  0  0  0  0  0  0  0  0  0
    4.5456   15.4395   37.3697 H   0  0  0  0  0  0  0  0  0  0  0  0
    3.1196   15.7372   36.3187 H   0  0  0  0  0  0  0  0  0  0  0  0
    4.3091   17.0509   36.6122 H   0  0  0  0  0  0  0  0  0  0  0  0
    3.9904   25.8523   31.8437 H   0  0  0  0  0  0  0  0  0  0  0  0
    4.6130   24.3372   31.1066 H   0  0  0  0  0  0  0  0  0  0  0  0
    2.8580   24.7141   31.0383 H   0  0  0  0  0  0  0  0  0  0  0  0
    1.6877   17.4511   42.6238 H   0  0  0  0  0  0  0  0  0  0  0  0
    2.5484   14.5861   38.8708 H   0  0  0  0  0  0  0  0  0  0  0  0
    2.7247   23.9257   36.1807 H   0  0  0  0  0  0  0  0  0  0  0  0
    2.5384   23.0045   34.6406 H   0  0  0  0  0  0  0  0  0  0  0  0
    4.8815   21.4825   36.9621 H   0  0  0  0  0  0  0  0  0  0  0  0
    4.2480   20.3393   35.7131 H   0  0  0  0  0  0  0  0  0  0  0  0
   -0.6258   16.5215   41.1689 H   0  0  0  0  0  0  0  0  0  0  0  0
   -0.0500   16.2948   42.9390 H   0  0  0  0  0  0  0  0  0  0  0  0
   -0.0347   20.6636   43.4923 H   0  0  0  0  0  0  0  0  0  0  0  0
   -1.1765   20.3706   42.1215 H   0  0  0  0  0  0  0  0  0  0  0  0
   -0.5167   18.4426   44.4182 H   0  0  0  0  0  0  0  0  0  0  0  0
   -2.0711   19.2593   44.1322 H   0  0  0  0  0  0  0  0  0  0  0  0
    3.1138   18.5526   36.7345 H   0  0  0  0  0  0  0  0  0  0  0  0
    3.9421   20.3510   38.6468 H   0  0  0  0  0  0  0  0  0  0  0  0
    1.2639   15.2773   40.8178 H   0  0  0  0  0  0  0  0  0  0  0  0
    2.4520   22.1088   37.3418 H   0  0  0  0  0  0  0  0  0  0  0  0
    2.2093   21.2213   35.7055 H   0  0  0  0  0  0  0  0  0  0  0  0
   -2.1368   18.1616   41.8389 H   0  0  0  0  0  0  0  0  0  0  0  0
   -2.1956   17.0007   43.2291 H   0  0  0  0  0  0  0  0  0  0  0  0
    3.2533   24.7957   33.7395 H   0  0  0  0  0  0  0  0  0  0  0  0
    2.7989   23.2838   32.7949 H   0  0  0  0  0  0  0  0  0  0  0  0
  1  4  1  0
  2  9  1  0
  3  7  1  0
  3 13  1  0
  4 10  1  0
  5 17  1  0
  6 21  1  0
  7 12  1  0
  8 18  1  0
  9  7  1  0
 10 19  1  0
 11 16  1  0
 12 20  1  0
 13 14  1  0
 15 22  1  0
 16 15  2  3
 17 22  1  0
 17  8  2  0
 18  9  2  0
 19 11  1  0
 20 14  1  0
 21  1  1  0
 22  2  2  0
  1 23  1  0
  1 24  1  0
  3 25  1  0
  3 26  1  0
  5 27  1  0
  5 28  1  0
  5 29  1  0
  6 30  1  0
  6 31  1  0
  6 32  1  0
  7 33  1  0
  8 34  1  0
 10 35  1  0
 10 36  1  0
 11 37  1  0
 11 38  1  0
 12 39  1  0
 12 40  1  0
 13 41  1  0
 13 42  1  0
 14 43  1  0
 14 44  1  0
 15 45  1  0
 16 46  1  0
 18 47  1  0
 19 48  1  0
 19 49  1  0
 20 50  1  0
 20 51  1  0
 21 52  1  0
 21 53  1  0
M  END
>  <mol_id>  (13) 
2026-08-24-6tgu-s0-n20-pocketids2-0013

>  <rmsd_to_ref>  (13) 


$$$$

     RDKit          3D

 28 30  0  0  0  0  0  0  0  0999 V2000
    4.2319   22.3853   34.5552 C   0  0  0  0  0  0  0  0  0  0  0  0
    4.2713   23.7690   29.9202 C   0  0  0  0  0  0  0  0  0  0  0  0
    3.4944   19.9488   36.9968 C   0  0  0  0  0  0  0  0  0  0  0  0
    3.3250   18.4705   38.7169 C   0  0  0  0  0  0  0  0  0  0  0  0
    3.4354   21.5021   35.2997 C   0  0  0  0  0  0  0  0  0  0  0  0
    3.4223   17.0676   39.7155 Cl  0  0  0  0  0  0  0  0  0  0  0  0
    2.6539   19.5945   39.1681 C   0  0  0  0  0  0  0  0  0  0  0  0
    3.1750   25.4754   31.5944 C   0  0  0  0  0  0  0  0  0  0  0  0
    3.8487   18.7145   37.5180 C   0  0  0  0  0  0  0  0  0  0  0  0
    1.8765   19.8083   40.7348 Cl  0  0  0  0  0  0  0  0  0  0  0  0
    3.7683   22.9645   33.3236 C   0  0  0  0  0  0  0  0  0  0  0  0
    4.2229   24.4061   31.2467 C   0  0  2  0  0  0  0  0  0  0  0  0
    3.2027   24.6570   30.3727 C   0  0  2  0  0  0  0  0  0  0  0  0
    2.5166   20.8681   37.9819 S   0  0  0  0  0  0  0  0  0  0  0  0
    2.2102   21.7350   35.4002 O   0  0  0  0  0  0  0  0  0  0  0  0
    4.0314   20.4956   35.8754 N   0  0  0  0  0  0  0  0  0  0  0  0
    4.0867   23.5095   32.4373 N   0  0  0  0  0  0  0  0  0  0  0  0
    5.2365   22.6411   34.9232 H   0  0  0  0  0  0  0  0  0  0  0  0
    4.9961   24.1024   29.1628 H   0  0  0  0  0  0  0  0  0  0  0  0
    4.3516   22.7464   29.5229 H   0  0  0  0  0  0  0  0  0  0  0  0
    2.4235   25.2976   32.3777 H   0  0  0  0  0  0  0  0  0  0  0  0
    3.1618   26.5441   31.8550 H   0  0  0  0  0  0  0  0  0  0  0  0
    4.5014   18.0034   36.9904 H   0  0  0  0  0  0  0  0  0  0  0  0
    2.6845   22.7916   33.2495 H   0  0  0  0  0  0  0  0  0  0  0  0
    2.3486   24.7945   29.6933 H   0  0  0  0  0  0  0  0  0  0  0  0
    4.9049   20.1173   35.4820 H   0  0  0  0  0  0  0  0  0  0  0  0
    4.2826   22.6534   31.8991 H   0  0  0  0  0  0  0  0  0  0  0  0
    4.0997   24.3585   33.0204 H   0  0  0  0  0  0  0  0  0  0  0  0
  1  5  1  0
  2 12  1  0
  3  9  2  0
  3 14  1  0
  4  7  2  0
  4  6  1  0
  5 15  2  0
  5 16  1  0
  7 10  1  0
  9  4  1  0
 11  1  2  3
 12  8  1  0
 12 17  1  6
 13  2  1  0
 13 12  1  0
 13  8  1  0
 14  7  1  0
 16  3  1  0
 17 11  1  0
  1 18  1  0
  2 19  1  0
  2 20  1  0
  8 21  1  0
  8 22  1  0
  9 23  1  0
 11 24  1  0
 13 25  1  1
 16 26  1  0
 17 27  1  0
 17 28  1  0
M  CHG  1  17   1
M  END
>  <mol_id>  (14) 
2026-08-24-6tgu-s0-n20-pocketids2-0014

>  <rmsd_to_ref>  (14) 


$$$$

     RDKit          3D

 62 63  0  0  0  0  0  0  0  0999 V2000
    2.7288   22.1078   34.6465 C   0  0  0  0  0  0  0  0  0  0  0  0
    0.5931   19.1794   41.7129 C   0  0  0  0  0  0  0  0  0  0  0  0
    2.5265   14.4812   39.7738 N   0  0  0  0  0  0  0  0  0  0  0  0
    2.5851   17.2840   39.5744 N   0  0  0  0  0  0  0  0  0  0  0  0
    4.3751   14.2436   38.2457 C   0  0  0  0  0  0  0  0  0  0  0  0
    0.9041   21.2133   41.4122 C   0  0  0  0  0  0  0  0  0  0  0  0
    2.9209   18.6492   39.4341 N   0  0  0  0  0  0  0  0  0  0  0  0
    4.4039   24.4497   31.0225 O   0  0  0  0  0  0  0  0  0  0  0  0
    4.0336   21.6379   34.1975 N   0  0  0  0  0  0  0  0  0  0  0  0
    3.2978   16.4972   38.8529 C   0  0  2  0  0  0  0  0  0  0  0  0
    3.5383   18.6648   38.1637 C   0  0  1  0  0  0  0  0  0  0  0  0
    3.2915   20.2701   36.5124 O   0  0  0  0  0  0  0  0  0  0  0  0
    2.4627   25.6719   31.8979 C   0  0  0  0  0  0  0  0  0  0  0  0
    1.2651   19.9371   40.5850 C   0  0  0  0  0  0  0  0  0  0  0  0
    3.4705   15.0886   38.9737 C   0  0  1  0  0  0  0  0  0  0  0  0
    4.1792   19.6456   37.1561 C   0  0  0  0  0  0  0  0  0  0  0  0
    3.0295   13.6903   40.9434 C   0  0  0  0  0  0  0  0  0  0  0  0
    2.5224   23.4462   34.0919 C   0  0  0  0  0  0  0  0  0  0  0  0
    3.5230   24.4876   31.8879 C   0  0  0  0  0  0  0  0  0  0  0  0
    3.4837   23.4785   33.0087 C   0  0  1  0  0  0  0  0  0  0  0  0
   -0.2021   20.3161   42.1369 C   0  0  0  0  0  0  0  0  0  0  0  0
    2.7269   19.7885   40.4459 C   0  0  0  0  0  0  0  0  0  0  0  0
    4.4692   22.5556   33.1979 C   0  0  0  0  0  0  0  0  0  0  0  0
    3.8281   17.2816   37.9226 C   0  0  0  0  0  0  0  0  0  0  0  0
    1.9421   21.4281   34.2873 H   0  0  0  0  0  0  0  0  0  0  0  0
    2.6868   22.1357   35.7453 H   0  0  0  0  0  0  0  0  0  0  0  0
    1.2983   18.8327   42.4826 H   0  0  0  0  0  0  0  0  0  0  0  0
    0.0730   18.2404   41.4725 H   0  0  0  0  0  0  0  0  0  0  0  0
    1.9804   13.8419   39.1787 H   0  0  0  0  0  0  0  0  0  0  0  0
    1.9893   15.2564   40.1876 H   0  0  0  0  0  0  0  0  0  0  0  0
    2.7086   17.0193   40.5622 H   0  0  0  0  0  0  0  0  0  0  0  0
    4.9581   13.6353   38.9528 H   0  0  0  0  0  0  0  0  0  0  0  0
    3.8027   13.5825   37.5785 H   0  0  0  0  0  0  0  0  0  0  0  0
    5.0575   14.8659   37.6481 H   0  0  0  0  0  0  0  0  0  0  0  0
    0.5050   22.0501   40.8202 H   0  0  0  0  0  0  0  0  0  0  0  0
    1.6603   21.7795   41.9756 H   0  0  0  0  0  0  0  0  0  0  0  0
    4.6981   21.6261   34.9844 H   0  0  0  0  0  0  0  0  0  0  0  0
    3.9776   20.6791   33.8254 H   0  0  0  0  0  0  0  0  0  0  0  0
    2.4404   16.3346   38.1833 H   0  0  0  0  0  0  0  0  0  0  0  0
    3.0357   19.6179   37.9422 H   0  0  0  0  0  0  0  0  0  0  0  0
    2.6605   20.6939   37.1468 H   0  0  0  0  0  0  0  0  0  0  0  0
    2.1857   25.9072   32.9361 H   0  0  0  0  0  0  0  0  0  0  0  0
    2.9030   26.5622   31.4251 H   0  0  0  0  0  0  0  0  0  0  0  0
    1.5659   25.3658   31.3394 H   0  0  0  0  0  0  0  0  0  0  0  0
    0.9845   19.7455   39.5387 H   0  0  0  0  0  0  0  0  0  0  0  0
    4.5410   15.3319   39.0427 H   0  0  0  0  0  0  0  0  0  0  0  0
    4.8034   20.3677   37.7029 H   0  0  0  0  0  0  0  0  0  0  0  0
    4.7917   19.0711   36.4456 H   0  0  0  0  0  0  0  0  0  0  0  0
    2.6370   14.1238   41.8751 H   0  0  0  0  0  0  0  0  0  0  0  0
    2.6916   12.6474   40.8534 H   0  0  0  0  0  0  0  0  0  0  0  0
    4.1289   13.7194   40.9601 H   0  0  0  0  0  0  0  0  0  0  0  0
    1.4953   23.5691   33.7179 H   0  0  0  0  0  0  0  0  0  0  0  0
    2.6560   24.2544   34.8260 H   0  0  0  0  0  0  0  0  0  0  0  0
    2.9490   22.7735   32.3551 H   0  0  0  0  0  0  0  0  0  0  0  0
   -1.2079   20.3709   41.6948 H   0  0  0  0  0  0  0  0  0  0  0  0
   -0.4997   20.4735   43.1841 H   0  0  0  0  0  0  0  0  0  0  0  0
    3.1819   19.5274   41.4128 H   0  0  0  0  0  0  0  0  0  0  0  0
    3.2052   20.7210   40.1120 H   0  0  0  0  0  0  0  0  0  0  0  0
    4.6618   22.0183   32.2576 H   0  0  0  0  0  0  0  0  0  0  0  0
    5.3982   23.0514   33.5161 H   0  0  0  0  0  0  0  0  0  0  0  0
    3.4186   16.9978   36.9419 H   0  0  0  0  0  0  0  0  0  0  0  0
    4.9201   17.1518   37.9479 H   0  0  0  0  0  0  0  0  0  0  0  0
  2 21  1  0
  3 17  1  0
  6 21  1  0
  7  4  1  0
  7 22  1  0
  8 19  2  0
  9  1  1  0
 10 15  1  0
 10  4  1  0
 11 16  1  0
 11  7  1  0
 12 16  1  0
 14  6  1  0
 14  2  1  0
 15  5  1  0
 15  3  1  0
 18  1  1  0
 19 13  1  0
 20 19  1  0
 20 23  1  0
 20 18  1  0
 22 14  1  0
 23  9  1  0
 24 11  1  0
 24 10  1  0
  1 25  1  0
  1 26  1  0
  2 27  1  0
  2 28  1  0
  3 29  1  0
  3 30  1  0
  4 31  1  0
  5 32  1  0
  5 33  1  0
  5 34  1  0
  6 35  1  0
  6 36  1  0
  9 37  1  0
  9 38  1  0
 10 39  1  6
 11 40  1  6
 12 41  1  0
 13 42  1  0
 13 43  1  0
 13 44  1  0
 14 45  1  0
 15 46  1  1
 16 47  1  0
 16 48  1  0
 17 49  1  0
 17 50  1  0
 17 51  1  0
 18 52  1  0
 18 53  1  0
 20 54  1  6
 21 55  1  0
 21 56  1  0
 22 57  1  0
 22 58  1  0
 23 59  1  0
 23 60  1  0
 24 61  1  0
 24 62  1  0
M  CHG  2   3   1   9   1
M  END
>  <mol_id>  (15) 
2026-08-24-6tgu-s0-n20-pocketids2-0015

>  <rmsd_to_ref>  (15) 


$$$$

     RDKit          3D

 58 59  0  0  0  0  0  0  0  0999 V2000
    3.5059   14.0981   38.0616 O   0  0  0  0  0  0  0  0  0  0  0  0
    3.7130   18.6816   37.1042 O   0  0  0  0  0  0  0  0  0  0  0  0
    3.1086   15.3746   38.3888 C   0  0  0  0  0  0  0  0  0  0  0  0
    1.7508   20.6849   38.1665 F   0  0  0  0  0  0  0  0  0  0  0  0
    3.7455   23.7486   32.1762 C   0  0  0  0  0  0  0  0  0  0  0  0
    2.3271   25.0165   30.6919 C   0  0  1  0  0  0  0  0  0  0  0  0
    3.4008   16.4683   37.6036 C   0  0  2  0  0  0  0  0  0  0  0  0
    2.9628   24.9143   31.9115 O   0  0  0  0  0  0  0  0  0  0  0  0
    3.2183   21.7107   33.6451 C   0  0  0  0  0  0  0  0  0  0  0  0
    4.1594   16.1105   36.4202 C   0  0  0  0  0  0  0  0  0  0  0  0
    1.3382   24.3235   28.1928 C   0  0  0  0  0  0  0  0  0  0  0  0
    4.2556   21.0211   34.5100 C   0  0  0  0  0  0  0  0  0  0  0  0
    1.8766   16.4999   40.3172 C   0  0  0  0  0  0  0  0  0  0  0  0
    2.1477   19.9072   39.2669 C   0  0  0  0  0  0  0  0  0  0  0  0
    3.1947   20.5940   39.8117 F   0  0  0  0  0  0  0  0  0  0  0  0
    4.2100   20.8158   33.0274 C   0  0  0  0  0  0  0  0  0  0  0  0
    3.1402   23.1324   33.4241 C   0  0  0  0  0  0  0  0  0  0  0  0
    3.2137   24.4022   29.6192 C   0  0  0  0  0  0  0  0  0  0  0  0
    3.2088   17.8865   37.9561 C   0  0  0  0  0  0  0  0  0  0  0  0
    0.5757   26.7517   31.3051 C   0  0  0  0  0  0  0  0  0  0  0  0
    2.1582   17.8549   40.2244 N   0  0  0  0  0  0  0  0  0  0  0  0
    1.0696   19.9618   40.2588 F   0  0  0  0  0  0  0  0  0  0  0  0
    2.4061   15.4833   39.6547 C   0  0  0  0  0  0  0  0  0  0  0  0
    1.1433   25.6807   30.3710 C   0  0  0  0  0  0  0  0  0  0  0  0
    2.4580   23.5194   28.6780 C   0  0  0  0  0  0  0  0  0  0  0  0
    0.4929   25.2207   29.0403 C   0  0  0  0  0  0  0  0  0  0  0  0
    2.4549   18.4581   39.1569 C   0  0  1  0  0  0  0  0  0  0  0  0
    3.9917   13.9325   37.2150 H   0  0  0  0  0  0  0  0  0  0  0  0
    4.7962   24.0222   32.3528 H   0  0  0  0  0  0  0  0  0  0  0  0
    3.7365   23.0481   31.3281 H   0  0  0  0  0  0  0  0  0  0  0  0
    2.8032   25.9941   30.5256 H   0  0  0  0  0  0  0  0  0  0  0  0
    2.3923   16.9058   37.6417 H   0  0  0  0  0  0  0  0  0  0  0  0
    2.1201   21.7747   33.6474 H   0  0  0  0  0  0  0  0  0  0  0  0
    5.1000   15.6257   36.7203 H   0  0  0  0  0  0  0  0  0  0  0  0
    3.5700   15.4167   35.8028 H   0  0  0  0  0  0  0  0  0  0  0  0
    4.3833   17.0178   35.8400 H   0  0  0  0  0  0  0  0  0  0  0  0
    1.7603   24.9716   27.4108 H   0  0  0  0  0  0  0  0  0  0  0  0
    0.6122   23.5305   27.9602 H   0  0  0  0  0  0  0  0  0  0  0  0
    5.0724   21.6010   34.9644 H   0  0  0  0  0  0  0  0  0  0  0  0
    4.2339   20.3690   35.3956 H   0  0  0  0  0  0  0  0  0  0  0  0
    2.0564   16.2574   41.3750 H   0  0  0  0  0  0  0  0  0  0  0  0
    0.8985   16.5144   39.8142 H   0  0  0  0  0  0  0  0  0  0  0  0
    3.8908   19.8452   32.6201 H   0  0  0  0  0  0  0  0  0  0  0  0
    4.9415   20.9234   32.2129 H   0  0  0  0  0  0  0  0  0  0  0  0
    3.6304   23.6131   34.2835 H   0  0  0  0  0  0  0  0  0  0  0  0
    2.0621   23.3048   33.2892 H   0  0  0  0  0  0  0  0  0  0  0  0
    3.6803   25.2139   29.0416 H   0  0  0  0  0  0  0  0  0  0  0  0
    3.9644   23.7789   30.1271 H   0  0  0  0  0  0  0  0  0  0  0  0
    0.6890   26.4250   32.3493 H   0  0  0  0  0  0  0  0  0  0  0  0
    1.1206   27.6953   31.1549 H   0  0  0  0  0  0  0  0  0  0  0  0
   -0.4906   26.9046   31.0824 H   0  0  0  0  0  0  0  0  0  0  0  0
    1.3233   18.3351   40.5890 H   0  0  0  0  0  0  0  0  0  0  0  0
    3.0616   17.8925   40.7178 H   0  0  0  0  0  0  0  0  0  0  0  0
    2.2894   14.5194   40.1715 H   0  0  0  0  0  0  0  0  0  0  0  0
    2.0893   22.6259   29.2031 H   0  0  0  0  0  0  0  0  0  0  0  0
    3.0939   23.1692   27.8516 H   0  0  0  0  0  0  0  0  0  0  0  0
   -0.5186   25.5323   28.7409 H   0  0  0  0  0  0  0  0  0  0  0  0
    2.1585   17.7426   38.3757 H   0  0  0  0  0  0  0  0  0  0  0  0
  1  3  1  0
  2 19  2  0
  3 23  2  0
  4 14  1  0
  5 17  1  0
  6  8  1  0
  7 10  1  0
  7 19  1  0
  7  3  1  0
  8  5  1  0
  9 12  1  0
 11 25  1  0
 11 26  1  0
 14 15  1  0
 14 22  1  0
 16  9  1  0
 16 12  1  0
 17  9  1  0
 18  6  1  0
 19 27  1  0
 21 13  1  0
 23 13  1  0
 24  6  1  0
 24 20  1  0
 25 18  1  0
 26 24  2  0
 27 14  1  0
 27 21  1  0
  1 28  1  0
  5 29  1  0
  5 30  1  0
  6 31  1  1
  7 32  1  6
  9 33  1  0
 10 34  1  0
 10 35  1  0
 10 36  1  0
 11 37  1  0
 11 38  1  0
 12 39  1  0
 12 40  1  0
 13 41  1  0
 13 42  1  0
 16 43  1  0
 16 44  1  0
 17 45  1  0
 17 46  1  0
 18 47  1  0
 18 48  1  0
 20 49  1  0
 20 50  1  0
 20 51  1  0
 21 52  1  0
 21 53  1  0
 23 54  1  0
 25 55  1  0
 25 56  1  0
 26 57  1  0
 27 58  1  6
M  CHG  1  21   1
M  END
>  <mol_id>  (16) 
2026-08-24-6tgu-s0-n20-pocketids2-0016

>  <rmsd_to_ref>  (16) 


$$$$

     RDKit          3D

 55 56  0  0  0  0  0  0  0  0999 V2000
   -1.5381   19.5253   42.1319 C   0  0  0  0  0  0  0  0  0  0  0  0
    1.2681   25.2525   34.7694 C   0  0  0  0  0  0  0  0  0  0  0  0
    0.8721   27.4459   33.0177 C   0  0  0  0  0  0  0  0  0  0  0  0
    4.6669   13.7697   35.8992 P   0  0  0  0  0  5  0  0  0  0  0  0
    3.3147   17.2501   39.4447 C   0  0  0  0  0  0  0  0  0  0  0  0
    1.9029   19.4685   40.5847 C   0  0  0  0  0  0  0  0  0  0  0  0
    3.3494   13.7396   35.0454 O   0  0  0  0  0  0  0  0  0  0  0  0
    0.5745   18.9720   41.0404 C   0  0  0  0  0  0  0  0  0  0  0  0
    2.3930   23.0338   35.5943 N   0  0  0  0  0  0  0  0  0  0  0  0
    3.9776   21.0960   35.8065 O   0  0  0  0  0  0  0  0  0  0  0  0
    1.3229   26.2379   32.4624 C   0  0  0  0  0  0  0  0  0  0  0  0
   -0.2313   19.8776   41.6564 C   0  0  0  0  0  0  0  0  0  0  0  0
    0.1429   17.6490   40.9432 C   0  0  0  0  0  0  0  0  0  0  0  0
    3.0867   20.8097   36.4718 C   0  0  0  0  0  0  0  0  0  0  0  0
    2.2688   21.9267   36.2237 N   0  0  0  0  0  0  0  0  0  0  0  0
    2.4692   19.2119   38.5324 C   0  0  0  0  0  0  0  0  0  0  0  0
    4.9347   12.3724   36.3348 O   0  0  0  0  0  0  0  0  0  0  0  0
    5.9795   14.2854   35.0300 O   0  0  0  0  0  0  0  0  0  0  0  0
    4.4312   14.5790   37.3277 N   0  0  0  0  0  0  0  0  0  0  0  0
    2.5857   18.5027   39.7211 C   0  0  0  0  0  0  0  0  0  0  0  0
    3.6565   16.9857   38.0711 C   0  0  0  0  0  0  0  0  0  0  0  0
   -2.0139   18.2093   41.8781 C   0  0  0  0  0  0  0  0  0  0  0  0
    1.5651   25.1035   33.3593 C   0  0  0  0  0  0  0  0  0  0  0  0
   -1.1326   17.2711   41.3525 C   0  0  0  0  0  0  0  0  0  0  0  0
    4.6591   15.8502   37.7679 C   0  0  0  0  0  0  0  0  0  0  0  0
    2.9653   19.5050   37.2039 C   0  0  0  0  0  0  0  0  0  0  0  0
    0.6128   27.5198   34.3964 C   0  0  0  0  0  0  0  0  0  0  0  0
    1.6374   24.1584   35.7222 C   0  0  0  0  0  0  0  0  0  0  0  0
    0.7718   26.4990   35.2495 C   0  0  0  0  0  0  0  0  0  0  0  0
   -2.1556   20.2534   42.6782 H   0  0  0  0  0  0  0  0  0  0  0  0
    0.7230   28.3282   32.3779 H   0  0  0  0  0  0  0  0  0  0  0  0
    3.5844   16.5510   40.2500 H   0  0  0  0  0  0  0  0  0  0  0  0
    1.7587   20.4046   40.0252 H   0  0  0  0  0  0  0  0  0  0  0  0
    2.5285   19.6279   41.4753 H   0  0  0  0  0  0  0  0  0  0  0  0
    2.5707   13.6171   35.6443 H   0  0  0  0  0  0  0  0  0  0  0  0
    1.4905   26.1445   31.3793 H   0  0  0  0  0  0  0  0  0  0  0  0
    0.1284   20.9080   41.7938 H   0  0  0  0  0  0  0  0  0  0  0  0
    0.8247   16.8887   40.5346 H   0  0  0  0  0  0  0  0  0  0  0  0
    1.4390   18.9306   38.2691 H   0  0  0  0  0  0  0  0  0  0  0  0
    3.1554   19.9702   38.9375 H   0  0  0  0  0  0  0  0  0  0  0  0
    4.7268   12.2817   37.2984 H   0  0  0  0  0  0  0  0  0  0  0  0
    3.4216   14.4594   37.4924 H   0  0  0  0  0  0  0  0  0  0  0  0
    2.7216   16.7431   37.5445 H   0  0  0  0  0  0  0  0  0  0  0  0
    4.1745   17.8983   37.7414 H   0  0  0  0  0  0  0  0  0  0  0  0
   -3.0582   17.9391   42.0934 H   0  0  0  0  0  0  0  0  0  0  0  0
    1.9651   24.1562   32.9684 H   0  0  0  0  0  0  0  0  0  0  0  0
   -1.4461   16.2208   41.2594 H   0  0  0  0  0  0  0  0  0  0  0  0
    5.2063   15.7144   38.7124 H   0  0  0  0  0  0  0  0  0  0  0  0
    5.0664   16.2594   36.8316 H   0  0  0  0  0  0  0  0  0  0  0  0
    2.3373   18.8882   36.5442 H   0  0  0  0  0  0  0  0  0  0  0  0
    4.0348   19.3688   37.4223 H   0  0  0  0  0  0  0  0  0  0  0  0
    0.2561   28.4780   34.8019 H   0  0  0  0  0  0  0  0  0  0  0  0
    2.1214   24.6962   36.5508 H   0  0  0  0  0  0  0  0  0  0  0  0
    0.6640   23.6468   35.6926 H   0  0  0  0  0  0  0  0  0  0  0  0
    0.5209   26.6224   36.3133 H   0  0  0  0  0  0  0  0  0  0  0  0
  2 29  1  0
  2 28  1  0
  3 27  1  0
  4 17  1  0
  4 19  1  0
  5 20  2  3
  6  8  1  0
  7  4  1  0
  8 13  1  0
  8 12  2  0
  9 28  1  0
  9 15  2  3
 10 14  2  0
 11  3  2  0
 11 23  1  0
 12  1  1  0
 13 24  2  0
 14 26  1  0
 15 14  1  0
 16 20  1  0
 18  4  2  0
 19 25  1  0
 20  6  1  0
 21  5  1  0
 22  1  2  0
 23  2  2  0
 24 22  1  0
 25 21  1  0
 26 16  1  0
 27 29  2  0
  1 30  1  0
  3 31  1  0
  5 32  1  0
  6 33  1  0
  6 34  1  0
  7 35  1  0
 11 36  1  0
 12 37  1  0
 13 38  1  0
 16 39  1  0
 16 40  1  0
 17 41  1  0
 19 42  1  0
 21 43  1  0
 21 44  1  0
 22 45  1  0
 23 46  1  0
 24 47  1  0
 25 48  1  0
 25 49  1  0
 26 50  1  0
 26 51  1  0
 27 52  1  0
 28 53  1  0
 28 54  1  0
 29 55  1  0
M  END
>  <mol_id>  (17) 
2026-08-24-6tgu-s0-n20-pocketids2-0017

>  <rmsd_to_ref>  (17) 


$$$$

     RDKit          3D

 31 32  0  0  0  0  0  0  0  0999 V2000
    3.1924   18.8826   38.8786 C   0  0  0  0  0  0  0  0  0  0  0  0
    4.4056   24.7596   32.0356 O   0  0  0  0  0  0  0  0  0  0  0  0
    2.1227   21.1979   36.6933 S   0  0  0  0  0  0  0  0  0  0  0  0
    2.2486   21.7613   35.1164 C   0  0  1  0  0  0  0  0  0  0  0  0
    1.9027   17.2792   37.4865 C   0  0  0  0  0  0  0  0  0  0  0  0
    1.2355   19.7422   37.1929 S   0  0  0  0  0  0  0  0  0  0  0  0
    2.6591   23.2579   35.0859 C   0  0  0  0  0  0  0  0  0  0  0  0
    3.9086   17.8582   39.4216 C   0  0  0  0  0  0  0  0  0  0  0  0
    2.1810   18.6029   37.9414 C   0  0  0  0  0  0  0  0  0  0  0  0
    3.6257   16.4916   39.0741 C   0  0  0  0  0  0  0  0  0  0  0  0
    3.6281   23.3366   33.8332 C   0  0  2  0  0  0  0  0  0  0  0  0
    2.6707   16.1941   38.1060 C   0  0  0  0  0  0  0  0  0  0  0  0
    3.2463   24.2933   32.7505 C   0  0  0  0  0  0  0  0  0  0  0  0
    4.8458   18.1864   40.3635 N   0  0  0  0  0  0  0  0  0  0  0  0
    2.5636   21.0986   33.6975 C   0  0  0  0  0  0  0  0  0  0  0  0
    2.7624   22.6208   32.9022 O   0  0  0  0  0  0  0  0  0  0  0  0
    3.4037   19.9217   39.1713 H   0  0  0  0  0  0  0  0  0  0  0  0
    5.1969   24.7214   32.6293 H   0  0  0  0  0  0  0  0  0  0  0  0
    1.2883   21.2303   35.0393 H   0  0  0  0  0  0  0  0  0  0  0  0
    1.1494   17.0824   36.7094 H   0  0  0  0  0  0  0  0  0  0  0  0
    1.7811   23.9059   34.9477 H   0  0  0  0  0  0  0  0  0  0  0  0
    3.1301   23.5973   36.0202 H   0  0  0  0  0  0  0  0  0  0  0  0
    4.1674   15.6765   39.5763 H   0  0  0  0  0  0  0  0  0  0  0  0
    4.6500   23.2666   34.2341 H   0  0  0  0  0  0  0  0  0  0  0  0
    2.4929   15.1506   37.8071 H   0  0  0  0  0  0  0  0  0  0  0  0
    2.7303   25.1552   33.1986 H   0  0  0  0  0  0  0  0  0  0  0  0
    2.5862   23.7720   32.0416 H   0  0  0  0  0  0  0  0  0  0  0  0
    5.4135   17.4485   40.8041 H   0  0  0  0  0  0  0  0  0  0  0  0
    4.9835   19.1713   40.6318 H   0  0  0  0  0  0  0  0  0  0  0  0
    3.4775   20.4864   33.6977 H   0  0  0  0  0  0  0  0  0  0  0  0
    1.8386   20.3830   33.2825 H   0  0  0  0  0  0  0  0  0  0  0  0
  1  8  1  0
  2 13  1  0
  3  6  1  0
  4  3  1  0
  5  9  1  0
  5 12  2  0
  6  9  1  0
  7  4  1  0
  8 14  1  0
  9  1  2  0
 10  8  2  0
 11 13  1  0
 11  7  1  0
 12 10  1  0
 15  4  1  0
 16 11  1  0
 16 15  1  0
  1 17  1  0
  2 18  1  0
  4 19  1  6
  5 20  1  0
  7 21  1  0
  7 22  1  0
 10 23  1  0
 11 24  1  1
 12 25  1  0
 13 26  1  0
 13 27  1  0
 14 28  1  0
 14 29  1  0
 15 30  1  0
 15 31  1  0
M  END
>  <mol_id>  (18) 
2026-08-24-6tgu-s0-n20-pocketids2-0018

>  <rmsd_to_ref>  (18) 


$$$$

     RDKit          3D

 56 57  0  0  0  0  0  0  0  0999 V2000
    2.1974   21.9674   35.4107 C   0  0  0  0  0  0  0  0  0  0  0  0
    1.4974   16.5518   38.4785 C   0  0  0  0  0  0  0  0  0  0  0  0
    1.9194   15.1060   37.9223 C   0  0  0  0  0  0  0  0  0  0  0  0
    2.9171   21.9955   34.5310 C   0  0  0  0  0  0  0  0  0  0  0  0
    2.9821   25.2552   31.1147 C   0  0  0  0  0  0  0  0  0  0  0  0
    3.6032   23.9996   31.2532 C   0  0  0  0  0  0  0  0  0  0  0  0
    2.8767   20.8604   36.9709 C   0  0  0  0  0  0  0  0  0  0  0  0
    3.4398   15.1001   37.9789 N   0  0  0  0  0  0  0  0  0  0  0  0
    1.8666   18.7571   40.2921 C   0  0  0  0  0  0  0  0  0  0  0  0
    2.6727   24.8975   33.4339 C   0  0  0  0  0  0  0  0  0  0  0  0
    1.7430   19.9817   41.0356 C   0  0  0  0  0  0  0  0  0  0  0  0
    1.7723   22.3054   41.5029 O   0  0  0  0  0  0  0  0  0  0  0  0
    1.9725   21.5705   38.2579 C   0  0  1  0  0  0  0  0  0  0  0  0
    2.7993   23.5166   33.5579 C   0  0  0  0  0  0  0  0  0  0  0  0
    1.7367   21.3660   40.6576 C   0  0  0  0  0  0  0  0  0  0  0  0
    2.2155   18.8215   38.8973 C   0  0  0  0  0  0  0  0  0  0  0  0
    2.3569   20.1771   38.1648 C   0  0  1  0  0  0  0  0  0  0  0  0
    3.4840   23.0119   32.5954 C   0  0  0  0  0  0  0  0  0  0  0  0
    2.8450   25.9272   29.9710 C   0  0  0  0  0  0  0  0  0  0  0  0
    1.6917   21.9163   39.3902 C   0  0  0  0  0  0  0  0  0  0  0  0
    2.6335   25.8185   32.4940 C   0  0  0  0  0  0  0  0  0  0  0  0
    2.4111   17.7114   38.0391 C   0  0  0  0  0  0  0  0  0  0  0  0
    2.7425   22.1983   36.3378 H   0  0  0  0  0  0  0  0  0  0  0  0
    1.4022   22.7118   35.2579 H   0  0  0  0  0  0  0  0  0  0  0  0
    1.7514   20.9649   35.4877 H   0  0  0  0  0  0  0  0  0  0  0  0
    0.4780   16.7685   38.1264 H   0  0  0  0  0  0  0  0  0  0  0  0
    1.5787   16.4950   39.5740 H   0  0  0  0  0  0  0  0  0  0  0  0
    1.5689   14.9705   36.8885 H   0  0  0  0  0  0  0  0  0  0  0  0
    1.4775   14.2881   38.5105 H   0  0  0  0  0  0  0  0  0  0  0  0
    3.9434   21.9064   34.9166 H   0  0  0  0  0  0  0  0  0  0  0  0
    2.6504   21.1614   33.8652 H   0  0  0  0  0  0  0  0  0  0  0  0
    3.2334   23.3957   30.4115 H   0  0  0  0  0  0  0  0  0  0  0  0
    4.6565   24.3077   31.3279 H   0  0  0  0  0  0  0  0  0  0  0  0
    2.4245   20.6978   35.9814 H   0  0  0  0  0  0  0  0  0  0  0  0
    3.8470   21.0118   36.4752 H   0  0  0  0  0  0  0  0  0  0  0  0
    3.7478   15.2448   38.9511 H   0  0  0  0  0  0  0  0  0  0  0  0
    3.7926   14.1944   37.6382 H   0  0  0  0  0  0  0  0  0  0  0  0
    3.8084   15.8572   37.3857 H   0  0  0  0  0  0  0  0  0  0  0  0
    1.6973   17.7866   40.7816 H   0  0  0  0  0  0  0  0  0  0  0  0
    1.7239   25.0796   33.9598 H   0  0  0  0  0  0  0  0  0  0  0  0
    3.7418   25.0667   33.6295 H   0  0  0  0  0  0  0  0  0  0  0  0
    0.7854   19.8604   41.5631 H   0  0  0  0  0  0  0  0  0  0  0  0
    2.7708   19.9781   41.4277 H   0  0  0  0  0  0  0  0  0  0  0  0
    1.4731   22.5446   38.1502 H   0  0  0  0  0  0  0  0  0  0  0  0
    1.9237   23.9338   34.0769 H   0  0  0  0  0  0  0  0  0  0  0  0
    3.2923   20.3994   38.6993 H   0  0  0  0  0  0  0  0  0  0  0  0
    3.0072   22.0690   32.2894 H   0  0  0  0  0  0  0  0  0  0  0  0
    4.5063   22.8669   32.9748 H   0  0  0  0  0  0  0  0  0  0  0  0
    2.3425   26.9056   29.9648 H   0  0  0  0  0  0  0  0  0  0  0  0
    3.2344   25.5029   29.0338 H   0  0  0  0  0  0  0  0  0  0  0  0
    2.2954   22.8279   39.5112 H   0  0  0  0  0  0  0  0  0  0  0  0
    0.6164   21.7225   39.2629 H   0  0  0  0  0  0  0  0  0  0  0  0
    3.3538   26.6111   32.7449 H   0  0  0  0  0  0  0  0  0  0  0  0
    1.6063   26.2095   32.4483 H   0  0  0  0  0  0  0  0  0  0  0  0
    3.4617   17.3894   38.0905 H   0  0  0  0  0  0  0  0  0  0  0  0
    2.1647   17.9997   37.0065 H   0  0  0  0  0  0  0  0  0  0  0  0
  3  8  1  0
  3  2  1  0
  4  1  1  0
  5  6  1  0
  5 21  1  0
  6 18  1  0
  9 11  1  0
 13  7  1  0
 13 20  1  0
 14 10  1  0
 14  4  1  0
 15 11  1  0
 15 12  2  0
 16  9  2  0
 17  7  1  0
 17 13  1  0
 17 16  1  0
 18 14  1  0
 19  5  2  3
 20 15  1  0
 21 10  1  0
 22  2  1  0
 22 16  1  0
  1 23  1  0
  1 24  1  0
  1 25  1  0
  2 26  1  0
  2 27  1  0
  3 28  1  0
  3 29  1  0
  4 30  1  0
  4 31  1  0
  6 32  1  0
  6 33  1  0
  7 34  1  0
  7 35  1  0
  8 36  1  0
  8 37  1  0
  8 38  1  0
  9 39  1  0
 10 40  1  0
 10 41  1  0
 11 42  1  0
 11 43  1  0
 13 44  1  6
 14 45  1  0
 17 46  1  1
 18 47  1  0
 18 48  1  0
 19 49  1  0
 19 50  1  0
 20 51  1  0
 20 52  1  0
 21 53  1  0
 21 54  1  0
 22 55  1  0
 22 56  1  0
M  CHG  1   8   1
M  END
>  <mol_id>  (19) 
2026-08-24-6tgu-s0-n20-pocketids2-0019

>  <rmsd_to_ref>  (19) 


$$$$

     RDKit          3D

 54 52  0  0  0  0  0  0  0  0999 V2000
    4.8079   22.7579   33.7845 C   0  0  0  0  0  0  0  0  0  0  0  0
    3.1811   20.4325   38.8821 C   0  0  0  0  0  0  0  0  0  0  0  0
    1.7593   24.9467   35.0286 C   0  0  0  0  0  0  0  0  0  0  0  0
    4.6007   22.9604   32.7183 C   0  0  0  0  0  0  0  0  0  0  0  0
    1.8326   21.0675   41.5855 S   0  0  0  0  0  0  0  0  0  0  0  0
    3.9030   14.9616   38.4347 N   0  0  0  0  0  0  0  0  0  0  0  0
    0.4416   20.7434   42.6706 C   0  0  0  0  0  0  0  0  0  0  0  0
    2.6283   22.5461   34.7875 C   0  0  0  0  0  0  0  0  0  0  0  0
    3.6399   20.3433   37.6193 C   0  0  0  0  0  0  0  0  0  0  0  0
    2.3105   18.4617   42.2088 C   0  0  0  0  0  0  0  0  0  0  0  0
    3.8837   18.0228   39.6953 C   0  0  0  0  0  0  0  0  0  0  0  0
    3.1683   19.4009   39.8872 C   0  0  0  0  0  0  0  0  0  0  0  0
    2.4423   19.6032   41.1981 C   0  0  1  0  0  0  0  0  0  0  0  0
    3.3918   23.1846   33.5653 C   0  0  0  0  0  0  0  0  0  0  0  0
    3.1636   21.2946   36.6466 C   0  0  0  0  0  0  0  0  0  0  0  0
    2.0587   23.5691   35.7421 C   0  0  0  0  0  0  0  0  0  0  0  0
    4.6132   17.6006   38.5729 C   0  0  0  0  0  0  0  0  0  0  0  0
    2.3818   24.0945   32.5402 C   0  0  0  0  0  0  0  0  0  0  0  0
    1.3621   24.8635   33.5381 C   0  0  0  0  0  0  0  0  0  0  0  0
    4.2224   16.0449   38.3929 C   0  0  0  0  0  0  0  0  0  0  0  0
    3.5321   21.3802   35.3127 O   0  0  0  0  0  0  0  0  0  0  0  0
    4.2057   23.4335   34.4098 H   0  0  0  0  0  0  0  0  0  0  0  0
    4.5483   21.7146   34.0167 H   0  0  0  0  0  0  0  0  0  0  0  0
    5.8759   22.9242   33.9884 H   0  0  0  0  0  0  0  0  0  0  0  0
    2.7677   21.4071   39.1810 H   0  0  0  0  0  0  0  0  0  0  0  0
    0.9353   25.4343   35.5701 H   0  0  0  0  0  0  0  0  0  0  0  0
    2.7061   25.5060   35.0530 H   0  0  0  0  0  0  0  0  0  0  0  0
    4.5991   22.1156   32.0138 H   0  0  0  0  0  0  0  0  0  0  0  0
    5.1082   23.6126   31.9923 H   0  0  0  0  0  0  0  0  0  0  0  0
    0.7520   20.8833   43.7165 H   0  0  0  0  0  0  0  0  0  0  0  0
   -0.3772   21.4391   42.4349 H   0  0  0  0  0  0  0  0  0  0  0  0
    0.0968   19.7089   42.5257 H   0  0  0  0  0  0  0  0  0  0  0  0
    3.2282   23.1021   34.0521 H   0  0  0  0  0  0  0  0  0  0  0  0
    1.7318   22.0193   34.4285 H   0  0  0  0  0  0  0  0  0  0  0  0
    4.3614   19.5626   37.3365 H   0  0  0  0  0  0  0  0  0  0  0  0
    2.3226   18.8723   43.2293 H   0  0  0  0  0  0  0  0  0  0  0  0
    1.3632   17.9291   42.0391 H   0  0  0  0  0  0  0  0  0  0  0  0
    3.1511   17.7632   42.0847 H   0  0  0  0  0  0  0  0  0  0  0  0
    4.5892   17.9497   40.5361 H   0  0  0  0  0  0  0  0  0  0  0  0
    2.9997   17.3775   39.5855 H   0  0  0  0  0  0  0  0  0  0  0  0
    3.3927   19.8706   41.6832 H   0  0  0  0  0  0  0  0  0  0  0  0
    3.6825   23.1856   34.6262 H   0  0  0  0  0  0  0  0  0  0  0  0
    2.9387   24.1535   33.3085 H   0  0  0  0  0  0  0  0  0  0  0  0
    2.6637   22.3800   33.3854 H   0  0  0  0  0  0  0  0  0  0  0  0
    2.4285   22.0323   37.0009 H   0  0  0  0  0  0  0  0  0  0  0  0
    2.7826   23.7395   36.5526 H   0  0  0  0  0  0  0  0  0  0  0  0
    1.1080   23.1761   36.1317 H   0  0  0  0  0  0  0  0  0  0  0  0
    4.3246   18.1788   37.6827 H   0  0  0  0  0  0  0  0  0  0  0  0
    5.6960   17.7460   38.7010 H   0  0  0  0  0  0  0  0  0  0  0  0
    3.1421   23.5628   33.1313 H   0  0  0  0  0  0  0  0  0  0  0  0
    1.8214   23.3719   31.9288 H   0  0  0  0  0  0  0  0  0  0  0  0
    2.8740   24.8267   31.8833 H   0  0  0  0  0  0  0  0  0  0  0  0
    1.2505   25.8932   33.1677 H   0  0  0  0  0  0  0  0  0  0  0  0
    0.4427   24.2598   33.5236 H   0  0  0  0  0  0  0  0  0  0  0  0
  2 12  2  3
  3 16  1  0
  4 14  1  0
  4  1  1  0
  5  7  1  0
  6 20  3  0
  8 21  1  0
  8 16  1  0
  9  2  1  0
 11 12  1  0
 12 13  1  0
 13  5  1  0
 13 10  1  0
 15  9  2  3
 17 11  1  0
 18 19  1  0
 19  3  1  0
 20 17  1  0
 21 15  1  0
  1 22  1  0
  1 23  1  0
  1 24  1  0
  2 25  1  0
  3 26  1  0
  3 27  1  0
  4 28  1  0
  4 29  1  0
  7 30  1  0
  7 31  1  0
  7 32  1  0
  8 33  1  0
  8 34  1  0
  9 35  1  0
 10 36  1  0
 10 37  1  0
 10 38  1  0
 11 39  1  0
 11 40  1  0
 13 41  1  6
 14 42  1  0
 14 43  1  0
 14 44  1  0
 15 45  1  0
 16 46  1  0
 16 47  1  0
 17 48  1  0
 17 49  1  0
 18 50  1  0
 18 51  1  0
 18 52  1  0
 19 53  1  0
 19 54  1  0
M  END
>  <mol_id>  (20) 
2026-08-24-6tgu-s0-n20-pocketids2-0020

>  <rmsd_to_ref>  (20) 


$$$$
