
     RDKit          3D

 27 29  0  0  0  0  0  0  0  0999 V2000
    2.9252   19.6193   38.2670 C   0  0  0  0  0  0  0  0  0  0  0  0
    0.9415   16.7168   41.3018 N   0  0  0  0  0  0  0  0  0  0  0  0
    2.0023   20.9540   40.3412 C   0  0  0  0  0  0  0  0  0  0  0  0
    1.8891   17.0915   39.4087 C   0  0  0  0  0  0  0  0  0  0  0  0
    1.3347   16.1543   40.1372 N   0  0  0  0  0  0  0  0  0  0  0  0
    3.0598   18.3737   37.5163 C   0  0  0  0  0  0  0  0  0  0  0  0
    0.7553   19.0266   42.5618 C   0  0  0  0  0  0  0  0  0  0  0  0
    0.2267   15.8698   42.4164 C   0  0  0  0  0  0  0  0  0  0  0  0
    0.0794   18.4943   43.4778 O   0  0  0  0  0  0  0  0  0  0  0  0
    1.0536   20.4891   42.6990 C   0  0  0  0  0  0  0  0  0  0  0  0
    2.3367   19.6205   39.5522 C   0  0  0  0  0  0  0  0  0  0  0  0
    1.8024   18.3887   40.1173 C   0  0  0  0  0  0  0  0  0  0  0  0
    2.5187   17.1514   38.0673 C   0  0  0  0  0  0  0  0  0  0  0  0
    1.1547   18.1014   41.3677 C   0  0  0  0  0  0  0  0  0  0  0  0
    2.2711   20.9410   41.8055 C   0  0  0  0  0  0  0  0  0  0  0  0
    3.2841   20.5625   37.8295 H   0  0  0  0  0  0  0  0  0  0  0  0
    0.9327   21.1680   40.1990 H   0  0  0  0  0  0  0  0  0  0  0  0
    2.6780   21.7166   39.9266 H   0  0  0  0  0  0  0  0  0  0  0  0
    3.5683   18.3657   36.5409 H   0  0  0  0  0  0  0  0  0  0  0  0
    0.7275   16.0367   43.3814 H   0  0  0  0  0  0  0  0  0  0  0  0
   -0.8267   16.1775   42.4918 H   0  0  0  0  0  0  0  0  0  0  0  0
    0.2791   14.8023   42.1559 H   0  0  0  0  0  0  0  0  0  0  0  0
    0.1634   21.0608   42.3981 H   0  0  0  0  0  0  0  0  0  0  0  0
    1.3196   20.6797   43.7492 H   0  0  0  0  0  0  0  0  0  0  0  0
    2.5762   16.2304   37.4685 H   0  0  0  0  0  0  0  0  0  0  0  0
    3.1074   20.2516   41.9934 H   0  0  0  0  0  0  0  0  0  0  0  0
    2.4924   21.9807   42.0882 H   0  0  0  0  0  0  0  0  0  0  0  0
  1 11  2  0
  2  8  1  0
  3 15  1  0
  4 12  1  0
  4  5  2  0
  5  2  1  0
  6  1  1  0
  6 13  2  0
  7  9  2  0
 10  7  1  0
 11  3  1  0
 11 12  1  0
 12 14  2  0
 13  4  1  0
 14  2  1  0
 14  7  1  0
 15 10  1  0
  1 16  1  0
  3 17  1  0
  3 18  1  0
  6 19  1  0
  8 20  1  0
  8 21  1  0
  8 22  1  0
 10 23  1  0
 10 24  1  0
 13 25  1  0
 15 26  1  0
 15 27  1  0
M  END
>  <mol_id>  (1) 
2026-08-24-6tgu-s0-n100-seed1-0001

>  <rmsd_to_ref>  (1) 


$$$$

     RDKit          3D

 26 27  0  0  0  0  0  0  0  0999 V2000
    2.9010   20.3300   37.6980 C   0  0  0  0  0  0  0  0  0  0  0  0
    1.0420   20.6130   40.8690 C   0  0  0  0  0  0  0  0  0  0  0  0
    1.3600   19.2010   40.7960 C   0  0  0  0  0  0  0  0  0  0  0  0
    2.2880   19.0810   39.7460 C   0  0  0  0  0  0  0  0  0  0  0  0
    0.6540   18.6000   41.9350 C   0  0  0  0  0  0  0  0  0  0  0  0
    3.4240   20.2270   36.6920 N   0  0  0  0  0  0  0  0  0  0  0  0
    2.2320   20.2470   38.9680 C   0  0  0  0  0  0  0  0  0  0  0  0
    2.9550   18.1210   39.1870 O   0  0  0  0  0  0  0  0  0  0  0  0
    1.8390   16.5580   42.2820 C   0  0  0  0  0  0  0  0  0  0  0  0
    1.1490   15.6140   40.1690 O   0  0  0  0  0  0  0  0  0  0  0  0
    0.2230   20.7680   42.0050 C   0  0  0  0  0  0  0  0  0  0  0  0
    0.5220   17.2650   42.2850 C   0  0  0  0  0  0  0  0  0  0  0  0
    1.5650   21.1540   39.6950 N   0  0  0  0  0  0  0  0  0  0  0  0
    0.0990   19.5880   42.6020 N   0  0  0  0  0  0  0  0  0  0  0  0
    2.2480   16.0000   40.9310 C   0  0  0  0  0  0  0  0  0  0  0  0
    3.5666   18.3166   38.4335 H   0  0  0  0  0  0  0  0  0  0  0  0
    2.6120   17.2691   42.6088 H   0  0  0  0  0  0  0  0  0  0  0  0
    1.7347   15.6971   42.9587 H   0  0  0  0  0  0  0  0  0  0  0  0
    0.4063   15.3532   40.7694 H   0  0  0  0  0  0  0  0  0  0  0  0
    0.6831   21.4875   42.6982 H   0  0  0  0  0  0  0  0  0  0  0  0
   -0.7667   21.1440   41.7064 H   0  0  0  0  0  0  0  0  0  0  0  0
    0.0865   17.2025   43.2932 H   0  0  0  0  0  0  0  0  0  0  0  0
   -0.1286   16.7794   41.5428 H   0  0  0  0  0  0  0  0  0  0  0  0
    1.4515   22.1395   39.4178 H   0  0  0  0  0  0  0  0  0  0  0  0
    2.8945   15.1243   41.0900 H   0  0  0  0  0  0  0  0  0  0  0  0
    2.7778   16.7933   40.3834 H   0  0  0  0  0  0  0  0  0  0  0  0
  1  7  1  0
  2 11  1  0
  3  2  2  0
  3  5  1  0
  4  3  1  0
  5 12  1  0
  5 14  2  0
  6  1  3  0
  7 13  1  0
  7  4  2  0
  8  4  1  0
  9 12  1  0
 10 15  1  0
 11 14  1  0
 13  2  1  0
 15  9  1  0
  8 16  1  0
  9 17  1  0
  9 18  1  0
 10 19  1  0
 11 20  1  0
 11 21  1  0
 12 22  1  0
 12 23  1  0
 13 24  1  0
 15 25  1  0
 15 26  1  0
M  END
>  <mol_id>  (2) 
2026-08-24-6tgu-s0-n100-seed1-0003

>  <rmsd_to_ref>  (2) 


$$$$

     RDKit          3D

 32 33  0  0  0  0  0  0  0  0999 V2000
    3.0791   17.6704   38.1403 C   0  0  0  0  0  0  0  0  0  0  0  0
    2.9419   20.5714   38.0472 C   0  0  0  0  0  0  0  0  0  0  0  0
    1.5089   17.3918   40.2724 C   0  0  0  0  0  0  0  0  0  0  0  0
    3.8887   20.3395   35.9244 O   0  0  0  0  0  0  0  0  0  0  0  0
    2.2928   18.4066   39.1563 C   0  0  0  0  0  0  0  0  0  0  0  0
    0.8441   18.0605   41.2100 C   0  0  0  0  0  0  0  0  0  0  0  0
    0.8229   15.2620   41.3220 C   0  0  0  0  0  0  0  0  0  0  0  0
    1.4744   15.9999   40.3216 C   0  0  0  0  0  0  0  0  0  0  0  0
    2.2475   19.7815   39.0197 C   0  0  0  0  0  0  0  0  0  0  0  0
    0.1935   15.9955   42.3891 C   0  0  0  0  0  0  0  0  0  0  0  0
    0.9622   21.1985   40.4081 C   0  0  0  0  0  0  0  0  0  0  0  0
    1.6840   20.2195   40.0049 O   0  0  0  0  0  0  0  0  0  0  0  0
    0.2877   20.6163   42.4198 O   0  0  0  0  0  0  0  0  0  0  0  0
    0.6897   21.3337   41.4476 C   0  0  0  0  0  0  0  0  0  0  0  0
    3.5258   18.3817   36.9866 N   0  0  0  0  0  0  0  0  0  0  0  0
    3.5007   19.7509   36.9747 C   0  0  0  0  0  0  0  0  0  0  0  0
    0.2096   17.3579   42.3276 C   0  0  0  0  0  0  0  0  0  0  0  0
    3.0046   16.3828   38.1291 O   0  0  0  0  0  0  0  0  0  0  0  0
   -0.4163   15.2130   43.5044 C   0  0  0  0  0  0  0  0  0  0  0  0
    2.2390   21.2961   37.6105 H   0  0  0  0  0  0  0  0  0  0  0  0
    3.7743   21.0812   38.5544 H   0  0  0  0  0  0  0  0  0  0  0  0
    0.7697   19.1561   41.1453 H   0  0  0  0  0  0  0  0  0  0  0  0
    0.7941   14.1627   41.2920 H   0  0  0  0  0  0  0  0  0  0  0  0
    1.9907   15.4437   39.5254 H   0  0  0  0  0  0  0  0  0  0  0  0
    0.0160   21.1292   39.8514 H   0  0  0  0  0  0  0  0  0  0  0  0
    1.6313   22.0549   40.2386 H   0  0  0  0  0  0  0  0  0  0  0  0
    0.7880   22.3873   41.7481 H   0  0  0  0  0  0  0  0  0  0  0  0
    3.8669   17.8654   36.1630 H   0  0  0  0  0  0  0  0  0  0  0  0
   -0.2629   17.9401   43.1325 H   0  0  0  0  0  0  0  0  0  0  0  0
   -0.1294   15.6618   44.4668 H   0  0  0  0  0  0  0  0  0  0  0  0
   -1.5117   15.2265   43.4056 H   0  0  0  0  0  0  0  0  0  0  0  0
   -0.0570   14.1741   43.4626 H   0  0  0  0  0  0  0  0  0  0  0  0
  1  5  1  0
  2  9  1  0
  3  8  2  0
  3  6  1  0
  4 16  2  0
  5  3  1  0
  6 17  2  0
  7 10  2  0
  8  7  1  0
  9  5  2  0
  9 12  1  0
 10 19  1  0
 11 14  1  0
 12 11  1  0
 14 13  2  0
 15 16  1  0
 15  1  1  0
 16  2  1  0
 17 10  1  0
 18  1  2  0
  2 20  1  0
  2 21  1  0
  6 22  1  0
  7 23  1  0
  8 24  1  0
 11 25  1  0
 11 26  1  0
 14 27  1  0
 15 28  1  0
 17 29  1  0
 19 30  1  0
 19 31  1  0
 19 32  1  0
M  END
>  <mol_id>  (3) 
2026-08-24-6tgu-s0-n100-seed1-0004

>  <rmsd_to_ref>  (3) 


$$$$

     RDKit          3D

 47 48  0  0  0  0  0  0  0  0999 V2000
    1.7120   20.2773   39.5718 C   0  0  0  0  0  0  0  0  0  0  0  0
   -0.2388   18.6042   43.6261 C   0  0  0  0  0  0  0  0  0  0  0  0
    0.9756   20.5477   40.7807 O   0  0  0  0  0  0  0  0  0  0  0  0
    3.6185   22.1618   35.4553 C   0  0  0  0  0  0  0  0  0  0  0  0
    1.5443   15.4681   41.2381 O   0  0  0  0  0  0  0  0  0  0  0  0
    0.0610   20.3341   41.9123 C   0  0  0  0  0  0  0  0  0  0  0  0
    1.0955   15.0066   43.4710 N   0  0  0  0  0  0  0  0  0  0  0  0
    3.0875   20.5738   37.0952 C   0  0  0  0  0  0  0  0  0  0  0  0
   -1.3100   19.3594   44.1298 C   0  0  0  0  0  0  0  0  0  0  0  0
    0.7258   12.5889   45.2128 C   0  0  0  0  0  0  0  0  0  0  0  0
    3.4320   19.4663   37.7688 C   0  0  0  0  0  0  0  0  0  0  0  0
    1.4322   13.6549   43.1975 C   0  0  0  0  0  0  0  0  0  0  0  0
    1.4007   15.8675   42.3891 C   0  0  0  0  0  0  0  0  0  0  0  0
   -0.1595   15.0225   44.2332 C   0  0  0  0  0  0  0  0  0  0  0  0
    1.6196   17.0846   42.6749 N   0  0  0  0  0  0  0  0  0  0  0  0
    2.2002   21.5608   37.5496 C   0  0  0  0  0  0  0  0  0  0  0  0
    0.4772   12.6261   43.7290 C   0  0  0  0  0  0  0  0  0  0  0  0
    1.4702   21.3524   38.7176 C   0  0  0  0  0  0  0  0  0  0  0  0
   -1.6677   20.6118   43.5365 N   0  0  0  0  0  0  0  0  0  0  0  0
    0.4209   19.0630   42.4372 C   0  0  0  0  0  0  0  0  0  0  0  0
    1.3765   18.2495   41.9203 N   0  0  0  0  0  0  0  0  0  0  0  0
    4.3183   18.5919   37.2189 O   0  0  0  0  0  0  0  0  0  0  0  0
    2.7196   19.1143   38.9751 C   0  0  0  0  0  0  0  0  0  0  0  0
    3.7062   20.8570   35.9076 O   0  0  0  0  0  0  0  0  0  0  0  0
   -0.9669   21.0931   42.5723 C   0  0  0  0  0  0  0  0  0  0  0  0
    0.0871   17.6827   44.1309 H   0  0  0  0  0  0  0  0  0  0  0  0
    3.5020   22.8403   36.3133 H   0  0  0  0  0  0  0  0  0  0  0  0
    4.5346   22.4213   34.9044 H   0  0  0  0  0  0  0  0  0  0  0  0
    2.7492   22.2611   34.7886 H   0  0  0  0  0  0  0  0  0  0  0  0
   -1.8816   18.9837   44.9913 H   0  0  0  0  0  0  0  0  0  0  0  0
   -0.2100   12.8097   45.7470 H   0  0  0  0  0  0  0  0  0  0  0  0
    1.0847   11.5894   45.4995 H   0  0  0  0  0  0  0  0  0  0  0  0
    1.4846   13.3405   45.4764 H   0  0  0  0  0  0  0  0  0  0  0  0
    1.4857   13.5343   42.1054 H   0  0  0  0  0  0  0  0  0  0  0  0
    2.3866   13.4733   43.7135 H   0  0  0  0  0  0  0  0  0  0  0  0
    0.0656   15.0547   45.3095 H   0  0  0  0  0  0  0  0  0  0  0  0
   -0.7464   15.9100   43.9546 H   0  0  0  0  0  0  0  0  0  0  0  0
   -0.7377   14.1146   44.0065 H   0  0  0  0  0  0  0  0  0  0  0  0
    2.0399   17.2456   43.6014 H   0  0  0  0  0  0  0  0  0  0  0  0
    2.0812   22.4972   36.9849 H   0  0  0  0  0  0  0  0  0  0  0  0
   -0.5620   12.9190   43.5189 H   0  0  0  0  0  0  0  0  0  0  0  0
    0.6294   11.6423   43.2612 H   0  0  0  0  0  0  0  0  0  0  0  0
    0.6721   22.0638   38.9760 H   0  0  0  0  0  0  0  0  0  0  0  0
    1.8818   18.4656   41.0492 H   0  0  0  0  0  0  0  0  0  0  0  0
    4.5762   17.7728   37.7116 H   0  0  0  0  0  0  0  0  0  0  0  0
    2.8407   18.1361   39.4636 H   0  0  0  0  0  0  0  0  0  0  0  0
   -1.1606   22.1236   42.2397 H   0  0  0  0  0  0  0  0  0  0  0  0
  1  3  1  0
  2  9  1  0
  3  6  1  0
  4 24  1  0
  5 13  2  0
  6 20  1  0
  6 25  2  0
  7 14  1  0
  8 16  1  0
  8 11  2  0
 11 23  1  0
 12  7  1  0
 12 17  1  0
 13 15  1  0
 13  7  1  0
 16 18  2  0
 17 10  1  0
 18  1  1  0
 19  9  2  0
 20  2  2  0
 21 20  1  0
 21 15  1  0
 22 11  1  0
 23  1  2  0
 24  8  1  0
 25 19  1  0
  2 26  1  0
  4 27  1  0
  4 28  1  0
  4 29  1  0
  9 30  1  0
 10 31  1  0
 10 32  1  0
 10 33  1  0
 12 34  1  0
 12 35  1  0
 14 36  1  0
 14 37  1  0
 14 38  1  0
 15 39  1  0
 16 40  1  0
 17 41  1  0
 17 42  1  0
 18 43  1  0
 21 44  1  0
 22 45  1  0
 23 46  1  0
 25 47  1  0
M  END
>  <mol_id>  (4) 
2026-08-24-6tgu-s0-n100-seed1-0005

>  <rmsd_to_ref>  (4) 


$$$$

     RDKit          3D

 27 28  0  0  0  0  0  0  0  0999 V2000
    2.7093   17.2157   37.8502 C   0  0  0  0  0  0  0  0  0  0  0  0
    1.8941   16.6635   39.9198 O   0  0  0  0  0  0  0  0  0  0  0  0
    0.3912   16.8704   42.1562 C   0  0  0  0  0  0  0  0  0  0  0  0
   -0.3323   18.7099   44.5356 N   0  0  0  0  0  0  0  0  0  0  0  0
   -0.4517   19.5565   43.6618 C   0  0  0  0  0  0  0  0  0  0  0  0
    1.1748   19.1830   40.7076 C   0  0  2  0  0  0  0  0  0  0  0  0
    2.0220   18.8928   39.3512 C   0  0  0  0  0  0  0  0  0  0  0  0
    2.3945   19.8553   38.4134 C   0  0  1  0  0  0  0  0  0  0  0  0
    3.0535   15.6734   37.4522 Cl  0  0  0  0  0  0  0  0  0  0  0  0
    3.1709   18.2261   36.8280 C   0  0  0  0  0  0  0  0  0  0  0  0
    0.5510   18.3352   41.8005 C   0  0  0  0  0  0  0  0  0  0  0  0
    2.2633   17.7577   39.0457 C   0  0  0  0  0  0  0  0  0  0  0  0
    2.9347   19.5241   37.1207 C   0  0  0  0  0  0  0  0  0  0  0  0
    0.2178   19.3105   42.5123 C   0  0  0  0  0  0  0  0  0  0  0  0
    3.2519   20.4151   36.3161 O   0  0  0  0  0  0  0  0  0  0  0  0
   -1.1025   20.5712   43.8204 O   0  0  0  0  0  0  0  0  0  0  0  0
    2.3399   21.5289   38.7848 Cl  0  0  0  0  0  0  0  0  0  0  0  0
    0.8322   20.6390   41.4252 S   0  0  0  0  0  0  0  0  0  0  0  0
    1.5486   16.8508   40.8285 H   0  0  0  0  0  0  0  0  0  0  0  0
    0.4462   16.7501   43.2482 H   0  0  0  0  0  0  0  0  0  0  0  0
   -0.5838   16.5099   41.7962 H   0  0  0  0  0  0  0  0  0  0  0  0
    1.1952   16.2881   41.6822 H   0  0  0  0  0  0  0  0  0  0  0  0
    0.2285   17.8640   44.3599 H   0  0  0  0  0  0  0  0  0  0  0  0
   -0.7924   18.8426   45.4475 H   0  0  0  0  0  0  0  0  0  0  0  0
    2.0984   19.1080   41.3005 H   0  0  0  0  0  0  0  0  0  0  0  0
    3.4315   19.8084   38.7773 H   0  0  0  0  0  0  0  0  0  0  0  0
    3.6716   17.9227   35.8967 H   0  0  0  0  0  0  0  0  0  0  0  0
  1 12  1  0
  5 16  2  0
  5  4  1  0
  6  7  1  0
  6 18  1  0
  6 11  1  0
  8 17  1  0
  8  7  1  0
  9  1  1  0
 10 13  1  0
 10  1  2  0
 11  3  1  0
 11 14  2  0
 12  7  2  0
 12  2  1  0
 13  8  1  0
 14  5  1  0
 15 13  2  0
 18 14  1  0
  2 19  1  0
  3 20  1  0
  3 21  1  0
  3 22  1  0
  4 23  1  0
  4 24  1  0
  6 25  1  6
  8 26  1  6
 10 27  1  0
M  END
>  <mol_id>  (5) 
2026-08-24-6tgu-s0-n100-seed1-0006

>  <rmsd_to_ref>  (5) 


$$$$

     RDKit          3D

 47 50  0  0  0  0  0  0  0  0999 V2000
    1.5871   18.8458   40.5176 C   0  0  1  0  0  0  0  0  0  0  0  0
    0.9777   18.5406   41.6912 C   0  0  0  0  0  0  0  0  0  0  0  0
    2.6286   22.1077   37.1040 C   0  0  0  0  0  0  0  0  0  0  0  0
    1.7952   20.3498   40.9620 N   0  0  0  0  0  0  0  0  0  0  0  0
   -0.9958   15.6939   45.3347 C   0  0  0  0  0  0  0  0  0  0  0  0
   -0.7704   17.2640   46.0948 C   0  0  0  0  0  0  0  0  0  0  0  0
    2.3559   20.4023   38.7914 C   0  0  0  0  0  0  0  0  0  0  0  0
    3.2917   19.6493   36.7952 C   0  0  0  0  0  0  0  0  0  0  0  0
    0.5416   19.6388   42.3597 C   0  0  0  0  0  0  0  0  0  0  0  0
    2.5801   16.6878   38.9222 C   0  0  0  0  0  0  0  0  0  0  0  0
    3.6957   20.0492   35.6641 O   0  0  0  0  0  0  0  0  0  0  0  0
   -0.2244   17.2334   43.4057 C   0  0  0  0  0  0  0  0  0  0  0  0
   -1.3797   15.1010   46.2637 O   0  0  0  0  0  0  0  0  0  0  0  0
    2.3167   19.0745   39.3953 C   0  0  2  0  0  0  0  0  0  0  0  0
   -0.4131   18.5253   44.1351 C   0  0  0  0  0  0  0  0  0  0  0  0
   -0.7172   18.2845   45.5421 C   0  0  0  0  0  0  0  0  0  0  0  0
    2.7471   20.7517   37.6411 C   0  0  0  0  0  0  0  0  0  0  0  0
    3.2967   15.6208   38.0429 O   0  0  0  0  0  0  0  0  0  0  0  0
    0.4021   17.3191   42.2446 N   0  0  0  0  0  0  0  0  0  0  0  0
    2.6994   18.0551   38.4951 C   0  0  1  0  0  0  0  0  0  0  0  0
    3.4103   18.2895   37.1891 C   0  0  0  0  0  0  0  0  0  0  0  0
   -0.2735   19.6905   43.4489 C   0  0  0  0  0  0  0  0  0  0  0  0
    1.8419   16.2830   39.8952 O   0  0  0  0  0  0  0  0  0  0  0  0
    2.5632   16.1329   36.5336 C   0  0  0  0  0  0  0  0  0  0  0  0
    1.2679   21.8460   42.3624 O   0  0  0  0  0  0  0  0  0  0  0  0
   -0.6323   15.9556   43.9293 C   0  0  0  0  0  0  0  0  0  0  0  0
    1.1172   20.8878   41.8347 C   0  0  0  0  0  0  0  0  0  0  0  0
    1.3391   17.8365   40.1572 H   0  0  0  0  0  0  0  0  0  0  0  0
    2.5803   22.8278   37.9340 H   0  0  0  0  0  0  0  0  0  0  0  0
    3.5032   22.3308   36.4753 H   0  0  0  0  0  0  0  0  0  0  0  0
    1.7131   22.1837   36.4989 H   0  0  0  0  0  0  0  0  0  0  0  0
    2.5311   20.9026   40.4997 H   0  0  0  0  0  0  0  0  0  0  0  0
   -1.6032   17.3634   46.8066 H   0  0  0  0  0  0  0  0  0  0  0  0
    0.2762   17.1693   46.4202 H   0  0  0  0  0  0  0  0  0  0  0  0
    1.9916   21.2195   39.4312 H   0  0  0  0  0  0  0  0  0  0  0  0
    3.1175   19.0074   40.1464 H   0  0  0  0  0  0  0  0  0  0  0  0
    0.0390   18.8620   46.0941 H   0  0  0  0  0  0  0  0  0  0  0  0
   -1.7910   18.5223   45.5250 H   0  0  0  0  0  0  0  0  0  0  0  0
    1.8581   18.5812   38.0204 H   0  0  0  0  0  0  0  0  0  0  0  0
    2.9651   17.6481   36.4143 H   0  0  0  0  0  0  0  0  0  0  0  0
    4.4759   18.0474   37.3155 H   0  0  0  0  0  0  0  0  0  0  0  0
   -0.7859   20.6149   43.7538 H   0  0  0  0  0  0  0  0  0  0  0  0
    1.5541   16.5240   36.7305 H   0  0  0  0  0  0  0  0  0  0  0  0
    3.1789   16.9210   36.0755 H   0  0  0  0  0  0  0  0  0  0  0  0
    2.4967   15.2748   35.8486 H   0  0  0  0  0  0  0  0  0  0  0  0
   -1.5140   15.6649   43.3393 H   0  0  0  0  0  0  0  0  0  0  0  0
    0.3165   15.4027   43.8638 H   0  0  0  0  0  0  0  0  0  0  0  0
  1  4  1  0
  1  2  1  0
  2  9  2  0
  2 19  1  0
  3 17  1  0
  4 27  1  0
  5  6  1  0
  5 13  2  0
  8 21  1  0
  8 17  1  0
  9 22  1  0
 10 23  2  0
 11  8  2  0
 12 15  1  0
 12 26  1  0
 14  7  1  0
 14  1  1  0
 15 16  1  0
 16  6  1  0
 17  7  2  0
 18 10  1  0
 19 12  2  0
 20 10  1  0
 20 14  1  0
 21 20  1  0
 22 15  2  0
 24 18  1  0
 26  5  1  0
 27 25  2  0
 27  9  1  0
  1 28  1  6
  3 29  1  0
  3 30  1  0
  3 31  1  0
  4 32  1  0
  6 33  1  0
  6 34  1  0
  7 35  1  0
 14 36  1  1
 16 37  1  0
 16 38  1  0
 20 39  1  6
 21 40  1  0
 21 41  1  0
 22 42  1  0
 24 43  1  0
 24 44  1  0
 24 45  1  0
 26 46  1  0
 26 47  1  0
M  END
>  <mol_id>  (6) 
2026-08-24-6tgu-s0-n100-seed1-0007

>  <rmsd_to_ref>  (6) 


$$$$

     RDKit          3D

 64 67  0  0  0  0  0  0  0  0999 V2000
    0.6218   20.6839   41.4448 C   0  0  0  0  0  0  0  0  0  0  0  0
    5.5225   12.6193   35.2180 C   0  0  0  0  0  0  0  0  0  0  0  0
   -1.1134   14.6873   46.8076 C   0  0  0  0  0  0  0  0  0  0  0  0
    2.7774   18.8407   37.7241 C   0  0  0  0  0  0  0  0  0  0  0  0
   -1.4854   15.5790   49.0369 C   0  0  0  0  0  0  0  0  0  0  0  0
    2.5696   19.8577   36.8688 N   0  0  0  0  0  0  0  0  0  0  0  0
    3.7899   16.7807   36.4270 N   0  0  0  0  0  0  0  0  0  0  0  0
    2.7340   17.6321   39.5876 C   0  0  0  0  0  0  0  0  0  0  0  0
    3.6014   15.5552   38.3616 C   0  0  0  0  0  0  0  0  0  0  0  0
    1.1109   19.7419   40.7345 N   0  0  0  0  0  0  0  0  0  0  0  0
    3.2039   16.7829   38.6032 C   0  0  0  0  0  0  0  0  0  0  0  0
    3.4661   19.8244   35.9264 O   0  0  0  0  0  0  0  0  0  0  0  0
   -0.4012   16.4460   43.0858 C   0  0  0  0  0  0  0  0  0  0  0  0
    5.2155   12.4437   37.7419 C   0  0  0  0  0  0  0  0  0  0  0  0
   -0.8055   18.5397   44.2068 O   0  0  0  0  0  0  0  0  0  0  0  0
   -0.3160   15.0336   43.1555 C   0  0  0  0  0  0  0  0  0  0  0  0
   -0.4910   14.4580   44.4428 C   0  0  0  0  0  0  0  0  0  0  0  0
   -0.6105   17.2356   44.2183 C   0  0  0  0  0  0  0  0  0  0  0  0
    0.7496   18.5917   41.0987 N   0  0  0  0  0  0  0  0  0  0  0  0
    4.9506   13.1843   36.4992 C   0  0  0  0  0  0  0  0  0  0  0  0
    4.3321   14.3083   36.4183 N   0  0  0  0  0  0  0  0  0  0  0  0
   -1.4512   13.4340   47.2528 C   0  0  0  0  0  0  0  0  0  0  0  0
    2.0411   19.9661   39.8441 C   0  0  0  0  0  0  0  0  0  0  0  0
   -2.0190   13.2812   48.5076 C   0  0  0  0  0  0  0  0  0  0  0  0
   -0.3703   20.0927   42.2340 C   0  0  0  0  0  0  0  0  0  0  0  0
   -0.8382   16.5776   45.4671 C   0  0  0  0  0  0  0  0  0  0  0  0
    2.4609   18.8482   39.0905 C   0  0  1  0  0  0  0  0  0  0  0  0
   -1.0830   15.8279   47.7794 C   0  0  0  0  0  0  0  0  0  0  0  0
   -2.3437   14.1400   50.6861 F   0  0  0  0  0  0  0  0  0  0  0  0
   -0.1716   18.6972   42.0537 N   0  0  0  0  0  0  0  0  0  0  0  0
    3.8984   15.5198   37.0047 C   0  0  0  0  0  0  0  0  0  0  0  0
   -0.7666   15.2427   45.5264 C   0  0  0  0  0  0  0  0  0  0  0  0
   -1.9676   14.3229   49.4014 C   0  0  0  0  0  0  0  0  0  0  0  0
   -1.0835   20.6264   42.9989 O   0  0  0  0  0  0  0  0  0  0  0  0
    3.2942   17.5193   37.4583 C   0  0  0  0  0  0  0  0  0  0  0  0
    0.1856   21.4618   40.8009 H   0  0  0  0  0  0  0  0  0  0  0  0
    1.3937   21.1677   42.0613 H   0  0  0  0  0  0  0  0  0  0  0  0
    6.2697   11.8488   35.4586 H   0  0  0  0  0  0  0  0  0  0  0  0
    4.7138   12.1723   34.6212 H   0  0  0  0  0  0  0  0  0  0  0  0
    5.9999   13.4261   34.6425 H   0  0  0  0  0  0  0  0  0  0  0  0
   -1.4336   16.3787   49.7904 H   0  0  0  0  0  0  0  0  0  0  0  0
    1.8164   20.5558   36.9478 H   0  0  0  0  0  0  0  0  0  0  0  0
    2.6012   17.3477   40.6419 H   0  0  0  0  0  0  0  0  0  0  0  0
    4.4951   15.3166   38.9568 H   0  0  0  0  0  0  0  0  0  0  0  0
    2.8308   14.8173   38.6294 H   0  0  0  0  0  0  0  0  0  0  0  0
    4.3678   19.7643   36.3306 H   0  0  0  0  0  0  0  0  0  0  0  0
   -0.2990   16.9371   42.1069 H   0  0  0  0  0  0  0  0  0  0  0  0
    4.9789   13.0815   38.6064 H   0  0  0  0  0  0  0  0  0  0  0  0
    4.5892   11.5398   37.7708 H   0  0  0  0  0  0  0  0  0  0  0  0
    6.2766   12.1559   37.7781 H   0  0  0  0  0  0  0  0  0  0  0  0
   -0.9468   19.0267   45.0572 H   0  0  0  0  0  0  0  0  0  0  0  0
   -0.1252   14.4179   42.2642 H   0  0  0  0  0  0  0  0  0  0  0  0
   -0.4036   13.3687   44.5681 H   0  0  0  0  0  0  0  0  0  0  0  0
    0.3534   18.0855   40.2939 H   0  0  0  0  0  0  0  0  0  0  0  0
    4.0314   12.5996   36.3467 H   0  0  0  0  0  0  0  0  0  0  0  0
    3.9791   14.3441   35.4513 H   0  0  0  0  0  0  0  0  0  0  0  0
   -1.2722   12.5547   46.6164 H   0  0  0  0  0  0  0  0  0  0  0  0
    1.6589   20.7211   39.1413 H   0  0  0  0  0  0  0  0  0  0  0  0
    2.9252   20.2874   40.4143 H   0  0  0  0  0  0  0  0  0  0  0  0
   -2.5060   12.3348   48.7853 H   0  0  0  0  0  0  0  0  0  0  0  0
   -1.0696   17.1626   46.3695 H   0  0  0  0  0  0  0  0  0  0  0  0
    1.4371   18.5221   38.8551 H   0  0  0  0  0  0  0  0  0  0  0  0
   -0.7446   16.8293   47.4751 H   0  0  0  0  0  0  0  0  0  0  0  0
   -0.6409   17.9299   42.5556 H   0  0  0  0  0  0  0  0  0  0  0  0
  1 25  1  0
  2 20  1  0
  3 22  2  0
  3 28  1  0
  4 27  1  0
  5 33  1  0
  6  4  1  0
  7 31  2  0
  7 35  1  0
  9 11  1  0
 10 19  1  0
 10  1  1  0
 11  8  2  0
 12  6  1  0
 13 16  2  0
 13 18  1  0
 15 18  1  0
 16 17  1  0
 17 32  2  0
 18 26  2  0
 19 30  1  0
 20 14  1  0
 21 20  1  0
 21 31  1  0
 22 24  1  0
 23 10  1  0
 24 33  2  0
 25 34  2  0
 26 32  1  0
 27  8  1  0
 27 23  1  0
 28  5  2  0
 30 25  1  0
 31  9  1  0
 32  3  1  0
 33 29  1  0
 35  4  2  0
 35 11  1  0
  1 36  1  0
  1 37  1  0
  2 38  1  0
  2 39  1  0
  2 40  1  0
  5 41  1  0
  6 42  1  0
  8 43  1  0
  9 44  1  0
  9 45  1  0
 12 46  1  0
 13 47  1  0
 14 48  1  0
 14 49  1  0
 14 50  1  0
 15 51  1  0
 16 52  1  0
 17 53  1  0
 19 54  1  0
 20 55  1  0
 21 56  1  0
 22 57  1  0
 23 58  1  0
 23 59  1  0
 24 60  1  0
 26 61  1  0
 27 62  1  6
 28 63  1  0
 30 64  1  0
M  END
>  <mol_id>  (7) 
2026-08-24-6tgu-s0-n100-seed1-0008

>  <rmsd_to_ref>  (7) 


$$$$

     RDKit          3D

 40 43  0  0  0  0  0  0  0  0999 V2000
    1.4276   18.3564   39.7728 C   0  0  0  0  0  0  0  0  0  0  0  0
   -1.4818   20.3221   43.9208 N   0  0  0  0  0  0  0  0  0  0  0  0
   -0.0628   18.6103   41.9902 C   0  0  0  0  0  0  0  0  0  0  0  0
    2.7856   17.8879   37.8079 C   0  0  0  0  0  0  0  0  0  0  0  0
    2.2865   16.1052   39.2591 C   0  0  0  0  0  0  0  0  0  0  0  0
    2.7491   19.2619   37.3707 C   0  0  0  0  0  0  0  0  0  0  0  0
    3.2674   13.7613   38.7971 C   0  0  0  0  0  0  0  0  0  0  0  0
   -0.9783   20.7939   42.7461 C   0  0  0  0  0  0  0  0  0  0  0  0
    3.0062   15.2225   38.4062 C   0  0  0  0  0  0  0  0  0  0  0  0
   -2.8243   17.7866   45.8127 N   0  0  0  0  0  0  0  0  0  0  0  0
    3.6599   13.1743   37.5769 O   0  0  0  0  0  0  0  0  0  0  0  0
    2.1587   17.4579   38.9918 C   0  0  0  0  0  0  0  0  0  0  0  0
    3.5817   15.7825   37.3227 N   0  0  0  0  0  0  0  0  0  0  0  0
    2.0505   20.2233   38.2198 C   0  0  0  0  0  0  0  0  0  0  0  0
   -0.2927   20.0333   41.7852 C   0  0  0  0  0  0  0  0  0  0  0  0
   -0.7559   18.0753   43.1476 C   0  0  0  0  0  0  0  0  0  0  0  0
    1.4126   19.7072   39.3402 C   0  0  0  0  0  0  0  0  0  0  0  0
    3.4823   17.0083   37.0350 N   0  0  0  0  0  0  0  0  0  0  0  0
   -1.7901   18.6217   45.5053 C   0  0  2  0  0  0  0  0  0  0  0  0
   -1.4038   18.9176   44.0772 C   0  0  0  0  0  0  0  0  0  0  0  0
   -1.5388   17.8267   46.6547 C   0  0  0  0  0  0  0  0  0  0  0  0
    3.4217   19.5428   36.3093 O   0  0  0  0  0  0  0  0  0  0  0  0
    0.7645   17.8087   41.0339 C   0  0  0  0  0  0  0  0  0  0  0  0
    1.8138   15.6978   40.1650 H   0  0  0  0  0  0  0  0  0  0  0  0
    4.0690   13.6895   39.5468 H   0  0  0  0  0  0  0  0  0  0  0  0
    2.3951   13.2713   39.2542 H   0  0  0  0  0  0  0  0  0  0  0  0
   -1.1212   21.8633   42.5318 H   0  0  0  0  0  0  0  0  0  0  0  0
   -3.0295   16.9724   45.2162 H   0  0  0  0  0  0  0  0  0  0  0  0
   -3.8316   17.8966   45.9981 H   0  0  0  0  0  0  0  0  0  0  0  0
    4.2048   12.3681   37.7587 H   0  0  0  0  0  0  0  0  0  0  0  0
    2.0308   21.2977   37.9845 H   0  0  0  0  0  0  0  0  0  0  0  0
    0.0744   20.5175   40.8683 H   0  0  0  0  0  0  0  0  0  0  0  0
   -0.7770   16.9867   43.3045 H   0  0  0  0  0  0  0  0  0  0  0  0
    0.8382   20.4170   39.9536 H   0  0  0  0  0  0  0  0  0  0  0  0
   -1.4438   19.6615   45.4114 H   0  0  0  0  0  0  0  0  0  0  0  0
   -1.5368   18.2734   47.6599 H   0  0  0  0  0  0  0  0  0  0  0  0
   -0.7717   17.1137   46.9911 H   0  0  0  0  0  0  0  0  0  0  0  0
    3.4338   20.4698   35.9619 H   0  0  0  0  0  0  0  0  0  0  0  0
    0.1084   16.9956   40.6899 H   0  0  0  0  0  0  0  0  0  0  0  0
    1.6518   17.6161   41.6550 H   0  0  0  0  0  0  0  0  0  0  0  0
  1 23  1  0
  2 20  1  0
  3 16  1  0
  4 12  1  0
  6  4  2  0
  6 14  1  0
  8  2  2  0
  9  7  1  0
  9  5  2  0
 10 21  1  0
 11  7  1  0
 12  5  1  0
 12  1  2  0
 13  9  1  0
 14 17  2  0
 15  3  2  0
 15  8  1  0
 16 20  2  0
 17  1  1  0
 18 13  2  0
 18  4  1  0
 19 20  1  0
 19 10  1  0
 19 21  1  0
 22  6  1  0
 23  3  1  0
  5 24  1  0
  7 25  1  0
  7 26  1  0
  8 27  1  0
 10 28  1  0
 10 29  1  0
 11 30  1  0
 14 31  1  0
 15 32  1  0
 16 33  1  0
 17 34  1  0
 19 35  1  1
 21 36  1  0
 21 37  1  0
 22 38  1  0
 23 39  1  0
 23 40  1  0
M  CHG  1  10   1
M  END
>  <mol_id>  (8) 
2026-08-24-6tgu-s0-n100-seed1-0009

>  <rmsd_to_ref>  (8) 


$$$$

     RDKit          3D

 38 41  0  0  0  0  0  0  0  0999 V2000
    3.2884   18.2019   38.4315 F   0  0  0  0  0  0  0  0  0  0  0  0
   -0.6658   16.4166   43.0190 C   0  0  0  0  0  0  0  0  0  0  0  0
    2.0906   20.8897   39.1714 C   0  0  0  0  0  0  0  0  0  0  0  0
    1.6424   19.0615   39.8134 N   0  0  0  0  0  0  0  0  0  0  0  0
    0.1404   19.8233   42.0075 C   0  0  0  0  0  0  0  0  0  0  0  0
    1.9312   21.8770   38.2598 C   0  0  0  0  0  0  0  0  0  0  0  0
    3.3294   19.9223   37.3498 C   0  0  0  0  0  0  0  0  0  0  0  0
    1.6809   20.2713   40.1128 C   0  0  2  0  0  0  0  0  0  0  0  0
    2.8846   19.4923   38.3843 C   0  0  0  0  0  0  0  0  0  0  0  0
    0.9343   20.7993   41.2466 C   0  0  0  0  0  0  0  0  0  0  0  0
    4.0859   19.8787   36.5775 C   0  0  0  0  0  0  0  0  0  0  0  0
    1.2560   16.8809   39.5793 O   0  0  0  0  0  0  0  0  0  0  0  0
    2.6389   22.0589   37.1320 C   0  0  0  0  0  0  0  0  0  0  0  0
   -0.9967   18.5853   43.2489 C   0  0  0  0  0  0  0  0  0  0  0  0
    0.0555   16.4130   41.8707 C   0  0  0  0  0  0  0  0  0  0  0  0
   -1.1738   17.4449   43.7187 C   0  0  0  0  0  0  0  0  0  0  0  0
    0.4748   17.7805   41.3736 C   0  0  0  0  0  0  0  0  0  0  0  0
    1.1413   18.0237   40.1051 C   0  0  0  0  0  0  0  0  0  0  0  0
    3.4081   20.9807   36.6725 C   0  0  0  0  0  0  0  0  0  0  0  0
   -1.4299   14.8249   44.7114 C   0  0  0  0  0  0  0  0  0  0  0  0
    0.0159   18.8023   42.2212 C   0  0  0  0  0  0  0  0  0  0  0  0
   -0.7860   15.0259   43.5170 C   0  0  0  0  0  0  0  0  0  0  0  0
    2.2804   18.9027   39.0206 H   0  0  0  0  0  0  0  0  0  0  0  0
   -0.8684   20.0694   41.6446 H   0  0  0  0  0  0  0  0  0  0  0  0
    0.8078   19.9368   42.8746 H   0  0  0  0  0  0  0  0  0  0  0  0
    1.1366   22.6098   38.4640 H   0  0  0  0  0  0  0  0  0  0  0  0
    2.3489   20.5756   40.9321 H   0  0  0  0  0  0  0  0  0  0  0  0
    1.6547   21.2597   41.9387 H   0  0  0  0  0  0  0  0  0  0  0  0
    0.2062   21.5045   40.8192 H   0  0  0  0  0  0  0  0  0  0  0  0
    5.1488   19.8710   36.8609 H   0  0  0  0  0  0  0  0  0  0  0  0
    4.2879   19.1808   35.7515 H   0  0  0  0  0  0  0  0  0  0  0  0
    2.6156   23.0162   36.5906 H   0  0  0  0  0  0  0  0  0  0  0  0
   -1.6041   19.4288   43.6091 H   0  0  0  0  0  0  0  0  0  0  0  0
    0.3165   15.4856   41.3397 H   0  0  0  0  0  0  0  0  0  0  0  0
   -1.7197   17.2878   44.6607 H   0  0  0  0  0  0  0  0  0  0  0  0
   -1.5387   13.8067   45.1131 H   0  0  0  0  0  0  0  0  0  0  0  0
   -1.8376   15.6819   45.2675 H   0  0  0  0  0  0  0  0  0  0  0  0
   -0.3719   14.1813   42.9466 H   0  0  0  0  0  0  0  0  0  0  0  0
  2 16  1  0
  2 22  1  0
  4 18  1  0
  5 21  1  0
  6  3  1  0
  7  9  1  0
  8  3  1  0
  8  4  1  0
  8 10  1  0
  9  3  2  0
  9  1  1  0
 10  5  1  0
 11  7  1  0
 13 19  1  0
 13  6  2  0
 14 16  2  0
 15  2  2  0
 17 21  2  0
 17 15  1  0
 18 12  2  0
 18 17  1  0
 19 11  1  0
 19  7  2  0
 21 14  1  0
 22 20  2  3
  4 23  1  0
  5 24  1  0
  5 25  1  0
  6 26  1  0
  8 27  1  1
 10 28  1  0
 10 29  1  0
 11 30  1  0
 11 31  1  0
 13 32  1  0
 14 33  1  0
 15 34  1  0
 16 35  1  0
 20 36  1  0
 20 37  1  0
 22 38  1  0
M  END
>  <mol_id>  (9) 
2026-08-24-6tgu-s0-n100-seed1-0010

>  <rmsd_to_ref>  (9) 


$$$$

     RDKit          3D

 56 58  0  0  0  0  0  0  0  0999 V2000
    1.0380   21.0220   41.3860 N   0  0  0  0  0  0  0  0  0  0  0  0
    2.9400   17.2090   39.0550 C   0  0  0  0  0  0  0  0  0  0  0  0
    2.4420   18.5190   39.5660 C   0  0  1  0  0  0  0  0  0  0  0  0
    3.0320   14.8370   39.1590 C   0  0  0  0  0  0  0  0  0  0  0  0
    1.8070   18.5990   40.9570 C   0  0  1  0  0  0  0  0  0  0  0  0
    3.8710   16.0190   37.1890 C   0  0  0  0  0  0  0  0  0  0  0  0
    0.6330   18.2110   42.8160 C   0  0  2  0  0  0  0  0  0  0  0  0
    3.5870   13.6970   37.0980 O   0  0  0  0  0  0  0  0  0  0  0  0
    1.6400   21.6220   40.1470 C   0  0  0  0  0  0  0  0  0  0  0  0
    3.7930   19.6810   36.3580 O   0  0  0  0  0  0  0  0  0  0  0  0
   -0.0010   17.3490   43.6440 N   0  0  0  0  0  0  0  0  0  0  0  0
   -0.8110   20.1460   42.7820 O   0  0  0  0  0  0  0  0  0  0  0  0
    1.0400   19.7530   41.5480 N   0  0  0  0  0  0  0  0  0  0  0  0
   -0.6900   14.7520   43.8090 O   0  0  0  0  0  0  0  0  0  0  0  0
    3.1690   19.5590   39.0280 O   0  0  0  0  0  0  0  0  0  0  0  0
    0.0900   19.4190   42.5130 C   0  0  0  0  0  0  0  0  0  0  0  0
   -0.8510   16.4480   45.5480 N   0  0  0  0  0  0  0  0  0  0  0  0
   -1.2360   13.4640   43.4730 C   0  0  0  0  0  0  0  0  0  0  0  0
    3.0430   20.5640   36.7190 C   0  0  0  0  0  0  0  0  0  0  0  0
    3.6100   17.1560   37.8140 C   0  0  0  0  0  0  0  0  0  0  0  0
    2.6340   20.6040   38.2290 C   0  0  1  0  0  0  0  0  0  0  0  0
   -0.7670   15.1440   45.1470 C   0  0  0  0  0  0  0  0  0  0  0  0
    1.3310   20.8530   38.8950 C   0  0  0  0  0  0  0  0  0  0  0  0
   -0.7590   16.7050   46.9780 C   0  0  0  0  0  0  0  0  0  0  0  0
    2.6100   21.5430   36.0000 N   0  0  0  0  0  0  0  0  0  0  0  0
    1.6470   17.7170   41.8650 C   0  0  0  0  0  0  0  0  0  0  0  0
    2.7270   15.9740   39.6730 C   0  0  0  0  0  0  0  0  0  0  0  0
   -0.8210   14.2510   45.9790 O   0  0  0  0  0  0  0  0  0  0  0  0
    3.5210   14.8080   37.8120 C   0  0  0  0  0  0  0  0  0  0  0  0
   -0.6530   17.5270   44.7140 C   0  0  0  0  0  0  0  0  0  0  0  0
   -0.8900   18.7180   45.0670 O   0  0  0  0  0  0  0  0  0  0  0  0
    0.0536   21.3239   41.4145 H   0  0  0  0  0  0  0  0  0  0  0  0
    1.4294   18.6808   39.1680 H   0  0  0  0  0  0  0  0  0  0  0  0
    2.9207   13.9085   39.7383 H   0  0  0  0  0  0  0  0  0  0  0  0
    2.7424   19.0143   41.3601 H   0  0  0  0  0  0  0  0  0  0  0  0
    4.3529   16.0213   36.2002 H   0  0  0  0  0  0  0  0  0  0  0  0
    1.2474   18.4922   43.6840 H   0  0  0  0  0  0  0  0  0  0  0  0
    3.3467   12.8292   37.5094 H   0  0  0  0  0  0  0  0  0  0  0  0
    1.2514   22.6446   40.0318 H   0  0  0  0  0  0  0  0  0  0  0  0
    2.7321   21.6014   40.2767 H   0  0  0  0  0  0  0  0  0  0  0  0
    0.0580   16.3641   43.3483 H   0  0  0  0  0  0  0  0  0  0  0  0
   -1.4697   12.9128   44.3958 H   0  0  0  0  0  0  0  0  0  0  0  0
   -2.1548   13.5978   42.8832 H   0  0  0  0  0  0  0  0  0  0  0  0
   -0.5010   12.8967   42.8832 H   0  0  0  0  0  0  0  0  0  0  0  0
    3.9287   18.0994   37.3466 H   0  0  0  0  0  0  0  0  0  0  0  0
    3.0448   21.6213   38.1495 H   0  0  0  0  0  0  0  0  0  0  0  0
    0.6736   21.4419   38.2384 H   0  0  0  0  0  0  0  0  0  0  0  0
    0.8105   19.9108   39.1218 H   0  0  0  0  0  0  0  0  0  0  0  0
   -1.0792   15.8106   47.5326 H   0  0  0  0  0  0  0  0  0  0  0  0
    0.2814   16.9466   47.2409 H   0  0  0  0  0  0  0  0  0  0  0  0
   -1.4098   17.5520   47.2409 H   0  0  0  0  0  0  0  0  0  0  0  0
    1.9729   22.2407   36.4101 H   0  0  0  0  0  0  0  0  0  0  0  0
    2.9012   21.6272   35.0156 H   0  0  0  0  0  0  0  0  0  0  0  0
    1.3047   16.7747   41.4123 H   0  0  0  0  0  0  0  0  0  0  0  0
    2.5979   17.5324   42.3863 H   0  0  0  0  0  0  0  0  0  0  0  0
    2.2650   15.9756   40.6713 H   0  0  0  0  0  0  0  0  0  0  0  0
  1 13  1  0
  2 27  1  0
  3  2  1  0
  3  5  1  0
  4 27  2  0
  5 13  1  0
  5 26  1  0
  6 29  2  0
  6 20  1  0
  7 11  1  0
  8 29  1  0
  9  1  1  0
 10 19  2  0
 11 30  1  0
 13 16  1  0
 14 22  1  0
 15  3  1  0
 16 12  2  0
 16  7  1  0
 17 24  1  0
 18 14  1  0
 20  2  2  0
 21 19  1  0
 21 23  1  0
 21 15  1  0
 22 17  1  0
 22 28  2  0
 23  9  1  0
 25 19  1  0
 26  7  1  0
 29  4  1  0
 30 31  2  0
 30 17  1  0
  1 32  1  0
  3 33  1  6
  4 34  1  0
  5 35  1  1
  6 36  1  0
  7 37  1  1
  8 38  1  0
  9 39  1  0
  9 40  1  0
 11 41  1  0
 18 42  1  0
 18 43  1  0
 18 44  1  0
 20 45  1  0
 21 46  1  1
 23 47  1  0
 23 48  1  0
 24 49  1  0
 24 50  1  0
 24 51  1  0
 25 52  1  0
 25 53  1  0
 26 54  1  0
 26 55  1  0
 27 56  1  0
M  END
>  <mol_id>  (10) 
2026-08-24-6tgu-s0-n100-seed1-0011

>  <rmsd_to_ref>  (10) 


$$$$

     RDKit          3D

 26 27  0  0  0  0  0  0  0  0999 V2000
   -0.1742   19.4966   42.3142 C   0  0  0  0  0  0  0  0  0  0  0  0
    2.1503   20.3992   39.5849 S   0  0  0  0  0  0  0  0  0  0  0  0
    1.5172   14.7431   42.3402 O   0  0  0  0  0  0  0  0  0  0  0  0
   -0.4458   14.6760   43.5504 N   0  0  0  0  0  0  0  0  0  0  0  0
    0.8856   17.4609   41.3433 C   0  0  0  0  0  0  0  0  0  0  0  0
   -0.5740   17.4792   43.2618 C   0  0  0  0  0  0  0  0  0  0  0  0
    3.7662   19.1767   38.5670 N   0  0  0  0  0  0  0  0  0  0  0  0
    2.9419   19.3282   39.5062 C   0  0  2  0  0  0  0  0  0  0  0  0
   -0.8218   18.8088   43.2682 N   0  0  0  0  0  0  0  0  0  0  0  0
    0.5882   15.2516   42.6979 C   0  0  0  0  0  0  0  0  0  0  0  0
    3.8156   19.3799   37.2976 C   0  0  0  0  0  0  0  0  0  0  0  0
    4.3953   18.2746   36.7985 O   0  0  0  0  0  0  0  0  0  0  0  0
    3.4656   20.3417   36.7339 O   0  0  0  0  0  0  0  0  0  0  0  0
    0.2864   16.7063   42.4393 C   0  0  0  0  0  0  0  0  0  0  0  0
    0.6013   18.9041   41.2737 C   0  0  0  0  0  0  0  0  0  0  0  0
    3.3402   18.2213   39.7857 N   0  0  0  0  0  0  0  0  0  0  0  0
    1.2500   19.8007   40.6193 C   0  0  0  0  0  0  0  0  0  0  0  0
   -0.2467   20.5941   42.3364 H   0  0  0  0  0  0  0  0  0  0  0  0
   -1.2644   15.2401   43.8195 H   0  0  0  0  0  0  0  0  0  0  0  0
   -0.3573   13.7053   43.8833 H   0  0  0  0  0  0  0  0  0  0  0  0
    1.5262   16.9695   40.5963 H   0  0  0  0  0  0  0  0  0  0  0  0
   -1.1296   16.9034   44.0165 H   0  0  0  0  0  0  0  0  0  0  0  0
    3.7092   19.8521   40.0950 H   0  0  0  0  0  0  0  0  0  0  0  0
    2.7563   17.3863   39.6351 H   0  0  0  0  0  0  0  0  0  0  0  0
    1.7819   20.2151   41.4883 H   0  0  0  0  0  0  0  0  0  0  0  0
    0.4933   19.6975   39.8276 H   0  0  0  0  0  0  0  0  0  0  0  0
  1  9  1  0
  2 17  1  0
  3 10  2  0
  5 14  2  0
  7  8  1  0
  7 16  1  0
  8  2  1  0
  8 16  1  0
  9  6  2  0
 10  4  1  0
 11  7  1  0
 12 11  1  0
 13 11  2  0
 14 10  1  0
 14  6  1  0
 15  5  1  0
 15  1  2  0
 17 15  1  0
  1 18  1  0
  4 19  1  0
  4 20  1  0
  5 21  1  0
  6 22  1  0
  8 23  1  1
 16 24  1  0
 17 25  1  0
 17 26  1  0
M  CHG  1  12  -1
M  END
>  <mol_id>  (11) 
2026-08-24-6tgu-s0-n100-seed1-0012

>  <rmsd_to_ref>  (11) 


$$$$

     RDKit          3D

 54 59  0  0  0  0  0  0  0  0999 V2000
    1.8597   15.1895   41.7328 C   0  0  0  0  0  0  0  0  0  0  0  0
    3.0093   22.8159   34.9428 C   0  0  0  0  0  0  0  0  0  0  0  0
    2.5019   20.7335   38.7841 C   0  0  0  0  0  0  0  0  0  0  0  0
   -1.6240   19.7569   44.0235 N   0  0  0  0  0  0  0  0  0  0  0  0
    0.4351   14.5609   43.4815 C   0  0  0  0  0  0  0  0  0  0  0  0
   -1.8427   17.8908   45.3048 N   0  0  0  0  0  0  0  0  0  0  0  0
    3.6652   16.7889   38.8643 C   0  0  0  0  0  0  0  0  0  0  0  0
    0.4441   16.8842   42.6728 C   0  0  0  0  0  0  0  0  0  0  0  0
    3.2276   20.1711   37.6614 C   0  0  0  0  0  0  0  0  0  0  0  0
    0.9506   13.3306   43.5142 N   0  0  0  0  0  0  0  0  0  0  0  0
    0.2441   18.9754   41.7179 C   0  0  0  0  0  0  0  0  0  0  0  0
   -0.9041   20.4947   42.9659 C   0  0  0  0  0  0  0  0  0  0  0  0
    2.4873   21.8424   36.1065 C   0  0  0  0  0  0  0  0  0  0  0  0
    0.0572   20.6896   41.1584 C   0  0  0  0  0  0  0  0  0  0  0  0
    3.1906   18.0955   38.8336 C   0  0  0  0  0  0  0  0  0  0  0  0
    0.9056   15.5513   42.6398 C   0  0  0  0  0  0  0  0  0  0  0  0
    2.2831   16.1456   40.7440 C   0  0  0  0  0  0  0  0  0  0  0  0
    3.5779   18.8847   37.7286 C   0  0  0  0  0  0  0  0  0  0  0  0
   -0.7990   14.8437   44.5860 C   0  0  0  0  0  0  0  0  0  0  0  0
   -0.4125   17.6620   43.5390 C   0  0  0  0  0  0  0  0  0  0  0  0
    2.2715   18.3899   39.8036 C   0  0  0  0  0  0  0  0  0  0  0  0
    0.8829   17.7398   41.7215 C   0  0  0  0  0  0  0  0  0  0  0  0
    3.2613   15.8235   39.8117 C   0  0  0  0  0  0  0  0  0  0  0  0
    1.8744   20.0337   39.7735 C   0  0  0  0  0  0  0  0  0  0  0  0
   -0.2487   19.9651   42.0047 C   0  0  0  0  0  0  0  0  0  0  0  0
    1.9027   12.9821   42.6415 C   0  0  0  0  0  0  0  0  0  0  0  0
    0.9513   21.1352   40.2065 O   0  0  0  0  0  0  0  0  0  0  0  0
    2.3780   13.9382   41.7157 C   0  0  0  0  0  0  0  0  0  0  0  0
    1.8094   17.4341   40.7741 C   0  0  0  0  0  0  0  0  0  0  0  0
   -1.3513   18.5094   44.1903 C   0  0  0  0  0  0  0  0  0  0  0  0
    3.4580   20.9997   36.5296 N   0  0  0  0  0  0  0  0  0  0  0  0
    1.3403   21.9265   36.4670 O   0  0  0  0  0  0  0  0  0  0  0  0
    3.3665   23.7575   35.3852 H   0  0  0  0  0  0  0  0  0  0  0  0
    3.8335   22.3298   34.4003 H   0  0  0  0  0  0  0  0  0  0  0  0
    2.1857   23.0278   34.2450 H   0  0  0  0  0  0  0  0  0  0  0  0
    2.4524   21.8307   38.8439 H   0  0  0  0  0  0  0  0  0  0  0  0
   -2.6298   19.8237   43.8115 H   0  0  0  0  0  0  0  0  0  0  0  0
   -1.3176   20.2039   44.8994 H   0  0  0  0  0  0  0  0  0  0  0  0
   -1.5735   18.4271   46.1419 H   0  0  0  0  0  0  0  0  0  0  0  0
   -2.8697   17.8405   45.2449 H   0  0  0  0  0  0  0  0  0  0  0  0
   -1.4554   16.9385   45.3680 H   0  0  0  0  0  0  0  0  0  0  0  0
    4.4009   16.4892   38.1035 H   0  0  0  0  0  0  0  0  0  0  0  0
   -1.6639   21.1283   42.4850 H   0  0  0  0  0  0  0  0  0  0  0  0
   -0.0756   20.9152   43.5547 H   0  0  0  0  0  0  0  0  0  0  0  0
   -0.8081   20.5320   40.4979 H   0  0  0  0  0  0  0  0  0  0  0  0
    0.5977   21.2890   41.9057 H   0  0  0  0  0  0  0  0  0  0  0  0
    4.1717   18.4368   36.9183 H   0  0  0  0  0  0  0  0  0  0  0  0
   -0.4251   14.6704   45.6059 H   0  0  0  0  0  0  0  0  0  0  0  0
   -1.1425   15.8846   44.4934 H   0  0  0  0  0  0  0  0  0  0  0  0
   -1.6372   14.1613   44.3819 H   0  0  0  0  0  0  0  0  0  0  0  0
    3.7180   14.8228   39.8117 H   0  0  0  0  0  0  0  0  0  0  0  0
    2.3119   11.9610   42.6446 H   0  0  0  0  0  0  0  0  0  0  0  0
    3.1596   13.6695   40.9898 H   0  0  0  0  0  0  0  0  0  0  0  0
    4.3599   20.9589   36.0338 H   0  0  0  0  0  0  0  0  0  0  0  0
  1 16  1  0
  2 13  1  0
  3 24  2  0
  4 30  1  0
  5 10  1  0
  5 19  1  0
  7 23  1  0
  8 20  2  0
  9 18  2  0
  9  3  1  0
 11 25  2  0
 12  4  1  0
 13 31  1  0
 13 32  2  0
 14 25  1  0
 15  7  2  0
 15 21  1  0
 16  8  1  0
 16  5  2  0
 17 29  1  0
 17  1  1  0
 18 15  1  0
 20 30  2  0
 21 29  2  0
 22 11  2  0
 22  8  1  0
 23 17  2  0
 24 21  1  0
 24 27  1  0
 25 12  1  0
 26 10  2  0
 27 14  1  0
 28  1  2  0
 28 26  1  0
 29 22  1  0
 30  6  1  0
 31  9  1  0
  2 33  1  0
  2 34  1  0
  2 35  1  0
  3 36  1  0
  4 37  1  0
  4 38  1  0
  6 39  1  0
  6 40  1  0
  6 41  1  0
  7 42  1  0
 12 43  1  0
 12 44  1  0
 14 45  1  0
 14 46  1  0
 18 47  1  0
 19 48  1  0
 19 49  1  0
 19 50  1  0
 23 51  1  0
 26 52  1  0
 28 53  1  0
 31 54  1  0
M  CHG  2   4   1   6   1
M  END
>  <mol_id>  (12) 
2026-08-24-6tgu-s0-n100-seed1-0013

>  <rmsd_to_ref>  (12) 


$$$$

     RDKit          3D

 38 40  0  0  0  0  0  0  0  0999 V2000
    0.9880   22.0840   40.7130 F   0  0  0  0  0  0  0  0  0  0  0  0
    1.4520   17.4950   41.0790 C   0  0  0  0  0  0  0  0  0  0  0  0
   -0.7060   19.9740   42.5150 O   0  0  0  0  0  0  0  0  0  0  0  0
    0.1820   19.2780   41.8910 C   0  0  0  0  0  0  0  0  0  0  0  0
    2.0510   20.9740   39.0100 C   0  0  0  0  0  0  0  0  0  0  0  0
    1.3350   20.9350   40.1860 C   0  0  0  0  0  0  0  0  0  0  0  0
    3.7730   18.7230   36.7480 O   0  0  0  0  0  0  0  0  0  0  0  0
    2.4060   18.5830   39.1160 C   0  0  0  0  0  0  0  0  0  0  0  0
    2.5590   19.8170   38.4240 C   0  0  0  0  0  0  0  0  0  0  0  0
    2.4700   13.9680   41.8490 C   0  0  0  0  0  0  0  0  0  0  0  0
    3.2500   19.8070   37.0890 C   0  0  0  0  0  0  0  0  0  0  0  0
    2.0300   16.2890   41.0580 C   0  0  0  0  0  0  0  0  0  0  0  0
    1.7310   15.2440   42.0170 C   0  0  0  0  0  0  0  0  0  0  0  0
    3.2790   20.8150   36.4800 O   0  0  0  0  0  0  0  0  0  0  0  0
    0.7990   15.5770   43.0730 C   0  0  0  0  0  0  0  0  0  0  0  0
   -1.0480   18.1550   44.7300 N   0  0  0  0  0  0  0  0  0  0  0  0
    1.0620   19.7680   40.8490 C   0  0  0  0  0  0  0  0  0  0  0  0
   -0.9300   16.8490   44.1330 C   0  0  0  0  0  0  0  0  0  0  0  0
    0.1830   16.7920   43.1230 C   0  0  0  0  0  0  0  0  0  0  0  0
    0.5040   17.8580   42.1980 C   0  0  0  0  0  0  0  0  0  0  0  0
   -0.7450   17.9230   46.1220 C   0  0  0  0  0  0  0  0  0  0  0  0
    1.6950   18.5990   40.2780 C   0  0  0  0  0  0  0  0  0  0  0  0
   -0.8680   20.9159   42.2567 H   0  0  0  0  0  0  0  0  0  0  0  0
    2.2261   21.9437   38.5211 H   0  0  0  0  0  0  0  0  0  0  0  0
    2.8449   17.6521   38.7277 H   0  0  0  0  0  0  0  0  0  0  0  0
    2.7114   13.5512   42.8379 H   0  0  0  0  0  0  0  0  0  0  0  0
    1.8460   13.2534   41.2923 H   0  0  0  0  0  0  0  0  0  0  0  0
    3.4004   14.1537   41.2923 H   0  0  0  0  0  0  0  0  0  0  0  0
    1.8037   15.8638   40.0691 H   0  0  0  0  0  0  0  0  0  0  0  0
    3.0655   16.5414   41.3300 H   0  0  0  0  0  0  0  0  0  0  0  0
    0.5827   14.8324   43.8533 H   0  0  0  0  0  0  0  0  0  0  0  0
   -2.0028   18.5250   44.6186 H   0  0  0  0  0  0  0  0  0  0  0  0
   -0.4242   18.8503   44.2960 H   0  0  0  0  0  0  0  0  0  0  0  0
   -0.7292   16.1128   44.9252 H   0  0  0  0  0  0  0  0  0  0  0  0
   -1.8734   16.6254   43.6134 H   0  0  0  0  0  0  0  0  0  0  0  0
   -1.4622   18.4721   46.7498 H   0  0  0  0  0  0  0  0  0  0  0  0
   -0.8170   16.8469   46.3385 H   0  0  0  0  0  0  0  0  0  0  0  0
    0.2751   18.2732   46.3385 H   0  0  0  0  0  0  0  0  0  0  0  0
  2 20  1  0
  4 20  1  0
  4  3  1  0
  5  6  2  0
  6  1  1  0
  6 17  1  0
  7 11  1  0
  8 22  1  0
  9  5  1  0
  9  8  2  0
 10 13  1  0
 11  9  1  0
 12  2  1  0
 12 13  1  0
 13 15  2  0
 14 11  2  0
 15 19  1  0
 16 21  1  0
 17  4  2  0
 18 16  1  0
 19 18  1  0
 20 19  2  0
 22 17  1  0
 22  2  2  0
  3 23  1  0
  5 24  1  0
  8 25  1  0
 10 26  1  0
 10 27  1  0
 10 28  1  0
 12 29  1  0
 12 30  1  0
 15 31  1  0
 16 32  1  0
 16 33  1  0
 18 34  1  0
 18 35  1  0
 21 36  1  0
 21 37  1  0
 21 38  1  0
M  CHG  2   7  -1  16   1
M  END
>  <mol_id>  (13) 
2026-08-24-6tgu-s0-n100-seed1-0014

>  <rmsd_to_ref>  (13) 


$$$$

     RDKit          3D

 41 43  0  0  0  0  0  0  0  0999 V2000
    2.7023   15.1038   40.5892 C   0  0  0  0  0  0  0  0  0  0  0  0
    2.5525   20.5464   38.9385 N   0  0  0  0  0  0  0  0  0  0  0  0
    1.4316   17.6102   41.8579 C   0  0  0  0  0  0  0  0  0  0  0  0
    4.4111   20.8817   35.2787 O   0  0  0  0  0  0  0  0  0  0  0  0
    0.4608   18.5148   46.1921 C   0  0  0  0  0  0  0  0  0  0  0  0
   -0.1351   17.6635   45.1990 O   0  0  0  0  0  0  0  0  0  0  0  0
    2.3120   18.7476   40.2206 C   0  0  0  0  0  0  0  0  0  0  0  0
    0.0489   20.9407   44.2160 F   0  0  0  0  0  0  0  0  0  0  0  0
    2.6306   16.3251   39.9735 C   0  0  0  0  0  0  0  0  0  0  0  0
    1.0358   18.9645   42.0722 C   0  0  0  0  0  0  0  0  0  0  0  0
    3.3666   15.1463   37.9629 C   0  0  0  0  0  0  0  0  0  0  0  0
    2.1377   17.4219   40.6606 N   0  0  0  0  0  0  0  0  0  0  0  0
    3.4809   13.9448   38.6496 C   0  0  0  0  0  0  0  0  0  0  0  0
   -1.6972   19.3254   44.5367 F   0  0  0  0  0  0  0  0  0  0  0  0
    0.9433   16.8526   43.0578 C   0  0  0  0  0  0  0  0  0  0  0  0
    3.5014   19.6677   36.9901 C   0  0  0  0  0  0  0  0  0  0  0  0
   -1.3944   20.6378   42.9445 F   0  0  0  0  0  0  0  0  0  0  0  0
    0.2013   17.8747   43.9190 C   0  0  0  0  0  0  0  0  0  0  0  0
    2.3822   21.5961   36.0983 O   0  0  0  0  0  0  0  0  0  0  0  0
    0.1741   19.1314   43.2542 C   0  0  0  0  0  0  0  0  0  0  0  0
    4.1797   18.6408   36.6957 O   0  0  0  0  0  0  0  0  0  0  0  0
    3.1702   13.9171   39.9783 C   0  0  0  0  0  0  0  0  0  0  0  0
    2.9408   19.8776   38.1642 C   0  0  0  0  0  0  0  0  0  0  0  0
   -0.7206   20.0320   43.8549 C   0  0  0  0  0  0  0  0  0  0  0  0
    1.5645   19.5831   41.1571 N   0  0  0  0  0  0  0  0  0  0  0  0
    2.8539   19.1159   39.2848 C   0  0  0  0  0  0  0  0  0  0  0  0
    2.9796   16.2928   38.6354 C   0  0  0  0  0  0  0  0  0  0  0  0
    3.9821   12.5922   37.9484 Cl  0  0  0  0  0  0  0  0  0  0  0  0
    3.3326   20.8341   36.0871 C   0  0  0  0  0  0  0  0  0  0  0  0
    2.3716   15.0412   41.6365 H   0  0  0  0  0  0  0  0  0  0  0  0
    2.1575   20.1557   39.8058 H   0  0  0  0  0  0  0  0  0  0  0  0
    0.2697   18.1002   47.1930 H   0  0  0  0  0  0  0  0  0  0  0  0
    1.5458   18.5741   46.0209 H   0  0  0  0  0  0  0  0  0  0  0  0
    0.0231   19.5215   46.1225 H   0  0  0  0  0  0  0  0  0  0  0  0
    3.5836   15.1872   36.8852 H   0  0  0  0  0  0  0  0  0  0  0  0
    0.2633   16.0445   42.7504 H   0  0  0  0  0  0  0  0  0  0  0  0
    1.7732   16.3847   43.6077 H   0  0  0  0  0  0  0  0  0  0  0  0
    3.2814   12.9912   40.5617 H   0  0  0  0  0  0  0  0  0  0  0  0
    3.0260   18.1363   38.8149 H   0  0  0  0  0  0  0  0  0  0  0  0
    3.1933   19.9873   39.8640 H   0  0  0  0  0  0  0  0  0  0  0  0
    2.9475   17.2362   38.0708 H   0  0  0  0  0  0  0  0  0  0  0  0
  3 10  2  0
  3 15  1  0
  4 29  2  0
  6  5  1  0
  7 12  1  0
  7 25  2  0
  9  1  2  0
  9 12  1  0
 10 20  1  0
 11 13  1  0
 11 27  2  0
 12  3  1  0
 13 22  2  0
 15 18  1  0
 16 23  1  0
 17 24  1  0
 18  6  1  0
 19 29  1  0
 20 24  1  0
 20 18  2  0
 21 16  2  0
 22  1  1  0
 23  2  2  3
 23 26  1  0
 24  8  1  0
 24 14  1  0
 25 10  1  0
 26  7  1  0
 27  9  1  0
 28 13  1  0
 29 16  1  0
  1 30  1  0
  2 31  1  0
  5 32  1  0
  5 33  1  0
  5 34  1  0
 11 35  1  0
 15 36  1  0
 15 37  1  0
 22 38  1  0
 26 39  1  0
 26 40  1  0
 27 41  1  0
M  CHG  1  19  -1
M  END
>  <mol_id>  (14) 
2026-08-24-6tgu-s0-n100-seed1-0015

>  <rmsd_to_ref>  (14) 


$$$$

     RDKit          3D

 39 40  0  0  0  0  0  0  0  0999 V2000
    2.9869   19.5435   38.3975 O   0  0  0  0  0  0  0  0  0  0  0  0
    1.8477   20.8164   36.6330 O   0  0  0  0  0  0  0  0  0  0  0  0
   -0.3465   20.0438   41.6135 C   0  0  0  0  0  0  0  0  0  0  0  0
    3.1475   16.9556   37.6593 O   0  0  0  0  0  0  0  0  0  0  0  0
    0.4054   17.5830   42.5577 C   0  0  0  0  0  0  0  0  0  0  0  0
    0.8957   19.9311   41.1212 O   0  0  0  0  0  0  0  0  0  0  0  0
    1.2436   17.7038   41.2332 C   0  0  0  0  0  0  0  0  0  0  0  0
    1.6530   18.9239   40.3669 C   0  0  0  0  0  0  0  0  0  0  0  0
    0.2676   15.2066   43.5187 C   0  0  0  0  0  0  0  0  0  0  0  0
    0.5774   16.2711   42.8913 C   0  0  0  0  0  0  0  0  0  0  0  0
    2.3944   18.5512   39.2239 C   0  0  0  0  0  0  0  0  0  0  0  0
    3.1816   20.5704   40.5648 F   0  0  0  0  0  0  0  0  0  0  0  0
   -0.5325   16.6885   45.4853 C   0  0  0  0  0  0  0  0  0  0  0  0
   -0.6473   17.7798   44.7873 C   0  0  0  0  0  0  0  0  0  0  0  0
    3.2723   19.1788   36.1416 O   0  0  0  0  0  0  0  0  0  0  0  0
   -0.3015   18.4380   43.6361 C   0  0  2  0  0  0  0  0  0  0  0  0
   -0.2775   20.7079   42.9236 C   0  0  0  0  0  0  0  0  0  0  0  0
   -0.6009   19.7840   43.8582 O   0  0  0  0  0  0  0  0  0  0  0  0
    2.7097   19.9047   37.0180 C   0  0  0  0  0  0  0  0  0  0  0  0
    2.1777   16.2017   39.6982 C   0  0  0  0  0  0  0  0  0  0  0  0
   -0.3994   15.2617   44.8285 C   0  0  0  0  0  0  0  0  0  0  0  0
    2.5343   14.7405   39.3926 C   0  0  0  0  0  0  0  0  0  0  0  0
    2.5924   17.2429   38.8472 C   0  0  0  0  0  0  0  0  0  0  0  0
    1.5950   16.4735   40.8907 N   0  0  0  0  0  0  0  0  0  0  0  0
   -0.7909   19.0442   41.7285 H   0  0  0  0  0  0  0  0  0  0  0  0
   -0.9690   20.6356   40.9263 H   0  0  0  0  0  0  0  0  0  0  0  0
    3.2875   16.0122   37.3936 H   0  0  0  0  0  0  0  0  0  0  0  0
    0.5031   14.2289   43.0731 H   0  0  0  0  0  0  0  0  0  0  0  0
    1.4559   15.9717   42.3009 H   0  0  0  0  0  0  0  0  0  0  0  0
    3.2438   20.6154   41.5026 H   0  0  0  0  0  0  0  0  0  0  0  0
   -0.5282   16.7645   46.5826 H   0  0  0  0  0  0  0  0  0  0  0  0
   -1.2929   18.4599   45.3622 H   0  0  0  0  0  0  0  0  0  0  0  0
    0.6554   18.5638   44.1638 H   0  0  0  0  0  0  0  0  0  0  0  0
    0.7406   21.0842   43.1021 H   0  0  0  0  0  0  0  0  0  0  0  0
   -0.9681   21.5632   42.9646 H   0  0  0  0  0  0  0  0  0  0  0  0
   -0.7840   14.3572   45.3225 H   0  0  0  0  0  0  0  0  0  0  0  0
    2.7464   14.2105   40.3328 H   0  0  0  0  0  0  0  0  0  0  0  0
    1.6894   14.2561   38.8811 H   0  0  0  0  0  0  0  0  0  0  0  0
    3.4225   14.7077   38.7446 H   0  0  0  0  0  0  0  0  0  0  0  0
  1 11  1  0
  2 19  1  0
  3 17  1  0
  4 23  1  0
  5 10  2  0
  5 16  1  0
  6  3  1  0
  7  5  1  0
  8  6  1  0
  8  7  1  0
  9 21  2  0
 10  9  1  0
 11  8  2  0
 14 13  2  0
 15 19  2  0
 16 18  1  0
 16 14  1  0
 17 18  1  0
 19  1  1  0
 20 24  1  0
 21 13  1  0
 22 20  1  0
 23 11  1  0
 23 20  2  0
 24  7  2  0
  3 25  1  0
  3 26  1  0
  4 27  1  0
  9 28  1  0
 10 29  1  0
 12 30  1  0
 13 31  1  0
 14 32  1  0
 16 33  1  6
 17 34  1  0
 17 35  1  0
 21 36  1  0
 22 37  1  0
 22 38  1  0
 22 39  1  0
M  CHG  1   2  -1
M  END
>  <mol_id>  (15) 
2026-08-24-6tgu-s0-n100-seed1-0016

>  <rmsd_to_ref>  (15) 


$$$$

     RDKit          3D

 48 52  0  0  0  0  0  0  0  0999 V2000
    6.5984   13.0659   38.7338 N   0  0  0  0  0  0  0  0  0  0  0  0
    0.3837   19.2060   42.1589 C   0  0  0  0  0  0  0  0  0  0  0  0
    4.2317   20.4490   35.7321 C   0  0  0  0  0  0  0  0  0  0  0  0
   -0.1336   15.2568   45.7801 C   0  0  0  0  0  0  0  0  0  0  0  0
    5.9834   14.0384   36.7777 C   0  0  0  0  0  0  0  0  0  0  0  0
   -0.8914   18.2556   44.0047 C   0  0  0  0  0  0  0  0  0  0  0  0
    4.1136   15.0479   38.5239 C   0  0  0  0  0  0  0  0  0  0  0  0
    2.4912   18.9938   38.5047 C   0  0  0  0  0  0  0  0  0  0  0  0
    2.6139   16.7015   40.3688 C   0  0  0  0  0  0  0  0  0  0  0  0
    3.0354   17.8864   38.1399 C   0  0  0  0  0  0  0  0  0  0  0  0
    1.9634   17.9320   40.6825 C   0  0  0  0  0  0  0  0  0  0  0  0
    3.5745   19.6397   36.7832 C   0  0  1  0  0  0  0  0  0  0  0  0
    0.5766   20.3576   41.4120 C   0  0  0  0  0  0  0  0  0  0  0  0
   -0.0795   16.1014   44.9913 C   0  0  0  0  0  0  0  0  0  0  0  0
    1.9725   19.1346   39.8353 C   0  0  0  0  0  0  0  0  0  0  0  0
    7.1623   13.5055   36.5496 N   0  0  0  0  0  0  0  0  0  0  0  0
   -0.0083   17.0197   43.9515 C   0  0  0  0  0  0  0  0  0  0  0  0
    1.0104   17.9522   41.8299 C   0  0  0  0  0  0  0  0  0  0  0  0
    3.7524   18.2643   37.0165 O   0  0  0  0  0  0  0  0  0  0  0  0
   -0.6367   19.2900   43.0483 N   0  0  0  0  0  0  0  0  0  0  0  0
    3.2628   16.5941   38.9148 C   0  0  0  0  0  0  0  0  0  0  0  0
    5.5705   13.8074   38.0366 N   0  0  0  0  0  0  0  0  0  0  0  0
    5.2326   14.8303   35.8651 N   0  0  0  0  0  0  0  0  0  0  0  0
    1.4165   20.2812   40.2883 C   0  0  0  0  0  0  0  0  0  0  0  0
    7.4666   12.8915   37.8508 N   0  0  0  0  0  0  0  0  0  0  0  0
    2.5165   15.5673   41.1204 C   0  0  0  0  0  0  0  0  0  0  0  0
    0.9683   16.8345   42.8533 C   0  0  0  0  0  0  0  0  0  0  0  0
    3.8459   14.1268   39.6029 C   0  0  0  0  0  0  0  0  0  0  0  0
    3.1239   14.2649   40.7806 C   0  0  0  0  0  0  0  0  0  0  0  0
    2.6024   20.1096   37.6228 C   0  0  0  0  0  0  0  0  0  0  0  0
    4.9332   21.1561   36.1987 H   0  0  0  0  0  0  0  0  0  0  0  0
    4.7808   19.7853   35.0479 H   0  0  0  0  0  0  0  0  0  0  0  0
    3.4693   21.0069   35.1685 H   0  0  0  0  0  0  0  0  0  0  0  0
   -0.1852   14.4537   46.5301 H   0  0  0  0  0  0  0  0  0  0  0  0
   -1.6953   18.3515   44.7494 H   0  0  0  0  0  0  0  0  0  0  0  0
    4.7222   14.8462   37.6301 H   0  0  0  0  0  0  0  0  0  0  0  0
    2.7473   19.4157   36.0935 H   0  0  0  0  0  0  0  0  0  0  0  0
    0.0870   21.3024   41.6904 H   0  0  0  0  0  0  0  0  0  0  0  0
    4.6711   14.1087   38.4380 H   0  0  0  0  0  0  0  0  0  0  0  0
    5.5821   14.9845   34.9085 H   0  0  0  0  0  0  0  0  0  0  0  0
    4.3395   15.2495   36.1608 H   0  0  0  0  0  0  0  0  0  0  0  0
    1.6354   21.2114   39.7434 H   0  0  0  0  0  0  0  0  0  0  0  0
    1.9390   15.6277   42.0547 H   0  0  0  0  0  0  0  0  0  0  0  0
    1.6171   15.9488   42.7850 H   0  0  0  0  0  0  0  0  0  0  0  0
    4.2970   13.1328   39.4669 H   0  0  0  0  0  0  0  0  0  0  0  0
    3.0046   13.4070   41.4586 H   0  0  0  0  0  0  0  0  0  0  0  0
    2.9219   21.0198   38.1513 H   0  0  0  0  0  0  0  0  0  0  0  0
    1.6661   20.4120   37.1310 H   0  0  0  0  0  0  0  0  0  0  0  0
  2 20  1  0
  5 22  1  0
  6 17  1  0
  7 21  2  0
  7 28  1  0
  8 15  1  0
  9 11  1  0
  9 26  2  0
 10  8  2  0
 10 21  1  0
 11 18  2  0
 12  3  1  0
 12 19  1  0
 12 30  1  0
 13  2  2  0
 14  4  3  0
 15 24  2  0
 15 11  1  0
 16  5  2  0
 16 25  1  0
 17 14  1  0
 18  2  1  0
 18 27  1  0
 19 10  1  0
 20  6  2  0
 21  9  1  0
 22  1  1  0
 23  5  1  0
 24 13  1  0
 25  1  2  0
 27 17  2  0
 28 29  2  0
 29 26  1  0
 30  8  1  0
  3 31  1  0
  3 32  1  0
  3 33  1  0
  4 34  1  0
  6 35  1  0
  7 36  1  0
 12 37  1  1
 13 38  1  0
 22 39  1  0
 23 40  1  0
 23 41  1  0
 24 42  1  0
 26 43  1  0
 27 44  1  0
 28 45  1  0
 29 46  1  0
 30 47  1  0
 30 48  1  0
M  END
>  <mol_id>  (16) 
2026-08-24-6tgu-s0-n100-seed1-0017

>  <rmsd_to_ref>  (16) 


$$$$

     RDKit          3D

 30 32  0  0  0  0  0  0  0  0999 V2000
    5.3961   16.5178   37.1399 C   0  0  0  0  0  0  0  0  0  0  0  0
   -1.2472   20.6066   43.1507 N   0  0  0  0  0  0  0  0  0  0  0  0
    2.7112   18.8505   38.5191 C   0  0  0  0  0  0  0  0  0  0  0  0
   -0.6346   19.4200   42.9900 C   0  0  0  0  0  0  0  0  0  0  0  0
    1.9459   17.8919   40.6647 C   0  0  0  0  0  0  0  0  0  0  0  0
    1.9828   18.9455   39.7253 C   0  0  0  0  0  0  0  0  0  0  0  0
    2.1907   21.4852   37.3707 Cl  0  0  0  0  0  0  0  0  0  0  0  0
    1.1430   17.9937   41.7798 C   0  0  0  0  0  0  0  0  0  0  0  0
    3.7664   19.5177   36.5768 O   0  0  0  0  0  0  0  0  0  0  0  0
    5.7592   15.3481   36.5692 C   0  0  0  0  0  0  0  0  0  0  0  0
    5.1911   17.6597   36.4375 N   0  0  0  0  0  0  0  0  0  0  0  0
   -0.1268   21.4437   41.2133 C   0  0  0  0  0  0  0  0  0  0  0  0
    0.4682   20.2351   41.0343 C   0  0  0  0  0  0  0  0  0  0  0  0
    3.5208   17.9012   38.1255 N   0  0  0  0  0  0  0  0  0  0  0  0
   -1.0588   18.4371   43.8596 N   0  0  0  0  0  0  0  0  0  0  0  0
    2.9040   19.9167   37.4897 C   0  0  0  0  0  0  0  0  0  0  0  0
    0.3104   19.1675   41.9445 C   0  0  0  0  0  0  0  0  0  0  0  0
    4.1172   18.3281   36.9763 C   0  0  0  0  0  0  0  0  0  0  0  0
    1.3397   20.0445   39.8785 N   0  0  0  0  0  0  0  0  0  0  0  0
   -1.0089   21.5699   42.2501 C   0  0  0  0  0  0  0  0  0  0  0  0
    5.2595   16.5452   38.2311 H   0  0  0  0  0  0  0  0  0  0  0  0
    2.5572   16.9911   40.5066 H   0  0  0  0  0  0  0  0  0  0  0  0
    1.1343   17.1940   42.5351 H   0  0  0  0  0  0  0  0  0  0  0  0
    5.9105   14.4552   37.1935 H   0  0  0  0  0  0  0  0  0  0  0  0
    5.9035   15.2888   35.4803 H   0  0  0  0  0  0  0  0  0  0  0  0
    5.7494   17.9751   35.6313 H   0  0  0  0  0  0  0  0  0  0  0  0
    0.0936   22.2909   40.5473 H   0  0  0  0  0  0  0  0  0  0  0  0
   -0.6464   17.4944   43.8121 H   0  0  0  0  0  0  0  0  0  0  0  0
   -1.7880   18.6457   44.5565 H   0  0  0  0  0  0  0  0  0  0  0  0
   -1.5558   22.5189   42.3512 H   0  0  0  0  0  0  0  0  0  0  0  0
  3  6  1  0
  4  2  1  0
  4 15  1  0
  5  8  2  0
  6 19  2  0
  6  5  1  0
  7 16  1  0
  8 17  1  0
  9 18  1  0
  9 16  1  0
 10  1  2  3
 11 18  1  0
 11  1  1  0
 12 20  1  0
 13 12  2  0
 13 17  1  0
 14  3  1  0
 16  3  2  0
 17  4  2  0
 18 14  2  0
 19 13  1  0
 20  2  2  0
  1 21  1  0
  5 22  1  0
  8 23  1  0
 10 24  1  0
 10 25  1  0
 11 26  1  0
 12 27  1  0
 15 28  1  0
 15 29  1  0
 20 30  1  0
M  END
>  <mol_id>  (17) 
2026-08-24-6tgu-s0-n100-seed1-0018

>  <rmsd_to_ref>  (17) 


$$$$

     RDKit          3D

 52 54  0  0  0  0  0  0  0  0999 V2000
    1.0959   18.6274   41.1801 C   0  0  2  0  0  0  0  0  0  0  0  0
    0.0501   19.1678   44.5596 O   0  0  0  0  0  0  0  0  0  0  0  0
   -0.2075   16.9187   43.1258 C   0  0  2  0  0  0  0  0  0  0  0  0
   -0.7197   19.4111   43.3050 C   0  0  0  0  0  0  0  0  0  0  0  0
    2.9081   15.6521   39.3252 C   0  0  0  0  0  0  0  0  0  0  0  0
    3.2335   17.2202   37.5653 C   0  0  0  0  0  0  0  0  0  0  0  0
    0.8264   22.1001   41.6888 O   0  0  0  0  0  0  0  0  0  0  0  0
    2.6739   14.3081   41.3256 C   0  0  0  0  0  0  0  0  0  0  0  0
   -1.4722   18.0615   42.9106 C   0  0  0  0  0  0  0  0  0  0  0  0
    0.7391   16.1655   44.2402 C   0  0  0  0  0  0  0  0  0  0  0  0
    1.5270   20.1395   40.9334 C   0  0  0  0  0  0  0  0  0  0  0  0
    2.6917   16.7462   39.8834 C   0  0  1  0  0  0  0  0  0  0  0  0
    3.6878   17.4493   36.4171 O   0  0  0  0  0  0  0  0  0  0  0  0
    3.1727   15.8959   37.9951 C   0  0  0  0  0  0  0  0  0  0  0  0
    0.8917   17.5602   42.1555 C   0  0  1  0  0  0  0  0  0  0  0  0
    0.2958   14.5781   44.2956 C   0  0  0  0  0  0  0  0  0  0  0  0
    2.8591   19.6039   38.0846 C   0  0  0  0  0  0  0  0  0  0  0  0
    0.5733   20.9752   41.7147 C   0  0  0  0  0  0  0  0  0  0  0  0
    3.1377   19.9831   36.7757 C   0  0  0  0  0  0  0  0  0  0  0  0
    2.1283   18.0694   39.9895 C   0  0  1  0  0  0  0  0  0  0  0  0
    1.3781   16.1330   41.8578 C   0  0  0  0  0  0  0  0  0  0  0  0
   -0.5218   20.3153   42.3147 N   0  0  0  0  0  0  0  0  0  0  0  0
    2.7634   15.7417   41.1963 C   0  0  1  0  0  0  0  0  0  0  0  0
    2.6909   18.3242   38.5794 C   0  0  1  0  0  0  0  0  0  0  0  0
    3.1382   20.5164   35.8207 O   0  0  0  0  0  0  0  0  0  0  0  0
    0.0444   18.7885   41.4600 H   0  0  0  0  0  0  0  0  0  0  0  0
   -0.9257   16.0888   43.1995 H   0  0  0  0  0  0  0  0  0  0  0  0
    3.7729   15.1591   39.7933 H   0  0  0  0  0  0  0  0  0  0  0  0
    2.0331   14.9930   39.4255 H   0  0  0  0  0  0  0  0  0  0  0  0
    2.7668   14.0289   42.3856 H   0  0  0  0  0  0  0  0  0  0  0  0
    1.7025   13.9650   40.9399 H   0  0  0  0  0  0  0  0  0  0  0  0
    3.4841   13.8367   40.7499 H   0  0  0  0  0  0  0  0  0  0  0  0
   -1.8258   18.0838   41.8692 H   0  0  0  0  0  0  0  0  0  0  0  0
   -2.3792   17.8555   43.4980 H   0  0  0  0  0  0  0  0  0  0  0  0
    1.7966   16.2479   43.9487 H   0  0  0  0  0  0  0  0  0  0  0  0
    0.6120   16.6326   45.2280 H   0  0  0  0  0  0  0  0  0  0  0  0
    2.5560   20.3050   41.2851 H   0  0  0  0  0  0  0  0  0  0  0  0
    1.5010   20.3947   39.8638 H   0  0  0  0  0  0  0  0  0  0  0  0
    2.9549   17.6048   39.2481 H   0  0  0  0  0  0  0  0  0  0  0  0
    2.3845   15.3996   37.4100 H   0  0  0  0  0  0  0  0  0  0  0  0
    4.1942   15.5156   37.8474 H   0  0  0  0  0  0  0  0  0  0  0  0
    1.2590   18.5139   42.5626 H   0  0  0  0  0  0  0  0  0  0  0  0
    0.3152   14.2282   45.3382 H   0  0  0  0  0  0  0  0  0  0  0  0
   -0.7208   14.4671   43.8904 H   0  0  0  0  0  0  0  0  0  0  0  0
    0.9973   13.9804   43.6950 H   0  0  0  0  0  0  0  0  0  0  0  0
    2.7608   20.4212   38.8143 H   0  0  0  0  0  0  0  0  0  0  0  0
    1.8356   18.9531   40.5755 H   0  0  0  0  0  0  0  0  0  0  0  0
    1.3654   15.6154   42.8283 H   0  0  0  0  0  0  0  0  0  0  0  0
    0.6962   15.8696   41.0359 H   0  0  0  0  0  0  0  0  0  0  0  0
   -1.4127   20.5982   41.8820 H   0  0  0  0  0  0  0  0  0  0  0  0
    3.8095   15.8911   41.5020 H   0  0  0  0  0  0  0  0  0  0  0  0
    3.6825   18.3768   39.0526 H   0  0  0  0  0  0  0  0  0  0  0  0
  1 11  1  0
  1 15  1  0
  3 10  1  0
  4  2  2  0
  6 14  1  0
  6 24  1  0
  7 18  2  0
  9  3  1  0
  9  4  1  0
 10 16  1  0
 11 18  1  0
 12  5  1  0
 12 20  1  0
 12 23  1  0
 13  6  2  0
 14  5  1  0
 15 21  1  0
 15  3  1  0
 17 24  1  0
 18 22  1  0
 19 17  2  0
 20  1  1  0
 22  4  1  0
 23  8  1  0
 23 21  1  0
 24 20  1  0
 25 19  2  0
  1 26  1  6
  3 27  1  6
  5 28  1  0
  5 29  1  0
  8 30  1  0
  8 31  1  0
  8 32  1  0
  9 33  1  0
  9 34  1  0
 10 35  1  0
 10 36  1  0
 11 37  1  0
 11 38  1  0
 12 39  1  1
 14 40  1  0
 14 41  1  0
 15 42  1  1
 16 43  1  0
 16 44  1  0
 16 45  1  0
 17 46  1  0
 20 47  1  1
 21 48  1  0
 21 49  1  0
 22 50  1  0
 23 51  1  1
 24 52  1  6
M  END
>  <mol_id>  (18) 
2026-08-24-6tgu-s0-n100-seed1-0019

>  <rmsd_to_ref>  (18) 


$$$$

     RDKit          3D

 30 30  0  0  0  0  0  0  0  0999 V2000
    1.2680   20.7410   40.6320 C   0  0  0  0  0  0  0  0  0  0  0  0
    3.9270   17.3430   37.1060 C   0  0  0  0  0  0  0  0  0  0  0  0
    1.1460   17.9750   41.8370 C   0  0  0  0  0  0  0  0  0  0  0  0
    3.2670   20.0550   39.6550 C   0  0  0  0  0  0  0  0  0  0  0  0
    0.0370   20.0210   42.7030 C   0  0  0  0  0  0  0  0  0  0  0  0
   -0.3580   17.5520   44.0140 Cl  0  0  0  0  0  0  0  0  0  0  0  0
    2.1190   19.6520   40.3540 C   0  0  2  0  0  0  0  0  0  0  0  0
    0.3340   18.6510   42.7550 C   0  0  1  0  0  0  0  0  0  0  0  0
    3.3580   19.4910   37.2950 C   0  0  0  0  0  0  0  0  0  0  0  0
    0.4890   21.0250   41.7220 C   0  0  0  0  0  0  0  0  0  0  0  0
    3.6160   18.5370   36.4860 O   0  0  0  0  0  0  0  0  0  0  0  0
    3.7240   19.1500   38.6080 C   0  0  0  0  0  0  0  0  0  0  0  0
   -0.7580   20.4510   43.5670 O   0  0  0  0  0  0  0  0  0  0  0  0
    2.8870   20.6150   36.9760 O   0  0  0  0  0  0  0  0  0  0  0  0
    1.8800   18.3370   40.7210 C   0  0  0  0  0  0  0  0  0  0  0  0
    0.5546   20.7360   39.7947 H   0  0  0  0  0  0  0  0  0  0  0  0
    2.0594   21.4756   40.8415 H   0  0  0  0  0  0  0  0  0  0  0  0
    3.8922   17.4766   38.1973 H   0  0  0  0  0  0  0  0  0  0  0  0
    3.1991   16.5743   36.8073 H   0  0  0  0  0  0  0  0  0  0  0  0
    4.9374   17.0270   36.8073 H   0  0  0  0  0  0  0  0  0  0  0  0
    1.2179   16.8991   42.0545 H   0  0  0  0  0  0  0  0  0  0  0  0
    3.0541   21.0288   39.1898 H   0  0  0  0  0  0  0  0  0  0  0  0
    4.0758   20.0815   40.4001 H   0  0  0  0  0  0  0  0  0  0  0  0
    2.6417   19.8170   41.3077 H   0  0  0  0  0  0  0  0  0  0  0  0
    1.2157   18.8657   43.3767 H   0  0  0  0  0  0  0  0  0  0  0  0
    1.0494   21.7742   42.3005 H   0  0  0  0  0  0  0  0  0  0  0  0
   -0.4633   21.2806   41.2343 H   0  0  0  0  0  0  0  0  0  0  0  0
    3.3139   18.1523   38.8232 H   0  0  0  0  0  0  0  0  0  0  0  0
    4.8226   19.2003   38.6318 H   0  0  0  0  0  0  0  0  0  0  0  0
    2.2965   17.5374   40.0908 H   0  0  0  0  0  0  0  0  0  0  0  0
  1 10  1  0
  3  8  1  0
  5  8  1  0
  5 13  2  0
  7  4  1  0
  7  1  1  0
  7 15  1  0
  8  6  1  0
  9 12  1  0
 10  5  1  0
 11  2  1  0
 11  9  1  0
 12  4  1  0
 14  9  2  0
 15  3  2  0
  1 16  1  0
  1 17  1  0
  2 18  1  0
  2 19  1  0
  2 20  1  0
  3 21  1  0
  4 22  1  0
  4 23  1  0
  7 24  1  1
  8 25  1  1
 10 26  1  0
 10 27  1  0
 12 28  1  0
 12 29  1  0
 15 30  1  0
M  END
>  <mol_id>  (19) 
2026-08-24-6tgu-s0-n100-seed1-0020

>  <rmsd_to_ref>  (19) 


$$$$

     RDKit          3D

 28 29  0  0  0  0  0  0  0  0999 V2000
    2.1560   16.4820   41.0059 C   0  0  0  0  0  0  0  0  0  0  0  0
    2.2971   18.1274   38.7054 N   0  0  0  0  0  0  0  0  0  0  0  0
    1.6369   19.1410   40.8609 C   0  0  0  0  0  0  0  0  0  0  0  0
    2.8477   18.6891   37.6504 C   0  0  0  0  0  0  0  0  0  0  0  0
    2.6157   13.9517   40.7544 C   0  0  0  0  0  0  0  0  0  0  0  0
    1.0613   18.5760   42.0118 C   0  0  0  0  0  0  0  0  0  0  0  0
    1.6039   15.1910   42.7473 N   0  0  0  0  0  0  0  0  0  0  0  0
    2.5865   16.9957   39.5230 C   0  0  0  0  0  0  0  0  0  0  0  0
    0.0711   20.6276   42.5840 C   0  0  0  0  0  0  0  0  0  0  0  0
    3.3139   16.1871   38.9641 O   0  0  0  0  0  0  0  0  0  0  0  0
    1.5177   17.2977   42.0313 C   0  0  1  0  0  0  0  0  0  0  0  0
    1.5400   20.5368   40.5871 C   0  0  0  0  0  0  0  0  0  0  0  0
    0.6671   21.2405   41.4755 C   0  0  0  0  0  0  0  0  0  0  0  0
    3.5342   18.2020   36.4929 O   0  0  0  0  0  0  0  0  0  0  0  0
    2.1148   15.1792   41.4843 C   0  0  0  0  0  0  0  0  0  0  0  0
    1.2832   16.3594   43.0624 N   0  0  0  0  0  0  0  0  0  0  0  0
    0.2392   19.3140   42.8523 C   0  0  0  0  0  0  0  0  0  0  0  0
    2.5727   19.8246   37.6803 O   0  0  0  0  0  0  0  0  0  0  0  0
    1.4514   18.6266   39.0160 H   0  0  0  0  0  0  0  0  0  0  0  0
    2.1747   18.4911   40.1549 H   0  0  0  0  0  0  0  0  0  0  0  0
    3.1288   13.2867   41.4647 H   0  0  0  0  0  0  0  0  0  0  0  0
    1.7644   13.4203   40.3038 H   0  0  0  0  0  0  0  0  0  0  0  0
    3.3178   14.2559   39.9643 H   0  0  0  0  0  0  0  0  0  0  0  0
   -0.5531   21.2338   43.2570 H   0  0  0  0  0  0  0  0  0  0  0  0
    1.7615   18.3694   41.9874 H   0  0  0  0  0  0  0  0  0  0  0  0
    2.0862   21.0275   39.7681 H   0  0  0  0  0  0  0  0  0  0  0  0
    0.4563   22.3023   41.2803 H   0  0  0  0  0  0  0  0  0  0  0  0
   -0.2608   18.8432   43.7116 H   0  0  0  0  0  0  0  0  0  0  0  0
  1 15  2  0
  1 11  1  0
  2  8  1  0
  3 12  2  0
  3  6  1  0
  4 18  1  0
  4  2  1  0
  5 15  1  0
  6 17  2  0
  7 16  2  0
  8  1  1  0
 10  8  2  0
 11  6  1  0
 11 16  1  0
 12 13  1  0
 13  9  2  0
 14  4  2  0
 15  7  1  0
 17  9  1  0
  2 19  1  0
  3 20  1  0
  5 21  1  0
  5 22  1  0
  5 23  1  0
  9 24  1  0
 11 25  1  1
 12 26  1  0
 13 27  1  0
 17 28  1  0
M  CHG  1  18  -1
M  END
>  <mol_id>  (20) 
2026-08-24-6tgu-s0-n100-seed1-0021

>  <rmsd_to_ref>  (20) 


$$$$

     RDKit          3D

 48 50  0  0  0  0  0  0  0  0999 V2000
    1.2633   14.9856   42.0994 C   0  0  0  0  0  0  0  0  0  0  0  0
    1.7670   16.3398   42.5469 C   0  0  0  0  0  0  0  0  0  0  0  0
    2.6742   17.6921   39.0383 N   0  0  0  0  0  0  0  0  0  0  0  0
    0.4101   18.5293   42.7587 C   0  0  0  0  0  0  0  0  0  0  0  0
    0.9099   21.1523   41.2685 C   0  0  0  0  0  0  0  0  0  0  0  0
    1.7665   21.1189   38.3630 C   0  0  0  0  0  0  0  0  0  0  0  0
    2.2409   13.9085   41.9754 C   0  0  0  0  0  0  0  0  0  0  0  0
    4.7122   15.7499   37.9578 S   0  0  0  0  0  0  0  0  0  0  0  0
   -0.9125   15.0691   44.0666 N   0  0  0  0  0  0  0  0  0  0  0  0
   -0.2669   16.0890   43.7927 C   0  0  0  0  0  0  0  0  0  0  0  0
    3.6496   17.8851   36.9053 O   0  0  0  0  0  0  0  0  0  0  0  0
    3.4852   17.0502   37.9467 C   0  0  0  0  0  0  0  0  0  0  0  0
    0.5874   17.1066   43.1625 C   0  0  1  0  0  0  0  0  0  0  0  0
    3.1249   19.2039   37.3702 C   0  0  1  0  0  0  0  0  0  0  0  0
    1.8713   20.0558   39.3220 C   0  0  0  0  0  0  0  0  0  0  0  0
    3.3037   20.0915   36.3856 C   0  0  0  0  0  0  0  0  0  0  0  0
    4.9099   15.6331   36.2090 C   0  0  0  0  0  0  0  0  0  0  0  0
    2.7149   19.0942   38.7350 C   0  0  1  0  0  0  0  0  0  0  0  0
   -0.1647   19.3787   43.6560 C   0  0  0  0  0  0  0  0  0  0  0  0
    2.8401   21.8860   35.0663 O   0  0  0  0  0  0  0  0  0  0  0  0
    1.8928   21.6964   37.1865 C   0  0  0  0  0  0  0  0  0  0  0  0
   -0.3826   20.7358   43.3846 C   0  0  0  0  0  0  0  0  0  0  0  0
    2.6766   21.3407   36.1230 C   0  0  0  0  0  0  0  0  0  0  0  0
    0.2116   21.4469   42.4146 C   0  0  0  0  0  0  0  0  0  0  0  0
    1.0709   18.7623   41.5377 C   0  0  0  0  0  0  0  0  0  0  0  0
    1.2423   19.9641   40.7176 C   0  0  0  0  0  0  0  0  0  0  0  0
    0.5050   14.6596   42.8265 H   0  0  0  0  0  0  0  0  0  0  0  0
    0.8956   15.1485   41.0756 H   0  0  0  0  0  0  0  0  0  0  0  0
    2.5616   16.2131   43.2969 H   0  0  0  0  0  0  0  0  0  0  0  0
    2.1786   16.8955   41.6915 H   0  0  0  0  0  0  0  0  0  0  0  0
    1.2565   22.0310   40.7049 H   0  0  0  0  0  0  0  0  0  0  0  0
    2.5938   13.6167   42.9755 H   0  0  0  0  0  0  0  0  0  0  0  0
    1.7722   13.0427   41.4848 H   0  0  0  0  0  0  0  0  0  0  0  0
    3.0933   14.2545   41.3723 H   0  0  0  0  0  0  0  0  0  0  0  0
    0.3709   17.8577   43.9365 H   0  0  0  0  0  0  0  0  0  0  0  0
    4.1158   19.4549   37.7765 H   0  0  0  0  0  0  0  0  0  0  0  0
    4.3725   20.3436   36.4512 H   0  0  0  0  0  0  0  0  0  0  0  0
    2.7919   19.5192   35.5980 H   0  0  0  0  0  0  0  0  0  0  0  0
    5.9548   15.3820   35.9742 H   0  0  0  0  0  0  0  0  0  0  0  0
    4.2470   14.8479   35.8167 H   0  0  0  0  0  0  0  0  0  0  0  0
    4.6513   16.5967   35.7457 H   0  0  0  0  0  0  0  0  0  0  0  0
    3.4367   19.5537   39.4263 H   0  0  0  0  0  0  0  0  0  0  0  0
   -1.1518   18.9528   43.8884 H   0  0  0  0  0  0  0  0  0  0  0  0
    0.6064   19.4298   44.4388 H   0  0  0  0  0  0  0  0  0  0  0  0
    1.2784   22.5963   37.0366 H   0  0  0  0  0  0  0  0  0  0  0  0
   -1.1049   21.2651   44.0235 H   0  0  0  0  0  0  0  0  0  0  0  0
    0.1165   22.5308   42.5763 H   0  0  0  0  0  0  0  0  0  0  0  0
    1.5526   17.8671   41.1173 H   0  0  0  0  0  0  0  0  0  0  0  0
  1  2  1  0
  4 13  1  0
  4 19  1  0
  5 24  1  0
  6 15  2  0
  7  1  1  0
 10  9  3  0
 11 14  1  0
 11 12  1  0
 12  8  1  0
 12  3  2  0
 13  2  1  0
 13 10  1  0
 14 16  1  0
 14 18  1  0
 15 26  1  0
 17  8  1  0
 18  3  1  0
 18 15  1  0
 20 23  2  0
 21  6  2  0
 22 19  1  0
 23 16  1  0
 23 21  1  0
 24 22  2  0
 25  4  2  0
 26  5  2  0
 26 25  1  0
  1 27  1  0
  1 28  1  0
  2 29  1  0
  2 30  1  0
  5 31  1  0
  7 32  1  0
  7 33  1  0
  7 34  1  0
 13 35  1  1
 14 36  1  6
 16 37  1  0
 16 38  1  0
 17 39  1  0
 17 40  1  0
 17 41  1  0
 18 42  1  1
 19 43  1  0
 19 44  1  0
 21 45  1  0
 22 46  1  0
 24 47  1  0
 25 48  1  0
M  END
>  <mol_id>  (21) 
2026-08-24-6tgu-s0-n100-seed1-0022

>  <rmsd_to_ref>  (21) 


$$$$

     RDKit          3D

 44 46  0  0  0  0  0  0  0  0999 V2000
    3.6048   17.3954   38.2199 C   0  0  0  0  0  0  0  0  0  0  0  0
    3.2162   15.4776   40.2184 C   0  0  1  0  0  0  0  0  0  0  0  0
    2.8685   18.8232   38.2191 C   0  0  2  0  0  0  0  0  0  0  0  0
    3.7771   14.9758   39.1370 C   0  0  0  0  0  0  0  0  0  0  0  0
   -1.4789   19.1870   44.2286 N   0  0  0  0  0  0  0  0  0  0  0  0
    2.8207   16.9227   40.3247 C   0  0  0  0  0  0  0  0  0  0  0  0
    4.2424   15.3072   37.9608 C   0  0  0  0  0  0  0  0  0  0  0  0
    0.2629   17.9898   43.1278 C   0  0  0  0  0  0  0  0  0  0  0  0
    4.2318   16.5526   37.3540 C   0  0  0  0  0  0  0  0  0  0  0  0
   -0.6295   18.1091   44.2406 C   0  0  2  0  0  0  0  0  0  0  0  0
    4.0927   19.3022   36.1853 O   0  0  0  0  0  0  0  0  0  0  0  0
    3.0840   19.5039   36.8074 C   0  0  0  0  0  0  0  0  0  0  0  0
    2.1730   20.2728   36.5567 O   0  0  0  0  0  0  0  0  0  0  0  0
   -0.5820   19.9343   42.2052 C   0  0  0  0  0  0  0  0  0  0  0  0
    1.3539   16.9554   42.7735 C   0  0  0  0  0  0  0  0  0  0  0  0
    2.8854   19.7320   39.3079 C   0  0  0  0  0  0  0  0  0  0  0  0
    1.3499   18.6638   41.2089 N   0  0  0  0  0  0  0  0  0  0  0  0
    0.3484   18.8831   42.1988 C   0  0  0  0  0  0  0  0  0  0  0  0
    2.9006   14.5079   41.3522 C   0  0  0  0  0  0  0  0  0  0  0  0
    2.1484   17.4939   41.6316 C   0  0  0  0  0  0  0  0  0  0  0  0
   -1.3858   20.0404   43.2439 C   0  0  0  0  0  0  0  0  0  0  0  0
   -0.7358   17.1577   45.4222 C   0  0  0  0  0  0  0  0  0  0  0  0
    3.0842   17.7093   39.0186 C   0  0  0  0  0  0  0  0  0  0  0  0
    2.9453   17.8554   37.4693 H   0  0  0  0  0  0  0  0  0  0  0  0
    4.4585   17.2501   38.8982 H   0  0  0  0  0  0  0  0  0  0  0  0
    4.1850   15.7083   40.6854 H   0  0  0  0  0  0  0  0  0  0  0  0
    2.3179   18.3363   37.4006 H   0  0  0  0  0  0  0  0  0  0  0  0
    3.8967   13.8906   39.2717 H   0  0  0  0  0  0  0  0  0  0  0  0
    4.7005   14.4937   37.3791 H   0  0  0  0  0  0  0  0  0  0  0  0
    5.2608   16.8942   37.1681 H   0  0  0  0  0  0  0  0  0  0  0  0
    3.7145   16.5196   36.3838 H   0  0  0  0  0  0  0  0  0  0  0  0
    0.1212   18.7066   44.7785 H   0  0  0  0  0  0  0  0  0  0  0  0
   -0.6383   20.6471   41.3692 H   0  0  0  0  0  0  0  0  0  0  0  0
    1.5166   15.9903   43.2756 H   0  0  0  0  0  0  0  0  0  0  0  0
    2.7163   19.1833   40.2461 H   0  0  0  0  0  0  0  0  0  0  0  0
    3.8620   20.2366   39.3491 H   0  0  0  0  0  0  0  0  0  0  0  0
    2.0911   20.4809   39.1728 H   0  0  0  0  0  0  0  0  0  0  0  0
    2.9049   15.0494   42.3096 H   0  0  0  0  0  0  0  0  0  0  0  0
    1.9086   14.0619   41.1877 H   0  0  0  0  0  0  0  0  0  0  0  0
    3.6605   13.7130   41.3770 H   0  0  0  0  0  0  0  0  0  0  0  0
   -2.0362   20.9265   43.2856 H   0  0  0  0  0  0  0  0  0  0  0  0
   -0.8063   17.7372   46.3545 H   0  0  0  0  0  0  0  0  0  0  0  0
   -1.6341   16.5328   45.3101 H   0  0  0  0  0  0  0  0  0  0  0  0
    0.1562   16.5149   45.4567 H   0  0  0  0  0  0  0  0  0  0  0  0
  1 23  1  0
  2  6  1  0
  2 19  1  0
  3 23  1  0
  3 16  1  0
  4  2  1  0
  6 20  1  0
  7  4  2  0
  8 10  1  0
  9  7  1  0
  9  1  1  0
 10  5  1  0
 10 22  1  0
 11 12  2  0
 12  3  1  0
 13 12  1  0
 14 21  1  0
 15  8  2  0
 17 20  2  0
 17 18  1  0
 18 14  2  0
 18  8  1  0
 20 15  1  0
 21  5  2  0
 23  6  2  0
  1 24  1  0
  1 25  1  0
  2 26  1  1
  3 27  1  6
  4 28  1  0
  7 29  1  0
  9 30  1  0
  9 31  1  0
 10 32  1  1
 14 33  1  0
 15 34  1  0
 16 35  1  0
 16 36  1  0
 16 37  1  0
 19 38  1  0
 19 39  1  0
 19 40  1  0
 21 41  1  0
 22 42  1  0
 22 43  1  0
 22 44  1  0
M  CHG  1  13  -1
M  END
>  <mol_id>  (22) 
2026-08-24-6tgu-s0-n100-seed1-0023

>  <rmsd_to_ref>  (22) 


$$$$

     RDKit          3D

 55 58  0  0  0  0  0  0  0  0999 V2000
    2.1557   11.2991   35.3753 C   0  0  0  0  0  0  0  0  0  0  0  0
    2.4784   17.9408   40.0913 C   0  0  0  0  0  0  0  0  0  0  0  0
    2.4434   18.9603   39.1545 C   0  0  0  0  0  0  0  0  0  0  0  0
    2.7231   16.2496   38.5596 C   0  0  0  0  0  0  0  0  0  0  0  0
   -0.1533   18.5752   44.4691 C   0  0  0  0  0  0  0  0  0  0  0  0
   -0.7108   15.5637   46.0180 C   0  0  0  0  0  0  0  0  0  0  0  0
    3.7689   19.4068   35.6869 C   0  0  0  0  0  0  0  0  0  0  0  0
   -0.5817   17.6256   47.1463 C   0  0  0  0  0  0  0  0  0  0  0  0
   -0.4543   16.2670   45.2914 N   0  0  0  0  0  0  0  0  0  0  0  0
   -0.7063   19.8125   44.1517 N   0  0  0  0  0  0  0  0  0  0  0  0
    0.7906   18.5108   42.3262 C   0  0  0  0  0  0  0  0  0  0  0  0
    3.0178   19.5717   36.8262 C   0  0  0  0  0  0  0  0  0  0  0  0
    2.2831   20.7129   36.6641 C   0  0  0  0  0  0  0  0  0  0  0  0
    2.9186   12.3983   35.8211 N   0  0  0  0  0  0  0  0  0  0  0  0
   -0.3602   20.3821   43.0529 C   0  0  0  0  0  0  0  0  0  0  0  0
   -1.8633   17.2797   47.9775 C   0  0  0  0  0  0  0  0  0  0  0  0
    1.0891   20.4488   40.8687 C   0  0  0  0  0  0  0  0  0  0  0  0
    2.7829   16.6520   39.8686 C   0  0  0  0  0  0  0  0  0  0  0  0
    2.8876   17.1761   37.5835 C   0  0  0  0  0  0  0  0  0  0  0  0
    0.5807   19.8021   42.0217 C   0  0  0  0  0  0  0  0  0  0  0  0
    2.6374   12.9422   37.0564 C   0  0  0  0  0  0  0  0  0  0  0  0
   -0.4442   17.5817   45.7157 C   0  0  2  0  0  0  0  0  0  0  0  0
    2.5281   21.1427   35.3462 N   0  0  0  0  0  0  0  0  0  0  0  0
    2.7775   14.2714   37.2211 N   0  0  0  0  0  0  0  0  0  0  0  0
    2.0291   20.5230   39.5644 S   0  0  0  0  0  0  0  0  0  0  0  0
    2.4689   14.8240   38.3812 C   0  0  0  0  0  0  0  0  0  0  0  0
    1.9513   14.1815   39.2745 O   0  0  0  0  0  0  0  0  0  0  0  0
   -0.6632   15.2435   44.8354 O   0  0  0  0  0  0  0  0  0  0  0  0
    0.4485   17.8139   47.6792 O   0  0  0  0  0  0  0  0  0  0  0  0
    0.4252   17.8379   43.4291 C   0  0  0  0  0  0  0  0  0  0  0  0
    3.4531   20.4178   34.8000 N   0  0  0  0  0  0  0  0  0  0  0  0
    2.3010   12.1695   37.9600 O   0  0  0  0  0  0  0  0  0  0  0  0
    2.8831   18.5711   37.8701 C   0  0  0  0  0  0  0  0  0  0  0  0
    1.8169   10.7124   36.2418 H   0  0  0  0  0  0  0  0  0  0  0  0
    1.2821   11.6625   34.8143 H   0  0  0  0  0  0  0  0  0  0  0  0
    2.7732   10.6651   34.7220 H   0  0  0  0  0  0  0  0  0  0  0  0
    2.2306   18.2158   41.1272 H   0  0  0  0  0  0  0  0  0  0  0  0
    0.0511   15.1938   46.7200 H   0  0  0  0  0  0  0  0  0  0  0  0
   -1.4696   15.5040   46.8121 H   0  0  0  0  0  0  0  0  0  0  0  0
    4.4996   18.6037   35.5108 H   0  0  0  0  0  0  0  0  0  0  0  0
    1.3349   17.9258   41.5702 H   0  0  0  0  0  0  0  0  0  0  0  0
    3.3944   19.4555   37.8533 H   0  0  0  0  0  0  0  0  0  0  0  0
    1.6342   21.1958   37.4096 H   0  0  0  0  0  0  0  0  0  0  0  0
    3.6712   12.7872   35.2352 H   0  0  0  0  0  0  0  0  0  0  0  0
   -0.7844   21.3756   42.8452 H   0  0  0  0  0  0  0  0  0  0  0  0
   -1.6374   17.3618   49.0509 H   0  0  0  0  0  0  0  0  0  0  0  0
   -2.6693   17.9817   47.7178 H   0  0  0  0  0  0  0  0  0  0  0  0
   -2.1833   16.2527   47.7477 H   0  0  0  0  0  0  0  0  0  0  0  0
    0.1277   20.6414   40.3702 H   0  0  0  0  0  0  0  0  0  0  0  0
    1.9557   20.7630   41.4690 H   0  0  0  0  0  0  0  0  0  0  0  0
    3.0615   15.9656   40.6817 H   0  0  0  0  0  0  0  0  0  0  0  0
    3.0279   16.8421   36.5449 H   0  0  0  0  0  0  0  0  0  0  0  0
   -1.5243   17.6530   45.5204 H   0  0  0  0  0  0  0  0  0  0  0  0
    3.1238   14.8549   36.4462 H   0  0  0  0  0  0  0  0  0  0  0  0
    0.5745   16.7512   43.5123 H   0  0  0  0  0  0  0  0  0  0  0  0
  1 14  1  0
  3 25  1  0
  3  2  1  0
  4 18  1  0
  5 22  1  0
  7 12  1  0
  8 29  2  0
  8 16  1  0
  9 22  1  0
  9  6  1  0
 10  5  1  0
 11 30  1  0
 12 33  1  0
 13 12  1  0
 14 21  1  0
 15 10  2  0
 17 20  1  0
 18  2  2  0
 19 33  1  0
 19  4  2  0
 20 11  2  0
 20 15  1  0
 21 24  1  0
 21 32  2  0
 22  8  1  0
 23 13  2  0
 24 26  1  0
 25 17  1  0
 26  4  1  0
 26 27  2  0
 28  9  1  0
 28  6  1  0
 30  5  2  0
 31 23  1  0
 31  7  2  0
 33  3  2  0
  1 34  1  0
  1 35  1  0
  1 36  1  0
  2 37  1  0
  6 38  1  0
  6 39  1  0
  7 40  1  0
 11 41  1  0
 12 42  1  0
 13 43  1  0
 14 44  1  0
 15 45  1  0
 16 46  1  0
 16 47  1  0
 16 48  1  0
 17 49  1  0
 17 50  1  0
 18 51  1  0
 19 52  1  0
 22 53  1  6
 24 54  1  0
 30 55  1  0
M  END
>  <mol_id>  (23) 
2026-08-24-6tgu-s0-n100-seed1-0024

>  <rmsd_to_ref>  (23) 


$$$$

     RDKit          3D

 39 41  0  0  0  0  0  0  0  0999 V2000
    1.6088   20.9937   39.4156 C   0  0  0  0  0  0  0  0  0  0  0  0
    2.7044   17.0355   39.7505 C   0  0  0  0  0  0  0  0  0  0  0  0
    2.1917   18.6776   39.5726 C   0  0  0  0  0  0  0  0  0  0  0  0
    2.5220   15.9469   40.5221 N   0  0  0  0  0  0  0  0  0  0  0  0
    0.9717   18.1574   41.4946 N   0  0  0  0  0  0  0  0  0  0  0  0
    1.4306   18.9962   40.6045 N   0  0  0  0  0  0  0  0  0  0  0  0
   -0.4831   19.6706   42.8978 C   0  0  0  0  0  0  0  0  0  0  0  0
    3.1063   19.6535   37.4251 C   0  0  0  0  0  0  0  0  0  0  0  0
   -0.2104   17.1785   43.3347 C   0  0  0  0  0  0  0  0  0  0  0  0
   -1.0895   17.4143   44.3761 C   0  0  0  0  0  0  0  0  0  0  0  0
    3.4768   18.3657   37.7036 C   0  0  0  0  0  0  0  0  0  0  0  0
   -1.5341   16.0493   45.1541 C   0  0  0  0  0  0  0  0  0  0  0  0
   -1.3528   19.7526   43.9452 N   0  0  0  0  0  0  0  0  0  0  0  0
    2.8809   17.9455   38.9834 C   0  0  1  0  0  0  0  0  0  0  0  0
    3.0078   13.7567   40.3388 O   0  0  0  0  0  0  0  0  0  0  0  0
    0.4206   15.6229   43.2353 Cl  0  0  0  0  0  0  0  0  0  0  0  0
    2.9766   14.9353   39.8379 C   0  0  0  0  0  0  0  0  0  0  0  0
   -1.6714   18.6399   44.6334 C   0  0  0  0  0  0  0  0  0  0  0  0
    3.4928   15.1046   38.4141 C   0  0  0  0  0  0  0  0  0  0  0  0
    0.0327   18.3988   42.5006 C   0  0  0  0  0  0  0  0  0  0  0  0
    2.2955   20.2061   38.5112 C   0  0  0  0  0  0  0  0  0  0  0  0
    0.8868   20.2704   40.6912 C   0  0  0  0  0  0  0  0  0  0  0  0
    1.5495   22.0836   39.2799 H   0  0  0  0  0  0  0  0  0  0  0  0
    1.7382   17.4550   40.0675 H   0  0  0  0  0  0  0  0  0  0  0  0
    3.7834   17.0051   39.9626 H   0  0  0  0  0  0  0  0  0  0  0  0
    2.1065   15.9194   41.4642 H   0  0  0  0  0  0  0  0  0  0  0  0
    1.3486   17.1999   41.4492 H   0  0  0  0  0  0  0  0  0  0  0  0
   -0.1797   20.5811   42.3603 H   0  0  0  0  0  0  0  0  0  0  0  0
    3.3804   20.1989   36.5099 H   0  0  0  0  0  0  0  0  0  0  0  0
    4.1213   17.7401   37.0686 H   0  0  0  0  0  0  0  0  0  0  0  0
   -1.6156   16.2518   46.2323 H   0  0  0  0  0  0  0  0  0  0  0  0
   -2.5071   15.7089   44.7703 H   0  0  0  0  0  0  0  0  0  0  0  0
   -0.7790   15.2677   44.9839 H   0  0  0  0  0  0  0  0  0  0  0  0
    1.9460   17.6886   38.4637 H   0  0  0  0  0  0  0  0  0  0  0  0
   -2.4248   18.7100   45.4318 H   0  0  0  0  0  0  0  0  0  0  0  0
    4.3114   15.8394   38.4059 H   0  0  0  0  0  0  0  0  0  0  0  0
    3.8635   14.1385   38.0411 H   0  0  0  0  0  0  0  0  0  0  0  0
    2.6761   15.4583   37.7677 H   0  0  0  0  0  0  0  0  0  0  0  0
    0.1689   20.6799   41.4172 H   0  0  0  0  0  0  0  0  0  0  0  0
  1 22  2  0
  2  4  1  0
  3  6  1  0
  5 20  1  0
  6 22  1  0
  6  5  1  0
  7 13  2  0
  8 11  2  0
  8 21  1  0
  9 10  1  0
 10 18  2  0
 10 12  1  0
 11 14  1  0
 13 18  1  0
 14  2  1  0
 14  3  1  0
 16  9  1  0
 17 15  2  0
 17  4  1  0
 19 17  1  0
 20  7  1  0
 20  9  2  0
 21  3  2  0
 21  1  1  0
  1 23  1  0
  2 24  1  0
  2 25  1  0
  4 26  1  0
  5 27  1  0
  7 28  1  0
  8 29  1  0
 11 30  1  0
 12 31  1  0
 12 32  1  0
 12 33  1  0
 14 34  1  1
 18 35  1  0
 19 36  1  0
 19 37  1  0
 19 38  1  0
 22 39  1  0
M  END
>  <mol_id>  (24) 
2026-08-24-6tgu-s0-n100-seed1-0025

>  <rmsd_to_ref>  (24) 


$$$$

     RDKit          3D

 34 36  0  0  0  0  0  0  0  0999 V2000
    0.3591   16.7016   42.1025 C   0  0  0  0  0  0  0  0  0  0  0  0
    4.0629   18.3013   36.5992 N   0  0  0  0  0  0  0  0  0  0  0  0
    1.7953   17.0944   40.2295 C   0  0  2  0  0  0  0  0  0  0  0  0
    2.6549   19.8386   37.8933 C   0  0  0  0  0  0  0  0  0  0  0  0
    1.6862   20.0913   40.6059 Cl  0  0  0  0  0  0  0  0  0  0  0  0
    1.2389   16.1371   41.2264 C   0  0  1  0  0  0  0  0  0  0  0  0
    1.7899   14.9081   41.2901 N   0  0  0  0  0  0  0  0  0  0  0  0
    3.1392   17.6139   38.6753 C   0  0  0  0  0  0  0  0  0  0  0  0
   -0.5277   18.7337   42.0630 C   0  0  0  0  0  0  0  0  0  0  0  0
    2.7887   16.6020   39.4875 O   0  0  0  0  0  0  0  0  0  0  0  0
   -0.2354   16.3582   43.1973 C   0  0  0  0  0  0  0  0  0  0  0  0
    2.1899   13.8633   41.2958 N   0  0  0  0  0  0  0  0  0  0  0  0
   -1.0853   17.2290   43.8546 C   0  0  0  0  0  0  0  0  0  0  0  0
    1.7629   18.4890   40.1022 C   0  0  1  0  0  0  0  0  0  0  0  0
    2.5034   18.7791   38.8817 C   0  0  0  0  0  0  0  0  0  0  0  0
    3.8998   17.4119   37.5931 C   0  0  0  0  0  0  0  0  0  0  0  0
    0.1891   17.9916   41.5240 N   0  0  0  0  0  0  0  0  0  0  0  0
   -0.1326   15.1602   43.8300 O   0  0  0  0  0  0  0  0  0  0  0  0
    3.5919   20.4394   35.7682 O   0  0  0  0  0  0  0  0  0  0  0  0
    3.4156   19.5107   36.7515 C   0  0  0  0  0  0  0  0  0  0  0  0
   -1.1922   18.3813   43.3566 C   0  0  0  0  0  0  0  0  0  0  0  0
    0.6987   17.1446   40.1598 H   0  0  0  0  0  0  0  0  0  0  0  0
    1.6496   20.1314   37.5561 H   0  0  0  0  0  0  0  0  0  0  0  0
    3.2094   20.6420   38.4002 H   0  0  0  0  0  0  0  0  0  0  0  0
    0.4872   15.3418   41.1147 H   0  0  0  0  0  0  0  0  0  0  0  0
    2.6992   15.2767   40.9767 H   0  0  0  0  0  0  0  0  0  0  0  0
   -0.7211   19.7175   41.6105 H   0  0  0  0  0  0  0  0  0  0  0  0
    2.2820   13.5363   42.2682 H   0  0  0  0  0  0  0  0  0  0  0  0
    1.5429   13.2453   40.7856 H   0  0  0  0  0  0  0  0  0  0  0  0
   -1.6358   16.9327   44.7597 H   0  0  0  0  0  0  0  0  0  0  0  0
    0.9755   18.2352   40.8272 H   0  0  0  0  0  0  0  0  0  0  0  0
    4.4284   16.4506   37.5114 H   0  0  0  0  0  0  0  0  0  0  0  0
   -0.6334   14.9987   44.6686 H   0  0  0  0  0  0  0  0  0  0  0  0
   -1.7857   19.1433   43.8831 H   0  0  0  0  0  0  0  0  0  0  0  0
  1 11  2  0
  2 20  1  0
  2 16  2  0
  3  6  1  0
  4 15  1  0
  6  7  1  0
  6  1  1  0
  8 15  2  0
  8 10  1  0
  9 21  1  0
 10  3  1  0
 11 18  1  0
 11 13  1  0
 12  7  1  0
 14  3  1  0
 14  5  1  0
 15 14  1  0
 16  8  1  0
 17  9  2  0
 17  1  1  0
 19 20  2  0
 20  4  1  0
 21 13  2  0
  3 22  1  6
  4 23  1  0
  4 24  1  0
  6 25  1  6
  7 26  1  0
  9 27  1  0
 12 28  1  0
 12 29  1  0
 13 30  1  0
 14 31  1  6
 16 32  1  0
 18 33  1  0
 21 34  1  0
M  END
>  <mol_id>  (25) 
2026-08-24-6tgu-s0-n100-seed1-0026

>  <rmsd_to_ref>  (25) 


$$$$

     RDKit          3D

 21 21  0  0  0  0  0  0  0  0999 V2000
    2.0297   21.4919   38.8646 O   0  0  0  0  0  0  0  0  0  0  0  0
    1.1859   19.3419   41.0363 C   0  0  0  0  0  0  0  0  0  0  0  0
    2.4733   18.0921   39.4667 O   0  0  0  0  0  0  0  0  0  0  0  0
    2.2424   20.2258   38.7256 C   0  0  1  0  0  0  0  0  0  0  0  0
    0.2999   18.3971   43.0666 C   0  0  0  0  0  0  0  0  0  0  0  0
    2.8935   19.8173   37.4447 C   0  0  0  0  0  0  0  0  0  0  0  0
   -0.2461   19.5815   43.4169 C   0  0  0  0  0  0  0  0  0  0  0  0
    0.9518   18.1938   41.8373 C   0  0  0  0  0  0  0  0  0  0  0  0
    1.9274   19.1326   39.6749 C   0  0  0  0  0  0  0  0  0  0  0  0
   -0.0338   20.7057   42.6388 C   0  0  0  0  0  0  0  0  0  0  0  0
    0.7358   20.6134   41.4398 C   0  0  0  0  0  0  0  0  0  0  0  0
    1.9876   21.7156   39.8281 H   0  0  0  0  0  0  0  0  0  0  0  0
    1.2528   20.1108   38.2592 H   0  0  0  0  0  0  0  0  0  0  0  0
    0.2320   17.5562   43.7725 H   0  0  0  0  0  0  0  0  0  0  0  0
    3.6296   19.0245   37.6441 H   0  0  0  0  0  0  0  0  0  0  0  0
    2.1293   19.4413   36.7485 H   0  0  0  0  0  0  0  0  0  0  0  0
    3.4011   20.6851   36.9983 H   0  0  0  0  0  0  0  0  0  0  0  0
   -0.8626   19.6529   44.3251 H   0  0  0  0  0  0  0  0  0  0  0  0
    1.2657   17.1912   41.5114 H   0  0  0  0  0  0  0  0  0  0  0  0
   -0.4591   21.6729   42.9446 H   0  0  0  0  0  0  0  0  0  0  0  0
    0.9705   21.5104   40.8480 H   0  0  0  0  0  0  0  0  0  0  0  0
  1  4  1  0
  2 11  1  0
  2  8  2  0
  4  6  1  0
  4  9  1  0
  5  7  2  0
  8  5  1  0
  9  3  2  0
  9  2  1  0
 10  7  1  0
 11 10  2  0
  1 12  1  0
  4 13  1  6
  5 14  1  0
  6 15  1  0
  6 16  1  0
  6 17  1  0
  7 18  1  0
  8 19  1  0
 10 20  1  0
 11 21  1  0
M  END
>  <mol_id>  (26) 
2026-08-24-6tgu-s0-n100-seed1-0027

>  <rmsd_to_ref>  (26) 


$$$$

     RDKit          3D

 38 40  0  0  0  0  0  0  0  0999 V2000
    2.5882   21.1805   35.2553 F   0  0  0  0  0  0  0  0  0  0  0  0
    0.3640   15.3693   42.6537 C   0  0  0  0  0  0  0  0  0  0  0  0
    0.7890   18.3640   41.1635 C   0  0  0  0  0  0  0  0  0  0  0  0
    2.5452   20.4906   37.2123 C   0  0  1  0  0  0  0  0  0  0  0  0
   -0.9287   18.3298   45.0052 C   0  0  0  0  0  0  0  0  0  0  0  0
    3.4705   19.6071   35.7457 F   0  0  0  0  0  0  0  0  0  0  0  0
    1.3029   21.5445   38.9197 C   0  0  0  0  0  0  0  0  0  0  0  0
    0.7672   19.4164   40.2794 C   0  0  2  0  0  0  0  0  0  0  0  0
    0.4668   21.6486   39.9959 C   0  0  0  0  0  0  0  0  0  0  0  0
   -0.1475   15.1340   44.8531 C   0  0  0  0  0  0  0  0  0  0  0  0
    1.5836   17.2974   40.5128 C   0  0  0  0  0  0  0  0  0  0  0  0
   -0.6178   17.2339   44.2335 C   0  0  0  0  0  0  0  0  0  0  0  0
    4.3886   20.5619   36.4743 F   0  0  0  0  0  0  0  0  0  0  0  0
    1.6746   19.0820   39.0593 C   0  0  0  0  0  0  0  0  0  0  0  0
    0.0200   14.6251   43.4344 C   0  0  0  0  0  0  0  0  0  0  0  0
   -0.1168   17.2572   42.8641 C   0  0  0  0  0  0  0  0  0  0  0  0
    2.1219   21.0859   38.0039 C   0  0  0  0  0  0  0  0  0  0  0  0
    2.2081   19.2913   37.6677 O   0  0  0  0  0  0  0  0  0  0  0  0
    0.5799   16.4601   42.3206 N   0  0  0  0  0  0  0  0  0  0  0  0
    0.2185   20.6727   40.6216 C   0  0  0  0  0  0  0  0  0  0  0  0
    2.9681   20.6136   35.8779 C   0  0  0  0  0  0  0  0  0  0  0  0
   -0.7889   16.2069   44.9853 C   0  0  0  0  0  0  0  0  0  0  0  0
    0.0918   18.4424   42.1796 N   0  0  0  0  0  0  0  0  0  0  0  0
    2.1121   17.7556   39.3510 N   0  0  0  0  0  0  0  0  0  0  0  0
    0.6202   14.7551   41.7778 H   0  0  0  0  0  0  0  0  0  0  0  0
    3.3841   21.1302   36.9007 H   0  0  0  0  0  0  0  0  0  0  0  0
   -0.8585   19.3411   44.5781 H   0  0  0  0  0  0  0  0  0  0  0  0
   -1.2476   18.1947   46.0493 H   0  0  0  0  0  0  0  0  0  0  0  0
   -0.1552   19.8168   39.8336 H   0  0  0  0  0  0  0  0  0  0  0  0
    0.0324   22.6195   40.2763 H   0  0  0  0  0  0  0  0  0  0  0  0
    0.8565   15.2889   45.2749 H   0  0  0  0  0  0  0  0  0  0  0  0
   -0.7432   14.3687   45.3723 H   0  0  0  0  0  0  0  0  0  0  0  0
    2.3968   16.9872   41.1855 H   0  0  0  0  0  0  0  0  0  0  0  0
    0.9292   16.4396   40.2982 H   0  0  0  0  0  0  0  0  0  0  0  0
   -0.1845   13.5760   43.1745 H   0  0  0  0  0  0  0  0  0  0  0  0
   -0.4545   20.7470   41.4884 H   0  0  0  0  0  0  0  0  0  0  0  0
   -1.8505   15.9360   44.8867 H   0  0  0  0  0  0  0  0  0  0  0  0
   -0.3939   16.5753   45.9435 H   0  0  0  0  0  0  0  0  0  0  0  0
  1 21  1  0
  2 15  2  0
  3 23  2  3
  4 21  1  0
  4 18  1  0
  4 17  1  0
  6 21  1  0
  7  9  1  0
  8 20  1  0
  8  3  1  0
  9 20  2  0
 10 22  1  0
 11  3  1  0
 12 22  1  0
 12  5  2  3
 14 24  2  0
 14  8  1  0
 15 10  1  0
 16 12  1  0
 17  7  3  0
 18 14  1  0
 19  2  1  0
 19 16  2  0
 21 13  1  0
 23 16  1  0
 24 11  1  0
  2 25  1  0
  4 26  1  1
  5 27  1  0
  5 28  1  0
  8 29  1  6
  9 30  1  0
 10 31  1  0
 10 32  1  0
 11 33  1  0
 11 34  1  0
 15 35  1  0
 20 36  1  0
 22 37  1  0
 22 38  1  0
M  END
>  <mol_id>  (27) 
2026-08-24-6tgu-s0-n100-seed1-0028

>  <rmsd_to_ref>  (27) 


$$$$

     RDKit          3D

 31 33  0  0  0  0  0  0  0  0999 V2000
   -1.5087   18.9881   44.3938 N   0  0  0  0  0  0  0  0  0  0  0  0
    1.4706   17.7941   41.8721 C   0  0  0  0  0  0  0  0  0  0  0  0
    3.6728   18.7567   38.0492 C   0  0  0  0  0  0  0  0  0  0  0  0
    0.4998   18.0292   42.8169 C   0  0  1  0  0  0  0  0  0  0  0  0
    1.5250   20.3107   38.9191 C   0  0  0  0  0  0  0  0  0  0  0  0
   -1.3416   19.5721   43.1974 C   0  0  0  0  0  0  0  0  0  0  0  0
    0.1145   19.5753   41.2477 N   0  0  0  0  0  0  0  0  0  0  0  0
   -1.2025   17.1878   45.9876 N   0  0  0  0  0  0  0  0  0  0  0  0
    3.3786   17.3474   39.8955 O   0  0  0  0  0  0  0  0  0  0  0  0
    3.9921   20.2165   36.2723 O   0  0  0  0  0  0  0  0  0  0  0  0
    1.2094   18.8605   40.8675 C   0  0  0  0  0  0  0  0  0  0  0  0
    2.9549   18.4706   39.2119 C   0  0  0  0  0  0  0  0  0  0  0  0
    1.9015   19.2233   39.6737 C   0  0  0  0  0  0  0  0  0  0  0  0
    4.6538   17.9038   37.5438 C   0  0  0  0  0  0  0  0  0  0  0  0
    3.3315   19.8378   37.3298 C   0  0  0  0  0  0  0  0  0  0  0  0
    2.2457   20.6930   37.7382 C   0  0  0  0  0  0  0  0  0  0  0  0
    5.4216   17.2239   37.1448 N   0  0  0  0  0  0  0  0  0  0  0  0
   -0.8095   17.8942   44.7941 C   0  0  0  0  0  0  0  0  0  0  0  0
    0.2675   17.3953   43.9763 C   0  0  0  0  0  0  0  0  0  0  0  0
   -0.3076   19.1337   42.4277 C   0  0  0  0  0  0  0  0  0  0  0  0
    2.2457   17.0137   41.8615 H   0  0  0  0  0  0  0  0  0  0  0  0
   -0.1732   17.3296   42.2995 H   0  0  0  0  0  0  0  0  0  0  0  0
    0.6501   20.9014   39.2285 H   0  0  0  0  0  0  0  0  0  0  0  0
   -2.0127   20.3726   42.8524 H   0  0  0  0  0  0  0  0  0  0  0  0
   -1.1311   17.8184   46.7989 H   0  0  0  0  0  0  0  0  0  0  0  0
   -2.1749   16.8629   45.8898 H   0  0  0  0  0  0  0  0  0  0  0  0
   -0.5821   16.3775   46.1269 H   0  0  0  0  0  0  0  0  0  0  0  0
    2.9223   17.0747   40.7308 H   0  0  0  0  0  0  0  0  0  0  0  0
    3.7053   21.0207   35.7712 H   0  0  0  0  0  0  0  0  0  0  0  0
    1.9814   21.5976   37.1708 H   0  0  0  0  0  0  0  0  0  0  0  0
    0.8730   16.5318   44.2893 H   0  0  0  0  0  0  0  0  0  0  0  0
  1 18  1  0
  3 12  1  0
  4  2  1  0
  4 19  1  0
  5 13  1  0
  6  1  2  0
  7 20  2  0
 10 15  1  0
 11  7  1  0
 11  2  2  0
 12  9  1  0
 12 13  2  0
 13 11  1  0
 14  3  1  0
 15  3  2  0
 15 16  1  0
 16  5  2  0
 17 14  3  0
 18  8  1  0
 19 18  2  0
 20  4  1  0
 20  6  1  0
  2 21  1  0
  4 22  1  6
  5 23  1  0
  6 24  1  0
  8 25  1  0
  8 26  1  0
  8 27  1  0
  9 28  1  0
 10 29  1  0
 16 30  1  0
 19 31  1  0
M  CHG  1   8   1
M  END
>  <mol_id>  (28) 
2026-08-24-6tgu-s0-n100-seed1-0029

>  <rmsd_to_ref>  (28) 


$$$$

     RDKit          3D

 58 63  0  0  0  0  0  0  0  0999 V2000
    2.8404   18.2224   38.7616 C   0  0  0  0  0  0  0  0  0  0  0  0
   -0.9956   20.3470   43.3380 N   0  0  0  0  0  0  0  0  0  0  0  0
    2.1888   17.3642   40.6219 C   0  0  2  0  0  0  0  0  0  0  0  0
   -1.9921   16.0377   47.3759 C   0  0  0  0  0  0  0  0  0  0  0  0
    0.7408   18.3432   42.4282 C   0  0  0  0  0  0  0  0  0  0  0  0
    4.0359   16.7617   36.6563 C   0  0  0  0  0  0  0  0  0  0  0  0
   -1.0665   16.8813   46.8059 C   0  0  0  0  0  0  0  0  0  0  0  0
    2.2221   18.5312   39.9522 O   0  0  0  0  0  0  0  0  0  0  0  0
    3.1258   16.8257   38.8228 C   0  0  2  0  0  0  0  0  0  0  0  0
    2.9813   19.2976   37.8764 C   0  0  0  0  0  0  0  0  0  0  0  0
   -0.9187   15.4255   46.6709 C   0  0  0  0  0  0  0  0  0  0  0  0
   -0.9069   19.2589   44.0403 C   0  0  0  0  0  0  0  0  0  0  0  0
    3.2129   13.7085   36.5709 C   0  0  0  0  0  0  0  0  0  0  0  0
    1.5134   17.1273   42.0023 C   0  0  0  0  0  0  0  0  0  0  0  0
    3.3233   19.2117   36.6102 C   0  0  0  0  0  0  0  0  0  0  0  0
    4.4998   12.0443   38.2453 C   0  0  0  0  0  0  0  0  0  0  0  0
    3.9136   20.4976   34.5575 C   0  0  0  0  0  0  0  0  0  0  0  0
   -0.1767   20.5814   42.3437 C   0  0  0  0  0  0  0  0  0  0  0  0
    4.4049   13.0110   35.9132 C   0  0  0  0  0  0  0  0  0  0  0  0
    4.4582   13.5595   38.6436 C   0  0  0  0  0  0  0  0  0  0  0  0
    3.1894   20.3041   35.7656 O   0  0  0  0  0  0  0  0  0  0  0  0
    0.6563   19.5874   41.8295 C   0  0  0  0  0  0  0  0  0  0  0  0
    3.6297   14.4305   37.8003 C   0  0  0  0  0  0  0  0  0  0  0  0
    4.9125   11.8953   36.7717 C   0  0  0  0  0  0  0  0  0  0  0  0
    3.7841   17.9443   36.1890 C   0  0  0  0  0  0  0  0  0  0  0  0
   -0.9332   17.5708   45.5077 C   0  0  0  0  0  0  0  0  0  0  0  0
   -1.4378   18.8109   45.1928 N   0  0  0  0  0  0  0  0  0  0  0  0
   -0.2432   17.1294   44.4008 N   0  0  0  0  0  0  0  0  0  0  0  0
    3.7357   15.9950   37.8061 C   0  0  0  0  0  0  0  0  0  0  0  0
    2.6766   16.3201   39.9664 O   0  0  0  0  0  0  0  0  0  0  0  0
   -0.1021   18.2026   43.6002 C   0  0  0  0  0  0  0  0  0  0  0  0
    1.2480   17.1009   40.1164 H   0  0  0  0  0  0  0  0  0  0  0  0
   -2.0399   15.9486   48.4713 H   0  0  0  0  0  0  0  0  0  0  0  0
   -3.0870   15.9571   47.3079 H   0  0  0  0  0  0  0  0  0  0  0  0
    4.6639   16.1899   35.9574 H   0  0  0  0  0  0  0  0  0  0  0  0
   -0.6751   17.8044   47.2585 H   0  0  0  0  0  0  0  0  0  0  0  0
    4.1200   17.0470   39.2382 H   0  0  0  0  0  0  0  0  0  0  0  0
    2.7887   20.3041   38.2761 H   0  0  0  0  0  0  0  0  0  0  0  0
   -1.0945   14.9334   45.7030 H   0  0  0  0  0  0  0  0  0  0  0  0
   -0.1415   14.6799   46.8950 H   0  0  0  0  0  0  0  0  0  0  0  0
    2.4565   12.9549   36.8355 H   0  0  0  0  0  0  0  0  0  0  0  0
    2.7983   14.4382   35.8599 H   0  0  0  0  0  0  0  0  0  0  0  0
    0.8271   16.2710   41.9268 H   0  0  0  0  0  0  0  0  0  0  0  0
    2.2948   16.9238   42.7493 H   0  0  0  0  0  0  0  0  0  0  0  0
    5.2286   11.5209   38.8817 H   0  0  0  0  0  0  0  0  0  0  0  0
    3.4996   11.6083   38.3844 H   0  0  0  0  0  0  0  0  0  0  0  0
    4.8928   20.9444   34.7846 H   0  0  0  0  0  0  0  0  0  0  0  0
    4.0597   19.5284   34.0583 H   0  0  0  0  0  0  0  0  0  0  0  0
    3.3487   21.1699   33.8951 H   0  0  0  0  0  0  0  0  0  0  0  0
   -0.1447   21.5885   41.9022 H   0  0  0  0  0  0  0  0  0  0  0  0
    4.0916   12.6030   34.9409 H   0  0  0  0  0  0  0  0  0  0  0  0
    5.2120   13.7463   35.7798 H   0  0  0  0  0  0  0  0  0  0  0  0
    5.0183   13.9488   39.5066 H   0  0  0  0  0  0  0  0  0  0  0  0
    1.2567   19.7968   40.9319 H   0  0  0  0  0  0  0  0  0  0  0  0
    4.5110   10.9457   36.3882 H   0  0  0  0  0  0  0  0  0  0  0  0
    6.0115   11.9188   36.7309 H   0  0  0  0  0  0  0  0  0  0  0  0
    4.0001   17.9693   35.1107 H   0  0  0  0  0  0  0  0  0  0  0  0
    0.0958   16.1734   44.2218 H   0  0  0  0  0  0  0  0  0  0  0  0
  1  8  1  0
  2 12  1  0
  3 14  1  0
  5 31  1  0
  6 29  2  0
  7  4  1  0
  8  3  1  0
  9 29  1  0
  9  1  1  0
  9 30  1  0
 10  1  2  0
 11  7  1  0
 11  4  1  0
 12 27  1  0
 13 23  1  0
 14  5  1  0
 15 10  1  0
 16 20  1  0
 17 21  1  0
 18  2  2  0
 19 13  1  0
 19 24  1  0
 21 15  1  0
 22  5  2  0
 22 18  1  0
 23 29  1  0
 23 20  2  0
 24 16  1  0
 25  6  1  0
 25 15  2  0
 26  7  1  0
 27 26  2  0
 28 26  1  0
 30  3  1  0
 31 12  2  0
 31 28  1  0
  3 32  1  1
  4 33  1  0
  4 34  1  0
  6 35  1  0
  7 36  1  0
  9 37  1  1
 10 38  1  0
 11 39  1  0
 11 40  1  0
 13 41  1  0
 13 42  1  0
 14 43  1  0
 14 44  1  0
 16 45  1  0
 16 46  1  0
 17 47  1  0
 17 48  1  0
 17 49  1  0
 18 50  1  0
 19 51  1  0
 19 52  1  0
 20 53  1  0
 22 54  1  0
 24 55  1  0
 24 56  1  0
 25 57  1  0
 28 58  1  0
M  END
>  <mol_id>  (29) 
2026-08-24-6tgu-s0-n100-seed1-0030

>  <rmsd_to_ref>  (29) 


$$$$

     RDKit          3D

 63 67  0  0  0  0  0  0  0  0999 V2000
    4.0003   21.1504   34.8106 C   0  0  0  0  0  0  0  0  0  0  0  0
    0.0613   12.3381   43.1501 C   0  0  0  0  0  0  0  0  0  0  0  0
    0.2779   16.1130   42.6456 C   0  0  0  0  0  0  0  0  0  0  0  0
   -0.5672   17.0436   43.2112 C   0  0  0  0  0  0  0  0  0  0  0  0
    1.2525   16.5273   41.7900 O   0  0  0  0  0  0  0  0  0  0  0  0
    2.0202   13.0048   41.9390 C   0  0  0  0  0  0  0  0  0  0  0  0
    4.1527   19.6832   35.1333 C   0  0  0  0  0  0  0  0  0  0  0  0
   -1.6822   20.3351   42.2087 N   0  0  0  0  0  0  0  0  0  0  0  0
   -0.4039   13.7478   43.2153 C   0  0  0  0  0  0  0  0  0  0  0  0
    0.4453   14.6804   42.6637 C   0  0  0  0  0  0  0  0  0  0  0  0
    3.7821   16.9128   38.7243 C   0  0  0  0  0  0  0  0  0  0  0  0
    3.9929   17.3976   36.5507 C   0  0  0  0  0  0  0  0  0  0  0  0
    3.4130   18.6464   36.8498 C   0  0  0  0  0  0  0  0  0  0  0  0
   -1.3482   19.1646   42.6854 C   0  0  0  0  0  0  0  0  0  0  0  0
    1.2663   12.0094   42.5454 C   0  0  0  0  0  0  0  0  0  0  0  0
    2.2866   19.9209   38.0823 C   0  0  2  0  0  0  0  0  0  0  0  0
    3.0609   19.0358   38.4937 C   0  0  2  0  0  0  0  0  0  0  0  0
    0.2615   20.2328   40.8253 C   0  0  0  0  0  0  0  0  0  0  0  0
    3.3954   19.4714   37.2914 C   0  0  1  0  0  0  0  0  0  0  0  0
    1.6333   14.3162   41.9719 C   0  0  0  0  0  0  0  0  0  0  0  0
   -0.2528   18.3251   42.3961 C   0  0  0  0  0  0  0  0  0  0  0  0
    0.5431   18.9889   41.3110 C   0  0  0  0  0  0  0  0  0  0  0  0
    4.1447   16.5965   37.4967 C   0  0  0  0  0  0  0  0  0  0  0  0
    3.1891   19.8887   36.5647 N   0  0  0  0  0  0  0  0  0  0  0  0
    2.9380   20.8260   35.8688 C   0  0  0  0  0  0  0  0  0  0  0  0
    1.6739   10.6565   42.4669 C   0  0  0  0  0  0  0  0  0  0  0  0
   -0.9551   20.7970   41.2723 C   0  0  0  0  0  0  0  0  0  0  0  0
    2.1210   15.4172   41.4910 C   0  0  0  0  0  0  0  0  0  0  0  0
    3.2582   18.0091   39.0802 C   0  0  0  0  0  0  0  0  0  0  0  0
    1.0251   21.0577   39.9775 C   0  0  0  0  0  0  0  0  0  0  0  0
    1.4854   20.8177   38.6821 C   0  0  0  0  0  0  0  0  0  0  0  0
    4.8202   21.8233   35.1024 H   0  0  0  0  0  0  0  0  0  0  0  0
    3.8713   21.6302   33.8292 H   0  0  0  0  0  0  0  0  0  0  0  0
   -0.5593   11.5425   43.5880 H   0  0  0  0  0  0  0  0  0  0  0  0
   -1.6200   16.7469   43.0944 H   0  0  0  0  0  0  0  0  0  0  0  0
   -0.4204   17.1669   44.2944 H   0  0  0  0  0  0  0  0  0  0  0  0
    2.9507   12.7324   41.4196 H   0  0  0  0  0  0  0  0  0  0  0  0
    3.7062   19.0114   34.3855 H   0  0  0  0  0  0  0  0  0  0  0  0
    5.1535   19.2314   35.1993 H   0  0  0  0  0  0  0  0  0  0  0  0
   -1.3636   14.0278   43.6740 H   0  0  0  0  0  0  0  0  0  0  0  0
    3.9494   16.1586   39.5074 H   0  0  0  0  0  0  0  0  0  0  0  0
    4.3023   17.1133   35.5342 H   0  0  0  0  0  0  0  0  0  0  0  0
    3.5498   18.3875   36.7341 H   0  0  0  0  0  0  0  0  0  0  0  0
    3.3023   17.8351   37.5843 H   0  0  0  0  0  0  0  0  0  0  0  0
    2.5865   18.6006   36.1254 H   0  0  0  0  0  0  0  0  0  0  0  0
    4.3708   18.5340   36.3207 H   0  0  0  0  0  0  0  0  0  0  0  0
   -2.0403   18.7662   43.4419 H   0  0  0  0  0  0  0  0  0  0  0  0
    1.3138   20.3552   37.8082 H   0  0  0  0  0  0  0  0  0  0  0  0
    3.3415   18.7831   39.5269 H   0  0  0  0  0  0  0  0  0  0  0  0
    1.3984   18.4444   40.8845 H   0  0  0  0  0  0  0  0  0  0  0  0
    4.5889   15.6091   37.3022 H   0  0  0  0  0  0  0  0  0  0  0  0
    2.8191   21.7084   36.5147 H   0  0  0  0  0  0  0  0  0  0  0  0
    2.0239   20.5629   35.3164 H   0  0  0  0  0  0  0  0  0  0  0  0
    1.7034   10.2232   43.4775 H   0  0  0  0  0  0  0  0  0  0  0  0
    0.9600   10.0938   41.8474 H   0  0  0  0  0  0  0  0  0  0  0  0
    2.6751   10.6008   42.0147 H   0  0  0  0  0  0  0  0  0  0  0  0
   -1.3020   21.7113   40.7688 H   0  0  0  0  0  0  0  0  0  0  0  0
    3.0658   15.4932   40.9328 H   0  0  0  0  0  0  0  0  0  0  0  0
    2.9197   18.0220   40.1267 H   0  0  0  0  0  0  0  0  0  0  0  0
    0.4293   21.9778   39.8868 H   0  0  0  0  0  0  0  0  0  0  0  0
    1.9883   20.9572   40.4992 H   0  0  0  0  0  0  0  0  0  0  0  0
    1.9654   21.7727   38.4224 H   0  0  0  0  0  0  0  0  0  0  0  0
    0.5569   20.3253   38.3573 H   0  0  0  0  0  0  0  0  0  0  0  0
  1  7  1  0
  1 25  1  0
  2  9  2  0
  3  4  1  0
  5  3  1  0
  6 20  1  0
  6 15  2  0
  7 24  1  0
  8 14  2  0
 10  3  2  0
 10  9  1  0
 11 29  2  3
 12 23  2  3
 15  2  1  0
 16 17  1  0
 16 31  1  0
 17 29  1  0
 18 22  1  0
 18 27  2  0
 19 13  1  6
 19 16  1  0
 19 17  1  0
 20 10  1  0
 21 14  1  0
 21  4  1  0
 22 21  2  0
 23 11  1  0
 24 19  1  0
 25 24  1  0
 26 15  1  0
 27  8  1  0
 28  5  1  0
 28 20  2  0
 30 18  1  0
 31 30  1  0
  1 32  1  0
  1 33  1  0
  2 34  1  0
  4 35  1  0
  4 36  1  0
  6 37  1  0
  7 38  1  0
  7 39  1  0
  9 40  1  0
 11 41  1  0
 12 42  1  0
 12 43  1  0
 13 44  1  0
 13 45  1  0
 13 46  1  0
 14 47  1  0
 16 48  1  6
 17 49  1  1
 22 50  1  0
 23 51  1  0
 25 52  1  0
 25 53  1  0
 26 54  1  0
 26 55  1  0
 26 56  1  0
 27 57  1  0
 28 58  1  0
 29 59  1  0
 30 60  1  0
 30 61  1  0
 31 62  1  0
 31 63  1  0
M  END
>  <mol_id>  (30) 
2026-08-24-6tgu-s0-n100-seed1-0031

>  <rmsd_to_ref>  (30) 


$$$$

     RDKit          3D

 30 33  0  0  0  0  0  0  0  0999 V2000
    0.5775   18.5506   41.0726 C   0  0  0  0  0  0  0  0  0  0  0  0
    1.4482   17.9036   40.3427 N   0  0  0  0  0  0  0  0  0  0  0  0
    0.4288   17.7837   42.1377 C   0  0  0  0  0  0  0  0  0  0  0  0
    2.5083   19.9357   37.5337 C   0  0  0  0  0  0  0  0  0  0  0  0
    2.8555   17.2665   38.4936 C   0  0  0  0  0  0  0  0  0  0  0  0
    2.4289   15.7061   40.2777 C   0  0  0  0  0  0  0  0  0  0  0  0
    1.6557   16.6107   40.9445 C   0  0  0  0  0  0  0  0  0  0  0  0
   -0.7593   20.0952   42.3804 C   0  0  0  0  0  0  0  0  0  0  0  0
   -0.9460   19.0930   43.4448 C   0  0  0  0  0  0  0  0  0  0  0  0
   -0.0989   19.7202   41.2145 C   0  0  0  0  0  0  0  0  0  0  0  0
    2.9801   15.9248   39.0345 N   0  0  0  0  0  0  0  0  0  0  0  0
    3.3287   19.0331   36.8050 C   0  0  0  0  0  0  0  0  0  0  0  0
    3.6711   17.7501   37.1925 C   0  0  0  0  0  0  0  0  0  0  0  0
    2.6017   14.4132   41.0818 C   0  0  0  0  0  0  0  0  0  0  0  0
    1.8482   19.6253   38.6777 C   0  0  0  0  0  0  0  0  0  0  0  0
   -0.2017   17.9323   43.2997 C   0  0  0  0  0  0  0  0  0  0  0  0
    1.0151   16.5868   41.9964 N   0  0  0  0  0  0  0  0  0  0  0  0
   -1.2632   21.2985   42.5345 O   0  0  0  0  0  0  0  0  0  0  0  0
    2.0246   18.0966   39.2016 C   0  0  0  0  0  0  0  0  0  0  0  0
    2.4006   20.9583   37.1427 H   0  0  0  0  0  0  0  0  0  0  0  0
   -1.6270   19.2543   44.2934 H   0  0  0  0  0  0  0  0  0  0  0  0
   -0.1261   20.4105   40.3584 H   0  0  0  0  0  0  0  0  0  0  0  0
    3.7288   19.3875   35.8436 H   0  0  0  0  0  0  0  0  0  0  0  0
    4.4158   17.1308   36.6711 H   0  0  0  0  0  0  0  0  0  0  0  0
    2.5422   14.6392   42.1567 H   0  0  0  0  0  0  0  0  0  0  0  0
    1.8054   13.7041   40.8115 H   0  0  0  0  0  0  0  0  0  0  0  0
    3.5815   13.9681   40.8543 H   0  0  0  0  0  0  0  0  0  0  0  0
    1.2329   20.3610   39.2163 H   0  0  0  0  0  0  0  0  0  0  0  0
   -0.1363   17.1787   44.0983 H   0  0  0  0  0  0  0  0  0  0  0  0
   -1.1439   21.9796   41.8260 H   0  0  0  0  0  0  0  0  0  0  0  0
  1 10  2  0
  1  3  1  0
  2  7  1  0
  2  1  1  0
  3 16  2  0
  4 15  1  0
  5 11  1  0
  5 19  1  0
  6 14  1  0
  6  7  1  0
  7 17  2  0
  8 18  1  0
  8  9  2  0
 10  8  1  0
 11  6  2  0
 12 13  1  0
 12  4  2  0
 13  5  2  0
 15 19  2  0
 16  9  1  0
 17  3  1  0
 19  2  1  0
  4 20  1  0
  9 21  1  0
 10 22  1  0
 12 23  1  0
 13 24  1  0
 14 25  1  0
 14 26  1  0
 14 27  1  0
 15 28  1  0
 16 29  1  0
 18 30  1  0
M  END
>  <mol_id>  (31) 
2026-08-24-6tgu-s0-n100-seed1-0032

>  <rmsd_to_ref>  (31) 


$$$$

     RDKit          3D

 20 22  0  0  0  0  0  0  0  0999 V2000
   -1.0630   18.6532   43.5600 N   0  0  0  0  0  0  0  0  0  0  0  0
    3.6270   20.1694   37.7722 C   0  0  0  0  0  0  0  0  0  0  0  0
    2.0455   17.8918   41.9278 C   0  0  0  0  0  0  0  0  0  0  0  0
    0.4885   17.0327   43.7451 N   0  0  0  0  0  0  0  0  0  0  0  0
    2.8491   18.8563   39.8513 N   0  0  0  0  0  0  0  0  0  0  0  0
    2.0692   18.8097   40.8648 C   0  0  0  0  0  0  0  0  0  0  0  0
    4.6733   19.4304   37.5560 O   0  0  0  0  0  0  0  0  0  0  0  0
    1.4788   20.8198   39.4720 S   0  0  0  0  0  0  0  0  0  0  0  0
   -0.0874   18.8641   42.6080 C   0  0  0  0  0  0  0  0  0  0  0  0
    2.8096   19.8131   38.9818 C   0  0  0  0  0  0  0  0  0  0  0  0
   -0.6768   17.5298   44.2262 C   0  0  0  0  0  0  0  0  0  0  0  0
    0.8381   17.9259   42.8019 C   0  0  0  0  0  0  0  0  0  0  0  0
    2.9552   17.0558   42.0440 O   0  0  0  0  0  0  0  0  0  0  0  0
    3.1545   21.0103   36.9496 O   0  0  0  0  0  0  0  0  0  0  0  0
    1.1080   19.8655   40.7840 C   0  0  0  0  0  0  0  0  0  0  0  0
    0.0573   19.8976   41.6616 C   0  0  0  0  0  0  0  0  0  0  0  0
   -0.5466   17.7747   45.2906 H   0  0  0  0  0  0  0  0  0  0  0  0
   -1.4564   16.7662   44.0876 H   0  0  0  0  0  0  0  0  0  0  0  0
    0.1399   20.8385   42.2254 H   0  0  0  0  0  0  0  0  0  0  0  0
   -0.8241   19.7804   41.0141 H   0  0  0  0  0  0  0  0  0  0  0  0
  1 11  1  0
  2 10  1  0
  3 12  1  0
  4 11  1  0
  5  6  1  0
  6 15  2  0
  6  3  1  0
  7  2  1  0
  8 15  1  0
  9  1  2  0
 10  5  2  0
 10  8  1  0
 12  9  1  0
 12  4  2  0
 13  3  2  0
 14  2  2  0
 15 16  1  0
 16  9  1  0
 11 17  1  0
 11 18  1  0
 16 19  1  0
 16 20  1  0
M  CHG  1   7  -1
M  END
>  <mol_id>  (32) 
2026-08-24-6tgu-s0-n100-seed1-0033

>  <rmsd_to_ref>  (32) 


$$$$

     RDKit          3D

 52 54  0  0  0  0  0  0  0  0999 V2000
    4.7749   19.5694   36.8975 O   0  0  0  0  0  0  0  0  0  0  0  0
    1.9288   19.8371   40.6958 C   0  0  0  0  0  0  0  0  0  0  0  0
   -1.4581   18.4066   43.3589 S   0  0  0  0  0  6  0  0  0  0  0  0
   -0.1429   16.5635   42.7725 C   0  0  0  0  0  0  0  0  0  0  0  0
    2.8216   20.4438   36.5013 O   0  0  0  0  0  0  0  0  0  0  0  0
    2.3073   15.9711   41.4759 N   0  0  0  0  0  0  0  0  0  0  0  0
    5.3754   14.1005   38.5954 C   0  0  0  0  0  0  0  0  0  0  0  0
    2.5838   20.0318   39.4316 O   0  0  0  0  0  0  0  0  0  0  0  0
   -1.6909   12.5896   44.5860 C   0  0  0  0  0  0  0  0  0  0  0  0
   -2.5870   19.0391   42.6117 O   0  0  0  0  0  0  0  0  0  0  0  0
   -0.8536   14.8287   44.1850 C   0  0  1  0  0  0  0  0  0  0  0  0
   -1.0114   17.0035   43.5830 N   0  0  0  0  0  0  0  0  0  0  0  0
    3.8102   15.4540   39.8600 C   0  0  0  0  0  0  0  0  0  0  0  0
    0.1645   15.1383   42.9660 C   0  0  0  0  0  0  0  0  0  0  0  0
    4.7846   16.3477   38.0927 N   0  0  0  0  0  0  0  0  0  0  0  0
   -1.4249   16.2012   44.5382 C   0  0  0  0  0  0  0  0  0  0  0  0
    3.4206   18.0187   39.0739 C   0  0  1  0  0  0  0  0  0  0  0  0
    2.2798   14.8978   41.9255 O   0  0  0  0  0  0  0  0  0  0  0  0
    0.2392   17.4559   41.9945 N   0  0  0  0  0  0  0  0  0  0  0  0
   -0.3127   19.7637   41.7376 C   0  0  0  0  0  0  0  0  0  0  0  0
    4.6236   15.3626   38.9256 C   0  0  0  0  0  0  0  0  0  0  0  0
   -0.3749   18.5285   42.2420 C   0  0  0  0  0  0  0  0  0  0  0  0
   -1.5099   19.0039   44.6615 O   0  0  0  0  0  0  0  0  0  0  0  0
    4.0309   17.4135   38.0971 C   0  0  0  0  0  0  0  0  0  0  0  0
    3.1494   19.3623   38.4904 C   0  0  1  0  0  0  0  0  0  0  0  0
    3.5841   19.8099   37.2018 C   0  0  0  0  0  0  0  0  0  0  0  0
    2.9040   17.6536   40.0755 N   0  0  0  0  0  0  0  0  0  0  0  0
    0.6117   20.0897   40.5472 C   0  0  0  0  0  0  0  0  0  0  0  0
   -1.8176   13.7680   44.0310 C   0  0  0  0  0  0  0  0  0  0  0  0
    3.1005   16.3615   40.4009 C   0  0  0  0  0  0  0  0  0  0  0  0
    2.3548   20.5235   41.4423 H   0  0  0  0  0  0  0  0  0  0  0  0
    2.0743   18.8013   41.0362 H   0  0  0  0  0  0  0  0  0  0  0  0
    5.5032   13.5005   39.5085 H   0  0  0  0  0  0  0  0  0  0  0  0
    4.8094   13.5205   37.8516 H   0  0  0  0  0  0  0  0  0  0  0  0
    6.3628   14.3586   38.1850 H   0  0  0  0  0  0  0  0  0  0  0  0
   -2.4630   11.8220   44.4293 H   0  0  0  0  0  0  0  0  0  0  0  0
   -0.8122   12.3668   45.2092 H   0  0  0  0  0  0  0  0  0  0  0  0
   -0.3068   14.3609   45.0170 H   0  0  0  0  0  0  0  0  0  0  0  0
    4.3966   15.0815   40.7128 H   0  0  0  0  0  0  0  0  0  0  0  0
    2.9747   15.0553   39.2660 H   0  0  0  0  0  0  0  0  0  0  0  0
   -0.0670   14.5405   42.0721 H   0  0  0  0  0  0  0  0  0  0  0  0
    1.2216   14.9022   43.1582 H   0  0  0  0  0  0  0  0  0  0  0  0
   -2.5240   16.1664   44.5637 H   0  0  0  0  0  0  0  0  0  0  0  0
   -1.0948   16.5405   45.5311 H   0  0  0  0  0  0  0  0  0  0  0  0
    3.8810   17.6216   39.9907 H   0  0  0  0  0  0  0  0  0  0  0  0
   -0.9301   20.5604   42.1780 H   0  0  0  0  0  0  0  0  0  0  0  0
    4.6735   18.1936   37.6630 H   0  0  0  0  0  0  0  0  0  0  0  0
    3.1406   16.9535   37.6436 H   0  0  0  0  0  0  0  0  0  0  0  0
    4.0796   19.7438   38.9368 H   0  0  0  0  0  0  0  0  0  0  0  0
    0.5041   21.1627   40.3301 H   0  0  0  0  0  0  0  0  0  0  0  0
    0.2847   19.4130   39.7439 H   0  0  0  0  0  0  0  0  0  0  0  0
   -2.7076   13.9593   43.4137 H   0  0  0  0  0  0  0  0  0  0  0  0
  1 26  2  0
  2 28  1  0
  3 23  2  0
  4 12  1  0
  5 26  1  0
  6 18  2  0
  7 21  1  0
  8  2  1  0
 10  3  2  0
 11 29  1  0
 11 16  1  0
 12  3  1  0
 12 16  1  0
 13 30  1  0
 14  4  1  0
 14 11  1  0
 15 24  1  0
 15 21  2  0
 17 25  1  0
 17 27  1  0
 19 22  1  0
 19  4  2  0
 20 22  2  3
 21 13  1  0
 22  3  1  0
 24 17  1  0
 25 26  1  0
 25  8  1  0
 27 30  2  0
 28 20  1  0
 29  9  2  3
 30  6  1  0
  2 31  1  0
  2 32  1  0
  7 33  1  0
  7 34  1  0
  7 35  1  0
  9 36  1  0
  9 37  1  0
 11 38  1  1
 13 39  1  0
 13 40  1  0
 14 41  1  0
 14 42  1  0
 16 43  1  0
 16 44  1  0
 17 45  1  1
 20 46  1  0
 24 47  1  0
 24 48  1  0
 25 49  1  6
 28 50  1  0
 28 51  1  0
 29 52  1  0
M  CHG  1   5  -1
M  END
>  <mol_id>  (33) 
2026-08-24-6tgu-s0-n100-seed1-0034

>  <rmsd_to_ref>  (33) 


$$$$

     RDKit          3D

 25 25  0  0  0  0  0  0  0  0999 V2000
   -0.1830   18.9847   42.7048 N   0  0  0  0  0  0  0  0  0  0  0  0
    0.2852   20.1200   42.1268 C   0  0  0  0  0  0  0  0  0  0  0  0
    2.8487   20.1585   37.5756 C   0  0  0  0  0  0  0  0  0  0  0  0
   -0.4634   16.5777   42.7161 C   0  0  0  0  0  0  0  0  0  0  0  0
    1.6063   18.9373   40.5150 C   0  0  0  0  0  0  0  0  0  0  0  0
    3.2486   19.8075   36.4310 O   0  0  0  0  0  0  0  0  0  0  0  0
    1.5187   21.3191   40.5450 N   0  0  0  0  0  0  0  0  0  0  0  0
    1.2018   16.3289   40.2604 C   0  0  0  0  0  0  0  0  0  0  0  0
    2.5559   21.3148   37.8449 O   0  0  0  0  0  0  0  0  0  0  0  0
    2.8864   19.0005   38.5597 C   0  0  0  0  0  0  0  0  0  0  0  0
    2.7463   19.0234   39.7850 O   0  0  0  0  0  0  0  0  0  0  0  0
    1.1192   20.1262   41.0274 C   0  0  0  0  0  0  0  0  0  0  0  0
    0.0983   17.7723   42.0626 C   0  0  0  0  0  0  0  0  0  0  0  0
    0.9619   17.7213   40.9606 C   0  0  0  0  0  0  0  0  0  0  0  0
   -0.0162   21.0863   42.5574 H   0  0  0  0  0  0  0  0  0  0  0  0
   -0.3688   16.6780   43.8074 H   0  0  0  0  0  0  0  0  0  0  0  0
   -1.5254   16.4781   42.4477 H   0  0  0  0  0  0  0  0  0  0  0  0
    0.0847   15.6847   42.3812 H   0  0  0  0  0  0  0  0  0  0  0  0
    1.1399   22.1893   40.9450 H   0  0  0  0  0  0  0  0  0  0  0  0
    2.2030   21.3608   39.7763 H   0  0  0  0  0  0  0  0  0  0  0  0
    1.3568   15.5551   41.0265 H   0  0  0  0  0  0  0  0  0  0  0  0
    0.3245   16.0697   39.6496 H   0  0  0  0  0  0  0  0  0  0  0  0
    2.0916   16.3908   39.6165 H   0  0  0  0  0  0  0  0  0  0  0  0
    2.1027   18.3143   38.2065 H   0  0  0  0  0  0  0  0  0  0  0  0
    3.9679   18.8017   38.5282 H   0  0  0  0  0  0  0  0  0  0  0  0
  2  1  2  0
  3  9  1  0
  3 10  1  0
  5 12  2  0
  5 14  1  0
  6  3  2  0
  7 12  1  0
  8 14  1  0
 10 11  1  0
 11  5  1  0
 12  2  1  0
 13  1  1  0
 13  4  1  0
 14 13  2  0
  2 15  1  0
  4 16  1  0
  4 17  1  0
  4 18  1  0
  7 19  1  0
  7 20  1  0
  8 21  1  0
  8 22  1  0
  8 23  1  0
 10 24  1  0
 10 25  1  0
M  CHG  1   9  -1
M  END
>  <mol_id>  (34) 
2026-08-24-6tgu-s0-n100-seed1-0035

>  <rmsd_to_ref>  (34) 


$$$$

     RDKit          3D

 56 60  0  0  0  0  0  0  0  0999 V2000
    2.6965   15.2492   41.4338 C   0  0  0  0  0  0  0  0  0  0  0  0
   -0.2453   15.5337   46.0041 C   0  0  0  0  0  0  0  0  0  0  0  0
    1.0110   16.7443   42.6841 N   0  0  0  0  0  0  0  0  0  0  0  0
    2.9998   18.4767   39.8349 C   0  0  1  0  0  0  0  0  0  0  0  0
    5.1388   13.1076   36.0968 C   0  0  0  0  0  0  0  0  0  0  0  0
    3.3929   19.5379   36.9724 O   0  0  0  0  0  0  0  0  0  0  0  0
    4.3008   17.4235   36.5693 N   0  0  0  0  0  0  0  0  0  0  0  0
    6.0380   14.1160   36.1817 N   0  0  0  0  0  0  0  0  0  0  0  0
    3.9706   17.9769   38.8146 C   0  0  2  0  0  0  0  0  0  0  0  0
    6.1695   12.3155   34.0677 O   0  0  0  0  0  0  0  0  0  0  0  0
    4.4888   15.9525   37.1578 C   0  0  0  0  0  0  0  0  0  0  0  0
   -0.2568   14.2248   45.8977 C   0  0  0  0  0  0  0  0  0  0  0  0
    5.3962   11.9081   35.2213 C   0  0  0  0  0  0  0  0  0  0  0  0
    0.7412   18.0900   42.6845 C   0  0  0  0  0  0  0  0  0  0  0  0
   -0.0222   18.6030   43.7884 C   0  0  1  0  0  0  0  0  0  0  0  0
   -0.3450   20.5190   42.7610 C   0  0  0  0  0  0  0  0  0  0  0  0
    1.8243   20.0093   40.8822 C   0  0  0  0  0  0  0  0  0  0  0  0
    2.2764   17.7433   40.9421 C   0  0  0  0  0  0  0  0  0  0  0  0
    2.0057   16.5002   41.6358 C   0  0  0  0  0  0  0  0  0  0  0  0
    1.4582   18.8040   41.6095 C   0  0  0  0  0  0  0  0  0  0  0  0
    5.1691   10.7951   35.4666 O   0  0  0  0  0  0  0  0  0  0  0  0
   -0.0307   13.6168   44.5873 C   0  0  0  0  0  0  0  0  0  0  0  0
    5.6840   15.4068   36.6992 C   0  0  0  0  0  0  0  0  0  0  0  0
    3.5818   14.5309   37.3222 C   0  0  0  0  0  0  0  0  0  0  0  0
    0.3794   14.3933   43.4998 C   0  0  0  0  0  0  0  0  0  0  0  0
    2.8396   19.7807   39.9668 C   0  0  0  0  0  0  0  0  0  0  0  0
    0.4626   15.7888   43.6487 C   0  0  0  0  0  0  0  0  0  0  0  0
    3.8723   13.4101   36.8070 C   0  0  0  0  0  0  0  0  0  0  0  0
   -0.4272   11.9255   44.4255 Cl  0  0  0  0  0  0  0  0  0  0  0  0
   -0.0370   19.8680   43.8761 O   0  0  0  0  0  0  0  0  0  0  0  0
   -1.1048   20.7517   42.1013 O   0  0  0  0  0  0  0  0  0  0  0  0
    3.8996   18.4258   37.2721 C   0  0  0  0  0  0  0  0  0  0  0  0
    3.6794   16.6990   38.7024 O   0  0  0  0  0  0  0  0  0  0  0  0
   -0.1533   16.3906   44.8378 C   0  0  0  0  0  0  0  0  0  0  0  0
   -0.7308   17.7912   44.8658 C   0  0  0  0  0  0  0  0  0  0  0  0
    2.9408   14.8036   42.4093 H   0  0  0  0  0  0  0  0  0  0  0  0
    2.0512   14.5613   40.8677 H   0  0  0  0  0  0  0  0  0  0  0  0
    3.6239   15.4292   40.8703 H   0  0  0  0  0  0  0  0  0  0  0  0
   -0.3068   15.9913   47.0025 H   0  0  0  0  0  0  0  0  0  0  0  0
    2.7615   17.6736   39.1220 H   0  0  0  0  0  0  0  0  0  0  0  0
    4.5116   17.5803   35.5734 H   0  0  0  0  0  0  0  0  0  0  0  0
    4.9319   18.3529   39.1946 H   0  0  0  0  0  0  0  0  0  0  0  0
   -0.4340   13.5948   46.7819 H   0  0  0  0  0  0  0  0  0  0  0  0
    0.8747   18.5693   44.4244 H   0  0  0  0  0  0  0  0  0  0  0  0
    0.5727   21.0021   42.3942 H   0  0  0  0  0  0  0  0  0  0  0  0
    0.9396   20.3809   40.3443 H   0  0  0  0  0  0  0  0  0  0  0  0
    2.1881   20.7469   41.6126 H   0  0  0  0  0  0  0  0  0  0  0  0
    6.5303   16.1082   36.7421 H   0  0  0  0  0  0  0  0  0  0  0  0
    2.6642   14.5854   37.9265 H   0  0  0  0  0  0  0  0  0  0  0  0
    0.6337   13.9189   42.5405 H   0  0  0  0  0  0  0  0  0  0  0  0
    3.7741   20.2346   40.3284 H   0  0  0  0  0  0  0  0  0  0  0  0
    2.5794   20.2283   38.9962 H   0  0  0  0  0  0  0  0  0  0  0  0
    3.1306   12.6022   36.8928 H   0  0  0  0  0  0  0  0  0  0  0  0
    3.5783   16.3032   39.6042 H   0  0  0  0  0  0  0  0  0  0  0  0
   -0.5605   18.2475   45.8522 H   0  0  0  0  0  0  0  0  0  0  0  0
   -1.8148   17.7662   44.6806 H   0  0  0  0  0  0  0  0  0  0  0  0
  1 19  1  0
  3 14  1  0
  3 27  1  0
  4  9  1  0
  4 26  1  0
  4 18  1  0
  5  8  1  0
  5 28  2  0
  6 32  2  0
  7 11  1  0
  7 32  1  0
  8 23  2  0
  9 33  1  0
 10 13  2  0
 11 24  2  0
 12  2  2  0
 13 21  1  0
 13  5  1  0
 14 15  1  0
 15 30  1  0
 15 35  1  0
 16 30  1  0
 17 20  1  0
 18 19  2  0
 18 20  1  0
 19  3  1  0
 20 14  2  0
 22 12  1  0
 23 11  1  0
 25 27  1  0
 25 22  2  0
 26 17  1  0
 27 34  2  0
 28 24  1  0
 29 22  1  0
 31 16  2  0
 32  9  1  0
 34 35  1  0
 34  2  1  0
  1 36  1  0
  1 37  1  0
  1 38  1  0
  2 39  1  0
  4 40  1  6
  7 41  1  0
  9 42  1  1
 12 43  1  0
 15 44  1  6
 16 45  1  0
 17 46  1  0
 17 47  1  0
 23 48  1  0
 24 49  1  0
 25 50  1  0
 26 51  1  0
 26 52  1  0
 28 53  1  0
 33 54  1  0
 35 55  1  0
 35 56  1  0
M  CHG  1  21  -1
M  END
>  <mol_id>  (35) 
2026-08-24-6tgu-s0-n100-seed1-0036

>  <rmsd_to_ref>  (35) 


$$$$

     RDKit          3D

 41 42  0  0  0  0  0  0  0  0999 V2000
   -0.4628   14.9506   44.4370 C   0  0  0  0  0  0  0  0  0  0  0  0
    1.3546   13.0377   43.2794 C   0  0  0  0  0  0  0  0  0  0  0  0
    1.6525   20.5530   38.2941 C   0  0  0  0  0  0  0  0  0  0  0  0
    1.6574   19.3735   40.5546 C   0  0  2  0  0  0  0  0  0  0  0  0
    3.2379   20.4547   36.5599 C   0  0  0  0  0  0  0  0  0  0  0  0
    0.2239   15.2937   43.2333 C   0  0  0  0  0  0  0  0  0  0  0  0
    2.1067   17.0548   40.8496 O   0  0  0  0  0  0  0  0  0  0  0  0
    1.1438   14.2978   42.6091 C   0  0  0  0  0  0  0  0  0  0  0  0
    2.2269   19.5385   39.1269 C   0  0  0  0  0  0  0  0  0  0  0  0
   -0.1100   16.7075   42.6103 C   0  0  0  0  0  0  0  0  0  0  0  0
    3.3568   18.8685   38.4679 C   0  0  0  0  0  0  0  0  0  0  0  0
    3.9078   17.5614   38.8387 C   0  0  0  0  0  0  0  0  0  0  0  0
   -1.1878   17.3181   43.5445 C   0  0  0  0  0  0  0  0  0  0  0  0
    2.0875   20.9877   37.0591 C   0  0  0  0  0  0  0  0  0  0  0  0
    0.7124   12.7311   44.5130 C   0  0  0  0  0  0  0  0  0  0  0  0
    1.3675   18.0021   40.9945 C   0  0  0  0  0  0  0  0  0  0  0  0
    2.4492   21.4170   34.8940 O   0  0  0  0  0  0  0  0  0  0  0  0
    0.3123   17.8598   41.7110 N   0  0  0  0  0  0  0  0  0  0  0  0
    3.6623   21.1257   35.4014 O   0  0  0  0  0  0  0  0  0  0  0  0
    3.7820   19.3615   37.1989 C   0  0  0  0  0  0  0  0  0  0  0  0
   -0.1600   13.6850   45.1121 C   0  0  0  0  0  0  0  0  0  0  0  0
    0.4433   20.3362   40.7027 C   0  0  0  0  0  0  0  0  0  0  0  0
   -1.2164   15.6334   44.8563 H   0  0  0  0  0  0  0  0  0  0  0  0
    2.0279   12.2952   42.8262 H   0  0  0  0  0  0  0  0  0  0  0  0
    0.7523   21.0470   38.6886 H   0  0  0  0  0  0  0  0  0  0  0  0
    2.4615   19.6484   41.2531 H   0  0  0  0  0  0  0  0  0  0  0  0
    1.6503   14.5199   41.6582 H   0  0  0  0  0  0  0  0  0  0  0  0
    3.7915   17.4084   39.9218 H   0  0  0  0  0  0  0  0  0  0  0  0
    3.3699   16.7696   38.2966 H   0  0  0  0  0  0  0  0  0  0  0  0
    4.9753   17.5255   38.5758 H   0  0  0  0  0  0  0  0  0  0  0  0
   -0.9227   17.1142   44.5925 H   0  0  0  0  0  0  0  0  0  0  0  0
   -1.2389   18.4051   43.3840 H   0  0  0  0  0  0  0  0  0  0  0  0
   -2.1658   16.8677   43.3194 H   0  0  0  0  0  0  0  0  0  0  0  0
    1.5219   21.7429   36.4936 H   0  0  0  0  0  0  0  0  0  0  0  0
    0.8894   11.7615   45.0014 H   0  0  0  0  0  0  0  0  0  0  0  0
    1.8178   21.6018   35.6338 H   0  0  0  0  0  0  0  0  0  0  0  0
    4.6029   18.8312   36.6941 H   0  0  0  0  0  0  0  0  0  0  0  0
   -0.6113   13.4694   46.0919 H   0  0  0  0  0  0  0  0  0  0  0  0
    0.1916   20.4478   41.7676 H   0  0  0  0  0  0  0  0  0  0  0  0
    0.7014   21.3193   40.2820 H   0  0  0  0  0  0  0  0  0  0  0  0
   -0.4210   19.9220   40.1630 H   0  0  0  0  0  0  0  0  0  0  0  0
  1 21  2  0
  2 15  2  0
  3  9  1  0
  4 16  1  0
  4 22  1  0
  5 20  2  0
  5 14  1  0
  6  1  1  0
  7 16  2  0
  8  2  1  0
  8  6  2  0
  9  4  1  0
 10  6  1  0
 10 13  1  0
 11 12  1  0
 11  9  2  0
 14  3  2  0
 15 21  1  0
 16 18  1  0
 17 19  1  0
 18 10  2  3
 19  5  1  0
 20 11  1  0
  1 23  1  0
  2 24  1  0
  3 25  1  0
  4 26  1  1
  8 27  1  0
 12 28  1  0
 12 29  1  0
 12 30  1  0
 13 31  1  0
 13 32  1  0
 13 33  1  0
 14 34  1  0
 15 35  1  0
 17 36  1  0
 20 37  1  0
 21 38  1  0
 22 39  1  0
 22 40  1  0
 22 41  1  0
M  END
>  <mol_id>  (36) 
2026-08-24-6tgu-s0-n100-seed1-0037

>  <rmsd_to_ref>  (36) 


$$$$

     RDKit          3D

 50 53  0  0  0  0  0  0  0  0999 V2000
   -0.4616   17.3751   43.5553 C   0  0  0  0  0  0  0  0  0  0  0  0
    1.8336   21.5555   38.8505 C   0  0  0  0  0  0  0  0  0  0  0  0
    3.0067   19.1348   38.7102 N   0  0  0  0  0  0  0  0  0  0  0  0
   -0.6616   16.1283   44.0049 C   0  0  0  0  0  0  0  0  0  0  0  0
    1.4998   16.7857   40.3712 N   0  0  0  0  0  0  0  0  0  0  0  0
    3.7512   17.7570   36.4698 C   0  0  0  0  0  0  0  0  0  0  0  0
    3.6663   16.4472   37.4692 C   0  0  0  0  0  0  0  0  0  0  0  0
    2.7638   16.0951   38.2564 C   0  0  0  0  0  0  0  0  0  0  0  0
   -1.1471   20.5252   42.6724 C   0  0  0  0  0  0  0  0  0  0  0  0
    2.2723   13.7034   40.4106 C   0  0  0  0  0  0  0  0  0  0  0  0
    0.3886   17.6783   42.4638 C   0  0  0  0  0  0  0  0  0  0  0  0
    3.0229   19.8850   37.6345 C   0  0  0  0  0  0  0  0  0  0  0  0
    3.2393   22.9499   35.8100 N   0  0  0  0  0  0  0  0  0  0  0  0
    0.0153   15.0303   43.3384 C   0  0  0  0  0  0  0  0  0  0  0  0
    0.9670   22.0073   41.6193 O   0  0  0  0  0  0  0  0  0  0  0  0
    0.7873   18.9898   42.2808 N   0  0  0  0  0  0  0  0  0  0  0  0
    0.9349   16.6302   41.6343 C   0  0  0  0  0  0  0  0  0  0  0  0
    2.2175   15.8714   39.5671 C   0  0  0  0  0  0  0  0  0  0  0  0
    1.5482   14.2150   41.4112 C   0  0  0  0  0  0  0  0  0  0  0  0
    2.6689   14.6417   39.4239 N   0  0  0  0  0  0  0  0  0  0  0  0
    2.4935   21.2577   37.6788 C   0  0  0  0  0  0  0  0  0  0  0  0
    0.8619   15.2605   42.1092 C   0  0  0  0  0  0  0  0  0  0  0  0
    0.8661   21.0089   41.1994 C   0  0  0  0  0  0  0  0  0  0  0  0
    3.5129   19.3540   36.5863 O   0  0  0  0  0  0  0  0  0  0  0  0
    2.8727   22.1285   36.5930 C   0  0  0  0  0  0  0  0  0  0  0  0
    2.4155   19.5867   39.8428 N   0  0  0  0  0  0  0  0  0  0  0  0
    0.0941   20.0926   42.1087 C   0  0  1  0  0  0  0  0  0  0  0  0
   -1.3825   15.8995   45.1923 N   0  0  0  0  0  0  0  0  0  0  0  0
    1.7679   20.7225   39.9667 C   0  0  0  0  0  0  0  0  0  0  0  0
   -0.9830   18.2028   44.0584 H   0  0  0  0  0  0  0  0  0  0  0  0
    1.3186   22.5256   38.9103 H   0  0  0  0  0  0  0  0  0  0  0  0
    4.7868   17.7027   36.1029 H   0  0  0  0  0  0  0  0  0  0  0  0
    2.7680   17.5675   36.0142 H   0  0  0  0  0  0  0  0  0  0  0  0
    3.7843   15.5867   36.7942 H   0  0  0  0  0  0  0  0  0  0  0  0
    4.3887   16.7934   38.2230 H   0  0  0  0  0  0  0  0  0  0  0  0
    1.9732   16.7608   37.8799 H   0  0  0  0  0  0  0  0  0  0  0  0
    3.2650   15.1193   38.3379 H   0  0  0  0  0  0  0  0  0  0  0  0
   -1.1760   20.2631   43.7403 H   0  0  0  0  0  0  0  0  0  0  0  0
   -1.2408   21.6155   42.5598 H   0  0  0  0  0  0  0  0  0  0  0  0
   -1.9792   20.0299   42.1507 H   0  0  0  0  0  0  0  0  0  0  0  0
    3.1798   13.2539   40.8399 H   0  0  0  0  0  0  0  0  0  0  0  0
    1.6256   12.9735   39.9018 H   0  0  0  0  0  0  0  0  0  0  0  0
   -0.0907   14.0103   43.7366 H   0  0  0  0  0  0  0  0  0  0  0  0
    1.8083   19.1262   42.2793 H   0  0  0  0  0  0  0  0  0  0  0  0
    0.7031   13.5141   41.3442 H   0  0  0  0  0  0  0  0  0  0  0  0
    2.4857   14.6002   41.8387 H   0  0  0  0  0  0  0  0  0  0  0  0
    3.2778   14.3760   38.6369 H   0  0  0  0  0  0  0  0  0  0  0  0
    0.6311   20.5019   42.9771 H   0  0  0  0  0  0  0  0  0  0  0  0
   -1.5299   14.9369   45.5280 H   0  0  0  0  0  0  0  0  0  0  0  0
   -1.7627   16.6947   45.7253 H   0  0  0  0  0  0  0  0  0  0  0  0
  1  4  2  0
  2 29  2  0
  3 26  2  0
  4 28  1  0
  5 17  1  0
  6  7  1  0
  7  8  1  0
  8 18  1  0
 10 19  1  0
 11  1  1  0
 12  3  1  0
 13 25  3  0
 14  4  1  0
 16 11  1  0
 17 11  2  0
 17 22  1  0
 18 20  1  0
 18  5  2  0
 19 22  1  0
 20 10  1  0
 21 12  2  0
 21  2  1  0
 22 14  2  0
 23 15  2  0
 23 27  1  0
 24  6  1  0
 24 12  1  0
 25 21  1  0
 27  9  1  0
 27 16  1  0
 29 26  1  0
 29 23  1  0
  1 30  1  0
  2 31  1  0
  6 32  1  0
  6 33  1  0
  7 34  1  0
  7 35  1  0
  8 36  1  0
  8 37  1  0
  9 38  1  0
  9 39  1  0
  9 40  1  0
 10 41  1  0
 10 42  1  0
 14 43  1  0
 16 44  1  0
 19 45  1  0
 19 46  1  0
 20 47  1  0
 27 48  1  6
 28 49  1  0
 28 50  1  0
M  END
>  <mol_id>  (37) 
2026-08-24-6tgu-s0-n100-seed1-0039

>  <rmsd_to_ref>  (37) 


$$$$

     RDKit          3D

 43 46  0  0  0  0  0  0  0  0999 V2000
   -0.9142   18.0417   45.0197 C   0  0  0  0  0  0  0  0  0  0  0  0
   -0.6489   15.6321   44.7290 C   0  0  0  0  0  0  0  0  0  0  0  0
   -0.8193   19.2629   44.5952 C   0  0  0  0  0  0  0  0  0  0  0  0
    4.0295   16.0580   36.2051 N   0  0  0  0  0  0  0  0  0  0  0  0
    0.3521   14.8187   42.7500 C   0  0  0  0  0  0  0  0  0  0  0  0
    2.7306   15.9549   37.9036 C   0  0  0  0  0  0  0  0  0  0  0  0
    3.0656   17.2241   37.6411 C   0  0  0  0  0  0  0  0  0  0  0  0
    2.6032   20.8302   38.6198 C   0  0  0  0  0  0  0  0  0  0  0  0
    3.0819   19.6568   37.8617 C   0  0  0  0  0  0  0  0  0  0  0  0
    2.2790   18.1775   39.7788 C   0  0  0  0  0  0  0  0  0  0  0  0
   -1.0413   15.5699   45.9920 N   0  0  0  0  0  0  0  0  0  0  0  0
    0.2173   17.1873   43.1596 C   0  0  0  0  0  0  0  0  0  0  0  0
    1.8565   15.4200   38.8998 N   0  0  0  0  0  0  0  0  0  0  0  0
    1.8349   20.3929   40.7674 C   0  0  0  0  0  0  0  0  0  0  0  0
   -0.3176   14.6085   43.9219 C   0  0  0  0  0  0  0  0  0  0  0  0
    2.8145   18.3607   38.4215 C   0  0  0  0  0  0  0  0  0  0  0  0
   -0.0811   19.4353   43.5454 C   0  0  0  0  0  0  0  0  0  0  0  0
    1.8863   19.0341   40.8742 C   0  0  0  0  0  0  0  0  0  0  0  0
    1.5685   18.6436   41.9046 N   0  0  0  0  0  0  0  0  0  0  0  0
    3.8960   17.2835   36.5310 O   0  0  0  0  0  0  0  0  0  0  0  0
    0.4912   18.4244   42.7716 C   0  0  0  0  0  0  0  0  0  0  0  0
    3.4303   15.2615   37.0422 N   0  0  0  0  0  0  0  0  0  0  0  0
   -0.4693   16.9702   44.3305 C   0  0  0  0  0  0  0  0  0  0  0  0
    0.6346   16.0882   42.3422 C   0  0  0  0  0  0  0  0  0  0  0  0
    2.4332   21.9144   37.8274 F   0  0  0  0  0  0  0  0  0  0  0  0
    3.5220   19.8928   36.5969 O   0  0  0  0  0  0  0  0  0  0  0  0
    2.0223   20.9001   39.7539 C   0  0  0  0  0  0  0  0  0  0  0  0
   -1.3846   17.8687   45.9989 H   0  0  0  0  0  0  0  0  0  0  0  0
   -1.3325   20.0983   45.0942 H   0  0  0  0  0  0  0  0  0  0  0  0
    0.6639   13.9621   42.1344 H   0  0  0  0  0  0  0  0  0  0  0  0
    2.1419   17.1137   40.0232 H   0  0  0  0  0  0  0  0  0  0  0  0
   -1.2678   16.4344   46.5041 H   0  0  0  0  0  0  0  0  0  0  0  0
   -1.1200   14.6570   46.4625 H   0  0  0  0  0  0  0  0  0  0  0  0
    1.7096   14.4025   38.9633 H   0  0  0  0  0  0  0  0  0  0  0  0
    1.3736   16.0521   39.5542 H   0  0  0  0  0  0  0  0  0  0  0  0
    1.6134   21.0048   41.6543 H   0  0  0  0  0  0  0  0  0  0  0  0
   -0.5910   13.5829   44.2109 H   0  0  0  0  0  0  0  0  0  0  0  0
    0.1125   20.4727   43.2352 H   0  0  0  0  0  0  0  0  0  0  0  0
    2.4206   18.3254   42.3880 H   0  0  0  0  0  0  0  0  0  0  0  0
    1.1743   16.2655   41.4003 H   0  0  0  0  0  0  0  0  0  0  0  0
    3.8548   19.1444   36.0408 H   0  0  0  0  0  0  0  0  0  0  0  0
    2.4179   21.8654   40.1029 H   0  0  0  0  0  0  0  0  0  0  0  0
    1.1442   20.3865   39.3352 H   0  0  0  0  0  0  0  0  0  0  0  0
  2 11  1  0
  3  1  1  0
  4 20  1  0
  4 22  2  0
  5 15  1  0
  6 13  1  0
  7  6  2  0
  7 16  1  0
  8 27  1  0
  9  8  2  0
  9 16  1  0
 10 18  1  0
 12 23  1  0
 14 18  2  0
 15  2  2  0
 16 10  2  0
 17  3  2  0
 18 19  1  0
 19 21  1  0
 20  7  1  0
 21 17  1  0
 21 12  2  0
 22  6  1  0
 23  1  2  0
 23  2  1  0
 24 12  1  0
 24  5  2  0
 25  8  1  0
 26  9  1  0
 27 14  1  0
  1 28  1  0
  3 29  1  0
  5 30  1  0
 10 31  1  0
 11 32  1  0
 11 33  1  0
 13 34  1  0
 13 35  1  0
 14 36  1  0
 15 37  1  0
 17 38  1  0
 19 39  1  0
 24 40  1  0
 26 41  1  0
 27 42  1  0
 27 43  1  0
M  END
>  <mol_id>  (38) 
2026-08-24-6tgu-s0-n100-seed1-0040

>  <rmsd_to_ref>  (38) 


$$$$

     RDKit          3D

 41 43  0  0  0  0  0  0  0  0999 V2000
    5.3432   15.5764   38.1070 C   0  0  0  0  0  0  0  0  0  0  0  0
   -0.2257   17.0640   44.5275 C   0  0  0  0  0  0  0  0  0  0  0  0
    0.3018   17.6255   43.3778 C   0  0  0  0  0  0  0  0  0  0  0  0
   -0.1708   15.3251   44.6083 Cl  0  0  0  0  0  0  0  0  0  0  0  0
    3.4200   16.8343   39.0333 C   0  0  0  0  0  0  0  0  0  0  0  0
   -1.0482   17.3194   46.9651 C   0  0  0  0  0  0  0  0  0  0  0  0
    3.3853   14.3645   38.8881 C   0  0  0  0  0  0  0  0  0  0  0  0
    2.7318   15.5763   39.2230 C   0  0  0  0  0  0  0  0  0  0  0  0
    4.7965   19.5633   37.4716 O   0  0  0  0  0  0  0  0  0  0  0  0
    2.8315   19.6743   38.7891 C   0  0  0  0  0  0  0  0  0  0  0  0
   -1.0577   19.2555   45.2983 C   0  0  0  0  0  0  0  0  0  0  0  0
    3.6109   19.9655   37.5083 C   0  0  0  0  0  0  0  0  0  0  0  0
    1.5179   19.4818   41.1649 C   0  0  0  0  0  0  0  0  0  0  0  0
    2.1980   20.7570   39.2582 C   0  0  0  0  0  0  0  0  0  0  0  0
    2.2161   18.3782   40.7934 C   0  0  0  0  0  0  0  0  0  0  0  0
    1.5314   20.7052   40.4353 C   0  0  0  0  0  0  0  0  0  0  0  0
    2.8333   18.3177   39.4183 C   0  0  0  0  0  0  0  0  0  0  0  0
    5.3415   13.0680   37.9179 C   0  0  0  0  0  0  0  0  0  0  0  0
    4.6786   14.3894   38.3290 C   0  0  0  0  0  0  0  0  0  0  0  0
    0.1480   19.0060   43.1597 C   0  0  0  0  0  0  0  0  0  0  0  0
    2.3026   17.2663   41.5367 F   0  0  0  0  0  0  0  0  0  0  0  0
    0.6907   19.5109   42.1570 O   0  0  0  0  0  0  0  0  0  0  0  0
   -0.7309   17.8597   45.5803 C   0  0  0  0  0  0  0  0  0  0  0  0
    3.1022   20.7437   36.6551 O   0  0  0  0  0  0  0  0  0  0  0  0
   -0.5614   19.7978   44.1019 C   0  0  0  0  0  0  0  0  0  0  0  0
    4.7457   16.8574   38.4433 C   0  0  0  0  0  0  0  0  0  0  0  0
    6.3500   15.5533   37.6645 H   0  0  0  0  0  0  0  0  0  0  0  0
    0.8338   17.0008   42.6453 H   0  0  0  0  0  0  0  0  0  0  0  0
   -0.9131   18.1175   47.7100 H   0  0  0  0  0  0  0  0  0  0  0  0
   -2.0896   16.9660   46.9911 H   0  0  0  0  0  0  0  0  0  0  0  0
   -0.3716   16.4836   47.1966 H   0  0  0  0  0  0  0  0  0  0  0  0
    2.8822   13.4024   39.0648 H   0  0  0  0  0  0  0  0  0  0  0  0
    1.7079   15.5605   39.6247 H   0  0  0  0  0  0  0  0  0  0  0  0
   -1.6654   19.8547   45.9922 H   0  0  0  0  0  0  0  0  0  0  0  0
    2.2196   21.6944   38.6832 H   0  0  0  0  0  0  0  0  0  0  0  0
    1.0091   21.5927   40.8218 H   0  0  0  0  0  0  0  0  0  0  0  0
    5.6366   12.5100   38.8187 H   0  0  0  0  0  0  0  0  0  0  0  0
    4.6302   12.4679   37.3314 H   0  0  0  0  0  0  0  0  0  0  0  0
    6.2328   13.2789   37.3087 H   0  0  0  0  0  0  0  0  0  0  0  0
   -0.7263   20.8643   43.8886 H   0  0  0  0  0  0  0  0  0  0  0  0
    5.2753   17.8037   38.2587 H   0  0  0  0  0  0  0  0  0  0  0  0
  1 19  2  0
  1 26  1  0
  2 23  2  0
  3 20  2  0
  3  2  1  0
  4  2  1  0
  5  8  1  0
  5 17  1  0
  7  8  2  0
  9 12  1  0
 10 17  2  0
 10 14  1  0
 11 23  1  0
 12 10  1  0
 13 22  1  0
 14 16  2  0
 15 21  1  0
 15 13  2  0
 16 13  1  0
 17 15  1  0
 18 19  1  0
 19  7  1  0
 20 25  1  0
 22 20  1  0
 23  6  1  0
 24 12  2  0
 25 11  2  0
 26  5  2  0
  1 27  1  0
  3 28  1  0
  6 29  1  0
  6 30  1  0
  6 31  1  0
  7 32  1  0
  8 33  1  0
 11 34  1  0
 14 35  1  0
 16 36  1  0
 18 37  1  0
 18 38  1  0
 18 39  1  0
 25 40  1  0
 26 41  1  0
M  CHG  1   9  -1
M  END
>  <mol_id>  (39) 
2026-08-24-6tgu-s0-n100-seed1-0041

>  <rmsd_to_ref>  (39) 


$$$$

     RDKit          3D

 25 26  0  0  0  0  0  0  0  0999 V2000
    0.7358   17.4588   41.1735 C   0  0  0  0  0  0  0  0  0  0  0  0
    0.0262   14.0517   42.9488 C   0  0  0  0  0  0  0  0  0  0  0  0
    3.0411   19.9637   38.6467 C   0  0  0  0  0  0  0  0  0  0  0  0
    2.7402   21.4744   36.7605 O   0  0  0  0  0  0  0  0  0  0  0  0
   -0.8614   16.1954   42.1589 C   0  0  0  0  0  0  0  0  0  0  0  0
    0.0743   15.3508   42.2774 C   0  0  0  0  0  0  0  0  0  0  0  0
    3.2058   16.6615   39.9723 O   0  0  0  0  0  0  0  0  0  0  0  0
    3.6215   18.6416   38.9696 C   0  0  0  0  0  0  0  0  0  0  0  0
    2.7997   17.9201   39.7861 C   0  0  0  0  0  0  0  0  0  0  0  0
    1.1266   19.6943   40.0799 C   0  0  0  0  0  0  0  0  0  0  0  0
   -0.5343   17.5482   41.6179 C   0  0  0  0  0  0  0  0  0  0  0  0
    2.0692   20.4934   39.2581 C   0  0  0  0  0  0  0  0  0  0  0  0
    4.6318   20.4870   36.9807 O   0  0  0  0  0  0  0  0  0  0  0  0
    1.4912   16.0186   41.6491 S   0  0  0  0  0  0  0  0  0  0  0  0
    3.4516   20.7050   37.4331 C   0  0  0  0  0  0  0  0  0  0  0  0
    1.5685   18.3978   40.3446 C   0  0  0  0  0  0  0  0  0  0  0  0
   -0.3163   14.1871   43.9854 H   0  0  0  0  0  0  0  0  0  0  0  0
   -0.6716   13.3891   42.4157 H   0  0  0  0  0  0  0  0  0  0  0  0
    1.0301   13.6022   42.9500 H   0  0  0  0  0  0  0  0  0  0  0  0
   -1.8913   15.9387   42.4479 H   0  0  0  0  0  0  0  0  0  0  0  0
    2.6802   16.0518   40.5486 H   0  0  0  0  0  0  0  0  0  0  0  0
    4.5936   18.2849   38.5983 H   0  0  0  0  0  0  0  0  0  0  0  0
    0.1673   20.0882   40.4467 H   0  0  0  0  0  0  0  0  0  0  0  0
   -1.1904   18.4306   41.5880 H   0  0  0  0  0  0  0  0  0  0  0  0
    1.9177   21.5800   39.1783 H   0  0  0  0  0  0  0  0  0  0  0  0
  1 14  1  0
  1 11  2  0
  3  8  2  0
  3 12  1  0
  4 15  1  0
  6  5  2  0
  6  2  1  0
  8  9  1  0
  9  7  1  0
  9 16  2  0
 10 16  1  0
 11  5  1  0
 12 10  2  0
 13 15  2  0
 14  6  1  0
 15  3  1  0
 16  1  1  0
  2 17  1  0
  2 18  1  0
  2 19  1  0
  5 20  1  0
  7 21  1  0
  8 22  1  0
 10 23  1  0
 11 24  1  0
 12 25  1  0
M  CHG  1   4  -1
M  END
>  <mol_id>  (40) 
2026-08-24-6tgu-s0-n100-seed1-0042

>  <rmsd_to_ref>  (40) 


$$$$

     RDKit          3D

 28 30  0  0  0  0  0  0  0  0999 V2000
    1.5935   16.7365   41.5966 C   0  0  0  0  0  0  0  0  0  0  0  0
   -0.9796   16.7671   42.7197 C   0  0  0  0  0  0  0  0  0  0  0  0
    1.1160   15.6238   42.3209 C   0  0  0  0  0  0  0  0  0  0  0  0
   -0.4548   17.9342   42.1523 C   0  0  0  0  0  0  0  0  0  0  0  0
    4.1497   18.6991   37.1142 C   0  0  0  0  0  0  0  0  0  0  0  0
    0.7838   17.9293   41.4388 C   0  0  0  0  0  0  0  0  0  0  0  0
    2.2863   20.4896   37.8607 C   0  0  0  0  0  0  0  0  0  0  0  0
   -1.9573   19.2299   43.1940 O   0  0  0  0  0  0  0  0  0  0  0  0
    3.5188   18.4404   38.2733 C   0  0  0  0  0  0  0  0  0  0  0  0
    3.8526   19.8943   36.4593 N   0  0  0  0  0  0  0  0  0  0  0  0
    2.9697   20.8068   36.8159 N   0  0  0  0  0  0  0  0  0  0  0  0
   -0.1297   15.7537   43.1117 C   0  0  0  0  0  0  0  0  0  0  0  0
    1.1049   19.0833   40.6702 C   0  0  2  0  0  0  0  0  0  0  0  0
    2.4980   19.4097   38.7135 C   0  0  0  0  0  0  0  0  0  0  0  0
   -1.0802   19.2572   42.4040 C   0  0  0  0  0  0  0  0  0  0  0  0
    0.5424   20.6859   40.7661 S   0  0  0  0  0  0  0  0  0  0  0  0
    1.8304   18.9210   39.5967 O   0  0  0  0  0  0  0  0  0  0  0  0
   -0.5576   20.6240   41.9191 C   0  0  0  0  0  0  0  0  0  0  0  0
    2.5956   16.6988   41.1446 H   0  0  0  0  0  0  0  0  0  0  0  0
   -2.0661   16.6583   42.8527 H   0  0  0  0  0  0  0  0  0  0  0  0
    1.6631   14.6698   42.2985 H   0  0  0  0  0  0  0  0  0  0  0  0
    4.8782   17.9894   36.6952 H   0  0  0  0  0  0  0  0  0  0  0  0
    1.4392   21.1466   38.1071 H   0  0  0  0  0  0  0  0  0  0  0  0
    3.7539   17.5450   38.8673 H   0  0  0  0  0  0  0  0  0  0  0  0
   -0.3616   15.0868   43.9551 H   0  0  0  0  0  0  0  0  0  0  0  0
    1.1086   19.0493   41.7697 H   0  0  0  0  0  0  0  0  0  0  0  0
   -0.1291   21.1310   42.7962 H   0  0  0  0  0  0  0  0  0  0  0  0
   -1.4414   21.0859   41.4548 H   0  0  0  0  0  0  0  0  0  0  0  0
  1  3  1  0
  2 12  1  0
  3 12  2  0
  4 15  1  0
  4  2  2  0
  5  9  2  0
  6  1  2  0
  6  4  1  0
  7 14  2  0
  9 14  1  0
 10 11  2  0
 10  5  1  0
 11  7  1  0
 13 17  1  0
 13 16  1  0
 13  6  1  0
 14 17  1  0
 15  8  2  0
 16 18  1  0
 18 15  1  0
  1 19  1  0
  2 20  1  0
  3 21  1  0
  5 22  1  0
  7 23  1  0
  9 24  1  0
 12 25  1  0
 13 26  1  1
 18 27  1  0
 18 28  1  0
M  END
>  <mol_id>  (41) 
2026-08-24-6tgu-s0-n100-seed1-0043

>  <rmsd_to_ref>  (41) 


$$$$

     RDKit          3D

 47 51  0  0  0  0  0  0  0  0999 V2000
    2.8080   14.9520   40.5380 N   0  0  0  0  0  0  0  0  0  0  0  0
   -1.2440   20.6530   43.6400 O   0  0  0  0  0  0  0  0  0  0  0  0
   -0.4800   21.2030   42.4080 C   0  0  0  0  0  0  0  0  0  0  0  0
   -0.9200   19.4490   43.7950 C   0  0  0  0  0  0  0  0  0  0  0  0
    2.2400   17.3810   40.1010 N   0  0  0  0  0  0  0  0  0  0  0  0
    1.3330   16.3670   41.9790 C   0  0  0  0  0  0  0  0  0  0  0  0
   -0.8130   17.4190   44.5870 C   0  0  1  0  0  0  0  0  0  0  0  0
   -0.0420   17.4410   43.5070 C   0  0  0  0  0  0  0  0  0  0  0  0
    1.0030   18.8720   41.8020 C   0  0  0  0  0  0  0  0  0  0  0  0
   -1.3180   18.6250   44.8250 N   0  0  0  0  0  0  0  0  0  0  0  0
    2.0740   21.4660   37.7450 C   0  0  0  0  0  0  0  0  0  0  0  0
    2.8070   22.0330   35.1560 O   0  0  0  0  0  0  0  0  0  0  0  0
    3.2080   13.8790   39.9240 C   0  0  0  0  0  0  0  0  0  0  0  0
    0.0700   18.7510   42.9260 C   0  0  0  0  0  0  0  0  0  0  0  0
    1.6910   21.1260   38.9650 C   0  0  0  0  0  0  0  0  0  0  0  0
    3.0450   19.2240   38.9720 C   0  0  0  0  0  0  0  0  0  0  0  0
    2.5810   15.9930   39.8140 C   0  0  0  0  0  0  0  0  0  0  0  0
    0.8440   20.7920   41.6360 C   0  0  0  0  0  0  0  0  0  0  0  0
    3.4980   21.0840   35.8260 O   0  0  0  0  0  0  0  0  0  0  0  0
    2.1270   20.0620   39.6540 C   0  0  0  0  0  0  0  0  0  0  0  0
    0.6410   16.3040   43.0320 C   0  0  0  0  0  0  0  0  0  0  0  0
    3.0320   15.6160   38.1360 S   0  0  0  0  0  0  0  0  0  0  0  0
    1.5260   17.5160   41.2960 C   0  0  0  0  0  0  0  0  0  0  0  0
    3.5700   13.9920   38.4790 C   0  0  0  0  0  0  0  0  0  0  0  0
   -0.9770   16.1570   45.4390 C   0  0  0  0  0  0  0  0  0  0  0  0
    3.5440   19.5110   37.7200 C   0  0  0  0  0  0  0  0  0  0  0  0
    3.0400   20.6670   37.0810 C   0  0  0  0  0  0  0  0  0  0  0  0
    1.7360   20.0400   41.1300 C   0  0  2  0  0  0  0  0  0  0  0  0
   -1.2427   21.1745   41.6158 H   0  0  0  0  0  0  0  0  0  0  0  0
   -0.0185   22.0424   42.9488 H   0  0  0  0  0  0  0  0  0  0  0  0
    2.4958   18.1721   39.4930 H   0  0  0  0  0  0  0  0  0  0  0  0
    1.7997   15.4456   41.6006 H   0  0  0  0  0  0  0  0  0  0  0  0
    0.0905   17.6852   45.1552 H   0  0  0  0  0  0  0  0  0  0  0  0
    1.6501   22.3541   37.2534 H   0  0  0  0  0  0  0  0  0  0  0  0
    2.3660   22.6387   35.8031 H   0  0  0  0  0  0  0  0  0  0  0  0
    3.2780   12.9166   40.4521 H   0  0  0  0  0  0  0  0  0  0  0  0
    0.9499   21.7731   39.4569 H   0  0  0  0  0  0  0  0  0  0  0  0
    3.3753   18.2988   39.4669 H   0  0  0  0  0  0  0  0  0  0  0  0
    0.6154   21.3414   40.7108 H   0  0  0  0  0  0  0  0  0  0  0  0
    1.2888   20.5738   42.6181 H   0  0  0  0  0  0  0  0  0  0  0  0
    0.5704   15.3546   43.5831 H   0  0  0  0  0  0  0  0  0  0  0  0
    4.0447   13.2549   37.8147 H   0  0  0  0  0  0  0  0  0  0  0  0
   -0.9419   16.4270   46.5048 H   0  0  0  0  0  0  0  0  0  0  0  0
   -1.9441   15.6845   45.2121 H   0  0  0  0  0  0  0  0  0  0  0  0
   -0.1628   15.4530   45.2121 H   0  0  0  0  0  0  0  0  0  0  0  0
    4.2990   18.8708   37.2403 H   0  0  0  0  0  0  0  0  0  0  0  0
    2.8103   20.2211   41.2820 H   0  0  0  0  0  0  0  0  0  0  0  0
  2  4  1  0
  3  2  1  0
  4 10  2  0
  5 23  1  0
  6 21  2  0
  7 10  1  0
  7 25  1  0
  8  7  1  0
  9 14  1  0
 11 15  2  0
 12 19  1  0
 13  1  1  0
 14  8  2  0
 14  4  1  0
 15 20  1  0
 16 20  2  0
 17  5  1  0
 17  1  2  0
 18  3  1  0
 19 27  1  0
 21  8  1  0
 22 24  1  0
 22 17  1  0
 23  9  2  0
 23  6  1  0
 24 13  2  0
 26 16  1  0
 27 26  2  0
 27 11  1  0
 28 20  1  0
 28 18  1  0
 28  9  1  0
  3 29  1  0
  3 30  1  0
  5 31  1  0
  6 32  1  0
  7 33  1  6
 11 34  1  0
 12 35  1  0
 13 36  1  0
 15 37  1  0
 16 38  1  0
 18 39  1  0
 18 40  1  0
 21 41  1  0
 24 42  1  0
 25 43  1  0
 25 44  1  0
 25 45  1  0
 26 46  1  0
 28 47  1  1
M  END
>  <mol_id>  (42) 
2026-08-24-6tgu-s0-n100-seed1-0044

>  <rmsd_to_ref>  (42) 


$$$$

     RDKit          3D

 50 50  0  0  0  0  0  0  0  0999 V2000
   -0.1821   17.7781   45.1164 C   0  0  0  0  0  0  0  0  0  0  0  0
    2.8444   20.6768   36.9493 O   0  0  0  0  0  0  0  0  0  0  0  0
    0.4944   16.6274   43.1528 C   0  0  0  0  0  0  0  0  0  0  0  0
    6.0102   16.2749   36.8291 N   0  0  0  0  0  0  0  0  0  0  0  0
    0.2710   14.7073   44.5515 C   0  0  0  0  0  0  0  0  0  0  0  0
    2.7382   14.6043   41.7619 C   0  0  0  0  0  0  0  0  0  0  0  0
    0.1957   18.8859   42.0848 C   0  0  0  0  0  0  0  0  0  0  0  0
    0.9275   15.3131   43.3577 C   0  0  0  0  0  0  0  0  0  0  0  0
    1.5962   19.4863   40.1808 C   0  0  0  0  0  0  0  0  0  0  0  0
    1.6404   14.5334   42.7352 C   0  0  0  0  0  0  0  0  0  0  0  0
    4.5202   15.9668   38.5844 C   0  0  0  0  0  0  0  0  0  0  0  0
   -0.9497   15.4352   45.0770 C   0  0  0  0  0  0  0  0  0  0  0  0
   -0.7697   19.2046   42.9151 O   0  0  0  0  0  0  0  0  0  0  0  0
   -0.4410   17.0796   44.1096 C   0  0  0  0  0  0  0  0  0  0  0  0
    0.6513   19.8330   41.1957 N   0  0  0  0  0  0  0  0  0  0  0  0
    5.2947   14.7913   38.9451 O   0  0  0  0  0  0  0  0  0  0  0  0
    1.8254   20.3414   39.0873 C   0  0  0  0  0  0  0  0  0  0  0  0
    4.3998   18.1663   37.3265 C   0  0  0  0  0  0  0  0  0  0  0  0
    5.1918   16.9313   37.7638 C   0  0  2  0  0  0  0  0  0  0  0  0
    2.6776   19.9095   38.1641 C   0  0  0  0  0  0  0  0  0  0  0  0
    3.4289   18.6747   38.2833 C   0  0  0  0  0  0  0  0  0  0  0  0
    0.4618   13.5711   45.0013 O   0  0  0  0  0  0  0  0  0  0  0  0
    4.5385   18.7900   36.2728 O   0  0  0  0  0  0  0  0  0  0  0  0
    3.4672   14.5620   41.1099 N   0  0  0  0  0  0  0  0  0  0  0  0
   -1.7634   17.3793   43.6585 O   0  0  0  0  0  0  0  0  0  0  0  0
    0.6938   17.6056   42.1794 C   0  0  0  0  0  0  0  0  0  0  0  0
    3.1543   17.8333   39.3821 C   0  0  0  0  0  0  0  0  0  0  0  0
    2.1968   18.2491   40.3291 C   0  0  0  0  0  0  0  0  0  0  0  0
   -0.9896   18.0768   45.8010 H   0  0  0  0  0  0  0  0  0  0  0  0
    0.8529   18.0928   45.3162 H   0  0  0  0  0  0  0  0  0  0  0  0
    2.3496   21.5257   36.8282 H   0  0  0  0  0  0  0  0  0  0  0  0
    6.6448   15.6301   37.3215 H   0  0  0  0  0  0  0  0  0  0  0  0
    5.4221   15.7427   36.1719 H   0  0  0  0  0  0  0  0  0  0  0  0
    6.5634   16.9707   36.3088 H   0  0  0  0  0  0  0  0  0  0  0  0
    0.8985   13.9230   42.1993 H   0  0  0  0  0  0  0  0  0  0  0  0
    2.3148   14.3619   43.5870 H   0  0  0  0  0  0  0  0  0  0  0  0
    3.6255   15.6274   38.0420 H   0  0  0  0  0  0  0  0  0  0  0  0
    4.3024   16.4819   39.5315 H   0  0  0  0  0  0  0  0  0  0  0  0
   -0.9749   15.3638   46.1744 H   0  0  0  0  0  0  0  0  0  0  0  0
   -0.9021   16.4931   44.7795 H   0  0  0  0  0  0  0  0  0  0  0  0
   -1.8580   14.9770   44.6588 H   0  0  0  0  0  0  0  0  0  0  0  0
    0.3077   20.8017   41.2624 H   0  0  0  0  0  0  0  0  0  0  0  0
    5.2679   14.6670   39.9270 H   0  0  0  0  0  0  0  0  0  0  0  0
    1.3250   21.3172   39.0013 H   0  0  0  0  0  0  0  0  0  0  0  0
    5.8790   17.4991   38.4082 H   0  0  0  0  0  0  0  0  0  0  0  0
   -2.4452   17.6986   44.3014 H   0  0  0  0  0  0  0  0  0  0  0  0
    0.3671   17.1232   41.2464 H   0  0  0  0  0  0  0  0  0  0  0  0
    1.7225   17.8754   42.4602 H   0  0  0  0  0  0  0  0  0  0  0  0
    3.6769   16.8722   39.4973 H   0  0  0  0  0  0  0  0  0  0  0  0
    1.9308   17.5983   41.1751 H   0  0  0  0  0  0  0  0  0  0  0  0
  2 20  1  0
  3  8  2  3
  3 14  1  0
  5 22  2  0
  5 12  1  0
  6 10  1  0
  7 26  1  0
  7 13  2  0
  8  5  1  0
  9 28  1  0
  9 15  1  0
 10  8  1  0
 11 16  1  0
 14  1  2  3
 15  7  1  0
 17  9  2  0
 18 19  1  0
 18 21  1  0
 19  4  1  0
 19 11  1  0
 20 21  2  0
 20 17  1  0
 21 27  1  0
 23 18  2  0
 24  6  3  0
 25 14  1  0
 26  3  1  0
 27 28  2  0
  1 29  1  0
  1 30  1  0
  2 31  1  0
  4 32  1  0
  4 33  1  0
  4 34  1  0
 10 35  1  0
 10 36  1  0
 11 37  1  0
 11 38  1  0
 12 39  1  0
 12 40  1  0
 12 41  1  0
 15 42  1  0
 16 43  1  0
 17 44  1  0
 19 45  1  1
 25 46  1  0
 26 47  1  0
 26 48  1  0
 27 49  1  0
 28 50  1  0
M  CHG  1   4   1
M  END
>  <mol_id>  (43) 
2026-08-24-6tgu-s0-n100-seed1-0045

>  <rmsd_to_ref>  (43) 


$$$$

     RDKit          3D

 37 38  0  0  0  0  0  0  0  0999 V2000
   -0.4125   18.4949   42.5246 C   0  0  0  0  0  0  0  0  0  0  0  0
   -0.4749   20.6941   42.1584 N   0  0  0  0  0  0  0  0  0  0  0  0
    3.2889   20.0334   37.5585 C   0  0  0  0  0  0  0  0  0  0  0  0
    0.5629   18.8440   41.5050 C   0  0  0  0  0  0  0  0  0  0  0  0
    2.8588   16.1850   40.1801 N   0  0  0  0  0  0  0  0  0  0  0  0
    1.7649   16.6615   40.8511 C   0  0  0  0  0  0  0  0  0  0  0  0
    0.4271   20.2122   41.2455 C   0  0  0  0  0  0  0  0  0  0  0  0
    0.9678   21.0908   40.2654 C   0  0  0  0  0  0  0  0  0  0  0  0
    4.3176   14.3977   39.4299 C   0  0  0  0  0  0  0  0  0  0  0  0
    1.4877   18.1060   40.5840 C   0  0  0  0  0  0  0  0  0  0  0  0
    3.0231   14.8157   40.1370 C   0  0  0  0  0  0  0  0  0  0  0  0
   -0.8453   17.2520   43.2152 C   0  0  0  0  0  0  0  0  0  0  0  0
   -0.9105   19.6283   42.9184 N   0  0  0  0  0  0  0  0  0  0  0  0
   -2.3086   17.1072   43.0226 N   0  0  0  0  0  0  0  0  0  0  0  0
    2.8842   18.2045   36.1851 O   0  0  0  0  0  0  0  0  0  0  0  0
    1.1070   15.9548   41.5862 O   0  0  0  0  0  0  0  0  0  0  0  0
    2.4458   19.8771   38.7642 C   0  0  0  0  0  0  0  0  0  0  0  0
    3.7616   18.9528   36.7055 C   0  0  0  0  0  0  0  0  0  0  0  0
    4.9555   18.6741   36.5636 O   0  0  0  0  0  0  0  0  0  0  0  0
    2.2526   18.6698   39.4815 C   0  0  0  0  0  0  0  0  0  0  0  0
    1.7587   20.9988   39.1622 C   0  0  0  0  0  0  0  0  0  0  0  0
    2.7216   20.7007   36.8929 H   0  0  0  0  0  0  0  0  0  0  0  0
    4.2373   20.3344   38.0274 H   0  0  0  0  0  0  0  0  0  0  0  0
    3.5303   16.8211   39.7269 H   0  0  0  0  0  0  0  0  0  0  0  0
    0.6620   22.1311   40.4509 H   0  0  0  0  0  0  0  0  0  0  0  0
    5.0121   13.9626   40.1635 H   0  0  0  0  0  0  0  0  0  0  0  0
    4.0877   13.6514   38.6551 H   0  0  0  0  0  0  0  0  0  0  0  0
    4.7818   15.2793   38.9636 H   0  0  0  0  0  0  0  0  0  0  0  0
    3.0449   14.4312   41.1673 H   0  0  0  0  0  0  0  0  0  0  0  0
    2.1817   14.3977   39.5649 H   0  0  0  0  0  0  0  0  0  0  0  0
   -0.3243   16.3844   42.7840 H   0  0  0  0  0  0  0  0  0  0  0  0
   -0.6042   17.3063   44.2871 H   0  0  0  0  0  0  0  0  0  0  0  0
   -2.7528   16.8804   43.9238 H   0  0  0  0  0  0  0  0  0  0  0  0
   -2.6963   17.9904   42.6614 H   0  0  0  0  0  0  0  0  0  0  0  0
   -2.4929   16.3503   42.3488 H   0  0  0  0  0  0  0  0  0  0  0  0
    2.9052   17.8912   39.0598 H   0  0  0  0  0  0  0  0  0  0  0  0
    1.8564   21.8980   38.5362 H   0  0  0  0  0  0  0  0  0  0  0  0
  1 13  1  0
  1 12  1  0
  2 13  2  0
  3 17  1  0
  4  1  2  0
  5 11  1  0
  5  6  1  0
  6 16  2  0
  7  4  1  0
  7  2  1  0
  8  7  2  0
  9 11  1  0
 10  6  1  0
 10  4  1  0
 14 12  1  0
 15 18  2  0
 17 21  2  0
 17 20  1  0
 18  3  1  0
 19 18  1  0
 20 10  2  0
 21  8  1  0
  3 22  1  0
  3 23  1  0
  5 24  1  0
  8 25  1  0
  9 26  1  0
  9 27  1  0
  9 28  1  0
 11 29  1  0
 11 30  1  0
 12 31  1  0
 12 32  1  0
 14 33  1  0
 14 34  1  0
 14 35  1  0
 20 36  1  0
 21 37  1  0
M  CHG  2  14   1  19  -1
M  END
>  <mol_id>  (44) 
2026-08-24-6tgu-s0-n100-seed1-0046

>  <rmsd_to_ref>  (44) 


$$$$

     RDKit          3D

 31 35  0  0  0  0  0  0  0  0999 V2000
    3.5060   19.5200   36.7190 N   0  0  0  0  0  0  0  0  0  0  0  0
   -0.6120   19.3530   43.8450 C   0  0  0  0  0  0  0  0  0  0  0  0
    2.5240   20.3060   38.6280 C   0  0  0  0  0  0  0  0  0  0  0  0
    0.6980   18.4700   42.0560 C   0  0  0  0  0  0  0  0  0  0  0  0
    0.0240   17.9930   43.4250 C   0  0  0  0  0  0  0  0  0  0  0  0
    0.1350   21.0790   42.2440 C   0  0  0  0  0  0  0  0  0  0  0  0
    1.4950   15.6420   41.6940 C   0  0  0  0  0  0  0  0  0  0  0  0
    3.7690   18.1980   37.1690 C   0  0  0  0  0  0  0  0  0  0  0  0
    1.2310   19.0150   41.1940 C   0  0  0  0  0  0  0  0  0  0  0  0
    1.0020   20.5900   41.0340 C   0  0  2  0  0  0  0  0  0  0  0  0
   -0.0890   16.5960   43.8030 N   0  0  0  0  0  0  0  0  0  0  0  0
    1.7980   21.1710   39.8550 S   0  0  0  0  0  0  0  0  0  0  0  0
    2.8790   20.4890   37.4470 C   0  0  0  0  0  0  0  0  0  0  0  0
    2.0300   18.2520   40.5300 C   0  0  0  0  0  0  0  0  0  0  0  0
    3.1570   17.8090   38.5370 C   0  0  0  0  0  0  0  0  0  0  0  0
    2.1590   16.5810   40.6540 C   0  0  0  0  0  0  0  0  0  0  0  0
    0.7220   15.7870   42.9370 C   0  0  0  0  0  0  0  0  0  0  0  0
    3.0000   16.6320   39.1690 N   0  0  0  0  0  0  0  0  0  0  0  0
   -0.4660   20.5380   43.2100 N   0  0  0  0  0  0  0  0  0  0  0  0
    2.4880   18.8190   39.2750 C   0  0  0  0  0  0  0  0  0  0  0  0
   -1.6964   19.1689   43.8615 H   0  0  0  0  0  0  0  0  0  0  0  0
   -0.0236   19.5577   44.7516 H   0  0  0  0  0  0  0  0  0  0  0  0
    0.0224   22.1732   42.2521 H   0  0  0  0  0  0  0  0  0  0  0  0
    1.6412   14.5837   41.4320 H   0  0  0  0  0  0  0  0  0  0  0  0
    4.3724   17.4919   36.5796 H   0  0  0  0  0  0  0  0  0  0  0  0
    0.0863   20.3981   40.4555 H   0  0  0  0  0  0  0  0  0  0  0  0
    0.2286   16.4789   44.7758 H   0  0  0  0  0  0  0  0  0  0  0  0
   -1.0723   16.3010   43.7192 H   0  0  0  0  0  0  0  0  0  0  0  0
    2.6803   21.4633   36.9765 H   0  0  0  0  0  0  0  0  0  0  0  0
    0.0314   14.9413   42.8036 H   0  0  0  0  0  0  0  0  0  0  0  0
    1.6189   16.1958   43.4254 H   0  0  0  0  0  0  0  0  0  0  0  0
  1  8  2  0
  1 13  1  0
  3 20  1  0
  3 12  1  0
  4  5  2  0
  5 11  1  0
  5  2  1  0
  6 19  2  0
  7 17  1  0
  8 15  1  0
  9  4  2  0
 10  9  1  0
 10  6  1  0
 12 10  1  0
 13  3  2  0
 14 16  1  0
 14  9  1  0
 15 18  2  0
 15 20  1  0
 16  7  2  0
 17 11  1  0
 18 16  1  0
 19  2  1  0
 20 14  2  0
  2 21  1  0
  2 22  1  0
  6 23  1  0
  7 24  1  0
  8 25  1  0
 10 26  1  6
 11 27  1  0
 11 28  1  0
 13 29  1  0
 17 30  1  0
 17 31  1  0
M  CHG  1  11   1
M  END
>  <mol_id>  (45) 
2026-08-24-6tgu-s0-n100-seed1-0047

>  <rmsd_to_ref>  (45) 


$$$$

     RDKit          3D

 26 27  0  0  0  0  0  0  0  0999 V2000
    1.7297   16.1154   40.2341 N   0  0  0  0  0  0  0  0  0  0  0  0
    3.1085   22.2148   35.7603 N   0  0  0  0  0  0  0  0  0  0  0  0
    2.8350   20.4179   37.6098 C   0  0  0  0  0  0  0  0  0  0  0  0
    3.0053   21.4242   36.6341 C   0  0  0  0  0  0  0  0  0  0  0  0
   -0.5470   15.8431   43.0456 C   0  0  0  0  0  0  0  0  0  0  0  0
    3.3335   19.2454   37.2902 C   0  0  0  0  0  0  0  0  0  0  0  0
    1.9884   19.4466   39.5589 C   0  0  0  0  0  0  0  0  0  0  0  0
    2.1341   17.0992   39.7435 N   0  0  0  0  0  0  0  0  0  0  0  0
    0.8528   17.6175   41.5863 C   0  0  0  0  0  0  0  0  0  0  0  0
    3.0857   18.1190   38.0170 C   0  0  0  0  0  0  0  0  0  0  0  0
    0.0728   18.0648   42.7196 N   0  0  0  0  0  0  0  0  0  0  0  0
    2.2152   20.6222   38.8313 C   0  0  0  0  0  0  0  0  0  0  0  0
   -0.5976   17.1801   43.3373 C   0  0  0  0  0  0  0  0  0  0  0  0
    0.1928   15.4139   41.9797 C   0  0  0  0  0  0  0  0  0  0  0  0
    2.3717   18.1887   39.2103 C   0  0  0  0  0  0  0  0  0  0  0  0
    0.8161   16.3448   41.2258 C   0  0  0  0  0  0  0  0  0  0  0  0
    2.0316   15.1731   39.9478 H   0  0  0  0  0  0  0  0  0  0  0  0
   -1.0978   15.1198   43.6649 H   0  0  0  0  0  0  0  0  0  0  0  0
    3.9762   19.1694   36.4008 H   0  0  0  0  0  0  0  0  0  0  0  0
    1.4447   19.5515   40.5093 H   0  0  0  0  0  0  0  0  0  0  0  0
    3.1250   16.8299   39.8245 H   0  0  0  0  0  0  0  0  0  0  0  0
    1.4739   18.3323   41.0267 H   0  0  0  0  0  0  0  0  0  0  0  0
    3.4531   17.1465   37.6575 H   0  0  0  0  0  0  0  0  0  0  0  0
    1.9266   21.6186   39.1975 H   0  0  0  0  0  0  0  0  0  0  0  0
   -1.2575   17.5073   44.1543 H   0  0  0  0  0  0  0  0  0  0  0  0
    0.2779   14.3430   41.7431 H   0  0  0  0  0  0  0  0  0  0  0  0
  1 16  1  0
  2  4  3  0
  3 12  2  0
  4  3  1  0
  5 13  1  0
  6  3  1  0
  6 10  2  0
  8  1  1  0
  9 11  1  0
 10 15  1  0
 11 13  2  0
 12  7  1  0
 14  5  2  0
 15  7  2  0
 15  8  1  0
 16  9  2  0
 16 14  1  0
  1 17  1  0
  5 18  1  0
  6 19  1  0
  7 20  1  0
  8 21  1  0
  9 22  1  0
 10 23  1  0
 12 24  1  0
 13 25  1  0
 14 26  1  0
M  END
>  <mol_id>  (46) 
2026-08-24-6tgu-s0-n100-seed1-0048

>  <rmsd_to_ref>  (46) 


$$$$

     RDKit          3D

 60 62  0  0  0  0  0  0  0  0999 V2000
    2.7077   21.3295   36.1292 N   0  0  0  0  0  0  0  0  0  0  0  0
    1.2365   13.7760   42.1660 C   0  0  0  0  0  0  0  0  0  0  0  0
   -1.4681   15.5706   44.8065 C   0  0  0  0  0  0  0  0  0  0  0  0
    2.5307   18.0520   38.7726 C   0  0  1  0  0  0  0  0  0  0  0  0
    0.4673   18.2961   41.7545 C   0  0  0  0  0  0  0  0  0  0  0  0
    0.2258   19.6303   40.9349 C   0  0  0  0  0  0  0  0  0  0  0  0
   -0.1583   16.0205   42.6559 C   0  0  0  0  0  0  0  0  0  0  0  0
    3.1470   16.9617   38.5610 N   0  0  0  0  0  0  0  0  0  0  0  0
    0.7099   12.7808   43.2831 C   0  0  0  0  0  0  0  0  0  0  0  0
    4.2972   14.5278   37.8608 C   0  0  0  0  0  0  0  0  0  0  0  0
   -0.9977   15.3258   43.4393 O   0  0  0  0  0  0  0  0  0  0  0  0
    2.4533   20.7928   40.6883 F   0  0  0  0  0  0  0  0  0  0  0  0
   -0.0334   20.0658   39.8547 F   0  0  0  0  0  0  0  0  0  0  0  0
    0.9873   15.2355   42.0102 C   0  0  0  0  0  0  0  0  0  0  0  0
    1.9193   21.2551   36.8153 C   0  0  0  0  0  0  0  0  0  0  0  0
    1.4790   17.3973   41.0618 C   0  0  0  0  0  0  0  0  0  0  0  0
    2.6755   19.5717   40.4480 C   0  0  2  0  0  0  0  0  0  0  0  0
    4.2804   15.6731   36.9293 N   0  0  0  0  0  0  0  0  0  0  0  0
    0.3534   19.5409   41.7784 O   0  0  0  0  0  0  0  0  0  0  0  0
   -0.3843   17.3779   42.5186 C   0  0  0  0  0  0  0  0  0  0  0  0
    4.0031   18.0040   36.7414 N   0  0  0  0  0  0  0  0  0  0  0  0
    2.3637   13.1292   41.4217 C   0  0  0  0  0  0  0  0  0  0  0  0
    2.0713   18.3552   40.0487 C   0  0  1  0  0  0  0  0  0  0  0  0
    1.7162   20.2928   37.7210 C   0  0  0  0  0  0  0  0  0  0  0  0
    4.1437   19.3974   40.7236 C   0  0  0  0  0  0  0  0  0  0  0  0
    2.4939   19.2614   37.8371 C   0  0  0  0  0  0  0  0  0  0  0  0
    1.6977   16.0554   41.1664 C   0  0  0  0  0  0  0  0  0  0  0  0
    3.8525   17.0375   37.4642 C   0  0  0  0  0  0  0  0  0  0  0  0
    5.6549   16.0202   36.5306 C   0  0  0  0  0  0  0  0  0  0  0  0
    3.3076   19.1751   36.8478 C   0  0  0  0  0  0  0  0  0  0  0  0
    3.2598   20.6351   36.0630 N   0  0  0  0  0  0  0  0  0  0  0  0
    0.2572   14.0814   41.7690 H   0  0  0  0  0  0  0  0  0  0  0  0
   -0.9279   14.9129   45.5034 H   0  0  0  0  0  0  0  0  0  0  0  0
   -1.2827   16.6210   45.0755 H   0  0  0  0  0  0  0  0  0  0  0  0
   -2.5464   15.3617   44.8663 H   0  0  0  0  0  0  0  0  0  0  0  0
    1.9409   17.3721   38.1402 H   0  0  0  0  0  0  0  0  0  0  0  0
    1.2356   19.2950   40.6560 H   0  0  0  0  0  0  0  0  0  0  0  0
   -0.8501   19.6861   41.1573 H   0  0  0  0  0  0  0  0  0  0  0  0
    0.9610   13.1794   44.2771 H   0  0  0  0  0  0  0  0  0  0  0  0
   -0.3816   12.6755   43.1953 H   0  0  0  0  0  0  0  0  0  0  0  0
    1.1850   11.7975   43.1516 H   0  0  0  0  0  0  0  0  0  0  0  0
    4.2272   14.8954   38.8952 H   0  0  0  0  0  0  0  0  0  0  0  0
    3.4427   13.8688   37.6472 H   0  0  0  0  0  0  0  0  0  0  0  0
    5.2343   13.9657   37.7341 H   0  0  0  0  0  0  0  0  0  0  0  0
    1.1724   22.0621   36.7871 H   0  0  0  0  0  0  0  0  0  0  0  0
    2.9015   19.8190   39.4002 H   0  0  0  0  0  0  0  0  0  0  0  0
   -1.2679   17.8004   43.0194 H   0  0  0  0  0  0  0  0  0  0  0  0
    3.0075   12.5871   42.1299 H   0  0  0  0  0  0  0  0  0  0  0  0
    1.9575   12.4240   40.6816 H   0  0  0  0  0  0  0  0  0  0  0  0
    2.9540   13.9015   40.9068 H   0  0  0  0  0  0  0  0  0  0  0  0
    0.9759   18.3291   39.9513 H   0  0  0  0  0  0  0  0  0  0  0  0
    0.8525   20.3795   38.3965 H   0  0  0  0  0  0  0  0  0  0  0  0
    4.2987   19.2444   41.8018 H   0  0  0  0  0  0  0  0  0  0  0  0
    4.5190   18.5231   40.1716 H   0  0  0  0  0  0  0  0  0  0  0  0
    4.6870   20.2970   40.3990 H   0  0  0  0  0  0  0  0  0  0  0  0
    2.4841   15.6054   40.5426 H   0  0  0  0  0  0  0  0  0  0  0  0
    6.2970   16.0582   37.4229 H   0  0  0  0  0  0  0  0  0  0  0  0
    6.0383   15.2590   35.8352 H   0  0  0  0  0  0  0  0  0  0  0  0
    5.6562   17.0027   36.0359 H   0  0  0  0  0  0  0  0  0  0  0  0
    4.0099   20.7617   35.3686 H   0  0  0  0  0  0  0  0  0  0  0  0
  1 15  2  0
  2  9  1  0
  4 23  1  0
  5 20  1  0
  6 19  1  0
  7 11  1  0
  8  4  1  0
 11  3  1  0
 13  6  1  0
 14  2  1  0
 14  7  1  0
 15 24  1  0
 16 27  1  0
 16  5  2  0
 17 12  1  0
 17 25  1  0
 18 28  1  0
 18 10  1  0
 19  5  1  0
 20  7  2  0
 21 28  1  0
 22  2  1  0
 23 17  1  0
 23 16  1  0
 24 26  2  0
 26  4  1  0
 27 14  2  0
 28  8  2  0
 29 18  1  0
 30 21  2  0
 30 26  1  0
 31  1  1  0
 31 30  1  0
  2 32  1  0
  3 33  1  0
  3 34  1  0
  3 35  1  0
  4 36  1  6
  6 37  1  0
  6 38  1  0
  9 39  1  0
  9 40  1  0
  9 41  1  0
 10 42  1  0
 10 43  1  0
 10 44  1  0
 15 45  1  0
 17 46  1  6
 20 47  1  0
 22 48  1  0
 22 49  1  0
 22 50  1  0
 23 51  1  6
 24 52  1  0
 25 53  1  0
 25 54  1  0
 25 55  1  0
 27 56  1  0
 29 57  1  0
 29 58  1  0
 29 59  1  0
 31 60  1  0
M  END
>  <mol_id>  (47) 
2026-08-24-6tgu-s0-n100-seed1-0049

>  <rmsd_to_ref>  (47) 


$$$$

     RDKit          3D

 20 21  0  0  0  0  0  0  0  0999 V2000
    0.1167   16.5636   43.2003 N   0  0  0  0  0  0  0  0  0  0  0  0
    2.1834   18.5645   40.7074 C   0  0  0  0  0  0  0  0  0  0  0  0
    1.2952   16.8595   42.5911 N   0  0  0  0  0  0  0  0  0  0  0  0
    4.1661   19.1486   37.5513 O   0  0  0  0  0  0  0  0  0  0  0  0
   -0.7537   17.4109   42.7147 C   0  0  0  0  0  0  0  0  0  0  0  0
    2.5455   20.2465   38.9237 C   0  0  0  0  0  0  0  0  0  0  0  0
   -0.0681   18.3019   41.7975 C   0  0  0  0  0  0  0  0  0  0  0  0
   -0.5431   19.3693   41.0013 C   0  0  0  0  0  0  0  0  0  0  0  0
    1.3177   17.9009   41.7042 C   0  0  2  0  0  0  0  0  0  0  0  0
    0.3354   20.0144   40.0781 C   0  0  0  0  0  0  0  0  0  0  0  0
    3.2112   19.8766   37.6527 C   0  0  0  0  0  0  0  0  0  0  0  0
    1.6264   19.5428   39.9138 C   0  0  0  0  0  0  0  0  0  0  0  0
    2.7966   20.4496   36.5984 O   0  0  0  0  0  0  0  0  0  0  0  0
    3.2422   18.2853   40.6023 H   0  0  0  0  0  0  0  0  0  0  0  0
   -1.8254   17.4425   42.9604 H   0  0  0  0  0  0  0  0  0  0  0  0
    1.9588   21.1324   38.6389 H   0  0  0  0  0  0  0  0  0  0  0  0
    3.4498   20.1234   39.5377 H   0  0  0  0  0  0  0  0  0  0  0  0
   -1.5874   19.7024   41.0927 H   0  0  0  0  0  0  0  0  0  0  0  0
    1.5888   18.6646   42.4480 H   0  0  0  0  0  0  0  0  0  0  0  0
   -0.0128   20.8828   39.4998 H   0  0  0  0  0  0  0  0  0  0  0  0
  3  1  2  0
  4 11  1  0
  5  1  1  0
  6 12  1  0
  7  5  2  0
  8  7  1  0
  9  2  1  0
  9  7  1  0
  9  3  1  0
 10  8  2  0
 11  6  1  0
 12  2  2  0
 12 10  1  0
 13 11  2  0
  2 14  1  0
  5 15  1  0
  6 16  1  0
  6 17  1  0
  8 18  1  0
  9 19  1  1
 10 20  1  0
M  CHG  1   4  -1
M  END
>  <mol_id>  (48) 
2026-08-24-6tgu-s0-n100-seed1-0050

>  <rmsd_to_ref>  (48) 


$$$$

     RDKit          3D

 44 46  0  0  0  0  0  0  0  0999 V2000
    3.2377   20.0478   37.0662 C   0  0  0  0  0  0  0  0  0  0  0  0
    0.9577   13.1740   44.0751 C   0  0  0  0  0  0  0  0  0  0  0  0
   -1.1553   19.1443   41.5046 N   0  0  0  0  0  0  0  0  0  0  0  0
    0.6377   12.2576   44.9437 N   0  0  0  0  0  0  0  0  0  0  0  0
    5.0864   17.0465   37.5233 N   0  0  0  0  0  0  0  0  0  0  0  0
    1.7169   15.9399   42.1270 C   0  0  0  0  0  0  0  0  0  0  0  0
    1.2972   19.0423   39.9479 C   0  0  0  0  0  0  0  0  0  0  0  0
    2.3828   20.0817   38.0492 C   0  0  0  0  0  0  0  0  0  0  0  0
    4.1920   19.0804   36.8531 N   0  0  0  0  0  0  0  0  0  0  0  0
   -0.5719   17.2824   42.5903 C   0  0  0  0  0  0  0  0  0  0  0  0
   -0.6139   15.9705   43.0103 C   0  0  0  0  0  0  0  0  0  0  0  0
    1.8962   16.8798   41.2458 C   0  0  0  0  0  0  0  0  0  0  0  0
    0.6311   15.1497   42.8774 C   0  0  2  0  0  0  0  0  0  0  0  0
    1.5740   12.6069   42.9913 O   0  0  0  0  0  0  0  0  0  0  0  0
    1.0342   18.1080   40.8848 C   0  0  0  0  0  0  0  0  0  0  0  0
   -0.1613   18.1743   41.6637 C   0  0  0  0  0  0  0  0  0  0  0  0
    3.2977   20.9363   36.1918 C   0  0  0  0  0  0  0  0  0  0  0  0
    4.2692   18.1513   37.7168 C   0  0  0  0  0  0  0  0  0  0  0  0
    3.7979   21.5077   35.3457 N   0  0  0  0  0  0  0  0  0  0  0  0
    0.8821   14.4137   44.1055 N   0  0  0  0  0  0  0  0  0  0  0  0
    3.4296   18.1118   38.9041 C   0  0  0  0  0  0  0  0  0  0  0  0
   -0.7164   19.9354   40.7607 C   0  0  0  0  0  0  0  0  0  0  0  0
    0.3306   19.9797   40.0212 C   0  0  0  0  0  0  0  0  0  0  0  0
    2.3991   19.0457   38.9512 C   0  0  0  0  0  0  0  0  0  0  0  0
    0.7825   11.2627   44.7199 H   0  0  0  0  0  0  0  0  0  0  0  0
    0.2397   12.5278   45.8545 H   0  0  0  0  0  0  0  0  0  0  0  0
    5.1308   16.3072   38.2391 H   0  0  0  0  0  0  0  0  0  0  0  0
    5.6484   16.9659   36.6639 H   0  0  0  0  0  0  0  0  0  0  0  0
    2.2922   16.3445   42.9728 H   0  0  0  0  0  0  0  0  0  0  0  0
    1.7773   15.1651   41.3487 H   0  0  0  0  0  0  0  0  0  0  0  0
    1.6707   20.9137   38.1534 H   0  0  0  0  0  0  0  0  0  0  0  0
   -1.6509   17.4959   42.5732 H   0  0  0  0  0  0  0  0  0  0  0  0
    0.3803   17.4135   43.1251 H   0  0  0  0  0  0  0  0  0  0  0  0
   -0.8895   15.9766   44.0752 H   0  0  0  0  0  0  0  0  0  0  0  0
   -1.3344   15.4884   42.3332 H   0  0  0  0  0  0  0  0  0  0  0  0
    2.8705   17.3125   41.5170 H   0  0  0  0  0  0  0  0  0  0  0  0
    1.6525   16.2789   40.3572 H   0  0  0  0  0  0  0  0  0  0  0  0
    0.5590   14.2935   42.1905 H   0  0  0  0  0  0  0  0  0  0  0  0
    2.3322   21.4521   36.2993 H   0  0  0  0  0  0  0  0  0  0  0  0
    3.3111   22.2983   34.8998 H   0  0  0  0  0  0  0  0  0  0  0  0
    0.9967   14.9175   44.9965 H   0  0  0  0  0  0  0  0  0  0  0  0
    3.5989   17.3880   39.7149 H   0  0  0  0  0  0  0  0  0  0  0  0
   -1.3388   20.8386   40.6781 H   0  0  0  0  0  0  0  0  0  0  0  0
    0.4518   20.8688   39.3849 H   0  0  0  0  0  0  0  0  0  0  0  0
  1  8  1  0
  2 20  1  0
  2  4  1  0
  3 16  1  0
  5 18  1  0
  6 13  1  0
  7 23  2  0
  7 15  1  0
  8 24  2  0
  9  1  2  0
  9 18  1  0
 10 11  1  0
 12  6  1  0
 13 11  1  0
 13 20  1  0
 14  2  2  0
 15 12  1  0
 15 16  2  0
 16 10  1  0
 17  1  1  0
 18 21  2  0
 19 17  2  3
 21 24  1  0
 22  3  2  0
 23 22  1  0
 24  7  1  0
  4 25  1  0
  4 26  1  0
  5 27  1  0
  5 28  1  0
  6 29  1  0
  6 30  1  0
  8 31  1  0
 10 32  1  0
 10 33  1  0
 11 34  1  0
 11 35  1  0
 12 36  1  0
 12 37  1  0
 13 38  1  6
 17 39  1  0
 19 40  1  0
 20 41  1  0
 21 42  1  0
 22 43  1  0
 23 44  1  0
M  END
>  <mol_id>  (49) 
2026-08-24-6tgu-s0-n100-seed1-0051

>  <rmsd_to_ref>  (49) 


$$$$

     RDKit          3D

 34 35  0  0  0  0  0  0  0  0999 V2000
   -0.0669   18.2119   43.0584 C   0  0  0  0  0  0  0  0  0  0  0  0
    2.2984   18.6400   41.2092 N   0  0  0  0  0  0  0  0  0  0  0  0
   -2.3449   18.6380   43.3466 C   0  0  0  0  0  0  0  0  0  0  0  0
   -2.4014   19.4063   42.1664 C   0  0  0  0  0  0  0  0  0  0  0  0
   -1.2221   19.6089   41.4386 C   0  0  0  0  0  0  0  0  0  0  0  0
    1.1829   19.1870   41.0802 C   0  0  0  0  0  0  0  0  0  0  0  0
    1.3332   17.4655   43.6309 Cl  0  0  0  0  0  0  0  0  0  0  0  0
    3.2396   19.9751   38.1041 C   0  0  0  0  0  0  0  0  0  0  0  0
    3.4864   19.0456   39.2285 C   0  0  0  0  0  0  0  0  0  0  0  0
    4.5155   18.2944   38.7705 C   0  0  0  0  0  0  0  0  0  0  0  0
   -1.2023   18.0320   43.7671 C   0  0  0  0  0  0  0  0  0  0  0  0
    4.1270   19.5956   37.1455 C   0  0  0  0  0  0  0  0  0  0  0  0
    4.1409   20.0929   35.8738 O   0  0  0  0  0  0  0  0  0  0  0  0
    3.2070   18.9364   40.4969 C   0  0  1  0  0  0  0  0  0  0  0  0
    4.9188   18.6288   37.5251 N   0  0  0  0  0  0  0  0  0  0  0  0
    2.7276   19.6411   40.2020 C   0  0  0  0  0  0  0  0  0  0  0  0
    1.4337   20.1436   40.2584 N   0  0  0  0  0  0  0  0  0  0  0  0
   -0.0615   19.0236   41.8213 C   0  0  0  0  0  0  0  0  0  0  0  0
   -3.2580   18.5245   43.9495 H   0  0  0  0  0  0  0  0  0  0  0  0
   -3.3531   19.8383   41.8235 H   0  0  0  0  0  0  0  0  0  0  0  0
   -1.2381   20.2509   40.5455 H   0  0  0  0  0  0  0  0  0  0  0  0
    3.7822   20.4244   38.9488 H   0  0  0  0  0  0  0  0  0  0  0  0
    2.5393   20.7122   37.6844 H   0  0  0  0  0  0  0  0  0  0  0  0
    2.6796   19.0953   38.4542 H   0  0  0  0  0  0  0  0  0  0  0  0
    3.7274   20.1001   39.0287 H   0  0  0  0  0  0  0  0  0  0  0  0
    2.5961   18.6730   38.7007 H   0  0  0  0  0  0  0  0  0  0  0  0
    5.3671   18.4167   39.4559 H   0  0  0  0  0  0  0  0  0  0  0  0
    4.1598   17.2545   38.7252 H   0  0  0  0  0  0  0  0  0  0  0  0
   -1.2029   17.4047   44.6706 H   0  0  0  0  0  0  0  0  0  0  0  0
    4.0386   18.4613   41.0380 H   0  0  0  0  0  0  0  0  0  0  0  0
    5.6901   18.2087   36.9870 H   0  0  0  0  0  0  0  0  0  0  0  0
    3.3065   20.4837   40.6082 H   0  0  0  0  0  0  0  0  0  0  0  0
    2.5589   19.1788   39.2182 H   0  0  0  0  0  0  0  0  0  0  0  0
    0.9132   20.9252   39.8353 H   0  0  0  0  0  0  0  0  0  0  0  0
  1 11  2  0
  2  6  2  0
  4  3  2  0
  5  4  1  0
  6 18  1  0
  7  1  1  0
 10  9  1  0
 11  3  1  0
 12  8  1  0
 13 12  2  0
 14  9  1  0
 14 16  1  0
 14  2  1  0
 15 12  1  0
 15 10  1  0
 16 17  1  0
 17  6  1  0
 18  5  2  0
 18  1  1  0
  3 19  1  0
  4 20  1  0
  5 21  1  0
  8 22  1  0
  8 23  1  0
  8 24  1  0
  9 25  1  0
  9 26  1  0
 10 27  1  0
 10 28  1  0
 11 29  1  0
 14 30  1  1
 15 31  1  0
 16 32  1  0
 16 33  1  0
 17 34  1  0
M  END
>  <mol_id>  (50) 
2026-08-24-6tgu-s0-n100-seed1-0052

>  <rmsd_to_ref>  (50) 


$$$$

     RDKit          3D

 24 25  0  0  0  0  0  0  0  0999 V2000
    3.4980   18.5010   37.8480 C   0  0  0  0  0  0  0  0  0  0  0  0
    0.7690   20.1330   41.4250 C   0  0  0  0  0  0  0  0  0  0  0  0
    3.0920   18.1120   39.1090 C   0  0  0  0  0  0  0  0  0  0  0  0
   -0.1970   18.1430   43.6830 C   0  0  0  0  0  0  0  0  0  0  0  0
    3.1230   20.4780   36.6770 O   0  0  0  0  0  0  0  0  0  0  0  0
    2.8650   19.8290   37.6000 C   0  0  0  0  0  0  0  0  0  0  0  0
   -0.1280   20.2450   42.4440 C   0  0  0  0  0  0  0  0  0  0  0  0
    2.0870   20.0180   38.7060 O   0  0  0  0  0  0  0  0  0  0  0  0
    2.2640   19.0980   39.7040 C   0  0  0  0  0  0  0  0  0  0  0  0
   -0.5000   19.4570   43.4090 C   0  0  0  0  0  0  0  0  0  0  0  0
    0.5950   17.4450   42.8170 C   0  0  0  0  0  0  0  0  0  0  0  0
    1.2540   17.8350   41.6280 C   0  0  0  0  0  0  0  0  0  0  0  0
    4.1510   17.9160   36.9280 O   0  0  0  0  0  0  0  0  0  0  0  0
    1.4200   18.9530   40.9370 C   0  0  0  0  0  0  0  0  0  0  0  0
   -0.7730   17.6870   44.8710 C   0  0  0  0  0  0  0  0  0  0  0  0
    1.1120   21.3060   40.8180 O   0  0  0  0  0  0  0  0  0  0  0  0
   -1.2210   17.4520   45.8950 N   0  0  0  0  0  0  0  0  0  0  0  0
    3.3734   17.1630   39.5887 H   0  0  0  0  0  0  0  0  0  0  0  0
    0.2113   21.1461   42.9758 H   0  0  0  0  0  0  0  0  0  0  0  0
   -1.0176   20.0739   41.8200 H   0  0  0  0  0  0  0  0  0  0  0  0
   -1.1789   19.9248   44.1372 H   0  0  0  0  0  0  0  0  0  0  0  0
    0.7477   16.3913   43.0935 H   0  0  0  0  0  0  0  0  0  0  0  0
    1.7636   16.9851   41.1506 H   0  0  0  0  0  0  0  0  0  0  0  0
    1.7590   21.3049   40.0687 H   0  0  0  0  0  0  0  0  0  0  0  0
  1  3  1  0
  2  7  1  0
  3  9  2  0
  4 15  1  0
  5  6  2  0
  6  1  1  0
  6  8  1  0
  7 10  1  0
  8  9  1  0
  9 14  1  0
 10  4  2  0
 11  4  1  0
 12 11  2  0
 13  1  2  0
 14  2  2  0
 14 12  1  0
 15 17  3  0
 16  2  1  0
  3 18  1  0
  7 19  1  0
  7 20  1  0
 10 21  1  0
 11 22  1  0
 12 23  1  0
 16 24  1  0
M  END
>  <mol_id>  (51) 
2026-08-24-6tgu-s0-n100-seed1-0053

>  <rmsd_to_ref>  (51) 


$$$$

     RDKit          3D

 41 44  0  0  0  0  0  0  0  0999 V2000
    3.7828   13.3146   37.1824 C   0  0  0  0  0  0  0  0  0  0  0  0
    2.5428   18.6604   39.3187 C   0  0  0  0  0  0  0  0  0  0  0  0
   -0.1668   20.2877   42.4133 C   0  0  0  0  0  0  0  0  0  0  0  0
    1.5222   20.4204   40.7130 C   0  0  0  0  0  0  0  0  0  0  0  0
   -2.9735   18.5243   44.3228 N   0  0  0  0  0  0  0  0  0  0  0  0
    3.7671   17.1596   37.4791 C   0  0  0  0  0  0  0  0  0  0  0  0
    0.4912   16.6252   41.5488 S   0  0  0  0  0  0  0  0  0  0  0  0
    2.4450   21.1780   39.9418 O   0  0  0  0  0  0  0  0  0  0  0  0
    0.6636   21.0317   41.5977 C   0  0  0  0  0  0  0  0  0  0  0  0
    2.4948   15.0217   38.7728 C   0  0  0  0  0  0  0  0  0  0  0  0
    2.9484   17.4189   38.7229 C   0  0  0  0  0  0  0  0  0  0  0  0
    4.3471   12.3016   38.1442 C   0  0  0  0  0  0  0  0  0  0  0  0
   -1.5225   18.4929   44.5000 C   0  0  0  0  0  0  0  0  0  0  0  0
   -1.0420   20.8652   43.1953 O   0  0  0  0  0  0  0  0  0  0  0  0
   -0.6211   16.6801   42.8551 C   0  0  0  0  0  0  0  0  0  0  0  0
   -0.8310   18.0007   43.1918 C   0  0  0  0  0  0  0  0  0  0  0  0
    1.7514   14.1537   39.2306 O   0  0  0  0  0  0  0  0  0  0  0  0
    2.9997   12.0540   37.5487 C   0  0  0  0  0  0  0  0  0  0  0  0
    3.4304   14.7115   37.7601 C   0  0  0  0  0  0  0  0  0  0  0  0
    4.3195   18.0833   36.8366 O   0  0  0  0  0  0  0  0  0  0  0  0
    2.3350   16.2928   39.2226 N   0  0  0  0  0  0  0  0  0  0  0  0
    0.7355   18.2245   41.4068 C   0  0  0  0  0  0  0  0  0  0  0  0
    4.0351   15.8560   37.1713 N   0  0  0  0  0  0  0  0  0  0  0  0
    1.5837   19.0020   40.4236 C   0  0  0  0  0  0  0  0  0  0  0  0
   -0.0944   18.8855   42.4013 C   0  0  0  0  0  0  0  0  0  0  0  0
    4.0628   13.7731   36.2226 H   0  0  0  0  0  0  0  0  0  0  0  0
    2.1609   19.2384   38.4642 H   0  0  0  0  0  0  0  0  0  0  0  0
    3.4573   18.8060   39.9125 H   0  0  0  0  0  0  0  0  0  0  0  0
   -3.4318   18.5333   45.2451 H   0  0  0  0  0  0  0  0  0  0  0  0
   -3.2372   19.3717   43.8000 H   0  0  0  0  0  0  0  0  0  0  0  0
   -3.2736   17.6902   43.7984 H   0  0  0  0  0  0  0  0  0  0  0  0
    3.0550   20.7207   39.3103 H   0  0  0  0  0  0  0  0  0  0  0  0
    0.6381   22.1298   41.6564 H   0  0  0  0  0  0  0  0  0  0  0  0
    5.2012   11.6778   37.8420 H   0  0  0  0  0  0  0  0  0  0  0  0
    4.7386   12.3490   39.1711 H   0  0  0  0  0  0  0  0  0  0  0  0
   -1.1641   19.5042   44.7422 H   0  0  0  0  0  0  0  0  0  0  0  0
   -1.2758   17.8009   45.3187 H   0  0  0  0  0  0  0  0  0  0  0  0
   -1.6286   20.3153   43.7728 H   0  0  0  0  0  0  0  0  0  0  0  0
   -1.0870   15.8100   43.3409 H   0  0  0  0  0  0  0  0  0  0  0  0
    2.0987   12.1281   38.1753 H   0  0  0  0  0  0  0  0  0  0  0  0
    2.5373   11.2320   36.9825 H   0  0  0  0  0  0  0  0  0  0  0  0
  1 18  1  0
  1 19  1  0
  1 12  1  0
  2 24  1  0
  3 14  1  0
  4  9  2  0
  6 11  1  0
  7 15  1  0
  8  4  1  0
  9  3  1  0
 10 21  1  0
 10 17  2  0
 11 21  2  0
 11  2  1  0
 13  5  1  0
 15 16  2  0
 16 13  1  0
 18 12  1  0
 19 10  1  0
 20  6  2  0
 22  7  1  0
 22 25  1  0
 23  6  1  0
 23 19  2  0
 24  4  1  0
 24 22  2  0
 25  3  2  0
 25 16  1  0
  1 26  1  0
  2 27  1  0
  2 28  1  0
  5 29  1  0
  5 30  1  0
  5 31  1  0
  8 32  1  0
  9 33  1  0
 12 34  1  0
 12 35  1  0
 13 36  1  0
 13 37  1  0
 14 38  1  0
 15 39  1  0
 18 40  1  0
 18 41  1  0
M  CHG  1   5   1
M  END
>  <mol_id>  (52) 
2026-08-24-6tgu-s0-n100-seed1-0054

>  <rmsd_to_ref>  (52) 


$$$$

     RDKit          3D

 51 53  0  0  0  0  0  0  0  0999 V2000
   -1.6858   17.9543   43.1858 C   0  0  0  0  0  0  0  0  0  0  0  0
    1.9105   15.7674   41.3797 O   0  0  0  0  0  0  0  0  0  0  0  0
   -0.0111   20.4395   41.1571 C   0  0  0  0  0  0  0  0  0  0  0  0
    2.5415   17.8356   40.3248 N   0  0  0  0  0  0  0  0  0  0  0  0
   -0.7762   19.8210   42.0727 C   0  0  0  0  0  0  0  0  0  0  0  0
    1.0257   19.7558   40.4566 C   0  0  0  0  0  0  0  0  0  0  0  0
    3.1533   18.3312   39.2245 C   0  0  0  0  0  0  0  0  0  0  0  0
    3.3219   20.0140   37.4493 C   0  0  0  0  0  0  0  0  0  0  0  0
   -0.5871   14.8123   43.5722 C   0  0  0  0  0  0  0  0  0  0  0  0
    0.6890   16.2002   41.9567 C   0  0  0  0  0  0  0  0  0  0  0  0
    4.7922   18.0650   37.4983 C   0  0  0  0  0  0  0  0  0  0  0  0
   -1.1861   17.8037   44.5378 N   0  0  0  0  0  0  0  0  0  0  0  0
   -1.7815   16.3164   46.6199 C   0  0  0  0  0  0  0  0  0  0  0  0
    2.5169   14.6122   41.8765 C   0  0  0  0  0  0  0  0  0  0  0  0
    2.9233   21.1202   36.8596 N   0  0  0  0  0  0  0  0  0  0  0  0
    4.8125   21.4349   35.2933 N   0  0  0  0  0  0  0  0  0  0  0  0
    0.4778   17.7436   41.8242 C   0  0  0  0  0  0  0  0  0  0  0  0
   -1.4684   17.0603   45.6302 C   0  0  0  0  0  0  0  0  0  0  0  0
   -0.6610   18.4632   42.3919 N   0  0  0  0  0  0  0  0  0  0  0  0
    2.7308   19.5950   38.6912 C   0  0  0  0  0  0  0  0  0  0  0  0
    4.1667   17.6799   38.6741 C   0  0  0  0  0  0  0  0  0  0  0  0
    1.6389   20.3158   39.3241 C   0  0  0  0  0  0  0  0  0  0  0  0
    1.4576   18.4435   40.8914 C   0  0  0  0  0  0  0  0  0  0  0  0
    3.3621   21.4645   35.4970 C   0  0  0  0  0  0  0  0  0  0  0  0
    4.3310   19.1993   36.8724 C   0  0  0  0  0  0  0  0  0  0  0  0
    0.4948   15.6942   43.2860 O   0  0  0  0  0  0  0  0  0  0  0  0
   -2.0060   16.9763   42.7971 H   0  0  0  0  0  0  0  0  0  0  0  0
   -2.5470   18.6386   43.1754 H   0  0  0  0  0  0  0  0  0  0  0  0
   -0.1899   21.5034   40.9420 H   0  0  0  0  0  0  0  0  0  0  0  0
   -0.6145   20.3650   43.0149 H   0  0  0  0  0  0  0  0  0  0  0  0
   -1.7578   19.8399   41.5767 H   0  0  0  0  0  0  0  0  0  0  0  0
   -0.8054   14.8375   44.6501 H   0  0  0  0  0  0  0  0  0  0  0  0
   -1.4777   15.1301   43.0102 H   0  0  0  0  0  0  0  0  0  0  0  0
   -0.3135   13.7885   43.2773 H   0  0  0  0  0  0  0  0  0  0  0  0
   -0.1193   15.7492   41.3623 H   0  0  0  0  0  0  0  0  0  0  0  0
    5.6277   17.4838   37.0809 H   0  0  0  0  0  0  0  0  0  0  0  0
   -0.1939   17.5796   44.3762 H   0  0  0  0  0  0  0  0  0  0  0  0
   -1.6949   18.6283   44.8872 H   0  0  0  0  0  0  0  0  0  0  0  0
   -2.0511   15.6756   47.4723 H   0  0  0  0  0  0  0  0  0  0  0  0
    2.3369   14.5403   42.9593 H   0  0  0  0  0  0  0  0  0  0  0  0
    2.0920   13.7303   41.3748 H   0  0  0  0  0  0  0  0  0  0  0  0
    3.5995   14.6558   41.6868 H   0  0  0  0  0  0  0  0  0  0  0  0
    2.2906   21.7592   37.3619 H   0  0  0  0  0  0  0  0  0  0  0  0
    5.2876   21.4336   36.2073 H   0  0  0  0  0  0  0  0  0  0  0  0
    5.0687   20.5843   34.7721 H   0  0  0  0  0  0  0  0  0  0  0  0
    5.1010   22.2658   34.7576 H   0  0  0  0  0  0  0  0  0  0  0  0
    4.5355   16.7764   39.1819 H   0  0  0  0  0  0  0  0  0  0  0  0
    1.2990   21.2822   38.9235 H   0  0  0  0  0  0  0  0  0  0  0  0
    3.0050   22.4796   35.2687 H   0  0  0  0  0  0  0  0  0  0  0  0
    2.9400   20.6965   34.8322 H   0  0  0  0  0  0  0  0  0  0  0  0
    4.7557   19.4830   35.8981 H   0  0  0  0  0  0  0  0  0  0  0  0
  1 12  1  0
  2 14  1  0
  2 10  1  0
  3  5  1  0
  4 23  1  0
  5 19  1  0
  6 23  1  0
  6  3  2  0
  7  4  2  0
  8 20  1  0
 10 26  1  0
 11 21  2  0
 12 18  1  0
 15  8  1  0
 16 24  1  0
 17 10  1  0
 17 19  1  0
 18 13  3  0
 19  1  1  0
 20  7  1  0
 20 22  2  0
 21  7  1  0
 22  6  1  0
 23 17  2  0
 24 15  1  0
 25 11  1  0
 25  8  2  0
 26  9  1  0
  1 27  1  0
  1 28  1  0
  3 29  1  0
  5 30  1  0
  5 31  1  0
  9 32  1  0
  9 33  1  0
  9 34  1  0
 10 35  1  0
 11 36  1  0
 12 37  1  0
 12 38  1  0
 13 39  1  0
 14 40  1  0
 14 41  1  0
 14 42  1  0
 15 43  1  0
 16 44  1  0
 16 45  1  0
 16 46  1  0
 21 47  1  0
 22 48  1  0
 24 49  1  0
 24 50  1  0
 25 51  1  0
M  CHG  2  12   1  16   1
M  END
>  <mol_id>  (53) 
2026-08-24-6tgu-s0-n100-seed1-0055

>  <rmsd_to_ref>  (53) 


$$$$

     RDKit          3D

 41 43  0  0  0  0  0  0  0  0999 V2000
    1.4290   21.0570   39.9350 C   0  0  0  0  0  0  0  0  0  0  0  0
    0.6230   18.8910   40.9860 O   0  0  0  0  0  0  0  0  0  0  0  0
    2.2640   13.9730   41.4790 C   0  0  0  0  0  0  0  0  0  0  0  0
    1.4060   14.8010   42.2400 C   0  0  0  0  0  0  0  0  0  0  0  0
    0.1860   20.8500   42.1970 C   0  0  0  0  0  0  0  0  0  0  0  0
    1.9260   16.7310   41.3880 O   0  0  0  0  0  0  0  0  0  0  0  0
    2.2070   20.0700   39.0980 C   0  0  0  0  0  0  0  0  0  0  0  0
    3.3410   20.1330   36.7870 C   0  0  0  0  0  0  0  0  0  0  0  0
    0.7540   14.3200   43.3190 C   0  0  0  0  0  0  0  0  0  0  0  0
    3.7680   18.8550   36.6770 N   0  0  0  0  0  0  0  0  0  0  0  0
    3.6140   17.9160   37.5700 C   0  0  0  0  0  0  0  0  0  0  0  0
   -0.9880   16.2130   45.8990 C   0  0  0  0  0  0  0  0  0  0  0  0
    3.5100   20.9630   35.8510 O   0  0  0  0  0  0  0  0  0  0  0  0
    2.3400   18.7550   39.4550 N   0  0  0  0  0  0  0  0  0  0  0  0
   -0.2140   16.4560   43.7320 C   0  0  0  0  0  0  0  0  0  0  0  0
    0.3690   17.0440   42.6500 C   0  0  1  0  0  0  0  0  0  0  0  0
   -0.0950   15.1690   44.0570 C   0  0  0  0  0  0  0  0  0  0  0  0
    1.3020   16.1990   42.0250 C   0  0  0  0  0  0  0  0  0  0  0  0
   -0.2120   19.6680   42.8510 N   0  0  0  0  0  0  0  0  0  0  0  0
    2.6190   20.6020   37.8970 C   0  0  0  0  0  0  0  0  0  0  0  0
    3.0560   13.1940   40.9030 N   0  0  0  0  0  0  0  0  0  0  0  0
   -1.0320   17.3170   44.5280 O   0  0  0  0  0  0  0  0  0  0  0  0
    0.1440   18.4590   42.1920 C   0  0  0  0  0  0  0  0  0  0  0  0
    3.0700   17.9670   38.7260 C   0  0  0  0  0  0  0  0  0  0  0  0
    1.1050   20.2250   41.1790 C   0  0  2  0  0  0  0  0  0  0  0  0
    2.0397   21.9360   40.1888 H   0  0  0  0  0  0  0  0  0  0  0  0
    0.5422   21.4679   39.4302 H   0  0  0  0  0  0  0  0  0  0  0  0
   -0.6610   21.3728   41.7287 H   0  0  0  0  0  0  0  0  0  0  0  0
    0.6292   21.6294   42.8343 H   0  0  0  0  0  0  0  0  0  0  0  0
    0.8845   13.2704   43.6211 H   0  0  0  0  0  0  0  0  0  0  0  0
    4.2599   18.5991   35.8090 H   0  0  0  0  0  0  0  0  0  0  0  0
    4.0127   16.9312   37.2850 H   0  0  0  0  0  0  0  0  0  0  0  0
   -1.0110   16.7900   46.8353 H   0  0  0  0  0  0  0  0  0  0  0  0
   -1.8602   15.5439   45.8591 H   0  0  0  0  0  0  0  0  0  0  0  0
   -0.0653   15.6154   45.8591 H   0  0  0  0  0  0  0  0  0  0  0  0
    1.2031   17.3814   43.2828 H   0  0  0  0  0  0  0  0  0  0  0  0
   -0.6639   14.7662   44.9080 H   0  0  0  0  0  0  0  0  0  0  0  0
    3.2042   21.4789   38.2110 H   0  0  0  0  0  0  0  0  0  0  0  0
    1.6363   20.5008   37.4131 H   0  0  0  0  0  0  0  0  0  0  0  0
    3.2925   17.0449   39.2830 H   0  0  0  0  0  0  0  0  0  0  0  0
    2.1361   20.1883   41.5603 H   0  0  0  0  0  0  0  0  0  0  0  0
  2 25  1  0
  2 23  1  0
  3  4  1  0
  4  9  2  0
  5 19  1  0
  6 18  2  0
  7 14  2  0
  7  1  1  0
  8 20  1  0
  9 17  1  0
 10  8  1  0
 10 11  1  0
 11 24  2  0
 13  8  2  0
 15 17  2  0
 15 22  1  0
 16 23  1  0
 16 15  1  0
 18  4  1  0
 18 16  1  0
 20  7  1  0
 21  3  3  0
 22 12  1  0
 23 19  2  0
 24 14  1  0
 25  1  1  0
 25  5  1  0
  1 26  1  0
  1 27  1  0
  5 28  1  0
  5 29  1  0
  9 30  1  0
 10 31  1  0
 11 32  1  0
 12 33  1  0
 12 34  1  0
 12 35  1  0
 16 36  1  6
 17 37  1  0
 20 38  1  0
 20 39  1  0
 24 40  1  0
 25 41  1  1
M  END
>  <mol_id>  (54) 
2026-08-24-6tgu-s0-n100-seed1-0056

>  <rmsd_to_ref>  (54) 


$$$$

     RDKit          3D

 21 21  0  0  0  0  0  0  0  0999 V2000
    3.3219   20.4939   37.1100 C   0  0  0  0  0  0  0  0  0  0  0  0
    2.9778   17.3625   39.3524 C   0  0  0  0  0  0  0  0  0  0  0  0
    0.0448   20.5021   41.9593 C   0  0  0  0  0  0  0  0  0  0  0  0
    2.8728   19.9268   38.0998 C   0  0  0  0  0  0  0  0  0  0  0  0
    1.6059   20.4606   39.8756 N   0  0  0  0  0  0  0  0  0  0  0  0
    2.2259   19.4789   39.2341 C   0  0  0  0  0  0  0  0  0  0  0  0
    0.8989   19.8008   40.9844 C   0  0  1  0  0  0  0  0  0  0  0  0
    1.0967   18.4509   40.8769 C   0  0  0  0  0  0  0  0  0  0  0  0
   -0.9719   19.6097   42.4478 N   0  0  0  0  0  0  0  0  0  0  0  0
    2.0492   18.1901   39.8765 C   0  0  0  0  0  0  0  0  0  0  0  0
    3.7248   21.0028   36.2219 H   0  0  0  0  0  0  0  0  0  0  0  0
    3.3823   16.7161   40.1453 H   0  0  0  0  0  0  0  0  0  0  0  0
    2.5157   16.7400   38.5721 H   0  0  0  0  0  0  0  0  0  0  0  0
    3.7923   17.9568   38.9127 H   0  0  0  0  0  0  0  0  0  0  0  0
   -0.4311   21.3661   41.4726 H   0  0  0  0  0  0  0  0  0  0  0  0
    0.6624   20.8449   42.8025 H   0  0  0  0  0  0  0  0  0  0  0  0
   -0.0031   19.7184   40.3603 H   0  0  0  0  0  0  0  0  0  0  0  0
    0.5875   17.6861   41.4816 H   0  0  0  0  0  0  0  0  0  0  0  0
   -0.9084   19.5458   43.4739 H   0  0  0  0  0  0  0  0  0  0  0  0
   -1.9002   19.9690   42.1829 H   0  0  0  0  0  0  0  0  0  0  0  0
   -0.8351   18.6753   42.0364 H   0  0  0  0  0  0  0  0  0  0  0  0
  1  4  3  0
  2 10  1  0
  3  9  1  0
  4  6  1  0
  5  7  1  0
  6  5  2  0
  6 10  1  0
  7  8  1  0
  7  3  1  0
 10  8  2  0
  1 11  1  0
  2 12  1  0
  2 13  1  0
  2 14  1  0
  3 15  1  0
  3 16  1  0
  7 17  1  1
  8 18  1  0
  9 19  1  0
  9 20  1  0
  9 21  1  0
M  CHG  1   9   1
M  END
>  <mol_id>  (55) 
2026-08-24-6tgu-s0-n100-seed1-0057

>  <rmsd_to_ref>  (55) 


$$$$

     RDKit          3D

 49 50  0  0  0  0  0  0  0  0999 V2000
    3.4708   19.5164   38.0354 C   0  0  0  0  0  0  0  0  0  0  0  0
    5.1801   17.0263   36.4094 C   0  0  0  0  0  0  0  0  0  0  0  0
   -0.5209   14.9357   45.0824 C   0  0  0  0  0  0  0  0  0  0  0  0
   -0.1121   16.5300   43.2809 C   0  0  0  0  0  0  0  0  0  0  0  0
   -0.8705   19.5470   42.9022 C   0  0  0  0  0  0  0  0  0  0  0  0
    1.0546   19.5045   39.4540 N   0  0  0  0  0  0  0  0  0  0  0  0
    0.5537   18.2661   41.5964 C   0  0  0  0  0  0  0  0  0  0  0  0
    1.4321   20.8856   39.3784 C   0  0  0  0  0  0  0  0  0  0  0  0
    2.0091   21.4571   38.2230 N   0  0  0  0  0  0  0  0  0  0  0  0
    5.8042   16.3682   35.1926 O   0  0  0  0  0  0  0  0  0  0  0  0
   -0.6719   16.2251   44.5890 C   0  0  0  0  0  0  0  0  0  0  0  0
    4.1539   18.0099   36.1271 C   0  0  0  0  0  0  0  0  0  0  0  0
    4.0906   18.7773   35.1794 O   0  0  0  0  0  0  0  0  0  0  0  0
   -1.3635   18.5724   43.4523 N   0  0  0  0  0  0  0  0  0  0  0  0
    1.7606   17.8644   41.5611 O   0  0  0  0  0  0  0  0  0  0  0  0
    2.7694   20.7392   37.4390 C   0  0  2  0  0  0  0  0  0  0  0  0
    0.5046   15.6005   42.5602 C   0  0  0  0  0  0  0  0  0  0  0  0
    0.6337   14.2061   42.9371 C   0  0  0  0  0  0  0  0  0  0  0  0
    1.1351   21.5744   40.3437 O   0  0  0  0  0  0  0  0  0  0  0  0
   -0.0018   19.2275   40.5927 C   0  0  0  0  0  0  0  0  0  0  0  0
   -1.1074   20.8222   43.0030 N   0  0  0  0  0  0  0  0  0  0  0  0
    3.1239   18.0571   37.2445 C   0  0  0  0  0  0  0  0  0  0  0  0
    0.0436   13.8543   44.2754 C   0  0  0  0  0  0  0  0  0  0  0  0
    2.8745   22.1743   35.9004 O   0  0  0  0  0  0  0  0  0  0  0  0
    2.8645   21.0190   36.2309 C   0  0  0  0  0  0  0  0  0  0  0  0
   -0.2594   18.0628   42.8534 C   0  0  1  0  0  0  0  0  0  0  0  0
    0.1128   12.4257   44.7104 C   0  0  0  0  0  0  0  0  0  0  0  0
    4.5568   19.6847   37.9869 H   0  0  0  0  0  0  0  0  0  0  0  0
    3.0995   19.4120   39.0655 H   0  0  0  0  0  0  0  0  0  0  0  0
    4.7313   16.2363   37.0296 H   0  0  0  0  0  0  0  0  0  0  0  0
    5.9938   17.5724   36.9091 H   0  0  0  0  0  0  0  0  0  0  0  0
   -0.8362   14.7205   46.1140 H   0  0  0  0  0  0  0  0  0  0  0  0
    1.4315   18.7738   38.8334 H   0  0  0  0  0  0  0  0  0  0  0  0
    1.8295   22.4458   37.9968 H   0  0  0  0  0  0  0  0  0  0  0  0
    6.3619   15.6028   35.4811 H   0  0  0  0  0  0  0  0  0  0  0  0
   -1.2000   16.9946   45.1710 H   0  0  0  0  0  0  0  0  0  0  0  0
   -2.1639   18.2957   44.0385 H   0  0  0  0  0  0  0  0  0  0  0  0
    3.6206   21.4004   37.6590 H   0  0  0  0  0  0  0  0  0  0  0  0
    0.9516   15.9121   41.6046 H   0  0  0  0  0  0  0  0  0  0  0  0
    1.1258   13.4622   42.2933 H   0  0  0  0  0  0  0  0  0  0  0  0
   -0.2493   20.1740   41.0956 H   0  0  0  0  0  0  0  0  0  0  0  0
   -0.9058   18.7912   40.1427 H   0  0  0  0  0  0  0  0  0  0  0  0
   -2.0601   21.1826   42.8502 H   0  0  0  0  0  0  0  0  0  0  0  0
    2.1018   18.0627   36.8380 H   0  0  0  0  0  0  0  0  0  0  0  0
    3.1732   17.1840   37.9119 H   0  0  0  0  0  0  0  0  0  0  0  0
    2.9381   20.2215   35.4769 H   0  0  0  0  0  0  0  0  0  0  0  0
    0.1091   12.3765   45.8093 H   0  0  0  0  0  0  0  0  0  0  0  0
   -0.7569   11.8798   44.3160 H   0  0  0  0  0  0  0  0  0  0  0  0
    1.0371   11.9697   44.3260 H   0  0  0  0  0  0  0  0  0  0  0  0
  4 11  1  0
  5 26  1  0
  5 14  1  0
  6 20  1  0
  7 15  2  0
  8  6  1  0
  8 19  2  0
  9  8  1  0
 10  2  1  0
 11  3  2  0
 12  2  1  0
 12 22  1  0
 13 12  2  0
 16 25  1  0
 16  9  1  0
 16  1  1  0
 17 18  1  0
 17  4  2  0
 18 23  2  0
 20  7  1  0
 21  5  2  3
 22  1  1  0
 23 27  1  0
 23  3  1  0
 24 25  2  0
 26  7  1  6
 26 14  1  0
 26  4  1  0
  1 28  1  0
  1 29  1  0
  2 30  1  0
  2 31  1  0
  3 32  1  0
  6 33  1  0
  9 34  1  0
 10 35  1  0
 11 36  1  0
 14 37  1  0
 16 38  1  1
 17 39  1  0
 18 40  1  0
 20 41  1  0
 20 42  1  0
 21 43  1  0
 22 44  1  0
 22 45  1  0
 25 46  1  0
 27 47  1  0
 27 48  1  0
 27 49  1  0
M  END
>  <mol_id>  (56) 
2026-08-24-6tgu-s0-n100-seed1-0058

>  <rmsd_to_ref>  (56) 


$$$$

     RDKit          3D

 33 35  0  0  0  0  0  0  0  0999 V2000
    1.5250   19.3520   40.7440 C   0  0  0  0  0  0  0  0  0  0  0  0
    2.7900   20.7850   37.5290 C   0  0  0  0  0  0  0  0  0  0  0  0
    1.6930   20.3540   39.7440 C   0  0  0  0  0  0  0  0  0  0  0  0
    0.9230   19.5870   41.9530 N   0  0  0  0  0  0  0  0  0  0  0  0
   -0.4360   18.3940   44.5250 C   0  0  0  0  0  0  0  0  0  0  0  0
    2.8690   18.8390   38.4540 C   0  0  0  0  0  0  0  0  0  0  0  0
    3.6840   17.4800   36.8620 O   0  0  0  0  0  0  0  0  0  0  0  0
    0.7330   18.5880   42.4800 O   0  0  0  0  0  0  0  0  0  0  0  0
   -0.0070   17.8400   43.2810 C   0  0  0  0  0  0  0  0  0  0  0  0
    3.5340   21.3750   35.2170 O   0  0  0  0  0  0  0  0  0  0  0  0
    0.2840   16.4040   43.1830 C   0  0  0  0  0  0  0  0  0  0  0  0
    3.4870   18.7050   37.3250 N   0  0  0  0  0  0  0  0  0  0  0  0
    1.9240   18.1780   40.6050 N   0  0  0  0  0  0  0  0  0  0  0  0
   -0.7720   17.5460   45.5740 C   0  0  0  0  0  0  0  0  0  0  0  0
   -0.1550   15.6610   44.2490 C   0  0  0  0  0  0  0  0  0  0  0  0
   -1.2450   17.9750   46.7570 O   0  0  0  0  0  0  0  0  0  0  0  0
    4.2060   20.4330   35.7650 O   0  0  0  0  0  0  0  0  0  0  0  0
   -0.9930   15.3460   46.4340 F   0  0  0  0  0  0  0  0  0  0  0  0
   -0.6340   16.1450   45.4050 C   0  0  0  0  0  0  0  0  0  0  0  0
    3.5770   19.9990   36.7970 C   0  0  0  0  0  0  0  0  0  0  0  0
    2.3910   20.0290   38.6550 C   0  0  0  0  0  0  0  0  0  0  0  0
    2.7840   18.0050   39.3920 N   0  0  0  0  0  0  0  0  0  0  0  0
    2.5051   21.8228   37.3014 H   0  0  0  0  0  0  0  0  0  0  0  0
    0.6896   20.6596   39.4126 H   0  0  0  0  0  0  0  0  0  0  0  0
    2.2881   21.1394   40.2329 H   0  0  0  0  0  0  0  0  0  0  0  0
    0.6800   20.5150   42.3281 H   0  0  0  0  0  0  0  0  0  0  0  0
   -0.5002   19.4847   44.6525 H   0  0  0  0  0  0  0  0  0  0  0  0
    4.1538   17.3459   36.0010 H   0  0  0  0  0  0  0  0  0  0  0  0
    3.1288   21.9430   35.9193 H   0  0  0  0  0  0  0  0  0  0  0  0
    0.8108   15.9606   42.3251 H   0  0  0  0  0  0  0  0  0  0  0  0
   -0.1102   14.5667   44.1467 H   0  0  0  0  0  0  0  0  0  0  0  0
   -1.4672   17.3222   47.4674 H   0  0  0  0  0  0  0  0  0  0  0  0
    3.3447   17.1439   39.3204 H   0  0  0  0  0  0  0  0  0  0  0  0
  1  4  1  0
  2 21  1  0
  3  1  1  0
  4  8  1  0
  5 14  1  0
  6 21  2  0
  6 22  1  0
  7 12  1  0
  8  9  1  0
  9  5  2  0
 10 17  1  0
 11  9  1  0
 11 15  2  0
 12  6  1  0
 13  1  2  0
 14 16  1  0
 15 19  1  0
 17 20  1  0
 19 14  2  0
 19 18  1  0
 20 12  1  0
 20  2  2  0
 21  3  1  0
 22 13  1  0
  2 23  1  0
  3 24  1  0
  3 25  1  0
  4 26  1  0
  5 27  1  0
  7 28  1  0
 10 29  1  0
 11 30  1  0
 15 31  1  0
 16 32  1  0
 22 33  1  0
M  END
>  <mol_id>  (57) 
2026-08-24-6tgu-s0-n100-seed1-0060

>  <rmsd_to_ref>  (57) 


$$$$

     RDKit          3D

 30 30  0  0  0  0  0  0  0  0999 V2000
    2.5463   19.5004   38.0813 C   0  0  0  0  0  0  0  0  0  0  0  0
   -0.5188   17.8617   46.1249 C   0  0  0  0  0  0  0  0  0  0  0  0
    0.0448   18.5169   44.9798 O   0  0  0  0  0  0  0  0  0  0  0  0
    1.4191   16.3560   41.0603 C   0  0  0  0  0  0  0  0  0  0  0  0
    2.9928   19.4109   36.7387 C   0  0  0  0  0  0  0  0  0  0  0  0
    2.6156   20.1259   35.9115 O   0  0  0  0  0  0  0  0  0  0  0  0
    0.4045   18.1659   42.6564 N   0  0  0  0  0  0  0  0  0  0  0  0
    0.9212   18.6472   41.4789 C   0  0  0  0  0  0  0  0  0  0  0  0
   -1.6894   18.8135   43.6147 O   0  0  0  0  0  0  0  0  0  0  0  0
    2.7085   16.1912   39.2454 C   0  0  0  0  0  0  0  0  0  0  0  0
    2.9032   18.4357   38.8154 O   0  0  0  0  0  0  0  0  0  0  0  0
    3.6025   18.2275   36.5811 O   0  0  0  0  0  0  0  0  0  0  0  0
    3.4639   15.6240   38.2820 O   0  0  0  0  0  0  0  0  0  0  0  0
   -0.6944   16.3260   46.2131 C   0  0  0  0  0  0  0  0  0  0  0  0
    0.9265   15.8954   42.1053 O   0  0  0  0  0  0  0  0  0  0  0  0
    1.5860   17.6652   40.6843 C   0  0  0  0  0  0  0  0  0  0  0  0
    0.8277   19.9776   41.0945 C   0  0  0  0  0  0  0  0  0  0  0  0
    2.4635   17.5138   39.5560 C   0  0  0  0  0  0  0  0  0  0  0  0
   -0.4884   18.5326   43.6872 C   0  0  0  0  0  0  0  0  0  0  0  0
    2.0770   15.4120   40.2078 O   0  0  0  0  0  0  0  0  0  0  0  0
    1.4490   19.5780   38.0834 H   0  0  0  0  0  0  0  0  0  0  0  0
    3.0163   20.3877   38.5305 H   0  0  0  0  0  0  0  0  0  0  0  0
    0.1146   18.1443   46.9786 H   0  0  0  0  0  0  0  0  0  0  0  0
   -1.5640   18.2017   46.0821 H   0  0  0  0  0  0  0  0  0  0  0  0
   -0.7104   16.0189   47.2692 H   0  0  0  0  0  0  0  0  0  0  0  0
   -1.6409   16.0370   45.7328 H   0  0  0  0  0  0  0  0  0  0  0  0
    0.1432   15.8310   45.6999 H   0  0  0  0  0  0  0  0  0  0  0  0
    0.8216   20.6181   41.9888 H   0  0  0  0  0  0  0  0  0  0  0  0
    1.6898   20.2382   40.4628 H   0  0  0  0  0  0  0  0  0  0  0  0
   -0.1021   20.1309   40.5272 H   0  0  0  0  0  0  0  0  0  0  0  0
  1 11  1  0
  3  2  1  0
  4 15  2  0
  5  1  1  0
  6  5  2  0
  7 19  1  0
  8  7  2  3
  9 19  2  0
 10 18  1  0
 10 20  1  0
 11 18  1  0
 12  5  1  0
 13 10  2  0
 14  2  1  0
 16  4  1  0
 16  8  1  0
 17  8  1  0
 18 16  2  0
 19  3  1  0
 20  4  1  0
  1 21  1  0
  1 22  1  0
  2 23  1  0
  2 24  1  0
 14 25  1  0
 14 26  1  0
 14 27  1  0
 17 28  1  0
 17 29  1  0
 17 30  1  0
M  CHG  1  12  -1
M  END
>  <mol_id>  (58) 
2026-08-24-6tgu-s0-n100-seed1-0061

>  <rmsd_to_ref>  (58) 


$$$$

     RDKit          3D

 21 21  0  0  0  0  0  0  0  0999 V2000
    2.1212   20.5259   37.3438 O   0  0  0  0  0  0  0  0  0  0  0  0
    0.7882   15.8104   42.0066 O   0  0  0  0  0  0  0  0  0  0  0  0
    3.1699   19.2405   36.0038 O   0  0  0  0  0  0  0  0  0  0  0  0
    0.6128   20.5864   42.1523 F   0  0  0  0  0  0  0  0  0  0  0  0
    1.6662   17.1735   40.1707 C   0  0  0  0  0  0  0  0  0  0  0  0
    0.9203   19.4742   41.5512 C   0  0  0  0  0  0  0  0  0  0  0  0
    1.0341   17.0640   41.4298 C   0  0  0  0  0  0  0  0  0  0  0  0
    2.6461   19.4234   37.1321 C   0  0  0  0  0  0  0  0  0  0  0  0
    1.5763   19.5613   40.3223 C   0  0  0  0  0  0  0  0  0  0  0  0
   -0.3833   15.5820   42.7626 C   0  0  0  0  0  0  0  0  0  0  0  0
    2.7984   18.4145   38.2549 C   0  0  0  0  0  0  0  0  0  0  0  0
    1.9634   18.4065   39.5808 C   0  0  0  0  0  0  0  0  0  0  0  0
    0.6646   18.2145   42.1014 C   0  0  0  0  0  0  0  0  0  0  0  0
    1.9353   16.2523   39.6330 H   0  0  0  0  0  0  0  0  0  0  0  0
    1.8028   20.5562   39.9112 H   0  0  0  0  0  0  0  0  0  0  0  0
   -0.1132   15.4139   43.8156 H   0  0  0  0  0  0  0  0  0  0  0  0
   -1.0439   16.4584   42.6890 H   0  0  0  0  0  0  0  0  0  0  0  0
   -0.9048   14.6958   42.3719 H   0  0  0  0  0  0  0  0  0  0  0  0
    2.6211   17.4326   37.7917 H   0  0  0  0  0  0  0  0  0  0  0  0
    3.7852   18.7033   38.6459 H   0  0  0  0  0  0  0  0  0  0  0  0
    0.1646   18.1382   43.0782 H   0  0  0  0  0  0  0  0  0  0  0  0
  1  8  1  0
  2 10  1  0
  3  8  2  0
  5  7  2  0
  6  4  1  0
  6 13  2  0
  7 13  1  0
  7  2  1  0
  8 11  1  0
  9  6  1  0
 11 12  1  0
 12  9  2  0
 12  5  1  0
  5 14  1  0
  9 15  1  0
 10 16  1  0
 10 17  1  0
 10 18  1  0
 11 19  1  0
 11 20  1  0
 13 21  1  0
M  CHG  1   1  -1
M  END
>  <mol_id>  (59) 
2026-08-24-6tgu-s0-n100-seed1-0062

>  <rmsd_to_ref>  (59) 


$$$$

     RDKit          3D

 35 39  0  0  0  0  0  0  0  0999 V2000
   -0.7861   19.1606   44.3921 N   0  0  0  0  0  0  0  0  0  0  0  0
    3.6756   18.7403   37.3438 C   0  0  0  0  0  0  0  0  0  0  0  0
    1.7993   18.8821   40.6665 C   0  0  0  0  0  0  0  0  0  0  0  0
    2.1019   12.4916   42.6036 Cl  0  0  0  0  0  0  0  0  0  0  0  0
    3.5325   16.2182   39.2173 O   0  0  0  0  0  0  0  0  0  0  0  0
    1.8665   21.2367   39.6065 C   0  0  0  0  0  0  0  0  0  0  0  0
    5.4903   17.3482   36.3831 C   0  0  0  0  0  0  0  0  0  0  0  0
    1.2701   16.8901   42.0148 C   0  0  0  0  0  0  0  0  0  0  0  0
    0.9109   14.8530   43.2894 C   0  0  0  0  0  0  0  0  0  0  0  0
    2.4046   14.7435   41.3758 C   0  0  0  0  0  0  0  0  0  0  0  0
    2.8922   19.0449   38.6014 C   0  0  0  0  0  0  0  0  0  0  0  0
    2.1320   16.0899   41.1349 C   0  0  0  0  0  0  0  0  0  0  0  0
    2.5299   20.4620   38.5488 C   0  0  0  0  0  0  0  0  0  0  0  0
    0.5524   19.3451   42.3456 C   0  0  0  0  0  0  0  0  0  0  0  0
    2.9831   20.9470   37.2575 N   0  0  0  0  0  0  0  0  0  0  0  0
    0.7376   20.4917   41.7537 N   0  0  0  0  0  0  0  0  0  0  0  0
    1.1700   18.2959   41.6993 C   0  0  2  0  0  0  0  0  0  0  0  0
    4.2975   17.5465   37.1356 N   0  0  0  0  0  0  0  0  0  0  0  0
    1.5117   20.2518   40.6606 C   0  0  0  0  0  0  0  0  0  0  0  0
    2.5463   18.2071   39.6951 C   0  0  0  0  0  0  0  0  0  0  0  0
    3.6880   19.8865   36.6660 N   0  0  0  0  0  0  0  0  0  0  0  0
   -0.2993   19.2264   43.4883 C   0  0  0  0  0  0  0  0  0  0  0  0
    0.6388   16.2172   43.0904 C   0  0  0  0  0  0  0  0  0  0  0  0
    1.7794   14.1208   42.4691 C   0  0  0  0  0  0  0  0  0  0  0  0
    2.8002   16.8191   39.9714 C   0  0  0  0  0  0  0  0  0  0  0  0
    1.6730   22.3195   39.6159 H   0  0  0  0  0  0  0  0  0  0  0  0
    6.2877   16.9859   37.0486 H   0  0  0  0  0  0  0  0  0  0  0  0
    5.3062   16.6051   35.5932 H   0  0  0  0  0  0  0  0  0  0  0  0
    5.7982   18.3003   35.9263 H   0  0  0  0  0  0  0  0  0  0  0  0
    0.4199   14.3365   44.1273 H   0  0  0  0  0  0  0  0  0  0  0  0
    3.0922   14.1828   40.7256 H   0  0  0  0  0  0  0  0  0  0  0  0
    2.8201   21.8814   36.8560 H   0  0  0  0  0  0  0  0  0  0  0  0
    2.0641   18.4371   42.3243 H   0  0  0  0  0  0  0  0  0  0  0  0
    3.8667   16.7128   37.5603 H   0  0  0  0  0  0  0  0  0  0  0  0
   -0.0521   16.7532   43.7576 H   0  0  0  0  0  0  0  0  0  0  0  0
  2 18  1  0
  2 11  1  0
  5 25  2  0
  6 19  1  0
  7 18  1  0
  8 23  1  0
 10 24  2  0
 11 20  2  0
 12 10  1  0
 12  8  2  0
 13 11  1  0
 13  6  2  0
 14 22  1  0
 15 13  1  0
 16 14  2  0
 17  3  1  0
 17 14  1  0
 17  8  1  0
 19  3  2  0
 19 16  1  0
 20 25  1  0
 20  3  1  0
 21 15  1  0
 21  2  2  0
 22  1  3  0
 23  9  2  0
 24  4  1  0
 24  9  1  0
 25 12  1  0
  6 26  1  0
  7 27  1  0
  7 28  1  0
  7 29  1  0
  9 30  1  0
 10 31  1  0
 15 32  1  0
 17 33  1  6
 18 34  1  0
 23 35  1  0
M  END
>  <mol_id>  (60) 
2026-08-24-6tgu-s0-n100-seed1-0063

>  <rmsd_to_ref>  (60) 


$$$$

     RDKit          3D

 47 48  0  0  0  0  0  0  0  0999 V2000
    0.5870   15.8912   42.9764 C   0  0  0  0  0  0  0  0  0  0  0  0
   -1.3384   15.5577   44.6230 N   0  0  0  0  0  0  0  0  0  0  0  0
   -0.9519   20.4852   43.3320 C   0  0  0  0  0  0  0  0  0  0  0  0
    3.0366   21.0146   36.7087 C   0  0  0  0  0  0  0  0  0  0  0  0
    2.5055   15.6115   40.1763 O   0  0  0  0  0  0  0  0  0  0  0  0
   -1.0999   21.7891   43.2546 O   0  0  0  0  0  0  0  0  0  0  0  0
    0.4670   21.2268   40.5351 C   0  0  0  0  0  0  0  0  0  0  0  0
    2.2448   19.5127   39.2353 C   0  0  0  0  0  0  0  0  0  0  0  0
   -1.5496   19.9548   44.3709 N   0  0  0  0  0  0  0  0  0  0  0  0
   -0.2522   15.0146   43.7232 C   0  0  1  0  0  0  0  0  0  0  0  0
    0.7088   19.9714   41.0504 C   0  0  0  0  0  0  0  0  0  0  0  0
    1.3234   16.1713   41.9818 C   0  0  1  0  0  0  0  0  0  0  0  0
    1.6123   19.1347   40.3867 C   0  0  0  0  0  0  0  0  0  0  0  0
    3.3863   19.7483   36.5315 O   0  0  0  0  0  0  0  0  0  0  0  0
    1.8124   14.0177   41.7010 C   0  0  0  0  0  0  0  0  0  0  0  0
    2.9910   21.7686   35.7597 O   0  0  0  0  0  0  0  0  0  0  0  0
   -0.0541   13.7247   43.4916 C   0  0  0  0  0  0  0  0  0  0  0  0
   -0.9826   17.5116   43.5421 O   0  0  0  0  0  0  0  0  0  0  0  0
   -0.1519   19.6181   42.3990 C   0  0  1  0  0  0  0  0  0  0  0  0
    2.0209   20.8819   38.7492 C   0  0  0  0  0  0  0  0  0  0  0  0
    0.7722   13.2651   42.5675 C   0  0  0  0  0  0  0  0  0  0  0  0
    2.9029   21.4420   37.9130 O   0  0  0  0  0  0  0  0  0  0  0  0
   -0.1551   18.1178   42.5410 C   0  0  0  0  0  0  0  0  0  0  0  0
    1.6991   15.1682   40.9439 C   0  0  2  0  0  0  0  0  0  0  0  0
    1.0863   21.6353   39.3882 C   0  0  0  0  0  0  0  0  0  0  0  0
    0.6366   17.3639   41.6905 N   0  0  0  0  0  0  0  0  0  0  0  0
   -0.1187   16.7296   42.8813 H   0  0  0  0  0  0  0  0  0  0  0  0
    1.4556   15.3999   43.4390 H   0  0  0  0  0  0  0  0  0  0  0  0
   -1.0685   15.4217   45.6076 H   0  0  0  0  0  0  0  0  0  0  0  0
   -1.4669   16.5627   44.4379 H   0  0  0  0  0  0  0  0  0  0  0  0
   -2.2200   15.0588   44.4366 H   0  0  0  0  0  0  0  0  0  0  0  0
    3.2385   16.0449   40.6813 H   0  0  0  0  0  0  0  0  0  0  0  0
   -0.2294   21.9042   41.0510 H   0  0  0  0  0  0  0  0  0  0  0  0
    2.8991   18.8159   38.6910 H   0  0  0  0  0  0  0  0  0  0  0  0
   -1.4993   18.9385   44.5307 H   0  0  0  0  0  0  0  0  0  0  0  0
   -2.0697   20.5542   45.0275 H   0  0  0  0  0  0  0  0  0  0  0  0
    0.4590   15.0480   44.5616 H   0  0  0  0  0  0  0  0  0  0  0  0
    2.4102   16.2319   42.1403 H   0  0  0  0  0  0  0  0  0  0  0  0
    1.8207   18.1391   40.8053 H   0  0  0  0  0  0  0  0  0  0  0  0
    2.6267   14.2447   42.4048 H   0  0  0  0  0  0  0  0  0  0  0  0
    1.8293   13.3059   40.8625 H   0  0  0  0  0  0  0  0  0  0  0  0
   -0.6079   12.9962   44.1020 H   0  0  0  0  0  0  0  0  0  0  0  0
   -1.0714   19.5632   41.7977 H   0  0  0  0  0  0  0  0  0  0  0  0
    0.7117   12.1819   42.3862 H   0  0  0  0  0  0  0  0  0  0  0  0
    1.0185   14.8842   40.1278 H   0  0  0  0  0  0  0  0  0  0  0  0
    0.8180   22.6141   38.9639 H   0  0  0  0  0  0  0  0  0  0  0  0
    0.7342   17.7194   40.7287 H   0  0  0  0  0  0  0  0  0  0  0  0
  1 10  1  0
  3  9  1  0
  4 22  1  0
  6  3  2  0
  7 11  2  0
  8 13  2  0
 10  2  1  0
 11 19  1  0
 12 26  1  0
 12  1  1  0
 13 11  1  0
 14  4  1  0
 15 21  1  0
 16  4  2  0
 17 10  1  0
 19 23  1  0
 19  3  1  0
 20  8  1  0
 20 25  2  0
 21 17  2  0
 22 20  1  0
 23 18  2  0
 24  5  1  0
 24 15  1  0
 24 12  1  0
 25  7  1  0
 26 23  1  0
  1 27  1  0
  1 28  1  0
  2 29  1  0
  2 30  1  0
  2 31  1  0
  5 32  1  0
  7 33  1  0
  8 34  1  0
  9 35  1  0
  9 36  1  0
 10 37  1  1
 12 38  1  1
 13 39  1  0
 15 40  1  0
 15 41  1  0
 17 42  1  0
 19 43  1  1
 21 44  1  0
 24 45  1  6
 25 46  1  0
 26 47  1  0
M  CHG  2   2   1  14  -1
M  END
>  <mol_id>  (61) 
2026-08-24-6tgu-s0-n100-seed1-0064

>  <rmsd_to_ref>  (61) 


$$$$

     RDKit          3D

 55 60  0  0  0  0  0  0  0  0999 V2000
   -0.6743   12.4846   45.0874 O   0  0  0  0  0  0  0  0  0  0  0  0
    1.7535   13.3959   42.4132 C   0  0  0  0  0  0  0  0  0  0  0  0
    2.4230   11.4110   41.2966 C   0  0  0  0  0  0  0  0  0  0  0  0
    0.4957   19.2160   41.0924 C   0  0  0  0  0  0  0  0  0  0  0  0
    1.1955   20.3357   39.0959 C   0  0  0  0  0  0  0  0  0  0  0  0
    1.3419   17.7970   39.1480 C   0  0  0  0  0  0  0  0  0  0  0  0
    1.9632   20.8119   37.1350 C   0  0  0  0  0  0  0  0  0  0  0  0
    1.6175   19.1339   38.4668 C   0  0  0  0  0  0  0  0  0  0  0  0
   -0.6673   18.8620   43.3812 C   0  0  0  0  0  0  0  0  0  0  0  0
    2.2102   19.4969   37.2903 C   0  0  0  0  0  0  0  0  0  0  0  0
    1.5993   16.4783   38.5525 C   0  0  2  0  0  0  0  0  0  0  0  0
   -0.0761   19.4543   42.4614 N   0  0  0  0  0  0  0  0  0  0  0  0
    2.2676   15.2950   39.2418 C   0  0  2  0  0  0  0  0  0  0  0  0
    0.7322   20.3047   40.3671 C   0  0  0  0  0  0  0  0  0  0  0  0
   -0.1117   14.7294   44.1691 C   0  0  0  0  0  0  0  0  0  0  0  0
   -1.4027   17.4347   44.6647 C   0  0  0  0  0  0  0  0  0  0  0  0
    4.3819   16.4062   36.1684 C   0  0  0  0  0  0  0  0  0  0  0  0
    0.9930   12.5631   43.3750 C   0  0  0  0  0  0  0  0  0  0  0  0
    0.8570   17.9678   40.5167 C   0  0  0  0  0  0  0  0  0  0  0  0
   -0.0299   11.7017   46.1199 C   0  0  0  0  0  0  0  0  0  0  0  0
   -0.5041   17.4216   43.5912 C   0  0  0  0  0  0  0  0  0  0  0  0
    2.1222   21.5579   35.9331 C   0  0  0  0  0  0  0  0  0  0  0  0
    1.5865   14.7483   42.3663 C   0  0  0  0  0  0  0  0  0  0  0  0
    3.8457   16.6478   37.4427 O   0  0  0  0  0  0  0  0  0  0  0  0
    0.4256   16.6452   42.9887 N   0  0  0  0  0  0  0  0  0  0  0  0
    0.6089   15.4354   43.1853 C   0  0  0  0  0  0  0  0  0  0  0  0
    0.0306   13.3052   44.2302 C   0  0  0  0  0  0  0  0  0  0  0  0
   -1.6630   18.7677   44.1976 N   0  0  0  0  0  0  0  0  0  0  0  0
    1.3283   21.4003   38.1355 O   0  0  0  0  0  0  0  0  0  0  0  0
    2.1719   22.0349   34.8789 N   0  0  0  0  0  0  0  0  0  0  0  0
    2.7651   15.7431   37.8643 C   0  0  2  0  0  0  0  0  0  0  0  0
    2.9057   14.2152   38.3512 C   0  0  0  0  0  0  0  0  0  0  0  0
    2.6514   12.7821   41.5662 O   0  0  0  0  0  0  0  0  0  0  0  0
    2.4382   10.8445   42.2393 H   0  0  0  0  0  0  0  0  0  0  0  0
    1.4426   11.2909   40.8123 H   0  0  0  0  0  0  0  0  0  0  0  0
    3.2106   11.0325   40.6285 H   0  0  0  0  0  0  0  0  0  0  0  0
    2.7756   18.8459   36.6072 H   0  0  0  0  0  0  0  0  0  0  0  0
    0.6286   16.8175   38.1615 H   0  0  0  0  0  0  0  0  0  0  0  0
    0.0710   20.4385   42.7270 H   0  0  0  0  0  0  0  0  0  0  0  0
    2.1011   15.0919   40.3101 H   0  0  0  0  0  0  0  0  0  0  0  0
    0.5319   21.2742   40.8467 H   0  0  0  0  0  0  0  0  0  0  0  0
   -0.7687   15.2598   44.8742 H   0  0  0  0  0  0  0  0  0  0  0  0
   -2.2447   16.7308   44.5894 H   0  0  0  0  0  0  0  0  0  0  0  0
   -1.1305   17.1855   45.7010 H   0  0  0  0  0  0  0  0  0  0  0  0
    5.3340   15.8643   36.2679 H   0  0  0  0  0  0  0  0  0  0  0  0
    3.6751   15.8008   35.5820 H   0  0  0  0  0  0  0  0  0  0  0  0
    4.5569   17.3640   35.6567 H   0  0  0  0  0  0  0  0  0  0  0  0
    1.1310   11.4744   43.4502 H   0  0  0  0  0  0  0  0  0  0  0  0
    0.7655   17.0687   41.1438 H   0  0  0  0  0  0  0  0  0  0  0  0
   -0.3279   12.0819   47.1081 H   0  0  0  0  0  0  0  0  0  0  0  0
   -0.3340   10.6488   46.0252 H   0  0  0  0  0  0  0  0  0  0  0  0
    1.0619   11.7792   46.0112 H   0  0  0  0  0  0  0  0  0  0  0  0
    2.2155   15.3378   41.6832 H   0  0  0  0  0  0  0  0  0  0  0  0
    3.8935   13.8014   38.6021 H   0  0  0  0  0  0  0  0  0  0  0  0
    2.6006   13.2326   37.9622 H   0  0  0  0  0  0  0  0  0  0  0  0
  1 20  1  0
  2 18  1  0
  3 33  1  0
  4 12  1  0
  5 14  2  0
  6 19  1  0
  7 10  2  0
  7 29  1  0
  8  5  1  0
  8  6  2  0
  9 21  1  0
  9 28  2  0
 10  8  1  0
 11  6  1  0
 11 13  1  0
 12  9  1  0
 13 32  1  0
 14  4  1  0
 15 27  1  0
 17 24  1  0
 18 27  2  0
 19  4  2  0
 21 16  1  0
 22  7  1  0
 23  2  2  0
 23 26  1  0
 25 26  1  0
 25 21  2  3
 26 15  2  0
 27  1  1  0
 28 16  1  0
 29  5  1  0
 30 22  3  0
 31 24  1  6
 31 11  1  0
 31 32  1  0
 31 13  1  0
 33  2  1  0
  3 34  1  0
  3 35  1  0
  3 36  1  0
 10 37  1  0
 11 38  1  6
 12 39  1  0
 13 40  1  1
 14 41  1  0
 15 42  1  0
 16 43  1  0
 16 44  1  0
 17 45  1  0
 17 46  1  0
 17 47  1  0
 18 48  1  0
 19 49  1  0
 20 50  1  0
 20 51  1  0
 20 52  1  0
 23 53  1  0
 32 54  1  0
 32 55  1  0
M  END
>  <mol_id>  (62) 
2026-08-24-6tgu-s0-n100-seed1-0065

>  <rmsd_to_ref>  (62) 


$$$$

     RDKit          3D

 44 47  0  0  0  0  0  0  0  0999 V2000
   -0.8807   19.3480   43.3215 C   0  0  0  0  0  0  0  0  0  0  0  0
   -0.3080   16.7907   43.2937 C   0  0  0  0  0  0  0  0  0  0  0  0
    1.3846   15.9194   41.8020 C   0  0  0  0  0  0  0  0  0  0  0  0
   -0.4796   20.5709   42.9157 C   0  0  0  0  0  0  0  0  0  0  0  0
   -0.8254   12.3238   46.1350 C   0  0  0  0  0  0  0  0  0  0  0  0
   -0.1742   12.7488   44.7793 C   0  0  0  0  0  0  0  0  0  0  0  0
    0.7054   18.2767   41.6393 C   0  0  0  0  0  0  0  0  0  0  0  0
    3.3331   16.8824   38.6906 C   0  0  0  0  0  0  0  0  0  0  0  0
    2.9647   19.2918   38.5908 C   0  0  0  0  0  0  0  0  0  0  0  0
    0.5196   15.6853   42.8371 C   0  0  0  0  0  0  0  0  0  0  0  0
    1.4670   17.1256   41.1440 C   0  0  0  0  0  0  0  0  0  0  0  0
    0.6008   20.6141   40.9140 C   0  0  0  0  0  0  0  0  0  0  0  0
    4.0790   18.0059   36.8413 N   0  0  0  0  0  0  0  0  0  0  0  0
    3.5872   19.2295   37.3178 C   0  0  0  0  0  0  0  0  0  0  0  0
   -0.4011   14.0357   44.3316 N   0  0  0  0  0  0  0  0  0  0  0  0
   -1.6531   19.0377   44.2779 O   0  0  0  0  0  0  0  0  0  0  0  0
    1.5842   13.0649   42.9785 S   0  0  0  0  0  0  0  0  0  0  0  0
    3.9221   16.8233   37.5353 C   0  0  0  0  0  0  0  0  0  0  0  0
    0.8058   12.0630   44.1639 N   0  0  0  0  0  0  0  0  0  0  0  0
    2.8837   18.0781   39.3051 C   0  0  0  0  0  0  0  0  0  0  0  0
   -0.0551   21.1506   41.9587 C   0  0  0  0  0  0  0  0  0  0  0  0
    0.9258   19.3556   40.8793 C   0  0  0  0  0  0  0  0  0  0  0  0
   -0.0923   18.1712   42.7482 C   0  0  0  0  0  0  0  0  0  0  0  0
    0.4809   14.3270   43.3742 C   0  0  1  0  0  0  0  0  0  0  0  0
    3.6239   20.2644   36.6921 O   0  0  0  0  0  0  0  0  0  0  0  0
    2.3030   17.3851   40.0675 N   0  0  0  0  0  0  0  0  0  0  0  0
   -1.0949   16.6137   44.0418 H   0  0  0  0  0  0  0  0  0  0  0  0
    2.0471   15.1024   41.4800 H   0  0  0  0  0  0  0  0  0  0  0  0
   -1.3746   21.1692   43.1415 H   0  0  0  0  0  0  0  0  0  0  0  0
    0.5343   20.4071   43.3094 H   0  0  0  0  0  0  0  0  0  0  0  0
   -0.2866   12.8020   46.9663 H   0  0  0  0  0  0  0  0  0  0  0  0
   -1.8789   12.6399   46.1508 H   0  0  0  0  0  0  0  0  0  0  0  0
   -0.7689   11.2305   46.2422 H   0  0  0  0  0  0  0  0  0  0  0  0
    3.1713   15.9379   39.2309 H   0  0  0  0  0  0  0  0  0  0  0  0
    1.9400   19.6645   38.4453 H   0  0  0  0  0  0  0  0  0  0  0  0
    3.6039   19.9487   39.1989 H   0  0  0  0  0  0  0  0  0  0  0  0
    0.8700   21.2588   40.0644 H   0  0  0  0  0  0  0  0  0  0  0  0
    4.2821   15.8681   37.1254 H   0  0  0  0  0  0  0  0  0  0  0  0
    1.0579   11.0851   44.3665 H   0  0  0  0  0  0  0  0  0  0  0  0
   -0.2187   22.2380   41.9303 H   0  0  0  0  0  0  0  0  0  0  0  0
    0.5364   19.0382   39.9007 H   0  0  0  0  0  0  0  0  0  0  0  0
    1.9409   19.5231   41.2687 H   0  0  0  0  0  0  0  0  0  0  0  0
    1.1328   14.6366   44.2043 H   0  0  0  0  0  0  0  0  0  0  0  0
    2.5675   16.4395   39.7565 H   0  0  0  0  0  0  0  0  0  0  0  0
  1 16  2  0
  3 10  2  0
  4  1  1  0
  6  5  1  0
  7 23  1  0
  8 20  2  0
  9 20  1  0
 10  2  1  0
 11  7  2  0
 11  3  1  0
 12 21  2  0
 13 14  1  0
 13 18  2  0
 14  9  1  0
 15  6  2  0
 17 24  1  0
 17 19  1  0
 18  8  1  0
 19  6  1  0
 20 26  1  0
 21  4  1  0
 22 12  1  0
 22  7  1  0
 23  2  2  0
 23  1  1  0
 24 10  1  0
 24 15  1  0
 25 14  2  0
 26 11  1  0
  2 27  1  0
  3 28  1  0
  4 29  1  0
  4 30  1  0
  5 31  1  0
  5 32  1  0
  5 33  1  0
  8 34  1  0
  9 35  1  0
  9 36  1  0
 12 37  1  0
 18 38  1  0
 19 39  1  0
 21 40  1  0
 22 41  1  0
 22 42  1  0
 24 43  1  6
 26 44  1  0
M  END
>  <mol_id>  (63) 
2026-08-24-6tgu-s0-n100-seed1-0066

>  <rmsd_to_ref>  (63) 


$$$$

     RDKit          3D

 37 39  0  0  0  0  0  0  0  0999 V2000
   -0.2701   19.3858   42.7793 C   0  0  0  0  0  0  0  0  0  0  0  0
    3.8242   18.9181   38.1776 C   0  0  0  0  0  0  0  0  0  0  0  0
    0.5361   19.7789   41.7081 C   0  0  0  0  0  0  0  0  0  0  0  0
    1.7252   20.4387   39.0557 C   0  0  0  0  0  0  0  0  0  0  0  0
   -1.6328   19.8120   44.3243 N   0  0  0  0  0  0  0  0  0  0  0  0
    3.1290   18.4829   39.2979 C   0  0  0  0  0  0  0  0  0  0  0  0
    1.3550   18.8392   41.0851 C   0  0  0  0  0  0  0  0  0  0  0  0
   -1.0383   17.3221   44.4122 N   0  0  0  0  0  0  0  0  0  0  0  0
   -1.7007   17.5349   45.6531 C   0  0  0  0  0  0  0  0  0  0  0  0
    3.5324   20.0388   37.4525 C   0  0  0  0  0  0  0  0  0  0  0  0
    2.3919   20.7676   37.9246 C   0  0  0  0  0  0  0  0  0  0  0  0
    2.0771   19.2447   39.8237 C   0  0  0  0  0  0  0  0  0  0  0  0
    4.3299   20.4443   36.2471 C   0  0  0  0  0  0  0  0  0  0  0  0
   -0.2674   18.0619   43.2755 C   0  0  0  0  0  0  0  0  0  0  0  0
    0.6956   17.2120   42.6570 C   0  0  0  0  0  0  0  0  0  0  0  0
   -1.4090   16.5456   46.7507 C   0  0  0  0  0  0  0  0  0  0  0  0
   -1.0453   20.4558   43.4527 N   0  0  0  0  0  0  0  0  0  0  0  0
    3.9560   21.2468   35.2652 N   0  0  0  0  0  0  0  0  0  0  0  0
   -1.0090   17.7271   46.9324 C   0  0  0  0  0  0  0  0  0  0  0  0
    1.5140   17.5730   41.6292 N   0  0  0  0  0  0  0  0  0  0  0  0
    4.6798   18.3111   37.8469 H   0  0  0  0  0  0  0  0  0  0  0  0
    0.5244   20.8220   41.3592 H   0  0  0  0  0  0  0  0  0  0  0  0
    0.9032   21.0814   39.4039 H   0  0  0  0  0  0  0  0  0  0  0  0
   -1.4462   20.2323   45.2459 H   0  0  0  0  0  0  0  0  0  0  0  0
   -2.6458   19.8276   44.1386 H   0  0  0  0  0  0  0  0  0  0  0  0
    3.4063   17.5322   39.7766 H   0  0  0  0  0  0  0  0  0  0  0  0
   -1.0842   16.3194   44.1814 H   0  0  0  0  0  0  0  0  0  0  0  0
   -2.5271   18.0284   45.1206 H   0  0  0  0  0  0  0  0  0  0  0  0
    2.0430   21.6327   37.3417 H   0  0  0  0  0  0  0  0  0  0  0  0
    5.3439   20.0248   36.1719 H   0  0  0  0  0  0  0  0  0  0  0  0
    0.7850   16.1845   43.0394 H   0  0  0  0  0  0  0  0  0  0  0  0
   -2.2370   16.1554   47.3607 H   0  0  0  0  0  0  0  0  0  0  0  0
   -0.9114   15.5650   46.7744 H   0  0  0  0  0  0  0  0  0  0  0  0
   -1.0828   21.4645   43.2473 H   0  0  0  0  0  0  0  0  0  0  0  0
    4.6027   21.4466   34.4888 H   0  0  0  0  0  0  0  0  0  0  0  0
    0.0724   17.9284   46.9264 H   0  0  0  0  0  0  0  0  0  0  0  0
   -1.1655   18.4400   47.7553 H   0  0  0  0  0  0  0  0  0  0  0  0
  1 14  2  0
  1 17  1  0
  2  6  2  0
  3  1  1  0
  4 12  2  0
  6 12  1  0
  7 20  1  0
  7  3  2  0
  8  9  1  0
  9 16  1  0
  9 19  1  0
 10 11  2  0
 10  2  1  0
 11  4  1  0
 12  7  1  0
 13 10  1  0
 14  8  1  0
 15 14  1  0
 16 19  1  0
 17  5  1  0
 18 13  2  3
 20 15  2  0
  2 21  1  0
  3 22  1  0
  4 23  1  0
  5 24  1  0
  5 25  1  0
  6 26  1  0
  8 27  1  0
  9 28  1  0
 11 29  1  0
 13 30  1  0
 15 31  1  0
 16 32  1  0
 16 33  1  0
 17 34  1  0
 18 35  1  0
 19 36  1  0
 19 37  1  0
M  END
>  <mol_id>  (64) 
2026-08-24-6tgu-s0-n100-seed1-0067

>  <rmsd_to_ref>  (64) 


$$$$

     RDKit          3D

 59 63  0  0  0  0  0  0  0  0999 V2000
   -0.4353   18.9851   43.1635 C   0  0  0  0  0  0  0  0  0  0  0  0
    1.8188   20.3501   39.5308 C   0  0  0  0  0  0  0  0  0  0  0  0
    2.7896   16.5864   36.8696 C   0  0  2  0  0  0  0  0  0  0  0  0
    4.8620   13.5916   36.8455 O   0  0  0  0  0  0  0  0  0  0  0  0
   -0.1497   20.1020   42.4501 N   0  0  0  0  0  0  0  0  0  0  0  0
    2.4142   21.1095   35.4821 O   0  0  0  0  0  0  0  0  0  0  0  0
    0.4485   15.4289   42.2188 C   0  0  0  0  0  0  0  0  0  0  0  0
    3.1442   20.0605   35.4678 C   0  0  0  0  0  0  0  0  0  0  0  0
    4.5279   13.8583   34.6401 O   0  0  0  0  0  0  0  0  0  0  0  0
   -0.9401   16.5631   45.6402 N   0  0  0  0  0  0  0  0  0  0  0  0
   -0.5772   14.3473   44.9195 S   0  0  0  0  0  0  0  0  0  0  0  0
    0.0530   17.7549   42.7311 C   0  0  0  0  0  0  0  0  0  0  0  0
   -0.8417   15.4367   47.8459 C   0  0  0  0  0  0  0  0  0  0  0  0
    0.5846   20.0054   41.3218 C   0  0  0  0  0  0  0  0  0  0  0  0
   -2.2019   15.3911   48.5818 C   0  0  0  0  0  0  0  0  0  0  0  0
    3.7700   18.4704   38.1754 C   0  0  0  0  0  0  0  0  0  0  0  0
    1.0479   16.1493   41.0759 C   0  0  0  0  0  0  0  0  0  0  0  0
    2.1370   16.7861   38.3128 C   0  0  0  0  0  0  0  0  0  0  0  0
    2.7985   17.9600   39.0816 C   0  0  2  0  0  0  0  0  0  0  0  0
    3.9456   15.8394   36.4052 N   0  0  0  0  0  0  0  0  0  0  0  0
    2.6535   18.9232   36.0855 N   0  0  0  0  0  0  0  0  0  0  0  0
    2.9042   13.2047   36.7132 O   0  0  0  0  0  0  0  0  0  0  0  0
   -0.1631   16.4227   43.2623 N   0  0  0  0  0  0  0  0  0  0  0  0
    0.7583   17.6589   41.5755 C   0  0  0  0  0  0  0  0  0  0  0  0
    1.9118   18.9800   39.8083 N   0  0  0  0  0  0  0  0  0  0  0  0
    4.2515   19.9386   34.8138 O   0  0  0  0  0  0  0  0  0  0  0  0
   -0.9650   15.4748   46.4280 C   0  0  1  0  0  0  0  0  0  0  0  0
    3.9878   14.2524   36.1258 P   0  0  0  0  0  5  0  0  0  0  0  0
    1.0383   20.9148   40.4467 N   0  0  0  0  0  0  0  0  0  0  0  0
    3.4976   17.9572   36.7212 C   0  0  2  0  0  0  0  0  0  0  0  0
   -0.6349   16.0177   44.3844 C   0  0  2  0  0  0  0  0  0  0  0  0
   -3.1505   16.1626   47.8891 O   0  0  0  0  0  0  0  0  0  0  0  0
    1.1019   18.7588   40.9090 C   0  0  1  0  0  0  0  0  0  0  0  0
   -0.0457   19.1454   44.1796 H   0  0  0  0  0  0  0  0  0  0  0  0
   -1.5256   18.8826   43.0597 H   0  0  0  0  0  0  0  0  0  0  0  0
    2.3093   20.8710   38.6953 H   0  0  0  0  0  0  0  0  0  0  0  0
    1.9408   16.0883   36.3783 H   0  0  0  0  0  0  0  0  0  0  0  0
    4.6725   13.7333   37.8068 H   0  0  0  0  0  0  0  0  0  0  0  0
    0.4341   14.3340   42.3229 H   0  0  0  0  0  0  0  0  0  0  0  0
   -1.8550   17.0362   45.6288 H   0  0  0  0  0  0  0  0  0  0  0  0
   -0.2706   17.2815   45.9510 H   0  0  0  0  0  0  0  0  0  0  0  0
   -0.2989   16.3360   48.1726 H   0  0  0  0  0  0  0  0  0  0  0  0
   -0.3048   14.5108   48.0997 H   0  0  0  0  0  0  0  0  0  0  0  0
   -2.5507   14.3494   48.6379 H   0  0  0  0  0  0  0  0  0  0  0  0
   -2.0770   15.7985   49.5959 H   0  0  0  0  0  0  0  0  0  0  0  0
    3.7285   19.5696   38.1836 H   0  0  0  0  0  0  0  0  0  0  0  0
    4.7644   18.1224   38.4917 H   0  0  0  0  0  0  0  0  0  0  0  0
    1.5393   15.7739   40.1662 H   0  0  0  0  0  0  0  0  0  0  0  0
    1.0641   16.9973   38.1933 H   0  0  0  0  0  0  0  0  0  0  0  0
    2.2939   15.8641   38.8918 H   0  0  0  0  0  0  0  0  0  0  0  0
    3.2520   17.5840   40.0106 H   0  0  0  0  0  0  0  0  0  0  0  0
    4.2131   16.2796   35.5132 H   0  0  0  0  0  0  0  0  0  0  0  0
    1.6358   18.7648   36.0880 H   0  0  0  0  0  0  0  0  0  0  0  0
    2.9796   13.1703   37.6997 H   0  0  0  0  0  0  0  0  0  0  0  0
   -1.6105   15.0607   47.2166 H   0  0  0  0  0  0  0  0  0  0  0  0
    4.4078   17.8341   36.1157 H   0  0  0  0  0  0  0  0  0  0  0  0
   -1.0844   16.6251   43.5851 H   0  0  0  0  0  0  0  0  0  0  0  0
   -3.7290   16.6356   48.5386 H   0  0  0  0  0  0  0  0  0  0  0  0
    1.9673   18.8979   41.5736 H   0  0  0  0  0  0  0  0  0  0  0  0
  2 25  1  0
  2 29  2  0
  3 20  1  0
  3 18  1  0
  5  1  1  0
  6  8  1  0
  7 23  1  0
  8 21  1  0
  9 28  2  0
 10 27  1  0
 11 27  1  0
 12  1  1  0
 12 23  1  0
 13 15  1  0
 14  5  2  0
 17 24  1  0
 17  7  2  0
 18 19  1  0
 19 16  1  0
 19 25  1  0
 24 12  2  0
 25 33  1  0
 26  8  2  0
 27 13  1  0
 28 20  1  0
 28 22  1  0
 28  4  1  0
 29 14  1  0
 30 21  1  0
 30  3  1  0
 30 16  1  0
 31 23  1  0
 31 11  1  0
 31 10  1  0
 32 15  1  0
 33 14  1  0
 33 24  1  0
  1 34  1  0
  1 35  1  0
  2 36  1  0
  3 37  1  6
  4 38  1  0
  7 39  1  0
 10 40  1  0
 10 41  1  0
 13 42  1  0
 13 43  1  0
 15 44  1  0
 15 45  1  0
 16 46  1  0
 16 47  1  0
 17 48  1  0
 18 49  1  0
 18 50  1  0
 19 51  1  1
 20 52  1  0
 21 53  1  0
 22 54  1  0
 27 55  1  1
 30 56  1  6
 31 57  1  6
 32 58  1  0
 33 59  1  1
M  CHG  2   6  -1  10   1
M  END
>  <mol_id>  (65) 
2026-08-24-6tgu-s0-n100-seed1-0068

>  <rmsd_to_ref>  (65) 


$$$$

     RDKit          3D

 17 18  0  0  0  0  0  0  0  0999 V2000
    3.2730   18.4540   38.2170 C   0  0  0  0  0  0  0  0  0  0  0  0
    2.1560   20.4440   38.8610 O   0  0  0  0  0  0  0  0  0  0  0  0
    0.8470   18.8030   42.3820 C   0  0  0  0  0  0  0  0  0  0  0  0
    1.7810   19.8320   39.9980 C   0  0  0  0  0  0  0  0  0  0  0  0
    2.8250   19.7340   37.9510 C   0  0  0  0  0  0  0  0  0  0  0  0
    2.9790   20.3730   36.8480 O   0  0  0  0  0  0  0  0  0  0  0  0
    2.0510   18.5010   40.2480 C   0  0  0  0  0  0  0  0  0  0  0  0
    2.8340   17.7920   39.3460 C   0  0  0  0  0  0  0  0  0  0  0  0
    0.6220   20.1500   42.0350 C   0  0  0  0  0  0  0  0  0  0  0  0
    1.5710   17.9280   41.4650 C   0  0  0  0  0  0  0  0  0  0  0  0
    1.0480   20.6510   40.8100 C   0  0  0  0  0  0  0  0  0  0  0  0
    3.9783   17.9634   37.5301 H   0  0  0  0  0  0  0  0  0  0  0  0
    0.4780   18.4118   43.3416 H   0  0  0  0  0  0  0  0  0  0  0  0
    3.0954   16.7387   39.5253 H   0  0  0  0  0  0  0  0  0  0  0  0
    0.1028   20.8135   42.7422 H   0  0  0  0  0  0  0  0  0  0  0  0
    1.7405   16.8674   41.7023 H   0  0  0  0  0  0  0  0  0  0  0  0
    0.8018   21.6782   40.5030 H   0  0  0  0  0  0  0  0  0  0  0  0
  1  8  2  0
  2  4  1  0
  4  7  1  0
  4 11  2  0
  5  1  1  0
  5  2  1  0
  6  5  2  0
  7 10  2  0
  8  7  1  0
  9  3  2  0
 10  3  1  0
 11  9  1  0
  1 12  1  0
  3 13  1  0
  8 14  1  0
  9 15  1  0
 10 16  1  0
 11 17  1  0
M  END
>  <mol_id>  (66) 
2026-08-24-6tgu-s0-n100-seed1-0069

>  <rmsd_to_ref>  (66) 


$$$$

     RDKit          3D

 24 26  0  0  0  0  0  0  0  0999 V2000
    1.8416   17.8383   41.0222 C   0  0  0  0  0  0  0  0  0  0  0  0
    3.9511   16.5796   38.4800 O   0  0  0  0  0  0  0  0  0  0  0  0
    1.5433   19.1480   40.4927 C   0  0  2  0  0  0  0  0  0  0  0  0
    2.2908   19.5868   39.1969 C   0  0  0  0  0  0  0  0  0  0  0  0
    3.3625   17.4254   39.1647 C   0  0  0  0  0  0  0  0  0  0  0  0
    3.5885   20.0024   36.5929 N   0  0  0  0  0  0  0  0  0  0  0  0
   -0.2170   17.5356   44.0035 O   0  0  0  0  0  0  0  0  0  0  0  0
    1.2597   17.3052   42.1759 C   0  0  0  0  0  0  0  0  0  0  0  0
    2.7443   17.0291   40.2927 N   0  0  0  0  0  0  0  0  0  0  0  0
    3.1053   18.6273   38.5859 C   0  0  0  0  0  0  0  0  0  0  0  0
   -0.0719   19.3958   42.4128 C   0  0  0  0  0  0  0  0  0  0  0  0
    0.5483   19.9076   41.2433 C   0  0  0  0  0  0  0  0  0  0  0  0
    3.7729   18.8512   37.2929 C   0  0  0  0  0  0  0  0  0  0  0  0
    0.2668   18.0753   42.9633 C   0  0  0  0  0  0  0  0  0  0  0  0
    2.0813   20.7535   38.4520 C   0  0  0  0  0  0  0  0  0  0  0  0
    2.7731   20.9296   37.1716 C   0  0  0  0  0  0  0  0  0  0  0  0
    0.7447   18.7152   39.8722 H   0  0  0  0  0  0  0  0  0  0  0  0
    0.7607   16.3736   41.8710 H   0  0  0  0  0  0  0  0  0  0  0  0
    2.1137   17.2402   42.8663 H   0  0  0  0  0  0  0  0  0  0  0  0
   -0.8306   20.0068   42.9238 H   0  0  0  0  0  0  0  0  0  0  0  0
    0.2694   20.9114   40.8903 H   0  0  0  0  0  0  0  0  0  0  0  0
    4.4337   18.0720   36.8851 H   0  0  0  0  0  0  0  0  0  0  0  0
    1.4015   21.5336   38.8254 H   0  0  0  0  0  0  0  0  0  0  0  0
    2.6233   21.8798   36.6382 H   0  0  0  0  0  0  0  0  0  0  0  0
  1  8  1  0
  2  5  2  0
  3  1  1  0
  3 12  1  0
  4  3  1  0
  5  9  1  0
  6 13  1  0
  6 16  2  0
  8 14  1  0
  9  1  2  0
 10  5  1  0
 10  4  1  0
 11 14  1  0
 12 11  2  0
 13 10  2  0
 14  7  2  0
 15  4  2  0
 16 15  1  0
  3 17  1  6
  8 18  1  0
  8 19  1  0
 11 20  1  0
 12 21  1  0
 13 22  1  0
 15 23  1  0
 16 24  1  0
M  END
>  <mol_id>  (67) 
2026-08-24-6tgu-s0-n100-seed1-0070

>  <rmsd_to_ref>  (67) 


$$$$

     RDKit          3D

 47 51  0  0  0  0  0  0  0  0999 V2000
    3.0298   17.3159   40.0652 O   0  0  0  0  0  0  0  0  0  0  0  0
   -2.1622   19.7200   45.1592 N   0  0  0  0  0  0  0  0  0  0  0  0
    3.6433   15.8927   39.9345 C   0  0  0  0  0  0  0  0  0  0  0  0
    0.2246   21.1603   41.1660 C   0  0  0  0  0  0  0  0  0  0  0  0
    1.3474   15.6231   42.1503 C   0  0  0  0  0  0  0  0  0  0  0  0
    4.7142   17.7602   37.0248 C   0  0  0  0  0  0  0  0  0  0  0  0
    0.4915   16.2321   43.1560 C   0  0  0  0  0  0  0  0  0  0  0  0
   -1.0309   17.3168   45.3183 C   0  0  0  0  0  0  0  0  0  0  0  0
    0.0792   15.4531   44.3145 C   0  0  0  0  0  0  0  0  0  0  0  0
    3.9978   17.7153   38.0978 N   0  0  0  0  0  0  0  0  0  0  0  0
   -0.9359   20.4911   43.1442 N   0  0  0  0  0  0  0  0  0  0  0  0
   -0.6621   18.1976   44.1798 C   0  0  0  0  0  0  0  0  0  0  0  0
    2.5978   21.3012   37.3962 C   0  0  0  0  0  0  0  0  0  0  0  0
    3.2628   18.2514   39.1052 C   0  0  0  0  0  0  0  0  0  0  0  0
   -1.1222   19.4884   43.9973 C   0  0  0  0  0  0  0  0  0  0  0  0
    1.5778   21.8927   38.3819 O   0  0  0  0  0  0  0  0  0  0  0  0
    1.9431   19.9526   40.1186 C   0  0  0  0  0  0  0  0  0  0  0  0
    0.1241   17.6675   43.0446 C   0  0  0  0  0  0  0  0  0  0  0  0
   -0.6325   15.9877   45.4076 C   0  0  0  0  0  0  0  0  0  0  0  0
    3.6297   20.5742   38.0598 C   0  0  2  0  0  0  0  0  0  0  0  0
   -0.1178   20.1331   42.1563 C   0  0  0  0  0  0  0  0  0  0  0  0
    4.5422   20.4441   37.0104 C   0  0  0  0  0  0  0  0  0  0  0  0
    0.5629   18.8921   42.0243 C   0  0  0  0  0  0  0  0  0  0  0  0
    1.5130   18.9823   41.0760 N   0  0  0  0  0  0  0  0  0  0  0  0
    2.5447   21.5754   36.2960 O   0  0  0  0  0  0  0  0  0  0  0  0
    5.2921   16.4206   36.5739 C   0  0  0  0  0  0  0  0  0  0  0  0
    4.9236   19.0056   36.3423 N   0  0  0  0  0  0  0  0  0  0  0  0
    1.2907   21.2750   39.8909 C   0  0  0  0  0  0  0  0  0  0  0  0
    2.9543   19.7244   39.3213 N   0  0  0  0  0  0  0  0  0  0  0  0
   -2.3420   18.9736   45.8458 H   0  0  0  0  0  0  0  0  0  0  0  0
   -2.6619   20.6177   45.2317 H   0  0  0  0  0  0  0  0  0  0  0  0
    3.7730   15.4559   40.9356 H   0  0  0  0  0  0  0  0  0  0  0  0
    2.9702   15.2563   39.3412 H   0  0  0  0  0  0  0  0  0  0  0  0
    4.6207   15.9593   39.4340 H   0  0  0  0  0  0  0  0  0  0  0  0
   -0.3667   22.0785   41.2977 H   0  0  0  0  0  0  0  0  0  0  0  0
    2.1553   15.0647   42.6458 H   0  0  0  0  0  0  0  0  0  0  0  0
    0.7530   14.9355   41.5306 H   0  0  0  0  0  0  0  0  0  0  0  0
    1.7813   16.4083   41.5138 H   0  0  0  0  0  0  0  0  0  0  0  0
   -1.6474   17.7355   46.1275 H   0  0  0  0  0  0  0  0  0  0  0  0
    0.3382   14.3843   44.3384 H   0  0  0  0  0  0  0  0  0  0  0  0
   -0.8630   15.3788   46.2942 H   0  0  0  0  0  0  0  0  0  0  0  0
    4.4141   20.7289   38.8153 H   0  0  0  0  0  0  0  0  0  0  0  0
    4.1531   21.0661   36.1907 H   0  0  0  0  0  0  0  0  0  0  0  0
    5.4870   20.7170   37.5032 H   0  0  0  0  0  0  0  0  0  0  0  0
    5.4992   15.7955   37.4550 H   0  0  0  0  0  0  0  0  0  0  0  0
    4.5674   15.9088   35.9235 H   0  0  0  0  0  0  0  0  0  0  0  0
    6.2259   16.5924   36.0185 H   0  0  0  0  0  0  0  0  0  0  0  0
  3  1  1  0
  4 21  2  0
  5  7  1  0
  6 10  1  0
  7 18  2  0
  7  9  1  0
  9 19  2  0
 10 14  2  0
 11 15  2  0
 12  8  2  0
 13 20  1  0
 13 16  1  0
 14 29  1  0
 14  1  1  0
 15 12  1  0
 15  2  1  0
 16 28  1  0
 17 24  1  0
 18 12  1  0
 19  8  1  0
 20 22  1  0
 20 29  1  0
 21 11  1  0
 23 21  1  0
 23 18  1  0
 24 23  2  0
 25 13  2  0
 26  6  1  0
 27  6  2  0
 27 22  1  0
 28 17  2  0
 28  4  1  0
 29 17  1  0
  2 30  1  0
  2 31  1  0
  3 32  1  0
  3 33  1  0
  3 34  1  0
  4 35  1  0
  5 36  1  0
  5 37  1  0
  5 38  1  0
  8 39  1  0
  9 40  1  0
 19 41  1  0
 20 42  1  1
 22 43  1  0
 22 44  1  0
 26 45  1  0
 26 46  1  0
 26 47  1  0
M  END
>  <mol_id>  (68) 
2026-08-24-6tgu-s0-n100-seed1-0071

>  <rmsd_to_ref>  (68) 


$$$$

     RDKit          3D

 39 40  0  0  0  0  0  0  0  0999 V2000
   -0.7223   17.7475   44.5359 C   0  0  0  0  0  0  0  0  0  0  0  0
    1.5458   21.0964   39.6868 C   0  0  0  0  0  0  0  0  0  0  0  0
    3.0556   19.4494   38.6771 C   0  0  0  0  0  0  0  0  0  0  0  0
    0.9744   13.8497   43.0840 C   0  0  0  0  0  0  0  0  0  0  0  0
    1.1002   19.1970   41.2832 C   0  0  0  0  0  0  0  0  0  0  0  0
    3.8097   16.4075   36.8514 N   0  0  0  0  0  0  0  0  0  0  0  0
   -0.0783   17.7482   43.4090 C   0  0  0  0  0  0  0  0  0  0  0  0
    2.8745   18.4816   39.6031 C   0  0  0  0  0  0  0  0  0  0  0  0
    2.0283   13.8442   42.1343 C   0  0  0  0  0  0  0  0  0  0  0  0
   -1.0857   18.9764   45.1093 N   0  0  0  0  0  0  0  0  0  0  0  0
    0.2124   18.9593   42.5720 C   0  0  0  0  0  0  0  0  0  0  0  0
    0.3632   16.3666   42.8824 C   0  0  0  0  0  0  0  0  0  0  0  0
    0.5299   12.7542   43.6425 O   0  0  0  0  0  0  0  0  0  0  0  0
    0.1594   15.0710   43.5313 C   0  0  0  0  0  0  0  0  0  0  0  0
    3.4796   18.9739   37.3188 C   0  0  0  0  0  0  0  0  0  0  0  0
    1.1852   16.3437   41.9406 O   0  0  0  0  0  0  0  0  0  0  0  0
    1.9678   18.2618   40.6902 C   0  0  0  0  0  0  0  0  0  0  0  0
   -0.7263   19.9579   44.4173 C   0  0  0  0  0  0  0  0  0  0  0  0
    3.6071   17.6758   37.2298 N   0  0  0  0  0  0  0  0  0  0  0  0
    2.4080   20.6268   38.6857 C   0  0  0  0  0  0  0  0  0  0  0  0
    3.6216   19.7109   36.4709 O   0  0  0  0  0  0  0  0  0  0  0  0
    0.9733   20.4492   40.7182 C   0  0  0  0  0  0  0  0  0  0  0  0
   -0.2115   20.0702   43.1473 N   0  0  0  0  0  0  0  0  0  0  0  0
   -0.9788   16.8004   45.0331 H   0  0  0  0  0  0  0  0  0  0  0  0
    1.2976   22.1659   39.6180 H   0  0  0  0  0  0  0  0  0  0  0  0
    3.9021   15.8109   37.6860 H   0  0  0  0  0  0  0  0  0  0  0  0
    3.0107   16.0860   36.2863 H   0  0  0  0  0  0  0  0  0  0  0  0
    3.6010   17.6627   39.4958 H   0  0  0  0  0  0  0  0  0  0  0  0
    2.9947   13.8782   42.6588 H   0  0  0  0  0  0  0  0  0  0  0  0
    1.9717   12.9274   41.5290 H   0  0  0  0  0  0  0  0  0  0  0  0
    1.9358   14.7227   41.4788 H   0  0  0  0  0  0  0  0  0  0  0  0
    0.9630   11.8863   43.4439 H   0  0  0  0  0  0  0  0  0  0  0  0
   -0.5788   14.9722   44.3408 H   0  0  0  0  0  0  0  0  0  0  0  0
    1.9478   17.2450   41.1094 H   0  0  0  0  0  0  0  0  0  0  0  0
   -0.8471   20.9240   44.9292 H   0  0  0  0  0  0  0  0  0  0  0  0
    3.3623   17.4675   38.2084 H   0  0  0  0  0  0  0  0  0  0  0  0
    2.5702   21.2877   37.8216 H   0  0  0  0  0  0  0  0  0  0  0  0
    1.1781   21.1186   41.5667 H   0  0  0  0  0  0  0  0  0  0  0  0
    0.0482   20.2100   40.1733 H   0  0  0  0  0  0  0  0  0  0  0  0
  1 10  1  0
  2 22  1  0
  3 20  1  0
  3  8  2  0
  4 14  2  3
  4 13  1  0
  5 11  1  0
  6 19  1  0
  7  1  2  0
  8 17  1  0
  9  4  1  0
 11 23  2  0
 11  7  1  0
 12  7  1  0
 12 14  1  0
 15  3  1  0
 16 12  2  0
 17  5  2  0
 18 10  2  0
 19 15  1  0
 20  2  2  0
 21 15  2  0
 22  5  1  0
 23 18  1  0
  1 24  1  0
  2 25  1  0
  6 26  1  0
  6 27  1  0
  8 28  1  0
  9 29  1  0
  9 30  1  0
  9 31  1  0
 13 32  1  0
 14 33  1  0
 17 34  1  0
 18 35  1  0
 19 36  1  0
 20 37  1  0
 22 38  1  0
 22 39  1  0
M  END
>  <mol_id>  (69) 
2026-08-24-6tgu-s0-n100-seed1-0072

>  <rmsd_to_ref>  (69) 


$$$$

     RDKit          3D

 28 28  0  0  0  0  0  0  0  0999 V2000
    3.3461   21.4861   36.1053 O   0  0  0  0  0  0  0  0  0  0  0  0
    0.3895   18.0090   42.6795 C   0  0  0  0  0  0  0  0  0  0  0  0
    2.7486   20.9294   37.0364 C   0  0  0  0  0  0  0  0  0  0  0  0
    0.6897   15.7698   41.8032 C   0  0  0  0  0  0  0  0  0  0  0  0
    3.3299   18.6533   36.7621 O   0  0  0  0  0  0  0  0  0  0  0  0
   -0.8142   16.0903   43.6650 C   0  0  0  0  0  0  0  0  0  0  0  0
    1.7679   17.7095   40.6863 C   0  0  0  0  0  0  0  0  0  0  0  0
    2.1237   19.9888   39.7916 C   0  0  0  0  0  0  0  0  0  0  0  0
    1.1304   19.0346   40.2975 C   0  0  0  0  0  0  0  0  0  0  0  0
    3.0906   19.6246   37.5356 C   0  0  0  0  0  0  0  0  0  0  0  0
    1.8606   21.6466   37.4857 O   0  0  0  0  0  0  0  0  0  0  0  0
   -0.4944   17.4936   43.6041 C   0  0  0  0  0  0  0  0  0  0  0  0
    0.9489   17.1410   41.7580 C   0  0  0  0  0  0  0  0  0  0  0  0
   -0.1595   15.2837   42.7146 C   0  0  0  0  0  0  0  0  0  0  0  0
    3.3262   19.4275   38.9868 C   0  0  0  0  0  0  0  0  0  0  0  0
    0.6426   19.0794   42.6745 H   0  0  0  0  0  0  0  0  0  0  0  0
    1.1825   15.0915   41.0913 H   0  0  0  0  0  0  0  0  0  0  0  0
   -1.5196   15.6783   44.4017 H   0  0  0  0  0  0  0  0  0  0  0  0
    2.7955   17.8744   41.0425 H   0  0  0  0  0  0  0  0  0  0  0  0
    1.8160   17.0280   39.8242 H   0  0  0  0  0  0  0  0  0  0  0  0
    1.5940   20.6972   39.1377 H   0  0  0  0  0  0  0  0  0  0  0  0
    2.5755   20.4221   40.6962 H   0  0  0  0  0  0  0  0  0  0  0  0
    0.6395   19.4668   41.1820 H   0  0  0  0  0  0  0  0  0  0  0  0
    0.4019   18.8418   39.4962 H   0  0  0  0  0  0  0  0  0  0  0  0
   -0.9722   18.1783   44.3203 H   0  0  0  0  0  0  0  0  0  0  0  0
   -0.3560   14.2014   42.7222 H   0  0  0  0  0  0  0  0  0  0  0  0
    3.4378   18.3536   39.1968 H   0  0  0  0  0  0  0  0  0  0  0  0
    4.2430   19.9583   39.2829 H   0  0  0  0  0  0  0  0  0  0  0  0
  1  3  2  0
  2 12  1  0
  3 10  1  0
  4 14  2  0
  5 10  2  0
  7 13  1  0
  8  9  1  0
  9  7  1  0
 10 15  1  0
 11  3  1  0
 12  6  2  0
 13  2  2  0
 13  4  1  0
 14  6  1  0
 15  8  1  0
  2 16  1  0
  4 17  1  0
  6 18  1  0
  7 19  1  0
  7 20  1  0
  8 21  1  0
  8 22  1  0
  9 23  1  0
  9 24  1  0
 12 25  1  0
 14 26  1  0
 15 27  1  0
 15 28  1  0
M  CHG  1  11  -1
M  END
>  <mol_id>  (70) 
2026-08-24-6tgu-s0-n100-seed1-0073

>  <rmsd_to_ref>  (70) 


$$$$

     RDKit          3D

 49 54  0  0  0  0  0  0  0  0999 V2000
    4.6550   19.3198   37.1459 C   0  0  0  0  0  0  0  0  0  0  0  0
    1.6817   15.6414   41.8258 C   0  0  0  0  0  0  0  0  0  0  0  0
    0.0035   13.4879   44.7886 C   0  0  0  0  0  0  0  0  0  0  0  0
   -0.8650   19.9846   43.0955 C   0  0  0  0  0  0  0  0  0  0  0  0
    3.9234   22.4605   35.3596 N   0  0  0  0  0  0  0  0  0  0  0  0
    3.7940   19.4878   38.2967 C   0  0  0  0  0  0  0  0  0  0  0  0
    0.3441   12.1979   44.8746 C   0  0  0  0  0  0  0  0  0  0  0  0
    3.5968   18.4374   39.2508 C   0  0  0  0  0  0  0  0  0  0  0  0
    2.9868   20.6087   38.3872 C   0  0  0  0  0  0  0  0  0  0  0  0
    0.5487   14.2430   43.7816 C   0  0  0  0  0  0  0  0  0  0  0  0
    0.0630   20.4985   41.9635 C   0  0  0  0  0  0  0  0  0  0  0  0
    1.6840   12.2964   42.9313 N   0  0  0  0  0  0  0  0  0  0  0  0
    0.2634   17.7302   42.4906 C   0  0  0  0  0  0  0  0  0  0  0  0
    2.5333   18.6834   40.1508 C   0  0  0  0  0  0  0  0  0  0  0  0
    3.8628   21.4538   36.3569 C   0  0  0  0  0  0  0  0  0  0  0  0
   -1.0815   19.4504   43.6273 N   0  0  0  0  0  0  0  0  0  0  0  0
    1.9983   14.3646   41.8549 C   0  0  0  0  0  0  0  0  0  0  0  0
    1.3929   13.5956   42.8467 C   0  0  0  0  0  0  0  0  0  0  0  0
    4.3647   17.3001   39.2356 O   0  0  0  0  0  0  0  0  0  0  0  0
   -0.8398   18.0726   43.4255 C   0  0  0  0  0  0  0  0  0  0  0  0
    4.6838   20.2802   36.2498 C   0  0  0  0  0  0  0  0  0  0  0  0
    1.9116   19.8651   40.3523 C   0  0  0  0  0  0  0  0  0  0  0  0
    0.2226   15.5295   43.6558 C   0  0  0  0  0  0  0  0  0  0  0  0
    2.1195   20.8750   39.5381 C   0  0  0  0  0  0  0  0  0  0  0  0
    0.9883   18.3783   41.5760 C   0  0  0  0  0  0  0  0  0  0  0  0
    2.0353   17.8432   40.9418 N   0  0  0  0  0  0  0  0  0  0  0  0
    0.9657   19.7876   41.3927 C   0  0  0  0  0  0  0  0  0  0  0  0
    3.0245   21.5981   37.4026 C   0  0  0  0  0  0  0  0  0  0  0  0
    0.7822   16.3089   42.6324 C   0  0  0  0  0  0  0  0  0  0  0  0
    1.1527   11.6173   43.9535 C   0  0  0  0  0  0  0  0  0  0  0  0
    5.2676   18.4142   37.0248 H   0  0  0  0  0  0  0  0  0  0  0  0
    2.1959   16.2501   41.0675 H   0  0  0  0  0  0  0  0  0  0  0  0
   -0.6981   13.9337   45.5091 H   0  0  0  0  0  0  0  0  0  0  0  0
   -1.6056   20.7892   43.2140 H   0  0  0  0  0  0  0  0  0  0  0  0
    4.5625   22.3544   34.5589 H   0  0  0  0  0  0  0  0  0  0  0  0
    3.3283   23.2977   35.4362 H   0  0  0  0  0  0  0  0  0  0  0  0
   -0.0397   11.5945   45.7104 H   0  0  0  0  0  0  0  0  0  0  0  0
   -0.0609   21.5390   41.6288 H   0  0  0  0  0  0  0  0  0  0  0  0
   -0.6063   19.7041   44.5052 H   0  0  0  0  0  0  0  0  0  0  0  0
   -2.1095   19.5042   43.5916 H   0  0  0  0  0  0  0  0  0  0  0  0
    2.7042   13.9270   41.1337 H   0  0  0  0  0  0  0  0  0  0  0  0
    4.2087   16.5885   39.9060 H   0  0  0  0  0  0  0  0  0  0  0  0
   -1.4344   17.2979   43.9316 H   0  0  0  0  0  0  0  0  0  0  0  0
    5.3599   20.1820   35.3878 H   0  0  0  0  0  0  0  0  0  0  0  0
   -0.4907   15.9831   44.3597 H   0  0  0  0  0  0  0  0  0  0  0  0
    1.6685   21.8634   39.7103 H   0  0  0  0  0  0  0  0  0  0  0  0
    2.3831   16.8837   41.0805 H   0  0  0  0  0  0  0  0  0  0  0  0
    2.3778   22.4846   37.4793 H   0  0  0  0  0  0  0  0  0  0  0  0
    1.3803   10.5456   44.0510 H   0  0  0  0  0  0  0  0  0  0  0  0
  1  6  2  0
  2 17  1  0
  2 29  2  0
  3  7  2  0
  4 16  1  0
  5 15  1  0
  6  9  1  0
  6  8  1  0
  8 14  2  0
  9 24  1  0
 10  3  1  0
 11  4  2  0
 12 30  2  0
 13 29  1  0
 13 20  2  0
 14 22  1  0
 14 26  1  0
 15 28  1  0
 17 18  2  0
 18 12  1  0
 18 10  1  0
 19  8  1  0
 20 16  1  0
 21 15  2  0
 21  1  1  0
 22 27  1  0
 23 10  2  0
 24 22  2  0
 25 13  1  0
 26 25  1  0
 27 25  2  0
 27 11  1  0
 28  9  2  0
 29 23  1  0
 30  7  1  0
  1 31  1  0
  2 32  1  0
  3 33  1  0
  4 34  1  0
  5 35  1  0
  5 36  1  0
  7 37  1  0
 11 38  1  0
 16 39  1  0
 16 40  1  0
 17 41  1  0
 19 42  1  0
 20 43  1  0
 21 44  1  0
 23 45  1  0
 24 46  1  0
 26 47  1  0
 28 48  1  0
 30 49  1  0
M  CHG  1  16   1
M  END
>  <mol_id>  (71) 
2026-08-24-6tgu-s0-n100-seed1-0074

>  <rmsd_to_ref>  (71) 


$$$$

     RDKit          3D

 32 33  0  0  0  0  0  0  0  0999 V2000
   -0.4871   18.6682   45.6887 N   0  0  0  0  0  0  0  0  0  0  0  0
    3.4310   17.2651   39.4481 O   0  0  0  0  0  0  0  0  0  0  0  0
    3.2547   21.9213   36.1029 O   0  0  0  0  0  0  0  0  0  0  0  0
    2.6738   20.9786   38.6725 C   0  0  0  0  0  0  0  0  0  0  0  0
   -1.0890   20.5442   43.4448 N   0  0  0  0  0  0  0  0  0  0  0  0
    3.1866   18.4471   39.0779 C   0  0  0  0  0  0  0  0  0  0  0  0
    4.5554   18.4622   37.1494 O   0  0  0  0  0  0  0  0  0  0  0  0
    0.7163   19.6331   41.5361 N   0  0  0  0  0  0  0  0  0  0  0  0
   -1.1477   18.4431   44.7693 C   0  0  0  0  0  0  0  0  0  0  0  0
    2.0646   20.4194   39.6679 C   0  0  0  0  0  0  0  0  0  0  0  0
   -1.9374   17.6915   44.5700 O   0  0  0  0  0  0  0  0  0  0  0  0
   -0.0915   19.4590   41.9698 C   0  0  1  0  0  0  0  0  0  0  0  0
    2.2776   19.0556   39.8005 C   0  0  0  0  0  0  0  0  0  0  0  0
    4.0444   20.9875   36.5818 O   0  0  0  0  0  0  0  0  0  0  0  0
    3.5384   20.4068   37.7781 C   0  0  2  0  0  0  0  0  0  0  0  0
    0.3044   18.1029   42.6775 S   0  0  0  0  0  0  0  0  0  0  0  0
   -0.6878   19.2428   43.4064 C   0  0  1  0  0  0  0  0  0  0  0  0
    1.6344   18.7620   40.7184 C   0  0  0  0  0  0  0  0  0  0  0  0
    3.8317   19.0445   37.9526 C   0  0  0  0  0  0  0  0  0  0  0  0
    0.2004   19.4343   45.6537 H   0  0  0  0  0  0  0  0  0  0  0  0
   -0.5851   18.1029   46.5441 H   0  0  0  0  0  0  0  0  0  0  0  0
    2.7571   22.3457   36.8461 H   0  0  0  0  0  0  0  0  0  0  0  0
    2.4713   22.0499   38.5264 H   0  0  0  0  0  0  0  0  0  0  0  0
   -1.3020   20.8092   44.4171 H   0  0  0  0  0  0  0  0  0  0  0  0
   -0.3363   21.1464   43.0818 H   0  0  0  0  0  0  0  0  0  0  0  0
   -1.9320   20.6609   42.8646 H   0  0  0  0  0  0  0  0  0  0  0  0
    0.4844   20.4061   40.8962 H   0  0  0  0  0  0  0  0  0  0  0  0
    1.3003   19.6502   42.3844 H   0  0  0  0  0  0  0  0  0  0  0  0
    1.4234   20.9856   40.3595 H   0  0  0  0  0  0  0  0  0  0  0  0
   -0.6638   20.0880   41.2721 H   0  0  0  0  0  0  0  0  0  0  0  0
    3.9688   21.3337   38.1849 H   0  0  0  0  0  0  0  0  0  0  0  0
    1.7030   17.7105   41.0338 H   0  0  0  0  0  0  0  0  0  0  0  0
  3 14  1  0
  4 10  2  0
  6  2  2  0
  6 13  1  0
  7 19  2  0
  9  1  1  0
 10 13  1  0
 11  9  2  0
 12  8  1  0
 12 16  1  0
 12 17  1  0
 13 18  2  3
 15 14  1  0
 15 19  1  0
 15  4  1  0
 16 17  1  0
 17  5  1  1
 17  9  1  0
 18  8  1  0
 19  6  1  0
  1 20  1  0
  1 21  1  0
  3 22  1  0
  4 23  1  0
  5 24  1  0
  5 25  1  0
  5 26  1  0
  8 27  1  0
  8 28  1  0
 10 29  1  0
 12 30  1  6
 15 31  1  1
 18 32  1  0
M  CHG  2   5   1   8   1
M  END
>  <mol_id>  (72) 
2026-08-24-6tgu-s0-n100-seed1-0075

>  <rmsd_to_ref>  (72) 


$$$$

     RDKit          3D

 28 29  0  0  0  0  0  0  0  0999 V2000
    1.3179   18.2311   40.3330 C   0  0  2  0  0  0  0  0  0  0  0  0
    3.0698   20.3743   35.2461 O   0  0  0  0  0  0  0  0  0  0  0  0
   -0.1250   15.9887   42.7201 N   0  0  0  0  0  0  0  0  0  0  0  0
    0.5440   16.2476   41.4958 C   0  0  0  0  0  0  0  0  0  0  0  0
   -1.1892   17.0218   44.4556 N   0  0  0  0  0  0  0  0  0  0  0  0
    2.0773   18.4925   39.3603 N   0  0  0  0  0  0  0  0  0  0  0  0
   -0.5068   17.0239   43.3792 C   0  0  0  0  0  0  0  0  0  0  0  0
    2.2968   20.1780   36.2429 C   0  0  0  0  0  0  0  0  0  0  0  0
    1.1812   20.6302   36.4023 O   0  0  0  0  0  0  0  0  0  0  0  0
    2.3602   19.7120   38.7295 C   0  0  0  0  0  0  0  0  0  0  0  0
    2.4479   17.3510   38.5498 C   0  0  0  0  0  0  0  0  0  0  0  0
    0.7011   17.5899   41.3396 C   0  0  0  0  0  0  0  0  0  0  0  0
    2.9191   17.8029   37.1628 C   0  0  0  0  0  0  0  0  0  0  0  0
    0.0574   18.4119   42.6127 S   0  0  0  0  0  0  0  0  0  0  0  0
    2.9223   19.3172   37.3521 C   0  0  1  0  0  0  0  0  0  0  0  0
    0.9988   19.7593   40.1282 C   0  0  0  0  0  0  0  0  0  0  0  0
    2.1457   18.4943   41.0079 H   0  0  0  0  0  0  0  0  0  0  0  0
    0.8832   15.4814   40.7831 H   0  0  0  0  0  0  0  0  0  0  0  0
   -1.4436   17.9126   44.9058 H   0  0  0  0  0  0  0  0  0  0  0  0
   -1.4863   16.1293   44.8753 H   0  0  0  0  0  0  0  0  0  0  0  0
    1.4454   20.3125   38.6177 H   0  0  0  0  0  0  0  0  0  0  0  0
    3.0668   20.3258   39.3074 H   0  0  0  0  0  0  0  0  0  0  0  0
    2.3982   16.3040   38.8835 H   0  0  0  0  0  0  0  0  0  0  0  0
    3.1814   17.2035   36.2786 H   0  0  0  0  0  0  0  0  0  0  0  0
    3.9929   19.5603   37.2840 H   0  0  0  0  0  0  0  0  0  0  0  0
    0.9769   20.2635   41.1055 H   0  0  0  0  0  0  0  0  0  0  0  0
    1.7766   20.2150   39.4978 H   0  0  0  0  0  0  0  0  0  0  0  0
    0.0199   19.8670   39.6380 H   0  0  0  0  0  0  0  0  0  0  0  0
  1 16  1  0
  1 12  1  0
  2  8  2  0
  3  7  2  0
  4  3  1  0
  6  1  1  0
  7  5  1  0
  8  9  1  0
 10  6  1  0
 11  6  1  0
 12  4  2  0
 12 14  1  0
 13 15  1  0
 13 11  2  0
 14  7  1  0
 15  8  1  0
 15 10  1  0
  1 17  1  1
  4 18  1  0
  5 19  1  0
  5 20  1  0
 10 21  1  0
 10 22  1  0
 11 23  1  0
 13 24  1  0
 15 25  1  1
 16 26  1  0
 16 27  1  0
 16 28  1  0
M  CHG  1   9  -1
M  END
>  <mol_id>  (73) 
2026-08-24-6tgu-s0-n100-seed1-0076

>  <rmsd_to_ref>  (73) 


$$$$

     RDKit          3D

 48 51  0  0  0  0  0  0  0  0999 V2000
    2.5174   14.8772   41.4087 C   0  0  0  0  0  0  0  0  0  0  0  0
   -1.1819   20.9869   43.4071 O   0  0  0  0  0  0  0  0  0  0  0  0
    2.4769   19.3412   37.6705 C   0  0  0  0  0  0  0  0  0  0  0  0
    1.4110   19.1286   41.0775 C   0  0  0  0  0  0  0  0  0  0  0  0
   -0.6298   19.9591   43.1021 C   0  0  0  0  0  0  0  0  0  0  0  0
    4.1590   13.0972   38.0895 O   0  0  0  0  0  0  0  0  0  0  0  0
    2.4780   18.9414   38.8562 N   0  0  0  0  0  0  0  0  0  0  0  0
    1.8827   19.6900   39.9560 C   0  0  0  0  0  0  0  0  0  0  0  0
    2.8371   13.5552   41.4985 C   0  0  0  0  0  0  0  0  0  0  0  0
    2.7949   15.6544   40.2207 C   0  0  0  0  0  0  0  0  0  0  0  0
    3.6202   13.6173   39.2161 C   0  0  0  0  0  0  0  0  0  0  0  0
    2.8443   17.5731   38.8755 C   0  0  0  0  0  0  0  0  0  0  0  0
    0.9697   16.2515   42.6986 N   0  0  0  0  0  0  0  0  0  0  0  0
    2.0778   21.1067   36.3466 O   0  0  0  0  0  0  0  0  0  0  0  0
    3.2610   16.8067   37.7626 C   0  0  0  0  0  0  0  0  0  0  0  0
    0.4856   21.3089   41.5608 C   0  0  0  0  0  0  0  0  0  0  0  0
    3.5930   15.5362   37.9313 N   0  0  0  0  0  0  0  0  0  0  0  0
    0.4157   19.9189   41.9069 C   0  0  0  0  0  0  0  0  0  0  0  0
    1.7908   15.4899   42.3180 N   0  0  0  0  0  0  0  0  0  0  0  0
    2.9599   20.0927   36.6485 C   0  0  0  0  0  0  0  0  0  0  0  0
    4.0308   20.6939   34.7226 O   0  0  0  0  0  0  0  0  0  0  0  0
   -1.0226   18.7880   43.9030 N   0  0  0  0  0  0  0  0  0  0  0  0
    4.0564   19.8726   35.8689 N   0  0  0  0  0  0  0  0  0  0  0  0
    0.8871   21.7623   40.4472 N   0  0  0  0  0  0  0  0  0  0  0  0
    3.4176   12.8631   40.3653 C   0  0  0  0  0  0  0  0  0  0  0  0
    3.3081   14.9763   39.1521 C   0  0  0  0  0  0  0  0  0  0  0  0
   -0.8588   16.3667   44.4826 C   0  0  0  0  0  0  0  0  0  0  0  0
    2.6497   16.9911   40.1283 N   0  0  0  0  0  0  0  0  0  0  0  0
    0.4915   17.5129   42.8817 N   0  0  0  0  0  0  0  0  0  0  0  0
    1.5790   20.9969   39.6246 C   0  0  0  0  0  0  0  0  0  0  0  0
   -0.4945   17.6064   43.7738 C   0  0  0  0  0  0  0  0  0  0  0  0
    2.5536   18.3587   37.1820 H   0  0  0  0  0  0  0  0  0  0  0  0
    1.9076   20.2215   38.0037 H   0  0  0  0  0  0  0  0  0  0  0  0
    1.7356   18.1245   41.3879 H   0  0  0  0  0  0  0  0  0  0  0  0
    4.4076   12.1395   38.0561 H   0  0  0  0  0  0  0  0  0  0  0  0
    2.6535   13.0106   42.4364 H   0  0  0  0  0  0  0  0  0  0  0  0
    0.2373   15.6477   43.0985 H   0  0  0  0  0  0  0  0  0  0  0  0
    3.3090   17.2633   36.7629 H   0  0  0  0  0  0  0  0  0  0  0  0
    0.1661   22.0378   42.3203 H   0  0  0  0  0  0  0  0  0  0  0  0
    2.1271   15.0671   43.1949 H   0  0  0  0  0  0  0  0  0  0  0  0
    4.0104   21.6445   34.9981 H   0  0  0  0  0  0  0  0  0  0  0  0
    4.8028   19.1975   36.0876 H   0  0  0  0  0  0  0  0  0  0  0  0
    3.6836   11.7969   40.4124 H   0  0  0  0  0  0  0  0  0  0  0  0
   -0.8233   16.5411   45.5682 H   0  0  0  0  0  0  0  0  0  0  0  0
   -1.8759   16.0640   44.1929 H   0  0  0  0  0  0  0  0  0  0  0  0
   -0.1491   15.5698   44.2159 H   0  0  0  0  0  0  0  0  0  0  0  0
    0.8613   18.3283   42.3726 H   0  0  0  0  0  0  0  0  0  0  0  0
    1.9190   21.4050   38.6614 H   0  0  0  0  0  0  0  0  0  0  0  0
  1  9  2  0
  1 19  1  0
  3  7  1  0
  4 18  2  0
  5  2  2  0
  5 22  1  0
  6 11  1  0
  7  8  1  0
  8  4  1  0
 10  1  1  0
 11 26  1  0
 11 25  2  0
 12  7  1  0
 12 28  2  0
 13 29  1  0
 14 20  2  0
 15 17  2  0
 15 12  1  0
 16 18  1  0
 17 26  1  0
 18  5  1  0
 19 13  1  0
 20  3  1  0
 21 23  1  0
 23 20  1  0
 24 16  2  0
 25  9  1  0
 26 10  2  0
 28 10  1  0
 29 31  1  0
 30  8  2  0
 30 24  1  0
 31 22  2  0
 31 27  1  0
  3 32  1  0
  3 33  1  0
  4 34  1  0
  6 35  1  0
  9 36  1  0
 13 37  1  0
 15 38  1  0
 16 39  1  0
 19 40  1  0
 21 41  1  0
 23 42  1  0
 25 43  1  0
 27 44  1  0
 27 45  1  0
 27 46  1  0
 29 47  1  0
 30 48  1  0
M  END
>  <mol_id>  (74) 
2026-08-24-6tgu-s0-n100-seed1-0077

>  <rmsd_to_ref>  (74) 


$$$$

     RDKit          3D

 37 42  0  0  0  0  0  0  0  0999 V2000
    2.6264   18.3284   38.2982 C   0  0  0  0  0  0  0  0  0  0  0  0
    0.2633   19.6558   41.7890 C   0  0  0  0  0  0  0  0  0  0  0  0
    0.6506   18.3388   41.8896 C   0  0  0  0  0  0  0  0  0  0  0  0
    0.7612   20.2260   40.7096 O   0  0  0  0  0  0  0  0  0  0  0  0
    0.5710   16.1751   42.9676 C   0  0  0  0  0  0  0  0  0  0  0  0
    3.8944   16.9217   37.0090 C   0  0  0  0  0  0  0  0  0  0  0  0
    3.0106   20.8077   35.8933 O   0  0  0  0  0  0  0  0  0  0  0  0
    3.0562   18.7721   37.0854 C   0  0  0  0  0  0  0  0  0  0  0  0
    1.7720   20.3559   37.9602 C   0  0  0  0  0  0  0  0  0  0  0  0
   -1.2038   19.3801   43.7112 N   0  0  0  0  0  0  0  0  0  0  0  0
    1.7147   14.0717   42.3609 C   0  0  0  0  0  0  0  0  0  0  0  0
    3.2087   16.9797   38.2591 C   0  0  0  0  0  0  0  0  0  0  0  0
    1.4046   15.4252   42.1461 C   0  0  0  0  0  0  0  0  0  0  0  0
    1.0656   13.3938   43.4320 C   0  0  0  0  0  0  0  0  0  0  0  0
    0.1820   14.1437   44.1824 C   0  0  0  0  0  0  0  0  0  0  0  0
   -0.0452   15.4215   44.0566 C   0  0  0  0  0  0  0  0  0  0  0  0
   -0.6189   18.0865   43.7928 C   0  0  0  0  0  0  0  0  0  0  0  0
    1.5480   18.1833   40.8119 C   0  0  0  0  0  0  0  0  0  0  0  0
    1.5030   19.2659   40.0985 C   0  0  0  0  0  0  0  0  0  0  0  0
    2.1115   15.8959   40.9403 N   0  0  0  0  0  0  0  0  0  0  0  0
    3.8625   18.0102   36.3626 N   0  0  0  0  0  0  0  0  0  0  0  0
   -0.7116   20.1453   42.6984 C   0  0  0  0  0  0  0  0  0  0  0  0
    0.2227   17.5192   42.8441 C   0  0  0  0  0  0  0  0  0  0  0  0
    2.1413   17.0866   40.5364 N   0  0  0  0  0  0  0  0  0  0  0  0
    1.9334   19.3050   38.8743 N   0  0  0  0  0  0  0  0  0  0  0  0
    2.6022   20.1124   36.8417 C   0  0  0  0  0  0  0  0  0  0  0  0
    4.4023   16.0176   36.6418 H   0  0  0  0  0  0  0  0  0  0  0  0
    0.7217   20.4086   37.6378 H   0  0  0  0  0  0  0  0  0  0  0  0
    2.0481   21.3104   38.4324 H   0  0  0  0  0  0  0  0  0  0  0  0
    2.4395   13.5497   41.7189 H   0  0  0  0  0  0  0  0  0  0  0  0
    3.9099   16.8347   39.0941 H   0  0  0  0  0  0  0  0  0  0  0  0
    2.4464   16.1924   38.3545 H   0  0  0  0  0  0  0  0  0  0  0  0
    1.2574   12.3327   43.6492 H   0  0  0  0  0  0  0  0  0  0  0  0
   -0.3848   13.6123   44.9611 H   0  0  0  0  0  0  0  0  0  0  0  0
   -0.7035   15.9341   44.7735 H   0  0  0  0  0  0  0  0  0  0  0  0
   -0.8527   17.4837   44.6828 H   0  0  0  0  0  0  0  0  0  0  0  0
   -1.0805   21.1749   42.5808 H   0  0  0  0  0  0  0  0  0  0  0  0
  1 12  1  0
  1 25  1  0
  2  3  1  0
  2 22  2  0
  3 23  2  0
  4  2  1  0
  5 16  2  0
  6 12  1  0
  7 26  2  0
  8  1  2  0
  9 25  1  0
 10 17  2  0
 11 14  1  0
 13 11  2  0
 13  5  1  0
 14 15  2  0
 16 15  1  0
 18  3  1  0
 19  4  1  0
 19 18  2  0
 20 13  1  0
 21  8  1  0
 21  6  2  0
 22 10  1  0
 23  5  1  0
 23 17  1  0
 24 18  1  0
 24 20  2  0
 25 19  1  0
 26  8  1  0
 26  9  1  0
  6 27  1  0
  9 28  1  0
  9 29  1  0
 11 30  1  0
 12 31  1  0
 12 32  1  0
 14 33  1  0
 15 34  1  0
 16 35  1  0
 17 36  1  0
 22 37  1  0
M  END
>  <mol_id>  (75) 
2026-08-24-6tgu-s0-n100-seed1-0078

>  <rmsd_to_ref>  (75) 


$$$$

     RDKit          3D

 39 40  0  0  0  0  0  0  0  0999 V2000
    0.4852   15.9689   42.6750 C   0  0  0  0  0  0  0  0  0  0  0  0
    5.1662   15.9533   35.8281 O   0  0  0  0  0  0  0  0  0  0  0  0
    1.4312   18.0012   40.9746 C   0  0  0  0  0  0  0  0  0  0  0  0
   -0.8130   20.3374   41.8563 C   0  0  0  0  0  0  0  0  0  0  0  0
    1.6789   16.6752   40.6743 C   0  0  0  0  0  0  0  0  0  0  0  0
    0.3496   19.6975   42.2888 O   0  0  0  0  0  0  0  0  0  0  0  0
   -0.7291   15.3839   44.6417 C   0  0  0  0  0  0  0  0  0  0  0  0
    3.9834   19.4942   37.9751 C   0  0  0  0  0  0  0  0  0  0  0  0
    4.2763   15.9276   36.8133 C   0  0  0  0  0  0  0  0  0  0  0  0
    3.6432   20.8172   36.0841 O   0  0  0  0  0  0  0  0  0  0  0  0
    1.1807   15.6383   41.5710 C   0  0  0  0  0  0  0  0  0  0  0  0
   -0.8563   16.6650   45.0602 N   0  0  0  0  0  0  0  0  0  0  0  0
    3.1183   17.2991   38.4207 C   0  0  0  0  0  0  0  0  0  0  0  0
    3.7269   17.1233   37.2012 C   0  0  0  0  0  0  0  0  0  0  0  0
    3.7217   14.8847   37.2050 O   0  0  0  0  0  0  0  0  0  0  0  0
    0.6351   18.2845   42.0889 C   0  0  0  0  0  0  0  0  0  0  0  0
   -0.4500   18.8554   44.6989 O   0  0  0  0  0  0  0  0  0  0  0  0
    3.2388   20.5018   37.2651 C   0  0  0  0  0  0  0  0  0  0  0  0
    0.2895   17.3882   43.0102 C   0  0  0  0  0  0  0  0  0  0  0  0
   -0.3643   17.7114   44.3056 C   0  0  0  0  0  0  0  0  0  0  0  0
    2.9375   18.6980   38.7000 N   0  0  0  0  0  0  0  0  0  0  0  0
    2.5364   16.2973   39.4623 C   0  0  0  0  0  0  0  0  0  0  0  0
    2.1687   21.0478   37.7912 O   0  0  0  0  0  0  0  0  0  0  0  0
   -0.0682   15.0242   43.4626 C   0  0  0  0  0  0  0  0  0  0  0  0
    1.8478   18.8095   40.3557 H   0  0  0  0  0  0  0  0  0  0  0  0
   -1.4709   20.5243   42.7179 H   0  0  0  0  0  0  0  0  0  0  0  0
   -0.5500   21.2942   41.3815 H   0  0  0  0  0  0  0  0  0  0  0  0
   -1.3345   19.6982   41.1286 H   0  0  0  0  0  0  0  0  0  0  0  0
   -1.1673   14.5863   45.2596 H   0  0  0  0  0  0  0  0  0  0  0  0
    4.6832   19.9566   38.6868 H   0  0  0  0  0  0  0  0  0  0  0  0
    4.5928   18.8720   37.3032 H   0  0  0  0  0  0  0  0  0  0  0  0
    1.3744   14.5797   41.3436 H   0  0  0  0  0  0  0  0  0  0  0  0
   -1.3271   16.8620   45.9549 H   0  0  0  0  0  0  0  0  0  0  0  0
    4.5416   17.8611   37.1581 H   0  0  0  0  0  0  0  0  0  0  0  0
    2.8748   17.2121   36.5113 H   0  0  0  0  0  0  0  0  0  0  0  0
    3.0247   18.8595   39.7136 H   0  0  0  0  0  0  0  0  0  0  0  0
    2.0024   18.9925   38.3838 H   0  0  0  0  0  0  0  0  0  0  0  0
    2.7597   15.2303   39.3153 H   0  0  0  0  0  0  0  0  0  0  0  0
    0.0006   13.9645   43.1760 H   0  0  0  0  0  0  0  0  0  0  0  0
  1 19  1  0
  1 24  1  0
  2  9  2  0
  3 16  1  0
  4  6  1  0
  5  3  2  0
  5 11  1  0
  6 16  1  0
  7 12  1  0
  8 21  1  0
  9 14  1  0
  9 15  1  0
 10 18  2  0
 11  1  2  0
 13 21  1  0
 13 22  2  3
 14 13  1  0
 16 19  2  0
 18 23  1  0
 18  8  1  0
 19 20  1  0
 20 17  2  0
 20 12  1  0
 22  5  1  0
 24  7  2  0
  3 25  1  0
  4 26  1  0
  4 27  1  0
  4 28  1  0
  7 29  1  0
  8 30  1  0
  8 31  1  0
 11 32  1  0
 12 33  1  0
 14 34  1  0
 14 35  1  0
 21 36  1  0
 21 37  1  0
 22 38  1  0
 24 39  1  0
M  CHG  3  15  -1  21   1  23  -1
M  END
>  <mol_id>  (76) 
2026-08-24-6tgu-s0-n100-seed1-0080

>  <rmsd_to_ref>  (76) 


$$$$

     RDKit          3D

 41 45  0  0  0  0  0  0  0  0999 V2000
    0.7522   21.1477   40.9053 O   0  0  0  0  0  0  0  0  0  0  0  0
   -0.8762   18.5111   44.1805 N   0  0  0  0  0  0  0  0  0  0  0  0
    1.4316   20.1554   40.5831 C   0  0  0  0  0  0  0  0  0  0  0  0
    1.1703   18.7280   41.0085 C   0  0  0  0  0  0  0  0  0  0  0  0
    0.7992   14.7006   41.6941 C   0  0  0  0  0  0  0  0  0  0  0  0
    2.9600   13.3881   39.0896 C   0  0  0  0  0  0  0  0  0  0  0  0
   -0.8176   17.2031   44.3503 C   0  0  0  0  0  0  0  0  0  0  0  0
    2.9167   14.7142   38.9530 N   0  0  0  0  0  0  0  0  0  0  0  0
   -0.1828   20.4535   43.1345 N   0  0  0  0  0  0  0  0  0  0  0  0
    0.4297   18.2906   42.2318 C   0  0  0  0  0  0  0  0  0  0  0  0
    3.5996   21.5394   35.6152 C   0  0  0  0  0  0  0  0  0  0  0  0
    3.1290   22.4811   35.2563 O   0  0  0  0  0  0  0  0  0  0  0  0
   -0.2193   19.1238   43.1425 C   0  0  0  0  0  0  0  0  0  0  0  0
    2.0174   12.9498   40.0685 C   0  0  0  0  0  0  0  0  0  0  0  0
    0.3280   16.9468   42.4151 C   0  0  0  0  0  0  0  0  0  0  0  0
    3.6276   19.4892   36.8786 N   0  0  0  0  0  0  0  0  0  0  0  0
   -0.2924   16.3912   43.4315 C   0  0  0  0  0  0  0  0  0  0  0  0
    2.5205   21.1790   37.7154 C   0  0  0  0  0  0  0  0  0  0  0  0
    2.1481   15.2077   39.9781 C   0  0  0  0  0  0  0  0  0  0  0  0
    2.5772   20.3766   39.9378 N   0  0  0  0  0  0  0  0  0  0  0  0
    2.5678   20.1442   38.6024 C   0  0  0  0  0  0  0  0  0  0  0  0
    1.5980   16.3918   40.5082 C   0  0  0  0  0  0  0  0  0  0  0  0
   -1.5086   16.5786   45.5442 N   0  0  0  0  0  0  0  0  0  0  0  0
    0.9054   16.0239   41.6105 C   0  0  0  0  0  0  0  0  0  0  0  0
    1.6588   17.7194   40.2337 C   0  0  0  0  0  0  0  0  0  0  0  0
    1.5170   14.1289   40.6793 C   0  0  0  0  0  0  0  0  0  0  0  0
    3.1778   19.0896   38.0302 C   0  0  0  0  0  0  0  0  0  0  0  0
    3.2068   20.8164   36.6919 N   0  0  0  0  0  0  0  0  0  0  0  0
    0.2259   14.1536   42.4570 H   0  0  0  0  0  0  0  0  0  0  0  0
    3.6301   12.7231   38.5252 H   0  0  0  0  0  0  0  0  0  0  0  0
   -0.6959   20.9871   43.8507 H   0  0  0  0  0  0  0  0  0  0  0  0
    0.3584   20.9495   42.4121 H   0  0  0  0  0  0  0  0  0  0  0  0
    4.4610   21.1612   35.0453 H   0  0  0  0  0  0  0  0  0  0  0  0
    1.7369   11.9119   40.3012 H   0  0  0  0  0  0  0  0  0  0  0  0
   -0.3754   15.2981   43.5214 H   0  0  0  0  0  0  0  0  0  0  0  0
    1.9969   22.1370   37.8500 H   0  0  0  0  0  0  0  0  0  0  0  0
    3.4220   20.7057   40.4266 H   0  0  0  0  0  0  0  0  0  0  0  0
   -1.4697   15.5592   45.6868 H   0  0  0  0  0  0  0  0  0  0  0  0
   -2.0176   17.1732   46.2137 H   0  0  0  0  0  0  0  0  0  0  0  0
    2.1505   18.0096   39.2935 H   0  0  0  0  0  0  0  0  0  0  0  0
    3.2767   18.0805   38.4568 H   0  0  0  0  0  0  0  0  0  0  0  0
  2  7  2  0
  3  1  2  0
  3  4  1  0
  4 10  1  0
  6 14  2  0
  7 23  1  0
  8  6  1  0
  8 19  2  0
  9 13  1  0
 10 15  1  0
 10 13  2  0
 11 28  1  0
 12 11  2  0
 13  2  1  0
 14 26  1  0
 15 17  2  0
 16 27  2  0
 17  7  1  0
 18 21  2  0
 19 22  1  0
 19 26  1  0
 20  3  1  0
 21 20  1  0
 22 24  2  0
 24  5  1  0
 24 15  1  0
 25  4  2  0
 25 22  1  0
 26  5  2  0
 27 21  1  0
 28 16  1  0
 28 18  1  0
  5 29  1  0
  6 30  1  0
  9 31  1  0
  9 32  1  0
 11 33  1  0
 14 34  1  0
 17 35  1  0
 18 36  1  0
 20 37  1  0
 23 38  1  0
 23 39  1  0
 25 40  1  0
 27 41  1  0
M  END
>  <mol_id>  (77) 
2026-08-24-6tgu-s0-n100-seed1-0081

>  <rmsd_to_ref>  (77) 


$$$$

     RDKit          3D

108112  0  0  0  0  0  0  0  0999 V2000
    0.7960   19.9660   44.9140 O   0  0  0  0  0  0  0  0  0  0  0  0
    6.4970   13.5660   36.3860 C   0  0  0  0  0  0  0  0  0  0  0  0
    3.4150   12.3130   35.6590 C   0  0  0  0  0  0  0  0  0  0  0  0
    2.9290   18.5920   38.0080 C   0  0  2  0  0  0  0  0  0  0  0  0
   -0.0500   16.6580   48.7690 C   0  0  0  0  0  0  0  0  0  0  0  0
    2.7250   20.0870   38.2820 C   0  0  1  0  0  0  0  0  0  0  0  0
    2.4510   21.0280   37.1140 O   0  0  0  0  0  0  0  0  0  0  0  0
    3.4340   12.2410   39.5440 C   0  0  0  0  0  0  0  0  0  0  0  0
   -1.4060   16.4440   48.8300 C   0  0  0  0  0  0  0  0  0  0  0  0
   -2.0610   17.5770   46.6620 C   0  0  0  0  0  0  0  0  0  0  0  0
    0.2610   17.9510   46.8410 C   0  0  0  0  0  0  0  0  0  0  0  0
   -1.4670   20.9220   42.7730 O   0  0  0  0  0  0  0  0  0  0  0  0
   -0.9510   18.7690   44.8050 C   0  0  0  0  0  0  0  0  0  0  0  0
    4.0810   13.4940   36.0740 C   0  0  2  0  0  0  0  0  0  0  0  0
   -2.1930   16.8640   47.8490 C   0  0  0  0  0  0  0  0  0  0  0  0
   -5.6700   22.1960   41.8780 C   0  0  0  0  0  0  0  0  0  0  0  0
   -6.9770   22.7950   42.3150 C   0  0  0  0  0  0  0  0  0  0  0  0
    5.3600   13.9020   35.4070 C   0  0  2  0  0  0  0  0  0  0  0  0
   -4.0130   23.0460   43.3170 C   0  0  1  0  0  0  0  0  0  0  0  0
    7.6940   13.7570   34.4420 O   0  0  0  0  0  0  0  0  0  0  0  0
    2.6210   14.3520   40.9250 C   0  0  0  0  0  0  0  0  0  0  0  0
    1.6840   20.2950   39.2140 C   0  0  2  0  0  0  0  0  0  0  0  0
    3.6050   13.4950   40.1790 O   0  0  0  0  0  0  0  0  0  0  0  0
   -5.0210   23.9890   43.6380 C   0  0  2  0  0  0  0  0  0  0  0  0
   -4.2160   25.1700   44.1430 C   0  0  0  0  0  0  0  0  0  0  0  0
    1.4400   15.9200   41.9580 C   0  0  0  0  0  0  0  0  0  0  0  0
    0.5440   20.3800   41.5840 C   0  0  1  0  0  0  0  0  0  0  0  0
    3.3330   21.0680   36.2510 C   0  0  0  0  0  0  0  0  0  0  0  0
    2.2710   13.7270   42.0560 N   0  0  0  0  0  0  0  0  0  0  0  0
    4.1360   12.1860   38.2280 C   0  0  0  0  0  0  0  0  0  0  0  0
    6.3710   13.1130   34.8740 C   0  0  1  0  0  0  0  0  0  0  0  0
    2.4490   16.6470   39.5670 C   0  0  0  0  0  0  0  0  0  0  0  0
    3.2140   14.6610   37.8290 C   0  0  0  0  0  0  0  0  0  0  0  0
   -0.9070   18.1010   46.1710 C   0  0  0  0  0  0  0  0  0  0  0  0
    1.4960   14.6520   42.6480 C   0  0  0  0  0  0  0  0  0  0  0  0
    1.1030   18.9520   41.3540 C   0  0  0  0  0  0  0  0  0  0  0  0
   -4.6950   21.8840   42.8990 C   0  0  0  0  0  0  0  0  0  0  0  0
    0.6510   17.4260   47.9140 C   0  0  0  0  0  0  0  0  0  0  0  0
    0.2650   20.8660   39.0550 C   0  0  0  0  0  0  0  0  0  0  0  0
   -0.2910   20.6910   40.4360 O   0  0  0  0  0  0  0  0  0  0  0  0
   -7.3440   23.9450   41.9410 O   0  0  0  0  0  0  0  0  0  0  0  0
    2.3430   21.5470   39.6270 F   0  0  0  0  0  0  0  0  0  0  0  0
   -0.1180   20.5520   42.9610 C   0  0  2  0  0  0  0  0  0  0  0  0
    2.4420   18.1480   36.8280 F   0  0  0  0  0  0  0  0  0  0  0  0
   -7.7520   21.9990   42.8950 O   0  0  0  0  0  0  0  0  0  0  0  0
   -3.0540   23.4810   42.6760 F   0  0  0  0  0  0  0  0  0  0  0  0
    2.0960   15.7210   40.7260 C   0  0  1  0  0  0  0  0  0  0  0  0
    4.1750   13.5040   37.5220 C   0  0  2  0  0  0  0  0  0  0  0  0
    2.2460   18.0150   39.2510 C   0  0  0  0  0  0  0  0  0  0  0  0
    3.3460   16.0160   38.5600 C   0  0  0  0  0  0  0  0  0  0  0  0
    4.1870   21.2860   35.7360 O   0  0  0  0  0  0  0  0  0  0  0  0
    3.9730   20.3860   39.2100 F   0  0  0  0  0  0  0  0  0  0  0  0
    3.8080   20.1920   35.5110 O   0  0  0  0  0  0  0  0  0  0  0  0
   -5.7110   23.4340   44.6590 O   0  0  0  0  0  0  0  0  0  0  0  0
    1.5360   18.9210   39.9620 C   0  0  2  0  0  0  0  0  0  0  0  0
    4.7040   21.0720   38.4870 F   0  0  0  0  0  0  0  0  0  0  0  0
   -0.0800   19.6420   44.2570 C   0  0  0  0  0  0  0  0  0  0  0  0
    7.2280   14.3288   36.6922 H   0  0  0  0  0  0  0  0  0  0  0  0
    6.6132   13.0954   37.3734 H   0  0  0  0  0  0  0  0  0  0  0  0
    3.0937   11.7432   36.5434 H   0  0  0  0  0  0  0  0  0  0  0  0
    2.5350   12.5810   35.0558 H   0  0  0  0  0  0  0  0  0  0  0  0
    4.0996   11.6986   35.0558 H   0  0  0  0  0  0  0  0  0  0  0  0
    3.9788   18.2908   37.8768 H   0  0  0  0  0  0  0  0  0  0  0  0
    0.5467   16.1270   49.5253 H   0  0  0  0  0  0  0  0  0  0  0  0
    3.7273   20.3562   38.6465 H   0  0  0  0  0  0  0  0  0  0  0  0
    3.8385   11.4533   40.1966 H   0  0  0  0  0  0  0  0  0  0  0  0
    2.3590   12.0923   39.3646 H   0  0  0  0  0  0  0  0  0  0  0  0
   -1.5515   15.3565   48.9088 H   0  0  0  0  0  0  0  0  0  0  0  0
   -1.7188   17.0626   49.6841 H   0  0  0  0  0  0  0  0  0  0  0  0
   -2.9732   17.7307   46.0668 H   0  0  0  0  0  0  0  0  0  0  0  0
    1.0963   18.4159   46.2969 H   0  0  0  0  0  0  0  0  0  0  0  0
   -1.9023   21.0414   43.6541 H   0  0  0  0  0  0  0  0  0  0  0  0
   -0.9833   17.9317   44.0924 H   0  0  0  0  0  0  0  0  0  0  0  0
   -1.7721   19.4735   45.0035 H   0  0  0  0  0  0  0  0  0  0  0  0
    3.4309   14.2971   35.6966 H   0  0  0  0  0  0  0  0  0  0  0  0
   -3.2380   16.5667   48.0213 H   0  0  0  0  0  0  0  0  0  0  0  0
   -5.8995   21.2604   41.3470 H   0  0  0  0  0  0  0  0  0  0  0  0
   -5.1945   22.9819   41.2727 H   0  0  0  0  0  0  0  0  0  0  0  0
    4.8805   14.7286   34.8622 H   0  0  0  0  0  0  0  0  0  0  0  0
   -3.4000   22.7598   44.1844 H   0  0  0  0  0  0  0  0  0  0  0  0
    8.2151   14.0107   35.2446 H   0  0  0  0  0  0  0  0  0  0  0  0
   -5.7095   24.2684   42.8269 H   0  0  0  0  0  0  0  0  0  0  0  0
   -4.2159   25.1702   45.2430 H   0  0  0  0  0  0  0  0  0  0  0  0
   -3.1818   25.0926   43.7762 H   0  0  0  0  0  0  0  0  0  0  0  0
   -4.6661   26.1043   43.7762 H   0  0  0  0  0  0  0  0  0  0  0  0
    0.9794   16.8510   42.3201 H   0  0  0  0  0  0  0  0  0  0  0  0
    1.3514   21.1252   41.6375 H   0  0  0  0  0  0  0  0  0  0  0  0
    2.6651   21.7620   36.7824 H   0  0  0  0  0  0  0  0  0  0  0  0
    5.1697   11.8502   38.3976 H   0  0  0  0  0  0  0  0  0  0  0  0
    3.5736   11.4904   37.5879 H   0  0  0  0  0  0  0  0  0  0  0  0
    6.2298   12.2734   34.1775 H   0  0  0  0  0  0  0  0  0  0  0  0
    2.4002   14.1646   38.3779 H   0  0  0  0  0  0  0  0  0  0  0  0
    3.2512   15.0910   36.8172 H   0  0  0  0  0  0  0  0  0  0  0  0
    0.9486   14.4591   43.5824 H   0  0  0  0  0  0  0  0  0  0  0  0
    1.9530   18.7595   42.0251 H   0  0  0  0  0  0  0  0  0  0  0  0
    0.3476   18.1802   41.5630 H   0  0  0  0  0  0  0  0  0  0  0  0
   -5.2089   21.4378   43.7632 H   0  0  0  0  0  0  0  0  0  0  0  0
   -3.9622   21.1783   42.4807 H   0  0  0  0  0  0  0  0  0  0  0  0
    1.6984   17.6184   48.1897 H   0  0  0  0  0  0  0  0  0  0  0  0
    0.2901   21.9267   38.7645 H   0  0  0  0  0  0  0  0  0  0  0  0
   -0.3282   20.3744   38.2698 H   0  0  0  0  0  0  0  0  0  0  0  0
    0.6815   21.2287   43.2970 H   0  0  0  0  0  0  0  0  0  0  0  0
    1.6901   16.3141   39.8932 H   0  0  0  0  0  0  0  0  0  0  0  0
    5.1621   13.6890   37.9707 H   0  0  0  0  0  0  0  0  0  0  0  0
    4.3199   15.9544   39.0677 H   0  0  0  0  0  0  0  0  0  0  0  0
    3.0935   16.6669   37.7099 H   0  0  0  0  0  0  0  0  0  0  0  0
   -5.3300   23.7404   45.5199 H   0  0  0  0  0  0  0  0  0  0  0  0
    0.6419   18.2935   40.0922 H   0  0  0  0  0  0  0  0  0  0  0  0
  4 44  1  0
  4  6  1  0
  4 49  1  0
  5  9  1  0
  6  7  1  0
  6 22  1  0
  8 23  1  0
 10 15  2  0
 11 38  1  0
 13 34  1  0
 14  3  1  0
 15  9  1  0
 16 17  1  0
 16 37  1  0
 17 45  1  0
 18 14  1  0
 18  2  1  0
 19 46  1  0
 19 24  1  0
 21 29  2  0
 22 42  1  1
 22 55  1  0
 23 21  1  0
 24 25  1  0
 24 54  1  0
 26 35  2  0
 27 43  1  0
 28  7  1  0
 29 35  1  0
 30  8  1  0
 31 20  1  0
 31 18  1  0
 31  2  1  0
 32 47  1  0
 33 50  1  0
 34 10  1  0
 34 11  2  0
 36 27  1  0
 37 19  1  0
 38  5  2  0
 39 22  1  0
 39 40  1  0
 40 27  1  0
 41 17  2  0
 43 12  1  0
 43 57  1  0
 47 21  1  0
 47 26  1  0
 48 14  1  0
 48 33  1  0
 48 30  1  0
 49 32  2  3
 49 55  1  0
 50 32  1  0
 51 28  1  0
 53 51  1  0
 53 28  1  0
 55 36  1  0
 56 52  1  0
 57 13  1  0
 57  1  2  0
  2 58  1  0
  2 59  1  0
  3 60  1  0
  3 61  1  0
  3 62  1  0
  4 63  1  1
  5 64  1  0
  6 65  1  1
  8 66  1  0
  8 67  1  0
  9 68  1  0
  9 69  1  0
 10 70  1  0
 11 71  1  0
 12 72  1  0
 13 73  1  0
 13 74  1  0
 14 75  1  1
 15 76  1  0
 16 77  1  0
 16 78  1  0
 18 79  1  6
 19 80  1  1
 20 81  1  0
 24 82  1  6
 25 83  1  0
 25 84  1  0
 25 85  1  0
 26 86  1  0
 27 87  1  1
 28 88  1  0
 30 89  1  0
 30 90  1  0
 31 91  1  1
 33 92  1  0
 33 93  1  0
 35 94  1  0
 36 95  1  0
 36 96  1  0
 37 97  1  0
 37 98  1  0
 38 99  1  0
 39100  1  0
 39101  1  0
 43102  1  1
 47103  1  6
 48104  1  6
 50105  1  0
 50106  1  0
 54107  1  0
 55108  1  6
M  CHG  1  45  -1
M  END
>  <mol_id>  (78) 
2026-08-24-6tgu-s0-n100-seed1-0082

>  <rmsd_to_ref>  (78) 


$$$$

     RDKit          3D

 29 30  0  0  0  0  0  0  0  0999 V2000
    1.5875   20.2252   39.8237 C   0  0  0  0  0  0  0  0  0  0  0  0
    1.4016   18.9519   40.2866 C   0  0  0  0  0  0  0  0  0  0  0  0
    1.3544   16.0896   41.8135 O   0  0  0  0  0  0  0  0  0  0  0  0
    0.6756   21.1409   40.5954 O   0  0  0  0  0  0  0  0  0  0  0  0
   -0.5819   16.8094   42.7538 C   0  0  0  0  0  0  0  0  0  0  0  0
    0.2655   15.7629   42.4294 C   0  0  0  0  0  0  0  0  0  0  0  0
    2.8362   19.6676   37.9671 C   0  0  0  0  0  0  0  0  0  0  0  0
    0.0737   20.3209   41.6000 C   0  0  0  0  0  0  0  0  0  0  0  0
   -0.1986   18.0985   42.3476 C   0  0  0  0  0  0  0  0  0  0  0  0
    3.0107   18.3817   38.4035 C   0  0  0  0  0  0  0  0  0  0  0  0
   -0.5061   21.0965   42.5904 C   0  0  0  0  0  0  0  0  0  0  0  0
    2.2053   17.9159   39.5889 C   0  0  0  0  0  0  0  0  0  0  0  0
   -1.6323   16.6410   43.7378 N   0  0  0  0  0  0  0  0  0  0  0  0
    0.5384   18.9645   41.4428 C   0  0  0  0  0  0  0  0  0  0  0  0
    2.1700   20.6545   38.6531 C   0  0  0  0  0  0  0  0  0  0  0  0
    2.0044   15.3901   41.5524 H   0  0  0  0  0  0  0  0  0  0  0  0
    0.0270   14.7188   42.6801 H   0  0  0  0  0  0  0  0  0  0  0  0
    3.2636   19.9321   36.9887 H   0  0  0  0  0  0  0  0  0  0  0  0
   -1.1999   18.5336   42.2131 H   0  0  0  0  0  0  0  0  0  0  0  0
    0.7098   17.9993   42.9599 H   0  0  0  0  0  0  0  0  0  0  0  0
    3.7200   17.7066   37.9022 H   0  0  0  0  0  0  0  0  0  0  0  0
   -0.3620   20.6117   43.5672 H   0  0  0  0  0  0  0  0  0  0  0  0
   -0.0345   22.0902   42.6011 H   0  0  0  0  0  0  0  0  0  0  0  0
   -1.5823   21.2035   42.3894 H   0  0  0  0  0  0  0  0  0  0  0  0
    2.2121   16.8667   39.9192 H   0  0  0  0  0  0  0  0  0  0  0  0
   -1.2399   16.7605   44.6827 H   0  0  0  0  0  0  0  0  0  0  0  0
   -2.3671   17.3453   43.5797 H   0  0  0  0  0  0  0  0  0  0  0  0
   -2.0364   15.6976   43.6507 H   0  0  0  0  0  0  0  0  0  0  0  0
    2.1079   21.6939   38.2984 H   0  0  0  0  0  0  0  0  0  0  0  0
  1  2  1  0
  1  4  1  0
  2 14  1  0
  3  6  1  0
  4  8  1  0
  5 13  1  0
  6  5  2  3
  7 10  2  0
  7 15  1  0
  8 11  1  0
  9  5  1  0
 10 12  1  0
 12  2  2  0
 14  8  2  0
 14  9  1  0
 15  1  2  0
  3 16  1  0
  6 17  1  0
  7 18  1  0
  9 19  1  0
  9 20  1  0
 10 21  1  0
 11 22  1  0
 11 23  1  0
 11 24  1  0
 12 25  1  0
 13 26  1  0
 13 27  1  0
 13 28  1  0
 15 29  1  0
M  CHG  1  13   1
M  END
>  <mol_id>  (79) 
2026-08-24-6tgu-s0-n100-seed1-0083

>  <rmsd_to_ref>  (79) 


$$$$

     RDKit          3D

 39 43  0  0  0  0  0  0  0  0999 V2000
    3.3102   20.5856   35.3807 O   0  0  0  0  0  0  0  0  0  0  0  0
    1.4937   20.9061   38.9251 C   0  0  0  0  0  0  0  0  0  0  0  0
   -0.5806   18.9962   44.1387 N   0  0  0  0  0  0  0  0  0  0  0  0
    3.7927   16.6634   36.9053 C   0  0  1  0  0  0  0  0  0  0  0  0
   -0.7957   16.9105   46.9945 C   0  0  0  0  0  0  0  0  0  0  0  0
    2.1570   17.3206   40.1008 O   0  0  0  0  0  0  0  0  0  0  0  0
    0.7441   17.4993   42.4848 C   0  0  0  0  0  0  0  0  0  0  0  0
    2.5977   20.5596   36.3109 C   0  0  0  0  0  0  0  0  0  0  0  0
   -0.7046   17.5480   45.6046 C   0  0  0  0  0  0  0  0  0  0  0  0
    3.2643   18.1865   36.6535 O   0  0  0  0  0  0  0  0  0  0  0  0
    1.7775   19.6390   39.6054 C   0  0  1  0  0  0  0  0  0  0  0  0
    1.4349   21.7239   37.9723 C   0  0  0  0  0  0  0  0  0  0  0  0
   -1.0782   15.5014   46.9456 C   0  0  0  0  0  0  0  0  0  0  0  0
    2.7070   19.3744   37.3296 C   0  0  1  0  0  0  0  0  0  0  0  0
    3.0196   15.6569   37.2352 C   0  0  0  0  0  0  0  0  0  0  0  0
    4.0343   14.6329   35.7031 O   0  0  0  0  0  0  0  0  0  0  0  0
   -0.8426   18.8824   45.3189 N   0  0  0  0  0  0  0  0  0  0  0  0
    3.7425   15.4299   36.4897 C   0  0  0  0  0  0  0  0  0  0  0  0
    1.2408   16.4048   42.4322 O   0  0  0  0  0  0  0  0  0  0  0  0
   -0.2577   17.8295   43.6110 C   0  0  0  0  0  0  0  0  0  0  0  0
   -1.9142   16.4150   47.7315 C   0  0  0  0  0  0  0  0  0  0  0  0
   -0.3227   16.8569   44.5599 N   0  0  0  0  0  0  0  0  0  0  0  0
    0.9054   20.9364   40.2952 S   0  0  0  0  0  0  0  0  0  0  0  0
    1.6583   18.3747   40.4605 C   0  0  0  0  0  0  0  0  0  0  0  0
    2.7999   18.9688   38.5944 O   0  0  0  0  0  0  0  0  0  0  0  0
    1.0071   18.4886   41.6617 N   0  0  0  0  0  0  0  0  0  0  0  0
    1.9113   21.5788   36.5493 O   0  0  0  0  0  0  0  0  0  0  0  0
    4.6297   17.3501   37.1002 H   0  0  0  0  0  0  0  0  0  0  0  0
   -0.0530   17.6457   47.3378 H   0  0  0  0  0  0  0  0  0  0  0  0
    0.9657   22.6894   38.2126 H   0  0  0  0  0  0  0  0  0  0  0  0
   -1.4706   15.0477   46.0235 H   0  0  0  0  0  0  0  0  0  0  0  0
   -0.5134   14.5807   47.1532 H   0  0  0  0  0  0  0  0  0  0  0  0
    1.9387   20.0925   37.6519 H   0  0  0  0  0  0  0  0  0  0  0  0
    3.1239   15.2086   38.2342 H   0  0  0  0  0  0  0  0  0  0  0  0
    1.9265   15.5397   37.2709 H   0  0  0  0  0  0  0  0  0  0  0  0
   -1.8807   16.3851   48.8305 H   0  0  0  0  0  0  0  0  0  0  0  0
   -2.9880   16.6501   47.7724 H   0  0  0  0  0  0  0  0  0  0  0  0
   -0.1250   15.8493   44.4787 H   0  0  0  0  0  0  0  0  0  0  0  0
    0.6978   19.4301   41.9426 H   0  0  0  0  0  0  0  0  0  0  0  0
  1  8  2  0
  2 11  1  0
  2 23  1  0
  3 17  1  0
  4 10  1  0
  4 15  1  0
  5 13  1  0
  5 21  1  0
  6 24  2  0
  7 19  2  0
  7 20  1  0
  8 27  1  0
  8 14  1  0
  9  5  1  0
 11 23  1  0
 11 24  1  6
 12  2  2  0
 13 21  1  0
 14 10  1  0
 14 25  1  0
 16 18  2  0
 17  9  2  0
 18  4  1  0
 18 15  1  0
 20  3  2  0
 20 22  1  0
 22  9  1  0
 24 26  1  0
 25 11  1  0
 26  7  1  0
 27 12  1  0
  4 28  1  1
  5 29  1  0
 12 30  1  0
 13 31  1  0
 13 32  1  0
 14 33  1  6
 15 34  1  0
 15 35  1  0
 21 36  1  0
 21 37  1  0
 22 38  1  0
 26 39  1  0
M  END
>  <mol_id>  (80) 
2026-08-24-6tgu-s0-n100-seed1-0084

>  <rmsd_to_ref>  (80) 


$$$$

     RDKit          3D

 28 31  0  0  0  0  0  0  0  0999 V2000
    2.2000   19.8550   39.1740 C   0  0  0  0  0  0  0  0  0  0  0  0
    1.6880   16.5010   42.1320 O   0  0  0  0  0  0  0  0  0  0  0  0
    2.1030   17.8620   40.5350 N   0  0  0  0  0  0  0  0  0  0  0  0
    2.5030   20.5670   38.0340 C   0  0  0  0  0  0  0  0  0  0  0  0
    3.3200   19.9950   37.0440 C   0  0  0  0  0  0  0  0  0  0  0  0
    1.4850   20.3370   40.3190 C   0  0  0  0  0  0  0  0  0  0  0  0
    3.7160   18.5690   37.2170 C   0  0  0  0  0  0  0  0  0  0  0  0
    1.4120   17.6190   41.6840 C   0  0  0  0  0  0  0  0  0  0  0  0
    0.9610   20.0440   41.4620 N   0  0  0  0  0  0  0  0  0  0  0  0
   -1.2030   18.6590   44.4300 C   0  0  0  0  0  0  0  0  0  0  0  0
    3.7070   20.6920   35.9960 O   0  0  0  0  0  0  0  0  0  0  0  0
   -1.1600   20.0050   43.7250 N   0  0  0  0  0  0  0  0  0  0  0  0
    2.5870   18.4430   39.3200 C   0  0  0  0  0  0  0  0  0  0  0  0
    0.4970   18.5950   42.5020 C   0  0  1  0  0  0  0  0  0  0  0  0
   -0.2320   19.8600   42.4810 C   0  0  2  0  0  0  0  0  0  0  0  0
    3.3570   17.9280   38.4320 C   0  0  0  0  0  0  0  0  0  0  0  0
   -0.1340   17.7960   43.7290 C   0  0  0  0  0  0  0  0  0  0  0  0
    2.7166   17.0350   40.5560 H   0  0  0  0  0  0  0  0  0  0  0  0
    2.1052   21.5836   37.8987 H   0  0  0  0  0  0  0  0  0  0  0  0
    2.1610   21.1473   40.6295 H   0  0  0  0  0  0  0  0  0  0  0  0
    0.5318   20.1034   39.8221 H   0  0  0  0  0  0  0  0  0  0  0  0
    4.2671   18.0318   36.4311 H   0  0  0  0  0  0  0  0  0  0  0  0
   -1.8575   18.3633   45.2632 H   0  0  0  0  0  0  0  0  0  0  0  0
    3.4318   21.6383   35.9018 H   0  0  0  0  0  0  0  0  0  0  0  0
   -0.9989   20.6242   42.2862 H   0  0  0  0  0  0  0  0  0  0  0  0
    3.7654   16.9249   38.6246 H   0  0  0  0  0  0  0  0  0  0  0  0
   -0.5988   16.8700   43.3597 H   0  0  0  0  0  0  0  0  0  0  0  0
    0.6620   17.5541   44.4486 H   0  0  0  0  0  0  0  0  0  0  0  0
  1 13  2  0
  1  6  1  0
  3  8  1  0
  4  1  1  0
  5  7  1  0
  5  4  2  0
  7 16  2  0
  8  2  2  0
  8 14  1  0
  9  6  1  0
  9 15  1  0
  9 14  1  0
 11  5  1  0
 12 10  2  0
 13  3  1  0
 14 17  1  1
 15 14  1  0
 15 12  1  0
 16 13  1  0
 17 10  1  0
  3 18  1  0
  4 19  1  0
  6 20  1  0
  6 21  1  0
  7 22  1  0
 10 23  1  0
 11 24  1  0
 15 25  1  6
 16 26  1  0
 17 27  1  0
 17 28  1  0
M  END
>  <mol_id>  (81) 
2026-08-24-6tgu-s0-n100-seed1-0086

>  <rmsd_to_ref>  (81) 


$$$$

     RDKit          3D

 23 24  0  0  0  0  0  0  0  0999 V2000
    0.7534   18.7258   42.7281 C   0  0  0  0  0  0  0  0  0  0  0  0
    1.9090   19.6113   40.3432 C   0  0  0  0  0  0  0  0  0  0  0  0
    4.3335   19.8387   37.3584 C   0  0  0  0  0  0  0  0  0  0  0  0
    0.0297   19.5470   41.7999 C   0  0  0  0  0  0  0  0  0  0  0  0
    4.0855   18.5701   40.9783 C   0  0  0  0  0  0  0  0  0  0  0  0
    2.0595   18.3995   42.4525 C   0  0  0  0  0  0  0  0  0  0  0  0
    3.2840   20.0377   36.4477 O   0  0  0  0  0  0  0  0  0  0  0  0
    0.5947   20.0473   40.6538 C   0  0  0  0  0  0  0  0  0  0  0  0
    3.8789   19.5325   38.7068 C   0  0  0  0  0  0  0  0  0  0  0  0
    4.6750   18.8616   39.7081 C   0  0  0  0  0  0  0  0  0  0  0  0
   -1.2173   19.9466   42.0712 O   0  0  0  0  0  0  0  0  0  0  0  0
    2.7532   18.8715   41.3191 C   0  0  0  0  0  0  0  0  0  0  0  0
    2.4926   19.9154   39.0206 C   0  0  0  0  0  0  0  0  0  0  0  0
    0.2696   18.3628   43.6468 H   0  0  0  0  0  0  0  0  0  0  0  0
    4.9417   20.7546   37.3951 H   0  0  0  0  0  0  0  0  0  0  0  0
    4.9096   18.9708   37.0051 H   0  0  0  0  0  0  0  0  0  0  0  0
    4.7129   18.0793   41.7369 H   0  0  0  0  0  0  0  0  0  0  0  0
    2.5908   17.7367   43.1514 H   0  0  0  0  0  0  0  0  0  0  0  0
    2.5096   20.4360   36.9186 H   0  0  0  0  0  0  0  0  0  0  0  0
    0.0542   20.7532   40.0061 H   0  0  0  0  0  0  0  0  0  0  0  0
    5.7171   18.5797   39.4973 H   0  0  0  0  0  0  0  0  0  0  0  0
   -1.7075   20.5129   41.4239 H   0  0  0  0  0  0  0  0  0  0  0  0
    1.8855   20.4329   38.2631 H   0  0  0  0  0  0  0  0  0  0  0  0
  2 12  1  0
  2  8  2  0
  3  9  1  0
  4  1  2  0
  4 11  1  0
  5 12  1  0
  6  1  1  0
  7  3  1  0
  8  4  1  0
  9 10  1  0
  9 13  2  0
 10  5  2  0
 12  6  2  0
 13  2  1  0
  1 14  1  0
  3 15  1  0
  3 16  1  0
  5 17  1  0
  6 18  1  0
  7 19  1  0
  8 20  1  0
 10 21  1  0
 11 22  1  0
 13 23  1  0
M  END
>  <mol_id>  (82) 
2026-08-24-6tgu-s0-n100-seed1-0087

>  <rmsd_to_ref>  (82) 


$$$$

     RDKit          3D

 42 44  0  0  0  0  0  0  0  0999 V2000
    2.7317   14.1465   40.9147 S   0  0  0  0  0  0  0  0  0  0  0  0
    1.4406   21.8869   36.0642 O   0  0  0  0  0  0  0  0  0  0  0  0
   -0.0887   17.4078   43.9853 C   0  0  0  0  0  0  0  0  0  0  0  0
    1.5895   19.0863   39.9897 C   0  0  0  0  0  0  0  0  0  0  0  0
    3.4742   21.0138   35.9975 O   0  0  0  0  0  0  0  0  0  0  0  0
    3.6471   16.4766   37.0579 C   0  0  0  0  0  0  0  0  0  0  0  0
    4.1883   15.5782   37.0800 O   0  0  0  0  0  0  0  0  0  0  0  0
    2.4565   19.3218   38.7309 C   0  0  0  0  0  0  0  0  0  0  0  0
    1.9666   15.5767   41.1285 C   0  0  0  0  0  0  0  0  0  0  0  0
    0.7675   21.4786   39.8940 C   0  0  0  0  0  0  0  0  0  0  0  0
    0.8927   20.1365   40.5000 C   0  0  0  0  0  0  0  0  0  0  0  0
   -0.8201   19.5070   42.8692 C   0  0  0  0  0  0  0  0  0  0  0  0
   -0.6723   17.8522   45.2183 C   0  0  0  0  0  0  0  0  0  0  0  0
   -1.2785   19.0805   45.2370 C   0  0  0  0  0  0  0  0  0  0  0  0
    3.4463   18.2898   38.5098 C   0  0  0  0  0  0  0  0  0  0  0  0
    2.9189   17.7185   37.2232 C   0  0  0  0  0  0  0  0  0  0  0  0
   -1.2911   19.9084   44.1242 N   0  0  0  0  0  0  0  0  0  0  0  0
    0.9576   17.4198   41.8429 C   0  0  0  0  0  0  0  0  0  0  0  0
    1.2449   21.6488   38.6226 C   0  0  0  0  0  0  0  0  0  0  0  0
    2.0478   20.5775   38.0432 C   0  0  0  0  0  0  0  0  0  0  0  0
    1.1392   15.9990   42.1438 N   0  0  0  0  0  0  0  0  0  0  0  0
    0.0479   18.0890   42.8364 C   0  0  0  0  0  0  0  0  0  0  0  0
    2.1496   16.5375   40.1696 O   0  0  0  0  0  0  0  0  0  0  0  0
    2.3881   21.0514   36.7230 C   0  0  0  0  0  0  0  0  0  0  0  0
   -1.2170   20.4226   41.9801 N   0  0  0  0  0  0  0  0  0  0  0  0
    1.5166   17.7291   40.6787 C   0  0  0  0  0  0  0  0  0  0  0  0
    0.2959   16.3772   43.9807 H   0  0  0  0  0  0  0  0  0  0  0  0
    4.3518   16.9340   36.3478 H   0  0  0  0  0  0  0  0  0  0  0  0
    2.8720   15.9831   37.6626 H   0  0  0  0  0  0  0  0  0  0  0  0
    4.3727   15.3270   38.0197 H   0  0  0  0  0  0  0  0  0  0  0  0
    0.3068   22.3116   40.4454 H   0  0  0  0  0  0  0  0  0  0  0  0
    0.3726   19.9713   41.4551 H   0  0  0  0  0  0  0  0  0  0  0  0
   -0.6341   17.2254   46.1215 H   0  0  0  0  0  0  0  0  0  0  0  0
   -1.7694   19.4199   46.1611 H   0  0  0  0  0  0  0  0  0  0  0  0
    4.4567   18.7081   38.3903 H   0  0  0  0  0  0  0  0  0  0  0  0
    3.5641   17.5678   39.3313 H   0  0  0  0  0  0  0  0  0  0  0  0
    3.1170   18.4011   36.3837 H   0  0  0  0  0  0  0  0  0  0  0  0
    1.8296   17.5671   37.2459 H   0  0  0  0  0  0  0  0  0  0  0  0
    1.0295   22.5659   38.0546 H   0  0  0  0  0  0  0  0  0  0  0  0
    0.7453   15.4512   42.9221 H   0  0  0  0  0  0  0  0  0  0  0  0
   -0.9718   20.3148   40.9855 H   0  0  0  0  0  0  0  0  0  0  0  0
   -1.7680   21.2360   42.2895 H   0  0  0  0  0  0  0  0  0  0  0  0
  1  9  2  0
  2 24  1  0
  3 13  2  0
  4 11  2  0
  4 26  1  0
  5 24  2  0
  6  7  1  0
  6 16  1  0
  8  4  1  0
  9 21  1  0
 10 11  1  0
 12 17  1  0
 13 14  1  0
 15  8  1  0
 16 15  1  0
 17 14  2  0
 18 21  1  0
 18 22  1  0
 19 10  2  0
 20 19  1  0
 20  8  2  0
 22 12  2  0
 22  3  1  0
 23 26  1  0
 23  9  1  0
 24 20  1  0
 25 12  1  0
 26 18  2  0
  3 27  1  0
  6 28  1  0
  6 29  1  0
  7 30  1  0
 10 31  1  0
 11 32  1  0
 13 33  1  0
 14 34  1  0
 15 35  1  0
 15 36  1  0
 16 37  1  0
 16 38  1  0
 19 39  1  0
 21 40  1  0
 25 41  1  0
 25 42  1  0
M  CHG  1   2  -1
M  END
>  <mol_id>  (83) 
2026-08-24-6tgu-s0-n100-seed1-0088

>  <rmsd_to_ref>  (83) 


$$$$

     RDKit          3D

 34 37  0  0  0  0  0  0  0  0999 V2000
    1.0599   21.1914   40.1326 C   0  0  0  0  0  0  0  0  0  0  0  0
    1.8921   18.8704   39.8999 C   0  0  0  0  0  0  0  0  0  0  0  0
    3.0893   19.0616   37.5859 C   0  0  0  0  0  0  0  0  0  0  0  0
    1.0853   15.7224   42.1093 C   0  0  0  0  0  0  0  0  0  0  0  0
    0.5888   18.1231   42.3480 C   0  0  0  0  0  0  0  0  0  0  0  0
   -0.2197   16.5627   44.0220 C   0  0  0  0  0  0  0  0  0  0  0  0
    0.1823   14.1150   43.8866 C   0  0  0  0  0  0  0  0  0  0  0  0
    2.7525   16.5669   39.2523 C   0  0  1  0  0  0  0  0  0  0  0  0
    0.5005   19.5339   41.9332 C   0  0  0  0  0  0  0  0  0  0  0  0
    1.8906   21.0947   38.6407 S   0  0  0  0  0  0  0  0  0  0  0  0
    4.2453   15.5745   37.2079 C   0  0  0  0  0  0  0  0  0  0  0  0
    2.3502   19.5641   38.7074 C   0  0  0  0  0  0  0  0  0  0  0  0
    1.2395   17.0280   41.5667 C   0  0  0  0  0  0  0  0  0  0  0  0
    1.8889   17.3765   40.3111 C   0  0  0  0  0  0  0  0  0  0  0  0
    3.4454   16.5169   37.7609 C   0  0  0  0  0  0  0  0  0  0  0  0
    3.4458   17.9018   37.3857 N   0  0  0  0  0  0  0  0  0  0  0  0
   -0.0808   17.8815   43.5857 C   0  0  0  0  0  0  0  0  0  0  0  0
    2.9611   15.2509   39.8469 O   0  0  0  0  0  0  0  0  0  0  0  0
    3.3054   20.0836   36.5586 O   0  0  0  0  0  0  0  0  0  0  0  0
    0.3772   15.4670   43.3287 C   0  0  0  0  0  0  0  0  0  0  0  0
    1.2388   19.8138   40.7184 C   0  0  0  0  0  0  0  0  0  0  0  0
    0.5242   22.0512   40.5613 H   0  0  0  0  0  0  0  0  0  0  0  0
    1.5286   14.8723   41.5699 H   0  0  0  0  0  0  0  0  0  0  0  0
   -0.8081   16.3614   44.9293 H   0  0  0  0  0  0  0  0  0  0  0  0
    0.2190   14.1628   44.9849 H   0  0  0  0  0  0  0  0  0  0  0  0
   -0.7959   13.7247   43.5690 H   0  0  0  0  0  0  0  0  0  0  0  0
    0.9786   13.4496   43.5218 H   0  0  0  0  0  0  0  0  0  0  0  0
    1.8293   16.2054   38.7758 H   0  0  0  0  0  0  0  0  0  0  0  0
   -0.0668   20.2956   42.4881 H   0  0  0  0  0  0  0  0  0  0  0  0
    4.6801   14.9503   38.0026 H   0  0  0  0  0  0  0  0  0  0  0  0
    3.6532   14.9435   36.5287 H   0  0  0  0  0  0  0  0  0  0  0  0
    5.0526   16.0640   36.6433 H   0  0  0  0  0  0  0  0  0  0  0  0
   -0.4784   18.7159   44.1822 H   0  0  0  0  0  0  0  0  0  0  0  0
    2.9393   15.3274   40.8336 H   0  0  0  0  0  0  0  0  0  0  0  0
  1 21  2  0
  2 14  1  0
  2 21  1  0
  3 12  1  0
  4 20  2  0
  5 17  1  0
  8 18  1  0
  8 14  1  0
  9  5  2  0
 10 12  1  0
 10  1  1  0
 11 15  1  0
 12  2  2  0
 13  5  1  0
 13  4  1  0
 14 13  2  0
 15  8  1  0
 16  3  1  0
 16 15  2  0
 17  6  2  0
 19  3  2  0
 20  6  1  0
 20  7  1  0
 21  9  1  0
  1 22  1  0
  4 23  1  0
  6 24  1  0
  7 25  1  0
  7 26  1  0
  7 27  1  0
  8 28  1  1
  9 29  1  0
 11 30  1  0
 11 31  1  0
 11 32  1  0
 17 33  1  0
 18 34  1  0
M  END
>  <mol_id>  (84) 
2026-08-24-6tgu-s0-n100-seed1-0089

>  <rmsd_to_ref>  (84) 


$$$$

     RDKit          3D

 32 35  0  0  0  0  0  0  0  0999 V2000
    2.5619   17.7682   39.7644 N   0  0  0  0  0  0  0  0  0  0  0  0
    3.9637   17.7398   36.4096 O   0  0  0  0  0  0  0  0  0  0  0  0
    1.3449   18.9639   41.2899 C   0  0  0  0  0  0  0  0  0  0  0  0
   -0.0051   16.3571   42.7156 N   0  0  0  0  0  0  0  0  0  0  0  0
    0.4767   18.9266   42.4718 C   0  0  0  0  0  0  0  0  0  0  0  0
    0.1748   20.0981   43.0094 C   0  0  0  0  0  0  0  0  0  0  0  0
    2.2999   20.0514   39.2715 C   0  0  0  0  0  0  0  0  0  0  0  0
    0.8468   15.2468   42.1202 O   0  0  0  0  0  0  0  0  0  0  0  0
    2.9177   22.3174   37.6528 C   0  0  0  0  0  0  0  0  0  0  0  0
    3.1450   18.6846   37.6099 C   0  0  0  0  0  0  0  0  0  0  0  0
   -0.5908   15.4621   43.6348 O   0  0  0  0  0  0  0  0  0  0  0  0
    2.8692   20.8273   37.9999 C   0  0  2  0  0  0  0  0  0  0  0  0
    3.3493   17.2654   37.4905 O   0  0  0  0  0  0  0  0  0  0  0  0
    3.2916   20.0175   37.1298 N   0  0  0  0  0  0  0  0  0  0  0  0
   -0.5829   20.0781   44.0710 C   0  0  0  0  0  0  0  0  0  0  0  0
    1.6043   20.2333   40.5559 C   0  0  0  0  0  0  0  0  0  0  0  0
   -0.0269   17.7183   43.0512 C   0  0  0  0  0  0  0  0  0  0  0  0
   -0.9215   19.1009   44.7867 N   0  0  0  0  0  0  0  0  0  0  0  0
    2.7004   18.8477   38.8974 C   0  0  0  0  0  0  0  0  0  0  0  0
   -0.6945   17.9362   44.2292 C   0  0  0  0  0  0  0  0  0  0  0  0
    1.8856   17.8202   40.8260 C   0  0  0  0  0  0  0  0  0  0  0  0
    0.5446   21.0419   42.5820 H   0  0  0  0  0  0  0  0  0  0  0  0
    2.9943   22.9072   38.5781 H   0  0  0  0  0  0  0  0  0  0  0  0
    3.7926   22.5175   37.0169 H   0  0  0  0  0  0  0  0  0  0  0  0
    2.0008   22.5983   37.1138 H   0  0  0  0  0  0  0  0  0  0  0  0
    3.8508   20.9094   38.4896 H   0  0  0  0  0  0  0  0  0  0  0  0
    2.7482   20.1315   36.2623 H   0  0  0  0  0  0  0  0  0  0  0  0
    4.2862   20.2062   36.9397 H   0  0  0  0  0  0  0  0  0  0  0  0
   -0.9822   21.0539   44.3846 H   0  0  0  0  0  0  0  0  0  0  0  0
    1.3028   21.2193   40.9394 H   0  0  0  0  0  0  0  0  0  0  0  0
   -1.0759   17.0493   44.7564 H   0  0  0  0  0  0  0  0  0  0  0  0
    1.7301   16.8936   41.3979 H   0  0  0  0  0  0  0  0  0  0  0  0
  1 21  2  0
  2 10  1  0
  2 13  1  0
  3  5  1  0
  4 11  1  0
  5  6  2  0
  5 17  1  0
  6 15  1  0
  7 16  1  0
  8  4  2  0
 10 13  1  0
 10 19  1  0
 12  9  1  0
 12  7  1  0
 14 12  1  0
 14 10  1  0
 15 18  2  0
 16  3  2  0
 17  4  1  0
 17 20  2  0
 19  7  2  0
 19  1  1  0
 20 18  1  0
 21  3  1  0
  6 22  1  0
  9 23  1  0
  9 24  1  0
  9 25  1  0
 12 26  1  1
 14 27  1  0
 14 28  1  0
 15 29  1  0
 16 30  1  0
 20 31  1  0
 21 32  1  0
M  CHG  3   4   1  11  -1  14   1
M  END
>  <mol_id>  (85) 
2026-08-24-6tgu-s0-n100-seed1-0090

>  <rmsd_to_ref>  (85) 


$$$$

     RDKit          3D

 51 52  0  0  0  0  0  0  0  0999 V2000
    4.6878   19.0678   36.5518 O   0  0  0  0  0  0  0  0  0  0  0  0
    1.8797   18.3145   40.3324 C   0  0  1  0  0  0  0  0  0  0  0  0
    1.2556   17.2965   40.9973 C   0  0  2  0  0  0  0  0  0  0  0  0
    3.9596   21.5058   35.2498 O   0  0  0  0  0  0  0  0  0  0  0  0
    3.6655   14.5984   40.2846 C   0  0  0  0  0  0  0  0  0  0  0  0
    2.9150   17.6084   39.6010 N   0  0  0  0  0  0  0  0  0  0  0  0
    1.9535   19.9518   38.7215 C   0  0  0  0  0  0  0  0  0  0  0  0
    3.0515   19.3922   38.0942 C   0  0  0  0  0  0  0  0  0  0  0  0
    0.1456   16.6066   42.8108 O   0  0  0  0  0  0  0  0  0  0  0  0
    4.6919   17.5718   38.1586 O   0  0  0  0  0  0  0  0  0  0  0  0
   -0.7000   15.9323   42.4782 C   0  0  0  0  0  0  0  0  0  0  0  0
   -1.4719   17.0960   44.4522 N   0  0  0  0  0  0  0  0  0  0  0  0
    1.2661   19.4582   39.7978 C   0  0  0  0  0  0  0  0  0  0  0  0
    3.2289   15.4121   41.1808 N   0  0  0  0  0  0  0  0  0  0  0  0
    0.5096   17.8198   42.3699 C   0  0  0  0  0  0  0  0  0  0  0  0
    2.0009   21.3314   36.1363 O   0  0  0  0  0  0  0  0  0  0  0  0
    3.6216   15.0248   39.1410 O   0  0  0  0  0  0  0  0  0  0  0  0
   -0.4981   17.6309   44.9813 C   0  0  0  0  0  0  0  0  0  0  0  0
    4.2069   13.4113   40.5731 N   0  0  0  0  0  0  0  0  0  0  0  0
    2.0625   16.0839   41.1843 C   0  0  0  0  0  0  0  0  0  0  0  0
   -1.7111   16.4948   43.1952 C   0  0  0  0  0  0  0  0  0  0  0  0
   -0.6835   16.5689   46.7369 C   0  0  0  0  0  0  0  0  0  0  0  0
   -0.7009   16.3454   45.3035 C   0  0  1  0  0  0  0  0  0  0  0  0
    3.9029   20.0765   36.9846 C   0  0  2  0  0  0  0  0  0  0  0  0
    3.4907   18.2235   38.6147 C   0  0  0  0  0  0  0  0  0  0  0  0
    3.1606   21.0134   36.1214 C   0  0  0  0  0  0  0  0  0  0  0  0
    4.9444   18.4968   37.3188 H   0  0  0  0  0  0  0  0  0  0  0  0
    2.2080   19.0732   41.0580 H   0  0  0  0  0  0  0  0  0  0  0  0
    0.4610   16.9566   40.3168 H   0  0  0  0  0  0  0  0  0  0  0  0
    3.1845   16.6479   39.8571 H   0  0  0  0  0  0  0  0  0  0  0  0
    1.5902   20.9040   38.3077 H   0  0  0  0  0  0  0  0  0  0  0  0
   -0.8771   15.9959   41.3944 H   0  0  0  0  0  0  0  0  0  0  0  0
   -0.5422   14.8564   42.6441 H   0  0  0  0  0  0  0  0  0  0  0  0
    1.2205   20.2339   40.5765 H   0  0  0  0  0  0  0  0  0  0  0  0
    0.2584   19.1768   39.4583 H   0  0  0  0  0  0  0  0  0  0  0  0
    3.8450   15.5678   41.9915 H   0  0  0  0  0  0  0  0  0  0  0  0
    1.1986   18.3316   43.0578 H   0  0  0  0  0  0  0  0  0  0  0  0
   -0.2883   18.5675   42.2502 H   0  0  0  0  0  0  0  0  0  0  0  0
    0.3703   17.8994   44.3618 H   0  0  0  0  0  0  0  0  0  0  0  0
   -0.3763   18.5455   45.5802 H   0  0  0  0  0  0  0  0  0  0  0  0
    4.5403   12.7994   39.8147 H   0  0  0  0  0  0  0  0  0  0  0  0
    4.2909   13.1083   41.5539 H   0  0  0  0  0  0  0  0  0  0  0  0
    1.7653   15.8639   42.2203 H   0  0  0  0  0  0  0  0  0  0  0  0
    1.9996   15.9146   40.0993 H   0  0  0  0  0  0  0  0  0  0  0  0
   -2.1506   17.2743   42.5555 H   0  0  0  0  0  0  0  0  0  0  0  0
   -2.3299   15.6247   43.4597 H   0  0  0  0  0  0  0  0  0  0  0  0
   -1.3535   15.8482   47.2285 H   0  0  0  0  0  0  0  0  0  0  0  0
    0.3403   16.4357   47.1164 H   0  0  0  0  0  0  0  0  0  0  0  0
   -1.0243   17.5924   46.9525 H   0  0  0  0  0  0  0  0  0  0  0  0
   -0.4446   15.2787   45.2218 H   0  0  0  0  0  0  0  0  0  0  0  0
    4.5910   20.8862   37.2688 H   0  0  0  0  0  0  0  0  0  0  0  0
  2  3  1  0
  3 20  1  0
  3 15  1  0
  4 26  2  0
  5 19  1  0
  5 14  1  0
  6  2  1  0
  7 13  1  0
  8 25  1  0
  8  7  2  0
 10 25  2  0
 11  9  1  0
 11 21  1  0
 12 18  1  0
 12 23  1  0
 13  2  1  0
 14 20  1  0
 15  9  1  0
 17  5  2  0
 18 23  1  0
 21 12  1  0
 23 22  1  0
 24  1  1  0
 24  8  1  0
 25  6  1  0
 26 16  1  0
 26 24  1  0
  1 27  1  0
  2 28  1  1
  3 29  1  6
  6 30  1  0
  7 31  1  0
 11 32  1  0
 11 33  1  0
 13 34  1  0
 13 35  1  0
 14 36  1  0
 15 37  1  0
 15 38  1  0
 18 39  1  0
 18 40  1  0
 19 41  1  0
 19 42  1  0
 20 43  1  0
 20 44  1  0
 21 45  1  0
 21 46  1  0
 22 47  1  0
 22 48  1  0
 22 49  1  0
 23 50  1  1
 24 51  1  1
M  CHG  1  16  -1
M  END
>  <mol_id>  (86) 
2026-08-24-6tgu-s0-n100-seed1-0091

>  <rmsd_to_ref>  (86) 


$$$$

     RDKit          3D

 48 53  0  0  0  0  0  0  0  0999 V2000
    3.2230   14.5074   38.6592 C   0  0  0  0  0  0  0  0  0  0  0  0
    2.8273   19.7933   36.6839 C   0  0  0  0  0  0  0  0  0  0  0  0
    2.0306   18.7885   39.1788 C   0  0  0  0  0  0  0  0  0  0  0  0
    0.6216   14.3945   42.5854 C   0  0  0  0  0  0  0  0  0  0  0  0
    1.7204   21.9793   37.1468 C   0  0  0  0  0  0  0  0  0  0  0  0
   -0.2541   14.6976   43.6074 C   0  0  0  0  0  0  0  0  0  0  0  0
    2.5518   17.8307   38.2087 C   0  0  0  0  0  0  0  0  0  0  0  0
   -0.6194   18.2268   43.8552 C   0  0  1  0  0  0  0  0  0  0  0  0
    2.0267   14.9108   40.7343 O   0  0  0  0  0  0  0  0  0  0  0  0
    1.5698   18.6471   40.4193 N   0  0  0  0  0  0  0  0  0  0  0  0
   -0.8662   19.3969   43.6135 N   0  0  0  0  0  0  0  0  0  0  0  0
   -1.2220   18.6020   44.6908 N   0  0  0  0  0  0  0  0  0  0  0  0
    2.1506   20.6579   37.5276 C   0  0  0  0  0  0  0  0  0  0  0  0
    1.2976   20.0983   40.7510 C   0  0  0  0  0  0  0  0  0  0  0  0
    0.4853   20.4864   41.8947 C   0  0  0  0  0  0  0  0  0  0  0  0
    1.4322   20.8920   39.7356 N   0  0  0  0  0  0  0  0  0  0  0  0
   -0.2583   20.1364   42.6617 C   0  0  0  0  0  0  0  0  0  0  0  0
    1.1319   15.3907   41.7525 C   0  0  0  0  0  0  0  0  0  0  0  0
    3.3431   20.4110   35.5087 O   0  0  0  0  0  0  0  0  0  0  0  0
   -0.0946   17.0105   43.1249 C   0  0  0  0  0  0  0  0  0  0  0  0
   -0.5768   16.0001   43.9248 C   0  0  0  0  0  0  0  0  0  0  0  0
    3.3948   15.4538   37.6200 C   0  0  0  0  0  0  0  0  0  0  0  0
    1.8686   20.0878   38.7492 C   0  0  0  0  0  0  0  0  0  0  0  0
    2.6013   16.4385   38.5286 N   0  0  0  0  0  0  0  0  0  0  0  0
    2.9848   18.4214   36.9799 C   0  0  0  0  0  0  0  0  0  0  0  0
    2.5838   15.3761   39.5336 C   0  0  2  0  0  0  0  0  0  0  0  0
    0.8264   16.6731   41.9425 C   0  0  0  0  0  0  0  0  0  0  0  0
    2.5890   13.6589   38.3622 H   0  0  0  0  0  0  0  0  0  0  0  0
    4.1232   13.9934   39.0271 H   0  0  0  0  0  0  0  0  0  0  0  0
    0.9229   13.3489   42.4244 H   0  0  0  0  0  0  0  0  0  0  0  0
    1.5402   22.5808   38.0500 H   0  0  0  0  0  0  0  0  0  0  0  0
    2.5012   22.4577   36.5375 H   0  0  0  0  0  0  0  0  0  0  0  0
    0.7913   21.9081   36.5623 H   0  0  0  0  0  0  0  0  0  0  0  0
   -0.7072   13.8781   44.1846 H   0  0  0  0  0  0  0  0  0  0  0  0
    0.0696   17.3806   43.7169 H   0  0  0  0  0  0  0  0  0  0  0  0
   -2.1970   18.2925   44.8108 H   0  0  0  0  0  0  0  0  0  0  0  0
    1.2686   20.8829   42.5574 H   0  0  0  0  0  0  0  0  0  0  0  0
   -0.3347   20.7793   41.2225 H   0  0  0  0  0  0  0  0  0  0  0  0
    1.2476   21.9045   39.6933 H   0  0  0  0  0  0  0  0  0  0  0  0
   -1.1218   20.1538   41.9805 H   0  0  0  0  0  0  0  0  0  0  0  0
    0.4787   20.4197   43.4276 H   0  0  0  0  0  0  0  0  0  0  0  0
    3.2011   21.3786   35.3550 H   0  0  0  0  0  0  0  0  0  0  0  0
   -1.2059   16.2264   44.7983 H   0  0  0  0  0  0  0  0  0  0  0  0
    2.9002   15.1966   36.6717 H   0  0  0  0  0  0  0  0  0  0  0  0
    4.3827   15.7006   37.2037 H   0  0  0  0  0  0  0  0  0  0  0  0
    3.4638   17.7757   36.2291 H   0  0  0  0  0  0  0  0  0  0  0  0
    2.4251   15.8636   40.5069 H   0  0  0  0  0  0  0  0  0  0  0  0
    1.2177   17.4588   41.2795 H   0  0  0  0  0  0  0  0  0  0  0  0
  2 25  2  0
  2 13  1  0
  3 10  1  0
  4  6  2  0
  5 13  1  0
  6 21  1  0
  7 24  1  0
  7  3  2  0
  8 20  1  0
  8 12  1  0
  9 18  1  0
 10 14  2  0
 11 17  1  0
 11  8  1  0
 11 12  1  0
 13 23  2  0
 14 15  1  0
 15 17  1  0
 16 14  1  0
 18  4  1  0
 19  2  1  0
 20 21  2  0
 22 24  1  0
 22  1  1  0
 23  3  1  0
 23 16  1  0
 24 26  1  0
 25  7  1  0
 26  1  1  0
 26  9  1  0
 27 18  2  0
 27 20  1  0
  1 28  1  0
  1 29  1  0
  4 30  1  0
  5 31  1  0
  5 32  1  0
  5 33  1  0
  6 34  1  0
  8 35  1  1
 12 36  1  0
 15 37  1  0
 15 38  1  0
 16 39  1  0
 17 40  1  0
 17 41  1  0
 19 42  1  0
 21 43  1  0
 22 44  1  0
 22 45  1  0
 25 46  1  0
 26 47  1  1
 27 48  1  0
M  END
>  <mol_id>  (87) 
2026-08-24-6tgu-s0-n100-seed1-0092

>  <rmsd_to_ref>  (87) 


$$$$

     RDKit          3D

 31 33  0  0  0  0  0  0  0  0999 V2000
    3.3044   18.3244   37.0739 C   0  0  0  0  0  0  0  0  0  0  0  0
    2.3768   17.6515   38.7720 N   0  0  0  0  0  0  0  0  0  0  0  0
    0.6379   21.1323   40.4908 N   0  0  0  0  0  0  0  0  0  0  0  0
    2.5878   19.3288   37.3954 N   0  0  0  0  0  0  0  0  0  0  0  0
   -0.3121   15.6675   44.6543 C   0  0  0  0  0  0  0  0  0  0  0  0
    4.1919   17.9964   36.0010 N   0  0  0  0  0  0  0  0  0  0  0  0
    1.0487   21.7366   39.4233 O   0  0  0  0  0  0  0  0  0  0  0  0
    2.0910   18.8686   38.7147 C   0  0  0  0  0  0  0  0  0  0  0  0
   -0.9300   19.8224   43.2421 O   0  0  0  0  0  0  0  0  0  0  0  0
    0.4136   18.9591   41.6132 C   0  0  2  0  0  0  0  0  0  0  0  0
    3.1158   17.2783   37.7867 N   0  0  0  0  0  0  0  0  0  0  0  0
   -0.0361   17.6987   43.4601 N   0  0  0  0  0  0  0  0  0  0  0  0
    0.8782   19.8704   40.5474 C   0  0  0  0  0  0  0  0  0  0  0  0
    0.7303   16.9180   42.6142 C   0  0  0  0  0  0  0  0  0  0  0  0
    1.7725   20.8285   38.8322 C   0  0  0  0  0  0  0  0  0  0  0  0
    1.6290   19.7996   39.3752 C   0  0  0  0  0  0  0  0  0  0  0  0
   -0.5545   17.1883   44.7081 C   0  0  0  0  0  0  0  0  0  0  0  0
   -0.2520   18.9203   42.8503 C   0  0  0  0  0  0  0  0  0  0  0  0
    1.0727   17.6130   41.5004 C   0  0  0  0  0  0  0  0  0  0  0  0
   -0.1715   15.2823   45.6750 H   0  0  0  0  0  0  0  0  0  0  0  0
   -1.1799   15.1740   44.1924 H   0  0  0  0  0  0  0  0  0  0  0  0
    0.5881   15.4606   44.0570 H   0  0  0  0  0  0  0  0  0  0  0  0
    4.6605   17.0794   35.9824 H   0  0  0  0  0  0  0  0  0  0  0  0
    4.3622   18.6773   35.2471 H   0  0  0  0  0  0  0  0  0  0  0  0
   -0.3131   19.7557   41.3954 H   0  0  0  0  0  0  0  0  0  0  0  0
    3.4806   16.3318   37.6083 H   0  0  0  0  0  0  0  0  0  0  0  0
    1.0223   15.8769   42.8165 H   0  0  0  0  0  0  0  0  0  0  0  0
    2.4183   21.0008   37.9586 H   0  0  0  0  0  0  0  0  0  0  0  0
   -0.0193   17.6343   45.5593 H   0  0  0  0  0  0  0  0  0  0  0  0
   -1.6192   17.4305   44.8408 H   0  0  0  0  0  0  0  0  0  0  0  0
    1.7089   17.2601   40.6753 H   0  0  0  0  0  0  0  0  0  0  0  0
  1  4  2  0
  1 11  1  0
  3 13  2  0
  4  8  1  0
  6  1  1  0
  7  3  1  0
  8  2  2  0
  8 16  1  0
 10 13  1  0
 10 19  1  0
 10 18  1  0
 11  2  1  0
 12 17  1  0
 14 12  1  0
 15  7  1  0
 15 16  2  0
 16 13  1  0
 17  5  1  0
 18  9  2  0
 18 12  1  0
 19 14  2  0
  5 20  1  0
  5 21  1  0
  5 22  1  0
  6 23  1  0
  6 24  1  0
 10 25  1  6
 11 26  1  0
 14 27  1  0
 15 28  1  0
 17 29  1  0
 17 30  1  0
 19 31  1  0
M  END
>  <mol_id>  (88) 
2026-08-24-6tgu-s0-n100-seed1-0093

>  <rmsd_to_ref>  (88) 


$$$$

     RDKit          3D

 41 45  0  0  0  0  0  0  0  0999 V2000
    1.3576   18.0427   40.7497 C   0  0  0  0  0  0  0  0  0  0  0  0
   -0.0294   21.1050   42.3927 C   0  0  0  0  0  0  0  0  0  0  0  0
    0.1283   16.0422   42.7310 C   0  0  0  0  0  0  0  0  0  0  0  0
    3.4986   20.7944   35.8585 N   0  0  0  0  0  0  0  0  0  0  0  0
    0.0339   18.4166   42.8688 C   0  0  0  0  0  0  0  0  0  0  0  0
   -0.1284   17.0402   43.4602 C   0  0  0  0  0  0  0  0  0  0  0  0
   -0.3191   19.3003   43.7732 N   0  0  0  0  0  0  0  0  0  0  0  0
    0.7595   15.6732   41.7423 C   0  0  0  0  0  0  0  0  0  0  0  0
    2.5075   19.3972   38.5139 C   0  0  0  0  0  0  0  0  0  0  0  0
    3.2804   18.8304   37.3281 C   0  0  0  0  0  0  0  0  0  0  0  0
    2.7789   21.3076   36.9356 C   0  0  0  0  0  0  0  0  0  0  0  0
    3.7411   19.6536   36.3767 C   0  0  0  0  0  0  0  0  0  0  0  0
    2.4505   20.9073   38.3544 C   0  0  0  0  0  0  0  0  0  0  0  0
    2.4564   17.0173   39.1897 C   0  0  0  0  0  0  0  0  0  0  0  0
   -0.4785   20.6184   43.6307 N   0  0  0  0  0  0  0  0  0  0  0  0
   -1.2153   17.6879   45.4886 N   0  0  0  0  0  0  0  0  0  0  0  0
    1.3408   16.6300   40.9140 C   0  0  0  0  0  0  0  0  0  0  0  0
    2.0775   16.0402   39.8822 N   0  0  0  0  0  0  0  0  0  0  0  0
    2.0197   18.4638   39.4507 C   0  0  0  0  0  0  0  0  0  0  0  0
    0.6371   18.8933   41.7117 C   0  0  0  0  0  0  0  0  0  0  0  0
   -0.8068   15.5842   45.0409 O   0  0  0  0  0  0  0  0  0  0  0  0
    0.5128   20.2696   41.4571 C   0  0  0  0  0  0  0  0  0  0  0  0
    3.2701   16.5922   38.0803 C   0  0  0  0  0  0  0  0  0  0  0  0
    3.5671   17.5269   37.1702 C   0  0  0  0  0  0  0  0  0  0  0  0
   -0.7618   16.6974   44.7432 C   0  0  0  0  0  0  0  0  0  0  0  0
   -0.1157   22.1791   42.1717 H   0  0  0  0  0  0  0  0  0  0  0  0
   -0.4191   15.1760   43.1309 H   0  0  0  0  0  0  0  0  0  0  0  0
    4.3559   21.3310   35.6636 H   0  0  0  0  0  0  0  0  0  0  0  0
    3.0300   20.7988   34.9413 H   0  0  0  0  0  0  0  0  0  0  0  0
    0.8635   14.6019   41.5151 H   0  0  0  0  0  0  0  0  0  0  0  0
    3.2515   22.2905   37.0789 H   0  0  0  0  0  0  0  0  0  0  0  0
    1.8116   20.9623   36.5418 H   0  0  0  0  0  0  0  0  0  0  0  0
    3.6987   19.0026   35.4910 H   0  0  0  0  0  0  0  0  0  0  0  0
    4.5067   20.0715   37.0469 H   0  0  0  0  0  0  0  0  0  0  0  0
    3.1778   21.3702   39.0376 H   0  0  0  0  0  0  0  0  0  0  0  0
    1.4324   21.2496   38.5915 H   0  0  0  0  0  0  0  0  0  0  0  0
   -1.6650   17.4875   46.3934 H   0  0  0  0  0  0  0  0  0  0  0  0
   -1.1196   18.6613   45.1655 H   0  0  0  0  0  0  0  0  0  0  0  0
    0.8554   20.6786   40.4951 H   0  0  0  0  0  0  0  0  0  0  0  0
    3.6278   15.5563   37.9862 H   0  0  0  0  0  0  0  0  0  0  0  0
    4.0720   17.2122   36.2449 H   0  0  0  0  0  0  0  0  0  0  0  0
  1 17  1  0
  1 20  2  0
  2 15  1  0
  3  6  1  0
  4 12  1  0
  4 11  1  0
  5  6  2  0
  5  7  1  0
  6 25  1  0
  8  3  2  0
  9 19  2  0
 10  9  1  0
 11 13  1  0
 12 10  1  0
 13  9  1  0
 14 19  1  0
 14 18  1  0
 15  7  2  0
 17  8  1  0
 18 17  2  0
 19  1  1  0
 20  5  1  0
 22 20  1  0
 22  2  2  0
 23 14  2  0
 24 10  2  0
 24 23  1  0
 25 21  2  0
 25 16  1  0
  2 26  1  0
  3 27  1  0
  4 28  1  0
  4 29  1  0
  8 30  1  0
 11 31  1  0
 11 32  1  0
 12 33  1  0
 12 34  1  0
 13 35  1  0
 13 36  1  0
 16 37  1  0
 16 38  1  0
 22 39  1  0
 23 40  1  0
 24 41  1  0
M  CHG  1   4   1
M  END
>  <mol_id>  (89) 
2026-08-24-6tgu-s0-n100-seed1-0094

>  <rmsd_to_ref>  (89) 


$$$$

     RDKit          3D

 42 44  0  0  0  0  0  0  0  0999 V2000
    2.7320   15.9660   39.1880 O   0  0  0  0  0  0  0  0  0  0  0  0
    0.4460   20.8470   41.8030 N   0  0  0  0  0  0  0  0  0  0  0  0
    1.6100   21.2410   39.6520 N   0  0  0  0  0  0  0  0  0  0  0  0
    0.5560   19.4600   41.8120 C   0  0  0  0  0  0  0  0  0  0  0  0
   -0.3290   21.1340   42.8510 N   0  0  0  0  0  0  0  0  0  0  0  0
   -0.0740   18.8910   42.8960 C   0  0  1  0  0  0  0  0  0  0  0  0
    2.6970   20.6780   37.6300 C   0  0  0  0  0  0  0  0  0  0  0  0
    3.4900   19.6750   37.1800 C   0  0  0  0  0  0  0  0  0  0  0  0
    1.9030   15.9770   41.4100 C   0  0  1  0  0  0  0  0  0  0  0  0
    1.3440   16.6540   42.4910 N   0  0  0  0  0  0  0  0  0  0  0  0
    2.3730   18.8250   38.9950 C   0  0  2  0  0  0  0  0  0  0  0  0
   -0.5930   16.7750   44.0400 C   0  0  0  0  0  0  0  0  0  0  0  0
    2.2860   16.6430   40.0710 C   0  0  0  0  0  0  0  0  0  0  0  0
    0.5180   17.5330   43.3110 C   0  0  2  0  0  0  0  0  0  0  0  0
    2.2950   14.5900   41.5060 C   0  0  0  0  0  0  0  0  0  0  0  0
    2.1540   20.3230   38.9290 C   0  0  0  0  0  0  0  0  0  0  0  0
    1.4090   18.5920   40.9790 N   0  0  0  0  0  0  0  0  0  0  0  0
    1.9820   17.9220   40.0210 N   0  0  0  0  0  0  0  0  0  0  0  0
    2.7120   13.5310   41.1930 C   0  0  0  0  0  0  0  0  0  0  0  0
   -0.7620   20.0260   43.4020 C   0  0  0  0  0  0  0  0  0  0  0  0
    3.1390   18.3370   37.7740 C   0  0  0  0  0  0  0  0  0  0  0  0
    1.2202   21.0055   40.5758 H   0  0  0  0  0  0  0  0  0  0  0  0
   -0.5535   22.0845   43.1782 H   0  0  0  0  0  0  0  0  0  0  0  0
   -0.8421   18.1838   43.2421 H   0  0  0  0  0  0  0  0  0  0  0  0
    1.8724   20.8395   36.9201 H   0  0  0  0  0  0  0  0  0  0  0  0
    3.2899   21.6001   37.7211 H   0  0  0  0  0  0  0  0  0  0  0  0
    3.3879   19.6109   36.0866 H   0  0  0  0  0  0  0  0  0  0  0  0
    4.5212   19.9094   37.4827 H   0  0  0  0  0  0  0  0  0  0  0  0
    0.8986   15.6705   41.0826 H   0  0  0  0  0  0  0  0  0  0  0  0
    1.1153   15.8004   43.0201 H   0  0  0  0  0  0  0  0  0  0  0  0
    1.8052   17.5029   42.1339 H   0  0  0  0  0  0  0  0  0  0  0  0
    1.4228   18.6421   38.4719 H   0  0  0  0  0  0  0  0  0  0  0  0
   -0.4510   16.8719   45.1265 H   0  0  0  0  0  0  0  0  0  0  0  0
   -1.5696   17.1960   43.7588 H   0  0  0  0  0  0  0  0  0  0  0  0
   -0.5572   15.7121   43.7588 H   0  0  0  0  0  0  0  0  0  0  0  0
    1.3925   17.8789   43.8816 H   0  0  0  0  0  0  0  0  0  0  0  0
    2.0229   18.2637   41.7381 H   0  0  0  0  0  0  0  0  0  0  0  0
    3.1006   12.5441   40.9013 H   0  0  0  0  0  0  0  0  0  0  0  0
   -0.6067   20.0829   44.4895 H   0  0  0  0  0  0  0  0  0  0  0  0
   -1.8306   19.9166   43.1649 H   0  0  0  0  0  0  0  0  0  0  0  0
    2.5079   17.7378   37.1012 H   0  0  0  0  0  0  0  0  0  0  0  0
    3.9880   17.6683   37.9790 H   0  0  0  0  0  0  0  0  0  0  0  0
  1 13  2  0
  2  4  2  0
  2  5  1  0
  4  6  1  0
  5 20  1  0
  6 14  1  0
  6 20  1  0
  7 16  1  0
  8  7  1  0
  8 21  1  0
  9 15  1  0
  9 10  1  0
 10 14  1  0
 11 21  1  0
 11 18  1  0
 13  9  1  0
 14 12  1  0
 16 11  1  0
 16  3  2  3
 17  4  1  0
 18 13  1  0
 18 17  1  0
 19 15  3  0
  3 22  1  0
  5 23  1  0
  6 24  1  6
  7 25  1  0
  7 26  1  0
  8 27  1  0
  8 28  1  0
  9 29  1  6
 10 30  1  0
 10 31  1  0
 11 32  1  6
 12 33  1  0
 12 34  1  0
 12 35  1  0
 14 36  1  1
 17 37  1  0
 19 38  1  0
 20 39  1  0
 20 40  1  0
 21 41  1  0
 21 42  1  0
M  CHG  1  10   1
M  END
>  <mol_id>  (90) 
2026-08-24-6tgu-s0-n100-seed1-0095

>  <rmsd_to_ref>  (90) 


$$$$

     RDKit          3D

 49 52  0  0  0  0  0  0  0  0999 V2000
   -0.0240   14.7670   44.1830 C   0  0  0  0  0  0  0  0  0  0  0  0
    2.5110   20.6400   38.0310 C   0  0  0  0  0  0  0  0  0  0  0  0
    1.0000   16.1160   42.2240 C   0  0  0  0  0  0  0  0  0  0  0  0
    1.5520   13.7440   42.8010 O   0  0  0  0  0  0  0  0  0  0  0  0
    0.2970   21.1300   41.6110 C   0  0  0  0  0  0  0  0  0  0  0  0
    2.9670   18.4340   38.3500 C   0  0  0  0  0  0  0  0  0  0  0  0
    3.2840   20.1280   36.8900 C   0  0  0  0  0  0  0  0  0  0  0  0
    0.6150   18.6660   42.0400 C   0  0  0  0  0  0  0  0  0  0  0  0
   -1.4170   19.4510   44.2540 N   0  0  0  0  0  0  0  0  0  0  0  0
    3.5940   20.7500   35.8380 O   0  0  0  0  0  0  0  0  0  0  0  0
    2.1320   19.8190   40.4520 C   0  0  1  0  0  0  0  0  0  0  0  0
    0.8420   14.8840   43.0270 C   0  0  0  0  0  0  0  0  0  0  0  0
    0.2930   17.3680   42.8250 C   0  0  0  0  0  0  0  0  0  0  0  0
    3.5670   18.8040   37.2420 C   0  0  2  0  0  0  0  0  0  0  0  0
    1.5010   18.6170   40.9420 C   0  0  0  0  0  0  0  0  0  0  0  0
    0.0230   19.9550   42.2940 C   0  0  0  0  0  0  0  0  0  0  0  0
    2.1650   13.2810   41.7330 C   0  0  0  0  0  0  0  0  0  0  0  0
    2.4690   19.5950   38.9970 N   0  0  0  0  0  0  0  0  0  0  0  0
    1.4630   21.1700   40.6030 C   0  0  0  0  0  0  0  0  0  0  0  0
    4.2420   17.8930   36.4300 O   0  0  0  0  0  0  0  0  0  0  0  0
   -0.6780   15.8260   44.6700 C   0  0  0  0  0  0  0  0  0  0  0  0
   -0.9380   20.0820   43.2680 C   0  0  0  0  0  0  0  0  0  0  0  0
   -0.5430   17.1400   44.0000 C   0  0  0  0  0  0  0  0  0  0  0  0
    4.2430   16.6190   37.2500 C   0  0  0  0  0  0  0  0  0  0  0  0
   -1.3630   18.1530   44.4730 C   0  0  0  0  0  0  0  0  0  0  0  0
   -0.1455   13.7877   44.6691 H   0  0  0  0  0  0  0  0  0  0  0  0
    3.0027   21.5283   38.4543 H   0  0  0  0  0  0  0  0  0  0  0  0
    1.4973   20.9352   37.7223 H   0  0  0  0  0  0  0  0  0  0  0  0
    1.5682   16.1460   41.2826 H   0  0  0  0  0  0  0  0  0  0  0  0
   -0.6145   21.3971   41.0561 H   0  0  0  0  0  0  0  0  0  0  0  0
    0.6190   21.8202   42.4047 H   0  0  0  0  0  0  0  0  0  0  0  0
    3.6840   17.9206   39.0075 H   0  0  0  0  0  0  0  0  0  0  0  0
    2.1412   17.7442   38.1213 H   0  0  0  0  0  0  0  0  0  0  0  0
    2.9863   19.9356   41.1351 H   0  0  0  0  0  0  0  0  0  0  0  0
    4.6629   18.7323   37.1804 H   0  0  0  0  0  0  0  0  0  0  0  0
    0.9347   18.1932   40.0996 H   0  0  0  0  0  0  0  0  0  0  0  0
    2.3488   18.0372   41.3358 H   0  0  0  0  0  0  0  0  0  0  0  0
    3.0077   12.6445   42.0409 H   0  0  0  0  0  0  0  0  0  0  0  0
    1.4586   12.6890   41.1325 H   0  0  0  0  0  0  0  0  0  0  0  0
    2.5413   14.1224   41.1325 H   0  0  0  0  0  0  0  0  0  0  0  0
    2.2094   21.8984   40.9527 H   0  0  0  0  0  0  0  0  0  0  0  0
    1.0541   21.4571   39.6230 H   0  0  0  0  0  0  0  0  0  0  0  0
   -1.7482   15.5719   44.6625 H   0  0  0  0  0  0  0  0  0  0  0  0
   -0.2100   15.9884   45.6521 H   0  0  0  0  0  0  0  0  0  0  0  0
   -1.4595   21.0437   43.1529 H   0  0  0  0  0  0  0  0  0  0  0  0
    4.2428   16.8720   38.3205 H   0  0  0  0  0  0  0  0  0  0  0  0
    3.3453   16.0293   37.0124 H   0  0  0  0  0  0  0  0  0  0  0  0
    5.1416   16.0307   37.0124 H   0  0  0  0  0  0  0  0  0  0  0  0
   -2.1287   17.7988   45.1788 H   0  0  0  0  0  0  0  0  0  0  0  0
  1 21  1  0
  3 13  2  0
  3 12  1  0
  4 12  1  0
  5 16  1  0
  6 18  1  0
  7 14  1  0
  7  2  1  0
  8 16  2  0
  8 13  1  0
  9 25  1  0
 10  7  2  0
 11 19  1  0
 11 15  1  0
 12  1  2  0
 13 23  1  0
 14 20  1  0
 14  6  1  0
 15  8  1  0
 16 22  1  0
 17  4  1  0
 18  2  1  0
 18 11  1  0
 19  5  1  0
 20 24  1  0
 22  9  2  0
 23 25  2  0
 23 21  1  0
  1 26  1  0
  2 27  1  0
  2 28  1  0
  3 29  1  0
  5 30  1  0
  5 31  1  0
  6 32  1  0
  6 33  1  0
 11 34  1  1
 14 35  1  1
 15 36  1  0
 15 37  1  0
 17 38  1  0
 17 39  1  0
 17 40  1  0
 19 41  1  0
 19 42  1  0
 21 43  1  0
 21 44  1  0
 22 45  1  0
 24 46  1  0
 24 47  1  0
 24 48  1  0
 25 49  1  0
M  END
>  <mol_id>  (91) 
2026-08-24-6tgu-s0-n100-seed1-0096

>  <rmsd_to_ref>  (91) 


$$$$

     RDKit          3D

 38 41  0  0  0  0  0  0  0  0999 V2000
    2.9100   18.6370   38.5090 C   0  0  0  0  0  0  0  0  0  0  0  0
    1.7290   13.9960   41.8960 N   0  0  0  0  0  0  0  0  0  0  0  0
    3.5530   19.6610   36.3710 N   0  0  0  0  0  0  0  0  0  0  0  0
    1.7020   19.9060   40.1480 C   0  0  0  0  0  0  0  0  0  0  0  0
    3.4100   20.8670   35.9080 C   0  0  0  0  0  0  0  0  0  0  0  0
    2.2910   18.6310   39.7270 C   0  0  0  0  0  0  0  0  0  0  0  0
   -0.4750   15.7540   44.2130 C   0  0  0  0  0  0  0  0  0  0  0  0
    1.7950   20.9400   39.1510 C   0  0  0  0  0  0  0  0  0  0  0  0
    0.2890   21.2300   41.5380 C   0  0  0  0  0  0  0  0  0  0  0  0
    1.0860   15.1950   42.4470 C   0  0  0  0  0  0  0  0  0  0  0  0
    0.1870   19.7650   43.5330 O   0  0  0  0  0  0  0  0  0  0  0  0
    2.9970   19.4910   37.5800 C   0  0  0  0  0  0  0  0  0  0  0  0
    1.2620   16.5740   42.0340 C   0  0  0  0  0  0  0  0  0  0  0  0
    0.3070   13.4570   43.6070 N   0  0  0  0  0  0  0  0  0  0  0  0
    1.3780   11.4490   42.3440 C   0  0  0  0  0  0  0  0  0  0  0  0
    2.4420   20.7000   37.9630 C   0  0  0  0  0  0  0  0  0  0  0  0
    0.3330   14.8050   43.4850 C   0  0  0  0  0  0  0  0  0  0  0  0
    0.6540   19.1010   42.6120 C   0  0  0  0  0  0  0  0  0  0  0  0
    1.0070   19.9410   41.3670 N   0  0  0  0  0  0  0  0  0  0  0  0
    0.4910   17.5620   42.8430 C   0  0  0  0  0  0  0  0  0  0  0  0
    1.1390   12.9200   42.6280 C   0  0  0  0  0  0  0  0  0  0  0  0
    3.6850   21.4320   34.8990 O   0  0  0  0  0  0  0  0  0  0  0  0
   -0.3610   17.0620   43.8420 C   0  0  0  0  0  0  0  0  0  0  0  0
    2.6630   21.5430   36.8950 O   0  0  0  0  0  0  0  0  0  0  0  0
    3.4459   17.7016   38.2900 H   0  0  0  0  0  0  0  0  0  0  0  0
    4.0433   18.9120   35.8615 H   0  0  0  0  0  0  0  0  0  0  0  0
    2.2379   17.7273   40.3519 H   0  0  0  0  0  0  0  0  0  0  0  0
   -1.1475   15.4391   45.0245 H   0  0  0  0  0  0  0  0  0  0  0  0
    1.3463   21.9262   39.3410 H   0  0  0  0  0  0  0  0  0  0  0  0
    0.1699   21.4439   42.6104 H   0  0  0  0  0  0  0  0  0  0  0  0
    0.8673   22.0374   41.0651 H   0  0  0  0  0  0  0  0  0  0  0  0
   -0.7019   21.1633   41.0651 H   0  0  0  0  0  0  0  0  0  0  0  0
    1.9097   16.8668   41.1945 H   0  0  0  0  0  0  0  0  0  0  0  0
   -0.2334   12.9224   44.3020 H   0  0  0  0  0  0  0  0  0  0  0  0
    1.4669   10.9019   43.2941 H   0  0  0  0  0  0  0  0  0  0  0  0
    0.5337   11.0453   41.7660 H   0  0  0  0  0  0  0  0  0  0  0  0
    2.3067   11.3333   41.7660 H   0  0  0  0  0  0  0  0  0  0  0  0
   -0.9925   17.7900   44.3723 H   0  0  0  0  0  0  0  0  0  0  0  0
  1  6  1  0
  2 10  1  0
  2 21  2  0
  3 12  1  0
  4 19  1  0
  5  3  1  0
  5 24  1  0
  6  4  2  0
  8  4  1  0
 10 17  1  0
 12 16  1  0
 12  1  2  0
 13 10  2  0
 13 20  1  0
 15 21  1  0
 16  8  2  0
 17 14  1  0
 17  7  2  0
 18 20  1  0
 18 11  2  0
 19  9  1  0
 19 18  1  0
 20 23  2  0
 21 14  1  0
 22  5  2  0
 23  7  1  0
 24 16  1  0
  1 25  1  0
  3 26  1  0
  6 27  1  0
  7 28  1  0
  8 29  1  0
  9 30  1  0
  9 31  1  0
  9 32  1  0
 13 33  1  0
 14 34  1  0
 15 35  1  0
 15 36  1  0
 15 37  1  0
 23 38  1  0
M  END
>  <mol_id>  (92) 
2026-08-24-6tgu-s0-n100-seed1-0097

>  <rmsd_to_ref>  (92) 


$$$$

     RDKit          3D

 39 42  0  0  0  0  0  0  0  0999 V2000
    4.3386   17.6919   38.3352 C   0  0  0  0  0  0  0  0  0  0  0  0
    1.8208   17.0449   41.0353 N   0  0  0  0  0  0  0  0  0  0  0  0
    0.2548   16.1863   42.8479 C   0  0  1  0  0  0  0  0  0  0  0  0
    3.4046   19.5365   37.5310 C   0  0  0  0  0  0  0  0  0  0  0  0
    2.5736   19.4826   38.5596 C   0  0  0  0  0  0  0  0  0  0  0  0
   -0.5266   12.8824   44.4355 C   0  0  0  0  0  0  0  0  0  0  0  0
    2.6309   18.5190   39.4477 C   0  0  0  0  0  0  0  0  0  0  0  0
    0.0647   11.7754   44.1029 C   0  0  0  0  0  0  0  0  0  0  0  0
    0.9104   20.3806   41.0476 C   0  0  0  0  0  0  0  0  0  0  0  0
   -0.3938   14.2212   44.0149 C   0  0  0  0  0  0  0  0  0  0  0  0
    4.3553   18.5629   37.3376 N   0  0  0  0  0  0  0  0  0  0  0  0
    0.4505   14.7548   43.1222 C   0  0  0  0  0  0  0  0  0  0  0  0
    1.2183   11.6449   43.3341 C   0  0  0  0  0  0  0  0  0  0  0  0
    3.5226   17.6091   39.3900 C   0  0  0  0  0  0  0  0  0  0  0  0
    3.4350   20.4545   36.6192 O   0  0  0  0  0  0  0  0  0  0  0  0
    1.5449   14.0001   42.6025 C   0  0  0  0  0  0  0  0  0  0  0  0
    0.3202   18.4014   42.0002 C   0  0  0  0  0  0  0  0  0  0  0  0
    0.9938   19.1436   41.0892 C   0  0  0  0  0  0  0  0  0  0  0  0
   -0.7778   18.5674   42.7552 C   0  0  0  0  0  0  0  0  0  0  0  0
   -1.0848   17.0800   43.5243 S   0  0  0  0  0  0  0  0  0  0  0  0
    1.8561   18.1992   40.4828 C   0  0  0  0  0  0  0  0  0  0  0  0
    1.8065   12.6729   42.6452 C   0  0  0  0  0  0  0  0  0  0  0  0
    0.8368   17.0778   42.0363 C   0  0  0  0  0  0  0  0  0  0  0  0
    5.1172   16.9163   38.2880 H   0  0  0  0  0  0  0  0  0  0  0  0
   -0.3570   15.9343   41.9691 H   0  0  0  0  0  0  0  0  0  0  0  0
    2.7092   20.4223   39.1152 H   0  0  0  0  0  0  0  0  0  0  0  0
    1.6089   19.2879   38.0683 H   0  0  0  0  0  0  0  0  0  0  0  0
   -1.2950   12.7466   45.2108 H   0  0  0  0  0  0  0  0  0  0  0  0
    0.3011   11.2813   45.0569 H   0  0  0  0  0  0  0  0  0  0  0  0
   -0.6733   11.3866   43.3858 H   0  0  0  0  0  0  0  0  0  0  0  0
    0.7752   20.7735   42.0661 H   0  0  0  0  0  0  0  0  0  0  0  0
    1.8321   20.7958   40.6139 H   0  0  0  0  0  0  0  0  0  0  0  0
    0.0501   20.6694   40.4259 H   0  0  0  0  0  0  0  0  0  0  0  0
   -1.0854   14.9327   44.4897 H   0  0  0  0  0  0  0  0  0  0  0  0
    1.6881   10.6520   43.2762 H   0  0  0  0  0  0  0  0  0  0  0  0
    3.6131   16.8183   40.1491 H   0  0  0  0  0  0  0  0  0  0  0  0
    2.3045   14.5987   42.0785 H   0  0  0  0  0  0  0  0  0  0  0  0
   -1.3676   19.4903   42.8574 H   0  0  0  0  0  0  0  0  0  0  0  0
    2.6477   12.3616   42.0084 H   0  0  0  0  0  0  0  0  0  0  0  0
  1 14  1  0
  2 23  2  0
  3 12  1  0
  3 20  1  0
  4  5  1  0
  5  7  1  0
  7 21  1  0
  8  6  1  0
  9 18  1  0
 10  6  2  0
 11  4  1  0
 11  1  2  0
 12 10  1  0
 13  8  1  0
 14  7  2  0
 15  4  2  0
 16 22  1  0
 16 12  2  0
 17 23  1  0
 17 19  2  0
 18 17  1  0
 19 20  1  0
 21  2  1  0
 21 18  2  0
 22 13  2  0
 23  3  1  0
  1 24  1  0
  3 25  1  1
  5 26  1  0
  5 27  1  0
  6 28  1  0
  8 29  1  0
  8 30  1  0
  9 31  1  0
  9 32  1  0
  9 33  1  0
 10 34  1  0
 13 35  1  0
 14 36  1  0
 16 37  1  0
 19 38  1  0
 22 39  1  0
M  END
>  <mol_id>  (93) 
2026-08-24-6tgu-s0-n100-seed1-0098

>  <rmsd_to_ref>  (93) 


$$$$

     RDKit          3D

 46 50  0  0  0  0  0  0  0  0999 V2000
    0.2510   17.9220   43.6560 C   0  0  0  0  0  0  0  0  0  0  0  0
    2.0730   20.2600   39.3730 C   0  0  0  0  0  0  0  0  0  0  0  0
    1.7020   12.9390   42.2780 C   0  0  0  0  0  0  0  0  0  0  0  0
    0.1460   19.3920   43.1340 C   0  0  0  0  0  0  0  0  0  0  0  0
    2.4610   18.8310   39.5220 C   0  0  0  0  0  0  0  0  0  0  0  0
   -0.4760   18.0750   44.9680 C   0  0  0  0  0  0  0  0  0  0  0  0
    0.8840   20.6790   41.3560 C   0  0  0  0  0  0  0  0  0  0  0  0
    1.1140   15.7480   42.4640 C   0  0  0  0  0  0  0  0  0  0  0  0
    2.0450   15.1990   41.5200 C   0  0  0  0  0  0  0  0  0  0  0  0
    3.9340   20.6740   35.8400 N   0  0  0  0  0  0  0  0  0  0  0  0
    3.0720   20.9700   36.5090 C   0  0  0  0  0  0  0  0  0  0  0  0
    2.0960   21.7540   36.5890 O   0  0  0  0  0  0  0  0  0  0  0  0
   -0.3760   20.1710   44.0570 N   0  0  0  0  0  0  0  0  0  0  0  0
    2.3170   18.1770   40.7090 C   0  0  0  0  0  0  0  0  0  0  0  0
   -0.7490   19.4180   45.1620 N   0  0  0  0  0  0  0  0  0  0  0  0
    0.9200   19.4460   42.0500 C   0  0  0  0  0  0  0  0  0  0  0  0
    3.7070   20.0420   37.1360 C   0  0  1  0  0  0  0  0  0  0  0  0
    2.2610   13.8760   41.3880 C   0  0  0  0  0  0  0  0  0  0  0  0
    3.4790   18.5700   37.2050 C   0  0  0  0  0  0  0  0  0  0  0  0
   -0.8430   17.0380   45.9440 C   0  0  0  0  0  0  0  0  0  0  0  0
    0.8570   13.3920   43.2110 C   0  0  0  0  0  0  0  0  0  0  0  0
    1.4350   20.9180   40.2140 C   0  0  0  0  0  0  0  0  0  0  0  0
   -1.7030   17.3400   47.1040 C   0  0  0  0  0  0  0  0  0  0  0  0
    0.6070   14.8090   43.3750 C   0  0  0  0  0  0  0  0  0  0  0  0
    2.8270   17.9780   38.3570 C   0  0  0  0  0  0  0  0  0  0  0  0
    0.8270   17.1600   42.5570 C   0  0  0  0  0  0  0  0  0  0  0  0
    1.4510   18.3300   41.6710 C   0  0  0  0  0  0  0  0  0  0  0  0
    2.3735   20.7739   38.4480 H   0  0  0  0  0  0  0  0  0  0  0  0
    1.9518   11.8700   42.2085 H   0  0  0  0  0  0  0  0  0  0  0  0
    0.3380   21.5067   41.8323 H   0  0  0  0  0  0  0  0  0  0  0  0
    2.6077   15.8899   40.8750 H   0  0  0  0  0  0  0  0  0  0  0  0
    4.4744   20.7748   34.9690 H   0  0  0  0  0  0  0  0  0  0  0  0
    3.0588   17.3841   40.8854 H   0  0  0  0  0  0  0  0  0  0  0  0
    4.0854   19.9135   38.1608 H   0  0  0  0  0  0  0  0  0  0  0  0
    2.8920   13.5174   40.5614 H   0  0  0  0  0  0  0  0  0  0  0  0
    3.8082   17.9277   36.3749 H   0  0  0  0  0  0  0  0  0  0  0  0
   -1.3537   16.2455   45.3773 H   0  0  0  0  0  0  0  0  0  0  0  0
    0.1223   16.8088   46.4191 H   0  0  0  0  0  0  0  0  0  0  0  0
    0.3420   12.6742   43.8664 H   0  0  0  0  0  0  0  0  0  0  0  0
    2.1295   21.7372   40.4518 H   0  0  0  0  0  0  0  0  0  0  0  0
    0.4894   20.8778   39.6535 H   0  0  0  0  0  0  0  0  0  0  0  0
   -1.1473   17.1449   48.0331 H   0  0  0  0  0  0  0  0  0  0  0  0
   -2.0039   18.3976   47.0719 H   0  0  0  0  0  0  0  0  0  0  0  0
   -2.5990   16.7027   47.0719 H   0  0  0  0  0  0  0  0  0  0  0  0
    0.0082   15.1558   44.2301 H   0  0  0  0  0  0  0  0  0  0  0  0
    2.6031   16.9011   38.3705 H   0  0  0  0  0  0  0  0  0  0  0  0
  1  6  1  0
  2  5  2  0
  2 22  1  0
  3 21  1  0
  4  1  1  0
  4 13  2  0
  5 14  1  0
  6 15  2  0
  6 20  1  0
  7 16  2  0
  8 26  1  0
  8 24  1  0
  9  8  2  0
 10 11  1  0
 10 17  1  0
 11 12  2  0
 11 17  1  0
 13 15  1  0
 14 27  2  0
 16  4  1  0
 17 19  1  0
 18  9  1  0
 18  3  2  0
 19 25  2  3
 20 23  1  0
 21 24  2  0
 22  7  1  0
 25  5  1  0
 26  1  2  0
 27 16  1  0
 27 26  1  0
  2 28  1  0
  3 29  1  0
  7 30  1  0
  9 31  1  0
 10 32  1  0
 14 33  1  0
 17 34  1  1
 18 35  1  0
 19 36  1  0
 20 37  1  0
 20 38  1  0
 21 39  1  0
 22 40  1  0
 22 41  1  0
 23 42  1  0
 23 43  1  0
 23 44  1  0
 24 45  1  0
 25 46  1  0
M  END
>  <mol_id>  (94) 
2026-08-24-6tgu-s0-n100-seed1-0099

>  <rmsd_to_ref>  (94) 


$$$$

     RDKit          3D

 43 46  0  0  0  0  0  0  0  0999 V2000
   -1.0350   17.5270   44.4430 N   0  0  0  0  0  0  0  0  0  0  0  0
    2.3880   16.2350   40.5200 C   0  0  0  0  0  0  0  0  0  0  0  0
   -1.0580   19.9780   44.1650 N   0  0  0  0  0  0  0  0  0  0  0  0
    2.7580   18.1900   39.5880 O   0  0  0  0  0  0  0  0  0  0  0  0
   -0.5220   20.9020   43.3780 C   0  0  0  0  0  0  0  0  0  0  0  0
    3.6060   20.1950   36.9970 O   0  0  0  0  0  0  0  0  0  0  0  0
    2.9440   15.6380   39.3520 C   0  0  0  0  0  0  0  0  0  0  0  0
    3.8930   17.5090   37.5170 C   0  0  0  0  0  0  0  0  0  0  0  0
    2.9420   14.3080   39.6470 N   0  0  0  0  0  0  0  0  0  0  0  0
    2.0940   17.7670   40.6600 C   0  0  1  0  0  0  0  0  0  0  0  0
    3.6040   20.7730   35.9990 O   0  0  0  0  0  0  0  0  0  0  0  0
    4.1570   15.1390   37.2230 C   0  0  0  0  0  0  0  0  0  0  0  0
    1.4070   19.0570   40.8450 N   0  0  0  0  0  0  0  0  0  0  0  0
    2.0950   15.1650   41.3950 C   0  0  0  0  0  0  0  0  0  0  0  0
   -0.4680   16.5520   43.7830 C   0  0  0  0  0  0  0  0  0  0  0  0
   -0.6680   18.7170   43.8630 C   0  0  0  0  0  0  0  0  0  0  0  0
    3.3640   18.8030   37.0930 C   0  0  1  0  0  0  0  0  0  0  0  0
    2.8730   19.0620   38.8150 C   0  0  0  0  0  0  0  0  0  0  0  0
    3.4930   16.1910   38.1060 C   0  0  1  0  0  0  0  0  0  0  0  0
    0.2820   16.9870   42.7480 N   0  0  0  0  0  0  0  0  0  0  0  0
    0.3160   20.7320   42.2990 C   0  0  0  0  0  0  0  0  0  0  0  0
    2.4650   14.0920   40.8630 N   0  0  0  0  0  0  0  0  0  0  0  0
    0.1770   18.3870   42.7380 C   0  0  0  0  0  0  0  0  0  0  0  0
    0.6270   19.3970   41.9140 C   0  0  0  0  0  0  0  0  0  0  0  0
   -0.7819   21.9431   43.6200 H   0  0  0  0  0  0  0  0  0  0  0  0
    4.6578   17.8299   38.2395 H   0  0  0  0  0  0  0  0  0  0  0  0
    3.8041   17.1091   36.4961 H   0  0  0  0  0  0  0  0  0  0  0  0
    1.8014   17.4811   41.6811 H   0  0  0  0  0  0  0  0  0  0  0  0
    3.6006   21.7461   36.1812 H   0  0  0  0  0  0  0  0  0  0  0  0
    4.6370   14.3785   37.8565 H   0  0  0  0  0  0  0  0  0  0  0  0
    3.3969   14.6606   36.5879 H   0  0  0  0  0  0  0  0  0  0  0  0
    4.9159   15.6193   36.5879 H   0  0  0  0  0  0  0  0  0  0  0  0
    2.1515   19.7682   40.8147 H   0  0  0  0  0  0  0  0  0  0  0  0
    0.6859   18.9828   40.1132 H   0  0  0  0  0  0  0  0  0  0  0  0
    2.6289   15.3089   42.3459 H   0  0  0  0  0  0  0  0  0  0  0  0
    1.0132   15.1298   41.5913 H   0  0  0  0  0  0  0  0  0  0  0  0
   -0.5889   15.4900   44.0430 H   0  0  0  0  0  0  0  0  0  0  0  0
    3.1294   18.5875   36.0401 H   0  0  0  0  0  0  0  0  0  0  0  0
    3.6200   19.7473   39.2420 H   0  0  0  0  0  0  0  0  0  0  0  0
    1.8286   19.3865   38.6967 H   0  0  0  0  0  0  0  0  0  0  0  0
    2.5836   16.7057   38.4495 H   0  0  0  0  0  0  0  0  0  0  0  0
   -0.1552   21.2232   41.4349 H   0  0  0  0  0  0  0  0  0  0  0  0
    1.2762   21.1632   42.6183 H   0  0  0  0  0  0  0  0  0  0  0  0
  2 10  1  0
  2 14  1  0
  4 10  1  0
  5  3  2  0
  7  9  1  0
  7  2  2  0
  8 19  1  0
  9 22  2  0
 10 13  1  0
 11  6  1  0
 13 24  1  0
 15  1  1  0
 16  3  1  0
 16  1  2  0
 17  6  1  0
 17  8  1  0
 17 18  1  0
 18  4  1  0
 19 12  1  0
 19  7  1  0
 20 15  2  0
 21  5  1  0
 22 14  1  0
 23 20  1  0
 23 16  1  0
 24 21  1  0
 24 23  2  0
  5 25  1  0
  8 26  1  0
  8 27  1  0
 10 28  1  1
 11 29  1  0
 12 30  1  0
 12 31  1  0
 12 32  1  0
 13 33  1  0
 13 34  1  0
 14 35  1  0
 14 36  1  0
 15 37  1  0
 17 38  1  6
 18 39  1  0
 18 40  1  0
 19 41  1  6
 21 42  1  0
 21 43  1  0
M  CHG  1  13   1
M  END
>  <mol_id>  (95) 
2026-08-24-6tgu-s0-n100-seed1-0100

>  <rmsd_to_ref>  (95) 


$$$$
