6tgu.A
     RDKit          3D

 32 34  0  0  0  0  0  0  0  0999 V2000
    3.2704   20.0816   36.9100 C   0  0  0  0  0  0  0  0  0  0  0  0
    2.7239   19.8375   38.3194 C   0  0  0  0  0  0  0  0  0  0  0  0
    1.9745   20.8172   38.9669 C   0  0  0  0  0  0  0  0  0  0  0  0
    1.3019   20.5646   40.1670 C   0  0  0  0  0  0  0  0  0  0  0  0
    1.5079   19.3565   40.8488 C   0  0  0  0  0  0  0  0  0  0  0  0
    0.4444   17.8615   42.6087 C   0  0  0  0  0  0  0  0  0  0  0  0
    0.4288   15.6073   42.9153 C   0  0  0  0  0  0  0  0  0  0  0  0
    0.8553   14.2304   42.6635 C   0  0  0  0  0  0  0  0  0  0  0  0
    0.2328   13.1351   43.2790 C   0  0  0  0  0  0  0  0  0  0  0  0
    0.6322   11.8319   42.9995 C   0  0  0  0  0  0  0  0  0  0  0  0
    1.6306   11.6302   42.0652 C   0  0  0  0  0  0  0  0  0  0  0  0
    2.2690   12.6840   41.4288 C   0  0  0  0  0  0  0  0  0  0  0  0
    1.8629   13.9810   41.7304 C   0  0  0  0  0  0  0  0  0  0  0  0
   -0.5843   15.9508   43.7709 C   0  0  0  0  0  0  0  0  0  0  0  0
    2.2504   18.3557   40.2060 C   0  0  0  0  0  0  0  0  0  0  0  0
    2.8437   18.6148   38.9691 C   0  0  0  0  0  0  0  0  0  0  0  0
    0.7803   19.0569   42.0413 N   0  0  0  0  0  0  0  0  0  0  0  0
    0.9791   16.6716   42.1626 N   0  0  0  0  0  0  0  0  0  0  0  0
    2.8674   21.1275   36.3211 O   0  0  0  0  0  0  0  0  0  0  0  0
    4.0035   19.1925   36.4244 O   0  0  0  0  0  0  0  0  0  0  0  0
    3.4800   17.5959   38.3007 O   0  0  0  0  0  0  0  0  0  0  0  0
   -0.9334   17.6347   43.6687 S   0  0  0  0  0  0  0  0  0  0  0  0
    2.1103   10.0114   41.6767 Cl  0  0  0  0  0  0  0  0  0  0  0  0
    1.9097   21.8205   38.5206 H   0  0  0  0  0  0  0  0  0  0  0  0
    0.6099   21.3151   40.5769 H   0  0  0  0  0  0  0  0  0  0  0  0
   -0.5845   13.3089   43.9944 H   0  0  0  0  0  0  0  0  0  0  0  0
    0.1628   10.9792   43.5119 H   0  0  0  0  0  0  0  0  0  0  0  0
    3.0758   12.4998   40.7041 H   0  0  0  0  0  0  0  0  0  0  0  0
    2.3468   14.8280   41.2221 H   0  0  0  0  0  0  0  0  0  0  0  0
   -1.1055   15.2454   44.4348 H   0  0  0  0  0  0  0  0  0  0  0  0
    2.3653   17.3677   40.6757 H   0  0  0  0  0  0  0  0  0  0  0  0
    0.4535   19.8836   42.5615 H   0  0  0  0  0  0  0  0  0  0  0  0
  1  2  1  0
  1 19  1  0
  1 20  2  0
  2  3  1  0
  2 16  2  0
  3  4  2  0
  4  5  1  0
  5 15  2  0
  5 17  1  0
  6 17  1  0
  6 18  2  0
  6 22  1  0
  7  8  1  0
  7 14  2  0
  7 18  1  0
  8  9  1  0
  8 13  2  0
  9 10  2  0
 10 11  1  0
 11 12  2  0
 11 23  1  0
 12 13  1  0
 14 22  1  0
 15 16  1  0
 16 21  1  0
  3 24  1  0
  4 25  1  0
  9 26  1  0
 10 27  1  0
 12 28  1  0
 13 29  1  0
 14 30  1  0
 15 31  1  0
 17 32  1  0
M  CHG  2  19  -1  21  -1
M  END
>  <mol_id>  (1) 
2026-08-24-6tgu-s0-n100-0001

>  <rmsd_to_ref>  (1) 
0.0

>  <pose_kind>  (1) 
native

$$$$
6tgu.A
     RDKit          3D

 32 34  0  0  0  0  0  0  0  0999 V2000
    3.1857   20.1007   37.3403 C   0  0  0  0  0  0  0  0  0  0  0  0
    2.6062   19.8034   38.7262 C   0  0  0  0  0  0  0  0  0  0  0  0
    1.7723   20.7243   39.3564 C   0  0  0  0  0  0  0  0  0  0  0  0
    1.0751   20.4131   40.5284 C   0  0  0  0  0  0  0  0  0  0  0  0
    1.3343   19.2119   41.2041 C   0  0  0  0  0  0  0  0  0  0  0  0
    0.3077   17.6285   42.9077 C   0  0  0  0  0  0  0  0  0  0  0  0
    0.4271   15.3741   43.1889 C   0  0  0  0  0  0  0  0  0  0  0  0
    0.9505   14.0309   42.9379 C   0  0  0  0  0  0  0  0  0  0  0  0
    0.3786   12.8899   43.5184 C   0  0  0  0  0  0  0  0  0  0  0  0
    0.8712   11.6188   43.2395 C   0  0  0  0  0  0  0  0  0  0  0  0
    1.9133   11.4940   42.3401 C   0  0  0  0  0  0  0  0  0  0  0  0
    2.5045   12.5950   41.7389 C   0  0  0  0  0  0  0  0  0  0  0  0
    2.0048   13.8592   42.0395 C   0  0  0  0  0  0  0  0  0  0  0  0
   -0.6360   15.6405   44.0108 C   0  0  0  0  0  0  0  0  0  0  0  0
    2.1626   18.2694   40.5780 C   0  0  0  0  0  0  0  0  0  0  0  0
    2.7816   18.5825   39.3664 C   0  0  0  0  0  0  0  0  0  0  0  0
    0.5856   18.8504   42.3660 N   0  0  0  0  0  0  0  0  0  0  0  0
    0.9339   16.4814   42.4685 N   0  0  0  0  0  0  0  0  0  0  0  0
    2.7371   21.1263   36.7485 O   0  0  0  0  0  0  0  0  0  0  0  0
    3.9917   19.2671   36.8722 O   0  0  0  0  0  0  0  0  0  0  0  0
    3.5059   17.6155   38.7106 O   0  0  0  0  0  0  0  0  0  0  0  0
   -1.0895   17.2996   43.9141 S   0  0  0  0  0  0  0  0  0  0  0  0
    2.5104    9.9147   41.9517 Cl  0  0  0  0  0  0  0  0  0  0  0  0
    1.6587   21.7272   38.9190 H   0  0  0  0  0  0  0  0  0  0  0  0
    0.3218   21.1121   40.9209 H   0  0  0  0  0  0  0  0  0  0  0  0
   -0.4733   13.0012   44.2053 H   0  0  0  0  0  0  0  0  0  0  0  0
    0.4400   10.7310   43.7251 H   0  0  0  0  0  0  0  0  0  0  0  0
    3.3469   12.4726   41.0421 H   0  0  0  0  0  0  0  0  0  0  0  0
    2.4507   14.7422   41.5585 H   0  0  0  0  0  0  0  0  0  0  0  0
   -1.1338   14.8942   44.6475 H   0  0  0  0  0  0  0  0  0  0  0  0
    2.3243   17.2848   41.0408 H   0  0  0  0  0  0  0  0  0  0  0  0
    0.1876   19.6474   42.8828 H   0  0  0  0  0  0  0  0  0  0  0  0
  1  2  1  0
  1 19  1  0
  1 20  2  0
  2  3  1  0
  2 16  2  0
  3  4  2  0
  4  5  1  0
  5 15  2  0
  5 17  1  0
  6 17  1  0
  6 18  2  0
  6 22  1  0
  7  8  1  0
  7 14  2  0
  7 18  1  0
  8  9  1  0
  8 13  2  0
  9 10  2  0
 10 11  1  0
 11 12  2  0
 11 23  1  0
 12 13  1  0
 14 22  1  0
 15 16  1  0
 16 21  1  0
  3 24  1  0
  4 25  1  0
  9 26  1  0
 10 27  1  0
 12 28  1  0
 13 29  1  0
 14 30  1  0
 15 31  1  0
 17 32  1  0
M  CHG  2  19  -1  21  -1
M  END
>  <mol_id>  (2) 
2026-08-24-6tgu-s0-n100-0002

>  <rmsd_to_ref>  (2) 
0.500000000006276

>  <pose_kind>  (2) 
rigid

$$$$
6tgu.A
     RDKit          3D

 32 34  0  0  0  0  0  0  0  0999 V2000
    3.1114   20.1911   37.2961 C   0  0  0  0  0  0  0  0  0  0  0  0
    2.7322   19.8471   38.7391 C   0  0  0  0  0  0  0  0  0  0  0  0
    2.1441   20.8041   39.5632 C   0  0  0  0  0  0  0  0  0  0  0  0
    1.6129   20.4792   40.8157 C   0  0  0  0  0  0  0  0  0  0  0  0
    1.8157   19.2013   41.3566 C   0  0  0  0  0  0  0  0  0  0  0  0
    0.8789   17.6122   43.1060 C   0  0  0  0  0  0  0  0  0  0  0  0
    0.7390   15.3442   43.2152 C   0  0  0  0  0  0  0  0  0  0  0  0
    1.0291   13.9743   42.7903 C   0  0  0  0  0  0  0  0  0  0  0  0
    0.4122   12.8650   43.3859 C   0  0  0  0  0  0  0  0  0  0  0  0
    0.6773   11.5725   42.9437 C   0  0  0  0  0  0  0  0  0  0  0  0
    1.5316   11.4010   41.8708 C   0  0  0  0  0  0  0  0  0  0  0  0
    2.1587   12.4701   41.2490 C   0  0  0  0  0  0  0  0  0  0  0  0
    1.8893   13.7546   41.7134 C   0  0  0  0  0  0  0  0  0  0  0  0
   -0.1296   15.6650   44.2246 C   0  0  0  0  0  0  0  0  0  0  0  0
    2.3961   18.2233   40.5363 C   0  0  0  0  0  0  0  0  0  0  0  0
    2.8447   18.5630   39.2586 C   0  0  0  0  0  0  0  0  0  0  0  0
    1.2257   18.8338   42.6048 N   0  0  0  0  0  0  0  0  0  0  0  0
    1.2650   16.4401   42.4912 N   0  0  0  0  0  0  0  0  0  0  0  0
    2.7138   21.3109   36.8590 O   0  0  0  0  0  0  0  0  0  0  0  0
    3.7106   19.3096   36.6419 O   0  0  0  0  0  0  0  0  0  0  0  0
    3.3153   17.5758   38.4255 O   0  0  0  0  0  0  0  0  0  0  0  0
   -0.3658   17.3690   44.3163 S   0  0  0  0  0  0  0  0  0  0  0  0
    1.8395    9.8006   41.2830 Cl  0  0  0  0  0  0  0  0  0  0  0  0
    2.0960   21.8474   39.2182 H   0  0  0  0  0  0  0  0  0  0  0  0
    1.0348   21.2276   41.3776 H   0  0  0  0  0  0  0  0  0  0  0  0
   -0.2928   13.0188   44.2161 H   0  0  0  0  0  0  0  0  0  0  0  0
    0.2162   10.7048   43.4380 H   0  0  0  0  0  0  0  0  0  0  0  0
    2.8514   12.3074   40.4100 H   0  0  0  0  0  0  0  0  0  0  0  0
    2.3649   14.6154   41.2205 H   0  0  0  0  0  0  0  0  0  0  0  0
   -0.6120   14.9324   44.8883 H   0  0  0  0  0  0  0  0  0  0  0  0
    2.4977   17.1898   40.8990 H   0  0  0  0  0  0  0  0  0  0  0  0
    1.0285   19.6253   43.2337 H   0  0  0  0  0  0  0  0  0  0  0  0
  1  2  1  0
  1 19  1  0
  1 20  2  0
  2  3  1  0
  2 16  2  0
  3  4  2  0
  4  5  1  0
  5 15  2  0
  5 17  1  0
  6 17  1  0
  6 18  2  0
  6 22  1  0
  7  8  1  0
  7 14  2  0
  7 18  1  0
  8  9  1  0
  8 13  2  0
  9 10  2  0
 10 11  1  0
 11 12  2  0
 11 23  1  0
 12 13  1  0
 14 22  1  0
 15 16  1  0
 16 21  1  0
  3 24  1  0
  4 25  1  0
  9 26  1  0
 10 27  1  0
 12 28  1  0
 13 29  1  0
 14 30  1  0
 15 31  1  0
 17 32  1  0
M  CHG  2  19  -1  21  -1
M  END
>  <mol_id>  (3) 
2026-08-24-6tgu-s0-n100-0003

>  <rmsd_to_ref>  (3) 
0.5459183673493461

>  <pose_kind>  (3) 
rigid

$$$$
6tgu.A
     RDKit          3D

 32 34  0  0  0  0  0  0  0  0999 V2000
    3.4136   19.3893   36.5187 C   0  0  0  0  0  0  0  0  0  0  0  0
    2.8417   19.3558   37.9387 C   0  0  0  0  0  0  0  0  0  0  0  0
    2.1540   20.4540   38.4502 C   0  0  0  0  0  0  0  0  0  0  0  0
    1.4571   20.3946   39.6616 C   0  0  0  0  0  0  0  0  0  0  0  0
    1.5776   19.2685   40.4886 C   0  0  0  0  0  0  0  0  0  0  0  0
    0.4043   18.0727   42.4009 C   0  0  0  0  0  0  0  0  0  0  0  0
    0.2372   15.8789   42.9797 C   0  0  0  0  0  0  0  0  0  0  0  0
    0.5734   14.4568   42.9042 C   0  0  0  0  0  0  0  0  0  0  0  0
   -0.1248   13.4879   43.6389 C   0  0  0  0  0  0  0  0  0  0  0  0
    0.1895   12.1371   43.5265 C   0  0  0  0  0  0  0  0  0  0  0  0
    1.1793   11.7581   42.6394 C   0  0  0  0  0  0  0  0  0  0  0  0
    1.8908   12.6823   41.8893 C   0  0  0  0  0  0  0  0  0  0  0  0
    1.5692   14.0301   42.0242 C   0  0  0  0  0  0  0  0  0  0  0  0
   -0.7574   16.3897   43.7712 C   0  0  0  0  0  0  0  0  0  0  0  0
    2.2570   18.1504   39.9842 C   0  0  0  0  0  0  0  0  0  0  0  0
    2.8754   18.2169   38.7343 C   0  0  0  0  0  0  0  0  0  0  0  0
    0.8228   19.1652   41.6973 N   0  0  0  0  0  0  0  0  0  0  0  0
    0.8623   16.8049   42.1115 N   0  0  0  0  0  0  0  0  0  0  0  0
    3.0852   20.3790   35.8005 O   0  0  0  0  0  0  0  0  0  0  0  0
    4.0899   18.4017   36.1565 O   0  0  0  0  0  0  0  0  0  0  0  0
    3.4478   17.0846   38.2051 O   0  0  0  0  0  0  0  0  0  0  0  0
   -0.9934   18.0674   43.4591 S   0  0  0  0  0  0  0  0  0  0  0  0
    1.5536   10.0762   42.4586 Cl  0  0  0  0  0  0  0  0  0  0  0  0
    2.1591   21.3971   37.8840 H   0  0  0  0  0  0  0  0  0  0  0  0
    0.8134   21.2330   39.9661 H   0  0  0  0  0  0  0  0  0  0  0  0
   -0.9342   13.8007   44.3150 H   0  0  0  0  0  0  0  0  0  0  0  0
   -0.3392   11.3859   44.1317 H   0  0  0  0  0  0  0  0  0  0  0  0
    2.6890   12.3587   41.2051 H   0  0  0  0  0  0  0  0  0  0  0  0
    2.1120   14.7752   41.4241 H   0  0  0  0  0  0  0  0  0  0  0  0
   -1.3291   15.8063   44.5079 H   0  0  0  0  0  0  0  0  0  0  0  0
    2.3026   17.2221   40.5726 H   0  0  0  0  0  0  0  0  0  0  0  0
    0.5476   20.0689   42.1078 H   0  0  0  0  0  0  0  0  0  0  0  0
  1  2  1  0
  1 19  1  0
  1 20  2  0
  2  3  1  0
  2 16  2  0
  3  4  2  0
  4  5  1  0
  5 15  2  0
  5 17  1  0
  6 17  1  0
  6 18  2  0
  6 22  1  0
  7  8  1  0
  7 14  2  0
  7 18  1  0
  8  9  1  0
  8 13  2  0
  9 10  2  0
 10 11  1  0
 11 12  2  0
 11 23  1  0
 12 13  1  0
 14 22  1  0
 15 16  1  0
 16 21  1  0
  3 24  1  0
  4 25  1  0
  9 26  1  0
 10 27  1  0
 12 28  1  0
 13 29  1  0
 14 30  1  0
 15 31  1  0
 17 32  1  0
M  CHG  2  19  -1  21  -1
M  END
>  <mol_id>  (4) 
2026-08-24-6tgu-s0-n100-0004

>  <rmsd_to_ref>  (4) 
0.5918367346942088

>  <pose_kind>  (4) 
rigid

$$$$
6tgu.A
     RDKit          3D

 32 34  0  0  0  0  0  0  0  0999 V2000
    2.7994   20.2011   37.0887 C   0  0  0  0  0  0  0  0  0  0  0  0
    2.4588   19.8377   38.5366 C   0  0  0  0  0  0  0  0  0  0  0  0
    1.8229   20.7589   39.3661 C   0  0  0  0  0  0  0  0  0  0  0  0
    1.3273   20.4050   40.6253 C   0  0  0  0  0  0  0  0  0  0  0  0
    1.6141   19.1431   41.1657 C   0  0  0  0  0  0  0  0  0  0  0  0
    0.7967   17.5038   42.9285 C   0  0  0  0  0  0  0  0  0  0  0  0
    0.7971   15.2316   43.0429 C   0  0  0  0  0  0  0  0  0  0  0  0
    1.1654   13.8811   42.6167 C   0  0  0  0  0  0  0  0  0  0  0  0
    0.6244   12.7374   43.2212 C   0  0  0  0  0  0  0  0  0  0  0  0
    0.9629   11.4627   42.7780 C   0  0  0  0  0  0  0  0  0  0  0  0
    1.8136   11.3411   41.6954 C   0  0  0  0  0  0  0  0  0  0  0  0
    2.3668   12.4452   41.0645 C   0  0  0  0  0  0  0  0  0  0  0  0
    2.0248   13.7119   41.5300 C   0  0  0  0  0  0  0  0  0  0  0  0
   -0.0777   15.5011   44.0620 C   0  0  0  0  0  0  0  0  0  0  0  0
    2.2436   18.2006   40.3401 C   0  0  0  0  0  0  0  0  0  0  0  0
    2.6556   18.5641   39.0567 C   0  0  0  0  0  0  0  0  0  0  0  0
    1.0624   18.7431   42.4214 N   0  0  0  0  0  0  0  0  0  0  0  0
    1.2465   16.3561   42.3110 N   0  0  0  0  0  0  0  0  0  0  0  0
    2.3290   21.2934   36.6546 O   0  0  0  0  0  0  0  0  0  0  0  0
    3.4436   19.3565   36.4288 O   0  0  0  0  0  0  0  0  0  0  0  0
    3.1760   17.6058   38.2197 O   0  0  0  0  0  0  0  0  0  0  0  0
   -0.4166   17.1877   44.1538 S   0  0  0  0  0  0  0  0  0  0  0  0
    2.2119    9.7613   41.1065 Cl  0  0  0  0  0  0  0  0  0  0  0  0
    1.7072   21.7966   39.0201 H   0  0  0  0  0  0  0  0  0  0  0  0
    0.7112   21.1180   41.1928 H   0  0  0  0  0  0  0  0  0  0  0  0
   -0.0790   12.8498   44.0595 H   0  0  0  0  0  0  0  0  0  0  0  0
    0.5616   10.5695   43.2792 H   0  0  0  0  0  0  0  0  0  0  0  0
    3.0583   12.3233   40.2178 H   0  0  0  0  0  0  0  0  0  0  0  0
    2.4410   14.5991   41.0303 H   0  0  0  0  0  0  0  0  0  0  0  0
   -0.5066   14.7418   44.7324 H   0  0  0  0  0  0  0  0  0  0  0  0
    2.4125   17.1761   40.7032 H   0  0  0  0  0  0  0  0  0  0  0  0
    0.8244   19.5225   43.0513 H   0  0  0  0  0  0  0  0  0  0  0  0
  1  2  1  0
  1 19  1  0
  1 20  2  0
  2  3  1  0
  2 16  2  0
  3  4  2  0
  4  5  1  0
  5 15  2  0
  5 17  1  0
  6 17  1  0
  6 18  2  0
  6 22  1  0
  7  8  1  0
  7 14  2  0
  7 18  1  0
  8  9  1  0
  8 13  2  0
  9 10  2  0
 10 11  1  0
 11 12  2  0
 11 23  1  0
 12 13  1  0
 14 22  1  0
 15 16  1  0
 16 21  1  0
  3 24  1  0
  4 25  1  0
  9 26  1  0
 10 27  1  0
 12 28  1  0
 13 29  1  0
 14 30  1  0
 15 31  1  0
 17 32  1  0
M  CHG  2  19  -1  21  -1
M  END
>  <mol_id>  (5) 
2026-08-24-6tgu-s0-n100-0005

>  <rmsd_to_ref>  (5) 
0.6377551020449385

>  <pose_kind>  (5) 
rigid

$$$$
6tgu.A
     RDKit          3D

 32 34  0  0  0  0  0  0  0  0999 V2000
    3.3727   20.6457   37.1121 C   0  0  0  0  0  0  0  0  0  0  0  0
    2.7979   20.2744   38.4818 C   0  0  0  0  0  0  0  0  0  0  0  0
    2.0241   21.1871   39.1951 C   0  0  0  0  0  0  0  0  0  0  0  0
    1.3279   20.8247   40.3529 C   0  0  0  0  0  0  0  0  0  0  0  0
    1.5315   19.5633   40.9310 C   0  0  0  0  0  0  0  0  0  0  0  0
    0.4452   17.9109   42.5287 C   0  0  0  0  0  0  0  0  0  0  0  0
    0.4464   15.6384   42.6367 C   0  0  0  0  0  0  0  0  0  0  0  0
    0.8928   14.2926   42.2753 C   0  0  0  0  0  0  0  0  0  0  0  0
    0.2685   13.1423   42.7784 C   0  0  0  0  0  0  0  0  0  0  0  0
    0.6876   11.8720   42.3953 C   0  0  0  0  0  0  0  0  0  0  0  0
    1.7084   11.7614   41.4700 C   0  0  0  0  0  0  0  0  0  0  0  0
    2.3496   12.8723   40.9429 C   0  0  0  0  0  0  0  0  0  0  0  0
    1.9234   14.1345   41.3473 C   0  0  0  0  0  0  0  0  0  0  0  0
   -0.5888   15.8970   43.4957 C   0  0  0  0  0  0  0  0  0  0  0  0
    2.2984   18.6291   40.2203 C   0  0  0  0  0  0  0  0  0  0  0  0
    2.9161   19.0005   39.0248 C   0  0  0  0  0  0  0  0  0  0  0  0
    0.7809   19.1542   42.0758 N   0  0  0  0  0  0  0  0  0  0  0  0
    1.0020   16.7692   41.9927 N   0  0  0  0  0  0  0  0  0  0  0  0
    2.9719   21.7356   36.6077 O   0  0  0  0  0  0  0  0  0  0  0  0
    4.1257   19.8089   36.5675 O   0  0  0  0  0  0  0  0  0  0  0  0
    3.5777   18.0495   38.2846 O   0  0  0  0  0  0  0  0  0  0  0  0
   -0.9532   17.5803   43.5330 S   0  0  0  0  0  0  0  0  0  0  0  0
    2.2136   10.1871   40.9526 Cl  0  0  0  0  0  0  0  0  0  0  0  0
    1.9586   22.2252   38.8368 H   0  0  0  0  0  0  0  0  0  0  0  0
    0.6192   21.5305   40.8108 H   0  0  0  0  0  0  0  0  0  0  0  0
   -0.5662   13.2457   43.4873 H   0  0  0  0  0  0  0  0  0  0  0  0
    0.2159   10.9738   42.8203 H   0  0  0  0  0  0  0  0  0  0  0  0
    3.1741   12.7592   40.2236 H   0  0  0  0  0  0  0  0  0  0  0  0
    2.4094   15.0268   40.9262 H   0  0  0  0  0  0  0  0  0  0  0  0
   -1.1171   15.1318   44.0833 H   0  0  0  0  0  0  0  0  0  0  0  0
    2.4133   17.6046   40.6045 H   0  0  0  0  0  0  0  0  0  0  0  0
    0.4341   19.9293   42.6586 H   0  0  0  0  0  0  0  0  0  0  0  0
  1  2  1  0
  1 19  1  0
  1 20  2  0
  2  3  1  0
  2 16  2  0
  3  4  2  0
  4  5  1  0
  5 15  2  0
  5 17  1  0
  6 17  1  0
  6 18  2  0
  6 22  1  0
  7  8  1  0
  7 14  2  0
  7 18  1  0
  8  9  1  0
  8 13  2  0
  9 10  2  0
 10 11  1  0
 11 12  2  0
 11 23  1  0
 12 13  1  0
 14 22  1  0
 15 16  1  0
 16 21  1  0
  3 24  1  0
  4 25  1  0
  9 26  1  0
 10 27  1  0
 12 28  1  0
 13 29  1  0
 14 30  1  0
 15 31  1  0
 17 32  1  0
M  CHG  2  19  -1  21  -1
M  END
>  <mol_id>  (6) 
2026-08-24-6tgu-s0-n100-0006

>  <rmsd_to_ref>  (6) 
0.6836734693923113

>  <pose_kind>  (6) 
rigid

$$$$
6tgu.A
     RDKit          3D

 32 34  0  0  0  0  0  0  0  0999 V2000
    3.5252   19.5889   36.8269 C   0  0  0  0  0  0  0  0  0  0  0  0
    3.0105   19.5235   38.2676 C   0  0  0  0  0  0  0  0  0  0  0  0
    2.3573   20.6152   38.8355 C   0  0  0  0  0  0  0  0  0  0  0  0
    1.7091   20.5310   40.0720 C   0  0  0  0  0  0  0  0  0  0  0  0
    1.8490   19.3817   40.8635 C   0  0  0  0  0  0  0  0  0  0  0  0
    0.7389   18.1480   42.7895 C   0  0  0  0  0  0  0  0  0  0  0  0
    0.5684   15.9414   43.3163 C   0  0  0  0  0  0  0  0  0  0  0  0
    0.8840   14.5183   43.1897 C   0  0  0  0  0  0  0  0  0  0  0  0
    0.2041   13.5378   43.9262 C   0  0  0  0  0  0  0  0  0  0  0  0
    0.4970   12.1871   43.7656 C   0  0  0  0  0  0  0  0  0  0  0  0
    1.4457   11.8210   42.8293 C   0  0  0  0  0  0  0  0  0  0  0  0
    2.1377   12.7571   42.0757 C   0  0  0  0  0  0  0  0  0  0  0  0
    1.8383   14.1043   42.2592 C   0  0  0  0  0  0  0  0  0  0  0  0
   -0.3871   16.4419   44.1607 C   0  0  0  0  0  0  0  0  0  0  0  0
    2.4938   18.2701   40.3026 C   0  0  0  0  0  0  0  0  0  0  0  0
    3.0621   18.3633   39.0308 C   0  0  0  0  0  0  0  0  0  0  0  0
    1.1422   19.2544   42.0986 N   0  0  0  0  0  0  0  0  0  0  0  0
    1.1694   16.8835   42.4484 N   0  0  0  0  0  0  0  0  0  0  0  0
    3.1803   20.6011   36.1492 O   0  0  0  0  0  0  0  0  0  0  0  0
    4.1742   18.6039   36.4117 O   0  0  0  0  0  0  0  0  0  0  0  0
    3.5989   17.2393   38.4491 O   0  0  0  0  0  0  0  0  0  0  0  0
   -0.6150   18.1298   43.9030 S   0  0  0  0  0  0  0  0  0  0  0  0
    1.7918   10.1406   42.5891 Cl  0  0  0  0  0  0  0  0  0  0  0  0
    2.3512   21.5730   38.2946 H   0  0  0  0  0  0  0  0  0  0  0  0
    1.0884   21.3679   40.4245 H   0  0  0  0  0  0  0  0  0  0  0  0
   -0.5736   13.8413   44.6426 H   0  0  0  0  0  0  0  0  0  0  0  0
   -0.0161   11.4259   44.3716 H   0  0  0  0  0  0  0  0  0  0  0  0
    2.9037   12.4431   41.3514 H   0  0  0  0  0  0  0  0  0  0  0  0
    2.3656   14.8592   41.6574 H   0  0  0  0  0  0  0  0  0  0  0  0
   -0.9359   15.8452   44.9043 H   0  0  0  0  0  0  0  0  0  0  0  0
    2.5517   17.3258   40.8639 H   0  0  0  0  0  0  0  0  0  0  0  0
    0.8949   20.1497   42.5437 H   0  0  0  0  0  0  0  0  0  0  0  0
  1  2  1  0
  1 19  1  0
  1 20  2  0
  2  3  1  0
  2 16  2  0
  3  4  2  0
  4  5  1  0
  5 15  2  0
  5 17  1  0
  6 17  1  0
  6 18  2  0
  6 22  1  0
  7  8  1  0
  7 14  2  0
  7 18  1  0
  8  9  1  0
  8 13  2  0
  9 10  2  0
 10 11  1  0
 11 12  2  0
 11 23  1  0
 12 13  1  0
 14 22  1  0
 15 16  1  0
 16 21  1  0
  3 24  1  0
  4 25  1  0
  9 26  1  0
 10 27  1  0
 12 28  1  0
 13 29  1  0
 14 30  1  0
 15 31  1  0
 17 32  1  0
M  CHG  2  19  -1  21  -1
M  END
>  <mol_id>  (7) 
2026-08-24-6tgu-s0-n100-0007

>  <rmsd_to_ref>  (7) 
0.7295918367436727

>  <pose_kind>  (7) 
rigid

$$$$
6tgu.A
     RDKit          3D

 32 34  0  0  0  0  0  0  0  0999 V2000
    3.2483   19.8529   37.1533 C   0  0  0  0  0  0  0  0  0  0  0  0
    2.5458   19.6837   38.5031 C   0  0  0  0  0  0  0  0  0  0  0  0
    1.6473   20.6460   38.9583 C   0  0  0  0  0  0  0  0  0  0  0  0
    0.8475   20.4395   40.0872 C   0  0  0  0  0  0  0  0  0  0  0  0
    1.0554   19.3169   40.9015 C   0  0  0  0  0  0  0  0  0  0  0  0
   -0.1084   17.8912   42.6554 C   0  0  0  0  0  0  0  0  0  0  0  0
    0.0080   15.6788   43.1728 C   0  0  0  0  0  0  0  0  0  0  0  0
    0.5666   14.3279   43.1077 C   0  0  0  0  0  0  0  0  0  0  0  0
   -0.0447   13.2392   43.7457 C   0  0  0  0  0  0  0  0  0  0  0  0
    0.4850   11.9568   43.6428 C   0  0  0  0  0  0  0  0  0  0  0  0
    1.6074   11.7636   42.8596 C   0  0  0  0  0  0  0  0  0  0  0  0
    2.2403   12.8108   42.2069 C   0  0  0  0  0  0  0  0  0  0  0  0
    1.7015   14.0884   42.3314 C   0  0  0  0  0  0  0  0  0  0  0  0
   -1.1295   16.0046   43.8628 C   0  0  0  0  0  0  0  0  0  0  0  0
    1.9481   18.3334   40.4522 C   0  0  0  0  0  0  0  0  0  0  0  0
    2.6737   18.5363   39.2769 C   0  0  0  0  0  0  0  0  0  0  0  0
    0.2058   19.0582   42.0207 N   0  0  0  0  0  0  0  0  0  0  0  0
    0.5679   16.7186   42.3935 N   0  0  0  0  0  0  0  0  0  0  0  0
    2.8460   20.8053   36.4223 O   0  0  0  0  0  0  0  0  0  0  0  0
    4.1030   18.9929   36.8473 O   0  0  0  0  0  0  0  0  0  0  0  0
    3.4660   17.5233   38.7911 O   0  0  0  0  0  0  0  0  0  0  0  0
   -1.5895   17.6366   43.5581 S   0  0  0  0  0  0  0  0  0  0  0  0
    2.2545   10.1656   42.6891 Cl  0  0  0  0  0  0  0  0  0  0  0  0
    1.5642   21.5979   38.4133 H   0  0  0  0  0  0  0  0  0  0  0  0
    0.0536   21.1590   40.3365 H   0  0  0  0  0  0  0  0  0  0  0  0
   -0.9578   13.4017   44.3371 H   0  0  0  0  0  0  0  0  0  0  0  0
    0.0199   11.1134   44.1742 H   0  0  0  0  0  0  0  0  0  0  0  0
    3.1450   12.6363   41.6060 H   0  0  0  0  0  0  0  0  0  0  0  0
    2.1810   14.9277   41.8063 H   0  0  0  0  0  0  0  0  0  0  0  0
   -1.6766   15.3158   44.5235 H   0  0  0  0  0  0  0  0  0  0  0  0
    2.0764   17.4031   41.0250 H   0  0  0  0  0  0  0  0  0  0  0  0
   -0.2469   19.8948   42.4158 H   0  0  0  0  0  0  0  0  0  0  0  0
  1  2  1  0
  1 19  1  0
  1 20  2  0
  2  3  1  0
  2 16  2  0
  3  4  2  0
  4  5  1  0
  5 15  2  0
  5 17  1  0
  6 17  1  0
  6 18  2  0
  6 22  1  0
  7  8  1  0
  7 14  2  0
  7 18  1  0
  8  9  1  0
  8 13  2  0
  9 10  2  0
 10 11  1  0
 11 12  2  0
 11 23  1  0
 12 13  1  0
 14 22  1  0
 15 16  1  0
 16 21  1  0
  3 24  1  0
  4 25  1  0
  9 26  1  0
 10 27  1  0
 12 28  1  0
 13 29  1  0
 14 30  1  0
 15 31  1  0
 17 32  1  0
M  CHG  2  19  -1  21  -1
M  END
>  <mol_id>  (8) 
2026-08-24-6tgu-s0-n100-0008

>  <rmsd_to_ref>  (8) 
0.7755102040899304

>  <pose_kind>  (8) 
rigid

$$$$
6tgu.A
     RDKit          3D

 32 34  0  0  0  0  0  0  0  0999 V2000
    2.9550   20.6046   37.3305 C   0  0  0  0  0  0  0  0  0  0  0  0
    2.4532   20.1143   38.6915 C   0  0  0  0  0  0  0  0  0  0  0  0
    1.6032   20.9071   39.4594 C   0  0  0  0  0  0  0  0  0  0  0  0
    0.9751   20.4219   40.6112 C   0  0  0  0  0  0  0  0  0  0  0  0
    1.3237   19.1653   41.1270 C   0  0  0  0  0  0  0  0  0  0  0  0
    0.4539   17.3377   42.6655 C   0  0  0  0  0  0  0  0  0  0  0  0
    0.6979   15.0759   42.6687 C   0  0  0  0  0  0  0  0  0  0  0  0
    1.2760   13.8025   42.2381 C   0  0  0  0  0  0  0  0  0  0  0  0
    0.7879   12.5712   42.6984 C   0  0  0  0  0  0  0  0  0  0  0  0
    1.3305   11.3709   42.2499 C   0  0  0  0  0  0  0  0  0  0  0  0
    2.3365   11.4107   41.3029 C   0  0  0  0  0  0  0  0  0  0  0  0
    2.8448   12.6057   40.8165 C   0  0  0  0  0  0  0  0  0  0  0  0
    2.2966   13.7961   41.2860 C   0  0  0  0  0  0  0  0  0  0  0  0
   -0.3396   15.1846   43.5565 C   0  0  0  0  0  0  0  0  0  0  0  0
    2.1692   18.3502   40.3609 C   0  0  0  0  0  0  0  0  0  0  0  0
    2.7175   18.8377   39.1730 C   0  0  0  0  0  0  0  0  0  0  0  0
    0.6461   18.6286   42.2646 N   0  0  0  0  0  0  0  0  0  0  0  0
    1.1163   16.2867   42.0679 N   0  0  0  0  0  0  0  0  0  0  0  0
    2.4301   21.6667   36.8840 O   0  0  0  0  0  0  0  0  0  0  0  0
    3.7799   19.8775   36.7350 O   0  0  0  0  0  0  0  0  0  0  0  0
    3.4593   17.9961   38.3785 O   0  0  0  0  0  0  0  0  0  0  0  0
   -0.8791   16.8162   43.6777 S   0  0  0  0  0  0  0  0  0  0  0  0
    2.9937    9.9234   40.7049 Cl  0  0  0  0  0  0  0  0  0  0  0  0
    1.4205   21.9469   39.1505 H   0  0  0  0  0  0  0  0  0  0  0  0
    0.2061   21.0272   41.1134 H   0  0  0  0  0  0  0  0  0  0  0  0
   -0.0370   12.5539   43.4257 H   0  0  0  0  0  0  0  0  0  0  0  0
    0.9659   10.4097   42.6412 H   0  0  0  0  0  0  0  0  0  0  0  0
    3.6604   12.6129   40.0785 H   0  0  0  0  0  0  0  0  0  0  0  0
    2.6761   14.7529   40.8980 H   0  0  0  0  0  0  0  0  0  0  0  0
   -0.7709   14.3423   44.1173 H   0  0  0  0  0  0  0  0  0  0  0  0
    2.4002   17.3281   40.6953 H   0  0  0  0  0  0  0  0  0  0  0  0
    0.2324   19.3359   42.8885 H   0  0  0  0  0  0  0  0  0  0  0  0
  1  2  1  0
  1 19  1  0
  1 20  2  0
  2  3  1  0
  2 16  2  0
  3  4  2  0
  4  5  1  0
  5 15  2  0
  5 17  1  0
  6 17  1  0
  6 18  2  0
  6 22  1  0
  7  8  1  0
  7 14  2  0
  7 18  1  0
  8  9  1  0
  8 13  2  0
  9 10  2  0
 10 11  1  0
 11 12  2  0
 11 23  1  0
 12 13  1  0
 14 22  1  0
 15 16  1  0
 16 21  1  0
  3 24  1  0
  4 25  1  0
  9 26  1  0
 10 27  1  0
 12 28  1  0
 13 29  1  0
 14 30  1  0
 15 31  1  0
 17 32  1  0
M  CHG  2  19  -1  21  -1
M  END
>  <mol_id>  (9) 
2026-08-24-6tgu-s0-n100-0009

>  <rmsd_to_ref>  (9) 
0.8214285714325729

>  <pose_kind>  (9) 
rigid

$$$$
6tgu.A
     RDKit          3D

 32 34  0  0  0  0  0  0  0  0999 V2000
    2.8559   21.0625   37.2492 C   0  0  0  0  0  0  0  0  0  0  0  0
    2.4999   20.5945   38.6630 C   0  0  0  0  0  0  0  0  0  0  0  0
    1.8759   21.4602   39.5584 C   0  0  0  0  0  0  0  0  0  0  0  0
    1.3661   21.0190   40.7840 C   0  0  0  0  0  0  0  0  0  0  0  0
    1.6268   19.7140   41.2262 C   0  0  0  0  0  0  0  0  0  0  0  0
    0.7690   17.9583   42.8527 C   0  0  0  0  0  0  0  0  0  0  0  0
    0.7274   15.6846   42.7904 C   0  0  0  0  0  0  0  0  0  0  0  0
    1.0737   14.3645   42.2625 C   0  0  0  0  0  0  0  0  0  0  0  0
    0.5084   13.1877   42.7738 C   0  0  0  0  0  0  0  0  0  0  0  0
    0.8265   11.9451   42.2346 C   0  0  0  0  0  0  0  0  0  0  0  0
    1.6813   11.8921   41.1499 C   0  0  0  0  0  0  0  0  0  0  0  0
    2.2584   13.0313   40.6091 C   0  0  0  0  0  0  0  0  0  0  0  0
    1.9365   14.2641   41.1699 C   0  0  0  0  0  0  0  0  0  0  0  0
   -0.1485   15.8905   43.8232 C   0  0  0  0  0  0  0  0  0  0  0  0
    2.2440   18.8267   40.3330 C   0  0  0  0  0  0  0  0  0  0  0  0
    2.6704   19.2809   39.0836 C   0  0  0  0  0  0  0  0  0  0  0  0
    1.0601   19.2281   42.4445 N   0  0  0  0  0  0  0  0  0  0  0  0
    1.2016   16.8538   42.1500 N   0  0  0  0  0  0  0  0  0  0  0  0
    2.4080   22.1939   36.8991 O   0  0  0  0  0  0  0  0  0  0  0  0
    3.4888   20.2597   36.5288 O   0  0  0  0  0  0  0  0  0  0  0  0
    3.1784   18.3808   38.1772 O   0  0  0  0  0  0  0  0  0  0  0  0
   -0.4574   17.5709   44.0440 S   0  0  0  0  0  0  0  0  0  0  0  0
    2.0545   10.3554   40.4419 Cl  0  0  0  0  0  0  0  0  0  0  0  0
    1.7810   22.5236   39.2934 H   0  0  0  0  0  0  0  0  0  0  0  0
    0.7595   21.6972   41.4022 H   0  0  0  0  0  0  0  0  0  0  0  0
   -0.1979   13.2478   43.6149 H   0  0  0  0  0  0  0  0  0  0  0  0
    0.4058   11.0234   42.6630 H   0  0  0  0  0  0  0  0  0  0  0  0
    2.9527   12.9625   39.7587 H   0  0  0  0  0  0  0  0  0  0  0  0
    2.3718   15.1795   40.7425 H   0  0  0  0  0  0  0  0  0  0  0  0
   -0.5952   15.0896   44.4307 H   0  0  0  0  0  0  0  0  0  0  0  0
    2.3921   17.7742   40.6163 H   0  0  0  0  0  0  0  0  0  0  0  0
    0.8325   19.9607   43.1319 H   0  0  0  0  0  0  0  0  0  0  0  0
  1  2  1  0
  1 19  1  0
  1 20  2  0
  2  3  1  0
  2 16  2  0
  3  4  2  0
  4  5  1  0
  5 15  2  0
  5 17  1  0
  6 17  1  0
  6 18  2  0
  6 22  1  0
  7  8  1  0
  7 14  2  0
  7 18  1  0
  8  9  1  0
  8 13  2  0
  9 10  2  0
 10 11  1  0
 11 12  2  0
 11 23  1  0
 12 13  1  0
 14 22  1  0
 15 16  1  0
 16 21  1  0
  3 24  1  0
  4 25  1  0
  9 26  1  0
 10 27  1  0
 12 28  1  0
 13 29  1  0
 14 30  1  0
 15 31  1  0
 17 32  1  0
M  CHG  2  19  -1  21  -1
M  END
>  <mol_id>  (10) 
2026-08-24-6tgu-s0-n100-0010

>  <rmsd_to_ref>  (10) 
0.8673469387850083

>  <pose_kind>  (10) 
rigid

$$$$
6tgu.A
     RDKit          3D

 32 34  0  0  0  0  0  0  0  0999 V2000
    3.8075   19.5408   36.4300 C   0  0  0  0  0  0  0  0  0  0  0  0
    3.2316   19.5157   37.8486 C   0  0  0  0  0  0  0  0  0  0  0  0
    2.6018   20.6407   38.3763 C   0  0  0  0  0  0  0  0  0  0  0  0
    1.9004   20.5996   39.5857 C   0  0  0  0  0  0  0  0  0  0  0  0
    1.9595   19.4560   40.3953 C   0  0  0  0  0  0  0  0  0  0  0  0
    0.7207   18.2946   42.2874 C   0  0  0  0  0  0  0  0  0  0  0  0
    0.4365   16.1040   42.8318 C   0  0  0  0  0  0  0  0  0  0  0  0
    0.6973   14.6674   42.7347 C   0  0  0  0  0  0  0  0  0  0  0  0
   -0.0528   13.7256   43.4534 C   0  0  0  0  0  0  0  0  0  0  0  0
    0.1900   12.3620   43.3205 C   0  0  0  0  0  0  0  0  0  0  0  0
    1.1601   11.9449   42.4288 C   0  0  0  0  0  0  0  0  0  0  0  0
    1.9211   12.8416   41.6939 C   0  0  0  0  0  0  0  0  0  0  0  0
    1.6710   14.2023   41.8494 C   0  0  0  0  0  0  0  0  0  0  0  0
   -0.5312   16.6544   43.6299 C   0  0  0  0  0  0  0  0  0  0  0  0
    2.5798   18.3115   39.8744 C   0  0  0  0  0  0  0  0  0  0  0  0
    3.2034   18.3643   38.6266 C   0  0  0  0  0  0  0  0  0  0  0  0
    1.1979   19.3742   41.6013 N   0  0  0  0  0  0  0  0  0  0  0  0
    1.1116   17.0090   41.9789 N   0  0  0  0  0  0  0  0  0  0  0  0
    3.5333   20.5574   35.7268 O   0  0  0  0  0  0  0  0  0  0  0  0
    4.4312   18.5245   36.0534 O   0  0  0  0  0  0  0  0  0  0  0  0
    3.7162   17.2117   38.0804 O   0  0  0  0  0  0  0  0  0  0  0  0
   -0.6775   18.3468   43.3437 S   0  0  0  0  0  0  0  0  0  0  0  0
    1.4453   10.2485   42.2224 Cl  0  0  0  0  0  0  0  0  0  0  0  0
    2.6580   21.5908   37.8247 H   0  0  0  0  0  0  0  0  0  0  0  0
    1.3013   21.4660   39.9025 H   0  0  0  0  0  0  0  0  0  0  0  0
   -0.8458   14.0704   44.1333 H   0  0  0  0  0  0  0  0  0  0  0  0
   -0.3790   11.6306   43.9133 H   0  0  0  0  0  0  0  0  0  0  0  0
    2.7025   12.4868   41.0059 H   0  0  0  0  0  0  0  0  0  0  0  0
    2.2536   14.9268   41.2615 H   0  0  0  0  0  0  0  0  0  0  0  0
   -1.1345   16.0907   44.3569 H   0  0  0  0  0  0  0  0  0  0  0  0
    2.5751   17.3731   40.4484 H   0  0  0  0  0  0  0  0  0  0  0  0
    0.9700   20.2847   42.0254 H   0  0  0  0  0  0  0  0  0  0  0  0
  1  2  1  0
  1 19  1  0
  1 20  2  0
  2  3  1  0
  2 16  2  0
  3  4  2  0
  4  5  1  0
  5 15  2  0
  5 17  1  0
  6 17  1  0
  6 18  2  0
  6 22  1  0
  7  8  1  0
  7 14  2  0
  7 18  1  0
  8  9  1  0
  8 13  2  0
  9 10  2  0
 10 11  1  0
 11 12  2  0
 11 23  1  0
 12 13  1  0
 14 22  1  0
 15 16  1  0
 16 21  1  0
  3 24  1  0
  4 25  1  0
  9 26  1  0
 10 27  1  0
 12 28  1  0
 13 29  1  0
 14 30  1  0
 15 31  1  0
 17 32  1  0
M  CHG  2  19  -1  21  -1
M  END
>  <mol_id>  (11) 
2026-08-24-6tgu-s0-n100-0011

>  <rmsd_to_ref>  (11) 
0.913265306127796

>  <pose_kind>  (11) 
rigid

$$$$
6tgu.A
     RDKit          3D

 32 34  0  0  0  0  0  0  0  0999 V2000
    3.2136   20.3969   37.3122 C   0  0  0  0  0  0  0  0  0  0  0  0
    2.3690   20.0769   38.5487 C   0  0  0  0  0  0  0  0  0  0  0  0
    1.2956   20.8917   38.9022 C   0  0  0  0  0  0  0  0  0  0  0  0
    0.3898   20.5317   39.9053 C   0  0  0  0  0  0  0  0  0  0  0  0
    0.6397   19.4111   40.7106 C   0  0  0  0  0  0  0  0  0  0  0  0
   -0.5397   17.7681   42.2510 C   0  0  0  0  0  0  0  0  0  0  0  0
   -0.1919   15.5695   42.7210 C   0  0  0  0  0  0  0  0  0  0  0  0
    0.5492   14.3081   42.6972 C   0  0  0  0  0  0  0  0  0  0  0  0
    0.0133   13.1212   43.2170 C   0  0  0  0  0  0  0  0  0  0  0  0
    0.7218   11.9253   43.1536 C   0  0  0  0  0  0  0  0  0  0  0  0
    1.9534   11.9165   42.5262 C   0  0  0  0  0  0  0  0  0  0  0  0
    2.5180   13.0657   41.9938 C   0  0  0  0  0  0  0  0  0  0  0  0
    1.7985   14.2546   42.0771 C   0  0  0  0  0  0  0  0  0  0  0  0
   -1.4442   15.7119   43.2576 C   0  0  0  0  0  0  0  0  0  0  0  0
    1.7095   18.5745   40.3616 C   0  0  0  0  0  0  0  0  0  0  0  0
    2.5491   18.9231   39.3021 C   0  0  0  0  0  0  0  0  0  0  0  0
   -0.3067   18.9934   41.6961 N   0  0  0  0  0  0  0  0  0  0  0  0
    0.3187   16.7075   42.0530 N   0  0  0  0  0  0  0  0  0  0  0  0
    2.7850   21.3197   36.5586 O   0  0  0  0  0  0  0  0  0  0  0  0
    4.2104   19.6712   37.1034 O   0  0  0  0  0  0  0  0  0  0  0  0
    3.5291   18.0458   38.9026 O   0  0  0  0  0  0  0  0  0  0  0  0
   -2.0782   17.2810   42.9360 S   0  0  0  0  0  0  0  0  0  0  0  0
    2.8290   10.4267   42.4036 Cl  0  0  0  0  0  0  0  0  0  0  0  0
    1.1562   21.8476   38.3761 H   0  0  0  0  0  0  0  0  0  0  0  0
   -0.5205   21.1288   40.0628 H   0  0  0  0  0  0  0  0  0  0  0  0
   -0.9833   13.1356   43.6822 H   0  0  0  0  0  0  0  0  0  0  0  0
    0.3100   11.0053   43.5941 H   0  0  0  0  0  0  0  0  0  0  0  0
    3.5093   13.0386   41.5176 H   0  0  0  0  0  0  0  0  0  0  0  0
    2.2240   15.1722   41.6447 H   0  0  0  0  0  0  0  0  0  0  0  0
   -1.9745   14.9285   43.8191 H   0  0  0  0  0  0  0  0  0  0  0  0
    1.8869   17.6446   40.9219 H   0  0  0  0  0  0  0  0  0  0  0  0
   -0.9172   19.7448   42.0476 H   0  0  0  0  0  0  0  0  0  0  0  0
  1  2  1  0
  1 19  1  0
  1 20  2  0
  2  3  1  0
  2 16  2  0
  3  4  2  0
  4  5  1  0
  5 15  2  0
  5 17  1  0
  6 17  1  0
  6 18  2  0
  6 22  1  0
  7  8  1  0
  7 14  2  0
  7 18  1  0
  8  9  1  0
  8 13  2  0
  9 10  2  0
 10 11  1  0
 11 12  2  0
 11 23  1  0
 12 13  1  0
 14 22  1  0
 15 16  1  0
 16 21  1  0
  3 24  1  0
  4 25  1  0
  9 26  1  0
 10 27  1  0
 12 28  1  0
 13 29  1  0
 14 30  1  0
 15 31  1  0
 17 32  1  0
M  CHG  2  19  -1  21  -1
M  END
>  <mol_id>  (12) 
2026-08-24-6tgu-s0-n100-0012

>  <rmsd_to_ref>  (12) 
0.9591836734744481

>  <pose_kind>  (12) 
rigid

$$$$
6tgu.A
     RDKit          3D

 32 34  0  0  0  0  0  0  0  0999 V2000
    2.9621   20.6299   36.7923 C   0  0  0  0  0  0  0  0  0  0  0  0
    2.4600   20.2061   38.1754 C   0  0  0  0  0  0  0  0  0  0  0  0
    1.6585   21.0605   38.9292 C   0  0  0  0  0  0  0  0  0  0  0  0
    1.0273   20.6409   40.1048 C   0  0  0  0  0  0  0  0  0  0  0  0
    1.3273   19.3867   40.6561 C   0  0  0  0  0  0  0  0  0  0  0  0
    0.4008   17.6501   42.2651 C   0  0  0  0  0  0  0  0  0  0  0  0
    0.5435   15.3807   42.3380 C   0  0  0  0  0  0  0  0  0  0  0  0
    1.0573   14.0695   41.9406 C   0  0  0  0  0  0  0  0  0  0  0  0
    0.5220   12.8768   42.4473 C   0  0  0  0  0  0  0  0  0  0  0  0
    1.0032   11.6396   42.0303 C   0  0  0  0  0  0  0  0  0  0  0  0
    1.9952   11.6038   41.0684 C   0  0  0  0  0  0  0  0  0  0  0  0
    2.5488   12.7587   40.5365 C   0  0  0  0  0  0  0  0  0  0  0  0
    2.0616   13.9868   40.9749 C   0  0  0  0  0  0  0  0  0  0  0  0
   -0.4742   15.5643   43.2364 C   0  0  0  0  0  0  0  0  0  0  0  0
    2.1236   18.5105   39.9048 C   0  0  0  0  0  0  0  0  0  0  0  0
    2.6745   18.9348   38.6943 C   0  0  0  0  0  0  0  0  0  0  0  0
    0.6444   18.9174   41.8199 N   0  0  0  0  0  0  0  0  0  0  0  0
    1.0062   16.5517   41.6924 N   0  0  0  0  0  0  0  0  0  0  0  0
    2.4782   21.7000   36.3191 O   0  0  0  0  0  0  0  0  0  0  0  0
    3.7443   19.8479   36.2091 O   0  0  0  0  0  0  0  0  0  0  0  0
    3.3656   18.0359   37.9170 O   0  0  0  0  0  0  0  0  0  0  0  0
   -0.9382   17.2216   43.3123 S   0  0  0  0  0  0  0  0  0  0  0  0
    2.5759   10.0702   40.5096 Cl  0  0  0  0  0  0  0  0  0  0  0  0
    1.5175   22.0971   38.5895 H   0  0  0  0  0  0  0  0  0  0  0  0
    0.2940   21.2960   40.5980 H   0  0  0  0  0  0  0  0  0  0  0  0
   -0.2916   12.9197   43.1864 H   0  0  0  0  0  0  0  0  0  0  0  0
    0.6023   10.7087   42.4577 H   0  0  0  0  0  0  0  0  0  0  0  0
    3.3522   12.7055   39.7872 H   0  0  0  0  0  0  0  0  0  0  0  0
    2.4775   14.9128   40.5508 H   0  0  0  0  0  0  0  0  0  0  0  0
   -0.9339   14.7605   43.8301 H   0  0  0  0  0  0  0  0  0  0  0  0
    2.3138   17.4900   40.2689 H   0  0  0  0  0  0  0  0  0  0  0  0
    0.2723   19.6622   42.4264 H   0  0  0  0  0  0  0  0  0  0  0  0
  1  2  1  0
  1 19  1  0
  1 20  2  0
  2  3  1  0
  2 16  2  0
  3  4  2  0
  4  5  1  0
  5 15  2  0
  5 17  1  0
  6 17  1  0
  6 18  2  0
  6 22  1  0
  7  8  1  0
  7 14  2  0
  7 18  1  0
  8  9  1  0
  8 13  2  0
  9 10  2  0
 10 11  1  0
 11 12  2  0
 11 23  1  0
 12 13  1  0
 14 22  1  0
 15 16  1  0
 16 21  1  0
  3 24  1  0
  4 25  1  0
  9 26  1  0
 10 27  1  0
 12 28  1  0
 13 29  1  0
 14 30  1  0
 15 31  1  0
 17 32  1  0
M  CHG  2  19  -1  21  -1
M  END
>  <mol_id>  (13) 
2026-08-24-6tgu-s0-n100-0013

>  <rmsd_to_ref>  (13) 
1.0051020408233196

>  <pose_kind>  (13) 
rigid

$$$$
6tgu.A
     RDKit          3D

 32 34  0  0  0  0  0  0  0  0999 V2000
    3.0848   20.7813   37.3605 C   0  0  0  0  0  0  0  0  0  0  0  0
    2.4804   20.2272   38.6537 C   0  0  0  0  0  0  0  0  0  0  0  0
    1.5402   20.9660   39.3683 C   0  0  0  0  0  0  0  0  0  0  0  0
    0.8284   20.4208   40.4419 C   0  0  0  0  0  0  0  0  0  0  0  0
    1.1706   19.1570   40.9443 C   0  0  0  0  0  0  0  0  0  0  0  0
    0.2278   17.2497   42.3360 C   0  0  0  0  0  0  0  0  0  0  0  0
    0.5443   14.9974   42.2849 C   0  0  0  0  0  0  0  0  0  0  0  0
    1.1997   13.7582   41.8654 C   0  0  0  0  0  0  0  0  0  0  0  0
    0.7133   12.4970   42.2381 C   0  0  0  0  0  0  0  0  0  0  0  0
    1.3324   11.3305   41.8001 C   0  0  0  0  0  0  0  0  0  0  0  0
    2.4167   11.4344   40.9494 C   0  0  0  0  0  0  0  0  0  0  0  0
    2.9269   12.6609   40.5511 C   0  0  0  0  0  0  0  0  0  0  0  0
    2.3004   13.8167   41.0092 C   0  0  0  0  0  0  0  0  0  0  0  0
   -0.5709   15.0429   43.0789 C   0  0  0  0  0  0  0  0  0  0  0  0
    2.1071   18.3957   40.2303 C   0  0  0  0  0  0  0  0  0  0  0  0
    2.7424   18.9422   39.1137 C   0  0  0  0  0  0  0  0  0  0  0  0
    0.4127   18.5594   41.9976 N   0  0  0  0  0  0  0  0  0  0  0  0
    0.9747   16.2411   41.7652 N   0  0  0  0  0  0  0  0  0  0  0  0
    2.5672   21.8432   36.9046 O   0  0  0  0  0  0  0  0  0  0  0  0
    3.9827   20.1012   36.8175 O   0  0  0  0  0  0  0  0  0  0  0  0
    3.5790   18.1525   38.3613 O   0  0  0  0  0  0  0  0  0  0  0  0
   -1.1721   16.6524   43.2060 S   0  0  0  0  0  0  0  0  0  0  0  0
    3.1726    9.9900   40.3631 Cl  0  0  0  0  0  0  0  0  0  0  0  0
    1.3516   22.0105   39.0794 H   0  0  0  0  0  0  0  0  0  0  0  0
   -0.0016   20.9844   40.8930 H   0  0  0  0  0  0  0  0  0  0  0  0
   -0.1721   12.4288   42.8874 H   0  0  0  0  0  0  0  0  0  0  0  0
    0.9662   10.3453   42.1245 H   0  0  0  0  0  0  0  0  0  0  0  0
    3.8042   12.7190   39.8901 H   0  0  0  0  0  0  0  0  0  0  0  0
    2.6815   14.7978   40.6894 H   0  0  0  0  0  0  0  0  0  0  0  0
   -1.0226   14.1684   43.5700 H   0  0  0  0  0  0  0  0  0  0  0  0
    2.3407   17.3694   40.5495 H   0  0  0  0  0  0  0  0  0  0  0  0
   -0.0779   19.2310   42.6053 H   0  0  0  0  0  0  0  0  0  0  0  0
  1  2  1  0
  1 19  1  0
  1 20  2  0
  2  3  1  0
  2 16  2  0
  3  4  2  0
  4  5  1  0
  5 15  2  0
  5 17  1  0
  6 17  1  0
  6 18  2  0
  6 22  1  0
  7  8  1  0
  7 14  2  0
  7 18  1  0
  8  9  1  0
  8 13  2  0
  9 10  2  0
 10 11  1  0
 11 12  2  0
 11 23  1  0
 12 13  1  0
 14 22  1  0
 15 16  1  0
 16 21  1  0
  3 24  1  0
  4 25  1  0
  9 26  1  0
 10 27  1  0
 12 28  1  0
 13 29  1  0
 14 30  1  0
 15 31  1  0
 17 32  1  0
M  CHG  2  19  -1  21  -1
M  END
>  <mol_id>  (14) 
2026-08-24-6tgu-s0-n100-0014

>  <rmsd_to_ref>  (14) 
1.0510204081651213

>  <pose_kind>  (14) 
rigid

$$$$
6tgu.A
     RDKit          3D

 32 34  0  0  0  0  0  0  0  0999 V2000
    2.8654   21.0130   37.3566 C   0  0  0  0  0  0  0  0  0  0  0  0
    2.4180   20.5183   38.7350 C   0  0  0  0  0  0  0  0  0  0  0  0
    1.6123   21.3154   39.5451 C   0  0  0  0  0  0  0  0  0  0  0  0
    1.0297   20.8290   40.7201 C   0  0  0  0  0  0  0  0  0  0  0  0
    1.3855   19.5645   41.2112 C   0  0  0  0  0  0  0  0  0  0  0  0
    0.5623   17.7360   42.7739 C   0  0  0  0  0  0  0  0  0  0  0  0
    0.7788   15.4714   42.7507 C   0  0  0  0  0  0  0  0  0  0  0  0
    1.3220   14.1946   42.2860 C   0  0  0  0  0  0  0  0  0  0  0  0
    0.8399   12.9657   42.7588 C   0  0  0  0  0  0  0  0  0  0  0  0
    1.3476   11.7625   42.2786 C   0  0  0  0  0  0  0  0  0  0  0  0
    2.3114   11.7975   41.2884 C   0  0  0  0  0  0  0  0  0  0  0  0
    2.8121   12.9900   40.7884 C   0  0  0  0  0  0  0  0  0  0  0  0
    2.2996   14.1833   41.2898 C   0  0  0  0  0  0  0  0  0  0  0  0
   -0.2172   15.5856   43.6840 C   0  0  0  0  0  0  0  0  0  0  0  0
    2.1865   18.7453   40.4030 C   0  0  0  0  0  0  0  0  0  0  0  0
    2.6878   19.2352   39.1956 C   0  0  0  0  0  0  0  0  0  0  0  0
    0.7523   19.0273   42.3739 N   0  0  0  0  0  0  0  0  0  0  0  0
    1.1850   16.6816   42.1404 N   0  0  0  0  0  0  0  0  0  0  0  0
    2.3341   22.0845   36.9411 O   0  0  0  0  0  0  0  0  0  0  0  0
    3.6544   20.2807   36.7202 O   0  0  0  0  0  0  0  0  0  0  0  0
    3.3837   18.3910   38.3632 O   0  0  0  0  0  0  0  0  0  0  0  0
   -0.7310   17.2226   43.8403 S   0  0  0  0  0  0  0  0  0  0  0  0
    2.9236   10.3070   40.6517 Cl  0  0  0  0  0  0  0  0  0  0  0  0
    1.4287   22.3595   39.2518 H   0  0  0  0  0  0  0  0  0  0  0  0
    0.2909   21.4396   41.2599 H   0  0  0  0  0  0  0  0  0  0  0  0
    0.0476   12.9525   43.5218 H   0  0  0  0  0  0  0  0  0  0  0  0
    0.9892   10.8027   42.6789 H   0  0  0  0  0  0  0  0  0  0  0  0
    3.5945   12.9931   40.0152 H   0  0  0  0  0  0  0  0  0  0  0  0
    2.6731   15.1384   40.8922 H   0  0  0  0  0  0  0  0  0  0  0  0
   -0.6334   14.7443   44.2575 H   0  0  0  0  0  0  0  0  0  0  0  0
    2.4197   17.7182   40.7197 H   0  0  0  0  0  0  0  0  0  0  0  0
    0.3749   19.7348   43.0204 H   0  0  0  0  0  0  0  0  0  0  0  0
  1  2  1  0
  1 19  1  0
  1 20  2  0
  2  3  1  0
  2 16  2  0
  3  4  2  0
  4  5  1  0
  5 15  2  0
  5 17  1  0
  6 17  1  0
  6 18  2  0
  6 22  1  0
  7  8  1  0
  7 14  2  0
  7 18  1  0
  8  9  1  0
  8 13  2  0
  9 10  2  0
 10 11  1  0
 11 12  2  0
 11 23  1  0
 12 13  1  0
 14 22  1  0
 15 16  1  0
 16 21  1  0
  3 24  1  0
  4 25  1  0
  9 26  1  0
 10 27  1  0
 12 28  1  0
 13 29  1  0
 14 30  1  0
 15 31  1  0
 17 32  1  0
M  CHG  2  19  -1  21  -1
M  END
>  <mol_id>  (15) 
2026-08-24-6tgu-s0-n100-0015

>  <rmsd_to_ref>  (15) 
1.0969387755175013

>  <pose_kind>  (15) 
rigid

$$$$
6tgu.A
     RDKit          3D

 32 34  0  0  0  0  0  0  0  0999 V2000
    3.0487   19.8103   36.8939 C   0  0  0  0  0  0  0  0  0  0  0  0
    2.5093   19.6746   38.3205 C   0  0  0  0  0  0  0  0  0  0  0  0
    1.7232   20.6804   38.8781 C   0  0  0  0  0  0  0  0  0  0  0  0
    1.0584   20.5127   40.0973 C   0  0  0  0  0  0  0  0  0  0  0  0
    1.3078   19.3797   40.8851 C   0  0  0  0  0  0  0  0  0  0  0  0
    0.2975   18.0117   42.7749 C   0  0  0  0  0  0  0  0  0  0  0  0
    0.3647   15.7954   43.2841 C   0  0  0  0  0  0  0  0  0  0  0  0
    0.8422   14.4181   43.1571 C   0  0  0  0  0  0  0  0  0  0  0  0
    0.2596   13.3607   43.8702 C   0  0  0  0  0  0  0  0  0  0  0  0
    0.7074   12.0532   43.7089 C   0  0  0  0  0  0  0  0  0  0  0  0
    1.7140   11.8049   42.7950 C   0  0  0  0  0  0  0  0  0  0  0  0
    2.3140   12.8197   42.0648 C   0  0  0  0  0  0  0  0  0  0  0  0
    1.8598   14.1228   42.2486 C   0  0  0  0  0  0  0  0  0  0  0  0
   -0.6618   16.1772   44.1069 C   0  0  0  0  0  0  0  0  0  0  0  0
    2.0879   18.3530   40.3342 C   0  0  0  0  0  0  0  0  0  0  0  0
    2.6732   18.5209   39.0780 C   0  0  0  0  0  0  0  0  0  0  0  0
    0.5899   19.1625   42.1011 N   0  0  0  0  0  0  0  0  0  0  0  0
    0.8765   16.8069   42.4373 N   0  0  0  0  0  0  0  0  0  0  0  0
    2.6083   20.7831   36.2136 O   0  0  0  0  0  0  0  0  0  0  0  0
    3.8149   18.9086   36.4894 O   0  0  0  0  0  0  0  0  0  0  0  0
    3.3478   17.4700   38.5032 O   0  0  0  0  0  0  0  0  0  0  0  0
   -1.0727   17.8309   43.8534 S   0  0  0  0  0  0  0  0  0  0  0  0
    2.2539   10.1764   42.5536 Cl  0  0  0  0  0  0  0  0  0  0  0  0
    1.6220   21.6362   38.3430 H   0  0  0  0  0  0  0  0  0  0  0  0
    0.3386   21.2711   40.4388 H   0  0  0  0  0  0  0  0  0  0  0  0
   -0.5647   13.5681   44.5683 H   0  0  0  0  0  0  0  0  0  0  0  0
    0.2689   11.2335   44.2971 H   0  0  0  0  0  0  0  0  0  0  0  0
    3.1283   12.6006   41.3583 H   0  0  0  0  0  0  0  0  0  0  0  0
    2.3129   14.9376   41.6649 H   0  0  0  0  0  0  0  0  0  0  0  0
   -1.1576   15.5160   44.8327 H   0  0  0  0  0  0  0  0  0  0  0  0
    2.2384   17.4164   40.8911 H   0  0  0  0  0  0  0  0  0  0  0  0
    0.2319   20.0202   42.5451 H   0  0  0  0  0  0  0  0  0  0  0  0
  1  2  1  0
  1 19  1  0
  1 20  2  0
  2  3  1  0
  2 16  2  0
  3  4  2  0
  4  5  1  0
  5 15  2  0
  5 17  1  0
  6 17  1  0
  6 18  2  0
  6 22  1  0
  7  8  1  0
  7 14  2  0
  7 18  1  0
  8  9  1  0
  8 13  2  0
  9 10  2  0
 10 11  1  0
 11 12  2  0
 11 23  1  0
 12 13  1  0
 14 22  1  0
 15 16  1  0
 16 21  1  0
  3 24  1  0
  4 25  1  0
  9 26  1  0
 10 27  1  0
 12 28  1  0
 13 29  1  0
 14 30  1  0
 15 31  1  0
 17 32  1  0
M  CHG  2  19  -1  21  -1
M  END
>  <mol_id>  (16) 
2026-08-24-6tgu-s0-n100-0016

>  <rmsd_to_ref>  (16) 
1.1428571428618988

>  <pose_kind>  (16) 
rigid

$$$$
6tgu.A
     RDKit          3D

 32 34  0  0  0  0  0  0  0  0999 V2000
    2.8943   20.0779   37.1468 C   0  0  0  0  0  0  0  0  0  0  0  0
    2.5421   19.9511   38.6315 C   0  0  0  0  0  0  0  0  0  0  0  0
    2.0023   21.0319   39.3251 C   0  0  0  0  0  0  0  0  0  0  0  0
    1.4939   20.9022   40.6217 C   0  0  0  0  0  0  0  0  0  0  0  0
    1.6740   19.7066   41.3324 C   0  0  0  0  0  0  0  0  0  0  0  0
    0.7371   18.4080   43.3070 C   0  0  0  0  0  0  0  0  0  0  0  0
    0.5360   16.1830   43.7367 C   0  0  0  0  0  0  0  0  0  0  0  0
    0.7765   14.7588   43.5024 C   0  0  0  0  0  0  0  0  0  0  0  0
    0.1435   13.7636   44.2607 C   0  0  0  0  0  0  0  0  0  0  0  0
    0.3608   12.4144   43.9989 C   0  0  0  0  0  0  0  0  0  0  0  0
    1.1826   12.0676   42.9431 C   0  0  0  0  0  0  0  0  0  0  0  0
    1.8237   13.0191   42.1642 C   0  0  0  0  0  0  0  0  0  0  0  0
    1.6025   14.3637   42.4491 C   0  0  0  0  0  0  0  0  0  0  0  0
   -0.2975   16.6692   44.7090 C   0  0  0  0  0  0  0  0  0  0  0  0
    2.2056   18.6058   40.6455 C   0  0  0  0  0  0  0  0  0  0  0  0
    2.6312   18.7492   39.3237 C   0  0  0  0  0  0  0  0  0  0  0  0
    1.1056   19.5360   42.6320 N   0  0  0  0  0  0  0  0  0  0  0  0
    1.0742   17.1499   42.8549 N   0  0  0  0  0  0  0  0  0  0  0  0
    2.5176   21.1375   36.5652 O   0  0  0  0  0  0  0  0  0  0  0  0
    3.4516   19.0952   36.6104 O   0  0  0  0  0  0  0  0  0  0  0  0
    3.0526   17.6410   38.6278 O   0  0  0  0  0  0  0  0  0  0  0  0
   -0.4831   18.3759   44.5653 S   0  0  0  0  0  0  0  0  0  0  0  0
    1.4301   10.3919   42.5795 Cl  0  0  0  0  0  0  0  0  0  0  0  0
    1.9750   22.0178   38.8381 H   0  0  0  0  0  0  0  0  0  0  0  0
    0.9516   21.7397   41.0850 H   0  0  0  0  0  0  0  0  0  0  0  0
   -0.5357   14.0542   45.0757 H   0  0  0  0  0  0  0  0  0  0  0  0
   -0.1121   11.6393   44.6199 H   0  0  0  0  0  0  0  0  0  0  0  0
    2.4901   12.7190   41.3420 H   0  0  0  0  0  0  0  0  0  0  0  0
    2.0896   15.1317   41.8303 H   0  0  0  0  0  0  0  0  0  0  0  0
   -0.7835   16.0520   45.4789 H   0  0  0  0  0  0  0  0  0  0  0  0
    2.2872   17.6304   41.1476 H   0  0  0  0  0  0  0  0  0  0  0  0
    0.9467   20.4135   43.1474 H   0  0  0  0  0  0  0  0  0  0  0  0
  1  2  1  0
  1 19  1  0
  1 20  2  0
  2  3  1  0
  2 16  2  0
  3  4  2  0
  4  5  1  0
  5 15  2  0
  5 17  1  0
  6 17  1  0
  6 18  2  0
  6 22  1  0
  7  8  1  0
  7 14  2  0
  7 18  1  0
  8  9  1  0
  8 13  2  0
  9 10  2  0
 10 11  1  0
 11 12  2  0
 11 23  1  0
 12 13  1  0
 14 22  1  0
 15 16  1  0
 16 21  1  0
  3 24  1  0
  4 25  1  0
  9 26  1  0
 10 27  1  0
 12 28  1  0
 13 29  1  0
 14 30  1  0
 15 31  1  0
 17 32  1  0
M  CHG  2  19  -1  21  -1
M  END
>  <mol_id>  (17) 
2026-08-24-6tgu-s0-n100-0017

>  <rmsd_to_ref>  (17) 
1.1887755102043018

>  <pose_kind>  (17) 
rigid

$$$$
6tgu.A
     RDKit          3D

 32 34  0  0  0  0  0  0  0  0999 V2000
    3.7903   20.2385   36.9380 C   0  0  0  0  0  0  0  0  0  0  0  0
    3.0953   20.1248   38.2978 C   0  0  0  0  0  0  0  0  0  0  0  0
    2.4225   21.2167   38.8418 C   0  0  0  0  0  0  0  0  0  0  0  0
    1.6204   21.1012   39.9817 C   0  0  0  0  0  0  0  0  0  0  0  0
    1.6104   19.9073   40.7175 C   0  0  0  0  0  0  0  0  0  0  0  0
    0.2148   18.6325   42.4177 C   0  0  0  0  0  0  0  0  0  0  0  0
   -0.1141   16.4129   42.7928 C   0  0  0  0  0  0  0  0  0  0  0  0
    0.1543   14.9843   42.6253 C   0  0  0  0  0  0  0  0  0  0  0  0
   -0.6541   14.0019   43.2148 C   0  0  0  0  0  0  0  0  0  0  0  0
   -0.4006   12.6485   43.0149 C   0  0  0  0  0  0  0  0  0  0  0  0
    0.6423   12.2848   42.1840 C   0  0  0  0  0  0  0  0  0  0  0  0
    1.4630   13.2231   41.5765 C   0  0  0  0  0  0  0  0  0  0  0  0
    1.2001   14.5721   41.7979 C   0  0  0  0  0  0  0  0  0  0  0  0
   -1.1467   16.9157   43.5395 C   0  0  0  0  0  0  0  0  0  0  0  0
    2.2732   18.7956   40.1783 C   0  0  0  0  0  0  0  0  0  0  0  0
    3.0011   18.9258   38.9941 C   0  0  0  0  0  0  0  0  0  0  0  0
    0.7486   19.7517   41.8464 N   0  0  0  0  0  0  0  0  0  0  0  0
    0.6310   17.3675   42.0610 N   0  0  0  0  0  0  0  0  0  0  0  0
    3.5769   21.3000   36.2816 O   0  0  0  0  0  0  0  0  0  0  0  0
    4.4442   19.2454   36.5508 O   0  0  0  0  0  0  0  0  0  0  0  0
    3.5590   17.8081   38.4202 O   0  0  0  0  0  0  0  0  0  0  0  0
   -1.2685   18.6238   43.3522 S   0  0  0  0  0  0  0  0  0  0  0  0
    0.9446   10.6039   41.8931 Cl  0  0  0  0  0  0  0  0  0  0  0  0
    2.5253   22.2001   38.3598 H   0  0  0  0  0  0  0  0  0  0  0  0
    0.9961   21.9484   40.3018 H   0  0  0  0  0  0  0  0  0  0  0  0
   -1.5024   14.3061   43.8456 H   0  0  0  0  0  0  0  0  0  0  0  0
   -1.0178   11.8833   43.5082 H   0  0  0  0  0  0  0  0  0  0  0  0
    2.3004   12.9094   40.9358 H   0  0  0  0  0  0  0  0  0  0  0  0
    1.8306   15.3301   41.3101 H   0  0  0  0  0  0  0  0  0  0  0  0
   -1.8097   16.3094   44.1742 H   0  0  0  0  0  0  0  0  0  0  0  0
    2.2198   17.8221   40.6876 H   0  0  0  0  0  0  0  0  0  0  0  0
    0.4851   20.6341   42.3076 H   0  0  0  0  0  0  0  0  0  0  0  0
  1  2  1  0
  1 19  1  0
  1 20  2  0
  2  3  1  0
  2 16  2  0
  3  4  2  0
  4  5  1  0
  5 15  2  0
  5 17  1  0
  6 17  1  0
  6 18  2  0
  6 22  1  0
  7  8  1  0
  7 14  2  0
  7 18  1  0
  8  9  1  0
  8 13  2  0
  9 10  2  0
 10 11  1  0
 11 12  2  0
 11 23  1  0
 12 13  1  0
 14 22  1  0
 15 16  1  0
 16 21  1  0
  3 24  1  0
  4 25  1  0
  9 26  1  0
 10 27  1  0
 12 28  1  0
 13 29  1  0
 14 30  1  0
 15 31  1  0
 17 32  1  0
M  CHG  2  19  -1  21  -1
M  END
>  <mol_id>  (18) 
2026-08-24-6tgu-s0-n100-0018

>  <rmsd_to_ref>  (18) 
1.234693877551823

>  <pose_kind>  (18) 
rigid

$$$$
6tgu.A
     RDKit          3D

 32 34  0  0  0  0  0  0  0  0999 V2000
    3.5242   20.6626   37.5138 C   0  0  0  0  0  0  0  0  0  0  0  0
    2.6609   20.2668   38.7149 C   0  0  0  0  0  0  0  0  0  0  0  0
    1.5309   21.0099   39.0493 C   0  0  0  0  0  0  0  0  0  0  0  0
    0.6162   20.5758   40.0144 C   0  0  0  0  0  0  0  0  0  0  0  0
    0.9058   19.4541   40.8047 C   0  0  0  0  0  0  0  0  0  0  0  0
   -0.2235   17.7116   42.2717 C   0  0  0  0  0  0  0  0  0  0  0  0
    0.2376   15.5270   42.7081 C   0  0  0  0  0  0  0  0  0  0  0  0
    1.0519   14.3116   42.6833 C   0  0  0  0  0  0  0  0  0  0  0  0
    0.5703   13.0843   43.1608 C   0  0  0  0  0  0  0  0  0  0  0  0
    1.3495   11.9333   43.0967 C   0  0  0  0  0  0  0  0  0  0  0  0
    2.5987   12.0099   42.5102 C   0  0  0  0  0  0  0  0  0  0  0  0
    3.1116   13.2014   42.0201 C   0  0  0  0  0  0  0  0  0  0  0  0
    2.3212   14.3444   42.1038 C   0  0  0  0  0  0  0  0  0  0  0  0
   -1.0373   15.5845   43.2059 C   0  0  0  0  0  0  0  0  0  0  0  0
    2.0334   18.6889   40.4742 C   0  0  0  0  0  0  0  0  0  0  0  0
    2.8844   19.1090   39.4504 C   0  0  0  0  0  0  0  0  0  0  0  0
   -0.0453   18.9605   41.7496 N   0  0  0  0  0  0  0  0  0  0  0  0
    0.7015   16.7073   42.0806 N   0  0  0  0  0  0  0  0  0  0  0  0
    3.0663   21.5754   36.7652 O   0  0  0  0  0  0  0  0  0  0  0  0
    4.5679   20.0008   37.3232 O   0  0  0  0  0  0  0  0  0  0  0  0
    3.9264   18.2990   39.0657 O   0  0  0  0  0  0  0  0  0  0  0  0
   -1.7517   17.1212   42.8954 S   0  0  0  0  0  0  0  0  0  0  0  0
    3.5638   10.5764   42.3864 Cl  0  0  0  0  0  0  0  0  0  0  0  0
    1.3524   21.9676   38.5384 H   0  0  0  0  0  0  0  0  0  0  0  0
   -0.3321   21.1155   40.1539 H   0  0  0  0  0  0  0  0  0  0  0  0
   -0.4397   13.0306   43.5931 H   0  0  0  0  0  0  0  0  0  0  0  0
    0.9786   10.9814   43.5046 H   0  0  0  0  0  0  0  0  0  0  0  0
    4.1173   13.2424   41.5765 H   0  0  0  0  0  0  0  0  0  0  0  0
    2.7057   15.2945   41.7044 H   0  0  0  0  0  0  0  0  0  0  0  0
   -1.5382   14.7595   43.7335 H   0  0  0  0  0  0  0  0  0  0  0  0
    2.2471   17.7587   41.0211 H   0  0  0  0  0  0  0  0  0  0  0  0
   -0.7097   19.6671   42.0961 H   0  0  0  0  0  0  0  0  0  0  0  0
  1  2  1  0
  1 19  1  0
  1 20  2  0
  2  3  1  0
  2 16  2  0
  3  4  2  0
  4  5  1  0
  5 15  2  0
  5 17  1  0
  6 17  1  0
  6 18  2  0
  6 22  1  0
  7  8  1  0
  7 14  2  0
  7 18  1  0
  8  9  1  0
  8 13  2  0
  9 10  2  0
 10 11  1  0
 11 12  2  0
 11 23  1  0
 12 13  1  0
 14 22  1  0
 15 16  1  0
 16 21  1  0
  3 24  1  0
  4 25  1  0
  9 26  1  0
 10 27  1  0
 12 28  1  0
 13 29  1  0
 14 30  1  0
 15 31  1  0
 17 32  1  0
M  CHG  2  19  -1  21  -1
M  END
>  <mol_id>  (19) 
2026-08-24-6tgu-s0-n100-0019

>  <rmsd_to_ref>  (19) 
1.2806122449024493

>  <pose_kind>  (19) 
rigid

$$$$
6tgu.A
     RDKit          3D

 32 34  0  0  0  0  0  0  0  0999 V2000
    2.6113   20.7244   37.3017 C   0  0  0  0  0  0  0  0  0  0  0  0
    2.5631   20.2868   38.6918 C   0  0  0  0  0  0  0  0  0  0  0  0
    1.7432   20.9326   39.5609 C   0  0  0  0  0  0  0  0  0  0  0  0
    1.6564   20.5225   40.8665 C   0  0  0  0  0  0  0  0  0  0  0  0
    2.4267   19.4417   41.2573 C   0  0  0  0  0  0  0  0  0  0  0  0
    1.6375   17.7586   42.8005 C   0  0  0  0  0  0  0  0  0  0  0  0
    0.6921   15.7271   43.0203 C   0  0  0  0  0  0  0  0  0  0  0  0
    0.8757   14.3162   43.4390 C   0  0  0  0  0  0  0  0  0  0  0  0
    2.0656   13.8337   43.9262 C   0  0  0  0  0  0  0  0  0  0  0  0
    2.1964   12.5145   44.3092 C   0  0  0  0  0  0  0  0  0  0  0  0
    1.1415   11.6322   44.2167 C   0  0  0  0  0  0  0  0  0  0  0  0
   -0.0789   12.1039   43.7207 C   0  0  0  0  0  0  0  0  0  0  0  0
   -0.1796   13.4262   43.3480 C   0  0  0  0  0  0  0  0  0  0  0  0
   -0.5031   16.1803   42.5613 C   0  0  0  0  0  0  0  0  0  0  0  0
    3.2711   18.7589   40.4127 C   0  0  0  0  0  0  0  0  0  0  0  0
    3.3367   19.1946   39.1037 C   0  0  0  0  0  0  0  0  0  0  0  0
    2.2452   19.0584   42.6461 N   0  0  0  0  0  0  0  0  0  0  0  0
    1.6389   16.6459   43.0705 N   0  0  0  0  0  0  0  0  0  0  0  0
    3.3862   20.1359   36.3216 O   0  0  0  0  0  0  0  0  0  0  0  0
    1.9013   21.7151   36.9337 O   0  0  0  0  0  0  0  0  0  0  0  0
    4.1628   18.5718   38.1727 O   0  0  0  0  0  0  0  0  0  0  0  0
   -0.1929   17.9580   42.2191 S   0  0  0  0  0  0  0  0  0  0  0  0
    1.2533    9.9466   44.6870 Cl  0  0  0  0  0  0  0  0  0  0  0  0
    1.1324   21.7903   39.2613 H   0  0  0  0  0  0  0  0  0  0  0  0
    1.0002   21.0301   41.5746 H   0  0  0  0  0  0  0  0  0  0  0  0
    2.9207   14.5228   44.0121 H   0  0  0  0  0  0  0  0  0  0  0  0
    3.1495   12.1678   44.7021 H   0  0  0  0  0  0  0  0  0  0  0  0
   -0.9405   11.4613   43.6269 H   0  0  0  0  0  0  0  0  0  0  0  0
   -1.1087   13.7724   42.9690 H   0  0  0  0  0  0  0  0  0  0  0  0
   -1.4915   15.7042   42.3877 H   0  0  0  0  0  0  0  0  0  0  0  0
    3.8521   17.9182   40.7601 H   0  0  0  0  0  0  0  0  0  0  0  0
    2.5301   19.6606   43.4245 H   0  0  0  0  0  0  0  0  0  0  0  0
  1  2  1  0
  1 19  1  0
  1 20  2  0
  2  3  1  0
  2 16  2  0
  3  4  2  0
  4  5  1  0
  5 15  2  0
  5 17  1  0
  6 17  1  0
  6 18  2  0
  6 22  1  0
  7  8  1  0
  7 14  2  0
  7 18  1  0
  8  9  1  0
  8 13  2  0
  9 10  2  0
 10 11  1  0
 11 12  2  0
 11 23  1  0
 12 13  1  0
 14 22  1  0
 15 16  1  0
 16 21  1  0
  3 24  1  0
  4 25  1  0
  9 26  1  0
 10 27  1  0
 12 28  1  0
 13 29  1  0
 14 30  1  0
 15 31  1  0
 17 32  1  0
M  CHG  2  19  -1  21  -1
M  END
>  <mol_id>  (20) 
2026-08-24-6tgu-s0-n100-0020

>  <rmsd_to_ref>  (20) 
1.3265306122453

>  <pose_kind>  (20) 
conformer

$$$$
6tgu.A
     RDKit          3D

 32 34  0  0  0  0  0  0  0  0999 V2000
    2.7993   20.3002   36.8350 C   0  0  0  0  0  0  0  0  0  0  0  0
    2.4602   20.1097   38.3160 C   0  0  0  0  0  0  0  0  0  0  0  0
    1.8795   21.1436   39.0471 C   0  0  0  0  0  0  0  0  0  0  0  0
    1.3834   20.9501   40.3406 C   0  0  0  0  0  0  0  0  0  0  0  0
    1.6167   19.7403   41.0105 C   0  0  0  0  0  0  0  0  0  0  0  0
    0.7445   18.3393   42.9442 C   0  0  0  0  0  0  0  0  0  0  0  0
    0.6381   16.0948   43.3005 C   0  0  0  0  0  0  0  0  0  0  0  0
    0.9363   14.6903   43.0181 C   0  0  0  0  0  0  0  0  0  0  0  0
    0.3490   13.6451   43.7452 C   0  0  0  0  0  0  0  0  0  0  0  0
    0.6209   12.3156   43.4380 C   0  0  0  0  0  0  0  0  0  0  0  0
    1.4510   12.0383   42.3682 C   0  0  0  0  0  0  0  0  0  0  0  0
    2.0481   13.0410   41.6190 C   0  0  0  0  0  0  0  0  0  0  0  0
    1.7727   14.3650   41.9492 C   0  0  0  0  0  0  0  0  0  0  0  0
   -0.2100   16.5134   44.2915 C   0  0  0  0  0  0  0  0  0  0  0  0
    2.1900   18.6858   40.2854 C   0  0  0  0  0  0  0  0  0  0  0  0
    2.6026   18.8904   38.9675 C   0  0  0  0  0  0  0  0  0  0  0  0
    1.0624   19.5033   42.3057 N   0  0  0  0  0  0  0  0  0  0  0  0
    1.1312   17.1119   42.4493 N   0  0  0  0  0  0  0  0  0  0  0  0
    2.3760   21.3618   36.2904 O   0  0  0  0  0  0  0  0  0  0  0  0
    3.3941   19.3598   36.2642 O   0  0  0  0  0  0  0  0  0  0  0  0
    3.0661   17.8244   38.2337 O   0  0  0  0  0  0  0  0  0  0  0  0
   -0.4669   18.2147   44.2053 S   0  0  0  0  0  0  0  0  0  0  0  0
    1.7660   10.3874   41.9482 Cl  0  0  0  0  0  0  0  0  0  0  0  0
    1.8088   22.1431   38.5932 H   0  0  0  0  0  0  0  0  0  0  0  0
    0.8092   21.7485   40.8334 H   0  0  0  0  0  0  0  0  0  0  0  0
   -0.3375   13.8800   44.5720 H   0  0  0  0  0  0  0  0  0  0  0  0
    0.1837   11.5013   44.0346 H   0  0  0  0  0  0  0  0  0  0  0  0
    2.7222   12.7962   40.7849 H   0  0  0  0  0  0  0  0  0  0  0  0
    2.2244   15.1727   41.3546 H   0  0  0  0  0  0  0  0  0  0  0  0
   -0.6659   15.8514   45.0423 H   0  0  0  0  0  0  0  0  0  0  0  0
    2.3145   17.6987   40.7546 H   0  0  0  0  0  0  0  0  0  0  0  0
    0.8698   20.3559   42.8506 H   0  0  0  0  0  0  0  0  0  0  0  0
  1  2  1  0
  1 19  1  0
  1 20  2  0
  2  3  1  0
  2 16  2  0
  3  4  2  0
  4  5  1  0
  5 15  2  0
  5 17  1  0
  6 17  1  0
  6 18  2  0
  6 22  1  0
  7  8  1  0
  7 14  2  0
  7 18  1  0
  8  9  1  0
  8 13  2  0
  9 10  2  0
 10 11  1  0
 11 12  2  0
 11 23  1  0
 12 13  1  0
 14 22  1  0
 15 16  1  0
 16 21  1  0
  3 24  1  0
  4 25  1  0
  9 26  1  0
 10 27  1  0
 12 28  1  0
 13 29  1  0
 14 30  1  0
 15 31  1  0
 17 32  1  0
M  CHG  2  19  -1  21  -1
M  END
>  <mol_id>  (21) 
2026-08-24-6tgu-s0-n100-0021

>  <rmsd_to_ref>  (21) 
1.3724489796003692

>  <pose_kind>  (21) 
rigid

$$$$
6tgu.A
     RDKit          3D

 32 34  0  0  0  0  0  0  0  0999 V2000
    2.7724   20.3213   37.0360 C   0  0  0  0  0  0  0  0  0  0  0  0
    2.6351   19.7076   38.3515 C   0  0  0  0  0  0  0  0  0  0  0  0
    1.9198   20.3506   39.3104 C   0  0  0  0  0  0  0  0  0  0  0  0
    1.7498   19.7817   40.5467 C   0  0  0  0  0  0  0  0  0  0  0  0
    2.3289   18.5462   40.7749 C   0  0  0  0  0  0  0  0  0  0  0  0
    1.2559   16.8154   42.0748 C   0  0  0  0  0  0  0  0  0  0  0  0
   -0.0103   14.9545   42.0174 C   0  0  0  0  0  0  0  0  0  0  0  0
   -0.0641   13.4882   42.2328 C   0  0  0  0  0  0  0  0  0  0  0  0
    1.0249   12.7548   42.6361 C   0  0  0  0  0  0  0  0  0  0  0  0
    0.9340   11.3917   42.8293 C   0  0  0  0  0  0  0  0  0  0  0  0
   -0.2490   10.7148   42.6247 C   0  0  0  0  0  0  0  0  0  0  0  0
   -1.3697   11.4436   42.2114 C   0  0  0  0  0  0  0  0  0  0  0  0
   -1.2491   12.8034   42.0285 C   0  0  0  0  0  0  0  0  0  0  0  0
   -1.1096   15.6560   41.6381 C   0  0  0  0  0  0  0  0  0  0  0  0
    3.0621   17.8595   39.8347 C   0  0  0  0  0  0  0  0  0  0  0  0
    3.2151   18.4572   38.5990 C   0  0  0  0  0  0  0  0  0  0  0  0
    2.0689   18.0073   42.0980 N   0  0  0  0  0  0  0  0  0  0  0  0
    1.0727   15.6906   42.1865 N   0  0  0  0  0  0  0  0  0  0  0  0
    3.4541   19.7570   35.9757 O   0  0  0  0  0  0  0  0  0  0  0  0
    2.2378   21.4559   36.8172 O   0  0  0  0  0  0  0  0  0  0  0  0
    3.9412   17.8443   37.5821 O   0  0  0  0  0  0  0  0  0  0  0  0
   -0.5098   17.3895   41.5449 S   0  0  0  0  0  0  0  0  0  0  0  0
   -0.4192    8.9845   42.8534 Cl  0  0  0  0  0  0  0  0  0  0  0  0
    1.4606   21.3296   39.1398 H   0  0  0  0  0  0  0  0  0  0  0  0
    1.1758   20.2857   41.3251 H   0  0  0  0  0  0  0  0  0  0  0  0
    1.9794   13.2766   42.8091 H   0  0  0  0  0  0  0  0  0  0  0  0
    1.8127   10.8428   43.1606 H   0  0  0  0  0  0  0  0  0  0  0  0
   -2.3231   10.9695   42.0371 H   0  0  0  0  0  0  0  0  0  0  0  0
   -2.1043   13.3460   41.7108 H   0  0  0  0  0  0  0  0  0  0  0  0
   -2.1599   15.3763   41.4091 H   0  0  0  0  0  0  0  0  0  0  0  0
    3.4939   16.8953   40.0554 H   0  0  0  0  0  0  0  0  0  0  0  0
    2.4377   18.4405   42.9502 H   0  0  0  0  0  0  0  0  0  0  0  0
  1  2  1  0
  1 19  1  0
  1 20  2  0
  2  3  1  0
  2 16  2  0
  3  4  2  0
  4  5  1  0
  5 15  2  0
  5 17  1  0
  6 17  1  0
  6 18  2  0
  6 22  1  0
  7  8  1  0
  7 14  2  0
  7 18  1  0
  8  9  1  0
  8 13  2  0
  9 10  2  0
 10 11  1  0
 11 12  2  0
 11 23  1  0
 12 13  1  0
 14 22  1  0
 15 16  1  0
 16 21  1  0
  3 24  1  0
  4 25  1  0
  9 26  1  0
 10 27  1  0
 12 28  1  0
 13 29  1  0
 14 30  1  0
 15 31  1  0
 17 32  1  0
M  CHG  2  19  -1  21  -1
M  END
>  <mol_id>  (22) 
2026-08-24-6tgu-s0-n100-0022

>  <rmsd_to_ref>  (22) 
1.418367346939807

>  <pose_kind>  (22) 
conformer

$$$$
6tgu.A
     RDKit          3D

 32 34  0  0  0  0  0  0  0  0999 V2000
    3.9424   19.5011   36.6110 C   0  0  0  0  0  0  0  0  0  0  0  0
    3.2837   19.4184   37.9907 C   0  0  0  0  0  0  0  0  0  0  0  0
    2.6272   20.5233   38.5284 C   0  0  0  0  0  0  0  0  0  0  0  0
    1.8553   20.4342   39.6915 C   0  0  0  0  0  0  0  0  0  0  0  0
    1.8630   19.2566   40.4532 C   0  0  0  0  0  0  0  0  0  0  0  0
    0.5110   18.0220   42.2171 C   0  0  0  0  0  0  0  0  0  0  0  0
    0.1888   15.8118   42.6489 C   0  0  0  0  0  0  0  0  0  0  0  0
    0.4505   14.3792   42.5055 C   0  0  0  0  0  0  0  0  0  0  0  0
   -0.3435   13.4116   43.1374 C   0  0  0  0  0  0  0  0  0  0  0  0
   -0.0975   12.0537   42.9603 C   0  0  0  0  0  0  0  0  0  0  0  0
    0.9226   11.6698   42.1102 C   0  0  0  0  0  0  0  0  0  0  0  0
    1.7282   12.5930   41.4609 C   0  0  0  0  0  0  0  0  0  0  0  0
    1.4735   13.9470   41.6598 C   0  0  0  0  0  0  0  0  0  0  0  0
   -0.8228   16.3327   43.4115 C   0  0  0  0  0  0  0  0  0  0  0  0
    2.5096   18.1321   39.9209 C   0  0  0  0  0  0  0  0  0  0  0  0
    3.2061   18.2350   38.7153 C   0  0  0  0  0  0  0  0  0  0  0  0
    1.0311   19.1273   41.6075 N   0  0  0  0  0  0  0  0  0  0  0  0
    0.9157   16.7486   41.8770 N   0  0  0  0  0  0  0  0  0  0  0  0
    3.7133   20.5485   35.9374 O   0  0  0  0  0  0  0  0  0  0  0  0
    4.5844   18.4985   36.2283 O   0  0  0  0  0  0  0  0  0  0  0  0
    3.7468   17.1040   38.1511 O   0  0  0  0  0  0  0  0  0  0  0  0
   -0.9470   18.0367   43.1904 S   0  0  0  0  0  0  0  0  0  0  0  0
    1.2145    9.9823   41.8480 Cl  0  0  0  0  0  0  0  0  0  0  0  0
    2.7187   21.4958   38.0226 H   0  0  0  0  0  0  0  0  0  0  0  0
    1.2410   21.2895   40.0094 H   0  0  0  0  0  0  0  0  0  0  0  0
   -1.1743   13.7312   43.7836 H   0  0  0  0  0  0  0  0  0  0  0  0
   -0.7025   11.3006   43.4864 H   0  0  0  0  0  0  0  0  0  0  0  0
    2.5479   12.2637   40.8053 H   0  0  0  0  0  0  0  0  0  0  0  0
    2.0919   14.6929   41.1391 H   0  0  0  0  0  0  0  0  0  0  0  0
   -1.4697   15.7418   44.0766 H   0  0  0  0  0  0  0  0  0  0  0  0
    2.4682   17.1699   40.4526 H   0  0  0  0  0  0  0  0  0  0  0  0
    0.7814   20.0201   42.0563 H   0  0  0  0  0  0  0  0  0  0  0  0
  1  2  1  0
  1 19  1  0
  1 20  2  0
  2  3  1  0
  2 16  2  0
  3  4  2  0
  4  5  1  0
  5 15  2  0
  5 17  1  0
  6 17  1  0
  6 18  2  0
  6 22  1  0
  7  8  1  0
  7 14  2  0
  7 18  1  0
  8  9  1  0
  8 13  2  0
  9 10  2  0
 10 11  1  0
 11 12  2  0
 11 23  1  0
 12 13  1  0
 14 22  1  0
 15 16  1  0
 16 21  1  0
  3 24  1  0
  4 25  1  0
  9 26  1  0
 10 27  1  0
 12 28  1  0
 13 29  1  0
 14 30  1  0
 15 31  1  0
 17 32  1  0
M  CHG  2  19  -1  21  -1
M  END
>  <mol_id>  (23) 
2026-08-24-6tgu-s0-n100-0023

>  <rmsd_to_ref>  (23) 
1.4642857142957943

>  <pose_kind>  (23) 
rigid

$$$$
6tgu.A
     RDKit          3D

 32 34  0  0  0  0  0  0  0  0999 V2000
    2.6935   20.8988   37.3522 C   0  0  0  0  0  0  0  0  0  0  0  0
    2.5351   20.3288   38.6849 C   0  0  0  0  0  0  0  0  0  0  0  0
    1.6669   20.9084   39.5536 C   0  0  0  0  0  0  0  0  0  0  0  0
    1.4766   20.3751   40.8027 C   0  0  0  0  0  0  0  0  0  0  0  0
    2.1949   19.2410   41.1376 C   0  0  0  0  0  0  0  0  0  0  0  0
    1.2619   17.4371   42.4461 C   0  0  0  0  0  0  0  0  0  0  0  0
    0.2629   15.4199   42.3954 C   0  0  0  0  0  0  0  0  0  0  0  0
    0.3876   13.9706   42.6837 C   0  0  0  0  0  0  0  0  0  0  0  0
    1.5289   13.4108   43.2036 C   0  0  0  0  0  0  0  0  0  0  0  0
    1.6051   12.0575   43.4618 C   0  0  0  0  0  0  0  0  0  0  0  0
    0.5427   11.2172   43.2077 C   0  0  0  0  0  0  0  0  0  0  0  0
   -0.6287   11.7677   42.6759 C   0  0  0  0  0  0  0  0  0  0  0  0
   -0.6758   13.1223   42.4303 C   0  0  0  0  0  0  0  0  0  0  0  0
   -0.8863   15.9478   41.9003 C   0  0  0  0  0  0  0  0  0  0  0  0
    3.0851   18.6216   40.2912 C   0  0  0  0  0  0  0  0  0  0  0  0
    3.2548   19.1812   39.0399 C   0  0  0  0  0  0  0  0  0  0  0  0
    1.9047   18.7289   42.4651 N   0  0  0  0  0  0  0  0  0  0  0  0
    1.2215   16.3036   42.6036 N   0  0  0  0  0  0  0  0  0  0  0  0
    3.5262   20.3882   36.3757 O   0  0  0  0  0  0  0  0  0  0  0  0
    2.0319   21.9394   37.0352 O   0  0  0  0  0  0  0  0  0  0  0  0
    4.1343   18.6304   38.1126 O   0  0  0  0  0  0  0  0  0  0  0  0
   -0.5169   17.7414   41.7592 S   0  0  0  0  0  0  0  0  0  0  0  0
    0.5863    9.4912   43.5148 Cl  0  0  0  0  0  0  0  0  0  0  0  0
    1.0967   21.8074   39.2984 H   0  0  0  0  0  0  0  0  0  0  0  0
    0.7807   20.8286   41.5095 H   0  0  0  0  0  0  0  0  0  0  0  0
    2.3889   14.0650   43.4178 H   0  0  0  0  0  0  0  0  0  0  0  0
    2.5200   11.6484   43.8848 H   0  0  0  0  0  0  0  0  0  0  0  0
   -1.4936   11.1608   42.4579 H   0  0  0  0  0  0  0  0  0  0  0  0
   -1.5676   13.5287   42.0228 H   0  0  0  0  0  0  0  0  0  0  0  0
   -1.8686   15.5176   41.6107 H   0  0  0  0  0  0  0  0  0  0  0  0
    3.6224   17.7356   40.5936 H   0  0  0  0  0  0  0  0  0  0  0  0
    2.1438   19.2443   43.3178 H   0  0  0  0  0  0  0  0  0  0  0  0
  1  2  1  0
  1 19  1  0
  1 20  2  0
  2  3  1  0
  2 16  2  0
  3  4  2  0
  4  5  1  0
  5 15  2  0
  5 17  1  0
  6 17  1  0
  6 18  2  0
  6 22  1  0
  7  8  1  0
  7 14  2  0
  7 18  1  0
  8  9  1  0
  8 13  2  0
  9 10  2  0
 10 11  1  0
 11 12  2  0
 11 23  1  0
 12 13  1  0
 14 22  1  0
 15 16  1  0
 16 21  1  0
  3 24  1  0
  4 25  1  0
  9 26  1  0
 10 27  1  0
 12 28  1  0
 13 29  1  0
 14 30  1  0
 15 31  1  0
 17 32  1  0
M  CHG  2  19  -1  21  -1
M  END
>  <mol_id>  (24) 
2026-08-24-6tgu-s0-n100-0024

>  <rmsd_to_ref>  (24) 
1.510204081635661

>  <pose_kind>  (24) 
conformer

$$$$
6tgu.A
     RDKit          3D

 32 34  0  0  0  0  0  0  0  0999 V2000
    3.0768   21.1277   37.1113 C   0  0  0  0  0  0  0  0  0  0  0  0
    2.4989   20.5323   38.3983 C   0  0  0  0  0  0  0  0  0  0  0  0
    1.5224   21.2172   39.1181 C   0  0  0  0  0  0  0  0  0  0  0  0
    0.8372   20.6276   40.1856 C   0  0  0  0  0  0  0  0  0  0  0  0
    1.2410   19.3778   40.6770 C   0  0  0  0  0  0  0  0  0  0  0  0
    0.3919   17.4135   42.0496 C   0  0  0  0  0  0  0  0  0  0  0  0
    0.8195   15.1801   41.9786 C   0  0  0  0  0  0  0  0  0  0  0  0
    1.5358   13.9787   41.5488 C   0  0  0  0  0  0  0  0  0  0  0  0
    1.1119   12.6917   41.9093 C   0  0  0  0  0  0  0  0  0  0  0  0
    1.7886   11.5613   41.4617 C   0  0  0  0  0  0  0  0  0  0  0  0
    2.8675   11.7265   40.6137 C   0  0  0  0  0  0  0  0  0  0  0  0
    3.3168   12.9803   40.2275 C   0  0  0  0  0  0  0  0  0  0  0  0
    2.6334   14.0995   40.6951 C   0  0  0  0  0  0  0  0  0  0  0  0
   -0.2975   15.1632   42.7712 C   0  0  0  0  0  0  0  0  0  0  0  0
    2.2147   18.6703   39.9576 C   0  0  0  0  0  0  0  0  0  0  0  0
    2.8236   19.2577   38.8471 C   0  0  0  0  0  0  0  0  0  0  0  0
    0.5122   18.7337   41.7236 N   0  0  0  0  0  0  0  0  0  0  0  0
    1.1885   16.4484   41.4711 N   0  0  0  0  0  0  0  0  0  0  0  0
    2.5078   22.1666   36.6642 O   0  0  0  0  0  0  0  0  0  0  0  0
    4.0078   20.4977   36.5635 O   0  0  0  0  0  0  0  0  0  0  0  0
    3.6991   18.5173   38.0888 O   0  0  0  0  0  0  0  0  0  0  0  0
   -0.9777   16.7397   42.9119 S   0  0  0  0  0  0  0  0  0  0  0  0
    3.6946   10.3267   40.0155 Cl  0  0  0  0  0  0  0  0  0  0  0  0
    1.2828   22.2537   38.8385 H   0  0  0  0  0  0  0  0  0  0  0  0
   -0.0202   21.1453   40.6404 H   0  0  0  0  0  0  0  0  0  0  0  0
    0.2303   12.5738   42.5564 H   0  0  0  0  0  0  0  0  0  0  0  0
    1.4712   10.5562   41.7764 H   0  0  0  0  0  0  0  0  0  0  0  0
    4.1909   13.0879   39.5685 H   0  0  0  0  0  0  0  0  0  0  0  0
    2.9658   15.1011   40.3848 H   0  0  0  0  0  0  0  0  0  0  0  0
   -0.7059   14.2629   43.2535 H   0  0  0  0  0  0  0  0  0  0  0  0
    2.4984   17.6539   40.2678 H   0  0  0  0  0  0  0  0  0  0  0  0
   -0.0117   19.3746   42.3365 H   0  0  0  0  0  0  0  0  0  0  0  0
  1  2  1  0
  1 19  1  0
  1 20  2  0
  2  3  1  0
  2 16  2  0
  3  4  2  0
  4  5  1  0
  5 15  2  0
  5 17  1  0
  6 17  1  0
  6 18  2  0
  6 22  1  0
  7  8  1  0
  7 14  2  0
  7 18  1  0
  8  9  1  0
  8 13  2  0
  9 10  2  0
 10 11  1  0
 11 12  2  0
 11 23  1  0
 12 13  1  0
 14 22  1  0
 15 16  1  0
 16 21  1  0
  3 24  1  0
  4 25  1  0
  9 26  1  0
 10 27  1  0
 12 28  1  0
 13 29  1  0
 14 30  1  0
 15 31  1  0
 17 32  1  0
M  CHG  2  19  -1  21  -1
M  END
>  <mol_id>  (25) 
2026-08-24-6tgu-s0-n100-0025

>  <rmsd_to_ref>  (25) 
1.5561224489799013

>  <pose_kind>  (25) 
rigid

$$$$
6tgu.A
     RDKit          3D

 32 34  0  0  0  0  0  0  0  0999 V2000
    2.7355   20.5959   36.9245 C   0  0  0  0  0  0  0  0  0  0  0  0
    2.6043   20.2299   38.3298 C   0  0  0  0  0  0  0  0  0  0  0  0
    1.8278   20.9923   39.1425 C   0  0  0  0  0  0  0  0  0  0  0  0
    1.6632   20.6534   40.4611 C   0  0  0  0  0  0  0  0  0  0  0  0
    2.3110   19.5219   40.9236 C   0  0  0  0  0  0  0  0  0  0  0  0
    1.3149   17.9972   42.5110 C   0  0  0  0  0  0  0  0  0  0  0  0
    0.1670   16.0801   42.7871 C   0  0  0  0  0  0  0  0  0  0  0  0
    0.1978   14.6790   43.2722 C   0  0  0  0  0  0  0  0  0  0  0  0
    1.3196   14.1055   43.8191 C   0  0  0  0  0  0  0  0  0  0  0  0
    1.3078   12.7990   44.2629 C   0  0  0  0  0  0  0  0  0  0  0  0
    0.1739   12.0208   44.1737 C   0  0  0  0  0  0  0  0  0  0  0  0
   -0.9790   12.5859   43.6175 C   0  0  0  0  0  0  0  0  0  0  0  0
   -0.9376   13.8930   43.1849 C   0  0  0  0  0  0  0  0  0  0  0  0
   -0.9637   16.6262   42.2696 C   0  0  0  0  0  0  0  0  0  0  0  0
    3.1076   18.7214   40.1378 C   0  0  0  0  0  0  0  0  0  0  0  0
    3.2537   19.0876   38.8140 C   0  0  0  0  0  0  0  0  0  0  0  0
    2.0526   19.2228   42.3209 N   0  0  0  0  0  0  0  0  0  0  0  0
    1.1983   16.9034   42.8289 N   0  0  0  0  0  0  0  0  0  0  0  0
    3.4762   19.8897   35.9970 O   0  0  0  0  0  0  0  0  0  0  0  0
    2.1380   21.6331   36.4907 O   0  0  0  0  0  0  0  0  0  0  0  0
    4.0404   18.3447   37.9389 O   0  0  0  0  0  0  0  0  0  0  0  0
   -0.4692   18.3473   41.8612 S   0  0  0  0  0  0  0  0  0  0  0  0
    0.1045   10.3558   44.7200 Cl  0  0  0  0  0  0  0  0  0  0  0  0
    1.3139   21.8907   38.7861 H   0  0  0  0  0  0  0  0  0  0  0  0
    1.0405   21.2550   41.1244 H   0  0  0  0  0  0  0  0  0  0  0  0
    2.2359   14.7111   43.9034 H   0  0  0  0  0  0  0  0  0  0  0  0
    2.2103   12.3794   44.7018 H   0  0  0  0  0  0  0  0  0  0  0  0
   -1.8970   12.0270   43.5231 H   0  0  0  0  0  0  0  0  0  0  0  0
   -1.8164   14.3104   42.7606 H   0  0  0  0  0  0  0  0  0  0  0  0
   -1.9891   16.2413   42.0840 H   0  0  0  0  0  0  0  0  0  0  0  0
    3.5922   17.8449   40.5403 H   0  0  0  0  0  0  0  0  0  0  0  0
    2.3732   19.8297   43.0816 H   0  0  0  0  0  0  0  0  0  0  0  0
  1  2  1  0
  1 19  1  0
  1 20  2  0
  2  3  1  0
  2 16  2  0
  3  4  2  0
  4  5  1  0
  5 15  2  0
  5 17  1  0
  6 17  1  0
  6 18  2  0
  6 22  1  0
  7  8  1  0
  7 14  2  0
  7 18  1  0
  8  9  1  0
  8 13  2  0
  9 10  2  0
 10 11  1  0
 11 12  2  0
 11 23  1  0
 12 13  1  0
 14 22  1  0
 15 16  1  0
 16 21  1  0
  3 24  1  0
  4 25  1  0
  9 26  1  0
 10 27  1  0
 12 28  1  0
 13 29  1  0
 14 30  1  0
 15 31  1  0
 17 32  1  0
M  CHG  2  19  -1  21  -1
M  END
>  <mol_id>  (26) 
2026-08-24-6tgu-s0-n100-0026

>  <rmsd_to_ref>  (26) 
1.6020408163296143

>  <pose_kind>  (26) 
conformer

$$$$
6tgu.A
     RDKit          3D

 32 34  0  0  0  0  0  0  0  0999 V2000
    3.6287   19.4597   36.5915 C   0  0  0  0  0  0  0  0  0  0  0  0
    2.9209   19.6177   37.9401 C   0  0  0  0  0  0  0  0  0  0  0  0
    2.2231   20.7855   38.2401 C   0  0  0  0  0  0  0  0  0  0  0  0
    1.4105   20.8939   39.3734 C   0  0  0  0  0  0  0  0  0  0  0  0
    1.4133   19.8792   40.3414 C   0  0  0  0  0  0  0  0  0  0  0  0
    0.0216   18.9589   42.2596 C   0  0  0  0  0  0  0  0  0  0  0  0
   -0.2725   16.8597   43.0860 C   0  0  0  0  0  0  0  0  0  0  0  0
    0.0229   15.4330   43.2214 C   0  0  0  0  0  0  0  0  0  0  0  0
   -0.7746   14.5792   43.9966 C   0  0  0  0  0  0  0  0  0  0  0  0
   -0.4951   13.2189   44.0845 C   0  0  0  0  0  0  0  0  0  0  0  0
    0.5632   12.7108   43.3550 C   0  0  0  0  0  0  0  0  0  0  0  0
    1.3739   13.5181   42.5714 C   0  0  0  0  0  0  0  0  0  0  0  0
    1.0849   14.8784   42.5054 C   0  0  0  0  0  0  0  0  0  0  0  0
   -1.3218   17.4866   43.7043 C   0  0  0  0  0  0  0  0  0  0  0  0
    2.1015   18.6928   40.0501 C   0  0  0  0  0  0  0  0  0  0  0  0
    2.8401   18.5881   38.8700 C   0  0  0  0  0  0  0  0  0  0  0  0
    0.5418   19.9449   41.4717 N   0  0  0  0  0  0  0  0  0  0  0  0
    0.4639   17.6557   42.1769 N   0  0  0  0  0  0  0  0  0  0  0  0
    3.4040   20.3571   35.7269 O   0  0  0  0  0  0  0  0  0  0  0  0
    4.3043   18.4208   36.4242 O   0  0  0  0  0  0  0  0  0  0  0  0
    3.4238   17.3866   38.5452 O   0  0  0  0  0  0  0  0  0  0  0  0
   -1.4716   19.1157   43.1647 S   0  0  0  0  0  0  0  0  0  0  0  0
    0.8982   11.0124   43.4224 Cl  0  0  0  0  0  0  0  0  0  0  0  0
    2.3139   21.6491   37.5647 H   0  0  0  0  0  0  0  0  0  0  0  0
    0.7679   21.7769   39.5056 H   0  0  0  0  0  0  0  0  0  0  0  0
   -1.6350   14.9914   44.5441 H   0  0  0  0  0  0  0  0  0  0  0  0
   -1.1043   12.5611   44.7220 H   0  0  0  0  0  0  0  0  0  0  0  0
    2.2237   13.0944   42.0161 H   0  0  0  0  0  0  0  0  0  0  0  0
    1.7073   15.5304   41.8751 H   0  0  0  0  0  0  0  0  0  0  0  0
   -1.9811   17.0127   44.4465 H   0  0  0  0  0  0  0  0  0  0  0  0
    2.0596   17.8457   40.7505 H   0  0  0  0  0  0  0  0  0  0  0  0
    0.2578   20.8986   41.7374 H   0  0  0  0  0  0  0  0  0  0  0  0
  1  2  1  0
  1 19  1  0
  1 20  2  0
  2  3  1  0
  2 16  2  0
  3  4  2  0
  4  5  1  0
  5 15  2  0
  5 17  1  0
  6 17  1  0
  6 18  2  0
  6 22  1  0
  7  8  1  0
  7 14  2  0
  7 18  1  0
  8  9  1  0
  8 13  2  0
  9 10  2  0
 10 11  1  0
 11 12  2  0
 11 23  1  0
 12 13  1  0
 14 22  1  0
 15 16  1  0
 16 21  1  0
  3 24  1  0
  4 25  1  0
  9 26  1  0
 10 27  1  0
 12 28  1  0
 13 29  1  0
 14 30  1  0
 15 31  1  0
 17 32  1  0
M  CHG  2  19  -1  21  -1
M  END
>  <mol_id>  (27) 
2026-08-24-6tgu-s0-n100-0027

>  <rmsd_to_ref>  (27) 
1.647959183682618

>  <pose_kind>  (27) 
rigid

$$$$
6tgu.A
     RDKit          3D

 32 34  0  0  0  0  0  0  0  0999 V2000
    2.9013   20.3255   37.1742 C   0  0  0  0  0  0  0  0  0  0  0  0
    2.5141   20.0299   38.5485 C   0  0  0  0  0  0  0  0  0  0  0  0
    1.3851   20.5914   39.0533 C   0  0  0  0  0  0  0  0  0  0  0  0
    0.9819   20.3066   40.3327 C   0  0  0  0  0  0  0  0  0  0  0  0
    1.7602   19.4388   41.0778 C   0  0  0  0  0  0  0  0  0  0  0  0
    0.8215   17.8009   42.5855 C   0  0  0  0  0  0  0  0  0  0  0  0
    0.1791   15.6588   42.8462 C   0  0  0  0  0  0  0  0  0  0  0  0
    0.4471   14.3592   43.5084 C   0  0  0  0  0  0  0  0  0  0  0  0
    1.5003   14.1654   44.3684 C   0  0  0  0  0  0  0  0  0  0  0  0
    1.7146   12.9415   44.9683 C   0  0  0  0  0  0  0  0  0  0  0  0
    0.8834   11.8688   44.7278 C   0  0  0  0  0  0  0  0  0  0  0  0
   -0.1943   12.0451   43.8529 C   0  0  0  0  0  0  0  0  0  0  0  0
   -0.3839   13.2787   43.2705 C   0  0  0  0  0  0  0  0  0  0  0  0
   -0.8828   15.8258   42.0162 C   0  0  0  0  0  0  0  0  0  0  0  0
    2.9109   18.8484   40.6086 C   0  0  0  0  0  0  0  0  0  0  0  0
    3.2910   19.1537   39.3162 C   0  0  0  0  0  0  0  0  0  0  0  0
    1.2392   19.1705   42.4064 N   0  0  0  0  0  0  0  0  0  0  0  0
    0.9154   16.7423   43.0116 N   0  0  0  0  0  0  0  0  0  0  0  0
    4.0117   19.8002   36.5430 O   0  0  0  0  0  0  0  0  0  0  0  0
    2.1869   21.1193   36.4809 O   0  0  0  0  0  0  0  0  0  0  0  0
    4.4405   18.6097   38.7510 O   0  0  0  0  0  0  0  0  0  0  0  0
   -0.7642   17.5859   41.5051 S   0  0  0  0  0  0  0  0  0  0  0  0
    1.1108   10.2922   45.4614 Cl  0  0  0  0  0  0  0  0  0  0  0  0
    0.7647   21.2813   38.4722 H   0  0  0  0  0  0  0  0  0  0  0  0
    0.0761   20.7482   40.7501 H   0  0  0  0  0  0  0  0  0  0  0  0
    2.1749   15.0108   44.5776 H   0  0  0  0  0  0  0  0  0  0  0  0
    2.5514   12.8255   45.6536 H   0  0  0  0  0  0  0  0  0  0  0  0
   -0.8800   11.2432   43.6273 H   0  0  0  0  0  0  0  0  0  0  0  0
   -1.2019   13.4004   42.6051 H   0  0  0  0  0  0  0  0  0  0  0  0
   -1.6902   15.1539   41.6549 H   0  0  0  0  0  0  0  0  0  0  0  0
    3.4864   18.1742   41.2245 H   0  0  0  0  0  0  0  0  0  0  0  0
    1.1855   19.8920   43.1320 H   0  0  0  0  0  0  0  0  0  0  0  0
  1  2  1  0
  1 19  1  0
  1 20  2  0
  2  3  1  0
  2 16  2  0
  3  4  2  0
  4  5  1  0
  5 15  2  0
  5 17  1  0
  6 17  1  0
  6 18  2  0
  6 22  1  0
  7  8  1  0
  7 14  2  0
  7 18  1  0
  8  9  1  0
  8 13  2  0
  9 10  2  0
 10 11  1  0
 11 12  2  0
 11 23  1  0
 12 13  1  0
 14 22  1  0
 15 16  1  0
 16 21  1  0
  3 24  1  0
  4 25  1  0
  9 26  1  0
 10 27  1  0
 12 28  1  0
 13 29  1  0
 14 30  1  0
 15 31  1  0
 17 32  1  0
M  CHG  2  19  -1  21  -1
M  END
>  <mol_id>  (28) 
2026-08-24-6tgu-s0-n100-0028

>  <rmsd_to_ref>  (28) 
1.6938775510212907

>  <pose_kind>  (28) 
conformer

$$$$
6tgu.A
     RDKit          3D

 32 34  0  0  0  0  0  0  0  0999 V2000
    3.7149   19.5024   36.5108 C   0  0  0  0  0  0  0  0  0  0  0  0
    3.2010   19.5345   37.9528 C   0  0  0  0  0  0  0  0  0  0  0  0
    2.7251   20.7202   38.5078 C   0  0  0  0  0  0  0  0  0  0  0  0
    2.0757   20.7516   39.7463 C   0  0  0  0  0  0  0  0  0  0  0  0
    2.0401   19.6042   40.5519 C   0  0  0  0  0  0  0  0  0  0  0  0
    0.7602   18.5791   42.4947 C   0  0  0  0  0  0  0  0  0  0  0  0
    0.2548   16.4314   43.0495 C   0  0  0  0  0  0  0  0  0  0  0  0
    0.3476   14.9752   42.9403 C   0  0  0  0  0  0  0  0  0  0  0  0
   -0.4722   14.1197   43.6899 C   0  0  0  0  0  0  0  0  0  0  0  0
   -0.3906   12.7383   43.5458 C   0  0  0  0  0  0  0  0  0  0  0  0
    0.4875   12.2196   42.6129 C   0  0  0  0  0  0  0  0  0  0  0  0
    1.3126   13.0291   41.8467 C   0  0  0  0  0  0  0  0  0  0  0  0
    1.2241   14.4084   42.0136 C   0  0  0  0  0  0  0  0  0  0  0  0
   -0.6099   17.0828   43.8888 C   0  0  0  0  0  0  0  0  0  0  0  0
    2.5048   18.4000   40.0041 C   0  0  0  0  0  0  0  0  0  0  0  0
    3.0765   18.3894   38.7305 C   0  0  0  0  0  0  0  0  0  0  0  0
    1.3262   19.6019   41.7896 N   0  0  0  0  0  0  0  0  0  0  0  0
    0.9904   17.2594   42.1689 N   0  0  0  0  0  0  0  0  0  0  0  0
    3.5273   20.5473   35.8208 O   0  0  0  0  0  0  0  0  0  0  0  0
    4.2037   18.4245   36.1071 O   0  0  0  0  0  0  0  0  0  0  0  0
    3.4325   17.1893   38.1621 O   0  0  0  0  0  0  0  0  0  0  0  0
   -0.5768   18.7825   43.6103 S   0  0  0  0  0  0  0  0  0  0  0  0
    0.5709   10.5031   42.3933 Cl  0  0  0  0  0  0  0  0  0  0  0  0
    2.8642   21.6610   37.9551 H   0  0  0  0  0  0  0  0  0  0  0  0
    1.5920   21.6782   40.0891 H   0  0  0  0  0  0  0  0  0  0  0  0
   -1.1917   14.5478   44.4036 H   0  0  0  0  0  0  0  0  0  0  0  0
   -1.0124   12.0722   44.1620 H   0  0  0  0  0  0  0  0  0  0  0  0
    2.0189   12.5924   41.1253 H   0  0  0  0  0  0  0  0  0  0  0  0
    1.8590   15.0659   41.4017 H   0  0  0  0  0  0  0  0  0  0  0  0
   -1.2412   16.5866   44.6407 H   0  0  0  0  0  0  0  0  0  0  0  0
    2.4190   17.4650   40.5770 H   0  0  0  0  0  0  0  0  0  0  0  0
    1.2207   20.5299   42.2236 H   0  0  0  0  0  0  0  0  0  0  0  0
  1  2  1  0
  1 19  1  0
  1 20  2  0
  2  3  1  0
  2 16  2  0
  3  4  2  0
  4  5  1  0
  5 15  2  0
  5 17  1  0
  6 17  1  0
  6 18  2  0
  6 22  1  0
  7  8  1  0
  7 14  2  0
  7 18  1  0
  8  9  1  0
  8 13  2  0
  9 10  2  0
 10 11  1  0
 11 12  2  0
 11 23  1  0
 12 13  1  0
 14 22  1  0
 15 16  1  0
 16 21  1  0
  3 24  1  0
  4 25  1  0
  9 26  1  0
 10 27  1  0
 12 28  1  0
 13 29  1  0
 14 30  1  0
 15 31  1  0
 17 32  1  0
M  CHG  2  19  -1  21  -1
M  END
>  <mol_id>  (29) 
2026-08-24-6tgu-s0-n100-0029

>  <rmsd_to_ref>  (29) 
1.7397959183722373

>  <pose_kind>  (29) 
rigid

$$$$
6tgu.A
     RDKit          3D

 32 34  0  0  0  0  0  0  0  0999 V2000
    2.0108   21.2591   36.8330 C   0  0  0  0  0  0  0  0  0  0  0  0
    2.0657   20.5907   38.1277 C   0  0  0  0  0  0  0  0  0  0  0  0
    1.0738   20.8108   39.0289 C   0  0  0  0  0  0  0  0  0  0  0  0
    1.0854   20.1717   40.2422 C   0  0  0  0  0  0  0  0  0  0  0  0
    2.1331   19.3081   40.5079 C   0  0  0  0  0  0  0  0  0  0  0  0
    1.8462   17.2267   41.7006 C   0  0  0  0  0  0  0  0  0  0  0  0
    1.5405   15.0031   41.5236 C   0  0  0  0  0  0  0  0  0  0  0  0
    2.1251   13.6547   41.7221 C   0  0  0  0  0  0  0  0  0  0  0  0
    3.3943   13.4582   42.2087 C   0  0  0  0  0  0  0  0  0  0  0  0
    3.9018   12.1870   42.3830 C   0  0  0  0  0  0  0  0  0  0  0  0
    3.1578   11.0685   42.0754 C   0  0  0  0  0  0  0  0  0  0  0  0
    1.8629   11.2473   41.5762 C   0  0  0  0  0  0  0  0  0  0  0  0
    1.3828   12.5282   41.4147 C   0  0  0  0  0  0  0  0  0  0  0  0
    0.2744   15.1654   41.0597 C   0  0  0  0  0  0  0  0  0  0  0  0
    3.1590   19.0559   39.6267 C   0  0  0  0  0  0  0  0  0  0  0  0
    3.1195   19.7134   38.4127 C   0  0  0  0  0  0  0  0  0  0  0  0
    2.0447   18.6525   41.8006 N   0  0  0  0  0  0  0  0  0  0  0  0
    2.1716   16.1323   41.7878 N   0  0  0  0  0  0  0  0  0  0  0  0
    2.9451   21.0993   35.8286 O   0  0  0  0  0  0  0  0  0  0  0  0
    1.0468   22.0513   36.5796 O   0  0  0  0  0  0  0  0  0  0  0  0
    4.1118   19.5276   37.4549 O   0  0  0  0  0  0  0  0  0  0  0  0
    0.0512   16.9882   41.0304 S   0  0  0  0  0  0  0  0  0  0  0  0
    3.7540    9.4315   42.2755 Cl  0  0  0  0  0  0  0  0  0  0  0  0
    0.2426   21.4945   38.8284 H   0  0  0  0  0  0  0  0  0  0  0  0
    0.2940   20.3370   40.9743 H   0  0  0  0  0  0  0  0  0  0  0  0
    4.0050   14.3386   42.4646 H   0  0  0  0  0  0  0  0  0  0  0  0
    4.9067   12.0667   42.7818 H   0  0  0  0  0  0  0  0  0  0  0  0
    1.2323   10.4103   41.3195 H   0  0  0  0  0  0  0  0  0  0  0  0
    0.4008   12.6526   41.0312 H   0  0  0  0  0  0  0  0  0  0  0  0
   -0.5248   14.4625   40.7421 H   0  0  0  0  0  0  0  0  0  0  0  0
    3.9557   18.3712   39.8748 H   0  0  0  0  0  0  0  0  0  0  0  0
    2.1225   19.1659   42.6839 H   0  0  0  0  0  0  0  0  0  0  0  0
  1  2  1  0
  1 19  1  0
  1 20  2  0
  2  3  1  0
  2 16  2  0
  3  4  2  0
  4  5  1  0
  5 15  2  0
  5 17  1  0
  6 17  1  0
  6 18  2  0
  6 22  1  0
  7  8  1  0
  7 14  2  0
  7 18  1  0
  8  9  1  0
  8 13  2  0
  9 10  2  0
 10 11  1  0
 11 12  2  0
 11 23  1  0
 12 13  1  0
 14 22  1  0
 15 16  1  0
 16 21  1  0
  3 24  1  0
  4 25  1  0
  9 26  1  0
 10 27  1  0
 12 28  1  0
 13 29  1  0
 14 30  1  0
 15 31  1  0
 17 32  1  0
M  CHG  2  19  -1  21  -1
M  END
>  <mol_id>  (30) 
2026-08-24-6tgu-s0-n100-0030

>  <rmsd_to_ref>  (30) 
1.7857142857164865

>  <pose_kind>  (30) 
conformer

$$$$
6tgu.A
     RDKit          3D

 32 34  0  0  0  0  0  0  0  0999 V2000
    3.2073   19.9975   37.4672 C   0  0  0  0  0  0  0  0  0  0  0  0
    2.6619   19.5427   38.8237 C   0  0  0  0  0  0  0  0  0  0  0  0
    2.0410   20.4518   39.6773 C   0  0  0  0  0  0  0  0  0  0  0  0
    1.3657   20.0433   40.8322 C   0  0  0  0  0  0  0  0  0  0  0  0
    1.4448   18.7099   41.2595 C   0  0  0  0  0  0  0  0  0  0  0  0
    0.2495   17.0232   42.7394 C   0  0  0  0  0  0  0  0  0  0  0  0
   -0.0175   14.7679   42.6061 C   0  0  0  0  0  0  0  0  0  0  0  0
    0.2444   13.4291   42.0769 C   0  0  0  0  0  0  0  0  0  0  0  0
   -0.4877   12.3085   42.4941 C   0  0  0  0  0  0  0  0  0  0  0  0
   -0.2447   11.0498   41.9530 C   0  0  0  0  0  0  0  0  0  0  0  0
    0.7071   10.9282   40.9582 C   0  0  0  0  0  0  0  0  0  0  0  0
    1.4501   12.0107   40.5119 C   0  0  0  0  0  0  0  0  0  0  0  0
    1.2001   13.2597   41.0737 C   0  0  0  0  0  0  0  0  0  0  0  0
   -0.9693   15.0447   43.5516 C   0  0  0  0  0  0  0  0  0  0  0  0
    2.0566   17.7800   40.4068 C   0  0  0  0  0  0  0  0  0  0  0  0
    2.6532   18.2107   39.2203 C   0  0  0  0  0  0  0  0  0  0  0  0
    0.7093   18.2631   42.4001 N   0  0  0  0  0  0  0  0  0  0  0  0
    0.6369   15.8930   42.0514 N   0  0  0  0  0  0  0  0  0  0  0  0
    2.9156   21.1760   37.1075 O   0  0  0  0  0  0  0  0  0  0  0  0
    3.8253   19.1467   36.7905 O   0  0  0  0  0  0  0  0  0  0  0  0
    3.1570   17.2797   38.3433 O   0  0  0  0  0  0  0  0  0  0  0  0
   -1.1259   16.7438   43.7898 S   0  0  0  0  0  0  0  0  0  0  0  0
    0.9920    9.3747   40.2462 Cl  0  0  0  0  0  0  0  0  0  0  0  0
    2.0831   21.5241   39.4357 H   0  0  0  0  0  0  0  0  0  0  0  0
    0.7713   20.7694   41.4062 H   0  0  0  0  0  0  0  0  0  0  0  0
   -1.2669   12.4262   43.2616 H   0  0  0  0  0  0  0  0  0  0  0  0
   -0.7991   10.1692   42.3097 H   0  0  0  0  0  0  0  0  0  0  0  0
    2.2173   11.8858   39.7336 H   0  0  0  0  0  0  0  0  0  0  0  0
    1.7682   14.1324   40.7193 H   0  0  0  0  0  0  0  0  0  0  0  0
   -1.5555   14.2837   44.0874 H   0  0  0  0  0  0  0  0  0  0  0  0
    2.0664   16.7126   40.6723 H   0  0  0  0  0  0  0  0  0  0  0  0
    0.4884   19.0023   43.0824 H   0  0  0  0  0  0  0  0  0  0  0  0
  1  2  1  0
  1 19  1  0
  1 20  2  0
  2  3  1  0
  2 16  2  0
  3  4  2  0
  4  5  1  0
  5 15  2  0
  5 17  1  0
  6 17  1  0
  6 18  2  0
  6 22  1  0
  7  8  1  0
  7 14  2  0
  7 18  1  0
  8  9  1  0
  8 13  2  0
  9 10  2  0
 10 11  1  0
 11 12  2  0
 11 23  1  0
 12 13  1  0
 14 22  1  0
 15 16  1  0
 16 21  1  0
  3 24  1  0
  4 25  1  0
  9 26  1  0
 10 27  1  0
 12 28  1  0
 13 29  1  0
 14 30  1  0
 15 31  1  0
 17 32  1  0
M  CHG  2  19  -1  21  -1
M  END
>  <mol_id>  (31) 
2026-08-24-6tgu-s0-n100-0031

>  <rmsd_to_ref>  (31) 
1.8316326530697669

>  <pose_kind>  (31) 
rigid

$$$$
6tgu.A
     RDKit          3D

 32 34  0  0  0  0  0  0  0  0999 V2000
    3.0971   20.0260   36.6543 C   0  0  0  0  0  0  0  0  0  0  0  0
    3.0427   19.6879   38.0716 C   0  0  0  0  0  0  0  0  0  0  0  0
    2.4201   20.5357   38.9308 C   0  0  0  0  0  0  0  0  0  0  0  0
    2.3284   20.2275   40.2639 C   0  0  0  0  0  0  0  0  0  0  0  0
    2.8883   19.0371   40.6923 C   0  0  0  0  0  0  0  0  0  0  0  0
    1.8687   17.6411   42.3801 C   0  0  0  0  0  0  0  0  0  0  0  0
    0.5503   15.8602   42.7797 C   0  0  0  0  0  0  0  0  0  0  0  0
    0.4719   14.4680   43.2845 C   0  0  0  0  0  0  0  0  0  0  0  0
    1.5673   13.7823   43.7495 C   0  0  0  0  0  0  0  0  0  0  0  0
    1.4533   12.4884   44.2150 C   0  0  0  0  0  0  0  0  0  0  0  0
    0.2398   11.8353   44.2302 C   0  0  0  0  0  0  0  0  0  0  0  0
   -0.8881   12.5158   43.7586 C   0  0  0  0  0  0  0  0  0  0  0  0
   -0.7437   13.8073   43.3019 C   0  0  0  0  0  0  0  0  0  0  0  0
   -0.5545   16.5199   42.3451 C   0  0  0  0  0  0  0  0  0  0  0  0
    3.5288   18.1494   39.8589 C   0  0  0  0  0  0  0  0  0  0  0  0
    3.6045   18.4867   38.5216 C   0  0  0  0  0  0  0  0  0  0  0  0
    2.7142   18.7791   42.1106 N   0  0  0  0  0  0  0  0  0  0  0  0
    1.6631   16.5687   42.7248 N   0  0  0  0  0  0  0  0  0  0  0  0
    3.6807   19.2368   35.6826 O   0  0  0  0  0  0  0  0  0  0  0  0
    2.5796   21.1175   36.2521 O   0  0  0  0  0  0  0  0  0  0  0  0
    4.2342   17.6566   37.5990 O   0  0  0  0  0  0  0  0  0  0  0  0
    0.0848   18.1746   41.8693 S   0  0  0  0  0  0  0  0  0  0  0  0
    0.0391   10.1919   44.8084 Cl  0  0  0  0  0  0  0  0  0  0  0  0
    1.9770   21.4810   38.6014 H   0  0  0  0  0  0  0  0  0  0  0  0
    1.8292   20.8978   40.9646 H   0  0  0  0  0  0  0  0  0  0  0  0
    2.5465   14.2870   43.7498 H   0  0  0  0  0  0  0  0  0  0  0  0
    2.3389   11.9783   44.5874 H   0  0  0  0  0  0  0  0  0  0  0  0
   -1.8648   12.0575   43.7475 H   0  0  0  0  0  0  0  0  0  0  0  0
   -1.6050   14.3129   42.9423 H   0  0  0  0  0  0  0  0  0  0  0  0
   -1.6265   16.2454   42.2488 H   0  0  0  0  0  0  0  0  0  0  0  0
    3.9489   17.2295   40.2361 H   0  0  0  0  0  0  0  0  0  0  0  0
    3.1583   19.3545   42.8328 H   0  0  0  0  0  0  0  0  0  0  0  0
  1  2  1  0
  1 19  1  0
  1 20  2  0
  2  3  1  0
  2 16  2  0
  3  4  2  0
  4  5  1  0
  5 15  2  0
  5 17  1  0
  6 17  1  0
  6 18  2  0
  6 22  1  0
  7  8  1  0
  7 14  2  0
  7 18  1  0
  8  9  1  0
  8 13  2  0
  9 10  2  0
 10 11  1  0
 11 12  2  0
 11 23  1  0
 12 13  1  0
 14 22  1  0
 15 16  1  0
 16 21  1  0
  3 24  1  0
  4 25  1  0
  9 26  1  0
 10 27  1  0
 12 28  1  0
 13 29  1  0
 14 30  1  0
 15 31  1  0
 17 32  1  0
M  CHG  2  19  -1  21  -1
M  END
>  <mol_id>  (32) 
2026-08-24-6tgu-s0-n100-0032

>  <rmsd_to_ref>  (32) 
1.8775510204089336

>  <pose_kind>  (32) 
conformer

$$$$
6tgu.A
     RDKit          3D

 32 34  0  0  0  0  0  0  0  0999 V2000
    3.9147   19.0948   36.5639 C   0  0  0  0  0  0  0  0  0  0  0  0
    3.2869   19.1951   37.9569 C   0  0  0  0  0  0  0  0  0  0  0  0
    2.6380   20.3608   38.3580 C   0  0  0  0  0  0  0  0  0  0  0  0
    1.8924   20.4260   39.5397 C   0  0  0  0  0  0  0  0  0  0  0  0
    1.9216   19.3598   40.4503 C   0  0  0  0  0  0  0  0  0  0  0  0
    0.6140   18.3686   42.3921 C   0  0  0  0  0  0  0  0  0  0  0  0
    0.3102   16.2348   43.1203 C   0  0  0  0  0  0  0  0  0  0  0  0
    0.5744   14.7962   43.1622 C   0  0  0  0  0  0  0  0  0  0  0  0
   -0.2015   13.9202   43.9345 C   0  0  0  0  0  0  0  0  0  0  0  0
    0.0460   12.5509   43.9335 C   0  0  0  0  0  0  0  0  0  0  0  0
    1.0485   12.0588   43.1192 C   0  0  0  0  0  0  0  0  0  0  0  0
    1.8359   12.8886   42.3352 C   0  0  0  0  0  0  0  0  0  0  0  0
    1.5801   14.2568   42.3587 C   0  0  0  0  0  0  0  0  0  0  0  0
   -0.6864   16.8513   43.8297 C   0  0  0  0  0  0  0  0  0  0  0  0
    2.5609   18.1753   40.0574 C   0  0  0  0  0  0  0  0  0  0  0  0
    3.2301   18.1182   38.8335 C   0  0  0  0  0  0  0  0  0  0  0  0
    1.1160   19.3839   41.6300 N   0  0  0  0  0  0  0  0  0  0  0  0
    1.0161   17.0619   42.2149 N   0  0  0  0  0  0  0  0  0  0  0  0
    3.6666   20.0433   35.7628 O   0  0  0  0  0  0  0  0  0  0  0  0
    4.5521   18.0510   36.3033 O   0  0  0  0  0  0  0  0  0  0  0  0
    3.7628   16.9230   38.4124 O   0  0  0  0  0  0  0  0  0  0  0  0
   -0.8223   18.5108   43.3874 S   0  0  0  0  0  0  0  0  0  0  0  0
    1.3413   10.3518   43.0765 Cl  0  0  0  0  0  0  0  0  0  0  0  0
    2.7144   21.2577   37.7258 H   0  0  0  0  0  0  0  0  0  0  0  0
    1.2819   21.3152   39.7551 H   0  0  0  0  0  0  0  0  0  0  0  0
   -1.0192   14.3218   44.5510 H   0  0  0  0  0  0  0  0  0  0  0  0
   -0.5443   11.8737   44.5682 H   0  0  0  0  0  0  0  0  0  0  0  0
    2.6422   12.4761   41.7109 H   0  0  0  0  0  0  0  0  0  0  0  0
    2.1839   14.9277   41.7299 H   0  0  0  0  0  0  0  0  0  0  0  0
   -1.3161   16.3531   44.5815 H   0  0  0  0  0  0  0  0  0  0  0  0
    2.5351   17.2922   40.7128 H   0  0  0  0  0  0  0  0  0  0  0  0
    0.8726   20.3281   41.9620 H   0  0  0  0  0  0  0  0  0  0  0  0
  1  2  1  0
  1 19  1  0
  1 20  2  0
  2  3  1  0
  2 16  2  0
  3  4  2  0
  4  5  1  0
  5 15  2  0
  5 17  1  0
  6 17  1  0
  6 18  2  0
  6 22  1  0
  7  8  1  0
  7 14  2  0
  7 18  1  0
  8  9  1  0
  8 13  2  0
  9 10  2  0
 10 11  1  0
 11 12  2  0
 11 23  1  0
 12 13  1  0
 14 22  1  0
 15 16  1  0
 16 21  1  0
  3 24  1  0
  4 25  1  0
  9 26  1  0
 10 27  1  0
 12 28  1  0
 13 29  1  0
 14 30  1  0
 15 31  1  0
 17 32  1  0
M  CHG  2  19  -1  21  -1
M  END
>  <mol_id>  (33) 
2026-08-24-6tgu-s0-n100-0033

>  <rmsd_to_ref>  (33) 
1.9234693877579514

>  <pose_kind>  (33) 
rigid

$$$$
6tgu.A
     RDKit          3D

 32 34  0  0  0  0  0  0  0  0999 V2000
    3.6059   20.1066   36.2252 C   0  0  0  0  0  0  0  0  0  0  0  0
    3.3776   19.9288   37.6543 C   0  0  0  0  0  0  0  0  0  0  0  0
    2.5576   20.7932   38.3061 C   0  0  0  0  0  0  0  0  0  0  0  0
    2.3021   20.6309   39.6437 C   0  0  0  0  0  0  0  0  0  0  0  0
    2.9052   19.5684   40.2929 C   0  0  0  0  0  0  0  0  0  0  0  0
    1.7890   18.2679   41.9957 C   0  0  0  0  0  0  0  0  0  0  0  0
    0.6037   16.4065   42.4426 C   0  0  0  0  0  0  0  0  0  0  0  0
    0.5866   15.0812   43.1079 C   0  0  0  0  0  0  0  0  0  0  0  0
    1.6632   14.5819   43.7994 C   0  0  0  0  0  0  0  0  0  0  0  0
    1.6074   13.3450   44.4085 C   0  0  0  0  0  0  0  0  0  0  0  0
    0.4731   12.5646   44.3461 C   0  0  0  0  0  0  0  0  0  0  0  0
   -0.6340   13.0546   43.6446 C   0  0  0  0  0  0  0  0  0  0  0  0
   -0.5492   14.2933   43.0483 C   0  0  0  0  0  0  0  0  0  0  0  0
   -0.4839   16.8827   41.7833 C   0  0  0  0  0  0  0  0  0  0  0  0
    3.7430   18.6696   39.6739 C   0  0  0  0  0  0  0  0  0  0  0  0
    3.9806   18.8584   38.3264 C   0  0  0  0  0  0  0  0  0  0  0  0
    2.5513   19.4561   41.6967 N   0  0  0  0  0  0  0  0  0  0  0  0
    1.6393   17.2256   42.4454 N   0  0  0  0  0  0  0  0  0  0  0  0
    4.3983   19.2829   35.4500 O   0  0  0  0  0  0  0  0  0  0  0  0
    3.0500   21.0793   35.6202 O   0  0  0  0  0  0  0  0  0  0  0  0
    4.8152   18.0050   37.6109 O   0  0  0  0  0  0  0  0  0  0  0  0
    0.0558   18.5339   41.1872 S   0  0  0  0  0  0  0  0  0  0  0  0
    0.3489   10.9859   45.0998 Cl  0  0  0  0  0  0  0  0  0  0  0  0
    2.0785   21.6382   37.8015 H   0  0  0  0  0  0  0  0  0  0  0  0
    1.6436   21.3160   40.1793 H   0  0  0  0  0  0  0  0  0  0  0  0
    2.5786   15.1910   43.8649 H   0  0  0  0  0  0  0  0  0  0  0  0
    2.4739   12.9845   44.9583 H   0  0  0  0  0  0  0  0  0  0  0  0
   -1.5500   12.4903   43.5627 H   0  0  0  0  0  0  0  0  0  0  0  0
   -1.3933   14.6535   42.5151 H   0  0  0  0  0  0  0  0  0  0  0  0
   -1.4990   16.4792   41.5812 H   0  0  0  0  0  0  0  0  0  0  0  0
    4.1900   17.8525   40.2193 H   0  0  0  0  0  0  0  0  0  0  0  0
    2.8277   20.1569   42.3912 H   0  0  0  0  0  0  0  0  0  0  0  0
  1  2  1  0
  1 19  1  0
  1 20  2  0
  2  3  1  0
  2 16  2  0
  3  4  2  0
  4  5  1  0
  5 15  2  0
  5 17  1  0
  6 17  1  0
  6 18  2  0
  6 22  1  0
  7  8  1  0
  7 14  2  0
  7 18  1  0
  8  9  1  0
  8 13  2  0
  9 10  2  0
 10 11  1  0
 11 12  2  0
 11 23  1  0
 12 13  1  0
 14 22  1  0
 15 16  1  0
 16 21  1  0
  3 24  1  0
  4 25  1  0
  9 26  1  0
 10 27  1  0
 12 28  1  0
 13 29  1  0
 14 30  1  0
 15 31  1  0
 17 32  1  0
M  CHG  2  19  -1  21  -1
M  END
>  <mol_id>  (34) 
2026-08-24-6tgu-s0-n100-0034

>  <rmsd_to_ref>  (34) 
1.9693877551053531

>  <pose_kind>  (34) 
conformer

$$$$
6tgu.A
     RDKit          3D

 32 34  0  0  0  0  0  0  0  0999 V2000
    3.0542   19.4925   36.2219 C   0  0  0  0  0  0  0  0  0  0  0  0
    2.5852   19.5836   37.6766 C   0  0  0  0  0  0  0  0  0  0  0  0
    1.9042   20.7108   38.1310 C   0  0  0  0  0  0  0  0  0  0  0  0
    1.2967   20.7532   39.3902 C   0  0  0  0  0  0  0  0  0  0  0  0
    1.5076   19.7149   40.3090 C   0  0  0  0  0  0  0  0  0  0  0  0
    0.5070   18.6837   42.4064 C   0  0  0  0  0  0  0  0  0  0  0  0
    0.4440   16.5529   43.2006 C   0  0  0  0  0  0  0  0  0  0  0  0
    0.8146   15.1377   43.2356 C   0  0  0  0  0  0  0  0  0  0  0  0
    0.1980   14.2292   44.1076 C   0  0  0  0  0  0  0  0  0  0  0  0
    0.5421   12.8810   44.1009 C   0  0  0  0  0  0  0  0  0  0  0  0
    1.4771   12.4399   43.1835 C   0  0  0  0  0  0  0  0  0  0  0  0
    2.1072   13.3027   42.2995 C   0  0  0  0  0  0  0  0  0  0  0  0
    1.7575   14.6499   42.3295 C   0  0  0  0  0  0  0  0  0  0  0  0
   -0.5063   17.1158   44.0109 C   0  0  0  0  0  0  0  0  0  0  0  0
    2.1813   18.5685   39.8643 C   0  0  0  0  0  0  0  0  0  0  0  0
    2.7076   18.5275   38.5719 C   0  0  0  0  0  0  0  0  0  0  0  0
    0.8434   19.7122   41.5739 N   0  0  0  0  0  0  0  0  0  0  0  0
    0.9795   17.4043   42.2054 N   0  0  0  0  0  0  0  0  0  0  0  0
    2.6476   20.4010   35.4393 O   0  0  0  0  0  0  0  0  0  0  0  0
    3.7311   18.4895   35.9062 O   0  0  0  0  0  0  0  0  0  0  0  0
    3.2734   17.3623   38.1116 O   0  0  0  0  0  0  0  0  0  0  0  0
   -0.8117   18.7501   43.5597 S   0  0  0  0  0  0  0  0  0  0  0  0
    1.8857   10.7569   43.1357 Cl  0  0  0  0  0  0  0  0  0  0  0  0
    1.8424   21.5947   37.4793 H   0  0  0  0  0  0  0  0  0  0  0  0
    0.6524   21.6029   39.6604 H   0  0  0  0  0  0  0  0  0  0  0  0
   -0.5702   14.5881   44.8085 H   0  0  0  0  0  0  0  0  0  0  0  0
    0.0792   12.1803   44.8113 H   0  0  0  0  0  0  0  0  0  0  0  0
    2.8639   12.9320   41.5924 H   0  0  0  0  0  0  0  0  0  0  0  0
    2.2350   15.3453   41.6235 H   0  0  0  0  0  0  0  0  0  0  0  0
   -1.0076   16.5938   44.8392 H   0  0  0  0  0  0  0  0  0  0  0  0
    2.2950   17.7024   40.5328 H   0  0  0  0  0  0  0  0  0  0  0  0
    0.5721   20.6451   41.9161 H   0  0  0  0  0  0  0  0  0  0  0  0
  1  2  1  0
  1 19  1  0
  1 20  2  0
  2  3  1  0
  2 16  2  0
  3  4  2  0
  4  5  1  0
  5 15  2  0
  5 17  1  0
  6 17  1  0
  6 18  2  0
  6 22  1  0
  7  8  1  0
  7 14  2  0
  7 18  1  0
  8  9  1  0
  8 13  2  0
  9 10  2  0
 10 11  1  0
 11 12  2  0
 11 23  1  0
 12 13  1  0
 14 22  1  0
 15 16  1  0
 16 21  1  0
  3 24  1  0
  4 25  1  0
  9 26  1  0
 10 27  1  0
 12 28  1  0
 13 29  1  0
 14 30  1  0
 15 31  1  0
 17 32  1  0
M  CHG  2  19  -1  21  -1
M  END
>  <mol_id>  (35) 
2026-08-24-6tgu-s0-n100-0035

>  <rmsd_to_ref>  (35) 
2.015306122454228

>  <pose_kind>  (35) 
rigid

$$$$
6tgu.A
     RDKit          3D

 32 34  0  0  0  0  0  0  0  0999 V2000
    1.9555   21.3542   36.7368 C   0  0  0  0  0  0  0  0  0  0  0  0
    1.9485   20.7444   38.0612 C   0  0  0  0  0  0  0  0  0  0  0  0
    0.9685   21.0806   38.9394 C   0  0  0  0  0  0  0  0  0  0  0  0
    0.9211   20.4995   40.1808 C   0  0  0  0  0  0  0  0  0  0  0  0
    1.8979   19.5725   40.4983 C   0  0  0  0  0  0  0  0  0  0  0  0
    1.4434   17.5766   41.7814 C   0  0  0  0  0  0  0  0  0  0  0  0
    0.9710   15.3765   41.7026 C   0  0  0  0  0  0  0  0  0  0  0  0
    1.4497   13.9985   41.9695 C   0  0  0  0  0  0  0  0  0  0  0  0
    2.6961   13.7295   42.4798 C   0  0  0  0  0  0  0  0  0  0  0  0
    3.1041   12.4332   42.7181 C   0  0  0  0  0  0  0  0  0  0  0  0
    2.2797   11.3610   42.4530 C   0  0  0  0  0  0  0  0  0  0  0  0
    1.0065   11.6137   41.9308 C   0  0  0  0  0  0  0  0  0  0  0  0
    0.6265   12.9183   41.7050 C   0  0  0  0  0  0  0  0  0  0  0  0
   -0.2751   15.6123   41.2166 C   0  0  0  0  0  0  0  0  0  0  0  0
    2.9090   19.2028   39.6419 C   0  0  0  0  0  0  0  0  0  0  0  0
    2.9299   19.8043   38.3987 C   0  0  0  0  0  0  0  0  0  0  0  0
    1.7489   18.9864   41.8185 N   0  0  0  0  0  0  0  0  0  0  0  0
    1.6839   16.4659   41.9224 N   0  0  0  0  0  0  0  0  0  0  0  0
    2.8835   21.0777   35.7521 O   0  0  0  0  0  0  0  0  0  0  0  0
    1.0568   22.2043   36.4358 O   0  0  0  0  0  0  0  0  0  0  0  0
    3.9135   19.4997   37.4624 O   0  0  0  0  0  0  0  0  0  0  0  0
   -0.3588   17.4434   41.1012 S   0  0  0  0  0  0  0  0  0  0  0  0
    2.7481    9.6946   42.7350 Cl  0  0  0  0  0  0  0  0  0  0  0  0
    0.1934   21.8150   38.6980 H   0  0  0  0  0  0  0  0  0  0  0  0
    0.1384   20.7581   40.8949 H   0  0  0  0  0  0  0  0  0  0  0  0
    3.3697   14.5722   42.7025 H   0  0  0  0  0  0  0  0  0  0  0  0
    4.0934   12.2560   43.1341 H   0  0  0  0  0  0  0  0  0  0  0  0
    0.3163   10.8157   41.7050 H   0  0  0  0  0  0  0  0  0  0  0  0
   -0.3398   13.0985   41.3045 H   0  0  0  0  0  0  0  0  0  0  0  0
   -1.1227   14.9577   40.9218 H   0  0  0  0  0  0  0  0  0  0  0  0
    3.6492   18.4721   39.9307 H   0  0  0  0  0  0  0  0  0  0  0  0
    1.8579   19.5330   42.6783 H   0  0  0  0  0  0  0  0  0  0  0  0
  1  2  1  0
  1 19  1  0
  1 20  2  0
  2  3  1  0
  2 16  2  0
  3  4  2  0
  4  5  1  0
  5 15  2  0
  5 17  1  0
  6 17  1  0
  6 18  2  0
  6 22  1  0
  7  8  1  0
  7 14  2  0
  7 18  1  0
  8  9  1  0
  8 13  2  0
  9 10  2  0
 10 11  1  0
 11 12  2  0
 11 23  1  0
 12 13  1  0
 14 22  1  0
 15 16  1  0
 16 21  1  0
  3 24  1  0
  4 25  1  0
  9 26  1  0
 10 27  1  0
 12 28  1  0
 13 29  1  0
 14 30  1  0
 15 31  1  0
 17 32  1  0
M  CHG  2  19  -1  21  -1
M  END
>  <mol_id>  (36) 
2026-08-24-6tgu-s0-n100-0036

>  <rmsd_to_ref>  (36) 
2.0612244897985916

>  <pose_kind>  (36) 
conformer

$$$$
6tgu.A
     RDKit          3D

 32 34  0  0  0  0  0  0  0  0999 V2000
    3.2309   20.8749   37.6980 C   0  0  0  0  0  0  0  0  0  0  0  0
    2.7697   20.2579   39.0213 C   0  0  0  0  0  0  0  0  0  0  0  0
    2.4764   21.0687   40.1155 C   0  0  0  0  0  0  0  0  0  0  0  0
    1.8748   20.5639   41.2730 C   0  0  0  0  0  0  0  0  0  0  0  0
    1.7076   19.1808   41.4338 C   0  0  0  0  0  0  0  0  0  0  0  0
    0.3591   17.4832   42.7616 C   0  0  0  0  0  0  0  0  0  0  0  0
   -0.4170   15.4021   42.2695 C   0  0  0  0  0  0  0  0  0  0  0  0
   -0.5264   14.1805   41.4714 C   0  0  0  0  0  0  0  0  0  0  0  0
   -1.4323   13.1601   41.7947 C   0  0  0  0  0  0  0  0  0  0  0  0
   -1.5437   12.0215   41.0027 C   0  0  0  0  0  0  0  0  0  0  0  0
   -0.7728   11.9311   39.8591 C   0  0  0  0  0  0  0  0  0  0  0  0
    0.1314   12.9190   39.4991 C   0  0  0  0  0  0  0  0  0  0  0  0
    0.2365   14.0453   40.3105 C   0  0  0  0  0  0  0  0  0  0  0  0
   -1.1594   15.6516   43.3934 C   0  0  0  0  0  0  0  0  0  0  0  0
    1.9875   18.3518   40.3382 C   0  0  0  0  0  0  0  0  0  0  0  0
    2.5139   18.8996   39.1670 C   0  0  0  0  0  0  0  0  0  0  0  0
    1.0376   18.6539   42.5803 N   0  0  0  0  0  0  0  0  0  0  0  0
    0.3976   16.4707   41.8265 N   0  0  0  0  0  0  0  0  0  0  0  0
    3.1665   22.1363   37.6100 O   0  0  0  0  0  0  0  0  0  0  0  0
    3.5561   20.0832   36.7863 O   0  0  0  0  0  0  0  0  0  0  0  0
    2.6861   18.0955   38.0653 O   0  0  0  0  0  0  0  0  0  0  0  0
   -0.9037   17.2594   43.9568 S   0  0  0  0  0  0  0  0  0  0  0  0
   -0.9304   10.5379   38.8413 Cl  0  0  0  0  0  0  0  0  0  0  0  0
    2.7256   22.1390   40.0677 H   0  0  0  0  0  0  0  0  0  0  0  0
    1.5321   21.2532   42.0588 H   0  0  0  0  0  0  0  0  0  0  0  0
   -2.0650   13.2615   42.6887 H   0  0  0  0  0  0  0  0  0  0  0  0
   -2.2317   11.2096   41.2812 H   0  0  0  0  0  0  0  0  0  0  0  0
    0.7497   12.8153   38.5953 H   0  0  0  0  0  0  0  0  0  0  0  0
    0.9363   14.8465   40.0305 H   0  0  0  0  0  0  0  0  0  0  0  0
   -1.8296   14.9225   43.8722 H   0  0  0  0  0  0  0  0  0  0  0  0
    1.7925   17.2710   40.4013 H   0  0  0  0  0  0  0  0  0  0  0  0
    1.0723   19.2607   43.4119 H   0  0  0  0  0  0  0  0  0  0  0  0
  1  2  1  0
  1 19  1  0
  1 20  2  0
  2  3  1  0
  2 16  2  0
  3  4  2  0
  4  5  1  0
  5 15  2  0
  5 17  1  0
  6 17  1  0
  6 18  2  0
  6 22  1  0
  7  8  1  0
  7 14  2  0
  7 18  1  0
  8  9  1  0
  8 13  2  0
  9 10  2  0
 10 11  1  0
 11 12  2  0
 11 23  1  0
 12 13  1  0
 14 22  1  0
 15 16  1  0
 16 21  1  0
  3 24  1  0
  4 25  1  0
  9 26  1  0
 10 27  1  0
 12 28  1  0
 13 29  1  0
 14 30  1  0
 15 31  1  0
 17 32  1  0
M  CHG  2  19  -1  21  -1
M  END
>  <mol_id>  (37) 
2026-08-24-6tgu-s0-n100-0037

>  <rmsd_to_ref>  (37) 
2.1071428571458637

>  <pose_kind>  (37) 
rigid

$$$$
6tgu.A
     RDKit          3D

 32 34  0  0  0  0  0  0  0  0999 V2000
    3.0327   20.3691   36.8287 C   0  0  0  0  0  0  0  0  0  0  0  0
    2.5022   20.0998   38.1599 C   0  0  0  0  0  0  0  0  0  0  0  0
    1.2008   20.3848   38.4238 C   0  0  0  0  0  0  0  0  0  0  0  0
    0.6686   20.1136   39.6583 C   0  0  0  0  0  0  0  0  0  0  0  0
    1.4983   19.5479   40.6100 C   0  0  0  0  0  0  0  0  0  0  0  0
    0.7499   17.8548   42.1623 C   0  0  0  0  0  0  0  0  0  0  0  0
    0.6204   15.6491   42.5962 C   0  0  0  0  0  0  0  0  0  0  0  0
    1.0837   14.5270   43.4480 C   0  0  0  0  0  0  0  0  0  0  0  0
    1.9900   14.6912   44.4667 C   0  0  0  0  0  0  0  0  0  0  0  0
    2.3940   13.6224   45.2402 C   0  0  0  0  0  0  0  0  0  0  0  0
    1.9063   12.3523   45.0206 C   0  0  0  0  0  0  0  0  0  0  0  0
    0.9835   12.1636   43.9859 C   0  0  0  0  0  0  0  0  0  0  0  0
    0.5976   13.2498   43.2317 C   0  0  0  0  0  0  0  0  0  0  0  0
   -0.2927   15.4594   41.6089 C   0  0  0  0  0  0  0  0  0  0  0  0
    2.8215   19.2438   40.3876 C   0  0  0  0  0  0  0  0  0  0  0  0
    3.3288   19.5275   39.1347 C   0  0  0  0  0  0  0  0  0  0  0  0
    0.8413   19.2657   41.8738 N   0  0  0  0  0  0  0  0  0  0  0  0
    1.0277   16.8982   42.7273 N   0  0  0  0  0  0  0  0  0  0  0  0
    4.3290   20.1031   36.4335 O   0  0  0  0  0  0  0  0  0  0  0  0
    2.2735   20.8849   35.9464 O   0  0  0  0  0  0  0  0  0  0  0  0
    4.6559   19.2594   38.8121 O   0  0  0  0  0  0  0  0  0  0  0  0
   -0.5263   17.1387   40.9026 S   0  0  0  0  0  0  0  0  0  0  0  0
    2.3869   10.9594   45.9716 Cl  0  0  0  0  0  0  0  0  0  0  0  0
    0.5377   20.8350   37.6782 H   0  0  0  0  0  0  0  0  0  0  0  0
   -0.3754   20.3349   39.8834 H   0  0  0  0  0  0  0  0  0  0  0  0
    2.3898   15.6989   44.6621 H   0  0  0  0  0  0  0  0  0  0  0  0
    3.1044   13.7894   46.0470 H   0  0  0  0  0  0  0  0  0  0  0  0
    0.5653   11.1932   43.7674 H   0  0  0  0  0  0  0  0  0  0  0  0
   -0.0996   13.0947   42.4466 H   0  0  0  0  0  0  0  0  0  0  0  0
   -0.8360   14.5705   41.2236 H   0  0  0  0  0  0  0  0  0  0  0  0
    3.4320   18.7997   41.1592 H   0  0  0  0  0  0  0  0  0  0  0  0
    0.4889   20.0063   42.4878 H   0  0  0  0  0  0  0  0  0  0  0  0
  1  2  1  0
  1 19  1  0
  1 20  2  0
  2  3  1  0
  2 16  2  0
  3  4  2  0
  4  5  1  0
  5 15  2  0
  5 17  1  0
  6 17  1  0
  6 18  2  0
  6 22  1  0
  7  8  1  0
  7 14  2  0
  7 18  1  0
  8  9  1  0
  8 13  2  0
  9 10  2  0
 10 11  1  0
 11 12  2  0
 11 23  1  0
 12 13  1  0
 14 22  1  0
 15 16  1  0
 16 21  1  0
  3 24  1  0
  4 25  1  0
  9 26  1  0
 10 27  1  0
 12 28  1  0
 13 29  1  0
 14 30  1  0
 15 31  1  0
 17 32  1  0
M  CHG  2  19  -1  21  -1
M  END
>  <mol_id>  (38) 
2026-08-24-6tgu-s0-n100-0038

>  <rmsd_to_ref>  (38) 
2.153061224496945

>  <pose_kind>  (38) 
conformer

$$$$
6tgu.A
     RDKit          3D

 32 34  0  0  0  0  0  0  0  0999 V2000
    4.5489   19.2285   37.3122 C   0  0  0  0  0  0  0  0  0  0  0  0
    3.6381   19.2847   38.5417 C   0  0  0  0  0  0  0  0  0  0  0  0
    2.8807   20.4228   38.8095 C   0  0  0  0  0  0  0  0  0  0  0  0
    1.9006   20.4442   39.8072 C   0  0  0  0  0  0  0  0  0  0  0  0
    1.7723   19.3631   40.6913 C   0  0  0  0  0  0  0  0  0  0  0  0
    0.1177   18.2980   42.3010 C   0  0  0  0  0  0  0  0  0  0  0  0
   -0.2618   16.1432   42.9243 C   0  0  0  0  0  0  0  0  0  0  0  0
    0.0354   14.7127   43.0049 C   0  0  0  0  0  0  0  0  0  0  0  0
   -0.8566   13.7998   43.5855 C   0  0  0  0  0  0  0  0  0  0  0  0
   -0.5689   12.4389   43.6216 C   0  0  0  0  0  0  0  0  0  0  0  0
    0.5987   11.9920   43.0323 C   0  0  0  0  0  0  0  0  0  0  0  0
    1.5059   12.8592   42.4423 C   0  0  0  0  0  0  0  0  0  0  0  0
    1.2055   14.2184   42.4264 C   0  0  0  0  0  0  0  0  0  0  0  0
   -1.4057   16.7165   43.4135 C   0  0  0  0  0  0  0  0  0  0  0  0
    2.5192   18.2056   40.4293 C   0  0  0  0  0  0  0  0  0  0  0  0
    3.4333   18.1909   39.3742 C   0  0  0  0  0  0  0  0  0  0  0  0
    0.7353   19.3416   41.6739 N   0  0  0  0  0  0  0  0  0  0  0  0
    0.5916   17.0074   42.1983 N   0  0  0  0  0  0  0  0  0  0  0  0
    4.4442   20.1835   36.4874 O   0  0  0  0  0  0  0  0  0  0  0  0
    5.2613   18.2093   37.1805 O   0  0  0  0  0  0  0  0  0  0  0  0
    4.0824   17.0200   39.0620 O   0  0  0  0  0  0  0  0  0  0  0  0
   -1.5002   18.3787   42.9713 S   0  0  0  0  0  0  0  0  0  0  0  0
    0.9506   10.2957   43.0333 Cl  0  0  0  0  0  0  0  0  0  0  0  0
    3.0590   21.3330   38.2180 H   0  0  0  0  0  0  0  0  0  0  0  0
    1.2291   21.3106   39.8986 H   0  0  0  0  0  0  0  0  0  0  0  0
   -1.7988   14.1654   44.0196 H   0  0  0  0  0  0  0  0  0  0  0  0
   -1.2572   11.7328   44.1093 H   0  0  0  0  0  0  0  0  0  0  0  0
    2.4391   12.4826   41.9981 H   0  0  0  0  0  0  0  0  0  0  0  0
    1.9058   14.9184   41.9474 H   0  0  0  0  0  0  0  0  0  0  0  0
   -2.1630   16.1860   44.0095 H   0  0  0  0  0  0  0  0  0  0  0  0
    2.3850   17.3105   41.0543 H   0  0  0  0  0  0  0  0  0  0  0  0
    0.3960   20.2717   41.9575 H   0  0  0  0  0  0  0  0  0  0  0  0
  1  2  1  0
  1 19  1  0
  1 20  2  0
  2  3  1  0
  2 16  2  0
  3  4  2  0
  4  5  1  0
  5 15  2  0
  5 17  1  0
  6 17  1  0
  6 18  2  0
  6 22  1  0
  7  8  1  0
  7 14  2  0
  7 18  1  0
  8  9  1  0
  8 13  2  0
  9 10  2  0
 10 11  1  0
 11 12  2  0
 11 23  1  0
 12 13  1  0
 14 22  1  0
 15 16  1  0
 16 21  1  0
  3 24  1  0
  4 25  1  0
  9 26  1  0
 10 27  1  0
 12 28  1  0
 13 29  1  0
 14 30  1  0
 15 31  1  0
 17 32  1  0
M  CHG  2  19  -1  21  -1
M  END
>  <mol_id>  (39) 
2026-08-24-6tgu-s0-n100-0039

>  <rmsd_to_ref>  (39) 
2.198979591843644

>  <pose_kind>  (39) 
rigid

$$$$
6tgu.A
     RDKit          3D

 32 34  0  0  0  0  0  0  0  0999 V2000
    3.5191   20.6330   37.0957 C   0  0  0  0  0  0  0  0  0  0  0  0
    3.3563   20.1482   38.4612 C   0  0  0  0  0  0  0  0  0  0  0  0
    2.7037   20.9236   39.3653 C   0  0  0  0  0  0  0  0  0  0  0  0
    2.5105   20.4789   40.6481 C   0  0  0  0  0  0  0  0  0  0  0  0
    3.0008   19.2284   40.9796 C   0  0  0  0  0  0  0  0  0  0  0  0
    1.8230   17.7018   42.4354 C   0  0  0  0  0  0  0  0  0  0  0  0
    0.4234   15.9421   42.5520 C   0  0  0  0  0  0  0  0  0  0  0  0
    0.2655   14.5081   42.8960 C   0  0  0  0  0  0  0  0  0  0  0  0
    1.3036   13.7340   43.3536 C   0  0  0  0  0  0  0  0  0  0  0  0
    1.1161   12.4034   43.6669 C   0  0  0  0  0  0  0  0  0  0  0  0
   -0.1160   11.8009   43.5319 C   0  0  0  0  0  0  0  0  0  0  0  0
   -1.1862   12.5718   43.0650 C   0  0  0  0  0  0  0  0  0  0  0  0
   -0.9691   13.8978   42.7621 C   0  0  0  0  0  0  0  0  0  0  0  0
   -0.6270   16.6874   42.1212 C   0  0  0  0  0  0  0  0  0  0  0  0
    3.6682   18.4099   40.0979 C   0  0  0  0  0  0  0  0  0  0  0  0
    3.8468   18.8847   38.8131 C   0  0  0  0  0  0  0  0  0  0  0  0
    2.7212   18.8278   42.3471 N   0  0  0  0  0  0  0  0  0  0  0  0
    1.5596   16.6077   42.6471 N   0  0  0  0  0  0  0  0  0  0  0  0
    4.1424   19.9294   36.0837 O   0  0  0  0  0  0  0  0  0  0  0  0
    3.0659   21.7807   36.7822 O   0  0  0  0  0  0  0  0  0  0  0  0
    4.5114   18.1333   37.8484 O   0  0  0  0  0  0  0  0  0  0  0  0
    0.0965   18.3568   41.8710 S   0  0  0  0  0  0  0  0  0  0  0  0
   -0.4090   10.1144   43.9134 Cl  0  0  0  0  0  0  0  0  0  0  0  0
    2.3150   21.9153   39.1129 H   0  0  0  0  0  0  0  0  0  0  0  0
    1.9860   21.0899   41.3838 H   0  0  0  0  0  0  0  0  0  0  0  0
    2.2962   14.1968   43.4726 H   0  0  0  0  0  0  0  0  0  0  0  0
    1.9571   11.8219   44.0382 H   0  0  0  0  0  0  0  0  0  0  0  0
   -2.1741   12.1563   42.9406 H   0  0  0  0  0  0  0  0  0  0  0  0
   -1.7868   14.4725   42.4047 H   0  0  0  0  0  0  0  0  0  0  0  0
   -1.6982   16.4673   41.9260 H   0  0  0  0  0  0  0  0  0  0  0  0
    4.0315   17.4392   40.3991 H   0  0  0  0  0  0  0  0  0  0  0  0
    3.1328   19.3050   43.1550 H   0  0  0  0  0  0  0  0  0  0  0  0
  1  2  1  0
  1 19  1  0
  1 20  2  0
  2  3  1  0
  2 16  2  0
  3  4  2  0
  4  5  1  0
  5 15  2  0
  5 17  1  0
  6 17  1  0
  6 18  2  0
  6 22  1  0
  7  8  1  0
  7 14  2  0
  7 18  1  0
  8  9  1  0
  8 13  2  0
  9 10  2  0
 10 11  1  0
 11 12  2  0
 11 23  1  0
 12 13  1  0
 14 22  1  0
 15 16  1  0
 16 21  1  0
  3 24  1  0
  4 25  1  0
  9 26  1  0
 10 27  1  0
 12 28  1  0
 13 29  1  0
 14 30  1  0
 15 31  1  0
 17 32  1  0
M  CHG  2  19  -1  21  -1
M  END
>  <mol_id>  (40) 
2026-08-24-6tgu-s0-n100-0040

>  <rmsd_to_ref>  (40) 
2.244897959191168

>  <pose_kind>  (40) 
conformer

$$$$
6tgu.A
     RDKit          3D

 32 34  0  0  0  0  0  0  0  0999 V2000
    3.0432   21.4179   37.2383 C   0  0  0  0  0  0  0  0  0  0  0  0
    2.6157   20.7235   38.5344 C   0  0  0  0  0  0  0  0  0  0  0  0
    1.7812   21.3720   39.4421 C   0  0  0  0  0  0  0  0  0  0  0  0
    1.2180   20.7084   40.5371 C   0  0  0  0  0  0  0  0  0  0  0  0
    1.6211   19.4028   40.8527 C   0  0  0  0  0  0  0  0  0  0  0  0
    0.8680   17.3487   42.1476 C   0  0  0  0  0  0  0  0  0  0  0  0
    1.1691   15.1181   41.8164 C   0  0  0  0  0  0  0  0  0  0  0  0
    1.7594   13.9378   41.1844 C   0  0  0  0  0  0  0  0  0  0  0  0
    1.3240   12.6388   41.4829 C   0  0  0  0  0  0  0  0  0  0  0  0
    1.8760   11.5322   40.8452 C   0  0  0  0  0  0  0  0  0  0  0  0
    2.8371   11.7378   39.8734 C   0  0  0  0  0  0  0  0  0  0  0  0
    3.2925   13.0053   39.5430 C   0  0  0  0  0  0  0  0  0  0  0  0
    2.7360   14.0990   40.2003 C   0  0  0  0  0  0  0  0  0  0  0  0
    0.1702   15.0668   42.7523 C   0  0  0  0  0  0  0  0  0  0  0  0
    2.4518   18.7320   39.9438 C   0  0  0  0  0  0  0  0  0  0  0  0
    2.9336   19.4004   38.8167 C   0  0  0  0  0  0  0  0  0  0  0  0
    1.0093   18.6887   41.9283 N   0  0  0  0  0  0  0  0  0  0  0  0
    1.5294   16.4146   41.3788 N   0  0  0  0  0  0  0  0  0  0  0  0
    2.4720   22.5157   36.9706 O   0  0  0  0  0  0  0  0  0  0  0  0
    3.8587   20.8092   36.5115 O   0  0  0  0  0  0  0  0  0  0  0  0
    3.6600   18.7041   37.8800 O   0  0  0  0  0  0  0  0  0  0  0  0
   -0.4045   16.6468   43.1281 S   0  0  0  0  0  0  0  0  0  0  0  0
    3.5042   10.3720   39.0419 Cl  0  0  0  0  0  0  0  0  0  0  0  0
    1.5585   22.4388   39.2932 H   0  0  0  0  0  0  0  0  0  0  0  0
    0.4573   21.2117   41.1519 H   0  0  0  0  0  0  0  0  0  0  0  0
    0.5332   12.4922   42.2333 H   0  0  0  0  0  0  0  0  0  0  0  0
    1.5539   10.5140   41.1092 H   0  0  0  0  0  0  0  0  0  0  0  0
    4.0737   13.1429   38.7809 H   0  0  0  0  0  0  0  0  0  0  0  0
    3.0733   15.1126   39.9383 H   0  0  0  0  0  0  0  0  0  0  0  0
   -0.2139   14.1401   43.2036 H   0  0  0  0  0  0  0  0  0  0  0  0
    2.7234   17.6805   40.1184 H   0  0  0  0  0  0  0  0  0  0  0  0
    0.6061   19.2869   42.6636 H   0  0  0  0  0  0  0  0  0  0  0  0
  1  2  1  0
  1 19  1  0
  1 20  2  0
  2  3  1  0
  2 16  2  0
  3  4  2  0
  4  5  1  0
  5 15  2  0
  5 17  1  0
  6 17  1  0
  6 18  2  0
  6 22  1  0
  7  8  1  0
  7 14  2  0
  7 18  1  0
  8  9  1  0
  8 13  2  0
  9 10  2  0
 10 11  1  0
 11 12  2  0
 11 23  1  0
 12 13  1  0
 14 22  1  0
 15 16  1  0
 16 21  1  0
  3 24  1  0
  4 25  1  0
  9 26  1  0
 10 27  1  0
 12 28  1  0
 13 29  1  0
 14 30  1  0
 15 31  1  0
 17 32  1  0
M  CHG  2  19  -1  21  -1
M  END
>  <mol_id>  (41) 
2026-08-24-6tgu-s0-n100-0041

>  <rmsd_to_ref>  (41) 
2.2908163265331467

>  <pose_kind>  (41) 
rigid

$$$$
6tgu.A
     RDKit          3D

 32 34  0  0  0  0  0  0  0  0999 V2000
    0.3078   21.9105   36.6962 C   0  0  0  0  0  0  0  0  0  0  0  0
    0.8918   21.3126   37.8910 C   0  0  0  0  0  0  0  0  0  0  0  0
    0.7411   21.9397   39.0862 C   0  0  0  0  0  0  0  0  0  0  0  0
    1.2545   21.3840   40.2299 C   0  0  0  0  0  0  0  0  0  0  0  0
    1.9232   20.1780   40.1190 C   0  0  0  0  0  0  0  0  0  0  0  0
    1.7469   18.4241   41.7710 C   0  0  0  0  0  0  0  0  0  0  0  0
    0.7149   16.5102   42.3559 C   0  0  0  0  0  0  0  0  0  0  0  0
    0.8445   15.0466   42.5564 C   0  0  0  0  0  0  0  0  0  0  0  0
    2.0178   14.3667   42.3383 C   0  0  0  0  0  0  0  0  0  0  0  0
    2.0999   13.0043   42.5397 C   0  0  0  0  0  0  0  0  0  0  0  0
    1.0109   12.2745   42.9650 C   0  0  0  0  0  0  0  0  0  0  0  0
   -0.1945   12.9482   43.1908 C   0  0  0  0  0  0  0  0  0  0  0  0
   -0.2457   14.3089   42.9829 C   0  0  0  0  0  0  0  0  0  0  0  0
   -0.4535   17.1583   42.5996 C   0  0  0  0  0  0  0  0  0  0  0  0
    2.1008   19.5083   38.9304 C   0  0  0  0  0  0  0  0  0  0  0  0
    1.5719   20.0921   37.7959 C   0  0  0  0  0  0  0  0  0  0  0  0
    2.4026   19.6497   41.3838 N   0  0  0  0  0  0  0  0  0  0  0  0
    1.6972   17.2944   41.9517 N   0  0  0  0  0  0  0  0  0  0  0  0
    0.3742   21.3590   35.4318 O   0  0  0  0  0  0  0  0  0  0  0  0
   -0.3134   23.0178   36.7917 O   0  0  0  0  0  0  0  0  0  0  0  0
    1.7007   19.4946   36.5456 O   0  0  0  0  0  0  0  0  0  0  0  0
   -0.0645   18.9140   42.2261 S   0  0  0  0  0  0  0  0  0  0  0  0
    1.0594   10.5423   43.2345 Cl  0  0  0  0  0  0  0  0  0  0  0  0
    0.2162   22.8955   39.1831 H   0  0  0  0  0  0  0  0  0  0  0  0
    1.1387   21.8753   41.1969 H   0  0  0  0  0  0  0  0  0  0  0  0
    2.9017   14.9314   42.0017 H   0  0  0  0  0  0  0  0  0  0  0  0
    3.0478   12.4986   42.3691 H   0  0  0  0  0  0  0  0  0  0  0  0
   -1.0802   12.4312   43.5261 H   0  0  0  0  0  0  0  0  0  0  0  0
   -1.1661   14.8094   43.1531 H   0  0  0  0  0  0  0  0  0  0  0  0
   -1.4591   16.8305   42.9392 H   0  0  0  0  0  0  0  0  0  0  0  0
    2.6272   18.5668   38.8905 H   0  0  0  0  0  0  0  0  0  0  0  0
    3.1362   20.1117   41.9299 H   0  0  0  0  0  0  0  0  0  0  0  0
  1  2  1  0
  1 19  1  0
  1 20  2  0
  2  3  1  0
  2 16  2  0
  3  4  2  0
  4  5  1  0
  5 15  2  0
  5 17  1  0
  6 17  1  0
  6 18  2  0
  6 22  1  0
  7  8  1  0
  7 14  2  0
  7 18  1  0
  8  9  1  0
  8 13  2  0
  9 10  2  0
 10 11  1  0
 11 12  2  0
 11 23  1  0
 12 13  1  0
 14 22  1  0
 15 16  1  0
 16 21  1  0
  3 24  1  0
  4 25  1  0
  9 26  1  0
 10 27  1  0
 12 28  1  0
 13 29  1  0
 14 30  1  0
 15 31  1  0
 17 32  1  0
M  CHG  2  19  -1  21  -1
M  END
>  <mol_id>  (42) 
2026-08-24-6tgu-s0-n100-0042

>  <rmsd_to_ref>  (42) 
2.336734693877704

>  <pose_kind>  (42) 
conformer

$$$$
6tgu.A
     RDKit          3D

 32 34  0  0  0  0  0  0  0  0999 V2000
    3.2610   20.3163   37.7974 C   0  0  0  0  0  0  0  0  0  0  0  0
    2.5272   19.6342   38.9554 C   0  0  0  0  0  0  0  0  0  0  0  0
    1.3551   20.1828   39.4712 C   0  0  0  0  0  0  0  0  0  0  0  0
    0.5578   19.4967   40.3930 C   0  0  0  0  0  0  0  0  0  0  0  0
    1.0117   18.2979   40.9617 C   0  0  0  0  0  0  0  0  0  0  0  0
    0.1660   16.2226   42.1626 C   0  0  0  0  0  0  0  0  0  0  0  0
    0.8710   14.0598   42.1909 C   0  0  0  0  0  0  0  0  0  0  0  0
    1.7982   12.9621   41.9143 C   0  0  0  0  0  0  0  0  0  0  0  0
    1.4753   11.6273   42.1971 C   0  0  0  0  0  0  0  0  0  0  0  0
    2.3584   10.5954   41.8950 C   0  0  0  0  0  0  0  0  0  0  0  0
    3.5499   10.9049   41.2665 C   0  0  0  0  0  0  0  0  0  0  0  0
    3.9065   12.2103   40.9634 C   0  0  0  0  0  0  0  0  0  0  0  0
    3.0144   13.2298   41.2840 C   0  0  0  0  0  0  0  0  0  0  0  0
   -0.3655   13.8936   42.7565 C   0  0  0  0  0  0  0  0  0  0  0  0
    2.1837   17.7265   40.4461 C   0  0  0  0  0  0  0  0  0  0  0  0
    2.9153   18.4017   39.4673 C   0  0  0  0  0  0  0  0  0  0  0  0
    0.1825   17.5528   41.8553 N   0  0  0  0  0  0  0  0  0  0  0  0
    1.1706   15.3716   41.7532 N   0  0  0  0  0  0  0  0  0  0  0  0
    2.6636   21.2850   37.2425 O   0  0  0  0  0  0  0  0  0  0  0  0
    4.3494   19.8138   37.4416 O   0  0  0  0  0  0  0  0  0  0  0  0
    4.0031   17.7862   38.8950 O   0  0  0  0  0  0  0  0  0  0  0  0
   -1.2487   15.3727   42.7535 S   0  0  0  0  0  0  0  0  0  0  0  0
    4.6415    9.6266   40.8471 Cl  0  0  0  0  0  0  0  0  0  0  0  0
    1.0473   21.1866   39.1432 H   0  0  0  0  0  0  0  0  0  0  0  0
   -0.4274   19.8984   40.6726 H   0  0  0  0  0  0  0  0  0  0  0  0
    0.5082   11.3921   42.6656 H   0  0  0  0  0  0  0  0  0  0  0  0
    2.1133    9.5542   42.1511 H   0  0  0  0  0  0  0  0  0  0  0  0
    4.8698   12.4345   40.4819 H   0  0  0  0  0  0  0  0  0  0  0  0
    3.2738   14.2695   41.0352 H   0  0  0  0  0  0  0  0  0  0  0  0
   -0.7439   12.9425   43.1591 H   0  0  0  0  0  0  0  0  0  0  0  0
    2.5264   16.7475   40.8123 H   0  0  0  0  0  0  0  0  0  0  0  0
   -0.5230   18.1149   42.3526 H   0  0  0  0  0  0  0  0  0  0  0  0
  1  2  1  0
  1 19  1  0
  1 20  2  0
  2  3  1  0
  2 16  2  0
  3  4  2  0
  4  5  1  0
  5 15  2  0
  5 17  1  0
  6 17  1  0
  6 18  2  0
  6 22  1  0
  7  8  1  0
  7 14  2  0
  7 18  1  0
  8  9  1  0
  8 13  2  0
  9 10  2  0
 10 11  1  0
 11 12  2  0
 11 23  1  0
 12 13  1  0
 14 22  1  0
 15 16  1  0
 16 21  1  0
  3 24  1  0
  4 25  1  0
  9 26  1  0
 10 27  1  0
 12 28  1  0
 13 29  1  0
 14 30  1  0
 15 31  1  0
 17 32  1  0
M  CHG  2  19  -1  21  -1
M  END
>  <mol_id>  (43) 
2026-08-24-6tgu-s0-n100-0043

>  <rmsd_to_ref>  (43) 
2.3826530612288903

>  <pose_kind>  (43) 
rigid

$$$$
6tgu.A
     RDKit          3D

 32 34  0  0  0  0  0  0  0  0999 V2000
    3.0555   20.7104   37.5647 C   0  0  0  0  0  0  0  0  0  0  0  0
    2.6035   19.9465   38.7215 C   0  0  0  0  0  0  0  0  0  0  0  0
    1.4409   20.2944   39.3311 C   0  0  0  0  0  0  0  0  0  0  0  0
    0.9777   19.5743   40.4025 C   0  0  0  0  0  0  0  0  0  0  0  0
    1.7317   18.4966   40.8316 C   0  0  0  0  0  0  0  0  0  0  0  0
    0.7452   16.4320   41.6067 C   0  0  0  0  0  0  0  0  0  0  0  0
    0.1269   14.3385   41.0549 C   0  0  0  0  0  0  0  0  0  0  0  0
    0.3827   12.8878   41.2260 C   0  0  0  0  0  0  0  0  0  0  0  0
    1.3938   12.3987   42.0165 C   0  0  0  0  0  0  0  0  0  0  0  0
    1.5980   11.0409   42.1534 C   0  0  0  0  0  0  0  0  0  0  0  0
    0.7985   10.1256   41.5034 C   0  0  0  0  0  0  0  0  0  0  0  0
   -0.2359   10.6037   40.6914 C   0  0  0  0  0  0  0  0  0  0  0  0
   -0.4164   11.9643   40.5756 C   0  0  0  0  0  0  0  0  0  0  0  0
   -0.8939   14.7919   40.2824 C   0  0  0  0  0  0  0  0  0  0  0  0
    2.9147   18.1090   40.2460 C   0  0  0  0  0  0  0  0  0  0  0  0
    3.3551   18.8528   39.1689 C   0  0  0  0  0  0  0  0  0  0  0  0
    1.1481   17.7748   41.9484 N   0  0  0  0  0  0  0  0  0  0  0  0
    0.8351   15.2907   41.6336 N   0  0  0  0  0  0  0  0  0  0  0  0
    4.2055   20.4412   36.8489 O   0  0  0  0  0  0  0  0  0  0  0  0
    2.3641   21.7004   37.1609 O   0  0  0  0  0  0  0  0  0  0  0  0
    4.5411   18.5427   38.5100 O   0  0  0  0  0  0  0  0  0  0  0  0
   -0.7793   16.6185   40.4366 S   0  0  0  0  0  0  0  0  0  0  0  0
    1.0149    8.3907   41.6406 Cl  0  0  0  0  0  0  0  0  0  0  0  0
    0.8393   21.1471   39.0004 H   0  0  0  0  0  0  0  0  0  0  0  0
    0.0444   19.8408   40.8999 H   0  0  0  0  0  0  0  0  0  0  0  0
    2.0423   13.1129   42.5482 H   0  0  0  0  0  0  0  0  0  0  0  0
    2.4005   10.6870   42.7969 H   0  0  0  0  0  0  0  0  0  0  0  0
   -0.8953    9.9359   40.1592 H   0  0  0  0  0  0  0  0  0  0  0  0
   -1.2014   12.3162   39.9537 H   0  0  0  0  0  0  0  0  0  0  0  0
   -1.6702   14.2942   39.6631 H   0  0  0  0  0  0  0  0  0  0  0  0
    3.4693   17.2586   40.6125 H   0  0  0  0  0  0  0  0  0  0  0  0
    1.0451   18.1914   42.8788 H   0  0  0  0  0  0  0  0  0  0  0  0
  1  2  1  0
  1 19  1  0
  1 20  2  0
  2  3  1  0
  2 16  2  0
  3  4  2  0
  4  5  1  0
  5 15  2  0
  5 17  1  0
  6 17  1  0
  6 18  2  0
  6 22  1  0
  7  8  1  0
  7 14  2  0
  7 18  1  0
  8  9  1  0
  8 13  2  0
  9 10  2  0
 10 11  1  0
 11 12  2  0
 11 23  1  0
 12 13  1  0
 14 22  1  0
 15 16  1  0
 16 21  1  0
  3 24  1  0
  4 25  1  0
  9 26  1  0
 10 27  1  0
 12 28  1  0
 13 29  1  0
 14 30  1  0
 15 31  1  0
 17 32  1  0
M  CHG  2  19  -1  21  -1
M  END
>  <mol_id>  (44) 
2026-08-24-6tgu-s0-n100-0044

>  <rmsd_to_ref>  (44) 
2.4285714285729147

>  <pose_kind>  (44) 
conformer

$$$$
6tgu.A
     RDKit          3D

 32 34  0  0  0  0  0  0  0  0999 V2000
    3.7946   20.6603   38.9554 C   0  0  0  0  0  0  0  0  0  0  0  0
    2.9324   19.9479   40.0012 C   0  0  0  0  0  0  0  0  0  0  0  0
    1.8965   20.6233   40.6427 C   0  0  0  0  0  0  0  0  0  0  0  0
    0.9720   19.9617   41.4576 C   0  0  0  0  0  0  0  0  0  0  0  0
    1.1678   18.6145   41.7945 C   0  0  0  0  0  0  0  0  0  0  0  0
   -0.0905   16.5756   42.6447 C   0  0  0  0  0  0  0  0  0  0  0  0
    0.1545   14.3443   42.2744 C   0  0  0  0  0  0  0  0  0  0  0  0
    0.8371   13.1476   41.7811 C   0  0  0  0  0  0  0  0  0  0  0  0
    0.2458   11.8776   41.8389 C   0  0  0  0  0  0  0  0  0  0  0  0
    0.8989   10.7578   41.3334 C   0  0  0  0  0  0  0  0  0  0  0  0
    2.1307   10.9250   40.7290 C   0  0  0  0  0  0  0  0  0  0  0  0
    2.7490   12.1634   40.6452 C   0  0  0  0  0  0  0  0  0  0  0  0
    2.0846   13.2699   41.1670 C   0  0  0  0  0  0  0  0  0  0  0  0
   -1.0915   14.3354   42.8432 C   0  0  0  0  0  0  0  0  0  0  0  0
    2.1990   17.9172   41.1492 C   0  0  0  0  0  0  0  0  0  0  0  0
    3.0570   18.5918   40.2787 C   0  0  0  0  0  0  0  0  0  0  0  0
    0.2001   17.9074   42.5724 N   0  0  0  0  0  0  0  0  0  0  0  0
    0.7189   15.6241   42.0611 N   0  0  0  0  0  0  0  0  0  0  0  0
    3.4111   21.8125   38.5969 O   0  0  0  0  0  0  0  0  0  0  0  0
    4.7576   20.0183   38.4820 O   0  0  0  0  0  0  0  0  0  0  0  0
    3.9970   17.8792   39.5727 O   0  0  0  0  0  0  0  0  0  0  0  0
   -1.6517   15.9398   43.1259 S   0  0  0  0  0  0  0  0  0  0  0  0
    2.9374    9.5462   40.0585 Cl  0  0  0  0  0  0  0  0  0  0  0  0
    1.8026   21.7104   40.5041 H   0  0  0  0  0  0  0  0  0  0  0  0
    0.0896   20.4991   41.8350 H   0  0  0  0  0  0  0  0  0  0  0  0
   -0.7505   11.7647   42.2911 H   0  0  0  0  0  0  0  0  0  0  0  0
    0.4440    9.7595   41.4131 H   0  0  0  0  0  0  0  0  0  0  0  0
    3.7394   12.2687   40.1783 H   0  0  0  0  0  0  0  0  0  0  0  0
    2.5530   14.2624   41.0937 H   0  0  0  0  0  0  0  0  0  0  0  0
   -1.6588   13.4251   43.0871 H   0  0  0  0  0  0  0  0  0  0  0  0
    2.3319   16.8402   41.3286 H   0  0  0  0  0  0  0  0  0  0  0  0
   -0.3763   18.5043   43.1826 H   0  0  0  0  0  0  0  0  0  0  0  0
  1  2  1  0
  1 19  1  0
  1 20  2  0
  2  3  1  0
  2 16  2  0
  3  4  2  0
  4  5  1  0
  5 15  2  0
  5 17  1  0
  6 17  1  0
  6 18  2  0
  6 22  1  0
  7  8  1  0
  7 14  2  0
  7 18  1  0
  8  9  1  0
  8 13  2  0
  9 10  2  0
 10 11  1  0
 11 12  2  0
 11 23  1  0
 12 13  1  0
 14 22  1  0
 15 16  1  0
 16 21  1  0
  3 24  1  0
  4 25  1  0
  9 26  1  0
 10 27  1  0
 12 28  1  0
 13 29  1  0
 14 30  1  0
 15 31  1  0
 17 32  1  0
M  CHG  2  19  -1  21  -1
M  END
>  <mol_id>  (45) 
2026-08-24-6tgu-s0-n100-0045

>  <rmsd_to_ref>  (45) 
2.4744897959273002

>  <pose_kind>  (45) 
rigid

$$$$
6tgu.A
     RDKit          3D

 32 34  0  0  0  0  0  0  0  0999 V2000
    3.3887   20.5386   37.2691 C   0  0  0  0  0  0  0  0  0  0  0  0
    3.1019   19.9185   38.5571 C   0  0  0  0  0  0  0  0  0  0  0  0
    2.4670   20.6436   39.5141 C   0  0  0  0  0  0  0  0  0  0  0  0
    2.1585   20.0754   40.7235 C   0  0  0  0  0  0  0  0  0  0  0  0
    2.5158   18.7545   40.9272 C   0  0  0  0  0  0  0  0  0  0  0  0
    1.1226   17.1899   42.1302 C   0  0  0  0  0  0  0  0  0  0  0  0
   -0.4312   15.5686   41.9667 C   0  0  0  0  0  0  0  0  0  0  0  0
   -0.7352   14.1261   42.1288 C   0  0  0  0  0  0  0  0  0  0  0  0
    0.2013   13.2102   42.5416 C   0  0  0  0  0  0  0  0  0  0  0  0
   -0.1214   11.8761   42.6840 C   0  0  0  0  0  0  0  0  0  0  0  0
   -1.3915   11.4122   42.4174 C   0  0  0  0  0  0  0  0  0  0  0  0
   -2.3594   12.3292   41.9935 C   0  0  0  0  0  0  0  0  0  0  0  0
   -2.0085   13.6547   41.8622 C   0  0  0  0  0  0  0  0  0  0  0  0
   -1.3839   16.4543   41.5764 C   0  0  0  0  0  0  0  0  0  0  0  0
    3.1604   17.9829   39.9881 C   0  0  0  0  0  0  0  0  0  0  0  0
    3.4571   18.5823   38.7796 C   0  0  0  0  0  0  0  0  0  0  0  0
    2.1203   18.2284   42.2215 N   0  0  0  0  0  0  0  0  0  0  0  0
    0.7515   16.1086   42.1966 N   0  0  0  0  0  0  0  0  0  0  0  0
    4.0074   19.8995   36.2125 O   0  0  0  0  0  0  0  0  0  0  0  0
    3.0581   21.7523   37.0727 O   0  0  0  0  0  0  0  0  0  0  0  0
    4.1097   17.8866   37.7661 O   0  0  0  0  0  0  0  0  0  0  0  0
   -0.5023   18.0655   41.5635 S   0  0  0  0  0  0  0  0  0  0  0  0
   -1.8543    9.7285   42.5798 Cl  0  0  0  0  0  0  0  0  0  0  0  0
    2.1831   21.6900   39.3629 H   0  0  0  0  0  0  0  0  0  0  0  0
    1.6465   20.6452   41.5000 H   0  0  0  0  0  0  0  0  0  0  0  0
    1.2217   13.5603   42.7638 H   0  0  0  0  0  0  0  0  0  0  0  0
    0.6412   11.1791   43.0244 H   0  0  0  0  0  0  0  0  0  0  0  0
   -3.3708   12.0260   41.7717 H   0  0  0  0  0  0  0  0  0  0  0  0
   -2.7494   14.3411   41.5359 H   0  0  0  0  0  0  0  0  0  0  0  0
   -2.4567   16.3602   41.3037 H   0  0  0  0  0  0  0  0  0  0  0  0
    3.4179   16.9540   40.1889 H   0  0  0  0  0  0  0  0  0  0  0  0
    2.5230   18.5691   43.0999 H   0  0  0  0  0  0  0  0  0  0  0  0
  1  2  1  0
  1 19  1  0
  1 20  2  0
  2  3  1  0
  2 16  2  0
  3  4  2  0
  4  5  1  0
  5 15  2  0
  5 17  1  0
  6 17  1  0
  6 18  2  0
  6 22  1  0
  7  8  1  0
  7 14  2  0
  7 18  1  0
  8  9  1  0
  8 13  2  0
  9 10  2  0
 10 11  1  0
 11 12  2  0
 11 23  1  0
 12 13  1  0
 14 22  1  0
 15 16  1  0
 16 21  1  0
  3 24  1  0
  4 25  1  0
  9 26  1  0
 10 27  1  0
 12 28  1  0
 13 29  1  0
 14 30  1  0
 15 31  1  0
 17 32  1  0
M  CHG  2  19  -1  21  -1
M  END
>  <mol_id>  (46) 
2026-08-24-6tgu-s0-n100-0046

>  <rmsd_to_ref>  (46) 
2.520408163269119

>  <pose_kind>  (46) 
conformer

$$$$
6tgu.A
     RDKit          3D

 32 34  0  0  0  0  0  0  0  0999 V2000
    3.7756   20.7917   37.2962 C   0  0  0  0  0  0  0  0  0  0  0  0
    2.7877   20.1861   38.2972 C   0  0  0  0  0  0  0  0  0  0  0  0
    1.4192   20.4108   38.1645 C   0  0  0  0  0  0  0  0  0  0  0  0
    0.4764   19.7263   38.9384 C   0  0  0  0  0  0  0  0  0  0  0  0
    0.8950   18.9136   40.0019 C   0  0  0  0  0  0  0  0  0  0  0  0
    0.0938   17.0075   41.4812 C   0  0  0  0  0  0  0  0  0  0  0  0
    1.1720   15.2752   42.4873 C   0  0  0  0  0  0  0  0  0  0  0  0
    2.3433   14.5211   42.9354 C   0  0  0  0  0  0  0  0  0  0  0  0
    2.2300   13.2576   43.5326 C   0  0  0  0  0  0  0  0  0  0  0  0
    3.3589   12.5430   43.9208 C   0  0  0  0  0  0  0  0  0  0  0  0
    4.6056   13.0831   43.6664 C   0  0  0  0  0  0  0  0  0  0  0  0
    4.7635   14.3265   43.0731 C   0  0  0  0  0  0  0  0  0  0  0  0
    3.6215   15.0310   42.7022 C   0  0  0  0  0  0  0  0  0  0  0  0
   -0.1186   14.8365   42.6220 C   0  0  0  0  0  0  0  0  0  0  0  0
    2.2683   18.6682   40.1425 C   0  0  0  0  0  0  0  0  0  0  0  0
    3.1797   19.3078   39.3002 C   0  0  0  0  0  0  0  0  0  0  0  0
   -0.0508   18.1581   40.7607 N   0  0  0  0  0  0  0  0  0  0  0  0
    1.3356   16.4744   41.7544 N   0  0  0  0  0  0  0  0  0  0  0  0
    3.2752   21.3491   36.2753 O   0  0  0  0  0  0  0  0  0  0  0  0
    4.9926   20.6176   37.5248 O   0  0  0  0  0  0  0  0  0  0  0  0
    4.5127   18.9807   39.3779 O   0  0  0  0  0  0  0  0  0  0  0  0
   -1.2156   15.8899   41.8127 S   0  0  0  0  0  0  0  0  0  0  0  0
    6.0211   12.1867   44.1070 Cl  0  0  0  0  0  0  0  0  0  0  0  0
    1.0694   21.1494   37.4283 H   0  0  0  0  0  0  0  0  0  0  0  0
   -0.5955   19.8256   38.7125 H   0  0  0  0  0  0  0  0  0  0  0  0
    1.2323   12.8243   43.6969 H   0  0  0  0  0  0  0  0  0  0  0  0
    3.2614   11.5677   44.4201 H   0  0  0  0  0  0  0  0  0  0  0  0
    5.7657   14.7454   42.8998 H   0  0  0  0  0  0  0  0  0  0  0  0
    3.7288   16.0113   42.2147 H   0  0  0  0  0  0  0  0  0  0  0  0
   -0.4151   13.9322   43.1737 H   0  0  0  0  0  0  0  0  0  0  0  0
    2.6273   17.9727   40.9155 H   0  0  0  0  0  0  0  0  0  0  0  0
   -1.0042   18.5477   40.7649 H   0  0  0  0  0  0  0  0  0  0  0  0
  1  2  1  0
  1 19  1  0
  1 20  2  0
  2  3  1  0
  2 16  2  0
  3  4  2  0
  4  5  1  0
  5 15  2  0
  5 17  1  0
  6 17  1  0
  6 18  2  0
  6 22  1  0
  7  8  1  0
  7 14  2  0
  7 18  1  0
  8  9  1  0
  8 13  2  0
  9 10  2  0
 10 11  1  0
 11 12  2  0
 11 23  1  0
 12 13  1  0
 14 22  1  0
 15 16  1  0
 16 21  1  0
  3 24  1  0
  4 25  1  0
  9 26  1  0
 10 27  1  0
 12 28  1  0
 13 29  1  0
 14 30  1  0
 15 31  1  0
 17 32  1  0
M  CHG  2  19  -1  21  -1
M  END
>  <mol_id>  (47) 
2026-08-24-6tgu-s0-n100-0047

>  <rmsd_to_ref>  (47) 
2.566326530612808

>  <pose_kind>  (47) 
rigid

$$$$
6tgu.A
     RDKit          3D

 32 34  0  0  0  0  0  0  0  0999 V2000
    3.9720   19.8316   36.3552 C   0  0  0  0  0  0  0  0  0  0  0  0
    3.4615   19.7794   37.7201 C   0  0  0  0  0  0  0  0  0  0  0  0
    2.4157   20.5736   38.0663 C   0  0  0  0  0  0  0  0  0  0  0  0
    1.8969   20.5224   39.3347 C   0  0  0  0  0  0  0  0  0  0  0  0
    2.4740   19.6438   40.2342 C   0  0  0  0  0  0  0  0  0  0  0  0
    1.1876   18.3826   41.8442 C   0  0  0  0  0  0  0  0  0  0  0  0
    0.1803   16.4216   42.3012 C   0  0  0  0  0  0  0  0  0  0  0  0
    0.1871   15.1911   43.1289 C   0  0  0  0  0  0  0  0  0  0  0  0
    1.1412   14.9430   44.0853 C   0  0  0  0  0  0  0  0  0  0  0  0
    1.1116   13.7872   44.8383 C   0  0  0  0  0  0  0  0  0  0  0  0
    0.1273   12.8391   44.6600 C   0  0  0  0  0  0  0  0  0  0  0  0
   -0.8529   13.0722   43.6890 C   0  0  0  0  0  0  0  0  0  0  0  0
   -0.7984   14.2358   42.9540 C   0  0  0  0  0  0  0  0  0  0  0  0
   -0.7886   16.6487   41.3770 C   0  0  0  0  0  0  0  0  0  0  0  0
    3.5343   18.8222   39.9282 C   0  0  0  0  0  0  0  0  0  0  0  0
    4.0344   18.8955   38.6429 C   0  0  0  0  0  0  0  0  0  0  0  0
    1.8392   19.6338   41.5402 N   0  0  0  0  0  0  0  0  0  0  0  0
    1.0773   17.3857   42.3965 N   0  0  0  0  0  0  0  0  0  0  0  0
    5.0129   19.0595   35.8780 O   0  0  0  0  0  0  0  0  0  0  0  0
    3.4426   20.6342   35.5206 O   0  0  0  0  0  0  0  0  0  0  0  0
    5.1069   18.1072   38.2363 O   0  0  0  0  0  0  0  0  0  0  0  0
   -0.3465   18.2875   40.6755 S   0  0  0  0  0  0  0  0  0  0  0  0
    0.0436   11.3531   45.5875 Cl  0  0  0  0  0  0  0  0  0  0  0  0
    1.9548   21.2738   37.3623 H   0  0  0  0  0  0  0  0  0  0  0  0
    1.0556   21.1526   39.6258 H   0  0  0  0  0  0  0  0  0  0  0  0
    1.9350   15.6895   44.2468 H   0  0  0  0  0  0  0  0  0  0  0  0
    1.8758   13.6274   45.5957 H   0  0  0  0  0  0  0  0  0  0  0  0
   -1.6493   12.3679   43.5053 H   0  0  0  0  0  0  0  0  0  0  0  0
   -1.5445   14.4006   42.2171 H   0  0  0  0  0  0  0  0  0  0  0  0
   -1.6751   16.0739   41.0342 H   0  0  0  0  0  0  0  0  0  0  0  0
    3.9516   18.1489   40.6614 H   0  0  0  0  0  0  0  0  0  0  0  0
    1.8655   20.4411   42.1706 H   0  0  0  0  0  0  0  0  0  0  0  0
  1  2  1  0
  1 19  1  0
  1 20  2  0
  2  3  1  0
  2 16  2  0
  3  4  2  0
  4  5  1  0
  5 15  2  0
  5 17  1  0
  6 17  1  0
  6 18  2  0
  6 22  1  0
  7  8  1  0
  7 14  2  0
  7 18  1  0
  8  9  1  0
  8 13  2  0
  9 10  2  0
 10 11  1  0
 11 12  2  0
 11 23  1  0
 12 13  1  0
 14 22  1  0
 15 16  1  0
 16 21  1  0
  3 24  1  0
  4 25  1  0
  9 26  1  0
 10 27  1  0
 12 28  1  0
 13 29  1  0
 14 30  1  0
 15 31  1  0
 17 32  1  0
M  CHG  2  19  -1  21  -1
M  END
>  <mol_id>  (48) 
2026-08-24-6tgu-s0-n100-0048

>  <rmsd_to_ref>  (48) 
2.6122448979600668

>  <pose_kind>  (48) 
conformer

$$$$
6tgu.A
     RDKit          3D

 32 34  0  0  0  0  0  0  0  0999 V2000
    4.9711   18.8370   37.3019 C   0  0  0  0  0  0  0  0  0  0  0  0
    3.7436   18.6156   38.1900 C   0  0  0  0  0  0  0  0  0  0  0  0
    2.4870   19.0584   37.7829 C   0  0  0  0  0  0  0  0  0  0  0  0
    1.3194   18.7110   38.4702 C   0  0  0  0  0  0  0  0  0  0  0  0
    1.3990   18.0442   39.7013 C   0  0  0  0  0  0  0  0  0  0  0  0
    0.0090   16.6200   41.2834 C   0  0  0  0  0  0  0  0  0  0  0  0
    0.5413   14.9337   42.7147 C   0  0  0  0  0  0  0  0  0  0  0  0
    1.4501   14.0732   43.4729 C   0  0  0  0  0  0  0  0  0  0  0  0
    0.9882   12.9827   44.2236 C   0  0  0  0  0  0  0  0  0  0  0  0
    1.8732   12.1571   44.9100 C   0  0  0  0  0  0  0  0  0  0  0  0
    3.2289   12.4046   44.8040 C   0  0  0  0  0  0  0  0  0  0  0  0
    3.7291   13.4682   44.0681 C   0  0  0  0  0  0  0  0  0  0  0  0
    2.8269   14.2896   43.3977 C   0  0  0  0  0  0  0  0  0  0  0  0
   -0.8184   14.7704   42.6814 C   0  0  0  0  0  0  0  0  0  0  0  0
    2.6547   17.5820   40.1201 C   0  0  0  0  0  0  0  0  0  0  0  0
    3.7925   17.8790   39.3675 C   0  0  0  0  0  0  0  0  0  0  0  0
    0.2156   17.6259   40.3839 N   0  0  0  0  0  0  0  0  0  0  0  0
    1.0579   15.9281   41.8509 N   0  0  0  0  0  0  0  0  0  0  0  0
    4.7526   19.2799   36.1361 O   0  0  0  0  0  0  0  0  0  0  0  0
    6.0780   18.4882   37.7677 O   0  0  0  0  0  0  0  0  0  0  0  0
    5.0011   17.3338   39.7301 O   0  0  0  0  0  0  0  0  0  0  0  0
   -1.5401   15.8403   41.5402 S   0  0  0  0  0  0  0  0  0  0  0  0
    4.3451   11.3606   45.6200 Cl  0  0  0  0  0  0  0  0  0  0  0  0
    2.4108   19.7010   36.8935 H   0  0  0  0  0  0  0  0  0  0  0  0
    0.3366   18.9615   38.0441 H   0  0  0  0  0  0  0  0  0  0  0  0
   -0.0913   12.7765   44.2705 H   0  0  0  0  0  0  0  0  0  0  0  0
    1.5014   11.3242   45.5248 H   0  0  0  0  0  0  0  0  0  0  0  0
    4.8114   13.6581   44.0154 H   0  0  0  0  0  0  0  0  0  0  0  0
    3.2075   15.1276   42.7953 H   0  0  0  0  0  0  0  0  0  0  0  0
   -1.3752   14.0519   43.3008 H   0  0  0  0  0  0  0  0  0  0  0  0
    2.7434   16.9859   41.0404 H   0  0  0  0  0  0  0  0  0  0  0  0
   -0.6249   18.1774   40.1592 H   0  0  0  0  0  0  0  0  0  0  0  0
  1  2  1  0
  1 19  1  0
  1 20  2  0
  2  3  1  0
  2 16  2  0
  3  4  2  0
  4  5  1  0
  5 15  2  0
  5 17  1  0
  6 17  1  0
  6 18  2  0
  6 22  1  0
  7  8  1  0
  7 14  2  0
  7 18  1  0
  8  9  1  0
  8 13  2  0
  9 10  2  0
 10 11  1  0
 11 12  2  0
 11 23  1  0
 12 13  1  0
 14 22  1  0
 15 16  1  0
 16 21  1  0
  3 24  1  0
  4 25  1  0
  9 26  1  0
 10 27  1  0
 12 28  1  0
 13 29  1  0
 14 30  1  0
 15 31  1  0
 17 32  1  0
M  CHG  2  19  -1  21  -1
M  END
>  <mol_id>  (49) 
2026-08-24-6tgu-s0-n100-0049

>  <rmsd_to_ref>  (49) 
2.6581632653068232

>  <pose_kind>  (49) 
rigid

$$$$
6tgu.A
     RDKit          3D

 32 34  0  0  0  0  0  0  0  0999 V2000
    4.2050   19.6669   36.7232 C   0  0  0  0  0  0  0  0  0  0  0  0
    3.6475   19.6114   38.0694 C   0  0  0  0  0  0  0  0  0  0  0  0
    2.6826   20.4992   38.4233 C   0  0  0  0  0  0  0  0  0  0  0  0
    2.1200   20.4498   39.6729 C   0  0  0  0  0  0  0  0  0  0  0  0
    2.5691   19.4751   40.5459 C   0  0  0  0  0  0  0  0  0  0  0  0
    1.1022   18.2931   42.0586 C   0  0  0  0  0  0  0  0  0  0  0  0
   -0.1251   16.4356   42.3950 C   0  0  0  0  0  0  0  0  0  0  0  0
   -0.2781   15.1769   43.1641 C   0  0  0  0  0  0  0  0  0  0  0  0
    0.6119   14.7847   44.1339 C   0  0  0  0  0  0  0  0  0  0  0  0
    0.4332   13.6073   44.8309 C   0  0  0  0  0  0  0  0  0  0  0  0
   -0.6413   12.7812   44.5810 C   0  0  0  0  0  0  0  0  0  0  0  0
   -1.5583   13.1618   43.5952 C   0  0  0  0  0  0  0  0  0  0  0  0
   -1.3546   14.3434   42.9172 C   0  0  0  0  0  0  0  0  0  0  0  0
   -1.0330   16.8072   41.4558 C   0  0  0  0  0  0  0  0  0  0  0  0
    3.5441   18.5568   40.2314 C   0  0  0  0  0  0  0  0  0  0  0  0
    4.0911   18.6309   38.9654 C   0  0  0  0  0  0  0  0  0  0  0  0
    1.8945   19.4777   41.8319 N   0  0  0  0  0  0  0  0  0  0  0  0
    0.8670   17.2911   42.5604 N   0  0  0  0  0  0  0  0  0  0  0  0
    5.1717   18.8072   36.2397 O   0  0  0  0  0  0  0  0  0  0  0  0
    3.7928   20.5581   35.9127 O   0  0  0  0  0  0  0  0  0  0  0  0
    5.0852   17.7488   38.5524 O   0  0  0  0  0  0  0  0  0  0  0  0
   -0.3940   18.4169   40.8445 S   0  0  0  0  0  0  0  0  0  0  0  0
   -0.9150   11.2742   45.4352 Cl  0  0  0  0  0  0  0  0  0  0  0  0
    2.3231   21.2756   37.7402 H   0  0  0  0  0  0  0  0  0  0  0  0
    1.3425   21.1548   39.9696 H   0  0  0  0  0  0  0  0  0  0  0  0
    1.4757   15.4323   44.3524 H   0  0  0  0  0  0  0  0  0  0  0  0
    1.1505   13.3323   45.6010 H   0  0  0  0  0  0  0  0  0  0  0  0
   -2.4196   12.5574   43.3565 H   0  0  0  0  0  0  0  0  0  0  0  0
   -2.0540   14.6206   42.1684 H   0  0  0  0  0  0  0  0  0  0  0  0
   -1.9646   16.3480   41.0619 H   0  0  0  0  0  0  0  0  0  0  0  0
    3.8621   17.8107   40.9437 H   0  0  0  0  0  0  0  0  0  0  0  0
    1.9871   20.2491   42.4998 H   0  0  0  0  0  0  0  0  0  0  0  0
  1  2  1  0
  1 19  1  0
  1 20  2  0
  2  3  1  0
  2 16  2  0
  3  4  2  0
  4  5  1  0
  5 15  2  0
  5 17  1  0
  6 17  1  0
  6 18  2  0
  6 22  1  0
  7  8  1  0
  7 14  2  0
  7 18  1  0
  8  9  1  0
  8 13  2  0
  9 10  2  0
 10 11  1  0
 11 12  2  0
 11 23  1  0
 12 13  1  0
 14 22  1  0
 15 16  1  0
 16 21  1  0
  3 24  1  0
  4 25  1  0
  9 26  1  0
 10 27  1  0
 12 28  1  0
 13 29  1  0
 14 30  1  0
 15 31  1  0
 17 32  1  0
M  CHG  2  19  -1  21  -1
M  END
>  <mol_id>  (50) 
2026-08-24-6tgu-s0-n100-0050

>  <rmsd_to_ref>  (50) 
2.7040816326561994

>  <pose_kind>  (50) 
conformer

$$$$
6tgu.A
     RDKit          3D

 32 34  0  0  0  0  0  0  0  0999 V2000
    4.6570   19.7738   38.1303 C   0  0  0  0  0  0  0  0  0  0  0  0
    3.4226   19.4340   38.9702 C   0  0  0  0  0  0  0  0  0  0  0  0
    2.3580   20.3284   39.0568 C   0  0  0  0  0  0  0  0  0  0  0  0
    1.1419   19.9789   39.6530 C   0  0  0  0  0  0  0  0  0  0  0  0
    1.0192   18.7637   40.3423 C   0  0  0  0  0  0  0  0  0  0  0  0
   -0.7324   17.1248   41.1846 C   0  0  0  0  0  0  0  0  0  0  0  0
   -0.7318   14.8655   41.4512 C   0  0  0  0  0  0  0  0  0  0  0  0
   -0.1240   13.5355   41.5063 C   0  0  0  0  0  0  0  0  0  0  0  0
   -0.8924   12.3732   41.6629 C   0  0  0  0  0  0  0  0  0  0  0  0
   -0.2971   11.1156   41.6790 C   0  0  0  0  0  0  0  0  0  0  0  0
    1.0695   11.0265   41.4927 C   0  0  0  0  0  0  0  0  0  0  0  0
    1.8664   12.1495   41.3287 C   0  0  0  0  0  0  0  0  0  0  0  0
    1.2534   13.3994   41.3269 C   0  0  0  0  0  0  0  0  0  0  0  0
   -2.0771   15.0979   41.5630 C   0  0  0  0  0  0  0  0  0  0  0  0
    2.0772   17.8476   40.2558 C   0  0  0  0  0  0  0  0  0  0  0  0
    3.2493   18.1990   39.5837 C   0  0  0  0  0  0  0  0  0  0  0  0
   -0.2332   18.3635   40.9012 N   0  0  0  0  0  0  0  0  0  0  0  0
    0.0593   15.9970   41.1412 N   0  0  0  0  0  0  0  0  0  0  0  0
    4.5796   20.8089   37.4053 O   0  0  0  0  0  0  0  0  0  0  0  0
    5.6076   18.9620   38.1656 O   0  0  0  0  0  0  0  0  0  0  0  0
    4.2372   17.2580   39.4152 O   0  0  0  0  0  0  0  0  0  0  0  0
   -2.4440   16.7536   41.2598 S   0  0  0  0  0  0  0  0  0  0  0  0
    1.8195    9.4648   41.4695 Cl  0  0  0  0  0  0  0  0  0  0  0  0
    2.4775   21.3407   38.6435 H   0  0  0  0  0  0  0  0  0  0  0  0
    0.2800   20.6585   39.5811 H   0  0  0  0  0  0  0  0  0  0  0  0
   -1.9835   12.4568   41.7749 H   0  0  0  0  0  0  0  0  0  0  0  0
   -0.9020   10.2106   41.8367 H   0  0  0  0  0  0  0  0  0  0  0  0
    2.9551   12.0551   41.2031 H   0  0  0  0  0  0  0  0  0  0  0  0
    1.8683   14.2998   41.1808 H   0  0  0  0  0  0  0  0  0  0  0  0
   -2.8235   14.3298   41.8132 H   0  0  0  0  0  0  0  0  0  0  0  0
    1.9839   16.8533   40.7168 H   0  0  0  0  0  0  0  0  0  0  0  0
   -0.8678   19.1422   41.1289 H   0  0  0  0  0  0  0  0  0  0  0  0
  1  2  1  0
  1 19  1  0
  1 20  2  0
  2  3  1  0
  2 16  2  0
  3  4  2  0
  4  5  1  0
  5 15  2  0
  5 17  1  0
  6 17  1  0
  6 18  2  0
  6 22  1  0
  7  8  1  0
  7 14  2  0
  7 18  1  0
  8  9  1  0
  8 13  2  0
  9 10  2  0
 10 11  1  0
 11 12  2  0
 11 23  1  0
 12 13  1  0
 14 22  1  0
 15 16  1  0
 16 21  1  0
  3 24  1  0
  4 25  1  0
  9 26  1  0
 10 27  1  0
 12 28  1  0
 13 29  1  0
 14 30  1  0
 15 31  1  0
 17 32  1  0
M  CHG  2  19  -1  21  -1
M  END
>  <mol_id>  (51) 
2026-08-24-6tgu-s0-n100-0051

>  <rmsd_to_ref>  (51) 
2.7500000000019478

>  <pose_kind>  (51) 
rigid

$$$$
6tgu.A
     RDKit          3D

 32 34  0  0  0  0  0  0  0  0999 V2000
    4.0520   21.0068   38.0420 C   0  0  0  0  0  0  0  0  0  0  0  0
    3.5514   20.3063   39.2189 C   0  0  0  0  0  0  0  0  0  0  0  0
    2.5657   20.8764   39.9590 C   0  0  0  0  0  0  0  0  0  0  0  0
    2.0561   20.2257   41.0533 C   0  0  0  0  0  0  0  0  0  0  0  0
    2.5796   18.9845   41.3691 C   0  0  0  0  0  0  0  0  0  0  0  0
    1.2242   17.1596   42.1875 C   0  0  0  0  0  0  0  0  0  0  0  0
    0.0890   15.2919   41.6469 C   0  0  0  0  0  0  0  0  0  0  0  0
    0.0188   13.8140   41.7492 C   0  0  0  0  0  0  0  0  0  0  0  0
    0.9622   13.0685   42.4128 C   0  0  0  0  0  0  0  0  0  0  0  0
    0.8601   11.6946   42.4893 C   0  0  0  0  0  0  0  0  0  0  0  0
   -0.1884   11.0189   41.9033 C   0  0  0  0  0  0  0  0  0  0  0  0
   -1.1590   11.7601   41.2205 C   0  0  0  0  0  0  0  0  0  0  0  0
   -1.0314   13.1305   41.1625 C   0  0  0  0  0  0  0  0  0  0  0  0
   -0.8704   16.0040   41.0012 C   0  0  0  0  0  0  0  0  0  0  0  0
    3.5781   18.3698   40.6496 C   0  0  0  0  0  0  0  0  0  0  0  0
    4.0706   19.0492   39.5525 C   0  0  0  0  0  0  0  0  0  0  0  0
    1.9574   18.3568   42.5213 N   0  0  0  0  0  0  0  0  0  0  0  0
    1.0507   16.0278   42.1728 N   0  0  0  0  0  0  0  0  0  0  0  0
    5.0332   20.5215   37.2000 O   0  0  0  0  0  0  0  0  0  0  0  0
    3.5714   22.1470   37.7424 O   0  0  0  0  0  0  0  0  0  0  0  0
    5.0828   18.5130   38.7620 O   0  0  0  0  0  0  0  0  0  0  0  0
   -0.3232   17.7467   41.1930 S   0  0  0  0  0  0  0  0  0  0  0  0
   -0.3655    9.2754   41.9681 Cl  0  0  0  0  0  0  0  0  0  0  0  0
    2.1476   21.8592   39.7184 H   0  0  0  0  0  0  0  0  0  0  0  0
    1.2627   20.6704   41.6551 H   0  0  0  0  0  0  0  0  0  0  0  0
    1.8068   13.5889   42.8918 H   0  0  0  0  0  0  0  0  0  0  0  0
    1.6184   11.1354   43.0329 H   0  0  0  0  0  0  0  0  0  0  0  0
   -2.0035   11.2875   40.7435 H   0  0  0  0  0  0  0  0  0  0  0  0
   -1.7710   13.6827   40.6384 H   0  0  0  0  0  0  0  0  0  0  0  0
   -1.7973   15.7277   40.4549 H   0  0  0  0  0  0  0  0  0  0  0  0
    3.9549   17.3982   40.9307 H   0  0  0  0  0  0  0  0  0  0  0  0
    2.0447   18.7373   43.4686 H   0  0  0  0  0  0  0  0  0  0  0  0
  1  2  1  0
  1 19  1  0
  1 20  2  0
  2  3  1  0
  2 16  2  0
  3  4  2  0
  4  5  1  0
  5 15  2  0
  5 17  1  0
  6 17  1  0
  6 18  2  0
  6 22  1  0
  7  8  1  0
  7 14  2  0
  7 18  1  0
  8  9  1  0
  8 13  2  0
  9 10  2  0
 10 11  1  0
 11 12  2  0
 11 23  1  0
 12 13  1  0
 14 22  1  0
 15 16  1  0
 16 21  1  0
  3 24  1  0
  4 25  1  0
  9 26  1  0
 10 27  1  0
 12 28  1  0
 13 29  1  0
 14 30  1  0
 15 31  1  0
 17 32  1  0
M  CHG  2  19  -1  21  -1
M  END
>  <mol_id>  (52) 
2026-08-24-6tgu-s0-n100-0052

>  <rmsd_to_ref>  (52) 
2.7959183673503465

>  <pose_kind>  (52) 
conformer

$$$$
6tgu.A
     RDKit          3D

 32 34  0  0  0  0  0  0  0  0999 V2000
    5.3983   19.5637   38.6480 C   0  0  0  0  0  0  0  0  0  0  0  0
    4.1268   19.5037   39.4992 C   0  0  0  0  0  0  0  0  0  0  0  0
    3.2671   20.5978   39.5644 C   0  0  0  0  0  0  0  0  0  0  0  0
    2.0099   20.5185   40.1722 C   0  0  0  0  0  0  0  0  0  0  0  0
    1.6478   19.3717   40.8938 C   0  0  0  0  0  0  0  0  0  0  0  0
   -0.3941   18.1456   41.7830 C   0  0  0  0  0  0  0  0  0  0  0  0
   -0.8509   15.9410   42.1095 C   0  0  0  0  0  0  0  0  0  0  0  0
   -0.5260   14.5170   42.1987 C   0  0  0  0  0  0  0  0  0  0  0  0
   -1.5134   13.5397   42.3877 C   0  0  0  0  0  0  0  0  0  0  0  0
   -1.1862   12.1882   42.4359 C   0  0  0  0  0  0  0  0  0  0  0  0
    0.1324   11.8181   42.2492 C   0  0  0  0  0  0  0  0  0  0  0  0
    1.1398   12.7510   42.0537 C   0  0  0  0  0  0  0  0  0  0  0  0
    0.7937   14.0990   42.0200 C   0  0  0  0  0  0  0  0  0  0  0  0
   -2.1200   16.4451   42.2180 C   0  0  0  0  0  0  0  0  0  0  0  0
    2.4968   18.2576   40.8293 C   0  0  0  0  0  0  0  0  0  0  0  0
    3.7108   18.3459   40.1457 C   0  0  0  0  0  0  0  0  0  0  0  0
    0.3443   19.2492   41.4657 N   0  0  0  0  0  0  0  0  0  0  0  0
    0.1514   16.8795   41.7679 N   0  0  0  0  0  0  0  0  0  0  0  0
    5.5276   20.5740   37.8960 O   0  0  0  0  0  0  0  0  0  0  0  0
    6.1642   18.5767   38.7029 O   0  0  0  0  0  0  0  0  0  0  0  0
    4.4853   17.2196   40.0003 O   0  0  0  0  0  0  0  0  0  0  0  0
   -2.1449   18.1324   41.8716 S   0  0  0  0  0  0  0  0  0  0  0  0
    0.5490   10.1365   42.2658 Cl  0  0  0  0  0  0  0  0  0  0  0  0
    3.5869   21.5539   39.1241 H   0  0  0  0  0  0  0  0  0  0  0  0
    1.3036   21.3572   40.0840 H   0  0  0  0  0  0  0  0  0  0  0  0
   -2.5638   13.8464   42.4997 H   0  0  0  0  0  0  0  0  0  0  0  0
   -1.9613   11.4295   42.6190 H   0  0  0  0  0  0  0  0  0  0  0  0
    2.1856   12.4339   41.9285 H   0  0  0  0  0  0  0  0  0  0  0  0
    1.5777   14.8514   41.8488 H   0  0  0  0  0  0  0  0  0  0  0  0
   -3.0052   15.8515   42.4901 H   0  0  0  0  0  0  0  0  0  0  0  0
    2.2065   17.3152   41.3168 H   0  0  0  0  0  0  0  0  0  0  0  0
   -0.1169   20.1463   41.6740 H   0  0  0  0  0  0  0  0  0  0  0  0
  1  2  1  0
  1 19  1  0
  1 20  2  0
  2  3  1  0
  2 16  2  0
  3  4  2  0
  4  5  1  0
  5 15  2  0
  5 17  1  0
  6 17  1  0
  6 18  2  0
  6 22  1  0
  7  8  1  0
  7 14  2  0
  7 18  1  0
  8  9  1  0
  8 13  2  0
  9 10  2  0
 10 11  1  0
 11 12  2  0
 11 23  1  0
 12 13  1  0
 14 22  1  0
 15 16  1  0
 16 21  1  0
  3 24  1  0
  4 25  1  0
  9 26  1  0
 10 27  1  0
 12 28  1  0
 13 29  1  0
 14 30  1  0
 15 31  1  0
 17 32  1  0
M  CHG  2  19  -1  21  -1
M  END
>  <mol_id>  (53) 
2026-08-24-6tgu-s0-n100-0053

>  <rmsd_to_ref>  (53) 
2.841836734697921

>  <pose_kind>  (53) 
rigid

$$$$
6tgu.A
     RDKit          3D

 32 34  0  0  0  0  0  0  0  0999 V2000
    4.7265   21.1605   37.6306 C   0  0  0  0  0  0  0  0  0  0  0  0
    3.6756   20.6947   38.5276 C   0  0  0  0  0  0  0  0  0  0  0  0
    2.4179   20.5274   38.0431 C   0  0  0  0  0  0  0  0  0  0  0  0
    1.4176   20.0620   38.8577 C   0  0  0  0  0  0  0  0  0  0  0  0
    1.7360   19.7754   40.1732 C   0  0  0  0  0  0  0  0  0  0  0  0
    0.8114   17.8880   41.3646 C   0  0  0  0  0  0  0  0  0  0  0  0
    1.1239   15.7519   42.0042 C   0  0  0  0  0  0  0  0  0  0  0  0
    1.3672   14.8222   43.1337 C   0  0  0  0  0  0  0  0  0  0  0  0
    1.4968   15.2477   44.4331 C   0  0  0  0  0  0  0  0  0  0  0  0
    1.7192   14.3508   45.4579 C   0  0  0  0  0  0  0  0  0  0  0  0
    1.8208   12.9974   45.2180 C   0  0  0  0  0  0  0  0  0  0  0  0
    1.6937   12.5438   43.9004 C   0  0  0  0  0  0  0  0  0  0  0  0
    1.4704   13.4625   42.8987 C   0  0  0  0  0  0  0  0  0  0  0  0
    0.9796   15.2992   40.7320 C   0  0  0  0  0  0  0  0  0  0  0  0
    2.9944   19.9306   40.7070 C   0  0  0  0  0  0  0  0  0  0  0  0
    3.9810   20.4001   39.8622 C   0  0  0  0  0  0  0  0  0  0  0  0
    0.6241   19.2576   40.9506 N   0  0  0  0  0  0  0  0  0  0  0  0
    1.0116   17.0613   42.1313 N   0  0  0  0  0  0  0  0  0  0  0  0
    6.0445   21.3476   37.9986 O   0  0  0  0  0  0  0  0  0  0  0  0
    4.4420   21.4213   36.4173 O   0  0  0  0  0  0  0  0  0  0  0  0
    5.2853   20.5935   40.3076 O   0  0  0  0  0  0  0  0  0  0  0  0
    0.6780   16.8264   39.7573 S   0  0  0  0  0  0  0  0  0  0  0  0
    2.1045   11.8152   46.4817 Cl  0  0  0  0  0  0  0  0  0  0  0  0
    2.1562   20.7544   37.0046 H   0  0  0  0  0  0  0  0  0  0  0  0
    0.4038   19.9205   38.4812 H   0  0  0  0  0  0  0  0  0  0  0  0
    1.4151   16.3251   44.6476 H   0  0  0  0  0  0  0  0  0  0  0  0
    1.8052   14.7204   46.4773 H   0  0  0  0  0  0  0  0  0  0  0  0
    1.7622   11.4963   43.6512 H   0  0  0  0  0  0  0  0  0  0  0  0
    1.3800   13.1080   41.9023 H   0  0  0  0  0  0  0  0  0  0  0  0
    1.0136   14.2918   40.2651 H   0  0  0  0  0  0  0  0  0  0  0  0
    3.1988   19.6915   41.7396 H   0  0  0  0  0  0  0  0  0  0  0  0
   -0.1996   19.8235   41.1765 H   0  0  0  0  0  0  0  0  0  0  0  0
  1  2  1  0
  1 19  1  0
  1 20  2  0
  2  3  1  0
  2 16  2  0
  3  4  2  0
  4  5  1  0
  5 15  2  0
  5 17  1  0
  6 17  1  0
  6 18  2  0
  6 22  1  0
  7  8  1  0
  7 14  2  0
  7 18  1  0
  8  9  1  0
  8 13  2  0
  9 10  2  0
 10 11  1  0
 11 12  2  0
 11 23  1  0
 12 13  1  0
 14 22  1  0
 15 16  1  0
 16 21  1  0
  3 24  1  0
  4 25  1  0
  9 26  1  0
 10 27  1  0
 12 28  1  0
 13 29  1  0
 14 30  1  0
 15 31  1  0
 17 32  1  0
M  CHG  2  19  -1  21  -1
M  END
>  <mol_id>  (54) 
2026-08-24-6tgu-s0-n100-0054

>  <rmsd_to_ref>  (54) 
2.887755102042873

>  <pose_kind>  (54) 
conformer

$$$$
6tgu.A
     RDKit          3D

 32 34  0  0  0  0  0  0  0  0999 V2000
    3.6199   17.5334   35.7730 C   0  0  0  0  0  0  0  0  0  0  0  0
    3.2765   18.1204   37.1448 C   0  0  0  0  0  0  0  0  0  0  0  0
    2.9484   19.4680   37.2754 C   0  0  0  0  0  0  0  0  0  0  0  0
    2.4476   19.9974   38.4693 C   0  0  0  0  0  0  0  0  0  0  0  0
    2.4258   19.2141   39.6325 C   0  0  0  0  0  0  0  0  0  0  0  0
    1.3083   19.0713   41.9115 C   0  0  0  0  0  0  0  0  0  0  0  0
    0.7243   17.3177   43.2379 C   0  0  0  0  0  0  0  0  0  0  0  0
    0.7049   15.9139   43.6503 C   0  0  0  0  0  0  0  0  0  0  0  0
   -0.0808   15.4644   44.7211 C   0  0  0  0  0  0  0  0  0  0  0  0
   -0.1101   14.1191   45.0751 C   0  0  0  0  0  0  0  0  0  0  0  0
    0.6190   13.2189   44.3211 C   0  0  0  0  0  0  0  0  0  0  0  0
    1.4047   13.6193   43.2509 C   0  0  0  0  0  0  0  0  0  0  0  0
    1.4298   14.9711   42.9195 C   0  0  0  0  0  0  0  0  0  0  0  0
    0.0069   18.3073   43.8563 C   0  0  0  0  0  0  0  0  0  0  0  0
    2.7423   17.8531   39.5159 C   0  0  0  0  0  0  0  0  0  0  0  0
    3.1637   17.3387   38.2884 C   0  0  0  0  0  0  0  0  0  0  0  0
    1.8587   19.7185   40.8429 N   0  0  0  0  0  0  0  0  0  0  0  0
    1.4097   17.7046   42.0621 N   0  0  0  0  0  0  0  0  0  0  0  0
    3.4265   18.2848   34.7724 O   0  0  0  0  0  0  0  0  0  0  0  0
    3.9851   16.3378   35.7432 O   0  0  0  0  0  0  0  0  0  0  0  0
    3.3703   15.9857   38.1602 O   0  0  0  0  0  0  0  0  0  0  0  0
    0.1236   19.7894   42.9858 S   0  0  0  0  0  0  0  0  0  0  0  0
    0.5599   11.5351   44.7246 Cl  0  0  0  0  0  0  0  0  0  0  0  0
    3.0876   20.1365   36.4130 H   0  0  0  0  0  0  0  0  0  0  0  0
    2.0702   21.0303   38.4961 H   0  0  0  0  0  0  0  0  0  0  0  0
   -0.6837   16.1871   45.2906 H   0  0  0  0  0  0  0  0  0  0  0  0
   -0.7018   13.7788   45.9377 H   0  0  0  0  0  0  0  0  0  0  0  0
    1.9932   12.8872   42.6783 H   0  0  0  0  0  0  0  0  0  0  0  0
    2.0343   15.3038   42.0628 H   0  0  0  0  0  0  0  0  0  0  0  0
   -0.5672   18.1736   44.7851 H   0  0  0  0  0  0  0  0  0  0  0  0
    2.6588   17.1914   40.3908 H   0  0  0  0  0  0  0  0  0  0  0  0
    1.8666   20.7453   40.9230 H   0  0  0  0  0  0  0  0  0  0  0  0
  1  2  1  0
  1 19  1  0
  1 20  2  0
  2  3  1  0
  2 16  2  0
  3  4  2  0
  4  5  1  0
  5 15  2  0
  5 17  1  0
  6 17  1  0
  6 18  2  0
  6 22  1  0
  7  8  1  0
  7 14  2  0
  7 18  1  0
  8  9  1  0
  8 13  2  0
  9 10  2  0
 10 11  1  0
 11 12  2  0
 11 23  1  0
 12 13  1  0
 14 22  1  0
 15 16  1  0
 16 21  1  0
  3 24  1  0
  4 25  1  0
  9 26  1  0
 10 27  1  0
 12 28  1  0
 13 29  1  0
 14 30  1  0
 15 31  1  0
 17 32  1  0
M  CHG  2  19  -1  21  -1
M  END
>  <mol_id>  (55) 
2026-08-24-6tgu-s0-n100-0055

>  <rmsd_to_ref>  (55) 
2.9336734693958286

>  <pose_kind>  (55) 
rigid

$$$$
6tgu.A
     RDKit          3D

 32 34  0  0  0  0  0  0  0  0999 V2000
    1.4766   21.4318   37.5733 C   0  0  0  0  0  0  0  0  0  0  0  0
    1.3326   20.4730   38.6624 C   0  0  0  0  0  0  0  0  0  0  0  0
    0.1437   20.3839   39.3128 C   0  0  0  0  0  0  0  0  0  0  0  0
   -0.0280   19.4699   40.3207 C   0  0  0  0  0  0  0  0  0  0  0  0
    1.0426   18.6557   40.6445 C   0  0  0  0  0  0  0  0  0  0  0  0
    0.7866   16.3293   41.2433 C   0  0  0  0  0  0  0  0  0  0  0  0
    0.8382   14.1996   40.5142 C   0  0  0  0  0  0  0  0  0  0  0  0
    1.5440   12.8959   40.5529 C   0  0  0  0  0  0  0  0  0  0  0  0
    2.6869   12.6902   41.2861 C   0  0  0  0  0  0  0  0  0  0  0  0
    3.3132   11.4606   41.2996 C   0  0  0  0  0  0  0  0  0  0  0  0
    2.8183   10.3950   40.5791 C   0  0  0  0  0  0  0  0  0  0  0  0
    1.6558   10.5848   39.8239 C   0  0  0  0  0  0  0  0  0  0  0  0
    1.0519   11.8227   39.8314 C   0  0  0  0  0  0  0  0  0  0  0  0
   -0.3023   14.3672   39.7959 C   0  0  0  0  0  0  0  0  0  0  0  0
    2.2643   18.7118   40.0142 C   0  0  0  0  0  0  0  0  0  0  0  0
    2.4067   19.6414   39.0028 C   0  0  0  0  0  0  0  0  0  0  0  0
    0.7591   17.6983   41.6986 N   0  0  0  0  0  0  0  0  0  0  0  0
    1.2320   15.2771   41.1677 N   0  0  0  0  0  0  0  0  0  0  0  0
    2.6247   21.5998   36.8243 O   0  0  0  0  0  0  0  0  0  0  0  0
    0.4939   22.1809   37.2665 O   0  0  0  0  0  0  0  0  0  0  0  0
    3.6040   19.7776   38.3064 O   0  0  0  0  0  0  0  0  0  0  0  0
   -0.7626   16.1172   40.1106 S   0  0  0  0  0  0  0  0  0  0  0  0
    3.5750    8.8131   40.5593 Cl  0  0  0  0  0  0  0  0  0  0  0  0
   -0.7078   21.0259   39.0656 H   0  0  0  0  0  0  0  0  0  0  0  0
   -0.9780   19.3858   40.8498 H   0  0  0  0  0  0  0  0  0  0  0  0
    3.0974   13.5276   41.8722 H   0  0  0  0  0  0  0  0  0  0  0  0
    4.2102   11.3284   41.9005 H   0  0  0  0  0  0  0  0  0  0  0  0
    1.2203    9.7879   39.2415 H   0  0  0  0  0  0  0  0  0  0  0  0
    0.1729   11.9569   39.2517 H   0  0  0  0  0  0  0  0  0  0  0  0
   -0.9055   13.7009   39.1430 H   0  0  0  0  0  0  0  0  0  0  0  0
    3.0720   18.0542   40.2978 H   0  0  0  0  0  0  0  0  0  0  0  0
    0.5657   17.9839   42.6635 H   0  0  0  0  0  0  0  0  0  0  0  0
  1  2  1  0
  1 19  1  0
  1 20  2  0
  2  3  1  0
  2 16  2  0
  3  4  2  0
  4  5  1  0
  5 15  2  0
  5 17  1  0
  6 17  1  0
  6 18  2  0
  6 22  1  0
  7  8  1  0
  7 14  2  0
  7 18  1  0
  8  9  1  0
  8 13  2  0
  9 10  2  0
 10 11  1  0
 11 12  2  0
 11 23  1  0
 12 13  1  0
 14 22  1  0
 15 16  1  0
 16 21  1  0
  3 24  1  0
  4 25  1  0
  9 26  1  0
 10 27  1  0
 12 28  1  0
 13 29  1  0
 14 30  1  0
 15 31  1  0
 17 32  1  0
M  CHG  2  19  -1  21  -1
M  END
>  <mol_id>  (56) 
2026-08-24-6tgu-s0-n100-0056

>  <rmsd_to_ref>  (56) 
2.9795918367365277

>  <pose_kind>  (56) 
conformer

$$$$
6tgu.A
     RDKit          3D

 32 34  0  0  0  0  0  0  0  0999 V2000
    1.2540   19.8888   35.8107 C   0  0  0  0  0  0  0  0  0  0  0  0
    0.9223   19.5549   37.2677 C   0  0  0  0  0  0  0  0  0  0  0  0
   -0.3797   19.6880   37.7451 C   0  0  0  0  0  0  0  0  0  0  0  0
   -0.7595   19.2164   39.0059 C   0  0  0  0  0  0  0  0  0  0  0  0
    0.2104   18.7477   39.9039 C   0  0  0  0  0  0  0  0  0  0  0  0
    0.4627   17.3057   41.9824 C   0  0  0  0  0  0  0  0  0  0  0  0
    2.1358   15.9604   42.7350 C   0  0  0  0  0  0  0  0  0  0  0  0
    3.4879   15.4009   42.7418 C   0  0  0  0  0  0  0  0  0  0  0  0
    3.8539   14.3517   43.5969 C   0  0  0  0  0  0  0  0  0  0  0  0
    5.1359   13.8120   43.5631 C   0  0  0  0  0  0  0  0  0  0  0  0
    6.0370   14.3004   42.6358 C   0  0  0  0  0  0  0  0  0  0  0  0
    5.7152   15.3328   41.7677 C   0  0  0  0  0  0  0  0  0  0  0  0
    4.4311   15.8674   41.8246 C   0  0  0  0  0  0  0  0  0  0  0  0
    1.1268   15.5345   43.5577 C   0  0  0  0  0  0  0  0  0  0  0  0
    1.5235   18.5971   39.4358 C   0  0  0  0  0  0  0  0  0  0  0  0
    1.8525   19.0054   38.1419 C   0  0  0  0  0  0  0  0  0  0  0  0
   -0.1675   18.2035   41.1697 N   0  0  0  0  0  0  0  0  0  0  0  0
    1.7642   16.9117   41.7557 N   0  0  0  0  0  0  0  0  0  0  0  0
    0.2715   20.1217   35.0466 O   0  0  0  0  0  0  0  0  0  0  0  0
    2.4567   19.8261   35.4743 O   0  0  0  0  0  0  0  0  0  0  0  0
    3.1151   18.7575   37.6580 O   0  0  0  0  0  0  0  0  0  0  0  0
   -0.3675   16.2827   43.1390 S   0  0  0  0  0  0  0  0  0  0  0  0
    7.6240   13.6103   42.5544 Cl  0  0  0  0  0  0  0  0  0  0  0  0
   -1.1323   20.1793   37.1109 H   0  0  0  0  0  0  0  0  0  0  0  0
   -1.8212   19.2130   39.2938 H   0  0  0  0  0  0  0  0  0  0  0  0
    3.1157   13.9489   44.3058 H   0  0  0  0  0  0  0  0  0  0  0  0
    5.4265   13.0125   44.2605 H   0  0  0  0  0  0  0  0  0  0  0  0
    6.4559   15.7196   41.0523 H   0  0  0  0  0  0  0  0  0  0  0  0
    4.1535   16.6752   41.1315 H   0  0  0  0  0  0  0  0  0  0  0  0
    1.2537   14.8111   44.3766 H   0  0  0  0  0  0  0  0  0  0  0  0
    2.2935   18.1577   40.0870 H   0  0  0  0  0  0  0  0  0  0  0  0
   -1.0690   18.5470   41.5306 H   0  0  0  0  0  0  0  0  0  0  0  0
  1  2  1  0
  1 19  1  0
  1 20  2  0
  2  3  1  0
  2 16  2  0
  3  4  2  0
  4  5  1  0
  5 15  2  0
  5 17  1  0
  6 17  1  0
  6 18  2  0
  6 22  1  0
  7  8  1  0
  7 14  2  0
  7 18  1  0
  8  9  1  0
  8 13  2  0
  9 10  2  0
 10 11  1  0
 11 12  2  0
 11 23  1  0
 12 13  1  0
 14 22  1  0
 15 16  1  0
 16 21  1  0
  3 24  1  0
  4 25  1  0
  9 26  1  0
 10 27  1  0
 12 28  1  0
 13 29  1  0
 14 30  1  0
 15 31  1  0
 17 32  1  0
M  CHG  2  19  -1  21  -1
M  END
>  <mol_id>  (57) 
2026-08-24-6tgu-s0-n100-0057

>  <rmsd_to_ref>  (57) 
3.02551020408347

>  <pose_kind>  (57) 
rigid

$$$$
6tgu.A
     RDKit          3D

 32 34  0  0  0  0  0  0  0  0999 V2000
    2.0031   20.0369   36.7902 C   0  0  0  0  0  0  0  0  0  0  0  0
    1.8304   19.5397   38.1499 C   0  0  0  0  0  0  0  0  0  0  0  0
    0.5756   19.3095   38.6160 C   0  0  0  0  0  0  0  0  0  0  0  0
    0.3862   18.8135   39.8805 C   0  0  0  0  0  0  0  0  0  0  0  0
    1.5074   18.5622   40.6510 C   0  0  0  0  0  0  0  0  0  0  0  0
    1.6859   16.6552   42.1234 C   0  0  0  0  0  0  0  0  0  0  0  0
    2.4361   14.5454   42.3594 C   0  0  0  0  0  0  0  0  0  0  0  0
    3.4061   13.6453   43.0291 C   0  0  0  0  0  0  0  0  0  0  0  0
    4.3444   14.0968   43.9245 C   0  0  0  0  0  0  0  0  0  0  0  0
    5.2280   13.2271   44.5302 C   0  0  0  0  0  0  0  0  0  0  0  0
    5.2042   11.8759   44.2599 C   0  0  0  0  0  0  0  0  0  0  0  0
    4.2571   11.3962   43.3485 C   0  0  0  0  0  0  0  0  0  0  0  0
    3.3871   12.2881   42.7612 C   0  0  0  0  0  0  0  0  0  0  0  0
    1.5060   14.0666   41.4934 C   0  0  0  0  0  0  0  0  0  0  0  0
    2.7959   18.7811   40.2212 C   0  0  0  0  0  0  0  0  0  0  0  0
    2.9549   19.2802   38.9431 C   0  0  0  0  0  0  0  0  0  0  0  0
    1.2122   18.0084   41.9605 N   0  0  0  0  0  0  0  0  0  0  0  0
    2.3791   15.8505   42.5514 N   0  0  0  0  0  0  0  0  0  0  0  0
    3.2250   20.2877   36.1971 O   0  0  0  0  0  0  0  0  0  0  0  0
    0.9760   20.2656   36.0735 O   0  0  0  0  0  0  0  0  0  0  0  0
    4.2174   19.5378   38.4172 O   0  0  0  0  0  0  0  0  0  0  0  0
    0.5687   15.5633   40.9886 S   0  0  0  0  0  0  0  0  0  0  0  0
    6.3044   10.7276   44.9991 Cl  0  0  0  0  0  0  0  0  0  0  0  0
   -0.3173   19.5081   38.0146 H   0  0  0  0  0  0  0  0  0  0  0  0
   -0.6156   18.6216   40.2667 H   0  0  0  0  0  0  0  0  0  0  0  0
    4.3782   15.1729   44.1580 H   0  0  0  0  0  0  0  0  0  0  0  0
    5.9507   13.6163   45.2439 H   0  0  0  0  0  0  0  0  0  0  0  0
    4.1889   10.3488   43.0984 H   0  0  0  0  0  0  0  0  0  0  0  0
    2.6755   11.9141   42.0681 H   0  0  0  0  0  0  0  0  0  0  0  0
    1.2664   13.0543   41.1036 H   0  0  0  0  0  0  0  0  0  0  0  0
    3.6424   18.5677   40.8558 H   0  0  0  0  0  0  0  0  0  0  0  0
    0.7204   18.5410   42.6846 H   0  0  0  0  0  0  0  0  0  0  0  0
  1  2  1  0
  1 19  1  0
  1 20  2  0
  2  3  1  0
  2 16  2  0
  3  4  2  0
  4  5  1  0
  5 15  2  0
  5 17  1  0
  6 17  1  0
  6 18  2  0
  6 22  1  0
  7  8  1  0
  7 14  2  0
  7 18  1  0
  8  9  1  0
  8 13  2  0
  9 10  2  0
 10 11  1  0
 11 12  2  0
 11 23  1  0
 12 13  1  0
 14 22  1  0
 15 16  1  0
 16 21  1  0
  3 24  1  0
  4 25  1  0
  9 26  1  0
 10 27  1  0
 12 28  1  0
 13 29  1  0
 14 30  1  0
 15 31  1  0
 17 32  1  0
M  CHG  2  19  -1  21  -1
M  END
>  <mol_id>  (58) 
2026-08-24-6tgu-s0-n100-0058

>  <rmsd_to_ref>  (58) 
3.071428571431358

>  <pose_kind>  (58) 
conformer

$$$$
6tgu.A
     RDKit          3D

 32 34  0  0  0  0  0  0  0  0999 V2000
    3.7376   19.1019   38.0975 C   0  0  0  0  0  0  0  0  0  0  0  0
    2.5657   18.4414   38.8288 C   0  0  0  0  0  0  0  0  0  0  0  0
    1.3165   18.3439   38.2198 C   0  0  0  0  0  0  0  0  0  0  0  0
    0.2790   17.5855   38.7720 C   0  0  0  0  0  0  0  0  0  0  0  0
    0.4133   17.0381   40.0561 C   0  0  0  0  0  0  0  0  0  0  0  0
   -0.5542   15.2275   41.5558 C   0  0  0  0  0  0  0  0  0  0  0  0
    0.3518   13.9262   43.1872 C   0  0  0  0  0  0  0  0  0  0  0  0
    1.3894   13.5131   44.1326 C   0  0  0  0  0  0  0  0  0  0  0  0
    1.2692   12.3503   44.9068 C   0  0  0  0  0  0  0  0  0  0  0  0
    2.2831   11.9579   45.7752 C   0  0  0  0  0  0  0  0  0  0  0  0
    3.4385   12.7144   45.8306 C   0  0  0  0  0  0  0  0  0  0  0  0
    3.6015   13.8681   45.0786 C   0  0  0  0  0  0  0  0  0  0  0  0
    2.5710   14.2502   44.2241 C   0  0  0  0  0  0  0  0  0  0  0  0
   -0.8176   13.2415   42.9863 C   0  0  0  0  0  0  0  0  0  0  0  0
    1.6675   17.1177   40.6783 C   0  0  0  0  0  0  0  0  0  0  0  0
    2.7073   17.8164   40.0620 C   0  0  0  0  0  0  0  0  0  0  0  0
   -0.6105   16.2082   40.6078 N   0  0  0  0  0  0  0  0  0  0  0  0
    0.5762   15.0191   42.3170 N   0  0  0  0  0  0  0  0  0  0  0  0
    3.5524   19.3907   36.8787 O   0  0  0  0  0  0  0  0  0  0  0  0
    4.8053   19.2288   38.7361 O   0  0  0  0  0  0  0  0  0  0  0  0
    3.9591   17.7996   40.6297 O   0  0  0  0  0  0  0  0  0  0  0  0
   -1.7051   13.9099   41.6697 S   0  0  0  0  0  0  0  0  0  0  0  0
    4.7262   12.2157   46.8770 Cl  0  0  0  0  0  0  0  0  0  0  0  0
    1.1406   18.8800   37.2755 H   0  0  0  0  0  0  0  0  0  0  0  0
   -0.6442   17.4181   38.1978 H   0  0  0  0  0  0  0  0  0  0  0  0
    0.3587   11.7383   44.8265 H   0  0  0  0  0  0  0  0  0  0  0  0
    2.1675   11.0633   46.4048 H   0  0  0  0  0  0  0  0  0  0  0  0
    4.5217   14.4659   45.1551 H   0  0  0  0  0  0  0  0  0  0  0  0
    2.6906   15.1533   43.6075 H   0  0  0  0  0  0  0  0  0  0  0  0
   -1.1462   12.3798   43.5858 H   0  0  0  0  0  0  0  0  0  0  0  0
    1.8318   16.6304   41.6507 H   0  0  0  0  0  0  0  0  0  0  0  0
   -1.5514   16.3790   40.2251 H   0  0  0  0  0  0  0  0  0  0  0  0
  1  2  1  0
  1 19  1  0
  1 20  2  0
  2  3  1  0
  2 16  2  0
  3  4  2  0
  4  5  1  0
  5 15  2  0
  5 17  1  0
  6 17  1  0
  6 18  2  0
  6 22  1  0
  7  8  1  0
  7 14  2  0
  7 18  1  0
  8  9  1  0
  8 13  2  0
  9 10  2  0
 10 11  1  0
 11 12  2  0
 11 23  1  0
 12 13  1  0
 14 22  1  0
 15 16  1  0
 16 21  1  0
  3 24  1  0
  4 25  1  0
  9 26  1  0
 10 27  1  0
 12 28  1  0
 13 29  1  0
 14 30  1  0
 15 31  1  0
 17 32  1  0
M  CHG  2  19  -1  21  -1
M  END
>  <mol_id>  (59) 
2026-08-24-6tgu-s0-n100-0059

>  <rmsd_to_ref>  (59) 
3.1173469387810546

>  <pose_kind>  (59) 
rigid

$$$$
6tgu.A
     RDKit          3D

 32 34  0  0  0  0  0  0  0  0999 V2000
    1.9232   21.3030   36.7541 C   0  0  0  0  0  0  0  0  0  0  0  0
    1.9107   20.4882   37.9632 C   0  0  0  0  0  0  0  0  0  0  0  0
    0.7513   20.3518   38.6575 C   0  0  0  0  0  0  0  0  0  0  0  0
    0.7048   19.5670   39.7812 C   0  0  0  0  0  0  0  0  0  0  0  0
    1.8687   18.9307   40.1740 C   0  0  0  0  0  0  0  0  0  0  0  0
    1.8971   16.6911   41.0797 C   0  0  0  0  0  0  0  0  0  0  0  0
    2.1857   14.5031   40.6338 C   0  0  0  0  0  0  0  0  0  0  0  0
    3.0400   13.3052   40.8200 C   0  0  0  0  0  0  0  0  0  0  0  0
    4.2113   13.3308   41.5367 C   0  0  0  0  0  0  0  0  0  0  0  0
    4.9774   12.1935   41.6907 C   0  0  0  0  0  0  0  0  0  0  0  0
    4.5989   10.9919   41.1319 C   0  0  0  0  0  0  0  0  0  0  0  0
    3.4097   10.9453   40.3961 C   0  0  0  0  0  0  0  0  0  0  0  0
    2.6651   12.0962   40.2611 C   0  0  0  0  0  0  0  0  0  0  0  0
    1.0217   14.4422   39.9367 C   0  0  0  0  0  0  0  0  0  0  0  0
    3.0647   19.0408   39.5031 C   0  0  0  0  0  0  0  0  0  0  0  0
    3.0804   19.8373   38.3747 C   0  0  0  0  0  0  0  0  0  0  0  0
    1.7169   18.0965   41.3529 N   0  0  0  0  0  0  0  0  0  0  0  0
    2.4615   15.6959   41.1279 N   0  0  0  0  0  0  0  0  0  0  0  0
    3.0310   21.4992   35.9532 O   0  0  0  0  0  0  0  0  0  0  0  0
    0.8544   21.8875   36.3837 O   0  0  0  0  0  0  0  0  0  0  0  0
    4.2416   20.0147   37.6286 O   0  0  0  0  0  0  0  0  0  0  0  0
    0.3647   16.1544   40.0347 S   0  0  0  0  0  0  0  0  0  0  0  0
    5.5353    9.5180   41.2948 Cl  0  0  0  0  0  0  0  0  0  0  0  0
   -0.1735   20.8538   38.3558 H   0  0  0  0  0  0  0  0  0  0  0  0
   -0.2200   19.4465   40.3469 H   0  0  0  0  0  0  0  0  0  0  0  0
    4.5305   14.2801   41.9950 H   0  0  0  0  0  0  0  0  0  0  0  0
    5.8936   12.2458   42.2747 H   0  0  0  0  0  0  0  0  0  0  0  0
    3.0610   10.0334   39.9370 H   0  0  0  0  0  0  0  0  0  0  0  0
    1.7670   12.0508   39.6972 H   0  0  0  0  0  0  0  0  0  0  0  0
    0.4899   13.6304   39.3962 H   0  0  0  0  0  0  0  0  0  0  0  0
    3.9485   18.5234   39.8441 H   0  0  0  0  0  0  0  0  0  0  0  0
    1.5075   18.4845   42.2777 H   0  0  0  0  0  0  0  0  0  0  0  0
  1  2  1  0
  1 19  1  0
  1 20  2  0
  2  3  1  0
  2 16  2  0
  3  4  2  0
  4  5  1  0
  5 15  2  0
  5 17  1  0
  6 17  1  0
  6 18  2  0
  6 22  1  0
  7  8  1  0
  7 14  2  0
  7 18  1  0
  8  9  1  0
  8 13  2  0
  9 10  2  0
 10 11  1  0
 11 12  2  0
 11 23  1  0
 12 13  1  0
 14 22  1  0
 15 16  1  0
 16 21  1  0
  3 24  1  0
  4 25  1  0
  9 26  1  0
 10 27  1  0
 12 28  1  0
 13 29  1  0
 14 30  1  0
 15 31  1  0
 17 32  1  0
M  CHG  2  19  -1  21  -1
M  END
>  <mol_id>  (60) 
2026-08-24-6tgu-s0-n100-0060

>  <rmsd_to_ref>  (60) 
3.163265306129091

>  <pose_kind>  (60) 
conformer

$$$$
6tgu.A
     RDKit          3D

 32 34  0  0  0  0  0  0  0  0999 V2000
    3.5702   18.0263   35.6336 C   0  0  0  0  0  0  0  0  0  0  0  0
    3.1744   18.6537   36.9732 C   0  0  0  0  0  0  0  0  0  0  0  0
    2.9823   20.0292   37.0807 C   0  0  0  0  0  0  0  0  0  0  0  0
    2.4398   20.6151   38.2291 C   0  0  0  0  0  0  0  0  0  0  0  0
    2.2338   19.8445   39.3826 C   0  0  0  0  0  0  0  0  0  0  0  0
    0.9148   19.8335   41.5559 C   0  0  0  0  0  0  0  0  0  0  0  0
    0.0340   18.1591   42.8194 C   0  0  0  0  0  0  0  0  0  0  0  0
   -0.1710   16.7675   43.2225 C   0  0  0  0  0  0  0  0  0  0  0  0
   -1.0899   16.4101   44.2195 C   0  0  0  0  0  0  0  0  0  0  0  0
   -1.2935   15.0775   44.5638 C   0  0  0  0  0  0  0  0  0  0  0  0
   -0.6025   14.1007   43.8718 C   0  0  0  0  0  0  0  0  0  0  0  0
    0.3111   14.4092   42.8753 C   0  0  0  0  0  0  0  0  0  0  0  0
    0.5092   15.7490   42.5531 C   0  0  0  0  0  0  0  0  0  0  0  0
   -0.6241   19.2229   43.3777 C   0  0  0  0  0  0  0  0  0  0  0  0
    2.4118   18.4569   39.2882 C   0  0  0  0  0  0  0  0  0  0  0  0
    2.8801   17.8942   38.0993 C   0  0  0  0  0  0  0  0  0  0  0  0
    1.6215   20.4128   40.5416 N   0  0  0  0  0  0  0  0  0  0  0  0
    0.8559   18.4646   41.7088 N   0  0  0  0  0  0  0  0  0  0  0  0
    3.5455   18.7890   34.6234 O   0  0  0  0  0  0  0  0  0  0  0  0
    3.8066   16.7983   35.6306 O   0  0  0  0  0  0  0  0  0  0  0  0
    2.9510   16.5263   37.9838 O   0  0  0  0  0  0  0  0  0  0  0  0
   -0.2746   20.6796   42.5268 S   0  0  0  0  0  0  0  0  0  0  0  0
   -0.8761   12.4348   44.2617 Cl  0  0  0  0  0  0  0  0  0  0  0  0
    3.2662   20.6746   36.2364 H   0  0  0  0  0  0  0  0  0  0  0  0
    2.1741   21.6826   38.2275 H   0  0  0  0  0  0  0  0  0  0  0  0
   -1.6589   17.1960   44.7378 H   0  0  0  0  0  0  0  0  0  0  0  0
   -1.9905   14.8067   45.3706 H   0  0  0  0  0  0  0  0  0  0  0  0
    0.8651   13.6156   42.3527 H   0  0  0  0  0  0  0  0  0  0  0  0
    1.2176   16.0107   41.7532 H   0  0  0  0  0  0  0  0  0  0  0  0
   -1.2873   19.1561   44.2528 H   0  0  0  0  0  0  0  0  0  0  0  0
    2.1826   17.8124   40.1495 H   0  0  0  0  0  0  0  0  0  0  0  0
    1.7322   21.4333   40.6264 H   0  0  0  0  0  0  0  0  0  0  0  0
  1  2  1  0
  1 19  1  0
  1 20  2  0
  2  3  1  0
  2 16  2  0
  3  4  2  0
  4  5  1  0
  5 15  2  0
  5 17  1  0
  6 17  1  0
  6 18  2  0
  6 22  1  0
  7  8  1  0
  7 14  2  0
  7 18  1  0
  8  9  1  0
  8 13  2  0
  9 10  2  0
 10 11  1  0
 11 12  2  0
 11 23  1  0
 12 13  1  0
 14 22  1  0
 15 16  1  0
 16 21  1  0
  3 24  1  0
  4 25  1  0
  9 26  1  0
 10 27  1  0
 12 28  1  0
 13 29  1  0
 14 30  1  0
 15 31  1  0
 17 32  1  0
M  CHG  2  19  -1  21  -1
M  END
>  <mol_id>  (61) 
2026-08-24-6tgu-s0-n100-0061

>  <rmsd_to_ref>  (61) 
3.209183673472575

>  <pose_kind>  (61) 
rigid

$$$$
6tgu.A
     RDKit          3D

 32 34  0  0  0  0  0  0  0  0999 V2000
   -0.2145   19.7289   37.3841 C   0  0  0  0  0  0  0  0  0  0  0  0
   -0.1577   19.4365   38.8115 C   0  0  0  0  0  0  0  0  0  0  0  0
   -1.3167   19.3229   39.5104 C   0  0  0  0  0  0  0  0  0  0  0  0
   -1.2928   19.0190   40.8475 C   0  0  0  0  0  0  0  0  0  0  0  0
   -0.0593   18.8369   41.4470 C   0  0  0  0  0  0  0  0  0  0  0  0
    0.3440   17.1525   43.1315 C   0  0  0  0  0  0  0  0  0  0  0  0
    1.0950   15.0705   43.5441 C   0  0  0  0  0  0  0  0  0  0  0  0
    2.1535   14.2381   44.1655 C   0  0  0  0  0  0  0  0  0  0  0  0
    3.2377   14.7759   44.8150 C   0  0  0  0  0  0  0  0  0  0  0  0
    4.2005   13.9678   45.3841 C   0  0  0  0  0  0  0  0  0  0  0  0
    4.1124   12.5937   45.3223 C   0  0  0  0  0  0  0  0  0  0  0  0
    3.0165   12.0261   44.6632 C   0  0  0  0  0  0  0  0  0  0  0  0
    2.0705   12.8582   44.1063 C   0  0  0  0  0  0  0  0  0  0  0  0
    0.0236   14.5095   42.9263 C   0  0  0  0  0  0  0  0  0  0  0  0
    1.1390   18.9432   40.7795 C   0  0  0  0  0  0  0  0  0  0  0  0
    1.0827   19.2494   39.4338 C   0  0  0  0  0  0  0  0  0  0  0  0
   -0.1326   18.4862   42.8543 N   0  0  0  0  0  0  0  0  0  0  0  0
    1.0894   16.3907   43.5499 N   0  0  0  0  0  0  0  0  0  0  0  0
    0.8905   19.8461   36.5641 O   0  0  0  0  0  0  0  0  0  0  0  0
   -1.3464   19.8927   36.8246 O   0  0  0  0  0  0  0  0  0  0  0  0
    2.2395   19.3814   38.6714 O   0  0  0  0  0  0  0  0  0  0  0  0
   -0.9662   15.9543   42.3727 S   0  0  0  0  0  0  0  0  0  0  0  0
    5.3077   11.5207   46.0260 Cl  0  0  0  0  0  0  0  0  0  0  0  0
   -2.2969   19.4682   39.0451 H   0  0  0  0  0  0  0  0  0  0  0  0
   -2.2157   18.9222   41.4205 H   0  0  0  0  0  0  0  0  0  0  0  0
    3.3257   15.8721   44.8794 H   0  0  0  0  0  0  0  0  0  0  0  0
    5.0403   14.4262   45.9015 H   0  0  0  0  0  0  0  0  0  0  0  0
    2.8923   10.9573   44.5840 H   0  0  0  0  0  0  0  0  0  0  0  0
    1.2454   12.4173   43.6049 H   0  0  0  0  0  0  0  0  0  0  0  0
   -0.2929   13.4621   42.7346 H   0  0  0  0  0  0  0  0  0  0  0  0
    2.0791   18.7898   41.2872 H   0  0  0  0  0  0  0  0  0  0  0  0
   -0.4854   19.1344   43.5648 H   0  0  0  0  0  0  0  0  0  0  0  0
  1  2  1  0
  1 19  1  0
  1 20  2  0
  2  3  1  0
  2 16  2  0
  3  4  2  0
  4  5  1  0
  5 15  2  0
  5 17  1  0
  6 17  1  0
  6 18  2  0
  6 22  1  0
  7  8  1  0
  7 14  2  0
  7 18  1  0
  8  9  1  0
  8 13  2  0
  9 10  2  0
 10 11  1  0
 11 12  2  0
 11 23  1  0
 12 13  1  0
 14 22  1  0
 15 16  1  0
 16 21  1  0
  3 24  1  0
  4 25  1  0
  9 26  1  0
 10 27  1  0
 12 28  1  0
 13 29  1  0
 14 30  1  0
 15 31  1  0
 17 32  1  0
M  CHG  2  19  -1  21  -1
M  END
>  <mol_id>  (62) 
2026-08-24-6tgu-s0-n100-0062

>  <rmsd_to_ref>  (62) 
3.255102040824236

>  <pose_kind>  (62) 
conformer

$$$$
6tgu.A
     RDKit          3D

 32 34  0  0  0  0  0  0  0  0999 V2000
    1.1991   21.1850   37.7737 C   0  0  0  0  0  0  0  0  0  0  0  0
    1.0745   20.2881   39.0083 C   0  0  0  0  0  0  0  0  0  0  0  0
    0.1680   20.5986   40.0196 C   0  0  0  0  0  0  0  0  0  0  0  0
   -0.1105   19.7116   41.0647 C   0  0  0  0  0  0  0  0  0  0  0  0
    0.6525   18.5451   41.2201 C   0  0  0  0  0  0  0  0  0  0  0  0
    0.5816   16.2570   42.3260 C   0  0  0  0  0  0  0  0  0  0  0  0
    1.4463   14.2342   41.7464 C   0  0  0  0  0  0  0  0  0  0  0  0
    2.2828   13.3228   40.9648 C   0  0  0  0  0  0  0  0  0  0  0  0
    2.2375   11.9330   41.1454 C   0  0  0  0  0  0  0  0  0  0  0  0
    3.0170   11.0822   40.3678 C   0  0  0  0  0  0  0  0  0  0  0  0
    3.8102   11.6297   39.3771 C   0  0  0  0  0  0  0  0  0  0  0  0
    3.8808   12.9977   39.1606 C   0  0  0  0  0  0  0  0  0  0  0  0
    3.1019   13.8331   39.9565 C   0  0  0  0  0  0  0  0  0  0  0  0
    0.5726   13.8270   42.7196 C   0  0  0  0  0  0  0  0  0  0  0  0
    1.5612   18.2123   40.2055 C   0  0  0  0  0  0  0  0  0  0  0  0
    1.7577   19.0843   39.1332 C   0  0  0  0  0  0  0  0  0  0  0  0
    0.3394   17.5980   42.2430 N   0  0  0  0  0  0  0  0  0  0  0  0
    1.4094   15.6131   41.4312 N   0  0  0  0  0  0  0  0  0  0  0  0
    0.3345   22.1019   37.6519 O   0  0  0  0  0  0  0  0  0  0  0  0
    2.0904   20.8913   36.9473 O   0  0  0  0  0  0  0  0  0  0  0  0
    2.5713   18.7007   38.0936 O   0  0  0  0  0  0  0  0  0  0  0  0
   -0.3761   15.1478   43.2882 S   0  0  0  0  0  0  0  0  0  0  0  0
    4.7552   10.5798   38.3740 Cl  0  0  0  0  0  0  0  0  0  0  0  0
   -0.3447   21.5716   39.9954 H   0  0  0  0  0  0  0  0  0  0  0  0
   -0.9294   19.9293   41.7659 H   0  0  0  0  0  0  0  0  0  0  0  0
    1.5751   11.5086   41.9141 H   0  0  0  0  0  0  0  0  0  0  0  0
    3.0023    9.9956   40.5381 H   0  0  0  0  0  0  0  0  0  0  0  0
    4.5355   13.4121   38.3798 H   0  0  0  0  0  0  0  0  0  0  0  0
    3.1327   14.9196   39.7869 H   0  0  0  0  0  0  0  0  0  0  0  0
    0.4878   12.7944   43.0888 H   0  0  0  0  0  0  0  0  0  0  0  0
    2.1186   17.2651   40.2545 H   0  0  0  0  0  0  0  0  0  0  0  0
   -0.1527   17.9945   43.0564 H   0  0  0  0  0  0  0  0  0  0  0  0
  1  2  1  0
  1 19  1  0
  1 20  2  0
  2  3  1  0
  2 16  2  0
  3  4  2  0
  4  5  1  0
  5 15  2  0
  5 17  1  0
  6 17  1  0
  6 18  2  0
  6 22  1  0
  7  8  1  0
  7 14  2  0
  7 18  1  0
  8  9  1  0
  8 13  2  0
  9 10  2  0
 10 11  1  0
 11 12  2  0
 11 23  1  0
 12 13  1  0
 14 22  1  0
 15 16  1  0
 16 21  1  0
  3 24  1  0
  4 25  1  0
  9 26  1  0
 10 27  1  0
 12 28  1  0
 13 29  1  0
 14 30  1  0
 15 31  1  0
 17 32  1  0
M  CHG  2  19  -1  21  -1
M  END
>  <mol_id>  (63) 
2026-08-24-6tgu-s0-n100-0063

>  <rmsd_to_ref>  (63) 
3.30102040816799

>  <pose_kind>  (63) 
rigid

$$$$
6tgu.A
     RDKit          3D

 32 34  0  0  0  0  0  0  0  0999 V2000
    4.2882   19.3601   36.6613 C   0  0  0  0  0  0  0  0  0  0  0  0
    3.6234   19.3823   37.9589 C   0  0  0  0  0  0  0  0  0  0  0  0
    2.7031   20.3478   38.2145 C   0  0  0  0  0  0  0  0  0  0  0  0
    2.0413   20.3739   39.4154 C   0  0  0  0  0  0  0  0  0  0  0  0
    2.3454   19.3930   40.3425 C   0  0  0  0  0  0  0  0  0  0  0  0
    0.6788   18.3633   41.7563 C   0  0  0  0  0  0  0  0  0  0  0  0
   -0.7077   16.6108   42.0319 C   0  0  0  0  0  0  0  0  0  0  0  0
   -1.0152   15.3879   42.8127 C   0  0  0  0  0  0  0  0  0  0  0  0
   -0.2367   14.9582   43.8594 C   0  0  0  0  0  0  0  0  0  0  0  0
   -0.5581   13.8165   44.5647 C   0  0  0  0  0  0  0  0  0  0  0  0
   -1.6685   13.0647   44.2462 C   0  0  0  0  0  0  0  0  0  0  0  0
   -2.4735   13.4846   43.1816 C   0  0  0  0  0  0  0  0  0  0  0  0
   -2.1284   14.6292   42.4973 C   0  0  0  0  0  0  0  0  0  0  0  0
   -1.5080   17.0221   41.0146 C   0  0  0  0  0  0  0  0  0  0  0  0
    3.2703   18.3974   40.1275 C   0  0  0  0  0  0  0  0  0  0  0  0
    3.9198   18.3968   38.9085 C   0  0  0  0  0  0  0  0  0  0  0  0
    1.5733   19.4800   41.5693 N   0  0  0  0  0  0  0  0  0  0  0  0
    0.3299   17.3952   42.2586 N   0  0  0  0  0  0  0  0  0  0  0  0
    5.2228   18.4191   36.2759 O   0  0  0  0  0  0  0  0  0  0  0  0
    4.0097   20.2567   35.8014 O   0  0  0  0  0  0  0  0  0  0  0  0
    4.8742   17.4332   38.5961 O   0  0  0  0  0  0  0  0  0  0  0  0
   -0.7033   18.5633   40.4228 S   0  0  0  0  0  0  0  0  0  0  0  0
   -2.1215   11.6058   45.1074 Cl  0  0  0  0  0  0  0  0  0  0  0  0
    2.4582   21.1295   37.4883 H   0  0  0  0  0  0  0  0  0  0  0  0
    1.2981   21.1418   39.6332 H   0  0  0  0  0  0  0  0  0  0  0  0
    0.6534   15.5464   44.1331 H   0  0  0  0  0  0  0  0  0  0  0  0
    0.0733   13.5107   45.3959 H   0  0  0  0  0  0  0  0  0  0  0  0
   -3.3562   12.9387   42.8870 H   0  0  0  0  0  0  0  0  0  0  0  0
   -2.7435   14.9364   41.6886 H   0  0  0  0  0  0  0  0  0  0  0  0
   -2.4373   16.6218   40.5566 H   0  0  0  0  0  0  0  0  0  0  0  0
    3.4741   17.6497   40.8788 H   0  0  0  0  0  0  0  0  0  0  0  0
    1.6706   20.2604   42.2260 H   0  0  0  0  0  0  0  0  0  0  0  0
  1  2  1  0
  1 19  1  0
  1 20  2  0
  2  3  1  0
  2 16  2  0
  3  4  2  0
  4  5  1  0
  5 15  2  0
  5 17  1  0
  6 17  1  0
  6 18  2  0
  6 22  1  0
  7  8  1  0
  7 14  2  0
  7 18  1  0
  8  9  1  0
  8 13  2  0
  9 10  2  0
 10 11  1  0
 11 12  2  0
 11 23  1  0
 12 13  1  0
 14 22  1  0
 15 16  1  0
 16 21  1  0
  3 24  1  0
  4 25  1  0
  9 26  1  0
 10 27  1  0
 12 28  1  0
 13 29  1  0
 14 30  1  0
 15 31  1  0
 17 32  1  0
M  CHG  2  19  -1  21  -1
M  END
>  <mol_id>  (64) 
2026-08-24-6tgu-s0-n100-0064

>  <rmsd_to_ref>  (64) 
3.346938775520557

>  <pose_kind>  (64) 
conformer

$$$$
6tgu.A
     RDKit          3D

 32 34  0  0  0  0  0  0  0  0999 V2000
    4.5043   21.5878   41.4390 C   0  0  0  0  0  0  0  0  0  0  0  0
    3.2209   20.8840   41.8884 C   0  0  0  0  0  0  0  0  0  0  0  0
    2.0953   21.6243   42.2431 C   0  0  0  0  0  0  0  0  0  0  0  0
    0.8540   21.0226   42.4745 C   0  0  0  0  0  0  0  0  0  0  0  0
    0.7479   19.6251   42.5267 C   0  0  0  0  0  0  0  0  0  0  0  0
   -0.9623   17.7536   42.3365 C   0  0  0  0  0  0  0  0  0  0  0  0
   -0.8356   15.6188   41.5602 C   0  0  0  0  0  0  0  0  0  0  0  0
   -0.1482   14.4184   41.0833 C   0  0  0  0  0  0  0  0  0  0  0  0
   -0.8483   13.2986   40.6124 C   0  0  0  0  0  0  0  0  0  0  0  0
   -0.1742   12.1802   40.1319 C   0  0  0  0  0  0  0  0  0  0  0  0
    1.2069   12.2078   40.0847 C   0  0  0  0  0  0  0  0  0  0  0  0
    1.9386   13.2965   40.5346 C   0  0  0  0  0  0  0  0  0  0  0  0
    1.2462   14.4013   41.0224 C   0  0  0  0  0  0  0  0  0  0  0  0
   -2.1980   15.7530   41.6082 C   0  0  0  0  0  0  0  0  0  0  0  0
    1.8684   18.8652   42.1616 C   0  0  0  0  0  0  0  0  0  0  0  0
    3.0731   19.5024   41.8589 C   0  0  0  0  0  0  0  0  0  0  0  0
   -0.5226   18.9944   42.6980 N   0  0  0  0  0  0  0  0  0  0  0  0
   -0.0962   16.7810   41.8840 N   0  0  0  0  0  0  0  0  0  0  0  0
    4.4273   22.8375   41.2512 O   0  0  0  0  0  0  0  0  0  0  0  0
    5.4995   20.8641   41.2163 O   0  0  0  0  0  0  0  0  0  0  0  0
    4.1334   18.7562   41.4019 O   0  0  0  0  0  0  0  0  0  0  0  0
   -2.6445   17.3601   42.0390 S   0  0  0  0  0  0  0  0  0  0  0  0
    2.0586   10.8387   39.4509 Cl  0  0  0  0  0  0  0  0  0  0  0  0
    2.1856   22.7159   42.3443 H   0  0  0  0  0  0  0  0  0  0  0  0
   -0.0407   21.6466   42.6157 H   0  0  0  0  0  0  0  0  0  0  0  0
   -1.9483   13.3042   40.6230 H   0  0  0  0  0  0  0  0  0  0  0  0
   -0.7294   11.2919   39.7961 H   0  0  0  0  0  0  0  0  0  0  0  0
    3.0383   13.2872   40.5069 H   0  0  0  0  0  0  0  0  0  0  0  0
    1.8104   15.2802   41.3675 H   0  0  0  0  0  0  0  0  0  0  0  0
   -2.9118   14.9426   41.3994 H   0  0  0  0  0  0  0  0  0  0  0  0
    1.7982   17.7686   42.1138 H   0  0  0  0  0  0  0  0  0  0  0  0
   -1.2268   19.5749   43.1756 H   0  0  0  0  0  0  0  0  0  0  0  0
  1  2  1  0
  1 19  1  0
  1 20  2  0
  2  3  1  0
  2 16  2  0
  3  4  2  0
  4  5  1  0
  5 15  2  0
  5 17  1  0
  6 17  1  0
  6 18  2  0
  6 22  1  0
  7  8  1  0
  7 14  2  0
  7 18  1  0
  8  9  1  0
  8 13  2  0
  9 10  2  0
 10 11  1  0
 11 12  2  0
 11 23  1  0
 12 13  1  0
 14 22  1  0
 15 16  1  0
 16 21  1  0
  3 24  1  0
  4 25  1  0
  9 26  1  0
 10 27  1  0
 12 28  1  0
 13 29  1  0
 14 30  1  0
 15 31  1  0
 17 32  1  0
M  CHG  2  19  -1  21  -1
M  END
>  <mol_id>  (65) 
2026-08-24-6tgu-s0-n100-0065

>  <rmsd_to_ref>  (65) 
3.392857142859149

>  <pose_kind>  (65) 
rigid

$$$$
6tgu.A
     RDKit          3D

 32 34  0  0  0  0  0  0  0  0999 V2000
    4.0164   21.4939   40.5059 C   0  0  0  0  0  0  0  0  0  0  0  0
    3.1295   20.4349   40.9732 C   0  0  0  0  0  0  0  0  0  0  0  0
    1.7859   20.6247   40.9183 C   0  0  0  0  0  0  0  0  0  0  0  0
    0.9289   19.6336   41.3234 C   0  0  0  0  0  0  0  0  0  0  0  0
    1.4799   18.4513   41.7845 C   0  0  0  0  0  0  0  0  0  0  0  0
    0.5227   16.2849   41.3073 C   0  0  0  0  0  0  0  0  0  0  0  0
    0.5792   14.4755   39.9684 C   0  0  0  0  0  0  0  0  0  0  0  0
    0.8995   13.0321   39.8530 C   0  0  0  0  0  0  0  0  0  0  0  0
    1.3954   12.2939   40.8995 C   0  0  0  0  0  0  0  0  0  0  0  0
    1.6777   10.9511   40.7538 C   0  0  0  0  0  0  0  0  0  0  0  0
    1.4750   10.3008   39.5556 C   0  0  0  0  0  0  0  0  0  0  0  0
    0.9724   11.0358   38.4763 C   0  0  0  0  0  0  0  0  0  0  0  0
    0.6983   12.3742   38.6525 C   0  0  0  0  0  0  0  0  0  0  0  0
    0.0705   15.1747   38.9212 C   0  0  0  0  0  0  0  0  0  0  0  0
    2.8332   18.2156   41.8589 C   0  0  0  0  0  0  0  0  0  0  0  0
    3.6710   19.2321   41.4430 C   0  0  0  0  0  0  0  0  0  0  0  0
    0.4983   17.4491   42.1596 N   0  0  0  0  0  0  0  0  0  0  0  0
    0.7382   15.1856   41.0702 N   0  0  0  0  0  0  0  0  0  0  0  0
    5.3949   21.4114   40.4906 O   0  0  0  0  0  0  0  0  0  0  0  0
    3.5163   22.5827   40.0753 O   0  0  0  0  0  0  0  0  0  0  0  0
    5.0551   19.0921   41.4817 O   0  0  0  0  0  0  0  0  0  0  0  0
   -0.1619   16.8662   39.5980 S   0  0  0  0  0  0  0  0  0  0  0  0
    1.8185    8.5980   39.3152 Cl  0  0  0  0  0  0  0  0  0  0  0  0
    1.3412   21.5577   40.5578 H   0  0  0  0  0  0  0  0  0  0  0  0
   -0.1522   19.7713   41.2824 H   0  0  0  0  0  0  0  0  0  0  0  0
    1.5613   12.7931   41.8674 H   0  0  0  0  0  0  0  0  0  0  0  0
    2.0582   10.3931   41.6065 H   0  0  0  0  0  0  0  0  0  0  0  0
    0.7912   10.5815   37.5147 H   0  0  0  0  0  0  0  0  0  0  0  0
    0.3214   12.9233   37.8260 H   0  0  0  0  0  0  0  0  0  0  0  0
   -0.1856   14.9125   37.8726 H   0  0  0  0  0  0  0  0  0  0  0  0
    3.2195   17.2758   42.2228 H   0  0  0  0  0  0  0  0  0  0  0  0
   -0.1361   17.5713   42.9549 H   0  0  0  0  0  0  0  0  0  0  0  0
  1  2  1  0
  1 19  1  0
  1 20  2  0
  2  3  1  0
  2 16  2  0
  3  4  2  0
  4  5  1  0
  5 15  2  0
  5 17  1  0
  6 17  1  0
  6 18  2  0
  6 22  1  0
  7  8  1  0
  7 14  2  0
  7 18  1  0
  8  9  1  0
  8 13  2  0
  9 10  2  0
 10 11  1  0
 11 12  2  0
 11 23  1  0
 12 13  1  0
 14 22  1  0
 15 16  1  0
 16 21  1  0
  3 24  1  0
  4 25  1  0
  9 26  1  0
 10 27  1  0
 12 28  1  0
 13 29  1  0
 14 30  1  0
 15 31  1  0
 17 32  1  0
M  CHG  2  19  -1  21  -1
M  END
>  <mol_id>  (66) 
2026-08-24-6tgu-s0-n100-0066

>  <rmsd_to_ref>  (66) 
3.4387755102055872

>  <pose_kind>  (66) 
conformer

$$$$
6tgu.A
     RDKit          3D

 32 34  0  0  0  0  0  0  0  0999 V2000
    0.5849   16.4293   36.3674 C   0  0  0  0  0  0  0  0  0  0  0  0
    1.3816   16.9611   37.5620 C   0  0  0  0  0  0  0  0  0  0  0  0
    1.7007   18.3140   37.6535 C   0  0  0  0  0  0  0  0  0  0  0  0
    2.2568   18.8686   38.8109 C   0  0  0  0  0  0  0  0  0  0  0  0
    2.6743   18.0366   39.8599 C   0  0  0  0  0  0  0  0  0  0  0  0
    3.2161   18.0897   42.3432 C   0  0  0  0  0  0  0  0  0  0  0  0
    2.9923   16.5532   44.0059 C   0  0  0  0  0  0  0  0  0  0  0  0
    2.7368   15.2223   44.5579 C   0  0  0  0  0  0  0  0  0  0  0  0
    2.6717   14.9905   45.9393 C   0  0  0  0  0  0  0  0  0  0  0  0
    2.3940   13.7234   46.4424 C   0  0  0  0  0  0  0  0  0  0  0  0
    2.1380   12.6977   45.5519 C   0  0  0  0  0  0  0  0  0  0  0  0
    2.1862   12.8841   44.1786 C   0  0  0  0  0  0  0  0  0  0  0  0
    2.4769   14.1567   43.6948 C   0  0  0  0  0  0  0  0  0  0  0  0
    3.2056   17.6706   44.7689 C   0  0  0  0  0  0  0  0  0  0  0  0
    2.3509   16.6741   39.7885 C   0  0  0  0  0  0  0  0  0  0  0  0
    1.7230   16.1662   38.6498 C   0  0  0  0  0  0  0  0  0  0  0  0
    3.1845   18.5910   41.0738 N   0  0  0  0  0  0  0  0  0  0  0  0
    2.9002   16.7748   42.6114 N   0  0  0  0  0  0  0  0  0  0  0  0
    0.1021   17.2951   35.5798 O   0  0  0  0  0  0  0  0  0  0  0  0
    0.4071   15.1928   36.3098 O   0  0  0  0  0  0  0  0  0  0  0  0
    1.3171   14.8529   38.6336 O   0  0  0  0  0  0  0  0  0  0  0  0
    3.2790   19.0836   43.7860 S   0  0  0  0  0  0  0  0  0  0  0  0
    1.7505   11.1239   46.1638 Cl  0  0  0  0  0  0  0  0  0  0  0  0
    1.5094   18.9664   36.7887 H   0  0  0  0  0  0  0  0  0  0  0  0
    2.3670   19.9596   38.8985 H   0  0  0  0  0  0  0  0  0  0  0  0
    2.8429   15.8240   46.6365 H   0  0  0  0  0  0  0  0  0  0  0  0
    2.3786   13.5414   47.5271 H   0  0  0  0  0  0  0  0  0  0  0  0
    1.9995   12.0476   43.4890 H   0  0  0  0  0  0  0  0  0  0  0  0
    2.5023   14.3262   42.6082 H   0  0  0  0  0  0  0  0  0  0  0  0
    3.3154   17.6664   45.8634 H   0  0  0  0  0  0  0  0  0  0  0  0
    2.5916   16.0063   40.6288 H   0  0  0  0  0  0  0  0  0  0  0  0
    3.5993   19.5285   40.9742 H   0  0  0  0  0  0  0  0  0  0  0  0
  1  2  1  0
  1 19  1  0
  1 20  2  0
  2  3  1  0
  2 16  2  0
  3  4  2  0
  4  5  1  0
  5 15  2  0
  5 17  1  0
  6 17  1  0
  6 18  2  0
  6 22  1  0
  7  8  1  0
  7 14  2  0
  7 18  1  0
  8  9  1  0
  8 13  2  0
  9 10  2  0
 10 11  1  0
 11 12  2  0
 11 23  1  0
 12 13  1  0
 14 22  1  0
 15 16  1  0
 16 21  1  0
  3 24  1  0
  4 25  1  0
  9 26  1  0
 10 27  1  0
 12 28  1  0
 13 29  1  0
 14 30  1  0
 15 31  1  0
 17 32  1  0
M  CHG  2  19  -1  21  -1
M  END
>  <mol_id>  (67) 
2026-08-24-6tgu-s0-n100-0067

>  <rmsd_to_ref>  (67) 
3.4846938775570324

>  <pose_kind>  (67) 
rigid

$$$$
6tgu.A
     RDKit          3D

 32 34  0  0  0  0  0  0  0  0999 V2000
    0.3182   21.0176   37.3100 C   0  0  0  0  0  0  0  0  0  0  0  0
    0.3471   20.2544   38.5520 C   0  0  0  0  0  0  0  0  0  0  0  0
   -0.8004   19.6887   39.0079 C   0  0  0  0  0  0  0  0  0  0  0  0
   -0.7951   18.9407   40.1574 C   0  0  0  0  0  0  0  0  0  0  0  0
    0.4073   18.7892   40.8246 C   0  0  0  0  0  0  0  0  0  0  0  0
    1.0641   16.7229   41.8902 C   0  0  0  0  0  0  0  0  0  0  0  0
    2.2283   14.8066   41.6844 C   0  0  0  0  0  0  0  0  0  0  0  0
    3.4026   14.0189   42.1316 C   0  0  0  0  0  0  0  0  0  0  0  0
    4.2977   14.4821   43.0646 C   0  0  0  0  0  0  0  0  0  0  0  0
    5.3768   13.7173   43.4580 C   0  0  0  0  0  0  0  0  0  0  0  0
    5.5983   12.4634   42.9307 C   0  0  0  0  0  0  0  0  0  0  0  0
    4.6989   11.9742   41.9770 C   0  0  0  0  0  0  0  0  0  0  0  0
    3.6301   12.7597   41.6054 C   0  0  0  0  0  0  0  0  0  0  0  0
    1.3487   14.3134   40.7748 C   0  0  0  0  0  0  0  0  0  0  0  0
    1.5926   19.3444   40.4008 C   0  0  0  0  0  0  0  0  0  0  0  0
    1.5560   20.0916   39.2397 C   0  0  0  0  0  0  0  0  0  0  0  0
    0.3237   17.9556   42.0107 N   0  0  0  0  0  0  0  0  0  0  0  0
    1.9311   16.0139   42.1288 N   0  0  0  0  0  0  0  0  0  0  0  0
    1.4202   21.6198   36.7348 O   0  0  0  0  0  0  0  0  0  0  0  0
   -0.7838   21.1570   36.6878 O   0  0  0  0  0  0  0  0  0  0  0  0
    2.7014   20.6963   38.7303 O   0  0  0  0  0  0  0  0  0  0  0  0
    0.1018   15.6512   40.6042 S   0  0  0  0  0  0  0  0  0  0  0  0
    6.9536   11.4511   43.3932 Cl  0  0  0  0  0  0  0  0  0  0  0  0
   -1.7568   19.8057   38.4883 H   0  0  0  0  0  0  0  0  0  0  0  0
   -1.7086   18.4785   40.5336 H   0  0  0  0  0  0  0  0  0  0  0  0
    4.1372   15.4803   43.5018 H   0  0  0  0  0  0  0  0  0  0  0  0
    6.0600   14.1095   44.2081 H   0  0  0  0  0  0  0  0  0  0  0  0
    4.8190   10.9995   41.5302 H   0  0  0  0  0  0  0  0  0  0  0  0
    2.9564   12.3806   40.8780 H   0  0  0  0  0  0  0  0  0  0  0  0
    1.2839   13.3628   40.2039 H   0  0  0  0  0  0  0  0  0  0  0  0
    2.5091   19.1975   40.9518 H   0  0  0  0  0  0  0  0  0  0  0  0
   -0.2080   18.2330   42.8414 H   0  0  0  0  0  0  0  0  0  0  0  0
  1  2  1  0
  1 19  1  0
  1 20  2  0
  2  3  1  0
  2 16  2  0
  3  4  2  0
  4  5  1  0
  5 15  2  0
  5 17  1  0
  6 17  1  0
  6 18  2  0
  6 22  1  0
  7  8  1  0
  7 14  2  0
  7 18  1  0
  8  9  1  0
  8 13  2  0
  9 10  2  0
 10 11  1  0
 11 12  2  0
 11 23  1  0
 12 13  1  0
 14 22  1  0
 15 16  1  0
 16 21  1  0
  3 24  1  0
  4 25  1  0
  9 26  1  0
 10 27  1  0
 12 28  1  0
 13 29  1  0
 14 30  1  0
 15 31  1  0
 17 32  1  0
M  CHG  2  19  -1  21  -1
M  END
>  <mol_id>  (68) 
2026-08-24-6tgu-s0-n100-0068

>  <rmsd_to_ref>  (68) 
3.530612244905563

>  <pose_kind>  (68) 
conformer

$$$$
6tgu.A
     RDKit          3D

 32 34  0  0  0  0  0  0  0  0999 V2000
    3.1420   21.5538   37.3013 C   0  0  0  0  0  0  0  0  0  0  0  0
    2.4482   20.5165   38.1886 C   0  0  0  0  0  0  0  0  0  0  0  0
    1.0602   20.5021   38.3069 C   0  0  0  0  0  0  0  0  0  0  0  0
    0.3811   19.4621   38.9502 C   0  0  0  0  0  0  0  0  0  0  0  0
    1.0972   18.4826   39.6535 C   0  0  0  0  0  0  0  0  0  0  0  0
    0.8600   16.1243   40.5730 C   0  0  0  0  0  0  0  0  0  0  0  0
    2.3416   14.4216   40.8579 C   0  0  0  0  0  0  0  0  0  0  0  0
    3.6713   13.8123   40.9016 C   0  0  0  0  0  0  0  0  0  0  0  0
    3.8520   12.4355   41.0959 C   0  0  0  0  0  0  0  0  0  0  0  0
    5.1241   11.8720   41.1004 C   0  0  0  0  0  0  0  0  0  0  0  0
    6.2129   12.6902   40.8649 C   0  0  0  0  0  0  0  0  0  0  0  0
    6.0792   14.0556   40.6625 C   0  0  0  0  0  0  0  0  0  0  0  0
    4.7990   14.6024   40.6729 C   0  0  0  0  0  0  0  0  0  0  0  0
    1.1738   13.7235   41.0171 C   0  0  0  0  0  0  0  0  0  0  0  0
    2.4943   18.4763   39.5357 C   0  0  0  0  0  0  0  0  0  0  0  0
    3.1372   19.4868   38.8183 C   0  0  0  0  0  0  0  0  0  0  0  0
    0.4227   17.3794   40.2612 N   0  0  0  0  0  0  0  0  0  0  0  0
    2.1949   15.7851   40.5098 N   0  0  0  0  0  0  0  0  0  0  0  0
    2.3913   22.2652   36.5711 O   0  0  0  0  0  0  0  0  0  0  0  0
    4.3925   21.5601   37.3083 O   0  0  0  0  0  0  0  0  0  0  0  0
    4.4957   19.4133   38.6214 O   0  0  0  0  0  0  0  0  0  0  0  0
   -0.1918   14.7289   40.7140 S   0  0  0  0  0  0  0  0  0  0  0  0
    7.7998   11.9959   40.8270 Cl  0  0  0  0  0  0  0  0  0  0  0  0
    0.4803   21.3343   37.8813 H   0  0  0  0  0  0  0  0  0  0  0  0
   -0.7168   19.4125   38.9043 H   0  0  0  0  0  0  0  0  0  0  0  0
    2.9739   11.7905   41.2471 H   0  0  0  0  0  0  0  0  0  0  0  0
    5.2607   10.7966   41.2877 H   0  0  0  0  0  0  0  0  0  0  0  0
    6.9623   14.6905   40.4979 H   0  0  0  0  0  0  0  0  0  0  0  0
    4.6734   15.6809   40.4969 H   0  0  0  0  0  0  0  0  0  0  0  0
    1.1159   12.6623   41.3009 H   0  0  0  0  0  0  0  0  0  0  0  0
    3.0832   17.6762   40.0080 H   0  0  0  0  0  0  0  0  0  0  0  0
   -0.5610   17.5622   40.5057 H   0  0  0  0  0  0  0  0  0  0  0  0
  1  2  1  0
  1 19  1  0
  1 20  2  0
  2  3  1  0
  2 16  2  0
  3  4  2  0
  4  5  1  0
  5 15  2  0
  5 17  1  0
  6 17  1  0
  6 18  2  0
  6 22  1  0
  7  8  1  0
  7 14  2  0
  7 18  1  0
  8  9  1  0
  8 13  2  0
  9 10  2  0
 10 11  1  0
 11 12  2  0
 11 23  1  0
 12 13  1  0
 14 22  1  0
 15 16  1  0
 16 21  1  0
  3 24  1  0
  4 25  1  0
  9 26  1  0
 10 27  1  0
 12 28  1  0
 13 29  1  0
 14 30  1  0
 15 31  1  0
 17 32  1  0
M  CHG  2  19  -1  21  -1
M  END
>  <mol_id>  (69) 
2026-08-24-6tgu-s0-n100-0069

>  <rmsd_to_ref>  (69) 
3.5765306122489164

>  <pose_kind>  (69) 
rigid

$$$$
6tgu.A
     RDKit          3D

 32 34  0  0  0  0  0  0  0  0999 V2000
    3.3668   21.8348   39.2537 C   0  0  0  0  0  0  0  0  0  0  0  0
    3.5910   20.5290   39.8625 C   0  0  0  0  0  0  0  0  0  0  0  0
    3.2823   20.3479   41.1727 C   0  0  0  0  0  0  0  0  0  0  0  0
    3.4552   19.1219   41.7623 C   0  0  0  0  0  0  0  0  0  0  0  0
    3.9506   18.0930   40.9812 C   0  0  0  0  0  0  0  0  0  0  0  0
    3.1757   15.8126   41.1713 C   0  0  0  0  0  0  0  0  0  0  0  0
    1.7774   14.2448   40.3612 C   0  0  0  0  0  0  0  0  0  0  0  0
    1.6485   12.9660   39.6214 C   0  0  0  0  0  0  0  0  0  0  0  0
    2.7303   12.2826   39.1225 C   0  0  0  0  0  0  0  0  0  0  0  0
    2.5699   11.0929   38.4423 C   0  0  0  0  0  0  0  0  0  0  0  0
    1.3215   10.5465   38.2365 C   0  0  0  0  0  0  0  0  0  0  0  0
    0.2061   11.2284   38.7350 C   0  0  0  0  0  0  0  0  0  0  0  0
    0.3977   12.4129   39.4115 C   0  0  0  0  0  0  0  0  0  0  0  0
    0.6902   14.8874   40.8607 C   0  0  0  0  0  0  0  0  0  0  0  0
    4.2778   18.2309   39.6521 C   0  0  0  0  0  0  0  0  0  0  0  0
    4.0919   19.4770   39.0859 C   0  0  0  0  0  0  0  0  0  0  0  0
    4.0689   16.8254   41.6798 N   0  0  0  0  0  0  0  0  0  0  0  0
    2.9260   14.8470   40.6087 N   0  0  0  0  0  0  0  0  0  0  0  0
    3.6196   22.1355   37.9296 O   0  0  0  0  0  0  0  0  0  0  0  0
    2.9064   22.7850   39.9651 O   0  0  0  0  0  0  0  0  0  0  0  0
    4.3955   19.7186   37.7493 O   0  0  0  0  0  0  0  0  0  0  0  0
    1.3994   16.3663   41.6873 S   0  0  0  0  0  0  0  0  0  0  0  0
    1.0606    9.0397   37.3779 Cl  0  0  0  0  0  0  0  0  0  0  0  0
    2.8927   21.1568   41.7990 H   0  0  0  0  0  0  0  0  0  0  0  0
    3.2091   18.9615   42.8127 H   0  0  0  0  0  0  0  0  0  0  0  0
    3.7377   12.6999   39.2791 H   0  0  0  0  0  0  0  0  0  0  0  0
    3.4490   10.5712   38.0705 H   0  0  0  0  0  0  0  0  0  0  0  0
   -0.7958   10.8492   38.6068 H   0  0  0  0  0  0  0  0  0  0  0  0
   -0.4556   12.9242   39.7819 H   0  0  0  0  0  0  0  0  0  0  0  0
   -0.4011   14.6808   40.8436 H   0  0  0  0  0  0  0  0  0  0  0  0
    4.6589   17.3990   39.0793 H   0  0  0  0  0  0  0  0  0  0  0  0
    4.7288   16.6818   42.4503 H   0  0  0  0  0  0  0  0  0  0  0  0
  1  2  1  0
  1 19  1  0
  1 20  2  0
  2  3  1  0
  2 16  2  0
  3  4  2  0
  4  5  1  0
  5 15  2  0
  5 17  1  0
  6 17  1  0
  6 18  2  0
  6 22  1  0
  7  8  1  0
  7 14  2  0
  7 18  1  0
  8  9  1  0
  8 13  2  0
  9 10  2  0
 10 11  1  0
 11 12  2  0
 11 23  1  0
 12 13  1  0
 14 22  1  0
 15 16  1  0
 16 21  1  0
  3 24  1  0
  4 25  1  0
  9 26  1  0
 10 27  1  0
 12 28  1  0
 13 29  1  0
 14 30  1  0
 15 31  1  0
 17 32  1  0
M  CHG  2  19  -1  21  -1
M  END
>  <mol_id>  (70) 
2026-08-24-6tgu-s0-n100-0070

>  <rmsd_to_ref>  (70) 
3.6224489795978587

>  <pose_kind>  (70) 
conformer

$$$$
6tgu.A
     RDKit          3D

 32 34  0  0  0  0  0  0  0  0999 V2000
    2.5749   19.0128   36.3861 C   0  0  0  0  0  0  0  0  0  0  0  0
    3.4933   18.4378   37.4679 C   0  0  0  0  0  0  0  0  0  0  0  0
    4.7546   18.9862   37.6897 C   0  0  0  0  0  0  0  0  0  0  0  0
    5.5419   18.6172   38.7854 C   0  0  0  0  0  0  0  0  0  0  0  0
    5.1530   17.5461   39.6029 C   0  0  0  0  0  0  0  0  0  0  0  0
    5.5460   16.5669   41.9159 C   0  0  0  0  0  0  0  0  0  0  0  0
    4.2110   15.4128   43.3516 C   0  0  0  0  0  0  0  0  0  0  0  0
    3.0106   14.6742   43.7452 C   0  0  0  0  0  0  0  0  0  0  0  0
    2.7974   14.2516   45.0651 C   0  0  0  0  0  0  0  0  0  0  0  0
    1.6330   13.5799   45.4246 C   0  0  0  0  0  0  0  0  0  0  0  0
    0.6628   13.3728   44.4623 C   0  0  0  0  0  0  0  0  0  0  0  0
    0.8301   13.7790   43.1470 C   0  0  0  0  0  0  0  0  0  0  0  0
    2.0068   14.4394   42.8044 C   0  0  0  0  0  0  0  0  0  0  0  0
    5.2262   15.7384   44.2118 C   0  0  0  0  0  0  0  0  0  0  0  0
    3.8817   16.9904   39.4001 C   0  0  0  0  0  0  0  0  0  0  0  0
    3.0868   17.4377   38.3432 C   0  0  0  0  0  0  0  0  0  0  0  0
    5.9122   17.1982   40.7621 N   0  0  0  0  0  0  0  0  0  0  0  0
    4.3191   15.9522   42.0480 N   0  0  0  0  0  0  0  0  0  0  0  0
    2.9518   20.0911   35.8397 O   0  0  0  0  0  0  0  0  0  0  0  0
    1.4928   18.4187   36.1865 O   0  0  0  0  0  0  0  0  0  0  0  0
    1.8036   16.9611   38.2169 O   0  0  0  0  0  0  0  0  0  0  0  0
    6.3756   16.7689   43.4471 S   0  0  0  0  0  0  0  0  0  0  0  0
   -0.8097   12.5742   44.9045 Cl  0  0  0  0  0  0  0  0  0  0  0  0
    5.1433   19.7326   36.9814 H   0  0  0  0  0  0  0  0  0  0  0  0
    6.4680   19.1681   39.0062 H   0  0  0  0  0  0  0  0  0  0  0  0
    3.5628   14.4543   45.8286 H   0  0  0  0  0  0  0  0  0  0  0  0
    1.4877   13.2209   46.4541 H   0  0  0  0  0  0  0  0  0  0  0  0
    0.0527   13.5845   42.3934 H   0  0  0  0  0  0  0  0  0  0  0  0
    2.1485   14.7837   41.7693 H   0  0  0  0  0  0  0  0  0  0  0  0
    5.2979   15.3884   45.2521 H   0  0  0  0  0  0  0  0  0  0  0  0
    3.5112   16.2029   40.0728 H   0  0  0  0  0  0  0  0  0  0  0  0
    6.9048   17.4700   40.7203 H   0  0  0  0  0  0  0  0  0  0  0  0
  1  2  1  0
  1 19  1  0
  1 20  2  0
  2  3  1  0
  2 16  2  0
  3  4  2  0
  4  5  1  0
  5 15  2  0
  5 17  1  0
  6 17  1  0
  6 18  2  0
  6 22  1  0
  7  8  1  0
  7 14  2  0
  7 18  1  0
  8  9  1  0
  8 13  2  0
  9 10  2  0
 10 11  1  0
 11 12  2  0
 11 23  1  0
 12 13  1  0
 14 22  1  0
 15 16  1  0
 16 21  1  0
  3 24  1  0
  4 25  1  0
  9 26  1  0
 10 27  1  0
 12 28  1  0
 13 29  1  0
 14 30  1  0
 15 31  1  0
 17 32  1  0
M  CHG  2  19  -1  21  -1
M  END
>  <mol_id>  (71) 
2026-08-24-6tgu-s0-n100-0071

>  <rmsd_to_ref>  (71) 
3.6683673469427935

>  <pose_kind>  (71) 
rigid

$$$$
6tgu.A
     RDKit          3D

 32 34  0  0  0  0  0  0  0  0999 V2000
    3.7178   19.1495   35.1602 C   0  0  0  0  0  0  0  0  0  0  0  0
    4.0355   18.5486   36.4501 C   0  0  0  0  0  0  0  0  0  0  0  0
    4.5844   19.3212   37.4230 C   0  0  0  0  0  0  0  0  0  0  0  0
    4.8652   18.7886   38.6551 C   0  0  0  0  0  0  0  0  0  0  0  0
    4.5728   17.4525   38.8637 C   0  0  0  0  0  0  0  0  0  0  0  0
    3.6951   16.6129   40.9521 C   0  0  0  0  0  0  0  0  0  0  0  0
    1.8462   16.0343   42.0994 C   0  0  0  0  0  0  0  0  0  0  0  0
    1.0594   14.9311   42.7022 C   0  0  0  0  0  0  0  0  0  0  0  0
    1.4511   13.6163   42.6376 C   0  0  0  0  0  0  0  0  0  0  0  0
    0.6933   12.6178   43.2144 C   0  0  0  0  0  0  0  0  0  0  0  0
   -0.4831   12.9000   43.8747 C   0  0  0  0  0  0  0  0  0  0  0  0
   -0.9007   14.2334   43.9497 C   0  0  0  0  0  0  0  0  0  0  0  0
   -0.1224   15.2085   43.3660 C   0  0  0  0  0  0  0  0  0  0  0  0
    1.4437   17.3277   42.1974 C   0  0  0  0  0  0  0  0  0  0  0  0
    4.0184   16.6324   37.9082 C   0  0  0  0  0  0  0  0  0  0  0  0
    3.7460   17.1974   36.6776 C   0  0  0  0  0  0  0  0  0  0  0  0
    4.8725   16.9847   40.2053 N   0  0  0  0  0  0  0  0  0  0  0  0
    2.9825   15.8665   41.4484 N   0  0  0  0  0  0  0  0  0  0  0  0
    3.1390   18.4750   34.1031 O   0  0  0  0  0  0  0  0  0  0  0  0
    3.9794   20.3798   34.9628 O   0  0  0  0  0  0  0  0  0  0  0  0
    3.1874   16.4507   35.6445 O   0  0  0  0  0  0  0  0  0  0  0  0
    2.7621   18.2619   41.3244 S   0  0  0  0  0  0  0  0  0  0  0  0
   -1.4848   11.6706   44.6233 Cl  0  0  0  0  0  0  0  0  0  0  0  0
    4.8218   20.3783   37.2660 H   0  0  0  0  0  0  0  0  0  0  0  0
    5.3036   19.3979   39.4463 H   0  0  0  0  0  0  0  0  0  0  0  0
    2.3902   13.3689   42.1177 H   0  0  0  0  0  0  0  0  0  0  0  0
    1.0385   11.5879   43.1551 H   0  0  0  0  0  0  0  0  0  0  0  0
   -1.8112   14.5160   44.4549 H   0  0  0  0  0  0  0  0  0  0  0  0
   -0.4506   16.2162   43.4251 H   0  0  0  0  0  0  0  0  0  0  0  0
    0.5650   17.8274   42.6580 H   0  0  0  0  0  0  0  0  0  0  0  0
    3.8038   15.5952   38.1157 H   0  0  0  0  0  0  0  0  0  0  0  0
    5.8296   16.9268   40.5664 H   0  0  0  0  0  0  0  0  0  0  0  0
  1  2  1  0
  1 19  1  0
  1 20  2  0
  2  3  1  0
  2 16  2  0
  3  4  2  0
  4  5  1  0
  5 15  2  0
  5 17  1  0
  6 17  1  0
  6 18  2  0
  6 22  1  0
  7  8  1  0
  7 14  2  0
  7 18  1  0
  8  9  1  0
  8 13  2  0
  9 10  2  0
 10 11  1  0
 11 12  2  0
 11 23  1  0
 12 13  1  0
 14 22  1  0
 15 16  1  0
 16 21  1  0
  3 24  1  0
  4 25  1  0
  9 26  1  0
 10 27  1  0
 12 28  1  0
 13 29  1  0
 14 30  1  0
 15 31  1  0
 17 32  1  0
M  CHG  2  19  -1  21  -1
M  END
>  <mol_id>  (72) 
2026-08-24-6tgu-s0-n100-0072

>  <rmsd_to_ref>  (72) 
3.714285714288164

>  <pose_kind>  (72) 
conformer

$$$$
6tgu.A
     RDKit          3D

 32 34  0  0  0  0  0  0  0  0999 V2000
    1.4284   22.8094   40.3591 C   0  0  0  0  0  0  0  0  0  0  0  0
    1.5514   21.5422   41.2098 C   0  0  0  0  0  0  0  0  0  0  0  0
    0.8342   21.4152   42.3973 C   0  0  0  0  0  0  0  0  0  0  0  0
    0.7715   20.2078   43.1007 C   0  0  0  0  0  0  0  0  0  0  0  0
    1.5797   19.1274   42.7184 C   0  0  0  0  0  0  0  0  0  0  0  0
    1.7682   16.6036   42.9596 C   0  0  0  0  0  0  0  0  0  0  0  0
    2.5664   14.9761   41.5848 C   0  0  0  0  0  0  0  0  0  0  0  0
    3.2716   14.4565   40.4128 C   0  0  0  0  0  0  0  0  0  0  0  0
    3.2955   13.0886   40.1056 C   0  0  0  0  0  0  0  0  0  0  0  0
    3.9438   12.6194   38.9675 C   0  0  0  0  0  0  0  0  0  0  0  0
    4.5313   13.5344   38.1142 C   0  0  0  0  0  0  0  0  0  0  0  0
    4.5264   14.8962   38.3764 C   0  0  0  0  0  0  0  0  0  0  0  0
    3.8823   15.3449   39.5262 C   0  0  0  0  0  0  0  0  0  0  0  0
    1.8930   14.1916   42.4834 C   0  0  0  0  0  0  0  0  0  0  0  0
    2.2992   19.2348   41.5197 C   0  0  0  0  0  0  0  0  0  0  0  0
    2.2768   20.4303   40.7989 C   0  0  0  0  0  0  0  0  0  0  0  0
    1.4806   17.8681   43.3860 N   0  0  0  0  0  0  0  0  0  0  0  0
    2.4378   16.3721   41.7769 N   0  0  0  0  0  0  0  0  0  0  0  0
    0.5327   23.6357   40.7025 O   0  0  0  0  0  0  0  0  0  0  0  0
    2.1638   22.8888   39.3507 O   0  0  0  0  0  0  0  0  0  0  0  0
    2.8994   20.4904   39.5748 O   0  0  0  0  0  0  0  0  0  0  0  0
    1.0284   15.1572   43.6184 S   0  0  0  0  0  0  0  0  0  0  0  0
    5.3069   12.9686   36.6721 Cl  0  0  0  0  0  0  0  0  0  0  0  0
    0.3006   22.2915   42.7941 H   0  0  0  0  0  0  0  0  0  0  0  0
    0.0868   20.1055   43.9556 H   0  0  0  0  0  0  0  0  0  0  0  0
    2.7936   12.3748   40.7754 H   0  0  0  0  0  0  0  0  0  0  0  0
    3.9882   11.5419   38.7510 H   0  0  0  0  0  0  0  0  0  0  0  0
    5.0189   15.6039   37.6934 H   0  0  0  0  0  0  0  0  0  0  0  0
    3.8540   16.4234   39.7407 H   0  0  0  0  0  0  0  0  0  0  0  0
    1.9028   13.0917   42.4808 H   0  0  0  0  0  0  0  0  0  0  0  0
    2.8805   18.3783   41.1477 H   0  0  0  0  0  0  0  0  0  0  0  0
    1.1330   17.9239   44.3540 H   0  0  0  0  0  0  0  0  0  0  0  0
  1  2  1  0
  1 19  1  0
  1 20  2  0
  2  3  1  0
  2 16  2  0
  3  4  2  0
  4  5  1  0
  5 15  2  0
  5 17  1  0
  6 17  1  0
  6 18  2  0
  6 22  1  0
  7  8  1  0
  7 14  2  0
  7 18  1  0
  8  9  1  0
  8 13  2  0
  9 10  2  0
 10 11  1  0
 11 12  2  0
 11 23  1  0
 12 13  1  0
 14 22  1  0
 15 16  1  0
 16 21  1  0
  3 24  1  0
  4 25  1  0
  9 26  1  0
 10 27  1  0
 12 28  1  0
 13 29  1  0
 14 30  1  0
 15 31  1  0
 17 32  1  0
M  CHG  2  19  -1  21  -1
M  END
>  <mol_id>  (73) 
2026-08-24-6tgu-s0-n100-0073

>  <rmsd_to_ref>  (73) 
3.760204081641252

>  <pose_kind>  (73) 
rigid

$$$$
6tgu.A
     RDKit          3D

 32 34  0  0  0  0  0  0  0  0999 V2000
    2.1523   18.7432   35.9560 C   0  0  0  0  0  0  0  0  0  0  0  0
    1.9329   18.9321   37.3851 C   0  0  0  0  0  0  0  0  0  0  0  0
    0.6652   19.0954   37.8441 C   0  0  0  0  0  0  0  0  0  0  0  0
    0.4281   19.2450   39.1865 C   0  0  0  0  0  0  0  0  0  0  0  0
    1.5157   19.2245   40.0413 C   0  0  0  0  0  0  0  0  0  0  0  0
    1.4559   18.1707   42.2145 C   0  0  0  0  0  0  0  0  0  0  0  0
    1.9181   16.3125   43.3989 C   0  0  0  0  0  0  0  0  0  0  0  0
    2.7670   15.6915   44.4444 C   0  0  0  0  0  0  0  0  0  0  0  0
    3.7699   16.3726   45.0899 C   0  0  0  0  0  0  0  0  0  0  0  0
    4.5365   15.7608   46.0605 C   0  0  0  0  0  0  0  0  0  0  0  0
    4.3271   14.4463   46.4179 C   0  0  0  0  0  0  0  0  0  0  0  0
    3.3114   13.7343   45.7705 C   0  0  0  0  0  0  0  0  0  0  0  0
    2.5615   14.3722   44.8070 C   0  0  0  0  0  0  0  0  0  0  0  0
    0.9199   15.6194   42.7924 C   0  0  0  0  0  0  0  0  0  0  0  0
    2.8160   19.0632   39.6213 C   0  0  0  0  0  0  0  0  0  0  0  0
    3.0231   18.9141   38.2638 C   0  0  0  0  0  0  0  0  0  0  0  0
    1.1667   19.3565   41.4447 N   0  0  0  0  0  0  0  0  0  0  0  0
    2.0401   17.5613   42.9881 N   0  0  0  0  0  0  0  0  0  0  0  0
    3.3885   18.5455   35.3727 O   0  0  0  0  0  0  0  0  0  0  0  0
    1.1555   18.7558   35.1640 O   0  0  0  0  0  0  0  0  0  0  0  0
    4.3014   18.7474   37.7396 O   0  0  0  0  0  0  0  0  0  0  0  0
    0.1862   16.8383   41.6309 S   0  0  0  0  0  0  0  0  0  0  0  0
    5.2725   13.6201   47.6423 Cl  0  0  0  0  0  0  0  0  0  0  0  0
   -0.2011   19.1158   37.1751 H   0  0  0  0  0  0  0  0  0  0  0  0
   -0.5850   19.3745   39.5693 H   0  0  0  0  0  0  0  0  0  0  0  0
    3.9518   17.4255   44.8223 H   0  0  0  0  0  0  0  0  0  0  0  0
    5.3150   16.3327   46.5607 H   0  0  0  0  0  0  0  0  0  0  0  0
    3.0993   12.7037   46.0088 H   0  0  0  0  0  0  0  0  0  0  0  0
    1.7965   13.8216   44.3190 H   0  0  0  0  0  0  0  0  0  0  0  0
    0.5407   14.5792   42.8820 H   0  0  0  0  0  0  0  0  0  0  0  0
    3.6347   19.0503   40.3244 H   0  0  0  0  0  0  0  0  0  0  0  0
    0.7614   20.2140   41.8322 H   0  0  0  0  0  0  0  0  0  0  0  0
  1  2  1  0
  1 19  1  0
  1 20  2  0
  2  3  1  0
  2 16  2  0
  3  4  2  0
  4  5  1  0
  5 15  2  0
  5 17  1  0
  6 17  1  0
  6 18  2  0
  6 22  1  0
  7  8  1  0
  7 14  2  0
  7 18  1  0
  8  9  1  0
  8 13  2  0
  9 10  2  0
 10 11  1  0
 11 12  2  0
 11 23  1  0
 12 13  1  0
 14 22  1  0
 15 16  1  0
 16 21  1  0
  3 24  1  0
  4 25  1  0
  9 26  1  0
 10 27  1  0
 12 28  1  0
 13 29  1  0
 14 30  1  0
 15 31  1  0
 17 32  1  0
M  CHG  2  19  -1  21  -1
M  END
>  <mol_id>  (74) 
2026-08-24-6tgu-s0-n100-0074

>  <rmsd_to_ref>  (74) 
3.8061224489876393

>  <pose_kind>  (74) 
conformer

$$$$
6tgu.A
     RDKit          3D

 32 34  0  0  0  0  0  0  0  0999 V2000
    4.6237   20.3004   41.8365 C   0  0  0  0  0  0  0  0  0  0  0  0
    3.6709   19.2935   42.4868 C   0  0  0  0  0  0  0  0  0  0  0  0
    3.0783   19.5728   43.7162 C   0  0  0  0  0  0  0  0  0  0  0  0
    2.0635   18.7716   44.2499 C   0  0  0  0  0  0  0  0  0  0  0  0
    1.7322   17.5542   43.6375 C   0  0  0  0  0  0  0  0  0  0  0  0
   -0.1405   15.8397   43.5081 C   0  0  0  0  0  0  0  0  0  0  0  0
   -0.8662   14.4678   41.8447 C   0  0  0  0  0  0  0  0  0  0  0  0
   -0.7889   13.8040   40.5429 C   0  0  0  0  0  0  0  0  0  0  0  0
   -1.8343   13.0101   40.0502 C   0  0  0  0  0  0  0  0  0  0  0  0
   -1.7540   12.4153   38.7949 C   0  0  0  0  0  0  0  0  0  0  0  0
   -0.6375   12.6570   38.0168 C   0  0  0  0  0  0  0  0  0  0  0  0
    0.4167   13.4401   38.4624 C   0  0  0  0  0  0  0  0  0  0  0  0
    0.3224   14.0172   39.7258 C   0  0  0  0  0  0  0  0  0  0  0  0
   -1.9354   14.3644   42.6947 C   0  0  0  0  0  0  0  0  0  0  0  0
    2.3113   17.2632   42.3941 C   0  0  0  0  0  0  0  0  0  0  0  0
    3.2647   18.1264   41.8510 C   0  0  0  0  0  0  0  0  0  0  0  0
    0.6557   16.7560   44.1328 N   0  0  0  0  0  0  0  0  0  0  0  0
    0.1412   15.3798   42.2393 N   0  0  0  0  0  0  0  0  0  0  0  0
    4.7031   21.4387   42.3851 O   0  0  0  0  0  0  0  0  0  0  0  0
    5.1827   19.9478   40.7749 O   0  0  0  0  0  0  0  0  0  0  0  0
    3.7478   17.8865   40.5865 O   0  0  0  0  0  0  0  0  0  0  0  0
   -1.7601   15.4282   44.0384 S   0  0  0  0  0  0  0  0  0  0  0  0
   -0.5416   11.9565   36.4351 Cl  0  0  0  0  0  0  0  0  0  0  0  0
    3.4190   20.4506   44.2850 H   0  0  0  0  0  0  0  0  0  0  0  0
    1.5242   19.0970   45.1517 H   0  0  0  0  0  0  0  0  0  0  0  0
   -2.7325   12.8549   40.6660 H   0  0  0  0  0  0  0  0  0  0  0  0
   -2.5628   11.7658   38.4291 H   0  0  0  0  0  0  0  0  0  0  0  0
    1.3047   13.6012   37.8336 H   0  0  0  0  0  0  0  0  0  0  0  0
    1.1420   14.6552   40.0882 H   0  0  0  0  0  0  0  0  0  0  0  0
   -2.7919   13.6917   42.5399 H   0  0  0  0  0  0  0  0  0  0  0  0
    2.0147   16.3560   41.8472 H   0  0  0  0  0  0  0  0  0  0  0  0
    0.4443   16.8957   45.1311 H   0  0  0  0  0  0  0  0  0  0  0  0
  1  2  1  0
  1 19  1  0
  1 20  2  0
  2  3  1  0
  2 16  2  0
  3  4  2  0
  4  5  1  0
  5 15  2  0
  5 17  1  0
  6 17  1  0
  6 18  2  0
  6 22  1  0
  7  8  1  0
  7 14  2  0
  7 18  1  0
  8  9  1  0
  8 13  2  0
  9 10  2  0
 10 11  1  0
 11 12  2  0
 11 23  1  0
 12 13  1  0
 14 22  1  0
 15 16  1  0
 16 21  1  0
  3 24  1  0
  4 25  1  0
  9 26  1  0
 10 27  1  0
 12 28  1  0
 13 29  1  0
 14 30  1  0
 15 31  1  0
 17 32  1  0
M  CHG  2  19  -1  21  -1
M  END
>  <mol_id>  (75) 
2026-08-24-6tgu-s0-n100-0075

>  <rmsd_to_ref>  (75) 
3.852040816335722

>  <pose_kind>  (75) 
rigid

$$$$
6tgu.A
     RDKit          3D

 32 34  0  0  0  0  0  0  0  0999 V2000
    5.5527   19.1272   38.9457 C   0  0  0  0  0  0  0  0  0  0  0  0
    4.5000   18.8651   39.9199 C   0  0  0  0  0  0  0  0  0  0  0  0
    4.0156   19.8931   40.6637 C   0  0  0  0  0  0  0  0  0  0  0  0
    3.0049   19.6798   41.5657 C   0  0  0  0  0  0  0  0  0  0  0  0
    2.5071   18.3947   41.6869 C   0  0  0  0  0  0  0  0  0  0  0  0
    0.1614   17.9234   42.0224 C   0  0  0  0  0  0  0  0  0  0  0  0
   -1.7899   17.3781   41.0404 C   0  0  0  0  0  0  0  0  0  0  0  0
   -2.8339   16.3412   40.8552 C   0  0  0  0  0  0  0  0  0  0  0  0
   -2.7671   15.1039   41.4475 C   0  0  0  0  0  0  0  0  0  0  0  0
   -3.7610   14.1666   41.2539 C   0  0  0  0  0  0  0  0  0  0  0  0
   -4.8554   14.4341   40.4600 C   0  0  0  0  0  0  0  0  0  0  0  0
   -4.9411   15.6884   39.8457 C   0  0  0  0  0  0  0  0  0  0  0  0
   -3.9347   16.6043   40.0590 C   0  0  0  0  0  0  0  0  0  0  0  0
   -1.8937   18.6005   40.4578 C   0  0  0  0  0  0  0  0  0  0  0  0
    2.9675   17.3238   40.9561 C   0  0  0  0  0  0  0  0  0  0  0  0
    3.9852   17.5699   40.0552 C   0  0  0  0  0  0  0  0  0  0  0  0
    1.4186   18.2704   42.6400 N   0  0  0  0  0  0  0  0  0  0  0  0
   -0.7073   17.2182   41.7790 N   0  0  0  0  0  0  0  0  0  0  0  0
    6.1093   18.1721   38.1179 O   0  0  0  0  0  0  0  0  0  0  0  0
    6.0121   20.3085   38.8251 O   0  0  0  0  0  0  0  0  0  0  0  0
    4.5208   16.5526   39.2711 O   0  0  0  0  0  0  0  0  0  0  0  0
   -0.3850   19.4825   41.0230 S   0  0  0  0  0  0  0  0  0  0  0  0
   -6.1450   13.2796   40.1786 Cl  0  0  0  0  0  0  0  0  0  0  0  0
    4.4053   20.9124   40.5766 H   0  0  0  0  0  0  0  0  0  0  0  0
    2.6045   20.4966   42.1677 H   0  0  0  0  0  0  0  0  0  0  0  0
   -1.9028   14.8706   42.0893 H   0  0  0  0  0  0  0  0  0  0  0  0
   -3.6829   13.2005   41.7476 H   0  0  0  0  0  0  0  0  0  0  0  0
   -5.7745   15.9563   39.2150 H   0  0  0  0  0  0  0  0  0  0  0  0
   -4.0075   17.5511   39.5848 H   0  0  0  0  0  0  0  0  0  0  0  0
   -2.6443   19.0730   39.7889 H   0  0  0  0  0  0  0  0  0  0  0  0
    2.5472   16.3375   41.0812 H   0  0  0  0  0  0  0  0  0  0  0  0
    1.5497   18.4134   43.6461 H   0  0  0  0  0  0  0  0  0  0  0  0
  1  2  1  0
  1 19  1  0
  1 20  2  0
  2  3  1  0
  2 16  2  0
  3  4  2  0
  4  5  1  0
  5 15  2  0
  5 17  1  0
  6 17  1  0
  6 18  2  0
  6 22  1  0
  7  8  1  0
  7 14  2  0
  7 18  1  0
  8  9  1  0
  8 13  2  0
  9 10  2  0
 10 11  1  0
 11 12  2  0
 11 23  1  0
 12 13  1  0
 14 22  1  0
 15 16  1  0
 16 21  1  0
  3 24  1  0
  4 25  1  0
  9 26  1  0
 10 27  1  0
 12 28  1  0
 13 29  1  0
 14 30  1  0
 15 31  1  0
 17 32  1  0
M  CHG  2  19  -1  21  -1
M  END
>  <mol_id>  (76) 
2026-08-24-6tgu-s0-n100-0076

>  <rmsd_to_ref>  (76) 
3.8979591836810243

>  <pose_kind>  (76) 
conformer

$$$$
6tgu.A
     RDKit          3D

 32 34  0  0  0  0  0  0  0  0999 V2000
    5.4993   20.5229   40.9248 C   0  0  0  0  0  0  0  0  0  0  0  0
    4.1092   20.0585   40.4814 C   0  0  0  0  0  0  0  0  0  0  0  0
    3.2415   20.9382   39.8380 C   0  0  0  0  0  0  0  0  0  0  0  0
    2.0472   20.5065   39.2518 C   0  0  0  0  0  0  0  0  0  0  0  0
    1.6009   19.1916   39.4494 C   0  0  0  0  0  0  0  0  0  0  0  0
    0.0334   17.4545   38.4550 C   0  0  0  0  0  0  0  0  0  0  0  0
    0.1133   15.1835   38.3480 C   0  0  0  0  0  0  0  0  0  0  0  0
    0.6315   13.8563   38.6814 C   0  0  0  0  0  0  0  0  0  0  0  0
    0.1583   12.6946   38.0547 C   0  0  0  0  0  0  0  0  0  0  0  0
    0.6888   11.4457   38.3626 C   0  0  0  0  0  0  0  0  0  0  0  0
    1.7280   11.3722   39.2710 C   0  0  0  0  0  0  0  0  0  0  0  0
    2.2302   12.4961   39.9097 C   0  0  0  0  0  0  0  0  0  0  0  0
    1.6784   13.7353   39.5965 C   0  0  0  0  0  0  0  0  0  0  0  0
   -0.8739   15.4107   37.4259 C   0  0  0  0  0  0  0  0  0  0  0  0
    2.4669   18.2906   40.0853 C   0  0  0  0  0  0  0  0  0  0  0  0
    3.6893   18.7382   40.5898 C   0  0  0  0  0  0  0  0  0  0  0  0
    0.4172   18.7170   38.8054 N   0  0  0  0  0  0  0  0  0  0  0  0
    0.7201   16.3411   38.8902 N   0  0  0  0  0  0  0  0  0  0  0  0
    5.8645   21.6693   40.5303 O   0  0  0  0  0  0  0  0  0  0  0  0
    6.1912   19.7050   41.5697 O   0  0  0  0  0  0  0  0  0  0  0  0
    4.5742   17.8277   41.1170 O   0  0  0  0  0  0  0  0  0  0  0  0
   -1.0898   17.0985   37.1570 S   0  0  0  0  0  0  0  0  0  0  0  0
    2.4261    9.8287   39.6339 Cl  0  0  0  0  0  0  0  0  0  0  0  0
    3.5038   22.0053   39.7893 H   0  0  0  0  0  0  0  0  0  0  0  0
    1.4567   21.1996   38.6346 H   0  0  0  0  0  0  0  0  0  0  0  0
   -0.6453   12.7719   37.3075 H   0  0  0  0  0  0  0  0  0  0  0  0
    0.2892   10.5351   37.8925 H   0  0  0  0  0  0  0  0  0  0  0  0
    3.0437   12.4106   40.6450 H   0  0  0  0  0  0  0  0  0  0  0  0
    2.0763   14.6391   40.0811 H   0  0  0  0  0  0  0  0  0  0  0  0
   -1.4517   14.6207   36.9241 H   0  0  0  0  0  0  0  0  0  0  0  0
    2.1836   17.2326   40.1864 H   0  0  0  0  0  0  0  0  0  0  0  0
   -0.2624   19.4525   38.5645 H   0  0  0  0  0  0  0  0  0  0  0  0
  1  2  1  0
  1 19  1  0
  1 20  2  0
  2  3  1  0
  2 16  2  0
  3  4  2  0
  4  5  1  0
  5 15  2  0
  5 17  1  0
  6 17  1  0
  6 18  2  0
  6 22  1  0
  7  8  1  0
  7 14  2  0
  7 18  1  0
  8  9  1  0
  8 13  2  0
  9 10  2  0
 10 11  1  0
 11 12  2  0
 11 23  1  0
 12 13  1  0
 14 22  1  0
 15 16  1  0
 16 21  1  0
  3 24  1  0
  4 25  1  0
  9 26  1  0
 10 27  1  0
 12 28  1  0
 13 29  1  0
 14 30  1  0
 15 31  1  0
 17 32  1  0
M  CHG  2  19  -1  21  -1
M  END
>  <mol_id>  (77) 
2026-08-24-6tgu-s0-n100-0077

>  <rmsd_to_ref>  (77) 
3.9438775510248183

>  <pose_kind>  (77) 
rigid

$$$$
6tgu.A
     RDKit          3D

 32 34  0  0  0  0  0  0  0  0999 V2000
    1.8690   19.8812   34.5549 C   0  0  0  0  0  0  0  0  0  0  0  0
    1.4310   19.7095   35.9350 C   0  0  0  0  0  0  0  0  0  0  0  0
    0.2532   19.0800   36.1821 C   0  0  0  0  0  0  0  0  0  0  0  0
   -0.1678   18.8787   37.4717 C   0  0  0  0  0  0  0  0  0  0  0  0
    0.6424   19.3369   38.4952 C   0  0  0  0  0  0  0  0  0  0  0  0
    0.9590   18.1235   40.5602 C   0  0  0  0  0  0  0  0  0  0  0  0
    2.2625   16.6785   41.6928 C   0  0  0  0  0  0  0  0  0  0  0  0
    3.1970   16.4841   42.8277 C   0  0  0  0  0  0  0  0  0  0  0  0
    3.5632   17.5028   43.6730 C   0  0  0  0  0  0  0  0  0  0  0  0
    4.4331   17.2814   44.7209 C   0  0  0  0  0  0  0  0  0  0  0  0
    4.9677   16.0335   44.9588 C   0  0  0  0  0  0  0  0  0  0  0  0
    4.6087   14.9826   44.1076 C   0  0  0  0  0  0  0  0  0  0  0  0
    3.7370   15.2335   43.0710 C   0  0  0  0  0  0  0  0  0  0  0  0
    1.9029   15.6469   40.8860 C   0  0  0  0  0  0  0  0  0  0  0  0
    1.8414   19.9803   38.2921 C   0  0  0  0  0  0  0  0  0  0  0  0
    2.2393   20.1677   36.9828 C   0  0  0  0  0  0  0  0  0  0  0  0
    0.1334   19.0507   39.8247 N   0  0  0  0  0  0  0  0  0  0  0  0
    1.6994   17.8321   41.3838 N   0  0  0  0  0  0  0  0  0  0  0  0
    3.0535   20.4832   34.1782 O   0  0  0  0  0  0  0  0  0  0  0  0
    1.1309   19.4574   33.6080 O   0  0  0  0  0  0  0  0  0  0  0  0
    3.4345   20.8098   36.6731 O   0  0  0  0  0  0  0  0  0  0  0  0
    0.7366   16.4132   39.6920 S   0  0  0  0  0  0  0  0  0  0  0  0
    6.0782   15.6975   46.2737 Cl  0  0  0  0  0  0  0  0  0  0  0  0
   -0.3956   18.7167   35.3787 H   0  0  0  0  0  0  0  0  0  0  0  0
   -1.1101   18.3724   37.6848 H   0  0  0  0  0  0  0  0  0  0  0  0
    3.1446   18.5075   43.5031 H   0  0  0  0  0  0  0  0  0  0  0  0
    4.6930   18.1078   45.3787 H   0  0  0  0  0  0  0  0  0  0  0  0
    4.9931   13.9838   44.2446 H   0  0  0  0  0  0  0  0  0  0  0  0
    3.4748   14.4302   42.4287 H   0  0  0  0  0  0  0  0  0  0  0  0
    2.1719   14.5699   40.8479 H   0  0  0  0  0  0  0  0  0  0  0  0
    2.4435   20.3188   39.1215 H   0  0  0  0  0  0  0  0  0  0  0  0
   -0.7244   19.4768   40.1886 H   0  0  0  0  0  0  0  0  0  0  0  0
  1  2  1  0
  1 19  1  0
  1 20  2  0
  2  3  1  0
  2 16  2  0
  3  4  2  0
  4  5  1  0
  5 15  2  0
  5 17  1  0
  6 17  1  0
  6 18  2  0
  6 22  1  0
  7  8  1  0
  7 14  2  0
  7 18  1  0
  8  9  1  0
  8 13  2  0
  9 10  2  0
 10 11  1  0
 11 12  2  0
 11 23  1  0
 12 13  1  0
 14 22  1  0
 15 16  1  0
 16 21  1  0
  3 24  1  0
  4 25  1  0
  9 26  1  0
 10 27  1  0
 12 28  1  0
 13 29  1  0
 14 30  1  0
 15 31  1  0
 17 32  1  0
M  CHG  2  19  -1  21  -1
M  END
>  <mol_id>  (78) 
2026-08-24-6tgu-s0-n100-0078

>  <rmsd_to_ref>  (78) 
3.989795918369189

>  <pose_kind>  (78) 
conformer

$$$$
6tgu.A
     RDKit          3D

 32 34  0  0  0  0  0  0  0  0999 V2000
    6.1083   21.7968   41.3625 C   0  0  0  0  0  0  0  0  0  0  0  0
    4.8124   21.3583   40.6748 C   0  0  0  0  0  0  0  0  0  0  0  0
    4.2532   22.1322   39.6604 C   0  0  0  0  0  0  0  0  0  0  0  0
    3.1839   21.6758   38.8827 C   0  0  0  0  0  0  0  0  0  0  0  0
    2.5251   20.4849   39.2211 C   0  0  0  0  0  0  0  0  0  0  0  0
    1.0123   18.6994   38.2277 C   0  0  0  0  0  0  0  0  0  0  0  0
    0.7987   16.4673   38.6124 C   0  0  0  0  0  0  0  0  0  0  0  0
    1.0333   15.2163   39.3342 C   0  0  0  0  0  0  0  0  0  0  0  0
    0.5654   13.9838   38.8569 C   0  0  0  0  0  0  0  0  0  0  0  0
    0.8287   12.8017   39.5420 C   0  0  0  0  0  0  0  0  0  0  0  0
    1.6021   12.8565   40.6863 C   0  0  0  0  0  0  0  0  0  0  0  0
    2.0896   14.0529   41.1903 C   0  0  0  0  0  0  0  0  0  0  0  0
    1.8058   15.2261   40.4967 C   0  0  0  0  0  0  0  0  0  0  0  0
    0.0999   16.5539   37.4374 C   0  0  0  0  0  0  0  0  0  0  0  0
    3.0816   19.6887   40.2322 C   0  0  0  0  0  0  0  0  0  0  0  0
    4.1993   20.1390   40.9371 C   0  0  0  0  0  0  0  0  0  0  0  0
    1.4738   19.9725   38.4004 N   0  0  0  0  0  0  0  0  0  0  0  0
    1.4145   17.6653   39.0460 N   0  0  0  0  0  0  0  0  0  0  0  0
    6.7125   22.7853   40.8517 O   0  0  0  0  0  0  0  0  0  0  0  0
    6.5067   21.0975   42.3196 O   0  0  0  0  0  0  0  0  0  0  0  0
    4.7984   19.3067   41.8528 O   0  0  0  0  0  0  0  0  0  0  0  0
    0.1909   18.1445   36.7818 S   0  0  0  0  0  0  0  0  0  0  0  0
    1.9725   11.3880   41.5275 Cl  0  0  0  0  0  0  0  0  0  0  0  0
    4.6653   23.1332   39.4650 H   0  0  0  0  0  0  0  0  0  0  0  0
    2.8591   22.2522   38.0039 H   0  0  0  0  0  0  0  0  0  0  0  0
   -0.0192   13.9507   37.9257 H   0  0  0  0  0  0  0  0  0  0  0  0
    0.4293   11.8427   39.1802 H   0  0  0  0  0  0  0  0  0  0  0  0
    2.6854   14.0743   42.1147 H   0  0  0  0  0  0  0  0  0  0  0  0
    2.1991   16.1820   40.8730 H   0  0  0  0  0  0  0  0  0  0  0  0
   -0.4466   15.7192   36.9742 H   0  0  0  0  0  0  0  0  0  0  0  0
    2.6380   18.7106   40.4698 H   0  0  0  0  0  0  0  0  0  0  0  0
    0.9798   20.6852   37.8444 H   0  0  0  0  0  0  0  0  0  0  0  0
  1  2  1  0
  1 19  1  0
  1 20  2  0
  2  3  1  0
  2 16  2  0
  3  4  2  0
  4  5  1  0
  5 15  2  0
  5 17  1  0
  6 17  1  0
  6 18  2  0
  6 22  1  0
  7  8  1  0
  7 14  2  0
  7 18  1  0
  8  9  1  0
  8 13  2  0
  9 10  2  0
 10 11  1  0
 11 12  2  0
 11 23  1  0
 12 13  1  0
 14 22  1  0
 15 16  1  0
 16 21  1  0
  3 24  1  0
  4 25  1  0
  9 26  1  0
 10 27  1  0
 12 28  1  0
 13 29  1  0
 14 30  1  0
 15 31  1  0
 17 32  1  0
M  CHG  2  19  -1  21  -1
M  END
>  <mol_id>  (79) 
2026-08-24-6tgu-s0-n100-0079

>  <rmsd_to_ref>  (79) 
4.035714285718791

>  <pose_kind>  (79) 
rigid

$$$$
6tgu.A
     RDKit          3D

 32 34  0  0  0  0  0  0  0  0999 V2000
    5.3095   19.4866   37.9864 C   0  0  0  0  0  0  0  0  0  0  0  0
    4.0139   19.6488   38.6352 C   0  0  0  0  0  0  0  0  0  0  0  0
    3.0023   20.2457   37.9534 C   0  0  0  0  0  0  0  0  0  0  0  0
    1.7654   20.3840   38.5291 C   0  0  0  0  0  0  0  0  0  0  0  0
    1.5924   19.8997   39.8135 C   0  0  0  0  0  0  0  0  0  0  0  0
   -0.4346   18.8038   40.5396 C   0  0  0  0  0  0  0  0  0  0  0  0
   -1.4751   16.8339   40.8659 C   0  0  0  0  0  0  0  0  0  0  0  0
   -2.0194   15.8716   41.8543 C   0  0  0  0  0  0  0  0  0  0  0  0
   -1.9557   16.0814   43.2101 C   0  0  0  0  0  0  0  0  0  0  0  0
   -2.4771   15.1635   44.0986 C   0  0  0  0  0  0  0  0  0  0  0  0
   -3.0794   14.0035   43.6616 C   0  0  0  0  0  0  0  0  0  0  0  0
   -3.1525   13.7700   42.2839 C   0  0  0  0  0  0  0  0  0  0  0  0
   -2.6247   14.7052   41.4212 C   0  0  0  0  0  0  0  0  0  0  0  0
   -1.5714   16.6085   39.5300 C   0  0  0  0  0  0  0  0  0  0  0  0
    2.5877   19.2898   40.5417 C   0  0  0  0  0  0  0  0  0  0  0  0
    3.8222   19.1643   39.9350 C   0  0  0  0  0  0  0  0  0  0  0  0
    0.2441   20.0596   40.3284 N   0  0  0  0  0  0  0  0  0  0  0  0
   -0.8818   17.9697   41.1841 N   0  0  0  0  0  0  0  0  0  0  0  0
    6.4054   18.8782   38.5664 O   0  0  0  0  0  0  0  0  0  0  0  0
    5.4746   19.9253   36.8026 O   0  0  0  0  0  0  0  0  0  0  0  0
    4.8939   18.5647   40.5897 O   0  0  0  0  0  0  0  0  0  0  0  0
   -0.7824   18.0880   38.7803 S   0  0  0  0  0  0  0  0  0  0  0  0
   -3.7562   12.8033   44.7464 Cl  0  0  0  0  0  0  0  0  0  0  0  0
    3.1309   20.6345   36.9380 H   0  0  0  0  0  0  0  0  0  0  0  0
    0.9433   20.8589   37.9922 H   0  0  0  0  0  0  0  0  0  0  0  0
   -1.4819   17.0042   43.5809 H   0  0  0  0  0  0  0  0  0  0  0  0
   -2.4206   15.3664   45.1657 H   0  0  0  0  0  0  0  0  0  0  0  0
   -3.6136   12.8812   41.8819 H   0  0  0  0  0  0  0  0  0  0  0  0
   -2.6818   14.5161   40.3783 H   0  0  0  0  0  0  0  0  0  0  0  0
   -1.9929   15.7835   38.9172 H   0  0  0  0  0  0  0  0  0  0  0  0
    2.4072   18.9237   41.5409 H   0  0  0  0  0  0  0  0  0  0  0  0
   -0.1656   20.9789   40.5208 H   0  0  0  0  0  0  0  0  0  0  0  0
  1  2  1  0
  1 19  1  0
  1 20  2  0
  2  3  1  0
  2 16  2  0
  3  4  2  0
  4  5  1  0
  5 15  2  0
  5 17  1  0
  6 17  1  0
  6 18  2  0
  6 22  1  0
  7  8  1  0
  7 14  2  0
  7 18  1  0
  8  9  1  0
  8 13  2  0
  9 10  2  0
 10 11  1  0
 11 12  2  0
 11 23  1  0
 12 13  1  0
 14 22  1  0
 15 16  1  0
 16 21  1  0
  3 24  1  0
  4 25  1  0
  9 26  1  0
 10 27  1  0
 12 28  1  0
 13 29  1  0
 14 30  1  0
 15 31  1  0
 17 32  1  0
M  CHG  2  19  -1  21  -1
M  END
>  <mol_id>  (80) 
2026-08-24-6tgu-s0-n100-0080

>  <rmsd_to_ref>  (80) 
4.081632653065683

>  <pose_kind>  (80) 
conformer

$$$$
6tgu.A
     RDKit          3D

 32 34  0  0  0  0  0  0  0  0999 V2000
    1.2277   15.4549   34.3467 C   0  0  0  0  0  0  0  0  0  0  0  0
    1.0514   16.4887   35.4624 C   0  0  0  0  0  0  0  0  0  0  0  0
    0.2507   17.6118   35.2660 C   0  0  0  0  0  0  0  0  0  0  0  0
   -0.0868   18.4748   36.3136 C   0  0  0  0  0  0  0  0  0  0  0  0
    0.5205   18.3292   37.5693 C   0  0  0  0  0  0  0  0  0  0  0  0
    0.2042   18.9514   40.0139 C   0  0  0  0  0  0  0  0  0  0  0  0
    0.7579   17.9069   41.9576 C   0  0  0  0  0  0  0  0  0  0  0  0
    1.4213   16.8922   42.7770 C   0  0  0  0  0  0  0  0  0  0  0  0
    1.2005   16.7910   44.1579 C   0  0  0  0  0  0  0  0  0  0  0  0
    1.8158   15.7972   44.9126 C   0  0  0  0  0  0  0  0  0  0  0  0
    2.6203   14.8769   44.2674 C   0  0  0  0  0  0  0  0  0  0  0  0
    2.8613   14.9364   42.9030 C   0  0  0  0  0  0  0  0  0  0  0  0
    2.2455   15.9451   42.1671 C   0  0  0  0  0  0  0  0  0  0  0  0
   -0.1085   18.8451   42.4533 C   0  0  0  0  0  0  0  0  0  0  0  0
    1.3202   17.1982   37.7870 C   0  0  0  0  0  0  0  0  0  0  0  0
    1.5731   16.3120   36.7383 C   0  0  0  0  0  0  0  0  0  0  0  0
    0.1395   19.1612   38.6665 N   0  0  0  0  0  0  0  0  0  0  0  0
    0.8888   17.8810   40.5489 N   0  0  0  0  0  0  0  0  0  0  0  0
    0.4881   15.5913   33.3281 O   0  0  0  0  0  0  0  0  0  0  0  0
    2.0256   14.5170   34.5640 O   0  0  0  0  0  0  0  0  0  0  0  0
    2.2705   15.1540   36.9884 O   0  0  0  0  0  0  0  0  0  0  0  0
   -0.8396   19.7438   41.1783 S   0  0  0  0  0  0  0  0  0  0  0  0
    3.3605   13.6092   45.1874 Cl  0  0  0  0  0  0  0  0  0  0  0  0
   -0.1278   17.8263   34.2557 H   0  0  0  0  0  0  0  0  0  0  0  0
   -0.8301   19.2694   36.1523 H   0  0  0  0  0  0  0  0  0  0  0  0
    0.5298   17.5090   44.6526 H   0  0  0  0  0  0  0  0  0  0  0  0
    1.6651   15.7450   46.0009 H   0  0  0  0  0  0  0  0  0  0  0  0
    3.5223   14.2052   42.4146 H   0  0  0  0  0  0  0  0  0  0  0  0
    2.4120   15.9968   41.0810 H   0  0  0  0  0  0  0  0  0  0  0  0
   -0.3103   19.0034   43.5229 H   0  0  0  0  0  0  0  0  0  0  0  0
    1.7477   17.0094   38.7827 H   0  0  0  0  0  0  0  0  0  0  0  0
   -0.2504   20.0749   38.3944 H   0  0  0  0  0  0  0  0  0  0  0  0
  1  2  1  0
  1 19  1  0
  1 20  2  0
  2  3  1  0
  2 16  2  0
  3  4  2  0
  4  5  1  0
  5 15  2  0
  5 17  1  0
  6 17  1  0
  6 18  2  0
  6 22  1  0
  7  8  1  0
  7 14  2  0
  7 18  1  0
  8  9  1  0
  8 13  2  0
  9 10  2  0
 10 11  1  0
 11 12  2  0
 11 23  1  0
 12 13  1  0
 14 22  1  0
 15 16  1  0
 16 21  1  0
  3 24  1  0
  4 25  1  0
  9 26  1  0
 10 27  1  0
 12 28  1  0
 13 29  1  0
 14 30  1  0
 15 31  1  0
 17 32  1  0
M  CHG  2  19  -1  21  -1
M  END
>  <mol_id>  (81) 
2026-08-24-6tgu-s0-n100-0081

>  <rmsd_to_ref>  (81) 
4.1275510204171075

>  <pose_kind>  (81) 
rigid

$$$$
6tgu.A
     RDKit          3D

 32 34  0  0  0  0  0  0  0  0999 V2000
    3.5713   19.6293   35.8497 C   0  0  0  0  0  0  0  0  0  0  0  0
    3.6805   19.5838   37.3029 C   0  0  0  0  0  0  0  0  0  0  0  0
    3.9204   20.7334   37.9849 C   0  0  0  0  0  0  0  0  0  0  0  0
    3.9978   20.7238   39.3541 C   0  0  0  0  0  0  0  0  0  0  0  0
    3.8258   19.5140   40.0028 C   0  0  0  0  0  0  0  0  0  0  0  0
    2.6352   19.3054   42.0946 C   0  0  0  0  0  0  0  0  0  0  0  0
    0.6677   18.8301   43.0809 C   0  0  0  0  0  0  0  0  0  0  0  0
   -0.0937   17.8799   43.9275 C   0  0  0  0  0  0  0  0  0  0  0  0
    0.4531   16.7211   44.4220 C   0  0  0  0  0  0  0  0  0  0  0  0
   -0.2869   15.8636   45.2099 C   0  0  0  0  0  0  0  0  0  0  0  0
   -1.5999   16.1350   45.5292 C   0  0  0  0  0  0  0  0  0  0  0  0
   -2.1762   17.3096   45.0333 C   0  0  0  0  0  0  0  0  0  0  0  0
   -1.4122   18.1471   44.2509 C   0  0  0  0  0  0  0  0  0  0  0  0
    0.1059   19.9788   42.6232 C   0  0  0  0  0  0  0  0  0  0  0  0
    3.5824   18.3256   39.3535 C   0  0  0  0  0  0  0  0  0  0  0  0
    3.5090   18.3672   37.9749 C   0  0  0  0  0  0  0  0  0  0  0  0
    3.8911   19.6054   41.4506 N   0  0  0  0  0  0  0  0  0  0  0  0
    1.9265   18.6598   42.7209 N   0  0  0  0  0  0  0  0  0  0  0  0
    3.3086   18.5349   35.0492 O   0  0  0  0  0  0  0  0  0  0  0  0
    3.7234   20.7401   35.2463 O   0  0  0  0  0  0  0  0  0  0  0  0
    3.2694   17.2184   37.2267 O   0  0  0  0  0  0  0  0  0  0  0  0
    1.4596   20.7782   41.6736 S   0  0  0  0  0  0  0  0  0  0  0  0
   -2.5858   15.0795   46.5240 Cl  0  0  0  0  0  0  0  0  0  0  0  0
    4.0606   21.6946   37.4800 H   0  0  0  0  0  0  0  0  0  0  0  0
    4.1874   21.6400   39.9148 H   0  0  0  0  0  0  0  0  0  0  0  0
    1.5024   16.4867   44.1821 H   0  0  0  0  0  0  0  0  0  0  0  0
    0.1805   14.9601   45.5951 H   0  0  0  0  0  0  0  0  0  0  0  0
   -3.1987   17.5765   45.2508 H   0  0  0  0  0  0  0  0  0  0  0  0
   -1.8605   19.0333   43.8764 H   0  0  0  0  0  0  0  0  0  0  0  0
   -0.9017   20.4357   42.7232 H   0  0  0  0  0  0  0  0  0  0  0  0
    3.4515   17.4045   39.9008 H   0  0  0  0  0  0  0  0  0  0  0  0
    4.7518   19.8545   41.9474 H   0  0  0  0  0  0  0  0  0  0  0  0
  1  2  1  0
  1 19  1  0
  1 20  2  0
  2  3  1  0
  2 16  2  0
  3  4  2  0
  4  5  1  0
  5 15  2  0
  5 17  1  0
  6 17  1  0
  6 18  2  0
  6 22  1  0
  7  8  1  0
  7 14  2  0
  7 18  1  0
  8  9  1  0
  8 13  2  0
  9 10  2  0
 10 11  1  0
 11 12  2  0
 11 23  1  0
 12 13  1  0
 14 22  1  0
 15 16  1  0
 16 21  1  0
  3 24  1  0
  4 25  1  0
  9 26  1  0
 10 27  1  0
 12 28  1  0
 13 29  1  0
 14 30  1  0
 15 31  1  0
 17 32  1  0
M  CHG  2  19  -1  21  -1
M  END
>  <mol_id>  (82) 
2026-08-24-6tgu-s0-n100-0082

>  <rmsd_to_ref>  (82) 
4.173469387758752

>  <pose_kind>  (82) 
conformer

$$$$
6tgu.A
     RDKit          3D

 32 34  0  0  0  0  0  0  0  0999 V2000
    4.1679   18.2963   37.0349 C   0  0  0  0  0  0  0  0  0  0  0  0
    2.9869   17.9195   37.9336 C   0  0  0  0  0  0  0  0  0  0  0  0
    1.9194   17.1819   37.4265 C   0  0  0  0  0  0  0  0  0  0  0  0
    0.9201   16.6583   38.2535 C   0  0  0  0  0  0  0  0  0  0  0  0
    0.8710   17.0125   39.6096 C   0  0  0  0  0  0  0  0  0  0  0  0
   -0.0927   16.2402   41.8316 C   0  0  0  0  0  0  0  0  0  0  0  0
    0.6487   16.4019   43.9763 C   0  0  0  0  0  0  0  0  0  0  0  0
    1.5215   16.8866   45.0462 C   0  0  0  0  0  0  0  0  0  0  0  0
    1.4257   16.4045   46.3593 C   0  0  0  0  0  0  0  0  0  0  0  0
    2.2881   16.8546   47.3541 C   0  0  0  0  0  0  0  0  0  0  0  0
    3.2769   17.7590   47.0152 C   0  0  0  0  0  0  0  0  0  0  0  0
    3.4111   18.2573   45.7281 C   0  0  0  0  0  0  0  0  0  0  0  0
    2.5313   17.8032   44.7494 C   0  0  0  0  0  0  0  0  0  0  0  0
   -0.3349   15.4654   44.1557 C   0  0  0  0  0  0  0  0  0  0  0  0
    1.9434   17.7452   40.1382 C   0  0  0  0  0  0  0  0  0  0  0  0
    2.9672   18.1858   39.2975 C   0  0  0  0  0  0  0  0  0  0  0  0
   -0.1039   16.4365   40.4807 N   0  0  0  0  0  0  0  0  0  0  0  0
    0.8759   16.7996   42.6376 N   0  0  0  0  0  0  0  0  0  0  0  0
    4.1943   17.7668   35.8850 O   0  0  0  0  0  0  0  0  0  0  0  0
    5.0494   19.0291   37.5346 O   0  0  0  0  0  0  0  0  0  0  0  0
    4.0634   18.8114   39.8421 O   0  0  0  0  0  0  0  0  0  0  0  0
   -1.0257   15.0003   42.6476 S   0  0  0  0  0  0  0  0  0  0  0  0
    4.3839   18.2974   48.2344 Cl  0  0  0  0  0  0  0  0  0  0  0  0
    1.8605   17.0059   36.3424 H   0  0  0  0  0  0  0  0  0  0  0  0
    0.1713   15.9672   37.8393 H   0  0  0  0  0  0  0  0  0  0  0  0
    0.6563   15.6584   46.6071 H   0  0  0  0  0  0  0  0  0  0  0  0
    2.1850   16.4980   48.3895 H   0  0  0  0  0  0  0  0  0  0  0  0
    4.1927   18.9925   45.4866 H   0  0  0  0  0  0  0  0  0  0  0  0
    2.6344   18.1750   43.7193 H   0  0  0  0  0  0  0  0  0  0  0  0
   -0.6427   15.0641   45.1324 H   0  0  0  0  0  0  0  0  0  0  0  0
    1.9779   17.9724   41.2139 H   0  0  0  0  0  0  0  0  0  0  0  0
   -0.9612   16.1146   40.0091 H   0  0  0  0  0  0  0  0  0  0  0  0
  1  2  1  0
  1 19  1  0
  1 20  2  0
  2  3  1  0
  2 16  2  0
  3  4  2  0
  4  5  1  0
  5 15  2  0
  5 17  1  0
  6 17  1  0
  6 18  2  0
  6 22  1  0
  7  8  1  0
  7 14  2  0
  7 18  1  0
  8  9  1  0
  8 13  2  0
  9 10  2  0
 10 11  1  0
 11 12  2  0
 11 23  1  0
 12 13  1  0
 14 22  1  0
 15 16  1  0
 16 21  1  0
  3 24  1  0
  4 25  1  0
  9 26  1  0
 10 27  1  0
 12 28  1  0
 13 29  1  0
 14 30  1  0
 15 31  1  0
 17 32  1  0
M  CHG  2  19  -1  21  -1
M  END
>  <mol_id>  (83) 
2026-08-24-6tgu-s0-n100-0083

>  <rmsd_to_ref>  (83) 
4.219387755105593

>  <pose_kind>  (83) 
rigid

$$$$
6tgu.A
     RDKit          3D

 32 34  0  0  0  0  0  0  0  0999 V2000
    4.0669   18.3537   37.1956 C   0  0  0  0  0  0  0  0  0  0  0  0
    3.0001   18.5629   38.1674 C   0  0  0  0  0  0  0  0  0  0  0  0
    1.7085   18.4175   37.7736 C   0  0  0  0  0  0  0  0  0  0  0  0
    0.6871   18.5791   38.6744 C   0  0  0  0  0  0  0  0  0  0  0  0
    1.0201   18.8929   39.9801 C   0  0  0  0  0  0  0  0  0  0  0  0
   -0.1570   17.9899   41.8868 C   0  0  0  0  0  0  0  0  0  0  0  0
   -0.1916   16.3892   43.4699 C   0  0  0  0  0  0  0  0  0  0  0  0
   -0.0554   16.0734   44.9126 C   0  0  0  0  0  0  0  0  0  0  0  0
    0.2167   17.0289   45.8609 C   0  0  0  0  0  0  0  0  0  0  0  0
    0.3324   16.6961   47.1949 C   0  0  0  0  0  0  0  0  0  0  0  0
    0.1812   15.3958   47.6262 C   0  0  0  0  0  0  0  0  0  0  0  0
   -0.0944   14.4072   46.6753 C   0  0  0  0  0  0  0  0  0  0  0  0
   -0.2059   14.7698   45.3511 C   0  0  0  0  0  0  0  0  0  0  0  0
   -0.4815   15.4256   42.5577 C   0  0  0  0  0  0  0  0  0  0  0  0
    2.3131   19.0510   40.4228 C   0  0  0  0  0  0  0  0  0  0  0  0
    3.3202   18.8812   39.4930 C   0  0  0  0  0  0  0  0  0  0  0  0
   -0.1220   19.0120   40.8688 N   0  0  0  0  0  0  0  0  0  0  0  0
   -0.0645   17.6003   42.9596 N   0  0  0  0  0  0  0  0  0  0  0  0
    5.4150   18.4506   37.4794 O   0  0  0  0  0  0  0  0  0  0  0  0
    3.7680   18.0596   35.9935 O   0  0  0  0  0  0  0  0  0  0  0  0
    4.6601   19.0223   39.8415 O   0  0  0  0  0  0  0  0  0  0  0  0
   -0.5613   16.3409   40.9673 S   0  0  0  0  0  0  0  0  0  0  0  0
    0.3198   14.9179   49.3078 Cl  0  0  0  0  0  0  0  0  0  0  0  0
    1.4354   18.1722   36.7423 H   0  0  0  0  0  0  0  0  0  0  0  0
   -0.3546   18.4627   38.3728 H   0  0  0  0  0  0  0  0  0  0  0  0
    0.3377   18.0751   45.5383 H   0  0  0  0  0  0  0  0  0  0  0  0
    0.5367   17.4793   47.9216 H   0  0  0  0  0  0  0  0  0  0  0  0
   -0.2250   13.3727   46.9527 H   0  0  0  0  0  0  0  0  0  0  0  0
   -0.4108   14.0112   44.6375 H   0  0  0  0  0  0  0  0  0  0  0  0
   -0.6505   14.3298   42.6232 H   0  0  0  0  0  0  0  0  0  0  0  0
    2.5273   19.2932   41.4526 H   0  0  0  0  0  0  0  0  0  0  0  0
   -0.8200   19.7557   40.7707 H   0  0  0  0  0  0  0  0  0  0  0  0
  1  2  1  0
  1 19  1  0
  1 20  2  0
  2  3  1  0
  2 16  2  0
  3  4  2  0
  4  5  1  0
  5 15  2  0
  5 17  1  0
  6 17  1  0
  6 18  2  0
  6 22  1  0
  7  8  1  0
  7 14  2  0
  7 18  1  0
  8  9  1  0
  8 13  2  0
  9 10  2  0
 10 11  1  0
 11 12  2  0
 11 23  1  0
 12 13  1  0
 14 22  1  0
 15 16  1  0
 16 21  1  0
  3 24  1  0
  4 25  1  0
  9 26  1  0
 10 27  1  0
 12 28  1  0
 13 29  1  0
 14 30  1  0
 15 31  1  0
 17 32  1  0
M  CHG  2  19  -1  21  -1
M  END
>  <mol_id>  (84) 
2026-08-24-6tgu-s0-n100-0084

>  <rmsd_to_ref>  (84) 
4.265306122454264

>  <pose_kind>  (84) 
conformer

$$$$
6tgu.A
     RDKit          3D

 32 34  0  0  0  0  0  0  0  0999 V2000
   -3.5573   18.1078   37.6247 C   0  0  0  0  0  0  0  0  0  0  0  0
   -2.6278   18.4091   38.8036 C   0  0  0  0  0  0  0  0  0  0  0  0
   -2.9857   19.3536   39.7630 C   0  0  0  0  0  0  0  0  0  0  0  0
   -2.2600   19.5202   40.9472 C   0  0  0  0  0  0  0  0  0  0  0  0
   -1.0385   18.8543   41.1239 C   0  0  0  0  0  0  0  0  0  0  0  0
    0.5798   18.1204   42.9420 C   0  0  0  0  0  0  0  0  0  0  0  0
    1.9762   16.3350   43.1379 C   0  0  0  0  0  0  0  0  0  0  0  0
    2.6938   15.1524   42.6607 C   0  0  0  0  0  0  0  0  0  0  0  0
    3.4508   14.3449   43.5214 C   0  0  0  0  0  0  0  0  0  0  0  0
    4.0979   13.2056   43.0530 C   0  0  0  0  0  0  0  0  0  0  0  0
    3.9454   12.8552   41.7247 C   0  0  0  0  0  0  0  0  0  0  0  0
    3.2015   13.6217   40.8404 C   0  0  0  0  0  0  0  0  0  0  0  0
    2.5711   14.7642   41.3257 C   0  0  0  0  0  0  0  0  0  0  0  0
    1.9903   16.7666   44.4379 C   0  0  0  0  0  0  0  0  0  0  0  0
   -0.6691   17.8922   40.1731 C   0  0  0  0  0  0  0  0  0  0  0  0
   -1.4593   17.6945   39.0393 C   0  0  0  0  0  0  0  0  0  0  0  0
   -0.3176   18.9635   42.3525 N   0  0  0  0  0  0  0  0  0  0  0  0
    1.1032   17.0352   42.2719 N   0  0  0  0  0  0  0  0  0  0  0  0
   -4.7107   18.6285   37.6671 O   0  0  0  0  0  0  0  0  0  0  0  0
   -3.1347   17.3106   36.7589 O   0  0  0  0  0  0  0  0  0  0  0  0
   -1.1450   16.6786   38.1681 O   0  0  0  0  0  0  0  0  0  0  0  0
    0.8851   18.0680   44.6675 S   0  0  0  0  0  0  0  0  0  0  0  0
    4.7117   11.4169   41.1365 Cl  0  0  0  0  0  0  0  0  0  0  0  0
   -3.8662   19.9882   39.5837 H   0  0  0  0  0  0  0  0  0  0  0  0
   -2.6484   20.1747   41.7413 H   0  0  0  0  0  0  0  0  0  0  0  0
    3.5347   14.6164   44.5841 H   0  0  0  0  0  0  0  0  0  0  0  0
    4.7182   12.5959   43.7264 H   0  0  0  0  0  0  0  0  0  0  0  0
    3.1118   13.3344   39.7824 H   0  0  0  0  0  0  0  0  0  0  0  0
    1.9630   15.3745   40.6418 H   0  0  0  0  0  0  0  0  0  0  0  0
    2.6229   16.3390   45.2296 H   0  0  0  0  0  0  0  0  0  0  0  0
    0.2422   17.2939   40.3204 H   0  0  0  0  0  0  0  0  0  0  0  0
   -0.5073   19.8251   42.8842 H   0  0  0  0  0  0  0  0  0  0  0  0
  1  2  1  0
  1 19  1  0
  1 20  2  0
  2  3  1  0
  2 16  2  0
  3  4  2  0
  4  5  1  0
  5 15  2  0
  5 17  1  0
  6 17  1  0
  6 18  2  0
  6 22  1  0
  7  8  1  0
  7 14  2  0
  7 18  1  0
  8  9  1  0
  8 13  2  0
  9 10  2  0
 10 11  1  0
 11 12  2  0
 11 23  1  0
 12 13  1  0
 14 22  1  0
 15 16  1  0
 16 21  1  0
  3 24  1  0
  4 25  1  0
  9 26  1  0
 10 27  1  0
 12 28  1  0
 13 29  1  0
 14 30  1  0
 15 31  1  0
 17 32  1  0
M  CHG  2  19  -1  21  -1
M  END
>  <mol_id>  (85) 
2026-08-24-6tgu-s0-n100-0085

>  <rmsd_to_ref>  (85) 
4.311224489803983

>  <pose_kind>  (85) 
rigid

$$$$
6tgu.A
     RDKit          3D

 32 34  0  0  0  0  0  0  0  0999 V2000
    6.5852   18.4456   39.9080 C   0  0  0  0  0  0  0  0  0  0  0  0
    5.2391   18.7018   40.4067 C   0  0  0  0  0  0  0  0  0  0  0  0
    4.3249   19.2729   39.5806 C   0  0  0  0  0  0  0  0  0  0  0  0
    3.0435   19.4973   40.0145 C   0  0  0  0  0  0  0  0  0  0  0  0
    2.7248   19.1254   41.3084 C   0  0  0  0  0  0  0  0  0  0  0  0
    0.5934   18.1581   41.9073 C   0  0  0  0  0  0  0  0  0  0  0  0
   -0.5524   16.2558   42.2788 C   0  0  0  0  0  0  0  0  0  0  0  0
   -1.2300   15.3955   43.2787 C   0  0  0  0  0  0  0  0  0  0  0  0
   -1.2927   15.7133   44.6134 C   0  0  0  0  0  0  0  0  0  0  0  0
   -1.9360   14.8885   45.5131 C   0  0  0  0  0  0  0  0  0  0  0  0
   -2.5379   13.7163   45.1089 C   0  0  0  0  0  0  0  0  0  0  0  0
   -2.4833   13.3733   43.7535 C   0  0  0  0  0  0  0  0  0  0  0  0
   -1.8357   14.2174   42.8787 C   0  0  0  0  0  0  0  0  0  0  0  0
   -0.5246   15.9250   40.9619 C   0  0  0  0  0  0  0  0  0  0  0  0
    3.6177   18.5458   42.1798 C   0  0  0  0  0  0  0  0  0  0  0  0
    4.9002   18.3316   41.7140 C   0  0  0  0  0  0  0  0  0  0  0  0
    1.3395   19.3701   41.6691 N   0  0  0  0  0  0  0  0  0  0  0  0
    0.0516   17.3942   42.5662 N   0  0  0  0  0  0  0  0  0  0  0  0
    7.5929   17.8520   40.6426 O   0  0  0  0  0  0  0  0  0  0  0  0
    6.8842   18.7806   38.7166 O   0  0  0  0  0  0  0  0  0  0  0  0
    5.8770   17.7535   42.5194 O   0  0  0  0  0  0  0  0  0  0  0  0
    0.3935   17.3122   40.1832 S   0  0  0  0  0  0  0  0  0  0  0  0
   -3.3664   12.6312   46.2095 Cl  0  0  0  0  0  0  0  0  0  0  0  0
    4.5688   19.5730   38.5564 H   0  0  0  0  0  0  0  0  0  0  0  0
    2.2984   19.9528   39.3611 H   0  0  0  0  0  0  0  0  0  0  0  0
   -0.8213   16.6478   44.9574 H   0  0  0  0  0  0  0  0  0  0  0  0
   -1.9774   15.1760   46.5613 H   0  0  0  0  0  0  0  0  0  0  0  0
   -2.9376   12.4699   43.3773 H   0  0  0  0  0  0  0  0  0  0  0  0
   -1.7966   13.9456   41.8534 H   0  0  0  0  0  0  0  0  0  0  0  0
   -0.9160   15.0666   40.3756 H   0  0  0  0  0  0  0  0  0  0  0  0
    3.3245   18.2686   43.1809 H   0  0  0  0  0  0  0  0  0  0  0  0
    0.9499   20.3146   41.7461 H   0  0  0  0  0  0  0  0  0  0  0  0
  1  2  1  0
  1 19  1  0
  1 20  2  0
  2  3  1  0
  2 16  2  0
  3  4  2  0
  4  5  1  0
  5 15  2  0
  5 17  1  0
  6 17  1  0
  6 18  2  0
  6 22  1  0
  7  8  1  0
  7 14  2  0
  7 18  1  0
  8  9  1  0
  8 13  2  0
  9 10  2  0
 10 11  1  0
 11 12  2  0
 11 23  1  0
 12 13  1  0
 14 22  1  0
 15 16  1  0
 16 21  1  0
  3 24  1  0
  4 25  1  0
  9 26  1  0
 10 27  1  0
 12 28  1  0
 13 29  1  0
 14 30  1  0
 15 31  1  0
 17 32  1  0
M  CHG  2  19  -1  21  -1
M  END
>  <mol_id>  (86) 
2026-08-24-6tgu-s0-n100-0086

>  <rmsd_to_ref>  (86) 
4.357142857149978

>  <pose_kind>  (86) 
conformer

$$$$
6tgu.A
     RDKit          3D

 32 34  0  0  0  0  0  0  0  0999 V2000
   -0.6745   20.4920   36.5000 C   0  0  0  0  0  0  0  0  0  0  0  0
   -0.5740   19.5306   37.6875 C   0  0  0  0  0  0  0  0  0  0  0  0
   -1.6623   18.7413   38.0526 C   0  0  0  0  0  0  0  0  0  0  0  0
   -1.5533   17.7210   39.0031 C   0  0  0  0  0  0  0  0  0  0  0  0
   -0.3749   17.5772   39.7496 C   0  0  0  0  0  0  0  0  0  0  0  0
    0.8940   15.8787   41.1527 C   0  0  0  0  0  0  0  0  0  0  0  0
    3.1119   15.5151   41.5050 C   0  0  0  0  0  0  0  0  0  0  0  0
    4.5377   15.8359   41.4321 C   0  0  0  0  0  0  0  0  0  0  0  0
    5.5246   14.9385   41.8643 C   0  0  0  0  0  0  0  0  0  0  0  0
    6.8762   15.2503   41.7546 C   0  0  0  0  0  0  0  0  0  0  0  0
    7.2348   16.4494   41.1682 C   0  0  0  0  0  0  0  0  0  0  0  0
    6.2920   17.3633   40.7221 C   0  0  0  0  0  0  0  0  0  0  0  0
    4.9445   17.0380   40.8509 C   0  0  0  0  0  0  0  0  0  0  0  0
    2.6159   14.3414   42.0080 C   0  0  0  0  0  0  0  0  0  0  0  0
    0.7335   18.3561   39.3876 C   0  0  0  0  0  0  0  0  0  0  0  0
    0.6122   19.3128   38.3781 C   0  0  0  0  0  0  0  0  0  0  0  0
   -0.2242   16.5015   40.6778 N   0  0  0  0  0  0  0  0  0  0  0  0
    2.1569   16.3808   40.9214 N   0  0  0  0  0  0  0  0  0  0  0  0
   -1.7174   20.4029   35.7877 O   0  0  0  0  0  0  0  0  0  0  0  0
    0.3123   21.2285   36.2818 O   0  0  0  0  0  0  0  0  0  0  0  0
    1.7294   19.9965   37.9603 O   0  0  0  0  0  0  0  0  0  0  0  0
    0.9148   14.2334   41.7576 S   0  0  0  0  0  0  0  0  0  0  0  0
    8.9145   16.8332   40.9877 Cl  0  0  0  0  0  0  0  0  0  0  0  0
   -2.6377   18.9263   37.5788 H   0  0  0  0  0  0  0  0  0  0  0  0
   -2.3936   17.0300   39.1653 H   0  0  0  0  0  0  0  0  0  0  0  0
    5.2255   13.9724   42.2969 H   0  0  0  0  0  0  0  0  0  0  0  0
    7.6440   14.5563   42.1272 H   0  0  0  0  0  0  0  0  0  0  0  0
    6.6010   18.3210   40.2777 H   0  0  0  0  0  0  0  0  0  0  0  0
    4.1836   17.7439   40.4867 H   0  0  0  0  0  0  0  0  0  0  0  0
    3.2229   13.5706   42.5054 H   0  0  0  0  0  0  0  0  0  0  0  0
    1.6972   18.2136   39.8983 H   0  0  0  0  0  0  0  0  0  0  0  0
   -1.1102   16.1331   41.0524 H   0  0  0  0  0  0  0  0  0  0  0  0
  1  2  1  0
  1 19  1  0
  1 20  2  0
  2  3  1  0
  2 16  2  0
  3  4  2  0
  4  5  1  0
  5 15  2  0
  5 17  1  0
  6 17  1  0
  6 18  2  0
  6 22  1  0
  7  8  1  0
  7 14  2  0
  7 18  1  0
  8  9  1  0
  8 13  2  0
  9 10  2  0
 10 11  1  0
 11 12  2  0
 11 23  1  0
 12 13  1  0
 14 22  1  0
 15 16  1  0
 16 21  1  0
  3 24  1  0
  4 25  1  0
  9 26  1  0
 10 27  1  0
 12 28  1  0
 13 29  1  0
 14 30  1  0
 15 31  1  0
 17 32  1  0
M  CHG  2  19  -1  21  -1
M  END
>  <mol_id>  (87) 
2026-08-24-6tgu-s0-n100-0087

>  <rmsd_to_ref>  (87) 
4.403061224490392

>  <pose_kind>  (87) 
rigid

$$$$
6tgu.A
     RDKit          3D

 32 34  0  0  0  0  0  0  0  0999 V2000
    6.0575   18.2838   38.2597 C   0  0  0  0  0  0  0  0  0  0  0  0
    5.2063   17.8294   39.3529 C   0  0  0  0  0  0  0  0  0  0  0  0
    4.8984   18.6930   40.3549 C   0  0  0  0  0  0  0  0  0  0  0  0
    4.0757   18.3006   41.3795 C   0  0  0  0  0  0  0  0  0  0  0  0
    3.5806   17.0091   41.3527 C   0  0  0  0  0  0  0  0  0  0  0  0
    1.3331   16.4517   42.0418 C   0  0  0  0  0  0  0  0  0  0  0  0
   -0.7831   16.0743   41.3718 C   0  0  0  0  0  0  0  0  0  0  0  0
   -1.8672   15.0767   41.2021 C   0  0  0  0  0  0  0  0  0  0  0  0
   -1.7166   13.7513   41.5287 C   0  0  0  0  0  0  0  0  0  0  0  0
   -2.7507   12.8536   41.3595 C   0  0  0  0  0  0  0  0  0  0  0  0
   -3.9710   13.2507   40.8567 C   0  0  0  0  0  0  0  0  0  0  0  0
   -4.1440   14.5966   40.5158 C   0  0  0  0  0  0  0  0  0  0  0  0
   -3.0941   15.4697   40.6974 C   0  0  0  0  0  0  0  0  0  0  0  0
   -0.9685   17.3828   41.0590 C   0  0  0  0  0  0  0  0  0  0  0  0
    3.8665   16.1007   40.3598 C   0  0  0  0  0  0  0  0  0  0  0  0
    4.6970   16.5250   39.3410 C   0  0  0  0  0  0  0  0  0  0  0  0
    2.6935   16.6935   42.4581 N   0  0  0  0  0  0  0  0  0  0  0  0
    0.4175   15.7932   41.8440 N   0  0  0  0  0  0  0  0  0  0  0  0
    6.4218   17.5086   37.1763 O   0  0  0  0  0  0  0  0  0  0  0  0
    6.5126   19.4728   38.2751 O   0  0  0  0  0  0  0  0  0  0  0  0
    5.0477   15.6801   38.2921 O   0  0  0  0  0  0  0  0  0  0  0  0
    0.6409   18.1632   41.4760 S   0  0  0  0  0  0  0  0  0  0  0  0
   -5.3173   12.1522   40.6197 Cl  0  0  0  0  0  0  0  0  0  0  0  0
    5.2878   19.7156   40.3859 H   0  0  0  0  0  0  0  0  0  0  0  0
    3.8180   18.9844   42.1892 H   0  0  0  0  0  0  0  0  0  0  0  0
   -0.7504   13.4131   41.9359 H   0  0  0  0  0  0  0  0  0  0  0  0
   -2.6017   11.8132   41.6396 H   0  0  0  0  0  0  0  0  0  0  0  0
   -5.0767   14.9670   40.1195 H   0  0  0  0  0  0  0  0  0  0  0  0
   -3.2348   16.4876   40.4314 H   0  0  0  0  0  0  0  0  0  0  0  0
   -1.8226   17.9623   40.6483 H   0  0  0  0  0  0  0  0  0  0  0  0
    3.4552   15.1028   40.3775 H   0  0  0  0  0  0  0  0  0  0  0  0
    3.0191   16.6470   43.4285 H   0  0  0  0  0  0  0  0  0  0  0  0
  1  2  1  0
  1 19  1  0
  1 20  2  0
  2  3  1  0
  2 16  2  0
  3  4  2  0
  4  5  1  0
  5 15  2  0
  5 17  1  0
  6 17  1  0
  6 18  2  0
  6 22  1  0
  7  8  1  0
  7 14  2  0
  7 18  1  0
  8  9  1  0
  8 13  2  0
  9 10  2  0
 10 11  1  0
 11 12  2  0
 11 23  1  0
 12 13  1  0
 14 22  1  0
 15 16  1  0
 16 21  1  0
  3 24  1  0
  4 25  1  0
  9 26  1  0
 10 27  1  0
 12 28  1  0
 13 29  1  0
 14 30  1  0
 15 31  1  0
 17 32  1  0
M  CHG  2  19  -1  21  -1
M  END
>  <mol_id>  (88) 
2026-08-24-6tgu-s0-n100-0088

>  <rmsd_to_ref>  (88) 
4.448979591844027

>  <pose_kind>  (88) 
conformer

$$$$
6tgu.A
     RDKit          3D

 32 34  0  0  0  0  0  0  0  0999 V2000
   -0.8642   20.0564   35.4506 C   0  0  0  0  0  0  0  0  0  0  0  0
   -0.8723   19.4132   36.8402 C   0  0  0  0  0  0  0  0  0  0  0  0
   -2.0386   18.8480   37.3510 C   0  0  0  0  0  0  0  0  0  0  0  0
   -2.0423   18.0885   38.5256 C   0  0  0  0  0  0  0  0  0  0  0  0
   -0.8908   18.0200   39.3234 C   0  0  0  0  0  0  0  0  0  0  0  0
    0.1861   16.6060   41.1410 C   0  0  0  0  0  0  0  0  0  0  0  0
    2.3523   16.1274   41.6452 C   0  0  0  0  0  0  0  0  0  0  0  0
    3.8040   16.2804   41.5433 C   0  0  0  0  0  0  0  0  0  0  0  0
    4.6904   15.4262   42.2146 C   0  0  0  0  0  0  0  0  0  0  0  0
    6.0676   15.5687   42.0769 C   0  0  0  0  0  0  0  0  0  0  0  0
    6.5517   16.5452   41.2268 C   0  0  0  0  0  0  0  0  0  0  0  0
    5.7110   17.4075   40.5395 C   0  0  0  0  0  0  0  0  0  0  0  0
    4.3363   17.2563   40.6993 C   0  0  0  0  0  0  0  0  0  0  0  0
    1.7349   15.1681   42.4035 C   0  0  0  0  0  0  0  0  0  0  0  0
    0.2941   18.5740   38.8186 C   0  0  0  0  0  0  0  0  0  0  0  0
    0.2796   19.2588   37.6020 C   0  0  0  0  0  0  0  0  0  0  0  0
   -0.8586   17.1975   40.4912 N   0  0  0  0  0  0  0  0  0  0  0  0
    1.4957   16.9105   40.8359 N   0  0  0  0  0  0  0  0  0  0  0  0
   -1.9050   19.8957   34.7475 O   0  0  0  0  0  0  0  0  0  0  0  0
    0.1944   20.6169   35.0915 O   0  0  0  0  0  0  0  0  0  0  0  0
    1.4642   19.7062   37.0669 O   0  0  0  0  0  0  0  0  0  0  0  0
    0.0338   15.1671   42.1310 S   0  0  0  0  0  0  0  0  0  0  0  0
    8.2633   16.7077   41.0138 Cl  0  0  0  0  0  0  0  0  0  0  0  0
   -2.9860   19.0039   36.8143 H   0  0  0  0  0  0  0  0  0  0  0  0
   -2.9501   17.5437   38.8241 H   0  0  0  0  0  0  0  0  0  0  0  0
    4.2906   14.6307   42.8605 H   0  0  0  0  0  0  0  0  0  0  0  0
    6.7575   14.9171   42.6334 H   0  0  0  0  0  0  0  0  0  0  0  0
    6.1198   18.1910   39.8846 H   0  0  0  0  0  0  0  0  0  0  0  0
    3.6545   17.9207   40.1481 H   0  0  0  0  0  0  0  0  0  0  0  0
    2.2557   14.4890   43.0945 H   0  0  0  0  0  0  0  0  0  0  0  0
    1.2340   18.4692   39.3803 H   0  0  0  0  0  0  0  0  0  0  0  0
   -1.7806   17.0208   40.9150 H   0  0  0  0  0  0  0  0  0  0  0  0
  1  2  1  0
  1 19  1  0
  1 20  2  0
  2  3  1  0
  2 16  2  0
  3  4  2  0
  4  5  1  0
  5 15  2  0
  5 17  1  0
  6 17  1  0
  6 18  2  0
  6 22  1  0
  7  8  1  0
  7 14  2  0
  7 18  1  0
  8  9  1  0
  8 13  2  0
  9 10  2  0
 10 11  1  0
 11 12  2  0
 11 23  1  0
 12 13  1  0
 14 22  1  0
 15 16  1  0
 16 21  1  0
  3 24  1  0
  4 25  1  0
  9 26  1  0
 10 27  1  0
 12 28  1  0
 13 29  1  0
 14 30  1  0
 15 31  1  0
 17 32  1  0
M  CHG  2  19  -1  21  -1
M  END
>  <mol_id>  (89) 
2026-08-24-6tgu-s0-n100-0089

>  <rmsd_to_ref>  (89) 
4.494897959186659

>  <pose_kind>  (89) 
rigid

$$$$
6tgu.A
     RDKit          3D

 32 34  0  0  0  0  0  0  0  0999 V2000
   -1.0207   19.9555   36.2658 C   0  0  0  0  0  0  0  0  0  0  0  0
   -0.5472   19.6047   37.5995 C   0  0  0  0  0  0  0  0  0  0  0  0
   -1.3171   18.8105   38.3874 C   0  0  0  0  0  0  0  0  0  0  0  0
   -0.8821   18.4409   39.6344 C   0  0  0  0  0  0  0  0  0  0  0  0
    0.3530   18.9039   40.0518 C   0  0  0  0  0  0  0  0  0  0  0  0
    1.8904   17.5583   41.3412 C   0  0  0  0  0  0  0  0  0  0  0  0
    3.6808   16.1945   41.2770 C   0  0  0  0  0  0  0  0  0  0  0  0
    5.1142   16.0185   41.6143 C   0  0  0  0  0  0  0  0  0  0  0  0
    5.8589   16.9947   42.2299 C   0  0  0  0  0  0  0  0  0  0  0  0
    7.1900   16.7917   42.5311 C   0  0  0  0  0  0  0  0  0  0  0  0
    7.8224   15.6057   42.2261 C   0  0  0  0  0  0  0  0  0  0  0  0
    7.0816   14.5993   41.5968 C   0  0  0  0  0  0  0  0  0  0  0  0
    5.7542   14.8302   41.3101 C   0  0  0  0  0  0  0  0  0  0  0  0
    2.9648   15.2030   40.6865 C   0  0  0  0  0  0  0  0  0  0  0  0
    1.1653   19.7106   39.2888 C   0  0  0  0  0  0  0  0  0  0  0  0
    0.7007   20.0652   38.0373 C   0  0  0  0  0  0  0  0  0  0  0  0
    0.7451   18.4356   41.3692 N   0  0  0  0  0  0  0  0  0  0  0  0
    2.9879   17.2901   41.5275 N   0  0  0  0  0  0  0  0  0  0  0  0
   -0.3207   20.7352   35.3659 O   0  0  0  0  0  0  0  0  0  0  0  0
   -2.1541   19.5288   35.8731 O   0  0  0  0  0  0  0  0  0  0  0  0
    1.4470   20.8799   37.1909 O   0  0  0  0  0  0  0  0  0  0  0  0
    1.2818   15.9196   40.5211 S   0  0  0  0  0  0  0  0  0  0  0  0
    9.5109   15.2960   42.5844 Cl  0  0  0  0  0  0  0  0  0  0  0  0
   -2.2968   18.4419   38.0668 H   0  0  0  0  0  0  0  0  0  0  0  0
   -1.4888   17.8015   40.2768 H   0  0  0  0  0  0  0  0  0  0  0  0
    5.3720   17.9490   42.4861 H   0  0  0  0  0  0  0  0  0  0  0  0
    7.7478   17.5813   43.0297 H   0  0  0  0  0  0  0  0  0  0  0  0
    7.5212   13.6493   41.3352 H   0  0  0  0  0  0  0  0  0  0  0  0
    5.2026   14.0616   40.8288 H   0  0  0  0  0  0  0  0  0  0  0  0
    3.2116   14.1769   40.3400 H   0  0  0  0  0  0  0  0  0  0  0  0
    2.1241   20.0464   39.6536 H   0  0  0  0  0  0  0  0  0  0  0  0
    0.2496   18.7142   42.2216 H   0  0  0  0  0  0  0  0  0  0  0  0
  1  2  1  0
  1 19  1  0
  1 20  2  0
  2  3  1  0
  2 16  2  0
  3  4  2  0
  4  5  1  0
  5 15  2  0
  5 17  1  0
  6 17  1  0
  6 18  2  0
  6 22  1  0
  7  8  1  0
  7 14  2  0
  7 18  1  0
  8  9  1  0
  8 13  2  0
  9 10  2  0
 10 11  1  0
 11 12  2  0
 11 23  1  0
 12 13  1  0
 14 22  1  0
 15 16  1  0
 16 21  1  0
  3 24  1  0
  4 25  1  0
  9 26  1  0
 10 27  1  0
 12 28  1  0
 13 29  1  0
 14 30  1  0
 15 31  1  0
 17 32  1  0
M  CHG  2  19  -1  21  -1
M  END
>  <mol_id>  (90) 
2026-08-24-6tgu-s0-n100-0090

>  <rmsd_to_ref>  (90) 
4.54081632653644

>  <pose_kind>  (90) 
conformer

$$$$
6tgu.A
     RDKit          3D

 32 34  0  0  0  0  0  0  0  0999 V2000
    4.8203   17.1995   34.8003 C   0  0  0  0  0  0  0  0  0  0  0  0
    4.6537   16.8303   36.2770 C   0  0  0  0  0  0  0  0  0  0  0  0
    5.7137   16.9825   37.1681 C   0  0  0  0  0  0  0  0  0  0  0  0
    5.5482   16.8386   38.5495 C   0  0  0  0  0  0  0  0  0  0  0  0
    4.3357   16.3607   39.0674 C   0  0  0  0  0  0  0  0  0  0  0  0
    2.9822   16.2942   41.2185 C   0  0  0  0  0  0  0  0  0  0  0  0
    0.7460   16.2918   41.6365 C   0  0  0  0  0  0  0  0  0  0  0  0
   -0.6706   16.1967   41.2823 C   0  0  0  0  0  0  0  0  0  0  0  0
   -1.6880   16.4174   42.2216 C   0  0  0  0  0  0  0  0  0  0  0  0
   -3.0290   16.3550   41.8555 C   0  0  0  0  0  0  0  0  0  0  0  0
   -3.3445   16.1135   40.5316 C   0  0  0  0  0  0  0  0  0  0  0  0
   -2.3702   15.8953   39.5692 C   0  0  0  0  0  0  0  0  0  0  0  0
   -1.0345   15.9506   39.9575 C   0  0  0  0  0  0  0  0  0  0  0  0
    1.2028   16.5810   42.8951 C   0  0  0  0  0  0  0  0  0  0  0  0
    3.2555   16.2129   38.1857 C   0  0  0  0  0  0  0  0  0  0  0  0
    3.4349   16.4418   36.8203 C   0  0  0  0  0  0  0  0  0  0  0  0
    4.1290   16.2690   40.4781 N   0  0  0  0  0  0  0  0  0  0  0  0
    1.7379   16.2122   40.6306 N   0  0  0  0  0  0  0  0  0  0  0  0
    5.8928   17.7935   34.4840 O   0  0  0  0  0  0  0  0  0  0  0  0
    3.8545   16.9587   34.0434 O   0  0  0  0  0  0  0  0  0  0  0  0
    2.3471   16.3960   35.9811 O   0  0  0  0  0  0  0  0  0  0  0  0
    2.9117   16.7991   42.8958 S   0  0  0  0  0  0  0  0  0  0  0  0
   -5.0091   16.0734   40.0531 Cl  0  0  0  0  0  0  0  0  0  0  0  0
    6.7116   17.2234   36.7730 H   0  0  0  0  0  0  0  0  0  0  0  0
    6.3708   17.1008   39.2311 H   0  0  0  0  0  0  0  0  0  0  0  0
   -1.4219   16.6435   43.2646 H   0  0  0  0  0  0  0  0  0  0  0  0
   -3.8221   16.4950   42.6047 H   0  0  0  0  0  0  0  0  0  0  0  0
   -2.6458   15.6839   38.5255 H   0  0  0  0  0  0  0  0  0  0  0  0
   -0.2484   15.7969   39.2036 H   0  0  0  0  0  0  0  0  0  0  0  0
    0.5637   16.6631   43.7866 H   0  0  0  0  0  0  0  0  0  0  0  0
    2.2680   15.9168   38.5694 H   0  0  0  0  0  0  0  0  0  0  0  0
    4.9921   16.1664   41.0307 H   0  0  0  0  0  0  0  0  0  0  0  0
  1  2  1  0
  1 19  1  0
  1 20  2  0
  2  3  1  0
  2 16  2  0
  3  4  2  0
  4  5  1  0
  5 15  2  0
  5 17  1  0
  6 17  1  0
  6 18  2  0
  6 22  1  0
  7  8  1  0
  7 14  2  0
  7 18  1  0
  8  9  1  0
  8 13  2  0
  9 10  2  0
 10 11  1  0
 11 12  2  0
 11 23  1  0
 12 13  1  0
 14 22  1  0
 15 16  1  0
 16 21  1  0
  3 24  1  0
  4 25  1  0
  9 26  1  0
 10 27  1  0
 12 28  1  0
 13 29  1  0
 14 30  1  0
 15 31  1  0
 17 32  1  0
M  CHG  2  19  -1  21  -1
M  END
>  <mol_id>  (91) 
2026-08-24-6tgu-s0-n100-0091

>  <rmsd_to_ref>  (91) 
4.586734693881312

>  <pose_kind>  (91) 
rigid

$$$$
6tgu.A
     RDKit          3D

 32 34  0  0  0  0  0  0  0  0999 V2000
    7.6190   19.6086   39.2841 C   0  0  0  0  0  0  0  0  0  0  0  0
    6.2311   20.0151   39.4701 C   0  0  0  0  0  0  0  0  0  0  0  0
    5.5817   20.6373   38.4523 C   0  0  0  0  0  0  0  0  0  0  0  0
    4.2673   21.0032   38.5899 C   0  0  0  0  0  0  0  0  0  0  0  0
    3.6393   20.7189   39.7895 C   0  0  0  0  0  0  0  0  0  0  0  0
    1.3401   19.9894   39.9251 C   0  0  0  0  0  0  0  0  0  0  0  0
   -0.0505   18.2249   40.0736 C   0  0  0  0  0  0  0  0  0  0  0  0
   -1.0143   17.4773   40.9172 C   0  0  0  0  0  0  0  0  0  0  0  0
   -1.3307   17.8557   42.1990 C   0  0  0  0  0  0  0  0  0  0  0  0
   -2.2356   17.1357   42.9517 C   0  0  0  0  0  0  0  0  0  0  0  0
   -2.8545   16.0118   42.4485 C   0  0  0  0  0  0  0  0  0  0  0  0
   -2.5442   15.6084   41.1452 C   0  0  0  0  0  0  0  0  0  0  0  0
   -1.6383   16.3480   40.4174 C   0  0  0  0  0  0  0  0  0  0  0  0
    0.2268   17.8379   38.8016 C   0  0  0  0  0  0  0  0  0  0  0  0
    4.2574   20.0922   40.8469 C   0  0  0  0  0  0  0  0  0  0  0  0
    5.5808   19.7349   40.6781 C   0  0  0  0  0  0  0  0  0  0  0  0
    2.2421   21.1120   39.8324 N   0  0  0  0  0  0  0  0  0  0  0  0
    0.5920   19.3102   40.4639 N   0  0  0  0  0  0  0  0  0  0  0  0
    8.3766   18.9511   40.2335 O   0  0  0  0  0  0  0  0  0  0  0  0
    8.2019   19.8624   38.1810 O   0  0  0  0  0  0  0  0  0  0  0  0
    6.2946   19.0990   41.6896 O   0  0  0  0  0  0  0  0  0  0  0  0
    1.4308   19.0953   38.2161 S   0  0  0  0  0  0  0  0  0  0  0  0
   -4.0099   15.0596   43.3617 Cl  0  0  0  0  0  0  0  0  0  0  0  0
    6.0714   20.8689   37.5010 H   0  0  0  0  0  0  0  0  0  0  0  0
    3.7327   21.5011   37.7801 H   0  0  0  0  0  0  0  0  0  0  0  0
   -0.8503   18.7534   42.6196 H   0  0  0  0  0  0  0  0  0  0  0  0
   -2.4725   17.4697   43.9594 H   0  0  0  0  0  0  0  0  0  0  0  0
   -2.9977   14.7384   40.6964 H   0  0  0  0  0  0  0  0  0  0  0  0
   -1.4069   16.0308   39.4312 H   0  0  0  0  0  0  0  0  0  0  0  0
   -0.1157   16.9978   38.1608 H   0  0  0  0  0  0  0  0  0  0  0  0
    3.7274   19.8872   41.7646 H   0  0  0  0  0  0  0  0  0  0  0  0
    1.9455   22.0923   39.8035 H   0  0  0  0  0  0  0  0  0  0  0  0
  1  2  1  0
  1 19  1  0
  1 20  2  0
  2  3  1  0
  2 16  2  0
  3  4  2  0
  4  5  1  0
  5 15  2  0
  5 17  1  0
  6 17  1  0
  6 18  2  0
  6 22  1  0
  7  8  1  0
  7 14  2  0
  7 18  1  0
  8  9  1  0
  8 13  2  0
  9 10  2  0
 10 11  1  0
 11 12  2  0
 11 23  1  0
 12 13  1  0
 14 22  1  0
 15 16  1  0
 16 21  1  0
  3 24  1  0
  4 25  1  0
  9 26  1  0
 10 27  1  0
 12 28  1  0
 13 29  1  0
 14 30  1  0
 15 31  1  0
 17 32  1  0
M  CHG  2  19  -1  21  -1
M  END
>  <mol_id>  (92) 
2026-08-24-6tgu-s0-n100-0092

>  <rmsd_to_ref>  (92) 
4.632653061227428

>  <pose_kind>  (92) 
conformer

$$$$
6tgu.A
     RDKit          3D

 32 34  0  0  0  0  0  0  0  0999 V2000
   -1.3872   19.9146   42.0847 C   0  0  0  0  0  0  0  0  0  0  0  0
   -0.0373   19.3479   42.5334 C   0  0  0  0  0  0  0  0  0  0  0  0
    0.4306   19.5747   43.8259 C   0  0  0  0  0  0  0  0  0  0  0  0
    1.5592   18.9213   44.3318 C   0  0  0  0  0  0  0  0  0  0  0  0
    2.3610   18.1430   43.4845 C   0  0  0  0  0  0  0  0  0  0  0  0
    4.1025   16.2917   43.5439 C   0  0  0  0  0  0  0  0  0  0  0  0
    4.5959   14.5892   42.1180 C   0  0  0  0  0  0  0  0  0  0  0  0
    4.5149   13.8450   40.8606 C   0  0  0  0  0  0  0  0  0  0  0  0
    5.1428   12.6029   40.6903 C   0  0  0  0  0  0  0  0  0  0  0  0
    5.0248   11.8964   39.4975 C   0  0  0  0  0  0  0  0  0  0  0  0
    4.2368   12.4215   38.4907 C   0  0  0  0  0  0  0  0  0  0  0  0
    3.5936   13.6434   38.6190 C   0  0  0  0  0  0  0  0  0  0  0  0
    3.7331   14.3405   39.8159 C   0  0  0  0  0  0  0  0  0  0  0  0
    5.2923   14.1616   43.2173 C   0  0  0  0  0  0  0  0  0  0  0  0
    1.8988   17.8958   42.1839 C   0  0  0  0  0  0  0  0  0  0  0  0
    0.7238   18.5020   41.7356 C   0  0  0  0  0  0  0  0  0  0  0  0
    3.4794   17.4181   43.9990 N   0  0  0  0  0  0  0  0  0  0  0  0
    3.8263   15.7623   42.3013 N   0  0  0  0  0  0  0  0  0  0  0  0
   -2.1068   20.4395   42.9846 O   0  0  0  0  0  0  0  0  0  0  0  0
   -1.7045   19.7424   40.8875 O   0  0  0  0  0  0  0  0  0  0  0  0
    0.2252   18.1714   40.4979 O   0  0  0  0  0  0  0  0  0  0  0  0
    5.0063   15.1924   44.5677 S   0  0  0  0  0  0  0  0  0  0  0  0
    4.0474   11.5336   37.0152 Cl  0  0  0  0  0  0  0  0  0  0  0  0
   -0.1041   20.2897   44.4684 H   0  0  0  0  0  0  0  0  0  0  0  0
    1.8183   19.0182   45.3964 H   0  0  0  0  0  0  0  0  0  0  0  0
    5.7383   12.1803   41.5129 H   0  0  0  0  0  0  0  0  0  0  0  0
    5.5483   10.9390   39.3584 H   0  0  0  0  0  0  0  0  0  0  0  0
    2.9885   14.0513   37.7959 H   0  0  0  0  0  0  0  0  0  0  0  0
    3.2158   15.3032   39.9410 H   0  0  0  0  0  0  0  0  0  0  0  0
    5.9471   13.2779   43.2354 H   0  0  0  0  0  0  0  0  0  0  0  0
    2.4612   17.2251   41.5178 H   0  0  0  0  0  0  0  0  0  0  0  0
    3.8847   17.8123   44.8599 H   0  0  0  0  0  0  0  0  0  0  0  0
  1  2  1  0
  1 19  1  0
  1 20  2  0
  2  3  1  0
  2 16  2  0
  3  4  2  0
  4  5  1  0
  5 15  2  0
  5 17  1  0
  6 17  1  0
  6 18  2  0
  6 22  1  0
  7  8  1  0
  7 14  2  0
  7 18  1  0
  8  9  1  0
  8 13  2  0
  9 10  2  0
 10 11  1  0
 11 12  2  0
 11 23  1  0
 12 13  1  0
 14 22  1  0
 15 16  1  0
 16 21  1  0
  3 24  1  0
  4 25  1  0
  9 26  1  0
 10 27  1  0
 12 28  1  0
 13 29  1  0
 14 30  1  0
 15 31  1  0
 17 32  1  0
M  CHG  2  19  -1  21  -1
M  END
>  <mol_id>  (93) 
2026-08-24-6tgu-s0-n100-0093

>  <rmsd_to_ref>  (93) 
4.678571428571433

>  <pose_kind>  (93) 
rigid

$$$$
6tgu.A
     RDKit          3D

 32 34  0  0  0  0  0  0  0  0999 V2000
    0.6149   22.2793   36.1626 C   0  0  0  0  0  0  0  0  0  0  0  0
    1.0127   21.1283   36.9644 C   0  0  0  0  0  0  0  0  0  0  0  0
    2.3338   20.8509   37.1145 C   0  0  0  0  0  0  0  0  0  0  0  0
    2.7361   19.7922   37.8877 C   0  0  0  0  0  0  0  0  0  0  0  0
    1.7572   19.0288   38.4984 C   0  0  0  0  0  0  0  0  0  0  0  0
    1.9971   18.1277   40.7270 C   0  0  0  0  0  0  0  0  0  0  0  0
    1.5481   18.4184   42.9142 C   0  0  0  0  0  0  0  0  0  0  0  0
    0.7859   17.9426   44.0941 C   0  0  0  0  0  0  0  0  0  0  0  0
   -0.0845   16.8816   44.0393 C   0  0  0  0  0  0  0  0  0  0  0  0
   -0.7731   16.4662   45.1606 C   0  0  0  0  0  0  0  0  0  0  0  0
   -0.6156   17.0985   46.3750 C   0  0  0  0  0  0  0  0  0  0  0  0
    0.2650   18.1832   46.4512 C   0  0  0  0  0  0  0  0  0  0  0  0
    0.9397   18.5739   45.3157 C   0  0  0  0  0  0  0  0  0  0  0  0
    2.4174   19.4579   43.0039 C   0  0  0  0  0  0  0  0  0  0  0  0
    0.4088   19.2716   38.3736 C   0  0  0  0  0  0  0  0  0  0  0  0
    0.0343   20.3450   37.5892 C   0  0  0  0  0  0  0  0  0  0  0  0
    2.2764   17.9517   39.3223 N   0  0  0  0  0  0  0  0  0  0  0  0
    1.4663   17.8805   41.7111 N   0  0  0  0  0  0  0  0  0  0  0  0
   -0.6918   22.6753   35.9549 O   0  0  0  0  0  0  0  0  0  0  0  0
    1.5106   22.9895   35.6019 O   0  0  0  0  0  0  0  0  0  0  0  0
   -1.3051   20.6713   37.3986 O   0  0  0  0  0  0  0  0  0  0  0  0
    3.0936   19.6090   41.3030 S   0  0  0  0  0  0  0  0  0  0  0  0
   -1.4667   16.6134   47.8295 Cl  0  0  0  0  0  0  0  0  0  0  0  0
    3.1150   21.4477   36.6328 H   0  0  0  0  0  0  0  0  0  0  0  0
    3.7936   19.5595   38.0191 H   0  0  0  0  0  0  0  0  0  0  0  0
   -0.2223   16.3594   43.0792 H   0  0  0  0  0  0  0  0  0  0  0  0
   -1.4457   15.6147   45.0851 H   0  0  0  0  0  0  0  0  0  0  0  0
    0.4310   18.7164   47.3743 H   0  0  0  0  0  0  0  0  0  0  0  0
    1.6021   19.4005   45.3837 H   0  0  0  0  0  0  0  0  0  0  0  0
    2.7308   20.1297   43.8312 H   0  0  0  0  0  0  0  0  0  0  0  0
   -0.3209   18.6510   38.8709 H   0  0  0  0  0  0  0  0  0  0  0  0
    2.7833   17.1532   38.9282 H   0  0  0  0  0  0  0  0  0  0  0  0
  1  2  1  0
  1 19  1  0
  1 20  2  0
  2  3  1  0
  2 16  2  0
  3  4  2  0
  4  5  1  0
  5 15  2  0
  5 17  1  0
  6 17  1  0
  6 18  2  0
  6 22  1  0
  7  8  1  0
  7 14  2  0
  7 18  1  0
  8  9  1  0
  8 13  2  0
  9 10  2  0
 10 11  1  0
 11 12  2  0
 11 23  1  0
 12 13  1  0
 14 22  1  0
 15 16  1  0
 16 21  1  0
  3 24  1  0
  4 25  1  0
  9 26  1  0
 10 27  1  0
 12 28  1  0
 13 29  1  0
 14 30  1  0
 15 31  1  0
 17 32  1  0
M  CHG  2  19  -1  21  -1
M  END
>  <mol_id>  (94) 
2026-08-24-6tgu-s0-n100-0094

>  <rmsd_to_ref>  (94) 
4.724489795920653

>  <pose_kind>  (94) 
conformer

$$$$
6tgu.A
     RDKit          3D

 32 34  0  0  0  0  0  0  0  0999 V2000
    5.0587   15.5004   35.3731 C   0  0  0  0  0  0  0  0  0  0  0  0
    4.9609   16.2834   36.6853 C   0  0  0  0  0  0  0  0  0  0  0  0
    5.5077   17.5605   36.7893 C   0  0  0  0  0  0  0  0  0  0  0  0
    5.2761   18.3786   37.8998 C   0  0  0  0  0  0  0  0  0  0  0  0
    4.6232   17.8642   39.0294 C   0  0  0  0  0  0  0  0  0  0  0  0
    3.3522   18.6092   41.1014 C   0  0  0  0  0  0  0  0  0  0  0  0
    1.6468   17.6784   42.2849 C   0  0  0  0  0  0  0  0  0  0  0  0
    0.7203   16.6102   42.6613 C   0  0  0  0  0  0  0  0  0  0  0  0
   -0.3134   16.8146   43.5864 C   0  0  0  0  0  0  0  0  0  0  0  0
   -1.2041   15.7942   43.9048 C   0  0  0  0  0  0  0  0  0  0  0  0
   -1.0800   14.5795   43.2572 C   0  0  0  0  0  0  0  0  0  0  0  0
   -0.0764   14.3362   42.3317 C   0  0  0  0  0  0  0  0  0  0  0  0
    0.8120   15.3662   42.0351 C   0  0  0  0  0  0  0  0  0  0  0  0
    1.6049   18.9460   42.8023 C   0  0  0  0  0  0  0  0  0  0  0  0
    4.0572   16.5846   38.9373 C   0  0  0  0  0  0  0  0  0  0  0  0
    4.2405   15.8238   37.7813 C   0  0  0  0  0  0  0  0  0  0  0  0
    4.3223   18.7040   40.1455 N   0  0  0  0  0  0  0  0  0  0  0  0
    2.5784   17.4766   41.2392 N   0  0  0  0  0  0  0  0  0  0  0  0
    5.5019   16.1327   34.3696 O   0  0  0  0  0  0  0  0  0  0  0  0
    4.6198   14.3295   35.3776 O   0  0  0  0  0  0  0  0  0  0  0  0
    3.5952   14.6160   37.6606 O   0  0  0  0  0  0  0  0  0  0  0  0
    2.7176   19.9805   41.9902 S   0  0  0  0  0  0  0  0  0  0  0  0
   -2.2070   13.3127   43.6132 Cl  0  0  0  0  0  0  0  0  0  0  0  0
    6.1413   17.9372   35.9727 H   0  0  0  0  0  0  0  0  0  0  0  0
    5.6067   19.4277   37.8873 H   0  0  0  0  0  0  0  0  0  0  0  0
   -0.4219   17.7975   44.0681 H   0  0  0  0  0  0  0  0  0  0  0  0
   -1.9914   15.9511   44.6569 H   0  0  0  0  0  0  0  0  0  0  0  0
    0.0155   13.3543   41.8444 H   0  0  0  0  0  0  0  0  0  0  0  0
    1.6038   15.1959   41.2906 H   0  0  0  0  0  0  0  0  0  0  0  0
    0.9483   19.2614   43.6265 H   0  0  0  0  0  0  0  0  0  0  0  0
    3.4695   16.1808   39.7750 H   0  0  0  0  0  0  0  0  0  0  0  0
    4.9431   19.5197   40.2460 H   0  0  0  0  0  0  0  0  0  0  0  0
  1  2  1  0
  1 19  1  0
  1 20  2  0
  2  3  1  0
  2 16  2  0
  3  4  2  0
  4  5  1  0
  5 15  2  0
  5 17  1  0
  6 17  1  0
  6 18  2  0
  6 22  1  0
  7  8  1  0
  7 14  2  0
  7 18  1  0
  8  9  1  0
  8 13  2  0
  9 10  2  0
 10 11  1  0
 11 12  2  0
 11 23  1  0
 12 13  1  0
 14 22  1  0
 15 16  1  0
 16 21  1  0
  3 24  1  0
  4 25  1  0
  9 26  1  0
 10 27  1  0
 12 28  1  0
 13 29  1  0
 14 30  1  0
 15 31  1  0
 17 32  1  0
M  CHG  2  19  -1  21  -1
M  END
>  <mol_id>  (95) 
2026-08-24-6tgu-s0-n100-0095

>  <rmsd_to_ref>  (95) 
4.770408163270237

>  <pose_kind>  (95) 
rigid

$$$$
6tgu.A
     RDKit          3D

 32 34  0  0  0  0  0  0  0  0999 V2000
    7.5306   16.7032   40.1061 C   0  0  0  0  0  0  0  0  0  0  0  0
    6.4554   16.7069   41.0909 C   0  0  0  0  0  0  0  0  0  0  0  0
    6.0898   17.8812   41.6672 C   0  0  0  0  0  0  0  0  0  0  0  0
    5.0617   17.9176   42.5741 C   0  0  0  0  0  0  0  0  0  0  0  0
    4.4226   16.7280   42.8750 C   0  0  0  0  0  0  0  0  0  0  0  0
    2.0390   16.5754   43.2377 C   0  0  0  0  0  0  0  0  0  0  0  0
    0.0384   16.1111   42.3147 C   0  0  0  0  0  0  0  0  0  0  0  0
   -1.1156   15.1809   42.2671 C   0  0  0  0  0  0  0  0  0  0  0  0
   -1.1881   14.0452   43.0362 C   0  0  0  0  0  0  0  0  0  0  0  0
   -2.2810   13.2060   42.9664 C   0  0  0  0  0  0  0  0  0  0  0  0
   -3.3386   13.4730   42.1239 C   0  0  0  0  0  0  0  0  0  0  0  0
   -3.2830   14.6242   41.3304 C   0  0  0  0  0  0  0  0  0  0  0  0
   -2.1799   15.4438   41.4231 C   0  0  0  0  0  0  0  0  0  0  0  0
    0.0726   17.2376   41.5570 C   0  0  0  0  0  0  0  0  0  0  0  0
    4.7596   15.5163   42.3174 C   0  0  0  0  0  0  0  0  0  0  0  0
    5.7982   15.5114   41.4068 C   0  0  0  0  0  0  0  0  0  0  0  0
    3.3273   16.8680   43.8181 N   0  0  0  0  0  0  0  0  0  0  0  0
    1.0964   15.9430   43.0866 N   0  0  0  0  0  0  0  0  0  0  0  0
    7.9762   15.5801   39.4371 O   0  0  0  0  0  0  0  0  0  0  0  0
    8.1199   17.7950   39.8204 O   0  0  0  0  0  0  0  0  0  0  0  0
    6.2159   14.3360   40.7899 O   0  0  0  0  0  0  0  0  0  0  0  0
    1.6709   18.0202   42.0108 S   0  0  0  0  0  0  0  0  0  0  0  0
   -4.7500   12.4401   41.9945 Cl  0  0  0  0  0  0  0  0  0  0  0  0
    6.5916   18.8266   41.4375 H   0  0  0  0  0  0  0  0  0  0  0  0
    4.7559   18.8539   43.0426 H   0  0  0  0  0  0  0  0  0  0  0  0
   -0.3552   13.8149   43.7194 H   0  0  0  0  0  0  0  0  0  0  0  0
   -2.3120   12.3210   43.5981 H   0  0  0  0  0  0  0  0  0  0  0  0
   -4.0812   14.8866   40.6534 H   0  0  0  0  0  0  0  0  0  0  0  0
   -2.1460   16.3121   40.8135 H   0  0  0  0  0  0  0  0  0  0  0  0
   -0.6203   17.6863   40.8137 H   0  0  0  0  0  0  0  0  0  0  0  0
    4.2312   14.6123   42.5795 H   0  0  0  0  0  0  0  0  0  0  0  0
    3.4739   17.1431   44.7941 H   0  0  0  0  0  0  0  0  0  0  0  0
  1  2  1  0
  1 19  1  0
  1 20  2  0
  2  3  1  0
  2 16  2  0
  3  4  2  0
  4  5  1  0
  5 15  2  0
  5 17  1  0
  6 17  1  0
  6 18  2  0
  6 22  1  0
  7  8  1  0
  7 14  2  0
  7 18  1  0
  8  9  1  0
  8 13  2  0
  9 10  2  0
 10 11  1  0
 11 12  2  0
 11 23  1  0
 12 13  1  0
 14 22  1  0
 15 16  1  0
 16 21  1  0
  3 24  1  0
  4 25  1  0
  9 26  1  0
 10 27  1  0
 12 28  1  0
 13 29  1  0
 14 30  1  0
 15 31  1  0
 17 32  1  0
M  CHG  2  19  -1  21  -1
M  END
>  <mol_id>  (96) 
2026-08-24-6tgu-s0-n100-0096

>  <rmsd_to_ref>  (96) 
4.816326530619494

>  <pose_kind>  (96) 
conformer

$$$$
6tgu.A
     RDKit          3D

 32 34  0  0  0  0  0  0  0  0999 V2000
    4.7444   16.3101   37.7094 C   0  0  0  0  0  0  0  0  0  0  0  0
    3.8819   17.4656   38.2249 C   0  0  0  0  0  0  0  0  0  0  0  0
    3.5087   18.5038   37.3744 C   0  0  0  0  0  0  0  0  0  0  0  0
    2.5722   19.4718   37.7516 C   0  0  0  0  0  0  0  0  0  0  0  0
    2.1081   19.5249   39.0739 C   0  0  0  0  0  0  0  0  0  0  0  0
    0.1891   20.4345   40.4715 C   0  0  0  0  0  0  0  0  0  0  0  0
   -0.8416   19.6825   42.3551 C   0  0  0  0  0  0  0  0  0  0  0  0
   -0.9999   18.8228   43.5286 C   0  0  0  0  0  0  0  0  0  0  0  0
   -2.1354   18.8860   44.3485 C   0  0  0  0  0  0  0  0  0  0  0  0
   -2.2810   18.0357   45.4403 C   0  0  0  0  0  0  0  0  0  0  0  0
   -1.3012   17.0907   45.6801 C   0  0  0  0  0  0  0  0  0  0  0  0
   -0.1650   16.9898   44.8915 C   0  0  0  0  0  0  0  0  0  0  0  0
   -0.0325   17.8570   43.8106 C   0  0  0  0  0  0  0  0  0  0  0  0
   -1.7587   20.6222   41.9650 C   0  0  0  0  0  0  0  0  0  0  0  0
    2.4653   18.4814   39.9398 C   0  0  0  0  0  0  0  0  0  0  0  0
    3.3417   17.4853   39.5053 C   0  0  0  0  0  0  0  0  0  0  0  0
    1.1045   20.4659   39.4592 N   0  0  0  0  0  0  0  0  0  0  0  0
    0.2439   19.4846   41.4693 N   0  0  0  0  0  0  0  0  0  0  0  0
    4.9472   16.2702   36.4603 O   0  0  0  0  0  0  0  0  0  0  0  0
    5.1099   15.4576   38.5480 O   0  0  0  0  0  0  0  0  0  0  0  0
    3.6025   16.4131   40.3252 O   0  0  0  0  0  0  0  0  0  0  0  0
   -1.3325   21.3047   40.4417 S   0  0  0  0  0  0  0  0  0  0  0  0
   -1.4884   15.9983   47.0117 Cl  0  0  0  0  0  0  0  0  0  0  0  0
    3.9646   18.5641   36.3751 H   0  0  0  0  0  0  0  0  0  0  0  0
    2.1989   20.1929   37.0095 H   0  0  0  0  0  0  0  0  0  0  0  0
   -2.9242   19.6195   44.1250 H   0  0  0  0  0  0  0  0  0  0  0  0
   -3.1581   18.1142   46.0994 H   0  0  0  0  0  0  0  0  0  0  0  0
    0.6117   16.2435   45.1144 H   0  0  0  0  0  0  0  0  0  0  0  0
    0.8544   17.7793   43.1643 H   0  0  0  0  0  0  0  0  0  0  0  0
   -2.6488   20.9036   42.5469 H   0  0  0  0  0  0  0  0  0  0  0  0
    2.0556   18.4477   40.9600 H   0  0  0  0  0  0  0  0  0  0  0  0
    1.0649   21.3121   38.8733 H   0  0  0  0  0  0  0  0  0  0  0  0
  1  2  1  0
  1 19  1  0
  1 20  2  0
  2  3  1  0
  2 16  2  0
  3  4  2  0
  4  5  1  0
  5 15  2  0
  5 17  1  0
  6 17  1  0
  6 18  2  0
  6 22  1  0
  7  8  1  0
  7 14  2  0
  7 18  1  0
  8  9  1  0
  8 13  2  0
  9 10  2  0
 10 11  1  0
 11 12  2  0
 11 23  1  0
 12 13  1  0
 14 22  1  0
 15 16  1  0
 16 21  1  0
  3 24  1  0
  4 25  1  0
  9 26  1  0
 10 27  1  0
 12 28  1  0
 13 29  1  0
 14 30  1  0
 15 31  1  0
 17 32  1  0
M  CHG  2  19  -1  21  -1
M  END
>  <mol_id>  (97) 
2026-08-24-6tgu-s0-n100-0097

>  <rmsd_to_ref>  (97) 
4.862244897962415

>  <pose_kind>  (97) 
rigid

$$$$
6tgu.A
     RDKit          3D

 32 34  0  0  0  0  0  0  0  0999 V2000
    7.0407   16.8128   37.3621 C   0  0  0  0  0  0  0  0  0  0  0  0
    5.9628   17.4094   38.1420 C   0  0  0  0  0  0  0  0  0  0  0  0
    5.4408   18.5996   37.7474 C   0  0  0  0  0  0  0  0  0  0  0  0
    4.4063   19.1681   38.4455 C   0  0  0  0  0  0  0  0  0  0  0  0
    3.9240   18.4916   39.5518 C   0  0  0  0  0  0  0  0  0  0  0  0
    1.5764   18.4063   40.1158 C   0  0  0  0  0  0  0  0  0  0  0  0
   -0.3358   17.2272   39.9651 C   0  0  0  0  0  0  0  0  0  0  0  0
   -1.3584   16.4317   40.6868 C   0  0  0  0  0  0  0  0  0  0  0  0
   -1.2915   16.1824   42.0358 C   0  0  0  0  0  0  0  0  0  0  0  0
   -2.2651   15.4403   42.6725 C   0  0  0  0  0  0  0  0  0  0  0  0
   -3.3385   14.9209   41.9815 C   0  0  0  0  0  0  0  0  0  0  0  0
   -3.4239   15.1619   40.6058 C   0  0  0  0  0  0  0  0  0  0  0  0
   -2.4380   15.9076   39.9982 C   0  0  0  0  0  0  0  0  0  0  0  0
   -0.4398   17.4743   38.6338 C   0  0  0  0  0  0  0  0  0  0  0  0
    4.4223   17.2858   39.9883 C   0  0  0  0  0  0  0  0  0  0  0  0
    5.4631   16.7377   39.2646 C   0  0  0  0  0  0  0  0  0  0  0  0
    2.8089   19.1511   40.2077 N   0  0  0  0  0  0  0  0  0  0  0  0
    0.7260   17.7652   40.5365 N   0  0  0  0  0  0  0  0  0  0  0  0
    7.6364   15.6002   37.6486 O   0  0  0  0  0  0  0  0  0  0  0  0
    7.4861   17.4273   36.3399 O   0  0  0  0  0  0  0  0  0  0  0  0
    6.0374   15.5230   39.6270 O   0  0  0  0  0  0  0  0  0  0  0  0
    1.0378   18.5008   38.2641 S   0  0  0  0  0  0  0  0  0  0  0  0
   -4.6018   13.9701   42.7401 Cl  0  0  0  0  0  0  0  0  0  0  0  0
    5.8179   19.1433   36.8754 H   0  0  0  0  0  0  0  0  0  0  0  0
    3.9759   20.1221   38.1386 H   0  0  0  0  0  0  0  0  0  0  0  0
   -0.4437   16.5915   42.6080 H   0  0  0  0  0  0  0  0  0  0  0  0
   -2.1878   15.2717   43.7443 H   0  0  0  0  0  0  0  0  0  0  0  0
   -4.2415   14.7831   40.0123 H   0  0  0  0  0  0  0  0  0  0  0  0
   -2.5103   16.0807   38.9534 H   0  0  0  0  0  0  0  0  0  0  0  0
   -1.1765   17.1882   37.8531 H   0  0  0  0  0  0  0  0  0  0  0  0
    4.0129   16.7912   40.8560 H   0  0  0  0  0  0  0  0  0  0  0  0
    2.9070   20.0518   40.6862 H   0  0  0  0  0  0  0  0  0  0  0  0
  1  2  1  0
  1 19  1  0
  1 20  2  0
  2  3  1  0
  2 16  2  0
  3  4  2  0
  4  5  1  0
  5 15  2  0
  5 17  1  0
  6 17  1  0
  6 18  2  0
  6 22  1  0
  7  8  1  0
  7 14  2  0
  7 18  1  0
  8  9  1  0
  8 13  2  0
  9 10  2  0
 10 11  1  0
 11 12  2  0
 11 23  1  0
 12 13  1  0
 14 22  1  0
 15 16  1  0
 16 21  1  0
  3 24  1  0
  4 25  1  0
  9 26  1  0
 10 27  1  0
 12 28  1  0
 13 29  1  0
 14 30  1  0
 15 31  1  0
 17 32  1  0
M  CHG  2  19  -1  21  -1
M  END
>  <mol_id>  (98) 
2026-08-24-6tgu-s0-n100-0098

>  <rmsd_to_ref>  (98) 
4.908163265306609

>  <pose_kind>  (98) 
conformer

$$$$
6tgu.A
     RDKit          3D

 32 34  0  0  0  0  0  0  0  0999 V2000
   -2.7783   19.6297   42.6345 C   0  0  0  0  0  0  0  0  0  0  0  0
   -1.2806   19.7428   42.3369 C   0  0  0  0  0  0  0  0  0  0  0  0
   -0.5815   20.9043   42.6579 C   0  0  0  0  0  0  0  0  0  0  0  0
    0.8131   20.9769   42.5783 C   0  0  0  0  0  0  0  0  0  0  0  0
    1.5409   19.9266   42.0005 C   0  0  0  0  0  0  0  0  0  0  0  0
    3.8851   18.9466   41.9113 C   0  0  0  0  0  0  0  0  0  0  0  0
    4.6625   16.8204   41.6859 C   0  0  0  0  0  0  0  0  0  0  0  0
    4.5486   15.3872   41.4137 C   0  0  0  0  0  0  0  0  0  0  0  0
    5.6317   14.5116   41.5753 C   0  0  0  0  0  0  0  0  0  0  0  0
    5.4924   13.1468   41.3432 C   0  0  0  0  0  0  0  0  0  0  0  0
    4.2487   12.6576   40.9905 C   0  0  0  0  0  0  0  0  0  0  0  0
    3.1496   13.4870   40.8253 C   0  0  0  0  0  0  0  0  0  0  0  0
    3.3120   14.8510   41.0510 C   0  0  0  0  0  0  0  0  0  0  0  0
    5.8169   17.4323   42.0978 C   0  0  0  0  0  0  0  0  0  0  0  0
    0.8542   18.7464   41.6821 C   0  0  0  0  0  0  0  0  0  0  0  0
   -0.5303   18.6798   41.8485 C   0  0  0  0  0  0  0  0  0  0  0  0
    2.9691   19.9571   41.9697 N   0  0  0  0  0  0  0  0  0  0  0  0
    3.5121   17.6438   41.6575 N   0  0  0  0  0  0  0  0  0  0  0  0
   -3.2893   20.5606   43.3240 O   0  0  0  0  0  0  0  0  0  0  0  0
   -3.3570   18.5922   42.2439 O   0  0  0  0  0  0  0  0  0  0  0  0
   -1.1781   17.4866   41.6329 O   0  0  0  0  0  0  0  0  0  0  0  0
    5.5296   19.0817   42.5035 S   0  0  0  0  0  0  0  0  0  0  0  0
    4.0504   10.9551   40.7381 Cl  0  0  0  0  0  0  0  0  0  0  0  0
   -1.1436   21.7918   42.9842 H   0  0  0  0  0  0  0  0  0  0  0  0
    1.3400   21.8596   42.9698 H   0  0  0  0  0  0  0  0  0  0  0  0
    6.6073   14.9101   41.8906 H   0  0  0  0  0  0  0  0  0  0  0  0
    6.3548   12.4706   41.4385 H   0  0  0  0  0  0  0  0  0  0  0  0
    2.1743   13.0774   40.5235 H   0  0  0  0  0  0  0  0  0  0  0  0
    2.4467   15.5211   40.9412 H   0  0  0  0  0  0  0  0  0  0  0  0
    6.7968   16.9365   42.1608 H   0  0  0  0  0  0  0  0  0  0  0  0
    1.4057   17.8739   41.3016 H   0  0  0  0  0  0  0  0  0  0  0  0
    3.3769   20.9025   41.9962 H   0  0  0  0  0  0  0  0  0  0  0  0
  1  2  1  0
  1 19  1  0
  1 20  2  0
  2  3  1  0
  2 16  2  0
  3  4  2  0
  4  5  1  0
  5 15  2  0
  5 17  1  0
  6 17  1  0
  6 18  2  0
  6 22  1  0
  7  8  1  0
  7 14  2  0
  7 18  1  0
  8  9  1  0
  8 13  2  0
  9 10  2  0
 10 11  1  0
 11 12  2  0
 11 23  1  0
 12 13  1  0
 14 22  1  0
 15 16  1  0
 16 21  1  0
  3 24  1  0
  4 25  1  0
  9 26  1  0
 10 27  1  0
 12 28  1  0
 13 29  1  0
 14 30  1  0
 15 31  1  0
 17 32  1  0
M  CHG  2  19  -1  21  -1
M  END
>  <mol_id>  (99) 
2026-08-24-6tgu-s0-n100-0099

>  <rmsd_to_ref>  (99) 
4.95408163265759

>  <pose_kind>  (99) 
rigid

$$$$
6tgu.A
     RDKit          3D

 32 34  0  0  0  0  0  0  0  0999 V2000
    8.0473   17.7065   39.7580 C   0  0  0  0  0  0  0  0  0  0  0  0
    6.6730   18.1872   39.6779 C   0  0  0  0  0  0  0  0  0  0  0  0
    6.2555   18.8131   38.5473 C   0  0  0  0  0  0  0  0  0  0  0  0
    4.9600   19.2483   38.4340 C   0  0  0  0  0  0  0  0  0  0  0  0
    4.1086   19.0286   39.5020 C   0  0  0  0  0  0  0  0  0  0  0  0
    1.7872   18.4195   39.2247 C   0  0  0  0  0  0  0  0  0  0  0  0
    0.2990   16.7317   39.1453 C   0  0  0  0  0  0  0  0  0  0  0  0
   -0.8420   16.0567   39.8100 C   0  0  0  0  0  0  0  0  0  0  0  0
   -1.3666   16.4852   41.0049 C   0  0  0  0  0  0  0  0  0  0  0  0
   -2.4318   15.8324   41.5904 C   0  0  0  0  0  0  0  0  0  0  0  0
   -3.0083   14.7276   41.0017 C   0  0  0  0  0  0  0  0  0  0  0  0
   -2.4871   14.2739   39.7850 C   0  0  0  0  0  0  0  0  0  0  0  0
   -1.4245   14.9470   39.2237 C   0  0  0  0  0  0  0  0  0  0  0  0
    0.7830   16.2969   37.9533 C   0  0  0  0  0  0  0  0  0  0  0  0
    4.4877   18.4008   40.6661 C   0  0  0  0  0  0  0  0  0  0  0  0
    5.7983   17.9730   40.7503 C   0  0  0  0  0  0  0  0  0  0  0  0
    2.7506   19.4923   39.2800 N   0  0  0  0  0  0  0  0  0  0  0  0
    0.9174   17.7936   39.6283 N   0  0  0  0  0  0  0  0  0  0  0  0
    8.5813   17.0379   40.8420 O   0  0  0  0  0  0  0  0  0  0  0  0
    8.8350   17.9007   38.7768 O   0  0  0  0  0  0  0  0  0  0  0  0
    6.2794   17.3297   41.8868 O   0  0  0  0  0  0  0  0  0  0  0  0
    2.1404   17.4757   37.5776 S   0  0  0  0  0  0  0  0  0  0  0  0
   -4.3612   13.8599   41.7030 Cl  0  0  0  0  0  0  0  0  0  0  0  0
    6.9229   18.9939   37.6984 H   0  0  0  0  0  0  0  0  0  0  0  0
    4.6106   19.7502   37.5309 H   0  0  0  0  0  0  0  0  0  0  0  0
   -0.9232   17.3688   41.4908 H   0  0  0  0  0  0  0  0  0  0  0  0
   -2.8307   16.2053   42.5313 H   0  0  0  0  0  0  0  0  0  0  0  0
   -2.8975   13.4159   39.2758 H   0  0  0  0  0  0  0  0  0  0  0  0
   -1.0340   14.5918   38.3028 H   0  0  0  0  0  0  0  0  0  0  0  0
    0.5184   15.4578   37.2752 H   0  0  0  0  0  0  0  0  0  0  0  0
    3.7883   18.2476   41.4739 H   0  0  0  0  0  0  0  0  0  0  0  0
    2.5180   20.4853   39.1798 H   0  0  0  0  0  0  0  0  0  0  0  0
  1  2  1  0
  1 19  1  0
  1 20  2  0
  2  3  1  0
  2 16  2  0
  3  4  2  0
  4  5  1  0
  5 15  2  0
  5 17  1  0
  6 17  1  0
  6 18  2  0
  6 22  1  0
  7  8  1  0
  7 14  2  0
  7 18  1  0
  8  9  1  0
  8 13  2  0
  9 10  2  0
 10 11  1  0
 11 12  2  0
 11 23  1  0
 12 13  1  0
 14 22  1  0
 15 16  1  0
 16 21  1  0
  3 24  1  0
  4 25  1  0
  9 26  1  0
 10 27  1  0
 12 28  1  0
 13 29  1  0
 14 30  1  0
 15 31  1  0
 17 32  1  0
M  CHG  2  19  -1  21  -1
M  END
>  <mol_id>  (100) 
2026-08-24-6tgu-s0-n100-0100

>  <rmsd_to_ref>  (100) 
5.000000000005926

>  <pose_kind>  (100) 
conformer

$$$$
