6tgu.A
     RDKit          3D

 32 34  0  0  0  0  0  0  0  0999 V2000
    3.2704   20.0816   36.9100 C   0  0  0  0  0  0  0  0  0  0  0  0
    2.7239   19.8375   38.3194 C   0  0  0  0  0  0  0  0  0  0  0  0
    1.9745   20.8172   38.9669 C   0  0  0  0  0  0  0  0  0  0  0  0
    1.3019   20.5646   40.1670 C   0  0  0  0  0  0  0  0  0  0  0  0
    1.5079   19.3565   40.8488 C   0  0  0  0  0  0  0  0  0  0  0  0
    0.4444   17.8615   42.6087 C   0  0  0  0  0  0  0  0  0  0  0  0
    0.4288   15.6073   42.9153 C   0  0  0  0  0  0  0  0  0  0  0  0
    0.8553   14.2304   42.6635 C   0  0  0  0  0  0  0  0  0  0  0  0
    0.2328   13.1351   43.2790 C   0  0  0  0  0  0  0  0  0  0  0  0
    0.6322   11.8319   42.9995 C   0  0  0  0  0  0  0  0  0  0  0  0
    1.6306   11.6302   42.0652 C   0  0  0  0  0  0  0  0  0  0  0  0
    2.2690   12.6840   41.4288 C   0  0  0  0  0  0  0  0  0  0  0  0
    1.8629   13.9810   41.7304 C   0  0  0  0  0  0  0  0  0  0  0  0
   -0.5843   15.9508   43.7709 C   0  0  0  0  0  0  0  0  0  0  0  0
    2.2504   18.3557   40.2060 C   0  0  0  0  0  0  0  0  0  0  0  0
    2.8437   18.6148   38.9691 C   0  0  0  0  0  0  0  0  0  0  0  0
    0.7803   19.0569   42.0413 N   0  0  0  0  0  0  0  0  0  0  0  0
    0.9791   16.6716   42.1626 N   0  0  0  0  0  0  0  0  0  0  0  0
    2.8674   21.1275   36.3211 O   0  0  0  0  0  0  0  0  0  0  0  0
    4.0035   19.1925   36.4244 O   0  0  0  0  0  0  0  0  0  0  0  0
    3.4800   17.5959   38.3007 O   0  0  0  0  0  0  0  0  0  0  0  0
   -0.9334   17.6347   43.6687 S   0  0  0  0  0  0  0  0  0  0  0  0
    2.1103   10.0114   41.6767 Cl  0  0  0  0  0  0  0  0  0  0  0  0
    1.9097   21.8205   38.5206 H   0  0  0  0  0  0  0  0  0  0  0  0
    0.6099   21.3151   40.5769 H   0  0  0  0  0  0  0  0  0  0  0  0
   -0.5845   13.3089   43.9944 H   0  0  0  0  0  0  0  0  0  0  0  0
    0.1628   10.9792   43.5119 H   0  0  0  0  0  0  0  0  0  0  0  0
    3.0758   12.4998   40.7041 H   0  0  0  0  0  0  0  0  0  0  0  0
    2.3468   14.8280   41.2221 H   0  0  0  0  0  0  0  0  0  0  0  0
   -1.1055   15.2454   44.4348 H   0  0  0  0  0  0  0  0  0  0  0  0
    2.3653   17.3677   40.6757 H   0  0  0  0  0  0  0  0  0  0  0  0
    0.4535   19.8836   42.5615 H   0  0  0  0  0  0  0  0  0  0  0  0
  1  2  1  0
  1 19  1  0
  1 20  2  0
  2  3  1  0
  2 16  2  0
  3  4  2  0
  4  5  1  0
  5 15  2  0
  5 17  1  0
  6 17  1  0
  6 18  2  0
  6 22  1  0
  7  8  1  0
  7 14  2  0
  7 18  1  0
  8  9  1  0
  8 13  2  0
  9 10  2  0
 10 11  1  0
 11 12  2  0
 11 23  1  0
 12 13  1  0
 14 22  1  0
 15 16  1  0
 16 21  1  0
  3 24  1  0
  4 25  1  0
  9 26  1  0
 10 27  1  0
 12 28  1  0
 13 29  1  0
 14 30  1  0
 15 31  1  0
 17 32  1  0
M  CHG  2  19  -1  21  -1
M  END
>  <mol_id>  (1) 
2026-08-24-6tgu-s0-n100-0001

>  <rmsd_to_ref>  (1) 
0.0

>  <pose_kind>  (1) 
native

$$$$
6tgu.A
     RDKit          3D

 32 34  0  0  0  0  0  0  0  0999 V2000
    2.8015   20.4548   37.2769 C   0  0  0  0  0  0  0  0  0  0  0  0
    2.1592   20.1498   38.6331 C   0  0  0  0  0  0  0  0  0  0  0  0
    1.2477   21.0379   39.1997 C   0  0  0  0  0  0  0  0  0  0  0  0
    0.5008   20.7102   40.3360 C   0  0  0  0  0  0  0  0  0  0  0  0
    0.7787   19.5331   41.0459 C   0  0  0  0  0  0  0  0  0  0  0  0
   -0.2657   17.9264   42.7166 C   0  0  0  0  0  0  0  0  0  0  0  0
   -0.0543   15.6849   43.0431 C   0  0  0  0  0  0  0  0  0  0  0  0
    0.5463   14.3654   42.8451 C   0  0  0  0  0  0  0  0  0  0  0  0
   -0.0021   13.2063   43.4124 C   0  0  0  0  0  0  0  0  0  0  0  0
    0.5660   11.9569   43.1835 C   0  0  0  0  0  0  0  0  0  0  0  0
    1.6622   11.8702   42.3462 C   0  0  0  0  0  0  0  0  0  0  0  0
    2.2330   12.9898   41.7600 C   0  0  0  0  0  0  0  0  0  0  0  0
    1.6569   14.2323   42.0102 C   0  0  0  0  0  0  0  0  0  0  0  0
   -1.1739   15.9109   43.7994 C   0  0  0  0  0  0  0  0  0  0  0  0
    1.6854   18.6232   40.4835 C   0  0  0  0  0  0  0  0  0  0  0  0
    2.3565   18.9484   39.3033 C   0  0  0  0  0  0  0  0  0  0  0  0
   -0.0165   19.1524   42.1701 N   0  0  0  0  0  0  0  0  0  0  0  0
    0.4388   16.8051   42.3331 N   0  0  0  0  0  0  0  0  0  0  0  0
    2.3385   21.4485   36.6433 O   0  0  0  0  0  0  0  0  0  0  0  0
    3.6718   19.6549   36.8691 O   0  0  0  0  0  0  0  0  0  0  0  0
    3.1624   18.0085   38.7059 O   0  0  0  0  0  0  0  0  0  0  0  0
   -1.7003   17.5443   43.6488 S   0  0  0  0  0  0  0  0  0  0  0  0
    2.3555   10.3165   42.0192 Cl  0  0  0  0  0  0  0  0  0  0  0  0
    1.1111   22.0275   38.7392 H   0  0  0  0  0  0  0  0  0  0  0  0
   -0.3061   21.3772   40.6735 H   0  0  0  0  0  0  0  0  0  0  0  0
   -0.8960   13.2859   44.0485 H   0  0  0  0  0  0  0  0  0  0  0  0
    0.1510   11.0563   43.6596 H   0  0  0  0  0  0  0  0  0  0  0  0
    3.1184   12.8987   41.1136 H   0  0  0  0  0  0  0  0  0  0  0  0
    2.0865   15.1290   41.5396 H   0  0  0  0  0  0  0  0  0  0  0  0
   -1.6706   15.1506   44.4201 H   0  0  0  0  0  0  0  0  0  0  0  0
    1.8677   17.6545   40.9716 H   0  0  0  0  0  0  0  0  0  0  0  0
   -0.4809   19.9365   42.6500 H   0  0  0  0  0  0  0  0  0  0  0  0
  1  2  1  0
  1 19  1  0
  1 20  2  0
  2  3  1  0
  2 16  2  0
  3  4  2  0
  4  5  1  0
  5 15  2  0
  5 17  1  0
  6 17  1  0
  6 18  2  0
  6 22  1  0
  7  8  1  0
  7 14  2  0
  7 18  1  0
  8  9  1  0
  8 13  2  0
  9 10  2  0
 10 11  1  0
 11 12  2  0
 11 23  1  0
 12 13  1  0
 14 22  1  0
 15 16  1  0
 16 21  1  0
  3 24  1  0
  4 25  1  0
  9 26  1  0
 10 27  1  0
 12 28  1  0
 13 29  1  0
 14 30  1  0
 15 31  1  0
 17 32  1  0
M  CHG  2  19  -1  21  -1
M  END
>  <mol_id>  (2) 
2026-08-24-6tgu-s0-n100-0002

>  <rmsd_to_ref>  (2) 
0.500000000006276

>  <pose_kind>  (2) 
rigid

$$$$
6tgu.A
     RDKit          3D

 32 34  0  0  0  0  0  0  0  0999 V2000
    3.0695   20.1378   37.1227 C   0  0  0  0  0  0  0  0  0  0  0  0
    2.6768   19.7452   38.5497 C   0  0  0  0  0  0  0  0  0  0  0  0
    1.9815   20.6374   39.3628 C   0  0  0  0  0  0  0  0  0  0  0  0
    1.4419   20.2527   40.5946 C   0  0  0  0  0  0  0  0  0  0  0  0
    1.7392   18.9913   41.1305 C   0  0  0  0  0  0  0  0  0  0  0  0
    0.8913   17.3062   42.8348 C   0  0  0  0  0  0  0  0  0  0  0  0
    0.9478   15.0335   42.9194 C   0  0  0  0  0  0  0  0  0  0  0  0
    1.3703   13.6993   42.4921 C   0  0  0  0  0  0  0  0  0  0  0  0
    0.8349   12.5334   43.0577 C   0  0  0  0  0  0  0  0  0  0  0  0
    1.2263   11.2743   42.6129 C   0  0  0  0  0  0  0  0  0  0  0  0
    2.1255   11.1906   41.5666 C   0  0  0  0  0  0  0  0  0  0  0  0
    2.6754   12.3177   40.9747 C   0  0  0  0  0  0  0  0  0  0  0  0
    2.2798   13.5682   41.4415 C   0  0  0  0  0  0  0  0  0  0  0  0
    0.0232   15.2654   43.9031 C   0  0  0  0  0  0  0  0  0  0  0  0
    2.4286   18.0774   40.3207 C   0  0  0  0  0  0  0  0  0  0  0  0
    2.8854   18.4699   39.0612 C   0  0  0  0  0  0  0  0  0  0  0  0
    1.1450   18.5591   42.3557 N   0  0  0  0  0  0  0  0  0  0  0  0
    1.3979   16.1796   42.2224 N   0  0  0  0  0  0  0  0  0  0  0  0
    2.5888   21.2235   36.6829 O   0  0  0  0  0  0  0  0  0  0  0  0
    3.7639   19.3198   36.4804 O   0  0  0  0  0  0  0  0  0  0  0  0
    3.4668   17.5375   38.2351 O   0  0  0  0  0  0  0  0  0  0  0  0
   -0.3646   16.9410   44.0021 S   0  0  0  0  0  0  0  0  0  0  0  0
    2.5911    9.6303   40.9749 Cl  0  0  0  0  0  0  0  0  0  0  0  0
    1.8527   21.6764   39.0256 H   0  0  0  0  0  0  0  0  0  0  0  0
    0.7830   20.9412   41.1441 H   0  0  0  0  0  0  0  0  0  0  0  0
    0.0934   12.6152   43.8661 H   0  0  0  0  0  0  0  0  0  0  0  0
    0.8279   10.3639   43.0845 H   0  0  0  0  0  0  0  0  0  0  0  0
    3.4057   12.2260   40.1572 H   0  0  0  0  0  0  0  0  0  0  0  0
    2.6931   14.4730   40.9718 H   0  0  0  0  0  0  0  0  0  0  0  0
   -0.4135   14.4857   44.5444 H   0  0  0  0  0  0  0  0  0  0  0  0
    2.6093   17.0527   40.6774 H   0  0  0  0  0  0  0  0  0  0  0  0
    0.8593   19.3230   42.9849 H   0  0  0  0  0  0  0  0  0  0  0  0
  1  2  1  0
  1 19  1  0
  1 20  2  0
  2  3  1  0
  2 16  2  0
  3  4  2  0
  4  5  1  0
  5 15  2  0
  5 17  1  0
  6 17  1  0
  6 18  2  0
  6 22  1  0
  7  8  1  0
  7 14  2  0
  7 18  1  0
  8  9  1  0
  8 13  2  0
  9 10  2  0
 10 11  1  0
 11 12  2  0
 11 23  1  0
 12 13  1  0
 14 22  1  0
 15 16  1  0
 16 21  1  0
  3 24  1  0
  4 25  1  0
  9 26  1  0
 10 27  1  0
 12 28  1  0
 13 29  1  0
 14 30  1  0
 15 31  1  0
 17 32  1  0
M  CHG  2  19  -1  21  -1
M  END
>  <mol_id>  (3) 
2026-08-24-6tgu-s0-n100-0003

>  <rmsd_to_ref>  (3) 
0.5459183673493461

>  <pose_kind>  (3) 
rigid

$$$$
6tgu.A
     RDKit          3D

 32 34  0  0  0  0  0  0  0  0999 V2000
    3.4136   19.3893   36.5187 C   0  0  0  0  0  0  0  0  0  0  0  0
    2.8417   19.3558   37.9387 C   0  0  0  0  0  0  0  0  0  0  0  0
    2.1540   20.4540   38.4502 C   0  0  0  0  0  0  0  0  0  0  0  0
    1.4571   20.3946   39.6616 C   0  0  0  0  0  0  0  0  0  0  0  0
    1.5776   19.2685   40.4886 C   0  0  0  0  0  0  0  0  0  0  0  0
    0.4043   18.0727   42.4009 C   0  0  0  0  0  0  0  0  0  0  0  0
    0.2372   15.8789   42.9797 C   0  0  0  0  0  0  0  0  0  0  0  0
    0.5734   14.4568   42.9042 C   0  0  0  0  0  0  0  0  0  0  0  0
   -0.1248   13.4879   43.6389 C   0  0  0  0  0  0  0  0  0  0  0  0
    0.1895   12.1371   43.5265 C   0  0  0  0  0  0  0  0  0  0  0  0
    1.1793   11.7581   42.6394 C   0  0  0  0  0  0  0  0  0  0  0  0
    1.8908   12.6823   41.8893 C   0  0  0  0  0  0  0  0  0  0  0  0
    1.5692   14.0301   42.0242 C   0  0  0  0  0  0  0  0  0  0  0  0
   -0.7574   16.3897   43.7712 C   0  0  0  0  0  0  0  0  0  0  0  0
    2.2570   18.1504   39.9842 C   0  0  0  0  0  0  0  0  0  0  0  0
    2.8754   18.2169   38.7343 C   0  0  0  0  0  0  0  0  0  0  0  0
    0.8228   19.1652   41.6973 N   0  0  0  0  0  0  0  0  0  0  0  0
    0.8623   16.8049   42.1115 N   0  0  0  0  0  0  0  0  0  0  0  0
    3.0852   20.3790   35.8005 O   0  0  0  0  0  0  0  0  0  0  0  0
    4.0899   18.4017   36.1565 O   0  0  0  0  0  0  0  0  0  0  0  0
    3.4478   17.0846   38.2051 O   0  0  0  0  0  0  0  0  0  0  0  0
   -0.9934   18.0674   43.4591 S   0  0  0  0  0  0  0  0  0  0  0  0
    1.5536   10.0762   42.4586 Cl  0  0  0  0  0  0  0  0  0  0  0  0
    2.1591   21.3971   37.8840 H   0  0  0  0  0  0  0  0  0  0  0  0
    0.8134   21.2330   39.9661 H   0  0  0  0  0  0  0  0  0  0  0  0
   -0.9342   13.8007   44.3150 H   0  0  0  0  0  0  0  0  0  0  0  0
   -0.3392   11.3859   44.1317 H   0  0  0  0  0  0  0  0  0  0  0  0
    2.6890   12.3587   41.2051 H   0  0  0  0  0  0  0  0  0  0  0  0
    2.1120   14.7752   41.4241 H   0  0  0  0  0  0  0  0  0  0  0  0
   -1.3291   15.8063   44.5079 H   0  0  0  0  0  0  0  0  0  0  0  0
    2.3026   17.2221   40.5726 H   0  0  0  0  0  0  0  0  0  0  0  0
    0.5476   20.0689   42.1078 H   0  0  0  0  0  0  0  0  0  0  0  0
  1  2  1  0
  1 19  1  0
  1 20  2  0
  2  3  1  0
  2 16  2  0
  3  4  2  0
  4  5  1  0
  5 15  2  0
  5 17  1  0
  6 17  1  0
  6 18  2  0
  6 22  1  0
  7  8  1  0
  7 14  2  0
  7 18  1  0
  8  9  1  0
  8 13  2  0
  9 10  2  0
 10 11  1  0
 11 12  2  0
 11 23  1  0
 12 13  1  0
 14 22  1  0
 15 16  1  0
 16 21  1  0
  3 24  1  0
  4 25  1  0
  9 26  1  0
 10 27  1  0
 12 28  1  0
 13 29  1  0
 14 30  1  0
 15 31  1  0
 17 32  1  0
M  CHG  2  19  -1  21  -1
M  END
>  <mol_id>  (4) 
2026-08-24-6tgu-s0-n100-0004

>  <rmsd_to_ref>  (4) 
0.5918367346942088

>  <pose_kind>  (4) 
rigid

$$$$
6tgu.A
     RDKit          3D

 32 34  0  0  0  0  0  0  0  0999 V2000
    2.9053   20.1418   37.1552 C   0  0  0  0  0  0  0  0  0  0  0  0
    2.5741   19.7363   38.5941 C   0  0  0  0  0  0  0  0  0  0  0  0
    1.9128   20.6204   39.4437 C   0  0  0  0  0  0  0  0  0  0  0  0
    1.4264   20.2244   40.6939 C   0  0  0  0  0  0  0  0  0  0  0  0
    1.7475   18.9589   41.2057 C   0  0  0  0  0  0  0  0  0  0  0  0
    0.9746   17.2579   42.9298 C   0  0  0  0  0  0  0  0  0  0  0  0
    1.0373   14.9847   42.9924 C   0  0  0  0  0  0  0  0  0  0  0  0
    1.4428   13.6548   42.5359 C   0  0  0  0  0  0  0  0  0  0  0  0
    0.9331   12.4832   43.1136 C   0  0  0  0  0  0  0  0  0  0  0  0
    1.3067   11.2288   42.6418 C   0  0  0  0  0  0  0  0  0  0  0  0
    2.1609   11.1553   41.5577 C   0  0  0  0  0  0  0  0  0  0  0  0
    2.6839   12.2883   40.9527 C   0  0  0  0  0  0  0  0  0  0  0  0
    2.3070   13.5342   41.4466 C   0  0  0  0  0  0  0  0  0  0  0  0
    0.1550   15.2067   44.0164 C   0  0  0  0  0  0  0  0  0  0  0  0
    2.4031   18.0531   40.3596 C   0  0  0  0  0  0  0  0  0  0  0  0
    2.8056   18.4570   39.0853 C   0  0  0  0  0  0  0  0  0  0  0  0
    1.2064   18.5153   42.4513 N   0  0  0  0  0  0  0  0  0  0  0  0
    1.4560   16.1374   42.2868 N   0  0  0  0  0  0  0  0  0  0  0  0
    2.4053   21.2304   36.7456 O   0  0  0  0  0  0  0  0  0  0  0  0
    3.5728   19.3304   36.4770 O   0  0  0  0  0  0  0  0  0  0  0  0
    3.3525   17.5327   38.2272 O   0  0  0  0  0  0  0  0  0  0  0  0
   -0.2302   16.8808   44.1462 S   0  0  0  0  0  0  0  0  0  0  0  0
    2.6027    9.6009   40.9333 Cl  0  0  0  0  0  0  0  0  0  0  0  0
    1.7687   21.6623   39.1213 H   0  0  0  0  0  0  0  0  0  0  0  0
    0.7907   20.9071   41.2768 H   0  0  0  0  0  0  0  0  0  0  0  0
    0.2265   12.5572   43.9534 H   0  0  0  0  0  0  0  0  0  0  0  0
    0.9298   10.3137   43.1220 H   0  0  0  0  0  0  0  0  0  0  0  0
    3.3789   12.2047   40.1042 H   0  0  0  0  0  0  0  0  0  0  0  0
    2.6990   14.4436   40.9677 H   0  0  0  0  0  0  0  0  0  0  0  0
   -0.2532   14.4208   44.6688 H   0  0  0  0  0  0  0  0  0  0  0  0
    2.5999   17.0256   40.6994 H   0  0  0  0  0  0  0  0  0  0  0  0
    0.9467   19.2734   43.0986 H   0  0  0  0  0  0  0  0  0  0  0  0
  1  2  1  0
  1 19  1  0
  1 20  2  0
  2  3  1  0
  2 16  2  0
  3  4  2  0
  4  5  1  0
  5 15  2  0
  5 17  1  0
  6 17  1  0
  6 18  2  0
  6 22  1  0
  7  8  1  0
  7 14  2  0
  7 18  1  0
  8  9  1  0
  8 13  2  0
  9 10  2  0
 10 11  1  0
 11 12  2  0
 11 23  1  0
 12 13  1  0
 14 22  1  0
 15 16  1  0
 16 21  1  0
  3 24  1  0
  4 25  1  0
  9 26  1  0
 10 27  1  0
 12 28  1  0
 13 29  1  0
 14 30  1  0
 15 31  1  0
 17 32  1  0
M  CHG  2  19  -1  21  -1
M  END
>  <mol_id>  (5) 
2026-08-24-6tgu-s0-n100-0005

>  <rmsd_to_ref>  (5) 
0.6377551020449385

>  <pose_kind>  (5) 
rigid

$$$$
6tgu.A
     RDKit          3D

 32 34  0  0  0  0  0  0  0  0999 V2000
    3.1421   20.5473   36.6571 C   0  0  0  0  0  0  0  0  0  0  0  0
    2.6457   20.2120   38.0662 C   0  0  0  0  0  0  0  0  0  0  0  0
    1.8960   21.1361   38.7905 C   0  0  0  0  0  0  0  0  0  0  0  0
    1.2671   20.8012   39.9942 C   0  0  0  0  0  0  0  0  0  0  0  0
    1.5205   19.5619   40.5999 C   0  0  0  0  0  0  0  0  0  0  0  0
    0.5454   17.9463   42.3034 C   0  0  0  0  0  0  0  0  0  0  0  0
    0.5881   15.6788   42.4822 C   0  0  0  0  0  0  0  0  0  0  0  0
    1.0362   14.3285   42.1399 C   0  0  0  0  0  0  0  0  0  0  0  0
    0.4572   13.1862   42.7110 C   0  0  0  0  0  0  0  0  0  0  0  0
    0.8756   11.9103   42.3462 C   0  0  0  0  0  0  0  0  0  0  0  0
    1.8482   11.7846   41.3722 C   0  0  0  0  0  0  0  0  0  0  0  0
    2.4434   12.8869   40.7775 C   0  0  0  0  0  0  0  0  0  0  0  0
    2.0191   14.1553   41.1642 C   0  0  0  0  0  0  0  0  0  0  0  0
   -0.4047   15.9501   43.3861 C   0  0  0  0  0  0  0  0  0  0  0  0
    2.2638   18.6163   39.8792 C   0  0  0  0  0  0  0  0  0  0  0  0
    2.8122   18.9579   38.6417 C   0  0  0  0  0  0  0  0  0  0  0  0
    0.8374   19.1791   41.7949 N   0  0  0  0  0  0  0  0  0  0  0  0
    1.0914   16.7960   41.7747 N   0  0  0  0  0  0  0  0  0  0  0  0
    2.6984   21.6148   36.1408 O   0  0  0  0  0  0  0  0  0  0  0  0
    3.8787   19.7042   36.1000 O   0  0  0  0  0  0  0  0  0  0  0  0
    3.4491   17.9932   37.8977 O   0  0  0  0  0  0  0  0  0  0  0  0
   -0.7931   17.6284   43.3900 S   0  0  0  0  0  0  0  0  0  0  0  0
    2.3504   10.2018   40.8782 Cl  0  0  0  0  0  0  0  0  0  0  0  0
    1.7955   22.1611   38.4039 H   0  0  0  0  0  0  0  0  0  0  0  0
    0.5723   21.5112   40.4666 H   0  0  0  0  0  0  0  0  0  0  0  0
   -0.3408   13.3005   43.4594 H   0  0  0  0  0  0  0  0  0  0  0  0
    0.4411   11.0196   42.8233 H   0  0  0  0  0  0  0  0  0  0  0  0
    3.2308   12.7625   40.0195 H   0  0  0  0  0  0  0  0  0  0  0  0
    2.4683   15.0404   40.6904 H   0  0  0  0  0  0  0  0  0  0  0  0
   -0.8894   15.1967   44.0244 H   0  0  0  0  0  0  0  0  0  0  0  0
    2.4148   17.6064   40.2886 H   0  0  0  0  0  0  0  0  0  0  0  0
    0.5094   19.9676   42.3707 H   0  0  0  0  0  0  0  0  0  0  0  0
  1  2  1  0
  1 19  1  0
  1 20  2  0
  2  3  1  0
  2 16  2  0
  3  4  2  0
  4  5  1  0
  5 15  2  0
  5 17  1  0
  6 17  1  0
  6 18  2  0
  6 22  1  0
  7  8  1  0
  7 14  2  0
  7 18  1  0
  8  9  1  0
  8 13  2  0
  9 10  2  0
 10 11  1  0
 11 12  2  0
 11 23  1  0
 12 13  1  0
 14 22  1  0
 15 16  1  0
 16 21  1  0
  3 24  1  0
  4 25  1  0
  9 26  1  0
 10 27  1  0
 12 28  1  0
 13 29  1  0
 14 30  1  0
 15 31  1  0
 17 32  1  0
M  CHG  2  19  -1  21  -1
M  END
>  <mol_id>  (6) 
2026-08-24-6tgu-s0-n100-0006

>  <rmsd_to_ref>  (6) 
0.6836734693923113

>  <pose_kind>  (6) 
rigid

$$$$
6tgu.A
     RDKit          3D

 32 34  0  0  0  0  0  0  0  0999 V2000
    3.5252   19.5889   36.8269 C   0  0  0  0  0  0  0  0  0  0  0  0
    3.0105   19.5235   38.2676 C   0  0  0  0  0  0  0  0  0  0  0  0
    2.3573   20.6152   38.8355 C   0  0  0  0  0  0  0  0  0  0  0  0
    1.7091   20.5310   40.0720 C   0  0  0  0  0  0  0  0  0  0  0  0
    1.8490   19.3817   40.8635 C   0  0  0  0  0  0  0  0  0  0  0  0
    0.7389   18.1480   42.7895 C   0  0  0  0  0  0  0  0  0  0  0  0
    0.5684   15.9414   43.3163 C   0  0  0  0  0  0  0  0  0  0  0  0
    0.8840   14.5183   43.1897 C   0  0  0  0  0  0  0  0  0  0  0  0
    0.2041   13.5378   43.9262 C   0  0  0  0  0  0  0  0  0  0  0  0
    0.4970   12.1871   43.7656 C   0  0  0  0  0  0  0  0  0  0  0  0
    1.4457   11.8210   42.8293 C   0  0  0  0  0  0  0  0  0  0  0  0
    2.1377   12.7571   42.0757 C   0  0  0  0  0  0  0  0  0  0  0  0
    1.8383   14.1043   42.2592 C   0  0  0  0  0  0  0  0  0  0  0  0
   -0.3871   16.4419   44.1607 C   0  0  0  0  0  0  0  0  0  0  0  0
    2.4938   18.2701   40.3026 C   0  0  0  0  0  0  0  0  0  0  0  0
    3.0621   18.3633   39.0308 C   0  0  0  0  0  0  0  0  0  0  0  0
    1.1422   19.2544   42.0986 N   0  0  0  0  0  0  0  0  0  0  0  0
    1.1694   16.8835   42.4484 N   0  0  0  0  0  0  0  0  0  0  0  0
    3.1803   20.6011   36.1492 O   0  0  0  0  0  0  0  0  0  0  0  0
    4.1742   18.6039   36.4117 O   0  0  0  0  0  0  0  0  0  0  0  0
    3.5989   17.2393   38.4491 O   0  0  0  0  0  0  0  0  0  0  0  0
   -0.6150   18.1298   43.9030 S   0  0  0  0  0  0  0  0  0  0  0  0
    1.7918   10.1406   42.5891 Cl  0  0  0  0  0  0  0  0  0  0  0  0
    2.3512   21.5730   38.2946 H   0  0  0  0  0  0  0  0  0  0  0  0
    1.0884   21.3679   40.4245 H   0  0  0  0  0  0  0  0  0  0  0  0
   -0.5736   13.8413   44.6426 H   0  0  0  0  0  0  0  0  0  0  0  0
   -0.0161   11.4259   44.3716 H   0  0  0  0  0  0  0  0  0  0  0  0
    2.9037   12.4431   41.3514 H   0  0  0  0  0  0  0  0  0  0  0  0
    2.3656   14.8592   41.6574 H   0  0  0  0  0  0  0  0  0  0  0  0
   -0.9359   15.8452   44.9043 H   0  0  0  0  0  0  0  0  0  0  0  0
    2.5517   17.3258   40.8639 H   0  0  0  0  0  0  0  0  0  0  0  0
    0.8949   20.1497   42.5437 H   0  0  0  0  0  0  0  0  0  0  0  0
  1  2  1  0
  1 19  1  0
  1 20  2  0
  2  3  1  0
  2 16  2  0
  3  4  2  0
  4  5  1  0
  5 15  2  0
  5 17  1  0
  6 17  1  0
  6 18  2  0
  6 22  1  0
  7  8  1  0
  7 14  2  0
  7 18  1  0
  8  9  1  0
  8 13  2  0
  9 10  2  0
 10 11  1  0
 11 12  2  0
 11 23  1  0
 12 13  1  0
 14 22  1  0
 15 16  1  0
 16 21  1  0
  3 24  1  0
  4 25  1  0
  9 26  1  0
 10 27  1  0
 12 28  1  0
 13 29  1  0
 14 30  1  0
 15 31  1  0
 17 32  1  0
M  CHG  2  19  -1  21  -1
M  END
>  <mol_id>  (7) 
2026-08-24-6tgu-s0-n100-0007

>  <rmsd_to_ref>  (7) 
0.7295918367436727

>  <pose_kind>  (7) 
rigid

$$$$
6tgu.A
     RDKit          3D

 32 34  0  0  0  0  0  0  0  0999 V2000
    3.6062   20.0631   36.9680 C   0  0  0  0  0  0  0  0  0  0  0  0
    2.9485   19.7412   38.3127 C   0  0  0  0  0  0  0  0  0  0  0  0
    2.0703   20.6459   38.9050 C   0  0  0  0  0  0  0  0  0  0  0  0
    1.3078   20.3123   40.0293 C   0  0  0  0  0  0  0  0  0  0  0  0
    1.5378   19.1038   40.7026 C   0  0  0  0  0  0  0  0  0  0  0  0
    0.4268   17.4877   42.3204 C   0  0  0  0  0  0  0  0  0  0  0  0
    0.5502   15.2307   42.5775 C   0  0  0  0  0  0  0  0  0  0  0  0
    1.1000   13.8956   42.3395 C   0  0  0  0  0  0  0  0  0  0  0  0
    0.5053   12.7416   42.8693 C   0  0  0  0  0  0  0  0  0  0  0  0
    1.0253   11.4789   42.6027 C   0  0  0  0  0  0  0  0  0  0  0  0
    2.1199   11.3757   41.7651 C   0  0  0  0  0  0  0  0  0  0  0  0
    2.7355   12.4901   41.2152 C   0  0  0  0  0  0  0  0  0  0  0  0
    2.2071   13.7456   41.5030 C   0  0  0  0  0  0  0  0  0  0  0  0
   -0.5620   15.4763   43.3382 C   0  0  0  0  0  0  0  0  0  0  0  0
    2.4103   18.1774   40.1139 C   0  0  0  0  0  0  0  0  0  0  0  0
    3.0970   18.5128   38.9455 C   0  0  0  0  0  0  0  0  0  0  0  0
    0.7249   18.7195   41.8129 N   0  0  0  0  0  0  0  0  0  0  0  0
    1.0885   16.3523   41.9035 N   0  0  0  0  0  0  0  0  0  0  0  0
    3.1840   21.0931   36.3647 O   0  0  0  0  0  0  0  0  0  0  0  0
    4.4461   19.2430   36.5371 O   0  0  0  0  0  0  0  0  0  0  0  0
    3.8679   17.5613   38.3207 O   0  0  0  0  0  0  0  0  0  0  0  0
   -1.0244   17.1328   43.2377 S   0  0  0  0  0  0  0  0  0  0  0  0
    2.7536    9.8072   41.3912 Cl  0  0  0  0  0  0  0  0  0  0  0  0
    1.9734   21.6539   38.4754 H   0  0  0  0  0  0  0  0  0  0  0  0
    0.5262   20.9992   40.3859 H   0  0  0  0  0  0  0  0  0  0  0  0
   -0.3867   12.8361   43.5060 H   0  0  0  0  0  0  0  0  0  0  0  0
    0.5744   10.5807   43.0497 H   0  0  0  0  0  0  0  0  0  0  0  0
    3.6187   12.3848   40.5680 H   0  0  0  0  0  0  0  0  0  0  0  0
    2.6726   14.6390   41.0613 H   0  0  0  0  0  0  0  0  0  0  0  0
   -1.0899   14.7170   43.9340 H   0  0  0  0  0  0  0  0  0  0  0  0
    2.5534   17.1876   40.5719 H   0  0  0  0  0  0  0  0  0  0  0  0
    0.2897   19.5057   42.3162 H   0  0  0  0  0  0  0  0  0  0  0  0
  1  2  1  0
  1 19  1  0
  1 20  2  0
  2  3  1  0
  2 16  2  0
  3  4  2  0
  4  5  1  0
  5 15  2  0
  5 17  1  0
  6 17  1  0
  6 18  2  0
  6 22  1  0
  7  8  1  0
  7 14  2  0
  7 18  1  0
  8  9  1  0
  8 13  2  0
  9 10  2  0
 10 11  1  0
 11 12  2  0
 11 23  1  0
 12 13  1  0
 14 22  1  0
 15 16  1  0
 16 21  1  0
  3 24  1  0
  4 25  1  0
  9 26  1  0
 10 27  1  0
 12 28  1  0
 13 29  1  0
 14 30  1  0
 15 31  1  0
 17 32  1  0
M  CHG  2  19  -1  21  -1
M  END
>  <mol_id>  (8) 
2026-08-24-6tgu-s0-n100-0008

>  <rmsd_to_ref>  (8) 
0.7755102040899304

>  <pose_kind>  (8) 
rigid

$$$$
6tgu.A
     RDKit          3D

 32 34  0  0  0  0  0  0  0  0999 V2000
    3.3330   20.7826   37.2552 C   0  0  0  0  0  0  0  0  0  0  0  0
    2.6087   20.4489   38.5623 C   0  0  0  0  0  0  0  0  0  0  0  0
    1.6726   21.3310   39.0973 C   0  0  0  0  0  0  0  0  0  0  0  0
    0.8567   20.9813   40.1783 C   0  0  0  0  0  0  0  0  0  0  0  0
    1.0819   19.7834   40.8718 C   0  0  0  0  0  0  0  0  0  0  0  0
   -0.0736   18.1443   42.4344 C   0  0  0  0  0  0  0  0  0  0  0  0
    0.0990   15.8931   42.7134 C   0  0  0  0  0  0  0  0  0  0  0  0
    0.6993   14.5732   42.5163 C   0  0  0  0  0  0  0  0  0  0  0  0
    0.1083   13.4053   43.0191 C   0  0  0  0  0  0  0  0  0  0  0  0
    0.6785   12.1567   42.7912 C   0  0  0  0  0  0  0  0  0  0  0  0
    1.8218   12.0808   42.0182 C   0  0  0  0  0  0  0  0  0  0  0  0
    2.4359   13.2096   41.4968 C   0  0  0  0  0  0  0  0  0  0  0  0
    1.8564   14.4508   41.7455 C   0  0  0  0  0  0  0  0  0  0  0  0
   -1.0616   16.1105   43.4077 C   0  0  0  0  0  0  0  0  0  0  0  0
    2.0128   18.8795   40.3402 C   0  0  0  0  0  0  0  0  0  0  0  0
    2.7555   19.2285   39.2108 C   0  0  0  0  0  0  0  0  0  0  0  0
    0.2179   19.3816   41.9365 N   0  0  0  0  0  0  0  0  0  0  0  0
    0.6429   17.0263   42.0637 N   0  0  0  0  0  0  0  0  0  0  0  0
    2.9170   21.7969   36.6218 O   0  0  0  0  0  0  0  0  0  0  0  0
    4.2193   19.9848   36.8786 O   0  0  0  0  0  0  0  0  0  0  0  0
    3.5876   18.2965   38.6376 O   0  0  0  0  0  0  0  0  0  0  0  0
   -1.5644   17.7525   43.2696 S   0  0  0  0  0  0  0  0  0  0  0  0
    2.5201   10.5293   41.6918 Cl  0  0  0  0  0  0  0  0  0  0  0  0
    1.5719   22.3335   38.6560 H   0  0  0  0  0  0  0  0  0  0  0  0
    0.0366   21.6472   40.4850 H   0  0  0  0  0  0  0  0  0  0  0  0
   -0.8211   13.4774   43.6030 H   0  0  0  0  0  0  0  0  0  0  0  0
    0.2283   11.2482   43.2177 H   0  0  0  0  0  0  0  0  0  0  0  0
    3.3573   13.1264   40.9019 H   0  0  0  0  0  0  0  0  0  0  0  0
    2.3208   15.3550   41.3251 H   0  0  0  0  0  0  0  0  0  0  0  0
   -1.6008   15.3395   43.9774 H   0  0  0  0  0  0  0  0  0  0  0  0
    2.1575   17.8966   40.8124 H   0  0  0  0  0  0  0  0  0  0  0  0
   -0.2675   20.1576   42.4087 H   0  0  0  0  0  0  0  0  0  0  0  0
  1  2  1  0
  1 19  1  0
  1 20  2  0
  2  3  1  0
  2 16  2  0
  3  4  2  0
  4  5  1  0
  5 15  2  0
  5 17  1  0
  6 17  1  0
  6 18  2  0
  6 22  1  0
  7  8  1  0
  7 14  2  0
  7 18  1  0
  8  9  1  0
  8 13  2  0
  9 10  2  0
 10 11  1  0
 11 12  2  0
 11 23  1  0
 12 13  1  0
 14 22  1  0
 15 16  1  0
 16 21  1  0
  3 24  1  0
  4 25  1  0
  9 26  1  0
 10 27  1  0
 12 28  1  0
 13 29  1  0
 14 30  1  0
 15 31  1  0
 17 32  1  0
M  CHG  2  19  -1  21  -1
M  END
>  <mol_id>  (9) 
2026-08-24-6tgu-s0-n100-0009

>  <rmsd_to_ref>  (9) 
0.8214285714325729

>  <pose_kind>  (9) 
rigid

$$$$
6tgu.A
     RDKit          3D

 32 34  0  0  0  0  0  0  0  0999 V2000
    2.6859   20.2704   37.2189 C   0  0  0  0  0  0  0  0  0  0  0  0
    2.3084   19.8452   38.6407 C   0  0  0  0  0  0  0  0  0  0  0  0
    1.5923   20.7058   39.4696 C   0  0  0  0  0  0  0  0  0  0  0  0
    1.0670   20.2877   40.6967 C   0  0  0  0  0  0  0  0  0  0  0  0
    1.3994   19.0263   41.2118 C   0  0  0  0  0  0  0  0  0  0  0  0
    0.6019   17.2927   42.8917 C   0  0  0  0  0  0  0  0  0  0  0  0
    0.7190   15.0213   42.9403 C   0  0  0  0  0  0  0  0  0  0  0  0
    1.1753   13.7056   42.4908 C   0  0  0  0  0  0  0  0  0  0  0  0
    0.6727   12.5171   43.0393 C   0  0  0  0  0  0  0  0  0  0  0  0
    1.0960   11.2761   42.5737 C   0  0  0  0  0  0  0  0  0  0  0  0
    1.9938   11.2327   41.5238 C   0  0  0  0  0  0  0  0  0  0  0  0
    2.5117   12.3832   40.9481 C   0  0  0  0  0  0  0  0  0  0  0  0
    2.0845   13.6152   41.4356 C   0  0  0  0  0  0  0  0  0  0  0  0
   -0.2083   15.2131   43.9301 C   0  0  0  0  0  0  0  0  0  0  0  0
    2.1102   18.1439   40.3858 C   0  0  0  0  0  0  0  0  0  0  0  0
    2.5524   18.5680   39.1313 C   0  0  0  0  0  0  0  0  0  0  0  0
    0.8207   18.5593   42.4317 N   0  0  0  0  0  0  0  0  0  0  0  0
    1.1362   16.1897   42.2601 N   0  0  0  0  0  0  0  0  0  0  0  0
    2.1752   21.3498   36.7977 O   0  0  0  0  0  0  0  0  0  0  0  0
    3.3998   19.4814   36.5619 O   0  0  0  0  0  0  0  0  0  0  0  0
    3.1557   17.6645   38.2890 O   0  0  0  0  0  0  0  0  0  0  0  0
   -0.6401   16.8761   44.0566 S   0  0  0  0  0  0  0  0  0  0  0  0
    2.4986    9.6948   40.9062 Cl  0  0  0  0  0  0  0  0  0  0  0  0
    1.4350   21.7463   39.1492 H   0  0  0  0  0  0  0  0  0  0  0  0
    0.3919   20.9496   41.2589 H   0  0  0  0  0  0  0  0  0  0  0  0
   -0.0680   12.5667   43.8510 H   0  0  0  0  0  0  0  0  0  0  0  0
    0.7234   10.3481   43.0320 H   0  0  0  0  0  0  0  0  0  0  0  0
    3.2415   12.3238   40.1272 H   0  0  0  0  0  0  0  0  0  0  0  0
    2.4722   14.5380   40.9792 H   0  0  0  0  0  0  0  0  0  0  0  0
   -0.6222   14.4120   44.5602 H   0  0  0  0  0  0  0  0  0  0  0  0
    2.3191   17.1189   40.7258 H   0  0  0  0  0  0  0  0  0  0  0  0
    0.5169   19.3054   43.0737 H   0  0  0  0  0  0  0  0  0  0  0  0
  1  2  1  0
  1 19  1  0
  1 20  2  0
  2  3  1  0
  2 16  2  0
  3  4  2  0
  4  5  1  0
  5 15  2  0
  5 17  1  0
  6 17  1  0
  6 18  2  0
  6 22  1  0
  7  8  1  0
  7 14  2  0
  7 18  1  0
  8  9  1  0
  8 13  2  0
  9 10  2  0
 10 11  1  0
 11 12  2  0
 11 23  1  0
 12 13  1  0
 14 22  1  0
 15 16  1  0
 16 21  1  0
  3 24  1  0
  4 25  1  0
  9 26  1  0
 10 27  1  0
 12 28  1  0
 13 29  1  0
 14 30  1  0
 15 31  1  0
 17 32  1  0
M  CHG  2  19  -1  21  -1
M  END
>  <mol_id>  (10) 
2026-08-24-6tgu-s0-n100-0010

>  <rmsd_to_ref>  (10) 
0.8673469387850083

>  <pose_kind>  (10) 
rigid

$$$$
6tgu.A
     RDKit          3D

 32 34  0  0  0  0  0  0  0  0999 V2000
    2.9166   20.6183   36.4092 C   0  0  0  0  0  0  0  0  0  0  0  0
    2.4940   20.1381   37.8004 C   0  0  0  0  0  0  0  0  0  0  0  0
    1.6139   20.8934   38.5722 C   0  0  0  0  0  0  0  0  0  0  0  0
    1.0585   20.4027   39.7584 C   0  0  0  0  0  0  0  0  0  0  0  0
    1.5122   19.1912   40.2998 C   0  0  0  0  0  0  0  0  0  0  0  0
    0.8240   17.3577   41.9209 C   0  0  0  0  0  0  0  0  0  0  0  0
    1.2293   15.1199   41.9840 C   0  0  0  0  0  0  0  0  0  0  0  0
    1.8833   13.8772   41.5727 C   0  0  0  0  0  0  0  0  0  0  0  0
    1.4993   12.6301   42.0859 C   0  0  0  0  0  0  0  0  0  0  0  0
    2.1121   11.4573   41.6559 C   0  0  0  0  0  0  0  0  0  0  0  0
    3.0825   11.5372   40.6749 C   0  0  0  0  0  0  0  0  0  0  0  0
    3.4885   12.7487   40.1359 C   0  0  0  0  0  0  0  0  0  0  0  0
    2.8714   13.9121   40.5875 C   0  0  0  0  0  0  0  0  0  0  0  0
    0.2149   15.1838   42.9024 C   0  0  0  0  0  0  0  0  0  0  0  0
    2.3894   18.4135   39.5306 C   0  0  0  0  0  0  0  0  0  0  0  0
    2.8640   18.8996   38.3110 C   0  0  0  0  0  0  0  0  0  0  0  0
    0.9108   18.6452   41.4751 N   0  0  0  0  0  0  0  0  0  0  0  0
    1.5409   16.3371   41.3333 N   0  0  0  0  0  0  0  0  0  0  0  0
    2.3033   21.6257   35.9487 O   0  0  0  0  0  0  0  0  0  0  0  0
    3.7724   19.9323   35.8085 O   0  0  0  0  0  0  0  0  0  0  0  0
    3.6389   18.0872   37.5177 O   0  0  0  0  0  0  0  0  0  0  0  0
   -0.4358   16.7764   42.9925 S   0  0  0  0  0  0  0  0  0  0  0  0
    3.8253   10.0813   40.1002 Cl  0  0  0  0  0  0  0  0  0  0  0  0
    1.3477   21.9072   38.2384 H   0  0  0  0  0  0  0  0  0  0  0  0
    0.2643   20.9683   40.2677 H   0  0  0  0  0  0  0  0  0  0  0  0
    0.7008   12.5782   42.8408 H   0  0  0  0  0  0  0  0  0  0  0  0
    1.8297   10.4859   42.0880 H   0  0  0  0  0  0  0  0  0  0  0  0
    4.2780   12.7894   39.3712 H   0  0  0  0  0  0  0  0  0  0  0  0
    3.1692   14.8801   40.1584 H   0  0  0  0  0  0  0  0  0  0  0  0
   -0.1372   14.3318   43.5025 H   0  0  0  0  0  0  0  0  0  0  0  0
    2.7034   17.4216   39.8877 H   0  0  0  0  0  0  0  0  0  0  0  0
    0.4671   19.3414   42.0910 H   0  0  0  0  0  0  0  0  0  0  0  0
  1  2  1  0
  1 19  1  0
  1 20  2  0
  2  3  1  0
  2 16  2  0
  3  4  2  0
  4  5  1  0
  5 15  2  0
  5 17  1  0
  6 17  1  0
  6 18  2  0
  6 22  1  0
  7  8  1  0
  7 14  2  0
  7 18  1  0
  8  9  1  0
  8 13  2  0
  9 10  2  0
 10 11  1  0
 11 12  2  0
 11 23  1  0
 12 13  1  0
 14 22  1  0
 15 16  1  0
 16 21  1  0
  3 24  1  0
  4 25  1  0
  9 26  1  0
 10 27  1  0
 12 28  1  0
 13 29  1  0
 14 30  1  0
 15 31  1  0
 17 32  1  0
M  CHG  2  19  -1  21  -1
M  END
>  <mol_id>  (11) 
2026-08-24-6tgu-s0-n100-0011

>  <rmsd_to_ref>  (11) 
0.913265306127796

>  <pose_kind>  (11) 
rigid

$$$$
6tgu.A
     RDKit          3D

 32 34  0  0  0  0  0  0  0  0999 V2000
    3.2136   20.3969   37.3122 C   0  0  0  0  0  0  0  0  0  0  0  0
    2.3690   20.0769   38.5487 C   0  0  0  0  0  0  0  0  0  0  0  0
    1.2956   20.8917   38.9022 C   0  0  0  0  0  0  0  0  0  0  0  0
    0.3898   20.5317   39.9053 C   0  0  0  0  0  0  0  0  0  0  0  0
    0.6397   19.4111   40.7106 C   0  0  0  0  0  0  0  0  0  0  0  0
   -0.5397   17.7681   42.2510 C   0  0  0  0  0  0  0  0  0  0  0  0
   -0.1919   15.5695   42.7210 C   0  0  0  0  0  0  0  0  0  0  0  0
    0.5492   14.3081   42.6972 C   0  0  0  0  0  0  0  0  0  0  0  0
    0.0133   13.1212   43.2170 C   0  0  0  0  0  0  0  0  0  0  0  0
    0.7218   11.9253   43.1536 C   0  0  0  0  0  0  0  0  0  0  0  0
    1.9534   11.9165   42.5262 C   0  0  0  0  0  0  0  0  0  0  0  0
    2.5180   13.0657   41.9938 C   0  0  0  0  0  0  0  0  0  0  0  0
    1.7985   14.2546   42.0771 C   0  0  0  0  0  0  0  0  0  0  0  0
   -1.4442   15.7119   43.2576 C   0  0  0  0  0  0  0  0  0  0  0  0
    1.7095   18.5745   40.3616 C   0  0  0  0  0  0  0  0  0  0  0  0
    2.5491   18.9231   39.3021 C   0  0  0  0  0  0  0  0  0  0  0  0
   -0.3067   18.9934   41.6961 N   0  0  0  0  0  0  0  0  0  0  0  0
    0.3187   16.7075   42.0530 N   0  0  0  0  0  0  0  0  0  0  0  0
    2.7850   21.3197   36.5586 O   0  0  0  0  0  0  0  0  0  0  0  0
    4.2104   19.6712   37.1034 O   0  0  0  0  0  0  0  0  0  0  0  0
    3.5291   18.0458   38.9026 O   0  0  0  0  0  0  0  0  0  0  0  0
   -2.0782   17.2810   42.9360 S   0  0  0  0  0  0  0  0  0  0  0  0
    2.8290   10.4267   42.4036 Cl  0  0  0  0  0  0  0  0  0  0  0  0
    1.1562   21.8476   38.3761 H   0  0  0  0  0  0  0  0  0  0  0  0
   -0.5205   21.1288   40.0628 H   0  0  0  0  0  0  0  0  0  0  0  0
   -0.9833   13.1356   43.6822 H   0  0  0  0  0  0  0  0  0  0  0  0
    0.3100   11.0053   43.5941 H   0  0  0  0  0  0  0  0  0  0  0  0
    3.5093   13.0386   41.5176 H   0  0  0  0  0  0  0  0  0  0  0  0
    2.2240   15.1722   41.6447 H   0  0  0  0  0  0  0  0  0  0  0  0
   -1.9745   14.9285   43.8191 H   0  0  0  0  0  0  0  0  0  0  0  0
    1.8869   17.6446   40.9219 H   0  0  0  0  0  0  0  0  0  0  0  0
   -0.9172   19.7448   42.0476 H   0  0  0  0  0  0  0  0  0  0  0  0
  1  2  1  0
  1 19  1  0
  1 20  2  0
  2  3  1  0
  2 16  2  0
  3  4  2  0
  4  5  1  0
  5 15  2  0
  5 17  1  0
  6 17  1  0
  6 18  2  0
  6 22  1  0
  7  8  1  0
  7 14  2  0
  7 18  1  0
  8  9  1  0
  8 13  2  0
  9 10  2  0
 10 11  1  0
 11 12  2  0
 11 23  1  0
 12 13  1  0
 14 22  1  0
 15 16  1  0
 16 21  1  0
  3 24  1  0
  4 25  1  0
  9 26  1  0
 10 27  1  0
 12 28  1  0
 13 29  1  0
 14 30  1  0
 15 31  1  0
 17 32  1  0
M  CHG  2  19  -1  21  -1
M  END
>  <mol_id>  (12) 
2026-08-24-6tgu-s0-n100-0012

>  <rmsd_to_ref>  (12) 
0.9591836734744481

>  <pose_kind>  (12) 
rigid

$$$$
6tgu.A
     RDKit          3D

 32 34  0  0  0  0  0  0  0  0999 V2000
    2.7692   20.1842   36.9501 C   0  0  0  0  0  0  0  0  0  0  0  0
    2.4188   19.7980   38.3898 C   0  0  0  0  0  0  0  0  0  0  0  0
    1.6378   20.6404   39.1779 C   0  0  0  0  0  0  0  0  0  0  0  0
    1.1403   20.2414   40.4227 C   0  0  0  0  0  0  0  0  0  0  0  0
    1.5630   19.0330   40.9956 C   0  0  0  0  0  0  0  0  0  0  0  0
    0.8895   17.3242   42.7533 C   0  0  0  0  0  0  0  0  0  0  0  0
    1.1742   15.0723   42.9068 C   0  0  0  0  0  0  0  0  0  0  0  0
    1.7283   13.7748   42.5186 C   0  0  0  0  0  0  0  0  0  0  0  0
    1.3130   12.5789   43.1212 C   0  0  0  0  0  0  0  0  0  0  0  0
    1.8285   11.3526   42.7134 C   0  0  0  0  0  0  0  0  0  0  0  0
    2.7312   11.3276   41.6669 C   0  0  0  0  0  0  0  0  0  0  0  0
    3.1648   12.4856   41.0391 C   0  0  0  0  0  0  0  0  0  0  0  0
    2.6458   13.7036   41.4691 C   0  0  0  0  0  0  0  0  0  0  0  0
    0.2315   15.2402   43.8863 C   0  0  0  0  0  0  0  0  0  0  0  0
    2.3403   18.1688   40.2114 C   0  0  0  0  0  0  0  0  0  0  0  0
    2.7546   18.5663   38.9389 C   0  0  0  0  0  0  0  0  0  0  0  0
    1.0159   18.5811   42.2356 N   0  0  0  0  0  0  0  0  0  0  0  0
    1.5064   16.2360   42.1735 N   0  0  0  0  0  0  0  0  0  0  0  0
    2.1817   21.2022   36.4793 O   0  0  0  0  0  0  0  0  0  0  0  0
    3.5419   19.4209   36.3304 O   0  0  0  0  0  0  0  0  0  0  0  0
    3.4264   17.6722   38.1394 O   0  0  0  0  0  0  0  0  0  0  0  0
   -0.3226   16.8706   43.9357 S   0  0  0  0  0  0  0  0  0  0  0  0
    3.3508    9.8045   41.1211 Cl  0  0  0  0  0  0  0  0  0  0  0  0
    1.4051   21.6505   38.8098 H   0  0  0  0  0  0  0  0  0  0  0  0
    0.4158   20.8766   40.9536 H   0  0  0  0  0  0  0  0  0  0  0  0
    0.5674   12.6106   43.9294 H   0  0  0  0  0  0  0  0  0  0  0  0
    1.5239   10.4216   43.2139 H   0  0  0  0  0  0  0  0  0  0  0  0
    3.9000   12.4426   40.2221 H   0  0  0  0  0  0  0  0  0  0  0  0
    2.9658   14.6306   40.9707 H   0  0  0  0  0  0  0  0  0  0  0  0
   -0.1244   14.4405   44.5525 H   0  0  0  0  0  0  0  0  0  0  0  0
    2.6231   17.1787   40.5984 H   0  0  0  0  0  0  0  0  0  0  0  0
    0.6553   19.3313   42.8423 H   0  0  0  0  0  0  0  0  0  0  0  0
  1  2  1  0
  1 19  1  0
  1 20  2  0
  2  3  1  0
  2 16  2  0
  3  4  2  0
  4  5  1  0
  5 15  2  0
  5 17  1  0
  6 17  1  0
  6 18  2  0
  6 22  1  0
  7  8  1  0
  7 14  2  0
  7 18  1  0
  8  9  1  0
  8 13  2  0
  9 10  2  0
 10 11  1  0
 11 12  2  0
 11 23  1  0
 12 13  1  0
 14 22  1  0
 15 16  1  0
 16 21  1  0
  3 24  1  0
  4 25  1  0
  9 26  1  0
 10 27  1  0
 12 28  1  0
 13 29  1  0
 14 30  1  0
 15 31  1  0
 17 32  1  0
M  CHG  2  19  -1  21  -1
M  END
>  <mol_id>  (13) 
2026-08-24-6tgu-s0-n100-0013

>  <rmsd_to_ref>  (13) 
1.0051020408233196

>  <pose_kind>  (13) 
rigid

$$$$
6tgu.A
     RDKit          3D

 32 34  0  0  0  0  0  0  0  0999 V2000
    3.2800   20.7205   37.1367 C   0  0  0  0  0  0  0  0  0  0  0  0
    2.6776   20.2962   38.4790 C   0  0  0  0  0  0  0  0  0  0  0  0
    1.7070   21.0805   39.0982 C   0  0  0  0  0  0  0  0  0  0  0  0
    0.9997   20.6370   40.2204 C   0  0  0  0  0  0  0  0  0  0  0  0
    1.3744   19.4491   40.8648 C   0  0  0  0  0  0  0  0  0  0  0  0
    0.4740   17.6814   42.4546 C   0  0  0  0  0  0  0  0  0  0  0  0
    0.8597   15.4487   42.6600 C   0  0  0  0  0  0  0  0  0  0  0  0
    1.5574   14.1916   42.3880 C   0  0  0  0  0  0  0  0  0  0  0  0
    1.1054   12.9655   42.8965 C   0  0  0  0  0  0  0  0  0  0  0  0
    1.7649   11.7773   42.5977 C   0  0  0  0  0  0  0  0  0  0  0  0
    2.8554   11.8193   41.7496 C   0  0  0  0  0  0  0  0  0  0  0  0
    3.3326   13.0089   41.2199 C   0  0  0  0  0  0  0  0  0  0  0  0
    2.6658   14.1883   41.5398 C   0  0  0  0  0  0  0  0  0  0  0  0
   -0.2657   15.5478   43.4347 C   0  0  0  0  0  0  0  0  0  0  0  0
    2.3420   18.6425   40.2487 C   0  0  0  0  0  0  0  0  0  0  0  0
    2.9733   19.0799   39.0829 C   0  0  0  0  0  0  0  0  0  0  0  0
    0.6228   18.9499   41.9724 N   0  0  0  0  0  0  0  0  0  0  0  0
    1.2580   16.6392   42.0071 N   0  0  0  0  0  0  0  0  0  0  0  0
    2.7355   21.7075   36.5599 O   0  0  0  0  0  0  0  0  0  0  0  0
    4.2045   20.0125   36.6811 O   0  0  0  0  0  0  0  0  0  0  0  0
    3.8424   18.2376   38.4311 O   0  0  0  0  0  0  0  0  0  0  0  0
   -0.9171   17.1415   43.3749 S   0  0  0  0  0  0  0  0  0  0  0  0
    3.6619   10.3428   41.3358 Cl  0  0  0  0  0  0  0  0  0  0  0  0
    1.4901   22.0795   38.6919 H   0  0  0  0  0  0  0  0  0  0  0  0
    0.1477   21.2212   40.5984 H   0  0  0  0  0  0  0  0  0  0  0  0
    0.2150   12.9426   43.5420 H   0  0  0  0  0  0  0  0  0  0  0  0
    1.4252   10.8236   43.0279 H   0  0  0  0  0  0  0  0  0  0  0  0
    4.2153   13.0201   40.5637 H   0  0  0  0  0  0  0  0  0  0  0  0
    3.0205   15.1389   41.1147 H   0  0  0  0  0  0  0  0  0  0  0  0
   -0.6961   14.7201   44.0174 H   0  0  0  0  0  0  0  0  0  0  0  0
    2.6030   17.6664   40.6834 H   0  0  0  0  0  0  0  0  0  0  0  0
    0.1049   19.6696   42.4966 H   0  0  0  0  0  0  0  0  0  0  0  0
  1  2  1  0
  1 19  1  0
  1 20  2  0
  2  3  1  0
  2 16  2  0
  3  4  2  0
  4  5  1  0
  5 15  2  0
  5 17  1  0
  6 17  1  0
  6 18  2  0
  6 22  1  0
  7  8  1  0
  7 14  2  0
  7 18  1  0
  8  9  1  0
  8 13  2  0
  9 10  2  0
 10 11  1  0
 11 12  2  0
 11 23  1  0
 12 13  1  0
 14 22  1  0
 15 16  1  0
 16 21  1  0
  3 24  1  0
  4 25  1  0
  9 26  1  0
 10 27  1  0
 12 28  1  0
 13 29  1  0
 14 30  1  0
 15 31  1  0
 17 32  1  0
M  CHG  2  19  -1  21  -1
M  END
>  <mol_id>  (14) 
2026-08-24-6tgu-s0-n100-0014

>  <rmsd_to_ref>  (14) 
1.0510204081651213

>  <pose_kind>  (14) 
rigid

$$$$
6tgu.A
     RDKit          3D

 32 34  0  0  0  0  0  0  0  0999 V2000
    3.3485   20.2996   36.9858 C   0  0  0  0  0  0  0  0  0  0  0  0
    2.8482   19.9644   38.3937 C   0  0  0  0  0  0  0  0  0  0  0  0
    2.0549   20.8688   39.0963 C   0  0  0  0  0  0  0  0  0  0  0  0
    1.4248   20.5261   40.2972 C   0  0  0  0  0  0  0  0  0  0  0  0
    1.7182   19.3058   40.9229 C   0  0  0  0  0  0  0  0  0  0  0  0
    0.7853   17.6771   42.6376 C   0  0  0  0  0  0  0  0  0  0  0  0
    0.9128   15.4154   42.8485 C   0  0  0  0  0  0  0  0  0  0  0  0
    1.4164   14.0789   42.5304 C   0  0  0  0  0  0  0  0  0  0  0  0
    0.8747   12.9230   43.1105 C   0  0  0  0  0  0  0  0  0  0  0  0
    1.3462   11.6593   42.7684 C   0  0  0  0  0  0  0  0  0  0  0  0
    2.3347   11.5581   41.8076 C   0  0  0  0  0  0  0  0  0  0  0  0
    2.8942   12.6744   41.2046 C   0  0  0  0  0  0  0  0  0  0  0  0
    2.4170   13.9305   41.5686 C   0  0  0  0  0  0  0  0  0  0  0  0
   -0.1006   15.6605   43.7369 C   0  0  0  0  0  0  0  0  0  0  0  0
    2.5059   18.3798   40.2243 C   0  0  0  0  0  0  0  0  0  0  0  0
    3.0557   18.7257   38.9885 C   0  0  0  0  0  0  0  0  0  0  0  0
    1.0359   18.9132   42.1153 N   0  0  0  0  0  0  0  0  0  0  0  0
    1.3813   16.5416   42.1313 N   0  0  0  0  0  0  0  0  0  0  0  0
    2.8703   21.3422   36.4496 O   0  0  0  0  0  0  0  0  0  0  0  0
    4.1234   19.4779   36.4491 O   0  0  0  0  0  0  0  0  0  0  0  0
    3.7380   17.7762   38.2655 O   0  0  0  0  0  0  0  0  0  0  0  0
   -0.5531   17.3226   43.7130 S   0  0  0  0  0  0  0  0  0  0  0  0
    2.9030    9.9891   41.3417 Cl  0  0  0  0  0  0  0  0  0  0  0  0
    1.9199   21.8837   38.6943 H   0  0  0  0  0  0  0  0  0  0  0  0
    0.6976   21.2151   40.7515 H   0  0  0  0  0  0  0  0  0  0  0  0
    0.0640   13.0166   43.8480 H   0  0  0  0  0  0  0  0  0  0  0  0
    0.9404   10.7591   43.2529 H   0  0  0  0  0  0  0  0  0  0  0  0
    3.6949   12.5701   40.4575 H   0  0  0  0  0  0  0  0  0  0  0  0
    2.8376   14.8258   41.0876 H   0  0  0  0  0  0  0  0  0  0  0  0
   -0.5637   14.8977   44.3800 H   0  0  0  0  0  0  0  0  0  0  0  0
    2.6906   17.3823   40.6493 H   0  0  0  0  0  0  0  0  0  0  0  0
    0.6709   19.6961   42.6763 H   0  0  0  0  0  0  0  0  0  0  0  0
  1  2  1  0
  1 19  1  0
  1 20  2  0
  2  3  1  0
  2 16  2  0
  3  4  2  0
  4  5  1  0
  5 15  2  0
  5 17  1  0
  6 17  1  0
  6 18  2  0
  6 22  1  0
  7  8  1  0
  7 14  2  0
  7 18  1  0
  8  9  1  0
  8 13  2  0
  9 10  2  0
 10 11  1  0
 11 12  2  0
 11 23  1  0
 12 13  1  0
 14 22  1  0
 15 16  1  0
 16 21  1  0
  3 24  1  0
  4 25  1  0
  9 26  1  0
 10 27  1  0
 12 28  1  0
 13 29  1  0
 14 30  1  0
 15 31  1  0
 17 32  1  0
M  CHG  2  19  -1  21  -1
M  END
>  <mol_id>  (15) 
2026-08-24-6tgu-s0-n100-0015

>  <rmsd_to_ref>  (15) 
1.0969387755175013

>  <pose_kind>  (15) 
rigid

$$$$
6tgu.A
     RDKit          3D

 32 34  0  0  0  0  0  0  0  0999 V2000
    3.3039   20.2150   36.4953 C   0  0  0  0  0  0  0  0  0  0  0  0
    2.8195   20.0828   37.9419 C   0  0  0  0  0  0  0  0  0  0  0  0
    2.2519   21.1715   38.6000 C   0  0  0  0  0  0  0  0  0  0  0  0
    1.6284   21.0430   39.8455 C   0  0  0  0  0  0  0  0  0  0  0  0
    1.7118   19.8352   40.5533 C   0  0  0  0  0  0  0  0  0  0  0  0
    0.5693   18.5437   42.4214 C   0  0  0  0  0  0  0  0  0  0  0  0
    0.2684   16.3211   42.8025 C   0  0  0  0  0  0  0  0  0  0  0  0
    0.4881   14.8929   42.5714 C   0  0  0  0  0  0  0  0  0  0  0  0
   -0.2367   13.9088   43.2584 C   0  0  0  0  0  0  0  0  0  0  0  0
   -0.0355   12.5566   42.9988 C   0  0  0  0  0  0  0  0  0  0  0  0
    0.8654   12.1972   42.0142 C   0  0  0  0  0  0  0  0  0  0  0  0
    1.5989   13.1377   41.3068 C   0  0  0  0  0  0  0  0  0  0  0  0
    1.3918   14.4851   41.5890 C   0  0  0  0  0  0  0  0  0  0  0  0
   -0.6329   16.8210   43.7048 C   0  0  0  0  0  0  0  0  0  0  0  0
    2.2701   18.7267   39.9009 C   0  0  0  0  0  0  0  0  0  0  0  0
    2.8137   18.8716   38.6233 C   0  0  0  0  0  0  0  0  0  0  0  0
    1.0272   19.6675   41.7960 N   0  0  0  0  0  0  0  0  0  0  0  0
    0.9089   17.2811   41.9839 N   0  0  0  0  0  0  0  0  0  0  0  0
    3.0096   21.2915   35.8972 O   0  0  0  0  0  0  0  0  0  0  0  0
    3.8779   19.2222   35.9967 O   0  0  0  0  0  0  0  0  0  0  0  0
    3.2629   17.7590   37.9523 O   0  0  0  0  0  0  0  0  0  0  0  0
   -0.7569   18.5338   43.5680 S   0  0  0  0  0  0  0  0  0  0  0  0
    1.0964   10.5189   41.6516 Cl  0  0  0  0  0  0  0  0  0  0  0  0
    2.2952   22.1629   38.1254 H   0  0  0  0  0  0  0  0  0  0  0  0
    1.0715   21.8910   40.2706 H   0  0  0  0  0  0  0  0  0  0  0  0
   -0.9761   14.2103   44.0148 H   0  0  0  0  0  0  0  0  0  0  0  0
   -0.5827   11.7890   43.5659 H   0  0  0  0  0  0  0  0  0  0  0  0
    2.3260   12.8268   40.5420 H   0  0  0  0  0  0  0  0  0  0  0  0
    1.9527   15.2450   41.0253 H   0  0  0  0  0  0  0  0  0  0  0  0
   -1.2017   16.2102   44.4212 H   0  0  0  0  0  0  0  0  0  0  0  0
    2.2798   17.7440   40.3953 H   0  0  0  0  0  0  0  0  0  0  0  0
    0.8487   20.5437   42.3072 H   0  0  0  0  0  0  0  0  0  0  0  0
  1  2  1  0
  1 19  1  0
  1 20  2  0
  2  3  1  0
  2 16  2  0
  3  4  2  0
  4  5  1  0
  5 15  2  0
  5 17  1  0
  6 17  1  0
  6 18  2  0
  6 22  1  0
  7  8  1  0
  7 14  2  0
  7 18  1  0
  8  9  1  0
  8 13  2  0
  9 10  2  0
 10 11  1  0
 11 12  2  0
 11 23  1  0
 12 13  1  0
 14 22  1  0
 15 16  1  0
 16 21  1  0
  3 24  1  0
  4 25  1  0
  9 26  1  0
 10 27  1  0
 12 28  1  0
 13 29  1  0
 14 30  1  0
 15 31  1  0
 17 32  1  0
M  CHG  2  19  -1  21  -1
M  END
>  <mol_id>  (16) 
2026-08-24-6tgu-s0-n100-0016

>  <rmsd_to_ref>  (16) 
1.1428571428618988

>  <pose_kind>  (16) 
rigid

$$$$
6tgu.A
     RDKit          3D

 32 34  0  0  0  0  0  0  0  0999 V2000
    2.8184   19.5265   36.5105 C   0  0  0  0  0  0  0  0  0  0  0  0
    2.4123   19.5614   37.9865 C   0  0  0  0  0  0  0  0  0  0  0  0
    1.7788   20.6818   38.5194 C   0  0  0  0  0  0  0  0  0  0  0  0
    1.2251   20.6802   39.8039 C   0  0  0  0  0  0  0  0  0  0  0  0
    1.4478   19.5963   40.6654 C   0  0  0  0  0  0  0  0  0  0  0  0
    0.5097   18.4930   42.7549 C   0  0  0  0  0  0  0  0  0  0  0  0
    0.4269   16.3299   43.4547 C   0  0  0  0  0  0  0  0  0  0  0  0
    0.7636   14.9066   43.4102 C   0  0  0  0  0  0  0  0  0  0  0  0
    0.1612   13.9733   44.2659 C   0  0  0  0  0  0  0  0  0  0  0  0
    0.4713   12.6194   44.1840 C   0  0  0  0  0  0  0  0  0  0  0  0
    1.3565   12.1995   43.2090 C   0  0  0  0  0  0  0  0  0  0  0  0
    1.9705   13.0875   42.3387 C   0  0  0  0  0  0  0  0  0  0  0  0
    1.6559   14.4395   42.4440 C   0  0  0  0  0  0  0  0  0  0  0  0
   -0.4749   16.8766   44.3289 C   0  0  0  0  0  0  0  0  0  0  0  0
    2.0741   18.4564   40.1414 C   0  0  0  0  0  0  0  0  0  0  0  0
    2.5454   18.4628   38.8274 C   0  0  0  0  0  0  0  0  0  0  0  0
    0.8367   19.5506   41.9560 N   0  0  0  0  0  0  0  0  0  0  0  0
    0.9417   17.2136   42.4769 N   0  0  0  0  0  0  0  0  0  0  0  0
    2.4025   20.4789   35.7875 O   0  0  0  0  0  0  0  0  0  0  0  0
    3.4567   18.5238   36.1217 O   0  0  0  0  0  0  0  0  0  0  0  0
    3.0627   17.3073   38.2916 O   0  0  0  0  0  0  0  0  0  0  0  0
   -0.7582   18.5365   43.9648 S   0  0  0  0  0  0  0  0  0  0  0  0
    1.7210   10.5117   43.0684 Cl  0  0  0  0  0  0  0  0  0  0  0  0
    1.7119   21.5959   37.9113 H   0  0  0  0  0  0  0  0  0  0  0  0
    0.6137   21.5311   40.1391 H   0  0  0  0  0  0  0  0  0  0  0  0
   -0.5682   14.3171   45.0141 H   0  0  0  0  0  0  0  0  0  0  0  0
    0.0209   11.8975   44.8813 H   0  0  0  0  0  0  0  0  0  0  0  0
    2.6880   12.7325   41.5842 H   0  0  0  0  0  0  0  0  0  0  0  0
    2.1208   15.1555   41.7503 H   0  0  0  0  0  0  0  0  0  0  0  0
   -0.9543   16.3288   45.1534 H   0  0  0  0  0  0  0  0  0  0  0  0
    2.1939   17.5581   40.7650 H   0  0  0  0  0  0  0  0  0  0  0  0
    0.6029   20.4728   42.3509 H   0  0  0  0  0  0  0  0  0  0  0  0
  1  2  1  0
  1 19  1  0
  1 20  2  0
  2  3  1  0
  2 16  2  0
  3  4  2  0
  4  5  1  0
  5 15  2  0
  5 17  1  0
  6 17  1  0
  6 18  2  0
  6 22  1  0
  7  8  1  0
  7 14  2  0
  7 18  1  0
  8  9  1  0
  8 13  2  0
  9 10  2  0
 10 11  1  0
 11 12  2  0
 11 23  1  0
 12 13  1  0
 14 22  1  0
 15 16  1  0
 16 21  1  0
  3 24  1  0
  4 25  1  0
  9 26  1  0
 10 27  1  0
 12 28  1  0
 13 29  1  0
 14 30  1  0
 15 31  1  0
 17 32  1  0
M  CHG  2  19  -1  21  -1
M  END
>  <mol_id>  (17) 
2026-08-24-6tgu-s0-n100-0017

>  <rmsd_to_ref>  (17) 
1.1887755102043018

>  <pose_kind>  (17) 
rigid

$$$$
6tgu.A
     RDKit          3D

 32 34  0  0  0  0  0  0  0  0999 V2000
    3.5581   19.9174   37.4998 C   0  0  0  0  0  0  0  0  0  0  0  0
    2.7504   19.7219   38.7859 C   0  0  0  0  0  0  0  0  0  0  0  0
    1.8538   20.6988   39.2133 C   0  0  0  0  0  0  0  0  0  0  0  0
    0.9646   20.4783   40.2702 C   0  0  0  0  0  0  0  0  0  0  0  0
    1.0718   19.3177   41.0501 C   0  0  0  0  0  0  0  0  0  0  0  0
   -0.2693   17.8689   42.6519 C   0  0  0  0  0  0  0  0  0  0  0  0
   -0.2685   15.6353   43.0834 C   0  0  0  0  0  0  0  0  0  0  0  0
    0.2465   14.2679   43.0033 C   0  0  0  0  0  0  0  0  0  0  0  0
   -0.4483   13.1788   43.5483 C   0  0  0  0  0  0  0  0  0  0  0  0
    0.0432   11.8823   43.4313 C   0  0  0  0  0  0  0  0  0  0  0  0
    1.2141   11.6782   42.7258 C   0  0  0  0  0  0  0  0  0  0  0  0
    1.9301   12.7255   42.1660 C   0  0  0  0  0  0  0  0  0  0  0  0
    1.4278   14.0166   42.3036 C   0  0  0  0  0  0  0  0  0  0  0  0
   -1.4430   15.9762   43.7005 C   0  0  0  0  0  0  0  0  0  0  0  0
    1.9614   18.3197   40.6271 C   0  0  0  0  0  0  0  0  0  0  0  0
    2.7801   18.5412   39.5182 C   0  0  0  0  0  0  0  0  0  0  0  0
    0.1318   19.0474   42.0915 N   0  0  0  0  0  0  0  0  0  0  0  0
    0.3840   16.6831   42.3918 N   0  0  0  0  0  0  0  0  0  0  0  0
    3.2450   20.9121   36.7817 O   0  0  0  0  0  0  0  0  0  0  0  0
    4.4033   19.0386   37.2221 O   0  0  0  0  0  0  0  0  0  0  0  0
    3.5713   17.5190   39.0504 O   0  0  0  0  0  0  0  0  0  0  0  0
   -1.8221   17.6349   43.4313 S   0  0  0  0  0  0  0  0  0  0  0  0
    1.8167   10.0649   42.5368 Cl  0  0  0  0  0  0  0  0  0  0  0  0
    1.8450   21.6737   38.7039 H   0  0  0  0  0  0  0  0  0  0  0  0
    0.1795   21.2168   40.4901 H   0  0  0  0  0  0  0  0  0  0  0  0
   -1.3973   13.3520   44.0770 H   0  0  0  0  0  0  0  0  0  0  0  0
   -0.4894   11.0368   43.8910 H   0  0  0  0  0  0  0  0  0  0  0  0
    2.8709   12.5409   41.6268 H   0  0  0  0  0  0  0  0  0  0  0  0
    1.9741   14.8573   41.8511 H   0  0  0  0  0  0  0  0  0  0  0  0
   -2.0616   15.2831   44.2896 H   0  0  0  0  0  0  0  0  0  0  0  0
    2.0141   17.3635   41.1684 H   0  0  0  0  0  0  0  0  0  0  0  0
   -0.3202   19.8843   42.4868 H   0  0  0  0  0  0  0  0  0  0  0  0
  1  2  1  0
  1 19  1  0
  1 20  2  0
  2  3  1  0
  2 16  2  0
  3  4  2  0
  4  5  1  0
  5 15  2  0
  5 17  1  0
  6 17  1  0
  6 18  2  0
  6 22  1  0
  7  8  1  0
  7 14  2  0
  7 18  1  0
  8  9  1  0
  8 13  2  0
  9 10  2  0
 10 11  1  0
 11 12  2  0
 11 23  1  0
 12 13  1  0
 14 22  1  0
 15 16  1  0
 16 21  1  0
  3 24  1  0
  4 25  1  0
  9 26  1  0
 10 27  1  0
 12 28  1  0
 13 29  1  0
 14 30  1  0
 15 31  1  0
 17 32  1  0
M  CHG  2  19  -1  21  -1
M  END
>  <mol_id>  (18) 
2026-08-24-6tgu-s0-n100-0018

>  <rmsd_to_ref>  (18) 
1.234693877551823

>  <pose_kind>  (18) 
rigid

$$$$
6tgu.A
     RDKit          3D

 32 34  0  0  0  0  0  0  0  0999 V2000
    3.3992   20.0257   37.7188 C   0  0  0  0  0  0  0  0  0  0  0  0
    2.7507   19.6556   39.0555 C   0  0  0  0  0  0  0  0  0  0  0  0
    1.8693   20.5344   39.6815 C   0  0  0  0  0  0  0  0  0  0  0  0
    1.1149   20.1589   40.7979 C   0  0  0  0  0  0  0  0  0  0  0  0
    1.3567   18.9308   41.4303 C   0  0  0  0  0  0  0  0  0  0  0  0
    0.2651   17.2550   43.0001 C   0  0  0  0  0  0  0  0  0  0  0  0
    0.4054   14.9917   43.1826 C   0  0  0  0  0  0  0  0  0  0  0  0
    0.9632   13.6691   42.8986 C   0  0  0  0  0  0  0  0  0  0  0  0
    0.3792   12.4942   43.3934 C   0  0  0  0  0  0  0  0  0  0  0  0
    0.9065   11.2445   43.0832 C   0  0  0  0  0  0  0  0  0  0  0  0
    1.9975   11.1765   42.2373 C   0  0  0  0  0  0  0  0  0  0  0  0
    2.6024   12.3125   41.7210 C   0  0  0  0  0  0  0  0  0  0  0  0
    2.0670   13.5541   42.0522 C   0  0  0  0  0  0  0  0  0  0  0  0
   -0.7046   15.2046   43.9565 C   0  0  0  0  0  0  0  0  0  0  0  0
    2.2325   18.0302   40.8073 C   0  0  0  0  0  0  0  0  0  0  0  0
    2.9109   18.4083   39.6473 C   0  0  0  0  0  0  0  0  0  0  0  0
    0.5522   18.5048   42.5315 N   0  0  0  0  0  0  0  0  0  0  0  0
    0.9324   16.1385   42.5430 N   0  0  0  0  0  0  0  0  0  0  0  0
    2.9668   21.0719   37.1515 O   0  0  0  0  0  0  0  0  0  0  0  0
    4.2425   19.2261   37.2572 O   0  0  0  0  0  0  0  0  0  0  0  0
    3.6850   17.4832   38.9879 O   0  0  0  0  0  0  0  0  0  0  0  0
   -1.1788   16.8602   43.9123 S   0  0  0  0  0  0  0  0  0  0  0  0
    2.6399    9.6254   41.8094 Cl  0  0  0  0  0  0  0  0  0  0  0  0
    1.7633   21.5551   39.2854 H   0  0  0  0  0  0  0  0  0  0  0  0
    0.3304   20.8283   41.1806 H   0  0  0  0  0  0  0  0  0  0  0  0
   -0.5101   12.5616   44.0372 H   0  0  0  0  0  0  0  0  0  0  0  0
    0.4640   10.3291   43.5029 H   0  0  0  0  0  0  0  0  0  0  0  0
    3.4830   12.2345   41.0664 H   0  0  0  0  0  0  0  0  0  0  0  0
    2.5240   14.4647   41.6376 H   0  0  0  0  0  0  0  0  0  0  0  0
   -1.2240   14.4226   44.5299 H   0  0  0  0  0  0  0  0  0  0  0  0
    2.3848   17.0271   41.2322 H   0  0  0  0  0  0  0  0  0  0  0  0
    0.1142   19.2711   43.0623 H   0  0  0  0  0  0  0  0  0  0  0  0
  1  2  1  0
  1 19  1  0
  1 20  2  0
  2  3  1  0
  2 16  2  0
  3  4  2  0
  4  5  1  0
  5 15  2  0
  5 17  1  0
  6 17  1  0
  6 18  2  0
  6 22  1  0
  7  8  1  0
  7 14  2  0
  7 18  1  0
  8  9  1  0
  8 13  2  0
  9 10  2  0
 10 11  1  0
 11 12  2  0
 11 23  1  0
 12 13  1  0
 14 22  1  0
 15 16  1  0
 16 21  1  0
  3 24  1  0
  4 25  1  0
  9 26  1  0
 10 27  1  0
 12 28  1  0
 13 29  1  0
 14 30  1  0
 15 31  1  0
 17 32  1  0
M  CHG  2  19  -1  21  -1
M  END
>  <mol_id>  (19) 
2026-08-24-6tgu-s0-n100-0019

>  <rmsd_to_ref>  (19) 
1.2806122449024493

>  <pose_kind>  (19) 
rigid

$$$$
6tgu.A
     RDKit          3D

 32 34  0  0  0  0  0  0  0  0999 V2000
    3.0947   20.6011   36.7887 C   0  0  0  0  0  0  0  0  0  0  0  0
    2.8063   20.2724   38.1797 C   0  0  0  0  0  0  0  0  0  0  0  0
    1.8645   20.9879   38.8473 C   0  0  0  0  0  0  0  0  0  0  0  0
    1.5527   20.6803   40.1468 C   0  0  0  0  0  0  0  0  0  0  0  0
    2.2267   19.6288   40.7419 C   0  0  0  0  0  0  0  0  0  0  0  0
    1.1596   18.0743   42.2524 C   0  0  0  0  0  0  0  0  0  0  0  0
    0.1536   16.0709   42.4621 C   0  0  0  0  0  0  0  0  0  0  0  0
    0.2386   14.6957   43.0107 C   0  0  0  0  0  0  0  0  0  0  0  0
    1.3211   14.2457   43.7262 C   0  0  0  0  0  0  0  0  0  0  0  0
    1.3616   12.9594   44.2239 C   0  0  0  0  0  0  0  0  0  0  0  0
    0.3211   12.0784   44.0218 C   0  0  0  0  0  0  0  0  0  0  0  0
   -0.7901   12.5169   43.2933 C   0  0  0  0  0  0  0  0  0  0  0  0
   -0.8028   13.8070   42.8106 C   0  0  0  0  0  0  0  0  0  0  0  0
   -0.9393   16.4938   41.7757 C   0  0  0  0  0  0  0  0  0  0  0  0
    3.1880   18.8782   40.1053 C   0  0  0  0  0  0  0  0  0  0  0  0
    3.4799   19.2112   38.7970 C   0  0  0  0  0  0  0  0  0  0  0  0
    1.8083   19.3549   42.1052 N   0  0  0  0  0  0  0  0  0  0  0  0
    1.0953   16.9857   42.6017 N   0  0  0  0  0  0  0  0  0  0  0  0
    4.0118   19.9344   36.0002 O   0  0  0  0  0  0  0  0  0  0  0  0
    2.4746   21.5642   36.2329 O   0  0  0  0  0  0  0  0  0  0  0  0
    4.4386   18.5138   38.0680 O   0  0  0  0  0  0  0  0  0  0  0  0
   -0.5437   18.2381   41.3577 S   0  0  0  0  0  0  0  0  0  0  0  0
    0.3217   10.4335   44.6297 Cl  0  0  0  0  0  0  0  0  0  0  0  0
    1.3283   21.8231   38.3855 H   0  0  0  0  0  0  0  0  0  0  0  0
    0.7966   21.2446   40.6941 H   0  0  0  0  0  0  0  0  0  0  0  0
    2.1622   14.9348   43.9028 H   0  0  0  0  0  0  0  0  0  0  0  0
    2.2290   12.6389   44.7966 H   0  0  0  0  0  0  0  0  0  0  0  0
   -1.6355   11.8737   43.1044 H   0  0  0  0  0  0  0  0  0  0  0  0
   -1.6487   14.1280   42.2556 H   0  0  0  0  0  0  0  0  0  0  0  0
   -1.8933   16.0110   41.4744 H   0  0  0  0  0  0  0  0  0  0  0  0
    3.6871   18.0637   40.6079 H   0  0  0  0  0  0  0  0  0  0  0  0
    1.9697   20.0140   42.8729 H   0  0  0  0  0  0  0  0  0  0  0  0
  1  2  1  0
  1 19  1  0
  1 20  2  0
  2  3  1  0
  2 16  2  0
  3  4  2  0
  4  5  1  0
  5 15  2  0
  5 17  1  0
  6 17  1  0
  6 18  2  0
  6 22  1  0
  7  8  1  0
  7 14  2  0
  7 18  1  0
  8  9  1  0
  8 13  2  0
  9 10  2  0
 10 11  1  0
 11 12  2  0
 11 23  1  0
 12 13  1  0
 14 22  1  0
 15 16  1  0
 16 21  1  0
  3 24  1  0
  4 25  1  0
  9 26  1  0
 10 27  1  0
 12 28  1  0
 13 29  1  0
 14 30  1  0
 15 31  1  0
 17 32  1  0
M  CHG  2  19  -1  21  -1
M  END
>  <mol_id>  (20) 
2026-08-24-6tgu-s0-n100-0020

>  <rmsd_to_ref>  (20) 
1.3265306122453

>  <pose_kind>  (20) 
conformer

$$$$
6tgu.A
     RDKit          3D

 32 34  0  0  0  0  0  0  0  0999 V2000
    3.1111   19.9775   36.6618 C   0  0  0  0  0  0  0  0  0  0  0  0
    2.6220   19.7829   38.0997 C   0  0  0  0  0  0  0  0  0  0  0  0
    1.8771   20.7748   38.7336 C   0  0  0  0  0  0  0  0  0  0  0  0
    1.2544   20.5606   39.9677 C   0  0  0  0  0  0  0  0  0  0  0  0
    1.5100   19.3865   40.6909 C   0  0  0  0  0  0  0  0  0  0  0  0
    0.5428   17.9475   42.5502 C   0  0  0  0  0  0  0  0  0  0  0  0
    0.5846   15.7084   42.9507 C   0  0  0  0  0  0  0  0  0  0  0  0
    1.0296   14.3304   42.7404 C   0  0  0  0  0  0  0  0  0  0  0  0
    0.4526   13.2505   43.4239 C   0  0  0  0  0  0  0  0  0  0  0  0
    0.8680   11.9445   43.1839 C   0  0  0  0  0  0  0  0  0  0  0  0
    1.8352   11.7222   42.2219 C   0  0  0  0  0  0  0  0  0  0  0  0
    2.4281   12.7601   41.5187 C   0  0  0  0  0  0  0  0  0  0  0  0
    2.0070   14.0607   41.7811 C   0  0  0  0  0  0  0  0  0  0  0  0
   -0.4032   16.0686   43.8287 C   0  0  0  0  0  0  0  0  0  0  0  0
    2.2487   18.3736   40.0627 C   0  0  0  0  0  0  0  0  0  0  0  0
    2.7906   18.5913   38.7947 C   0  0  0  0  0  0  0  0  0  0  0  0
    0.8331   19.1240   41.9213 N   0  0  0  0  0  0  0  0  0  0  0  0
    1.0849   16.7501   42.1341 N   0  0  0  0  0  0  0  0  0  0  0  0
    2.6655   20.9897   36.0455 O   0  0  0  0  0  0  0  0  0  0  0  0
    3.8438   19.0826   36.1863 O   0  0  0  0  0  0  0  0  0  0  0  0
    3.4225   17.5572   38.1457 O   0  0  0  0  0  0  0  0  0  0  0  0
   -0.7900   17.7398   43.6698 S   0  0  0  0  0  0  0  0  0  0  0  0
    2.3332   10.0978   41.8832 Cl  0  0  0  0  0  0  0  0  0  0  0  0
    1.7754   21.7569   38.2487 H   0  0  0  0  0  0  0  0  0  0  0  0
    0.5629   21.3146   40.3718 H   0  0  0  0  0  0  0  0  0  0  0  0
   -0.3412   13.4390   44.1617 H   0  0  0  0  0  0  0  0  0  0  0  0
    0.4352   11.1055   43.7486 H   0  0  0  0  0  0  0  0  0  0  0  0
    3.2112   12.5606   40.7724 H   0  0  0  0  0  0  0  0  0  0  0  0
    2.4545   14.8944   41.2203 H   0  0  0  0  0  0  0  0  0  0  0  0
   -0.8850   15.3822   44.5405 H   0  0  0  0  0  0  0  0  0  0  0  0
    2.4009   17.4086   40.5685 H   0  0  0  0  0  0  0  0  0  0  0  0
    0.5089   19.9656   42.4187 H   0  0  0  0  0  0  0  0  0  0  0  0
  1  2  1  0
  1 19  1  0
  1 20  2  0
  2  3  1  0
  2 16  2  0
  3  4  2  0
  4  5  1  0
  5 15  2  0
  5 17  1  0
  6 17  1  0
  6 18  2  0
  6 22  1  0
  7  8  1  0
  7 14  2  0
  7 18  1  0
  8  9  1  0
  8 13  2  0
  9 10  2  0
 10 11  1  0
 11 12  2  0
 11 23  1  0
 12 13  1  0
 14 22  1  0
 15 16  1  0
 16 21  1  0
  3 24  1  0
  4 25  1  0
  9 26  1  0
 10 27  1  0
 12 28  1  0
 13 29  1  0
 14 30  1  0
 15 31  1  0
 17 32  1  0
M  CHG  2  19  -1  21  -1
M  END
>  <mol_id>  (21) 
2026-08-24-6tgu-s0-n100-0021

>  <rmsd_to_ref>  (21) 
1.3724489796003692

>  <pose_kind>  (21) 
rigid

$$$$
6tgu.A
     RDKit          3D

 32 34  0  0  0  0  0  0  0  0999 V2000
    3.2119   20.7071   37.0713 C   0  0  0  0  0  0  0  0  0  0  0  0
    2.9974   20.2190   38.4285 C   0  0  0  0  0  0  0  0  0  0  0  0
    2.1119   20.8638   39.2314 C   0  0  0  0  0  0  0  0  0  0  0  0
    1.8690   20.4080   40.5019 C   0  0  0  0  0  0  0  0  0  0  0  0
    2.5530   19.2830   40.9268 C   0  0  0  0  0  0  0  0  0  0  0  0
    1.5408   17.5755   42.3041 C   0  0  0  0  0  0  0  0  0  0  0  0
    0.5045   15.5769   42.3355 C   0  0  0  0  0  0  0  0  0  0  0  0
    0.5908   14.1449   42.7114 C   0  0  0  0  0  0  0  0  0  0  0  0
    1.7026   13.5963   43.3023 C   0  0  0  0  0  0  0  0  0  0  0  0
    1.7433   12.2594   43.6409 C   0  0  0  0  0  0  0  0  0  0  0  0
    0.6736   11.4246   43.3990 C   0  0  0  0  0  0  0  0  0  0  0  0
   -0.4680   11.9638   42.7956 C   0  0  0  0  0  0  0  0  0  0  0  0
   -0.4800   13.3022   42.4706 C   0  0  0  0  0  0  0  0  0  0  0  0
   -0.6166   16.0952   41.7709 C   0  0  0  0  0  0  0  0  0  0  0  0
    3.4589   18.5992   40.1492 C   0  0  0  0  0  0  0  0  0  0  0  0
    3.6819   19.0815   38.8743 C   0  0  0  0  0  0  0  0  0  0  0  0
    2.2081   18.8545   42.2707 N   0  0  0  0  0  0  0  0  0  0  0  0
    1.4728   16.4541   42.5255 N   0  0  0  0  0  0  0  0  0  0  0  0
    4.0669   20.1255   36.1558 O   0  0  0  0  0  0  0  0  0  0  0  0
    2.5821   21.7389   36.6717 O   0  0  0  0  0  0  0  0  0  0  0  0
    4.5811   18.4618   38.0116 O   0  0  0  0  0  0  0  0  0  0  0  0
   -0.2073   17.8706   41.5392 S   0  0  0  0  0  0  0  0  0  0  0  0
    0.6728    9.7191   43.8069 Cl  0  0  0  0  0  0  0  0  0  0  0  0
    1.5685   21.7563   38.9048 H   0  0  0  0  0  0  0  0  0  0  0  0
    1.1588   20.9144   41.1564 H   0  0  0  0  0  0  0  0  0  0  0  0
    2.5676   14.2466   43.5081 H   0  0  0  0  0  0  0  0  0  0  0  0
    2.6350   11.8597   44.1186 H   0  0  0  0  0  0  0  0  0  0  0  0
   -1.3370   11.3605   42.5832 H   0  0  0  0  0  0  0  0  0  0  0  0
   -1.3494   13.7000   42.0094 H   0  0  0  0  0  0  0  0  0  0  0  0
   -1.5969   15.6664   41.4725 H   0  0  0  0  0  0  0  0  0  0  0  0
    3.9681   17.7231   40.5209 H   0  0  0  0  0  0  0  0  0  0  0  0
    2.4284   19.4147   43.0998 H   0  0  0  0  0  0  0  0  0  0  0  0
  1  2  1  0
  1 19  1  0
  1 20  2  0
  2  3  1  0
  2 16  2  0
  3  4  2  0
  4  5  1  0
  5 15  2  0
  5 17  1  0
  6 17  1  0
  6 18  2  0
  6 22  1  0
  7  8  1  0
  7 14  2  0
  7 18  1  0
  8  9  1  0
  8 13  2  0
  9 10  2  0
 10 11  1  0
 11 12  2  0
 11 23  1  0
 12 13  1  0
 14 22  1  0
 15 16  1  0
 16 21  1  0
  3 24  1  0
  4 25  1  0
  9 26  1  0
 10 27  1  0
 12 28  1  0
 13 29  1  0
 14 30  1  0
 15 31  1  0
 17 32  1  0
M  CHG  2  19  -1  21  -1
M  END
>  <mol_id>  (22) 
2026-08-24-6tgu-s0-n100-0022

>  <rmsd_to_ref>  (22) 
1.418367346939807

>  <pose_kind>  (22) 
conformer

$$$$
6tgu.A
     RDKit          3D

 32 34  0  0  0  0  0  0  0  0999 V2000
    3.4561   19.6092   36.9280 C   0  0  0  0  0  0  0  0  0  0  0  0
    2.9378   19.5986   38.3688 C   0  0  0  0  0  0  0  0  0  0  0  0
    2.4289   20.7600   38.9459 C   0  0  0  0  0  0  0  0  0  0  0  0
    1.7758   20.7492   40.1827 C   0  0  0  0  0  0  0  0  0  0  0  0
    1.7689   19.5853   40.9652 C   0  0  0  0  0  0  0  0  0  0  0  0
    0.5120   18.4877   42.8833 C   0  0  0  0  0  0  0  0  0  0  0  0
    0.0630   16.3167   43.3936 C   0  0  0  0  0  0  0  0  0  0  0  0
    0.1952   14.8659   43.2558 C   0  0  0  0  0  0  0  0  0  0  0  0
   -0.6034   13.9741   43.9857 C   0  0  0  0  0  0  0  0  0  0  0  0
   -0.4844   12.5984   43.8143 C   0  0  0  0  0  0  0  0  0  0  0  0
    0.4097   12.1222   42.8740 C   0  0  0  0  0  0  0  0  0  0  0  0
    1.2147   12.9686   42.1266 C   0  0  0  0  0  0  0  0  0  0  0  0
    1.0889   14.3413   42.3206 C   0  0  0  0  0  0  0  0  0  0  0  0
   -0.8210   16.9277   44.2431 C   0  0  0  0  0  0  0  0  0  0  0  0
    2.2670   18.4053   40.3949 C   0  0  0  0  0  0  0  0  0  0  0  0
    2.8421   18.4353   39.1231 C   0  0  0  0  0  0  0  0  0  0  0  0
    1.0522   19.5392   42.2003 N   0  0  0  0  0  0  0  0  0  0  0  0
    0.7784   17.1814   42.5319 N   0  0  0  0  0  0  0  0  0  0  0  0
    3.2421   20.6623   36.2584 O   0  0  0  0  0  0  0  0  0  0  0  0
    3.9746   18.5530   36.5044 O   0  0  0  0  0  0  0  0  0  0  0  0
    3.2316   17.2569   38.5320 O   0  0  0  0  0  0  0  0  0  0  0  0
   -0.8328   18.6330   43.9985 S   0  0  0  0  0  0  0  0  0  0  0  0
    0.5396   10.4132   42.6205 Cl  0  0  0  0  0  0  0  0  0  0  0  0
    2.5442   21.7149   38.4123 H   0  0  0  0  0  0  0  0  0  0  0  0
    1.2664   21.6554   40.5424 H   0  0  0  0  0  0  0  0  0  0  0  0
   -1.3359   14.3683   44.7055 H   0  0  0  0  0  0  0  0  0  0  0  0
   -1.0896   11.9037   44.4152 H   0  0  0  0  0  0  0  0  0  0  0  0
    1.9343   12.5655   41.3988 H   0  0  0  0  0  0  0  0  0  0  0  0
    1.7074   15.0279   41.7238 H   0  0  0  0  0  0  0  0  0  0  0  0
   -1.4407   16.4000   44.9829 H   0  0  0  0  0  0  0  0  0  0  0  0
    2.2049   17.4569   40.9489 H   0  0  0  0  0  0  0  0  0  0  0  0
    0.9207   20.4552   42.6525 H   0  0  0  0  0  0  0  0  0  0  0  0
  1  2  1  0
  1 19  1  0
  1 20  2  0
  2  3  1  0
  2 16  2  0
  3  4  2  0
  4  5  1  0
  5 15  2  0
  5 17  1  0
  6 17  1  0
  6 18  2  0
  6 22  1  0
  7  8  1  0
  7 14  2  0
  7 18  1  0
  8  9  1  0
  8 13  2  0
  9 10  2  0
 10 11  1  0
 11 12  2  0
 11 23  1  0
 12 13  1  0
 14 22  1  0
 15 16  1  0
 16 21  1  0
  3 24  1  0
  4 25  1  0
  9 26  1  0
 10 27  1  0
 12 28  1  0
 13 29  1  0
 14 30  1  0
 15 31  1  0
 17 32  1  0
M  CHG  2  19  -1  21  -1
M  END
>  <mol_id>  (23) 
2026-08-24-6tgu-s0-n100-0023

>  <rmsd_to_ref>  (23) 
1.4642857142957943

>  <pose_kind>  (23) 
rigid

$$$$
6tgu.A
     RDKit          3D

 32 34  0  0  0  0  0  0  0  0999 V2000
    2.8657   20.3373   37.7794 C   0  0  0  0  0  0  0  0  0  0  0  0
    2.6085   19.8753   39.1382 C   0  0  0  0  0  0  0  0  0  0  0  0
    1.5850   20.4252   39.8415 C   0  0  0  0  0  0  0  0  0  0  0  0
    1.3025   19.9881   41.1104 C   0  0  0  0  0  0  0  0  0  0  0  0
    2.0909   18.9809   41.6377 C   0  0  0  0  0  0  0  0  0  0  0  0
    1.2027   17.2055   43.0146 C   0  0  0  0  0  0  0  0  0  0  0  0
    0.4365   15.0890   43.0627 C   0  0  0  0  0  0  0  0  0  0  0  0
    0.6781   13.6961   43.5111 C   0  0  0  0  0  0  0  0  0  0  0  0
    1.8009   13.3232   44.2086 C   0  0  0  0  0  0  0  0  0  0  0  0
    1.9882   12.0170   44.6120 C   0  0  0  0  0  0  0  0  0  0  0  0
    1.0593   11.0386   44.3304 C   0  0  0  0  0  0  0  0  0  0  0  0
   -0.0907   11.3977   43.6188 C   0  0  0  0  0  0  0  0  0  0  0  0
   -0.2509   12.7097   43.2310 C   0  0  0  0  0  0  0  0  0  0  0  0
   -0.6938   15.4317   42.3922 C   0  0  0  0  0  0  0  0  0  0  0  0
    3.1376   18.3962   40.9630 C   0  0  0  0  0  0  0  0  0  0  0  0
    3.3973   18.8566   39.6869 C   0  0  0  0  0  0  0  0  0  0  0  0
    1.6981   18.5602   42.9708 N   0  0  0  0  0  0  0  0  0  0  0  0
    1.2638   16.0940   43.2829 N   0  0  0  0  0  0  0  0  0  0  0  0
    3.8599   19.8418   36.9586 O   0  0  0  0  0  0  0  0  0  0  0  0
    2.1410   21.2603   37.2857 O   0  0  0  0  0  0  0  0  0  0  0  0
    4.4359   18.3313   38.9240 O   0  0  0  0  0  0  0  0  0  0  0  0
   -0.5020   17.2361   42.1082 S   0  0  0  0  0  0  0  0  0  0  0  0
    1.2481    9.3643   44.8171 Cl  0  0  0  0  0  0  0  0  0  0  0  0
    0.9579   21.2244   39.4336 H   0  0  0  0  0  0  0  0  0  0  0  0
    0.4820   20.4189   41.6855 H   0  0  0  0  0  0  0  0  0  0  0  0
    2.5545   14.0904   44.4475 H   0  0  0  0  0  0  0  0  0  0  0  0
    2.8833   11.7579   45.1731 H   0  0  0  0  0  0  0  0  0  0  0  0
   -0.8537   10.6765   43.3708 H   0  0  0  0  0  0  0  0  0  0  0  0
   -1.1248   12.9704   42.6880 H   0  0  0  0  0  0  0  0  0  0  0  0
   -1.5826   14.8650   42.0421 H   0  0  0  0  0  0  0  0  0  0  0  0
    3.7251   17.6103   41.4126 H   0  0  0  0  0  0  0  0  0  0  0  0
    1.7762   19.1749   43.7868 H   0  0  0  0  0  0  0  0  0  0  0  0
  1  2  1  0
  1 19  1  0
  1 20  2  0
  2  3  1  0
  2 16  2  0
  3  4  2  0
  4  5  1  0
  5 15  2  0
  5 17  1  0
  6 17  1  0
  6 18  2  0
  6 22  1  0
  7  8  1  0
  7 14  2  0
  7 18  1  0
  8  9  1  0
  8 13  2  0
  9 10  2  0
 10 11  1  0
 11 12  2  0
 11 23  1  0
 12 13  1  0
 14 22  1  0
 15 16  1  0
 16 21  1  0
  3 24  1  0
  4 25  1  0
  9 26  1  0
 10 27  1  0
 12 28  1  0
 13 29  1  0
 14 30  1  0
 15 31  1  0
 17 32  1  0
M  CHG  2  19  -1  21  -1
M  END
>  <mol_id>  (24) 
2026-08-24-6tgu-s0-n100-0024

>  <rmsd_to_ref>  (24) 
1.510204081635661

>  <pose_kind>  (24) 
conformer

$$$$
6tgu.A
     RDKit          3D

 32 34  0  0  0  0  0  0  0  0999 V2000
    2.9686   21.1634   36.9459 C   0  0  0  0  0  0  0  0  0  0  0  0
    2.4836   20.5944   38.2823 C   0  0  0  0  0  0  0  0  0  0  0  0
    1.6395   21.3389   39.1032 C   0  0  0  0  0  0  0  0  0  0  0  0
    1.0259   20.7865   40.2323 C   0  0  0  0  0  0  0  0  0  0  0  0
    1.3846   19.5040   40.6720 C   0  0  0  0  0  0  0  0  0  0  0  0
    0.5382   17.5886   42.1135 C   0  0  0  0  0  0  0  0  0  0  0  0
    0.7901   15.3311   41.9855 C   0  0  0  0  0  0  0  0  0  0  0  0
    1.3678   14.0866   41.4769 C   0  0  0  0  0  0  0  0  0  0  0  0
    0.8893   12.8292   41.8717 C   0  0  0  0  0  0  0  0  0  0  0  0
    1.4310   11.6586   41.3500 C   0  0  0  0  0  0  0  0  0  0  0  0
    2.4263   11.7562   40.3959 C   0  0  0  0  0  0  0  0  0  0  0  0
    2.9250   12.9789   39.9727 C   0  0  0  0  0  0  0  0  0  0  0  0
    2.3778   14.1385   40.5150 C   0  0  0  0  0  0  0  0  0  0  0  0
   -0.2378   15.3850   42.8893 C   0  0  0  0  0  0  0  0  0  0  0  0
    2.2243   18.7373   39.8516 C   0  0  0  0  0  0  0  0  0  0  0  0
    2.7576   19.2936   38.6875 C   0  0  0  0  0  0  0  0  0  0  0  0
    0.7216   18.9008   41.7845 N   0  0  0  0  0  0  0  0  0  0  0  0
    1.1977   16.5758   41.4500 N   0  0  0  0  0  0  0  0  0  0  0  0
    2.4350   22.2469   36.5661 O   0  0  0  0  0  0  0  0  0  0  0  0
    3.7894   20.4746   36.3010 O   0  0  0  0  0  0  0  0  0  0  0  0
    3.4935   18.5016   37.8384 O   0  0  0  0  0  0  0  0  0  0  0  0
   -0.7816   17.0049   43.1089 S   0  0  0  0  0  0  0  0  0  0  0  0
    3.0819   10.3080   39.7072 Cl  0  0  0  0  0  0  0  0  0  0  0  0
    1.4497   22.3938   38.8559 H   0  0  0  0  0  0  0  0  0  0  0  0
    0.2603   21.3591   40.7764 H   0  0  0  0  0  0  0  0  0  0  0  0
    0.0725   12.7672   42.6059 H   0  0  0  0  0  0  0  0  0  0  0  0
    1.0743   10.6751   41.6899 H   0  0  0  0  0  0  0  0  0  0  0  0
    3.7323   13.0314   39.2274 H   0  0  0  0  0  0  0  0  0  0  0  0
    2.7497   15.1174   40.1779 H   0  0  0  0  0  0  0  0  0  0  0  0
   -0.6599   14.5104   43.4060 H   0  0  0  0  0  0  0  0  0  0  0  0
    2.4625   17.6988   40.1249 H   0  0  0  0  0  0  0  0  0  0  0  0
    0.3122   19.5698   42.4521 H   0  0  0  0  0  0  0  0  0  0  0  0
  1  2  1  0
  1 19  1  0
  1 20  2  0
  2  3  1  0
  2 16  2  0
  3  4  2  0
  4  5  1  0
  5 15  2  0
  5 17  1  0
  6 17  1  0
  6 18  2  0
  6 22  1  0
  7  8  1  0
  7 14  2  0
  7 18  1  0
  8  9  1  0
  8 13  2  0
  9 10  2  0
 10 11  1  0
 11 12  2  0
 11 23  1  0
 12 13  1  0
 14 22  1  0
 15 16  1  0
 16 21  1  0
  3 24  1  0
  4 25  1  0
  9 26  1  0
 10 27  1  0
 12 28  1  0
 13 29  1  0
 14 30  1  0
 15 31  1  0
 17 32  1  0
M  CHG  2  19  -1  21  -1
M  END
>  <mol_id>  (25) 
2026-08-24-6tgu-s0-n100-0025

>  <rmsd_to_ref>  (25) 
1.5561224489799013

>  <pose_kind>  (25) 
rigid

$$$$
6tgu.A
     RDKit          3D

 32 34  0  0  0  0  0  0  0  0999 V2000
    2.6235   20.8929   37.1271 C   0  0  0  0  0  0  0  0  0  0  0  0
    2.5867   20.4456   38.5144 C   0  0  0  0  0  0  0  0  0  0  0  0
    1.8970   21.1771   39.4276 C   0  0  0  0  0  0  0  0  0  0  0  0
    1.8214   20.7630   40.7328 C   0  0  0  0  0  0  0  0  0  0  0  0
    2.4672   19.5889   41.0770 C   0  0  0  0  0  0  0  0  0  0  0  0
    1.5466   17.9969   42.6438 C   0  0  0  0  0  0  0  0  0  0  0  0
    0.3645   16.0971   42.8939 C   0  0  0  0  0  0  0  0  0  0  0  0
    0.3887   14.6687   43.2922 C   0  0  0  0  0  0  0  0  0  0  0  0
    1.5302   14.0339   43.7169 C   0  0  0  0  0  0  0  0  0  0  0  0
    1.5118   12.7036   44.0828 C   0  0  0  0  0  0  0  0  0  0  0  0
    0.3511   11.9621   44.0352 C   0  0  0  0  0  0  0  0  0  0  0  0
   -0.8224   12.5898   43.6032 C   0  0  0  0  0  0  0  0  0  0  0  0
   -0.7735   13.9193   43.2461 C   0  0  0  0  0  0  0  0  0  0  0  0
   -0.7846   16.7029   42.4976 C   0  0  0  0  0  0  0  0  0  0  0  0
    3.1777   18.8172   40.1868 C   0  0  0  0  0  0  0  0  0  0  0  0
    3.2354   19.2594   38.8795 C   0  0  0  0  0  0  0  0  0  0  0  0
    2.3051   19.2121   42.4700 N   0  0  0  0  0  0  0  0  0  0  0  0
    1.4207   16.8891   42.9049 N   0  0  0  0  0  0  0  0  0  0  0  0
    3.2707   20.2255   36.1058 O   0  0  0  0  0  0  0  0  0  0  0  0
    2.0271   21.9698   36.8020 O   0  0  0  0  0  0  0  0  0  0  0  0
    3.9312   18.5509   37.9046 O   0  0  0  0  0  0  0  0  0  0  0  0
   -0.2697   18.4322   42.1542 S   0  0  0  0  0  0  0  0  0  0  0  0
    0.2719   10.2693   44.4865 Cl  0  0  0  0  0  0  0  0  0  0  0  0
    1.3855   22.1086   39.1650 H   0  0  0  0  0  0  0  0  0  0  0  0
    1.2688   21.3391   41.4760 H   0  0  0  0  0  0  0  0  0  0  0  0
    2.4684   14.6093   43.7662 H   0  0  0  0  0  0  0  0  0  0  0  0
    2.4314   12.2348   44.4259 H   0  0  0  0  0  0  0  0  0  0  0  0
   -1.7616   12.0618   43.5467 H   0  0  0  0  0  0  0  0  0  0  0  0
   -1.6685   14.3845   42.9157 H   0  0  0  0  0  0  0  0  0  0  0  0
   -1.8323   16.3569   42.3688 H   0  0  0  0  0  0  0  0  0  0  0  0
    3.6641   17.9056   40.4989 H   0  0  0  0  0  0  0  0  0  0  0  0
    2.7002   19.7631   43.2382 H   0  0  0  0  0  0  0  0  0  0  0  0
  1  2  1  0
  1 19  1  0
  1 20  2  0
  2  3  1  0
  2 16  2  0
  3  4  2  0
  4  5  1  0
  5 15  2  0
  5 17  1  0
  6 17  1  0
  6 18  2  0
  6 22  1  0
  7  8  1  0
  7 14  2  0
  7 18  1  0
  8  9  1  0
  8 13  2  0
  9 10  2  0
 10 11  1  0
 11 12  2  0
 11 23  1  0
 12 13  1  0
 14 22  1  0
 15 16  1  0
 16 21  1  0
  3 24  1  0
  4 25  1  0
  9 26  1  0
 10 27  1  0
 12 28  1  0
 13 29  1  0
 14 30  1  0
 15 31  1  0
 17 32  1  0
M  CHG  2  19  -1  21  -1
M  END
>  <mol_id>  (26) 
2026-08-24-6tgu-s0-n100-0026

>  <rmsd_to_ref>  (26) 
1.6020408163296143

>  <pose_kind>  (26) 
conformer

$$$$
6tgu.A
     RDKit          3D

 32 34  0  0  0  0  0  0  0  0999 V2000
    3.0230   19.1781   36.9206 C   0  0  0  0  0  0  0  0  0  0  0  0
    2.5790   19.2945   38.3815 C   0  0  0  0  0  0  0  0  0  0  0  0
    2.0401   20.4850   38.8641 C   0  0  0  0  0  0  0  0  0  0  0  0
    1.4513   20.5735   40.1298 C   0  0  0  0  0  0  0  0  0  0  0  0
    1.5441   19.4990   41.0262 C   0  0  0  0  0  0  0  0  0  0  0  0
    0.4440   18.5513   43.1129 C   0  0  0  0  0  0  0  0  0  0  0  0
    0.1344   16.4271   43.8665 C   0  0  0  0  0  0  0  0  0  0  0  0
    0.3348   14.9776   43.8705 C   0  0  0  0  0  0  0  0  0  0  0  0
   -0.3788   14.1310   44.7309 C   0  0  0  0  0  0  0  0  0  0  0  0
   -0.1971   12.7520   44.6946 C   0  0  0  0  0  0  0  0  0  0  0  0
    0.6721   12.2219   43.7599 C   0  0  0  0  0  0  0  0  0  0  0  0
    1.3935   13.0218   42.8865 C   0  0  0  0  0  0  0  0  0  0  0  0
    1.2063   14.4001   42.9459 C   0  0  0  0  0  0  0  0  0  0  0  0
   -0.7362   17.0821   44.6968 C   0  0  0  0  0  0  0  0  0  0  0  0
    2.0737   18.2901   40.5528 C   0  0  0  0  0  0  0  0  0  0  0  0
    2.5819   18.2135   39.2548 C   0  0  0  0  0  0  0  0  0  0  0  0
    0.8937   19.5493   42.2974 N   0  0  0  0  0  0  0  0  0  0  0  0
    0.7598   17.2291   42.8827 N   0  0  0  0  0  0  0  0  0  0  0  0
    2.7214   20.1441   36.1597 O   0  0  0  0  0  0  0  0  0  0  0  0
    3.5738   18.1086   36.5791 O   0  0  0  0  0  0  0  0  0  0  0  0
    3.0019   16.9989   38.7666 O   0  0  0  0  0  0  0  0  0  0  0  0
   -0.8490   18.7499   44.2802 S   0  0  0  0  0  0  0  0  0  0  0  0
    0.8778   10.5037   43.6755 Cl  0  0  0  0  0  0  0  0  0  0  0  0
    2.0786   21.3831   38.2301 H   0  0  0  0  0  0  0  0  0  0  0  0
    0.9143   21.4878   40.4225 H   0  0  0  0  0  0  0  0  0  0  0  0
   -1.0937   14.5641   45.4460 H   0  0  0  0  0  0  0  0  0  0  0  0
   -0.7346   12.0967   45.3959 H   0  0  0  0  0  0  0  0  0  0  0  0
    2.0957   12.5785   42.1650 H   0  0  0  0  0  0  0  0  0  0  0  0
    1.7577   15.0482   42.2489 H   0  0  0  0  0  0  0  0  0  0  0  0
   -1.2898   16.6064   45.5198 H   0  0  0  0  0  0  0  0  0  0  0  0
    2.0888   17.4033   41.2034 H   0  0  0  0  0  0  0  0  0  0  0  0
    0.7377   20.5006   42.6601 H   0  0  0  0  0  0  0  0  0  0  0  0
  1  2  1  0
  1 19  1  0
  1 20  2  0
  2  3  1  0
  2 16  2  0
  3  4  2  0
  4  5  1  0
  5 15  2  0
  5 17  1  0
  6 17  1  0
  6 18  2  0
  6 22  1  0
  7  8  1  0
  7 14  2  0
  7 18  1  0
  8  9  1  0
  8 13  2  0
  9 10  2  0
 10 11  1  0
 11 12  2  0
 11 23  1  0
 12 13  1  0
 14 22  1  0
 15 16  1  0
 16 21  1  0
  3 24  1  0
  4 25  1  0
  9 26  1  0
 10 27  1  0
 12 28  1  0
 13 29  1  0
 14 30  1  0
 15 31  1  0
 17 32  1  0
M  CHG  2  19  -1  21  -1
M  END
>  <mol_id>  (27) 
2026-08-24-6tgu-s0-n100-0027

>  <rmsd_to_ref>  (27) 
1.647959183682618

>  <pose_kind>  (27) 
rigid

$$$$
6tgu.A
     RDKit          3D

 32 34  0  0  0  0  0  0  0  0999 V2000
    3.0395   20.1467   36.7682 C   0  0  0  0  0  0  0  0  0  0  0  0
    2.7766   19.8575   38.1730 C   0  0  0  0  0  0  0  0  0  0  0  0
    1.8322   20.5781   38.8315 C   0  0  0  0  0  0  0  0  0  0  0  0
    1.5441   20.3068   40.1445 C   0  0  0  0  0  0  0  0  0  0  0  0
    2.2442   19.2860   40.7624 C   0  0  0  0  0  0  0  0  0  0  0  0
    1.2251   17.7627   42.3365 C   0  0  0  0  0  0  0  0  0  0  0  0
    0.2563   15.7506   42.6239 C   0  0  0  0  0  0  0  0  0  0  0  0
    0.3725   14.3951   43.2141 C   0  0  0  0  0  0  0  0  0  0  0  0
    1.4726   13.9859   43.9276 C   0  0  0  0  0  0  0  0  0  0  0  0
    1.5419   12.7169   44.4648 C   0  0  0  0  0  0  0  0  0  0  0  0
    0.5139   11.8129   44.3057 C   0  0  0  0  0  0  0  0  0  0  0  0
   -0.6149   12.2097   43.5802 C   0  0  0  0  0  0  0  0  0  0  0  0
   -0.6564   13.4833   43.0575 C   0  0  0  0  0  0  0  0  0  0  0  0
   -0.8532   16.1335   41.9406 C   0  0  0  0  0  0  0  0  0  0  0  0
    3.2090   18.5315   40.1357 C   0  0  0  0  0  0  0  0  0  0  0  0
    3.4767   18.8276   38.8134 C   0  0  0  0  0  0  0  0  0  0  0  0
    1.8497   19.0485   42.1396 N   0  0  0  0  0  0  0  0  0  0  0  0
    1.1844   16.6848   42.7208 N   0  0  0  0  0  0  0  0  0  0  0  0
    3.9567   19.4707   35.9877 O   0  0  0  0  0  0  0  0  0  0  0  0
    2.3953   21.0813   36.1916 O   0  0  0  0  0  0  0  0  0  0  0  0
    4.4367   18.1236   38.0928 O   0  0  0  0  0  0  0  0  0  0  0  0
   -0.4931   17.8698   41.4623 S   0  0  0  0  0  0  0  0  0  0  0  0
    0.5509   10.1883   44.9651 Cl  0  0  0  0  0  0  0  0  0  0  0  0
    1.2754   21.3894   38.3516 H   0  0  0  0  0  0  0  0  0  0  0  0
    0.7863   20.8756   40.6848 H   0  0  0  0  0  0  0  0  0  0  0  0
    2.3042   14.6941   44.0699 H   0  0  0  0  0  0  0  0  0  0  0  0
    2.4227   12.4291   45.0345 H   0  0  0  0  0  0  0  0  0  0  0  0
   -1.4518   11.5469   43.4242 H   0  0  0  0  0  0  0  0  0  0  0  0
   -1.5154   13.7725   42.5051 H   0  0  0  0  0  0  0  0  0  0  0  0
   -1.8029   15.6256   41.6688 H   0  0  0  0  0  0  0  0  0  0  0  0
    3.7289   17.7417   40.6563 H   0  0  0  0  0  0  0  0  0  0  0  0
    2.0109   19.7341   42.8838 H   0  0  0  0  0  0  0  0  0  0  0  0
  1  2  1  0
  1 19  1  0
  1 20  2  0
  2  3  1  0
  2 16  2  0
  3  4  2  0
  4  5  1  0
  5 15  2  0
  5 17  1  0
  6 17  1  0
  6 18  2  0
  6 22  1  0
  7  8  1  0
  7 14  2  0
  7 18  1  0
  8  9  1  0
  8 13  2  0
  9 10  2  0
 10 11  1  0
 11 12  2  0
 11 23  1  0
 12 13  1  0
 14 22  1  0
 15 16  1  0
 16 21  1  0
  3 24  1  0
  4 25  1  0
  9 26  1  0
 10 27  1  0
 12 28  1  0
 13 29  1  0
 14 30  1  0
 15 31  1  0
 17 32  1  0
M  CHG  2  19  -1  21  -1
M  END
>  <mol_id>  (28) 
2026-08-24-6tgu-s0-n100-0028

>  <rmsd_to_ref>  (28) 
1.6938775510212907

>  <pose_kind>  (28) 
conformer

$$$$
6tgu.A
     RDKit          3D

 32 34  0  0  0  0  0  0  0  0999 V2000
    3.8143   19.6368   37.0633 C   0  0  0  0  0  0  0  0  0  0  0  0
    3.2834   19.5627   38.4975 C   0  0  0  0  0  0  0  0  0  0  0  0
    2.7851   20.7011   39.1270 C   0  0  0  0  0  0  0  0  0  0  0  0
    2.1212   20.6386   40.3566 C   0  0  0  0  0  0  0  0  0  0  0  0
    2.0918   19.4379   41.0806 C   0  0  0  0  0  0  0  0  0  0  0  0
    0.8035   18.2649   42.9321 C   0  0  0  0  0  0  0  0  0  0  0  0
    0.3207   16.0778   43.3311 C   0  0  0  0  0  0  0  0  0  0  0  0
    0.4345   14.6339   43.1229 C   0  0  0  0  0  0  0  0  0  0  0  0
   -0.3824   13.7184   43.8016 C   0  0  0  0  0  0  0  0  0  0  0  0
   -0.2805   12.3513   43.5636 C   0  0  0  0  0  0  0  0  0  0  0  0
    0.6152   11.9095   42.6081 C   0  0  0  0  0  0  0  0  0  0  0  0
    1.4381   12.7804   41.9098 C   0  0  0  0  0  0  0  0  0  0  0  0
    1.3291   14.1436   42.1704 C   0  0  0  0  0  0  0  0  0  0  0  0
   -0.5623   16.6586   44.2025 C   0  0  0  0  0  0  0  0  0  0  0  0
    2.5789   18.2804   40.4569 C   0  0  0  0  0  0  0  0  0  0  0  0
    3.1654   18.3651   39.1928 C   0  0  0  0  0  0  0  0  0  0  0  0
    1.3637   19.3410   42.3062 N   0  0  0  0  0  0  0  0  0  0  0  0
    1.0553   16.9738   42.5189 N   0  0  0  0  0  0  0  0  0  0  0  0
    3.6205   20.7244   36.4446 O   0  0  0  0  0  0  0  0  0  0  0  0
    4.3221   18.5956   36.5922 O   0  0  0  0  0  0  0  0  0  0  0  0
    3.5441   17.2117   38.5475 O   0  0  0  0  0  0  0  0  0  0  0  0
   -0.5489   18.3738   44.0423 S   0  0  0  0  0  0  0  0  0  0  0  0
    0.7242   10.2135   42.2718 Cl  0  0  0  0  0  0  0  0  0  0  0  0
    2.9179   21.6795   38.6422 H   0  0  0  0  0  0  0  0  0  0  0  0
    1.6211   21.5331   40.7564 H   0  0  0  0  0  0  0  0  0  0  0  0
   -1.1158   14.0869   44.5340 H   0  0  0  0  0  0  0  0  0  0  0  0
   -0.9004   11.6364   44.1246 H   0  0  0  0  0  0  0  0  0  0  0  0
    2.1585   12.4035   41.1689 H   0  0  0  0  0  0  0  0  0  0  0  0
    1.9620   14.8498   41.6132 H   0  0  0  0  0  0  0  0  0  0  0  0
   -1.1955   16.1037   44.9105 H   0  0  0  0  0  0  0  0  0  0  0  0
    2.4991   17.3070   40.9629 H   0  0  0  0  0  0  0  0  0  0  0  0
    1.2408   20.2354   42.8019 H   0  0  0  0  0  0  0  0  0  0  0  0
  1  2  1  0
  1 19  1  0
  1 20  2  0
  2  3  1  0
  2 16  2  0
  3  4  2  0
  4  5  1  0
  5 15  2  0
  5 17  1  0
  6 17  1  0
  6 18  2  0
  6 22  1  0
  7  8  1  0
  7 14  2  0
  7 18  1  0
  8  9  1  0
  8 13  2  0
  9 10  2  0
 10 11  1  0
 11 12  2  0
 11 23  1  0
 12 13  1  0
 14 22  1  0
 15 16  1  0
 16 21  1  0
  3 24  1  0
  4 25  1  0
  9 26  1  0
 10 27  1  0
 12 28  1  0
 13 29  1  0
 14 30  1  0
 15 31  1  0
 17 32  1  0
M  CHG  2  19  -1  21  -1
M  END
>  <mol_id>  (29) 
2026-08-24-6tgu-s0-n100-0029

>  <rmsd_to_ref>  (29) 
1.7397959183722373

>  <pose_kind>  (29) 
rigid

$$$$
6tgu.A
     RDKit          3D

 32 34  0  0  0  0  0  0  0  0999 V2000
    2.5354   20.4968   36.9507 C   0  0  0  0  0  0  0  0  0  0  0  0
    2.4406   19.9838   38.3123 C   0  0  0  0  0  0  0  0  0  0  0  0
    1.6451   20.6247   39.2071 C   0  0  0  0  0  0  0  0  0  0  0  0
    1.5145   20.1460   40.4856 C   0  0  0  0  0  0  0  0  0  0  0  0
    2.2164   19.0023   40.8225 C   0  0  0  0  0  0  0  0  0  0  0  0
    1.3091   17.2816   42.2553 C   0  0  0  0  0  0  0  0  0  0  0  0
    0.2470   15.2983   42.3451 C   0  0  0  0  0  0  0  0  0  0  0  0
    0.3441   13.8577   42.6833 C   0  0  0  0  0  0  0  0  0  0  0  0
    1.4970   13.2805   43.1564 C   0  0  0  0  0  0  0  0  0  0  0  0
    1.5468   11.9362   43.4638 C   0  0  0  0  0  0  0  0  0  0  0  0
    0.4455   11.1226   43.3071 C   0  0  0  0  0  0  0  0  0  0  0  0
   -0.7383   11.6911   42.8241 C   0  0  0  0  0  0  0  0  0  0  0  0
   -0.7584   13.0362   42.5277 C   0  0  0  0  0  0  0  0  0  0  0  0
   -0.9133   15.8449   41.8984 C   0  0  0  0  0  0  0  0  0  0  0  0
    3.0340   18.3216   39.9503 C   0  0  0  0  0  0  0  0  0  0  0  0
    3.1447   18.8272   38.6697 C   0  0  0  0  0  0  0  0  0  0  0  0
    1.9916   18.5510   42.1843 N   0  0  0  0  0  0  0  0  0  0  0  0
    1.2434   16.1569   42.4603 N   0  0  0  0  0  0  0  0  0  0  0  0
    3.2911   19.9219   35.9478 O   0  0  0  0  0  0  0  0  0  0  0  0
    1.8883   21.5460   36.6321 O   0  0  0  0  0  0  0  0  0  0  0  0
    3.9488   18.2125   37.7145 O   0  0  0  0  0  0  0  0  0  0  0  0
   -0.4977   17.6185   41.6638 S   0  0  0  0  0  0  0  0  0  0  0  0
    0.4543    9.4091   43.6801 Cl  0  0  0  0  0  0  0  0  0  0  0  0
    1.0885   21.5317   38.9503 H   0  0  0  0  0  0  0  0  0  0  0  0
    0.8771   20.6490   41.2138 H   0  0  0  0  0  0  0  0  0  0  0  0
    2.3882   13.9134   43.2928 H   0  0  0  0  0  0  0  0  0  0  0  0
    2.4726   11.5134   43.8477 H   0  0  0  0  0  0  0  0  0  0  0  0
   -1.6333   11.1055   42.6826 H   0  0  0  0  0  0  0  0  0  0  0  0
   -1.6603   13.4562   42.1579 H   0  0  0  0  0  0  0  0  0  0  0  0
   -1.9241   15.4369   41.6851 H   0  0  0  0  0  0  0  0  0  0  0  0
    3.5611   17.4305   40.2554 H   0  0  0  0  0  0  0  0  0  0  0  0
    2.2978   19.0904   42.9999 H   0  0  0  0  0  0  0  0  0  0  0  0
  1  2  1  0
  1 19  1  0
  1 20  2  0
  2  3  1  0
  2 16  2  0
  3  4  2  0
  4  5  1  0
  5 15  2  0
  5 17  1  0
  6 17  1  0
  6 18  2  0
  6 22  1  0
  7  8  1  0
  7 14  2  0
  7 18  1  0
  8  9  1  0
  8 13  2  0
  9 10  2  0
 10 11  1  0
 11 12  2  0
 11 23  1  0
 12 13  1  0
 14 22  1  0
 15 16  1  0
 16 21  1  0
  3 24  1  0
  4 25  1  0
  9 26  1  0
 10 27  1  0
 12 28  1  0
 13 29  1  0
 14 30  1  0
 15 31  1  0
 17 32  1  0
M  CHG  2  19  -1  21  -1
M  END
>  <mol_id>  (30) 
2026-08-24-6tgu-s0-n100-0030

>  <rmsd_to_ref>  (30) 
1.7857142857164865

>  <pose_kind>  (30) 
conformer

$$$$
6tgu.A
     RDKit          3D

 32 34  0  0  0  0  0  0  0  0999 V2000
    3.0879   20.5463   37.6243 C   0  0  0  0  0  0  0  0  0  0  0  0
    2.4493   20.1279   38.9515 C   0  0  0  0  0  0  0  0  0  0  0  0
    1.5177   20.9518   39.5791 C   0  0  0  0  0  0  0  0  0  0  0  0
    0.7756   20.5249   40.6851 C   0  0  0  0  0  0  0  0  0  0  0  0
    1.0772   19.3044   41.3067 C   0  0  0  0  0  0  0  0  0  0  0  0
    0.0637   17.5563   42.8497 C   0  0  0  0  0  0  0  0  0  0  0  0
    0.3225   15.3018   43.0099 C   0  0  0  0  0  0  0  0  0  0  0  0
    0.9518   14.0137   42.7168 C   0  0  0  0  0  0  0  0  0  0  0  0
    0.4272   12.8043   43.1944 C   0  0  0  0  0  0  0  0  0  0  0  0
    1.0224   11.5877   42.8758 C   0  0  0  0  0  0  0  0  0  0  0  0
    2.1221   11.5867   42.0384 C   0  0  0  0  0  0  0  0  0  0  0  0
    2.6700   12.7586   41.5390 C   0  0  0  0  0  0  0  0  0  0  0  0
    2.0669   13.9665   41.8786 C   0  0  0  0  0  0  0  0  0  0  0  0
   -0.8033   15.4471   43.7765 C   0  0  0  0  0  0  0  0  0  0  0  0
    2.0044   18.4583   40.6819 C   0  0  0  0  0  0  0  0  0  0  0  0
    2.6709   18.8844   39.5315 C   0  0  0  0  0  0  0  0  0  0  0  0
    0.2877   18.8246   42.3967 N   0  0  0  0  0  0  0  0  0  0  0  0
    0.7929   16.4818   42.3867 N   0  0  0  0  0  0  0  0  0  0  0  0
    2.6050   21.5741   37.0642 O   0  0  0  0  0  0  0  0  0  0  0  0
    3.9761   19.7975   37.1615 O   0  0  0  0  0  0  0  0  0  0  0  0
    3.4982   18.0088   38.8692 O   0  0  0  0  0  0  0  0  0  0  0  0
   -1.3644   17.0757   43.7456 S   0  0  0  0  0  0  0  0  0  0  0  0
    2.8492   10.0766   41.5998 Cl  0  0  0  0  0  0  0  0  0  0  0  0
    1.3609   21.9697   39.1928 H   0  0  0  0  0  0  0  0  0  0  0  0
   -0.0463   21.1476   41.0681 H   0  0  0  0  0  0  0  0  0  0  0  0
   -0.4696   12.8175   43.8314 H   0  0  0  0  0  0  0  0  0  0  0  0
    0.6259   10.6456   43.2820 H   0  0  0  0  0  0  0  0  0  0  0  0
    3.5586   12.7345   40.8911 H   0  0  0  0  0  0  0  0  0  0  0  0
    2.4782   14.9046   41.4774 H   0  0  0  0  0  0  0  0  0  0  0  0
   -1.2850   14.6326   44.3373 H   0  0  0  0  0  0  0  0  0  0  0  0
    2.2064   17.4601   41.0975 H   0  0  0  0  0  0  0  0  0  0  0  0
   -0.1945   19.5608   42.9316 H   0  0  0  0  0  0  0  0  0  0  0  0
  1  2  1  0
  1 19  1  0
  1 20  2  0
  2  3  1  0
  2 16  2  0
  3  4  2  0
  4  5  1  0
  5 15  2  0
  5 17  1  0
  6 17  1  0
  6 18  2  0
  6 22  1  0
  7  8  1  0
  7 14  2  0
  7 18  1  0
  8  9  1  0
  8 13  2  0
  9 10  2  0
 10 11  1  0
 11 12  2  0
 11 23  1  0
 12 13  1  0
 14 22  1  0
 15 16  1  0
 16 21  1  0
  3 24  1  0
  4 25  1  0
  9 26  1  0
 10 27  1  0
 12 28  1  0
 13 29  1  0
 14 30  1  0
 15 31  1  0
 17 32  1  0
M  CHG  2  19  -1  21  -1
M  END
>  <mol_id>  (31) 
2026-08-24-6tgu-s0-n100-0031

>  <rmsd_to_ref>  (31) 
1.8316326530697669

>  <pose_kind>  (31) 
rigid

$$$$
6tgu.A
     RDKit          3D

 32 34  0  0  0  0  0  0  0  0999 V2000
    2.4507   20.9655   37.0791 C   0  0  0  0  0  0  0  0  0  0  0  0
    2.4614   20.4209   38.4316 C   0  0  0  0  0  0  0  0  0  0  0  0
    1.7652   21.0593   39.4076 C   0  0  0  0  0  0  0  0  0  0  0  0
    1.7340   20.5521   40.6814 C   0  0  0  0  0  0  0  0  0  0  0  0
    2.4307   19.3828   40.9289 C   0  0  0  0  0  0  0  0  0  0  0  0
    1.6052   17.6503   42.3966 C   0  0  0  0  0  0  0  0  0  0  0  0
    0.5006   15.6932   42.5344 C   0  0  0  0  0  0  0  0  0  0  0  0
    0.5870   14.2424   42.8297 C   0  0  0  0  0  0  0  0  0  0  0  0
    1.7605   13.6243   43.1861 C   0  0  0  0  0  0  0  0  0  0  0  0
    1.7999   12.2719   43.4570 C   0  0  0  0  0  0  0  0  0  0  0  0
    0.6669   11.4910   43.3797 C   0  0  0  0  0  0  0  0  0  0  0  0
   -0.5385   12.1015   43.0161 C   0  0  0  0  0  0  0  0  0  0  0  0
   -0.5471   13.4536   42.7534 C   0  0  0  0  0  0  0  0  0  0  0  0
   -0.6788   16.2803   42.2043 C   0  0  0  0  0  0  0  0  0  0  0  0
    3.1497   18.7036   39.9726 C   0  0  0  0  0  0  0  0  0  0  0  0
    3.1617   19.2382   38.6991 C   0  0  0  0  0  0  0  0  0  0  0  0
    2.3137   18.9033   42.2946 N   0  0  0  0  0  0  0  0  0  0  0  0
    1.5266   16.5229   42.5808 N   0  0  0  0  0  0  0  0  0  0  0  0
    3.0995   20.3969   36.0005 O   0  0  0  0  0  0  0  0  0  0  0  0
    1.8075   22.0386   36.8428 O   0  0  0  0  0  0  0  0  0  0  0  0
    3.8619   18.6273   37.6629 O   0  0  0  0  0  0  0  0  0  0  0  0
   -0.2365   18.0481   41.9745 S   0  0  0  0  0  0  0  0  0  0  0  0
    0.6611    9.7690   43.7112 Cl  0  0  0  0  0  0  0  0  0  0  0  0
    1.2137   21.9864   39.2217 H   0  0  0  0  0  0  0  0  0  0  0  0
    1.1770   21.0528   41.4742 H   0  0  0  0  0  0  0  0  0  0  0  0
    2.6774   14.2306   43.2577 H   0  0  0  0  0  0  0  0  0  0  0  0
    2.7436   11.8161   43.7482 H   0  0  0  0  0  0  0  0  0  0  0  0
   -1.4583   11.5426   42.9406 H   0  0  0  0  0  0  0  0  0  0  0  0
   -1.4660   13.9058   42.4742 H   0  0  0  0  0  0  0  0  0  0  0  0
   -1.7154   15.9037   42.0717 H   0  0  0  0  0  0  0  0  0  0  0  0
    3.6766   17.7919   40.2097 H   0  0  0  0  0  0  0  0  0  0  0  0
    2.7050   19.4139   43.0921 H   0  0  0  0  0  0  0  0  0  0  0  0
  1  2  1  0
  1 19  1  0
  1 20  2  0
  2  3  1  0
  2 16  2  0
  3  4  2  0
  4  5  1  0
  5 15  2  0
  5 17  1  0
  6 17  1  0
  6 18  2  0
  6 22  1  0
  7  8  1  0
  7 14  2  0
  7 18  1  0
  8  9  1  0
  8 13  2  0
  9 10  2  0
 10 11  1  0
 11 12  2  0
 11 23  1  0
 12 13  1  0
 14 22  1  0
 15 16  1  0
 16 21  1  0
  3 24  1  0
  4 25  1  0
  9 26  1  0
 10 27  1  0
 12 28  1  0
 13 29  1  0
 14 30  1  0
 15 31  1  0
 17 32  1  0
M  CHG  2  19  -1  21  -1
M  END
>  <mol_id>  (32) 
2026-08-24-6tgu-s0-n100-0032

>  <rmsd_to_ref>  (32) 
1.8775510204089336

>  <pose_kind>  (32) 
conformer

$$$$
6tgu.A
     RDKit          3D

 32 34  0  0  0  0  0  0  0  0999 V2000
    3.4592   19.6437   37.0455 C   0  0  0  0  0  0  0  0  0  0  0  0
    2.7888   19.6375   38.4222 C   0  0  0  0  0  0  0  0  0  0  0  0
    2.0529   20.7381   38.8556 C   0  0  0  0  0  0  0  0  0  0  0  0
    1.2732   20.6990   40.0162 C   0  0  0  0  0  0  0  0  0  0  0  0
    1.3492   19.5957   40.8786 C   0  0  0  0  0  0  0  0  0  0  0  0
    0.0591   18.4314   42.7342 C   0  0  0  0  0  0  0  0  0  0  0  0
   -0.1207   16.2506   43.3566 C   0  0  0  0  0  0  0  0  0  0  0  0
    0.2379   14.8320   43.3419 C   0  0  0  0  0  0  0  0  0  0  0  0
   -0.4981   13.8719   44.0507 C   0  0  0  0  0  0  0  0  0  0  0  0
   -0.1596   12.5234   43.9957 C   0  0  0  0  0  0  0  0  0  0  0  0
    0.8951   12.1366   43.1905 C   0  0  0  0  0  0  0  0  0  0  0  0
    1.6459   13.0519   42.4684 C   0  0  0  0  0  0  0  0  0  0  0  0
    1.2987   14.3978   42.5454 C   0  0  0  0  0  0  0  0  0  0  0  0
   -1.1750   16.7666   44.0628 C   0  0  0  0  0  0  0  0  0  0  0  0
    2.0766   18.4753   40.4523 C   0  0  0  0  0  0  0  0  0  0  0  0
    2.7807   18.5194   39.2476 C   0  0  0  0  0  0  0  0  0  0  0  0
    0.5124   19.5118   42.0336 N   0  0  0  0  0  0  0  0  0  0  0  0
    0.5524   17.1635   42.5107 N   0  0  0  0  0  0  0  0  0  0  0  0
    3.1697   20.6102   36.2807 O   0  0  0  0  0  0  0  0  0  0  0  0
    4.1717   18.6572   36.7576 O   0  0  0  0  0  0  0  0  0  0  0  0
    3.4033   17.3827   38.7895 O   0  0  0  0  0  0  0  0  0  0  0  0
   -1.4096   18.4324   43.6914 S   0  0  0  0  0  0  0  0  0  0  0  0
    1.3024   10.4563   43.0802 Cl  0  0  0  0  0  0  0  0  0  0  0  0
    2.0861   21.6666   38.2668 H   0  0  0  0  0  0  0  0  0  0  0  0
    0.5990   21.5353   40.2529 H   0  0  0  0  0  0  0  0  0  0  0  0
   -1.3570   14.1898   44.6598 H   0  0  0  0  0  0  0  0  0  0  0  0
   -0.7202   11.7800   44.5816 H   0  0  0  0  0  0  0  0  0  0  0  0
    2.4944   12.7228   41.8506 H   0  0  0  0  0  0  0  0  0  0  0  0
    1.8729   15.1355   41.9656 H   0  0  0  0  0  0  0  0  0  0  0  0
   -1.7899   16.1936   44.7724 H   0  0  0  0  0  0  0  0  0  0  0  0
    2.0924   17.5628   41.0664 H   0  0  0  0  0  0  0  0  0  0  0  0
    0.1976   20.4215   42.4001 H   0  0  0  0  0  0  0  0  0  0  0  0
  1  2  1  0
  1 19  1  0
  1 20  2  0
  2  3  1  0
  2 16  2  0
  3  4  2  0
  4  5  1  0
  5 15  2  0
  5 17  1  0
  6 17  1  0
  6 18  2  0
  6 22  1  0
  7  8  1  0
  7 14  2  0
  7 18  1  0
  8  9  1  0
  8 13  2  0
  9 10  2  0
 10 11  1  0
 11 12  2  0
 11 23  1  0
 12 13  1  0
 14 22  1  0
 15 16  1  0
 16 21  1  0
  3 24  1  0
  4 25  1  0
  9 26  1  0
 10 27  1  0
 12 28  1  0
 13 29  1  0
 14 30  1  0
 15 31  1  0
 17 32  1  0
M  CHG  2  19  -1  21  -1
M  END
>  <mol_id>  (33) 
2026-08-24-6tgu-s0-n100-0033

>  <rmsd_to_ref>  (33) 
1.9234693877579514

>  <pose_kind>  (33) 
rigid

$$$$
6tgu.A
     RDKit          3D

 32 34  0  0  0  0  0  0  0  0999 V2000
    3.3108   20.7338   36.6263 C   0  0  0  0  0  0  0  0  0  0  0  0
    3.2871   20.2942   38.0164 C   0  0  0  0  0  0  0  0  0  0  0  0
    2.8100   21.1367   38.9689 C   0  0  0  0  0  0  0  0  0  0  0  0
    2.7486   20.7375   40.2794 C   0  0  0  0  0  0  0  0  0  0  0  0
    3.1871   19.4620   40.5879 C   0  0  0  0  0  0  0  0  0  0  0  0
    2.0967   18.0614   42.2268 C   0  0  0  0  0  0  0  0  0  0  0  0
    0.6019   16.4135   42.5726 C   0  0  0  0  0  0  0  0  0  0  0  0
    0.3875   15.0036   42.9795 C   0  0  0  0  0  0  0  0  0  0  0  0
    1.4176   14.1655   43.3301 C   0  0  0  0  0  0  0  0  0  0  0  0
    1.1773   12.8601   43.7068 C   0  0  0  0  0  0  0  0  0  0  0  0
   -0.1015   12.3476   43.7450 C   0  0  0  0  0  0  0  0  0  0  0  0
   -1.1647   13.1849   43.3895 C   0  0  0  0  0  0  0  0  0  0  0  0
   -0.8942   14.4837   43.0193 C   0  0  0  0  0  0  0  0  0  0  0  0
   -0.4389   17.2245   42.2511 C   0  0  0  0  0  0  0  0  0  0  0  0
    3.6787   18.5761   39.6572 C   0  0  0  0  0  0  0  0  0  0  0  0
    3.7274   19.0063   38.3457 C   0  0  0  0  0  0  0  0  0  0  0  0
    3.0541   19.1152   41.9917 N   0  0  0  0  0  0  0  0  0  0  0  0
    1.7853   16.9951   42.5047 N   0  0  0  0  0  0  0  0  0  0  0  0
    3.7506   19.9626   35.5683 O   0  0  0  0  0  0  0  0  0  0  0  0
    2.9041   21.9044   36.3344 O   0  0  0  0  0  0  0  0  0  0  0  0
    4.2105   18.1855   37.3309 O   0  0  0  0  0  0  0  0  0  0  0  0
    0.3637   18.8295   41.8595 S   0  0  0  0  0  0  0  0  0  0  0  0
   -0.4628   10.6969   44.2141 Cl  0  0  0  0  0  0  0  0  0  0  0  0
    2.4638   22.1484   38.7346 H   0  0  0  0  0  0  0  0  0  0  0  0
    2.3654   21.4027   41.0543 H   0  0  0  0  0  0  0  0  0  0  0  0
    2.4474   14.5559   43.3102 H   0  0  0  0  0  0  0  0  0  0  0  0
    2.0150   12.2265   43.9899 H   0  0  0  0  0  0  0  0  0  0  0  0
   -2.1873   12.8411   43.4018 H   0  0  0  0  0  0  0  0  0  0  0  0
   -1.7077   15.1090   42.7474 H   0  0  0  0  0  0  0  0  0  0  0  0
   -1.5390   17.0801   42.1972 H   0  0  0  0  0  0  0  0  0  0  0  0
    4.0074   17.5884   39.9424 H   0  0  0  0  0  0  0  0  0  0  0  0
    3.5968   19.5792   42.7265 H   0  0  0  0  0  0  0  0  0  0  0  0
  1  2  1  0
  1 19  1  0
  1 20  2  0
  2  3  1  0
  2 16  2  0
  3  4  2  0
  4  5  1  0
  5 15  2  0
  5 17  1  0
  6 17  1  0
  6 18  2  0
  6 22  1  0
  7  8  1  0
  7 14  2  0
  7 18  1  0
  8  9  1  0
  8 13  2  0
  9 10  2  0
 10 11  1  0
 11 12  2  0
 11 23  1  0
 12 13  1  0
 14 22  1  0
 15 16  1  0
 16 21  1  0
  3 24  1  0
  4 25  1  0
  9 26  1  0
 10 27  1  0
 12 28  1  0
 13 29  1  0
 14 30  1  0
 15 31  1  0
 17 32  1  0
M  CHG  2  19  -1  21  -1
M  END
>  <mol_id>  (34) 
2026-08-24-6tgu-s0-n100-0034

>  <rmsd_to_ref>  (34) 
1.9693877551053531

>  <pose_kind>  (34) 
conformer

$$$$
6tgu.A
     RDKit          3D

 32 34  0  0  0  0  0  0  0  0999 V2000
    3.0601   20.8325   36.5079 C   0  0  0  0  0  0  0  0  0  0  0  0
    2.5752   20.6333   37.9465 C   0  0  0  0  0  0  0  0  0  0  0  0
    1.8084   21.6112   38.5763 C   0  0  0  0  0  0  0  0  0  0  0  0
    1.1905   21.3884   39.8111 C   0  0  0  0  0  0  0  0  0  0  0  0
    1.4718   20.2233   40.5392 C   0  0  0  0  0  0  0  0  0  0  0  0
    0.5362   18.7711   42.4045 C   0  0  0  0  0  0  0  0  0  0  0  0
    0.6272   16.5353   42.8143 C   0  0  0  0  0  0  0  0  0  0  0  0
    1.1025   15.1664   42.6100 C   0  0  0  0  0  0  0  0  0  0  0  0
    0.5495   14.0771   43.2979 C   0  0  0  0  0  0  0  0  0  0  0  0
    0.9936   12.7794   43.0635 C   0  0  0  0  0  0  0  0  0  0  0  0
    1.9656   12.5746   42.1024 C   0  0  0  0  0  0  0  0  0  0  0  0
    2.5356   13.6223   41.3950 C   0  0  0  0  0  0  0  0  0  0  0  0
    2.0859   14.9145   41.6520 C   0  0  0  0  0  0  0  0  0  0  0  0
   -0.3683   16.8772   43.6909 C   0  0  0  0  0  0  0  0  0  0  0  0
    2.2327   19.2244   39.9155 C   0  0  0  0  0  0  0  0  0  0  0  0
    2.7699   19.4485   38.6465 C   0  0  0  0  0  0  0  0  0  0  0  0
    0.8006   19.9511   41.7707 N   0  0  0  0  0  0  0  0  0  0  0  0
    1.1047   17.5843   41.9935 N   0  0  0  0  0  0  0  0  0  0  0  0
    2.5923   21.8322   35.8873 O   0  0  0  0  0  0  0  0  0  0  0  0
    3.8124   19.9521   36.0362 O   0  0  0  0  0  0  0  0  0  0  0  0
    3.4246   18.4260   38.0020 O   0  0  0  0  0  0  0  0  0  0  0  0
   -0.7920   18.5388   43.5249 S   0  0  0  0  0  0  0  0  0  0  0  0
    2.4994   10.9602   41.7707 Cl  0  0  0  0  0  0  0  0  0  0  0  0
    1.6853   22.5888   38.0873 H   0  0  0  0  0  0  0  0  0  0  0  0
    0.4824   22.1287   40.2120 H   0  0  0  0  0  0  0  0  0  0  0  0
   -0.2484   14.2511   44.0349 H   0  0  0  0  0  0  0  0  0  0  0  0
    0.5794   11.9335   43.6317 H   0  0  0  0  0  0  0  0  0  0  0  0
    3.3230   13.4369   40.6496 H   0  0  0  0  0  0  0  0  0  0  0  0
    2.5150   15.7555   41.0875 H   0  0  0  0  0  0  0  0  0  0  0  0
   -0.8351   16.1834   44.4055 H   0  0  0  0  0  0  0  0  0  0  0  0
    2.4061   18.2652   40.4252 H   0  0  0  0  0  0  0  0  0  0  0  0
    0.4578   20.7875   42.2646 H   0  0  0  0  0  0  0  0  0  0  0  0
  1  2  1  0
  1 19  1  0
  1 20  2  0
  2  3  1  0
  2 16  2  0
  3  4  2  0
  4  5  1  0
  5 15  2  0
  5 17  1  0
  6 17  1  0
  6 18  2  0
  6 22  1  0
  7  8  1  0
  7 14  2  0
  7 18  1  0
  8  9  1  0
  8 13  2  0
  9 10  2  0
 10 11  1  0
 11 12  2  0
 11 23  1  0
 12 13  1  0
 14 22  1  0
 15 16  1  0
 16 21  1  0
  3 24  1  0
  4 25  1  0
  9 26  1  0
 10 27  1  0
 12 28  1  0
 13 29  1  0
 14 30  1  0
 15 31  1  0
 17 32  1  0
M  CHG  2  19  -1  21  -1
M  END
>  <mol_id>  (35) 
2026-08-24-6tgu-s0-n100-0035

>  <rmsd_to_ref>  (35) 
2.015306122454228

>  <pose_kind>  (35) 
rigid

$$$$
6tgu.A
     RDKit          3D

 32 34  0  0  0  0  0  0  0  0999 V2000
    2.7509   20.8047   37.3726 C   0  0  0  0  0  0  0  0  0  0  0  0
    2.5878   20.3403   38.7452 C   0  0  0  0  0  0  0  0  0  0  0  0
    1.7226   20.9908   39.5656 C   0  0  0  0  0  0  0  0  0  0  0  0
    1.5279   20.5567   40.8518 C   0  0  0  0  0  0  0  0  0  0  0  0
    2.2386   19.4474   41.2742 C   0  0  0  0  0  0  0  0  0  0  0  0
    1.2930   17.7558   42.7168 C   0  0  0  0  0  0  0  0  0  0  0  0
    0.2811   15.7471   42.8208 C   0  0  0  0  0  0  0  0  0  0  0  0
    0.3962   14.3235   43.2203 C   0  0  0  0  0  0  0  0  0  0  0  0
    1.5335   13.7983   43.7832 C   0  0  0  0  0  0  0  0  0  0  0  0
    1.6008   12.4686   44.1452 C   0  0  0  0  0  0  0  0  0  0  0  0
    0.5331   11.6180   43.9553 C   0  0  0  0  0  0  0  0  0  0  0  0
   -0.6342   12.1332   43.3812 C   0  0  0  0  0  0  0  0  0  0  0  0
   -0.6724   13.4650   43.0317 C   0  0  0  0  0  0  0  0  0  0  0  0
   -0.8644   16.2425   42.2850 C   0  0  0  0  0  0  0  0  0  0  0  0
    3.1254   18.7587   40.4793 C   0  0  0  0  0  0  0  0  0  0  0  0
    3.2997   19.2190   39.1887 C   0  0  0  0  0  0  0  0  0  0  0  0
    1.9441   19.0411   42.6368 N   0  0  0  0  0  0  0  0  0  0  0  0
    1.2453   16.6381   42.9613 N   0  0  0  0  0  0  0  0  0  0  0  0
    3.5810   20.2150   36.4396 O   0  0  0  0  0  0  0  0  0  0  0  0
    2.0962   21.8219   36.9755 O   0  0  0  0  0  0  0  0  0  0  0  0
    4.1763   18.5927   38.3078 O   0  0  0  0  0  0  0  0  0  0  0  0
   -0.4832   18.0175   42.0063 S   0  0  0  0  0  0  0  0  0  0  0  0
    0.5655    9.9206   44.3950 Cl  0  0  0  0  0  0  0  0  0  0  0  0
    1.1583   21.8710   39.2409 H   0  0  0  0  0  0  0  0  0  0  0  0
    0.8344   21.0679   41.5206 H   0  0  0  0  0  0  0  0  0  0  0  0
    2.3975   14.4617   43.9474 H   0  0  0  0  0  0  0  0  0  0  0  0
    2.5127   12.0877   44.5997 H   0  0  0  0  0  0  0  0  0  0  0  0
   -1.5029   11.5168   43.2097 H   0  0  0  0  0  0  0  0  0  0  0  0
   -1.5612   13.8445   42.5929 H   0  0  0  0  0  0  0  0  0  0  0  0
   -1.8491   15.7975   42.0281 H   0  0  0  0  0  0  0  0  0  0  0  0
    3.6568   17.8953   40.8498 H   0  0  0  0  0  0  0  0  0  0  0  0
    2.1859   19.6193   43.4475 H   0  0  0  0  0  0  0  0  0  0  0  0
  1  2  1  0
  1 19  1  0
  1 20  2  0
  2  3  1  0
  2 16  2  0
  3  4  2  0
  4  5  1  0
  5 15  2  0
  5 17  1  0
  6 17  1  0
  6 18  2  0
  6 22  1  0
  7  8  1  0
  7 14  2  0
  7 18  1  0
  8  9  1  0
  8 13  2  0
  9 10  2  0
 10 11  1  0
 11 12  2  0
 11 23  1  0
 12 13  1  0
 14 22  1  0
 15 16  1  0
 16 21  1  0
  3 24  1  0
  4 25  1  0
  9 26  1  0
 10 27  1  0
 12 28  1  0
 13 29  1  0
 14 30  1  0
 15 31  1  0
 17 32  1  0
M  CHG  2  19  -1  21  -1
M  END
>  <mol_id>  (36) 
2026-08-24-6tgu-s0-n100-0036

>  <rmsd_to_ref>  (36) 
2.0612244897985916

>  <pose_kind>  (36) 
conformer

$$$$
6tgu.A
     RDKit          3D

 32 34  0  0  0  0  0  0  0  0999 V2000
    3.5606   21.3304   36.3096 C   0  0  0  0  0  0  0  0  0  0  0  0
    2.9860   21.4619   37.7228 C   0  0  0  0  0  0  0  0  0  0  0  0
    2.4468   22.6706   38.1574 C   0  0  0  0  0  0  0  0  0  0  0  0
    1.7455   22.7796   39.3628 C   0  0  0  0  0  0  0  0  0  0  0  0
    1.7157   21.7021   40.2599 C   0  0  0  0  0  0  0  0  0  0  0  0
    0.3917   20.7932   42.2307 C   0  0  0  0  0  0  0  0  0  0  0  0
   -0.0625   18.6811   42.9437 C   0  0  0  0  0  0  0  0  0  0  0  0
    0.0849   17.2253   42.9609 C   0  0  0  0  0  0  0  0  0  0  0  0
   -0.7359   16.4044   43.7474 C   0  0  0  0  0  0  0  0  0  0  0  0
   -0.6008   15.0198   43.7230 C   0  0  0  0  0  0  0  0  0  0  0  0
    0.3328   14.4594   42.8717 C   0  0  0  0  0  0  0  0  0  0  0  0
    1.1609   15.2334   42.0729 C   0  0  0  0  0  0  0  0  0  0  0  0
    1.0182   16.6174   42.1198 C   0  0  0  0  0  0  0  0  0  0  0  0
   -0.9833   19.3664   43.6914 C   0  0  0  0  0  0  0  0  0  0  0  0
    2.2440   20.4752   39.8335 C   0  0  0  0  0  0  0  0  0  0  0  0
    2.8685   20.3810   38.5884 C   0  0  0  0  0  0  0  0  0  0  0  0
    0.9512   21.7749   41.4646 N   0  0  0  0  0  0  0  0  0  0  0  0
    0.6804   19.4607   42.0260 N   0  0  0  0  0  0  0  0  0  0  0  0
    3.3661   22.3070   35.5275 O   0  0  0  0  0  0  0  0  0  0  0  0
    4.1025   20.2421   36.0170 O   0  0  0  0  0  0  0  0  0  0  0  0
    3.2889   19.1525   38.1370 O   0  0  0  0  0  0  0  0  0  0  0  0
   -0.9970   21.0374   43.2724 S   0  0  0  0  0  0  0  0  0  0  0  0
    0.4842   12.7350   42.8004 Cl  0  0  0  0  0  0  0  0  0  0  0  0
    2.5766   23.5671   37.5334 H   0  0  0  0  0  0  0  0  0  0  0  0
    1.2163   23.7123   39.6075 H   0  0  0  0  0  0  0  0  0  0  0  0
   -1.4987   16.8624   44.3940 H   0  0  0  0  0  0  0  0  0  0  0  0
   -1.2247   14.3839   44.3683 H   0  0  0  0  0  0  0  0  0  0  0  0
    1.9114   14.7656   41.4186 H   0  0  0  0  0  0  0  0  0  0  0  0
    1.6552   17.2458   41.4799 H   0  0  0  0  0  0  0  0  0  0  0  0
   -1.6282   18.9104   44.4570 H   0  0  0  0  0  0  0  0  0  0  0  0
    2.1664   19.5880   40.4791 H   0  0  0  0  0  0  0  0  0  0  0  0
    0.7957   22.7309   41.8149 H   0  0  0  0  0  0  0  0  0  0  0  0
  1  2  1  0
  1 19  1  0
  1 20  2  0
  2  3  1  0
  2 16  2  0
  3  4  2  0
  4  5  1  0
  5 15  2  0
  5 17  1  0
  6 17  1  0
  6 18  2  0
  6 22  1  0
  7  8  1  0
  7 14  2  0
  7 18  1  0
  8  9  1  0
  8 13  2  0
  9 10  2  0
 10 11  1  0
 11 12  2  0
 11 23  1  0
 12 13  1  0
 14 22  1  0
 15 16  1  0
 16 21  1  0
  3 24  1  0
  4 25  1  0
  9 26  1  0
 10 27  1  0
 12 28  1  0
 13 29  1  0
 14 30  1  0
 15 31  1  0
 17 32  1  0
M  CHG  2  19  -1  21  -1
M  END
>  <mol_id>  (37) 
2026-08-24-6tgu-s0-n100-0037

>  <rmsd_to_ref>  (37) 
2.1071428571458637

>  <pose_kind>  (37) 
rigid

$$$$
6tgu.A
     RDKit          3D

 32 34  0  0  0  0  0  0  0  0999 V2000
    2.9164   20.6893   36.5456 C   0  0  0  0  0  0  0  0  0  0  0  0
    2.8098   20.3523   37.9602 C   0  0  0  0  0  0  0  0  0  0  0  0
    2.0477   21.1316   38.7705 C   0  0  0  0  0  0  0  0  0  0  0  0
    1.9062   20.8200   40.0985 C   0  0  0  0  0  0  0  0  0  0  0  0
    2.5619   19.6978   40.5728 C   0  0  0  0  0  0  0  0  0  0  0  0
    1.5935   18.2067   42.2084 C   0  0  0  0  0  0  0  0  0  0  0  0
    0.4500   16.2963   42.5439 C   0  0  0  0  0  0  0  0  0  0  0  0
    0.4891   14.9054   43.0571 C   0  0  0  0  0  0  0  0  0  0  0  0
    1.6201   14.3427   43.5959 C   0  0  0  0  0  0  0  0  0  0  0  0
    1.6159   13.0456   44.0665 C   0  0  0  0  0  0  0  0  0  0  0  0
    0.4804   12.2663   44.0133 C   0  0  0  0  0  0  0  0  0  0  0  0
   -0.6819   12.8206   43.4659 C   0  0  0  0  0  0  0  0  0  0  0  0
   -0.6478   14.1185   43.0059 C   0  0  0  0  0  0  0  0  0  0  0  0
   -0.6894   16.8323   42.0351 C   0  0  0  0  0  0  0  0  0  0  0  0
    3.3444   18.8810   39.7897 C   0  0  0  0  0  0  0  0  0  0  0  0
    3.4673   19.2198   38.4563 C   0  0  0  0  0  0  0  0  0  0  0  0
    2.3279   19.4277   41.9802 N   0  0  0  0  0  0  0  0  0  0  0  0
    1.4822   17.1196   42.5507 N   0  0  0  0  0  0  0  0  0  0  0  0
    3.6405   19.9638   35.6200 O   0  0  0  0  0  0  0  0  0  0  0  0
    2.3116   21.7176   36.1012 O   0  0  0  0  0  0  0  0  0  0  0  0
    4.2384   18.4585   37.5830 O   0  0  0  0  0  0  0  0  0  0  0  0
   -0.2018   18.5444   41.5830 S   0  0  0  0  0  0  0  0  0  0  0  0
    0.4202   10.6130   44.5948 Cl  0  0  0  0  0  0  0  0  0  0  0  0
    1.5278   22.0229   38.4049 H   0  0  0  0  0  0  0  0  0  0  0  0
    1.2955   21.4355   40.7602 H   0  0  0  0  0  0  0  0  0  0  0  0
    2.5380   14.9493   43.6516 H   0  0  0  0  0  0  0  0  0  0  0  0
    2.5258   12.6345   44.4981 H   0  0  0  0  0  0  0  0  0  0  0  0
   -1.6016   12.2603   43.3991 H   0  0  0  0  0  0  0  0  0  0  0  0
   -1.5338   14.5276   42.5886 H   0  0  0  0  0  0  0  0  0  0  0  0
   -1.7180   16.4443   41.8756 H   0  0  0  0  0  0  0  0  0  0  0  0
    3.8358   18.0126   40.2016 H   0  0  0  0  0  0  0  0  0  0  0  0
    2.6620   20.0499   42.7225 H   0  0  0  0  0  0  0  0  0  0  0  0
  1  2  1  0
  1 19  1  0
  1 20  2  0
  2  3  1  0
  2 16  2  0
  3  4  2  0
  4  5  1  0
  5 15  2  0
  5 17  1  0
  6 17  1  0
  6 18  2  0
  6 22  1  0
  7  8  1  0
  7 14  2  0
  7 18  1  0
  8  9  1  0
  8 13  2  0
  9 10  2  0
 10 11  1  0
 11 12  2  0
 11 23  1  0
 12 13  1  0
 14 22  1  0
 15 16  1  0
 16 21  1  0
  3 24  1  0
  4 25  1  0
  9 26  1  0
 10 27  1  0
 12 28  1  0
 13 29  1  0
 14 30  1  0
 15 31  1  0
 17 32  1  0
M  CHG  2  19  -1  21  -1
M  END
>  <mol_id>  (38) 
2026-08-24-6tgu-s0-n100-0038

>  <rmsd_to_ref>  (38) 
2.153061224496945

>  <pose_kind>  (38) 
conformer

$$$$
6tgu.A
     RDKit          3D

 32 34  0  0  0  0  0  0  0  0999 V2000
    4.0919   19.2383   36.7333 C   0  0  0  0  0  0  0  0  0  0  0  0
    3.2353   19.3455   37.9980 C   0  0  0  0  0  0  0  0  0  0  0  0
    2.4214   20.4562   38.2088 C   0  0  0  0  0  0  0  0  0  0  0  0
    1.4876   20.5052   39.2490 C   0  0  0  0  0  0  0  0  0  0  0  0
    1.4665   19.4975   40.2243 C   0  0  0  0  0  0  0  0  0  0  0  0
   -0.0447   18.4785   41.9966 C   0  0  0  0  0  0  0  0  0  0  0  0
   -0.2611   16.3660   42.8128 C   0  0  0  0  0  0  0  0  0  0  0  0
    0.1279   14.9673   42.9957 C   0  0  0  0  0  0  0  0  0  0  0  0
   -0.6785   14.0566   43.6931 C   0  0  0  0  0  0  0  0  0  0  0  0
   -0.3054   12.7228   43.8264 C   0  0  0  0  0  0  0  0  0  0  0  0
    0.8601   12.2962   43.2184 C   0  0  0  0  0  0  0  0  0  0  0  0
    1.6843   13.1615   42.5147 C   0  0  0  0  0  0  0  0  0  0  0  0
    1.2995   14.4947   42.4021 C   0  0  0  0  0  0  0  0  0  0  0  0
   -1.4153   16.9111   43.3098 C   0  0  0  0  0  0  0  0  0  0  0  0
    2.2715   18.3675   40.0213 C   0  0  0  0  0  0  0  0  0  0  0  0
    3.1366   18.3164   38.9267 C   0  0  0  0  0  0  0  0  0  0  0  0
    0.4781   19.4992   41.2559 N   0  0  0  0  0  0  0  0  0  0  0  0
    0.5035   17.2137   41.9766 N   0  0  0  0  0  0  0  0  0  0  0  0
    3.8910   20.1119   35.8391 O   0  0  0  0  0  0  0  0  0  0  0  0
    4.8597   18.2548   36.6505 O   0  0  0  0  0  0  0  0  0  0  0  0
    3.8427   17.1631   38.6797 O   0  0  0  0  0  0  0  0  0  0  0  0
   -1.6328   18.5214   42.7378 S   0  0  0  0  0  0  0  0  0  0  0  0
    1.3166   10.6295   43.3411 Cl  0  0  0  0  0  0  0  0  0  0  0  0
    2.5160   21.3217   37.5364 H   0  0  0  0  0  0  0  0  0  0  0  0
    0.7682   21.3356   39.3023 H   0  0  0  0  0  0  0  0  0  0  0  0
   -1.6213   14.4022   44.1422 H   0  0  0  0  0  0  0  0  0  0  0  0
   -0.9258   12.0218   44.4042 H   0  0  0  0  0  0  0  0  0  0  0  0
    2.6183   12.8036   42.0568 H   0  0  0  0  0  0  0  0  0  0  0  0
    1.9327   15.1911   41.8329 H   0  0  0  0  0  0  0  0  0  0  0  0
   -2.1106   16.3900   43.9843 H   0  0  0  0  0  0  0  0  0  0  0  0
    2.2214   17.5224   40.7236 H   0  0  0  0  0  0  0  0  0  0  0  0
    0.0945   20.4287   41.4786 H   0  0  0  0  0  0  0  0  0  0  0  0
  1  2  1  0
  1 19  1  0
  1 20  2  0
  2  3  1  0
  2 16  2  0
  3  4  2  0
  4  5  1  0
  5 15  2  0
  5 17  1  0
  6 17  1  0
  6 18  2  0
  6 22  1  0
  7  8  1  0
  7 14  2  0
  7 18  1  0
  8  9  1  0
  8 13  2  0
  9 10  2  0
 10 11  1  0
 11 12  2  0
 11 23  1  0
 12 13  1  0
 14 22  1  0
 15 16  1  0
 16 21  1  0
  3 24  1  0
  4 25  1  0
  9 26  1  0
 10 27  1  0
 12 28  1  0
 13 29  1  0
 14 30  1  0
 15 31  1  0
 17 32  1  0
M  CHG  2  19  -1  21  -1
M  END
>  <mol_id>  (39) 
2026-08-24-6tgu-s0-n100-0039

>  <rmsd_to_ref>  (39) 
2.198979591843644

>  <pose_kind>  (39) 
rigid

$$$$
6tgu.A
     RDKit          3D

 32 34  0  0  0  0  0  0  0  0999 V2000
    2.4941   22.1212   36.4953 C   0  0  0  0  0  0  0  0  0  0  0  0
    2.6162   21.5881   37.8470 C   0  0  0  0  0  0  0  0  0  0  0  0
    2.1447   22.3175   38.8912 C   0  0  0  0  0  0  0  0  0  0  0  0
    2.2198   21.8265   40.1694 C   0  0  0  0  0  0  0  0  0  0  0  0
    2.7878   20.5779   40.3500 C   0  0  0  0  0  0  0  0  0  0  0  0
    1.9514   18.9765   41.9540 C   0  0  0  0  0  0  0  0  0  0  0  0
    0.6336   17.1806   42.2824 C   0  0  0  0  0  0  0  0  0  0  0  0
    0.5723   15.7328   42.5977 C   0  0  0  0  0  0  0  0  0  0  0  0
    1.6940   14.9693   42.8102 C   0  0  0  0  0  0  0  0  0  0  0  0
    1.5957   13.6250   43.1051 C   0  0  0  0  0  0  0  0  0  0  0  0
    0.3720   12.9978   43.1965 C   0  0  0  0  0  0  0  0  0  0  0  0
   -0.7830   13.7576   42.9812 C   0  0  0  0  0  0  0  0  0  0  0  0
   -0.6536   15.0977   42.6903 C   0  0  0  0  0  0  0  0  0  0  0  0
   -0.4943   17.9142   42.0975 C   0  0  0  0  0  0  0  0  0  0  0  0
    3.2790   19.8051   39.3233 C   0  0  0  0  0  0  0  0  0  0  0  0
    3.1887   20.3259   38.0471 C   0  0  0  0  0  0  0  0  0  0  0  0
    2.7944   20.1260   41.7300 N   0  0  0  0  0  0  0  0  0  0  0  0
    1.7544   17.8700   42.1734 N   0  0  0  0  0  0  0  0  0  0  0  0
    2.9142   21.4664   35.3541 O   0  0  0  0  0  0  0  0  0  0  0  0
    1.9679   23.2673   36.3211 O   0  0  0  0  0  0  0  0  0  0  0  0
    3.6594   19.6228   36.9422 O   0  0  0  0  0  0  0  0  0  0  0  0
    0.1359   19.6079   41.7699 S   0  0  0  0  0  0  0  0  0  0  0  0
    0.1900   11.2931   43.5661 Cl  0  0  0  0  0  0  0  0  0  0  0  0
    1.6965   23.3073   38.7581 H   0  0  0  0  0  0  0  0  0  0  0  0
    1.8429   22.4002   41.0170 H   0  0  0  0  0  0  0  0  0  0  0  0
    2.6823   15.4518   42.7458 H   0  0  0  0  0  0  0  0  0  0  0  0
    2.5037   13.0521   43.2795 H   0  0  0  0  0  0  0  0  0  0  0  0
   -1.7686   13.3227   43.0411 H   0  0  0  0  0  0  0  0  0  0  0  0
   -1.5360   15.6639   42.5246 H   0  0  0  0  0  0  0  0  0  0  0  0
   -1.5789   17.6749   42.1119 H   0  0  0  0  0  0  0  0  0  0  0  0
    3.7117   18.8341   39.5099 H   0  0  0  0  0  0  0  0  0  0  0  0
    3.3512   20.5863   42.4567 H   0  0  0  0  0  0  0  0  0  0  0  0
  1  2  1  0
  1 19  1  0
  1 20  2  0
  2  3  1  0
  2 16  2  0
  3  4  2  0
  4  5  1  0
  5 15  2  0
  5 17  1  0
  6 17  1  0
  6 18  2  0
  6 22  1  0
  7  8  1  0
  7 14  2  0
  7 18  1  0
  8  9  1  0
  8 13  2  0
  9 10  2  0
 10 11  1  0
 11 12  2  0
 11 23  1  0
 12 13  1  0
 14 22  1  0
 15 16  1  0
 16 21  1  0
  3 24  1  0
  4 25  1  0
  9 26  1  0
 10 27  1  0
 12 28  1  0
 13 29  1  0
 14 30  1  0
 15 31  1  0
 17 32  1  0
M  CHG  2  19  -1  21  -1
M  END
>  <mol_id>  (40) 
2026-08-24-6tgu-s0-n100-0040

>  <rmsd_to_ref>  (40) 
2.244897959191168

>  <pose_kind>  (40) 
conformer

$$$$
6tgu.A
     RDKit          3D

 32 34  0  0  0  0  0  0  0  0999 V2000
    3.1546   20.9175   37.0325 C   0  0  0  0  0  0  0  0  0  0  0  0
    2.5807   20.3419   38.3302 C   0  0  0  0  0  0  0  0  0  0  0  0
    1.5729   21.0147   39.0175 C   0  0  0  0  0  0  0  0  0  0  0  0
    0.8943   20.4346   40.0943 C   0  0  0  0  0  0  0  0  0  0  0  0
    1.3331   19.2141   40.6279 C   0  0  0  0  0  0  0  0  0  0  0  0
    0.5325   17.2644   42.0494 C   0  0  0  0  0  0  0  0  0  0  0  0
    1.0349   15.0455   42.0509 C   0  0  0  0  0  0  0  0  0  0  0  0
    1.7962   13.8566   41.6661 C   0  0  0  0  0  0  0  0  0  0  0  0
    1.4108   12.5674   42.0603 C   0  0  0  0  0  0  0  0  0  0  0  0
    2.1302   11.4475   41.6551 C   0  0  0  0  0  0  0  0  0  0  0  0
    3.2136   11.6234   40.8150 C   0  0  0  0  0  0  0  0  0  0  0  0
    3.6258   12.8796   40.3963 C   0  0  0  0  0  0  0  0  0  0  0  0
    2.8999   13.9886   40.8218 C   0  0  0  0  0  0  0  0  0  0  0  0
   -0.0908   15.0147   42.8307 C   0  0  0  0  0  0  0  0  0  0  0  0
    2.3388   18.5187   39.9417 C   0  0  0  0  0  0  0  0  0  0  0  0
    2.9418   19.0928   38.8211 C   0  0  0  0  0  0  0  0  0  0  0  0
    0.6130   18.5775   41.6850 N   0  0  0  0  0  0  0  0  0  0  0  0
    1.3680   16.3096   41.5096 N   0  0  0  0  0  0  0  0  0  0  0  0
    2.5571   21.9231   36.5477 O   0  0  0  0  0  0  0  0  0  0  0  0
    4.1129   20.3032   36.5150 O   0  0  0  0  0  0  0  0  0  0  0  0
    3.8510   18.3599   38.0957 O   0  0  0  0  0  0  0  0  0  0  0  0
   -0.8247   16.5710   42.9157 S   0  0  0  0  0  0  0  0  0  0  0  0
    4.0943   10.2350   40.2690 Cl  0  0  0  0  0  0  0  0  0  0  0  0
    1.3026   22.0338   38.7039 H   0  0  0  0  0  0  0  0  0  0  0  0
    0.0145   20.9366   40.5232 H   0  0  0  0  0  0  0  0  0  0  0  0
    0.5255   12.4393   42.7004 H   0  0  0  0  0  0  0  0  0  0  0  0
    1.8424   10.4421   41.9963 H   0  0  0  0  0  0  0  0  0  0  0  0
    4.5042   12.9966   39.7445 H   0  0  0  0  0  0  0  0  0  0  0  0
    3.2027   14.9910   40.4853 H   0  0  0  0  0  0  0  0  0  0  0  0
   -0.4751   14.1159   43.3352 H   0  0  0  0  0  0  0  0  0  0  0  0
    2.6523   17.5221   40.2858 H   0  0  0  0  0  0  0  0  0  0  0  0
    0.0604   19.2186   42.2721 H   0  0  0  0  0  0  0  0  0  0  0  0
  1  2  1  0
  1 19  1  0
  1 20  2  0
  2  3  1  0
  2 16  2  0
  3  4  2  0
  4  5  1  0
  5 15  2  0
  5 17  1  0
  6 17  1  0
  6 18  2  0
  6 22  1  0
  7  8  1  0
  7 14  2  0
  7 18  1  0
  8  9  1  0
  8 13  2  0
  9 10  2  0
 10 11  1  0
 11 12  2  0
 11 23  1  0
 12 13  1  0
 14 22  1  0
 15 16  1  0
 16 21  1  0
  3 24  1  0
  4 25  1  0
  9 26  1  0
 10 27  1  0
 12 28  1  0
 13 29  1  0
 14 30  1  0
 15 31  1  0
 17 32  1  0
M  CHG  2  19  -1  21  -1
M  END
>  <mol_id>  (41) 
2026-08-24-6tgu-s0-n100-0041

>  <rmsd_to_ref>  (41) 
2.2908163265331467

>  <pose_kind>  (41) 
rigid

$$$$
6tgu.A
     RDKit          3D

 32 34  0  0  0  0  0  0  0  0999 V2000
    2.8146   20.8679   37.5620 C   0  0  0  0  0  0  0  0  0  0  0  0
    2.8052   20.1640   38.8390 C   0  0  0  0  0  0  0  0  0  0  0  0
    2.2394   20.7610   39.9197 C   0  0  0  0  0  0  0  0  0  0  0  0
    2.1903   20.1090   41.1251 C   0  0  0  0  0  0  0  0  0  0  0  0
    2.7333   18.8386   41.1955 C   0  0  0  0  0  0  0  0  0  0  0  0
    1.7414   17.0587   42.4934 C   0  0  0  0  0  0  0  0  0  0  0  0
    0.3909   15.2572   42.4618 C   0  0  0  0  0  0  0  0  0  0  0  0
    0.2939   13.7822   42.5802 C   0  0  0  0  0  0  0  0  0  0  0  0
    1.3871   12.9795   42.7967 C   0  0  0  0  0  0  0  0  0  0  0  0
    1.2556   11.6103   42.9050 C   0  0  0  0  0  0  0  0  0  0  0  0
    0.0262   10.9965   42.7991 C   0  0  0  0  0  0  0  0  0  0  0  0
   -1.0999   11.7965   42.5763 C   0  0  0  0  0  0  0  0  0  0  0  0
   -0.9379   13.1606   42.4744 C   0  0  0  0  0  0  0  0  0  0  0  0
   -0.7112   16.0268   42.2680 C   0  0  0  0  0  0  0  0  0  0  0  0
    3.3171   18.1959   40.1282 C   0  0  0  0  0  0  0  0  0  0  0  0
    3.3508   18.8773   38.9273 C   0  0  0  0  0  0  0  0  0  0  0  0
    2.6067   18.2134   42.5001 N   0  0  0  0  0  0  0  0  0  0  0  0
    1.5198   15.9365   42.5485 N   0  0  0  0  0  0  0  0  0  0  0  0
    3.3388   20.3581   36.3905 O   0  0  0  0  0  0  0  0  0  0  0  0
    2.3121   22.0354   37.4887 O   0  0  0  0  0  0  0  0  0  0  0  0
    3.9218   18.3141   37.7899 O   0  0  0  0  0  0  0  0  0  0  0  0
   -0.0456   17.7380   42.2227 S   0  0  0  0  0  0  0  0  0  0  0  0
   -0.1972    9.2618   42.9267 Cl  0  0  0  0  0  0  0  0  0  0  0  0
    1.8100   21.7670   39.8742 H   0  0  0  0  0  0  0  0  0  0  0  0
    1.7367   20.5754   42.0006 H   0  0  0  0  0  0  0  0  0  0  0  0
    2.3789   13.4499   42.8883 H   0  0  0  0  0  0  0  0  0  0  0  0
    2.1406   11.0049   43.0885 H   0  0  0  0  0  0  0  0  0  0  0  0
   -2.0885   11.3737   42.4866 H   0  0  0  0  0  0  0  0  0  0  0  0
   -1.7981   13.7577   42.3010 H   0  0  0  0  0  0  0  0  0  0  0  0
   -1.7932   15.8055   42.1494 H   0  0  0  0  0  0  0  0  0  0  0  0
    3.7260   17.2019   40.2277 H   0  0  0  0  0  0  0  0  0  0  0  0
    3.0936   18.5675   43.3291 H   0  0  0  0  0  0  0  0  0  0  0  0
  1  2  1  0
  1 19  1  0
  1 20  2  0
  2  3  1  0
  2 16  2  0
  3  4  2  0
  4  5  1  0
  5 15  2  0
  5 17  1  0
  6 17  1  0
  6 18  2  0
  6 22  1  0
  7  8  1  0
  7 14  2  0
  7 18  1  0
  8  9  1  0
  8 13  2  0
  9 10  2  0
 10 11  1  0
 11 12  2  0
 11 23  1  0
 12 13  1  0
 14 22  1  0
 15 16  1  0
 16 21  1  0
  3 24  1  0
  4 25  1  0
  9 26  1  0
 10 27  1  0
 12 28  1  0
 13 29  1  0
 14 30  1  0
 15 31  1  0
 17 32  1  0
M  CHG  2  19  -1  21  -1
M  END
>  <mol_id>  (42) 
2026-08-24-6tgu-s0-n100-0042

>  <rmsd_to_ref>  (42) 
2.336734693877704

>  <pose_kind>  (42) 
conformer

$$$$
6tgu.A
     RDKit          3D

 32 34  0  0  0  0  0  0  0  0999 V2000
    3.3448   20.7741   37.2985 C   0  0  0  0  0  0  0  0  0  0  0  0
    2.7667   20.1126   38.5527 C   0  0  0  0  0  0  0  0  0  0  0  0
    1.7157   20.7087   39.2462 C   0  0  0  0  0  0  0  0  0  0  0  0
    1.0383   20.0491   40.2769 C   0  0  0  0  0  0  0  0  0  0  0  0
    1.5167   18.8237   40.7627 C   0  0  0  0  0  0  0  0  0  0  0  0
    0.7682   16.7754   42.0696 C   0  0  0  0  0  0  0  0  0  0  0  0
    1.3650   14.5820   41.9779 C   0  0  0  0  0  0  0  0  0  0  0  0
    2.1850   13.4459   41.5559 C   0  0  0  0  0  0  0  0  0  0  0  0
    1.8462   12.1242   41.8787 C   0  0  0  0  0  0  0  0  0  0  0  0
    2.6219   11.0561   41.4385 C   0  0  0  0  0  0  0  0  0  0  0  0
    3.7155   11.3177   40.6349 C   0  0  0  0  0  0  0  0  0  0  0  0
    4.0831   12.6088   40.2867 C   0  0  0  0  0  0  0  0  0  0  0  0
    3.3008   13.6646   40.7464 C   0  0  0  0  0  0  0  0  0  0  0  0
    0.2241   14.4665   42.7271 C   0  0  0  0  0  0  0  0  0  0  0  0
    2.5665   18.2049   40.0692 C   0  0  0  0  0  0  0  0  0  0  0  0
    3.1698   18.8573   38.9924 C   0  0  0  0  0  0  0  0  0  0  0  0
    0.8006   18.1070   41.7701 N   0  0  0  0  0  0  0  0  0  0  0  0
    1.6558   15.8837   41.5057 N   0  0  0  0  0  0  0  0  0  0  0  0
    2.7159   21.7762   36.8475 O   0  0  0  0  0  0  0  0  0  0  0  0
    4.3400   20.2260   36.7762 O   0  0  0  0  0  0  0  0  0  0  0  0
    4.1256   18.1990   38.2557 O   0  0  0  0  0  0  0  0  0  0  0  0
   -0.5774   15.9849   42.8680 S   0  0  0  0  0  0  0  0  0  0  0  0
    4.6670    9.9953   40.0454 Cl  0  0  0  0  0  0  0  0  0  0  0  0
    1.4092   21.7297   38.9747 H   0  0  0  0  0  0  0  0  0  0  0  0
    0.1283   20.4927   40.7074 H   0  0  0  0  0  0  0  0  0  0  0  0
    0.9528   11.9284   42.4899 H   0  0  0  0  0  0  0  0  0  0  0  0
    2.3697   10.0244   41.7244 H   0  0  0  0  0  0  0  0  0  0  0  0
    4.9702   12.7939   39.6631 H   0  0  0  0  0  0  0  0  0  0  0  0
    3.5681   14.6940   40.4656 H   0  0  0  0  0  0  0  0  0  0  0  0
   -0.1327   13.5291   43.1787 H   0  0  0  0  0  0  0  0  0  0  0  0
    2.9145   17.2066   40.3731 H   0  0  0  0  0  0  0  0  0  0  0  0
    0.2080   18.6952   42.3732 H   0  0  0  0  0  0  0  0  0  0  0  0
  1  2  1  0
  1 19  1  0
  1 20  2  0
  2  3  1  0
  2 16  2  0
  3  4  2  0
  4  5  1  0
  5 15  2  0
  5 17  1  0
  6 17  1  0
  6 18  2  0
  6 22  1  0
  7  8  1  0
  7 14  2  0
  7 18  1  0
  8  9  1  0
  8 13  2  0
  9 10  2  0
 10 11  1  0
 11 12  2  0
 11 23  1  0
 12 13  1  0
 14 22  1  0
 15 16  1  0
 16 21  1  0
  3 24  1  0
  4 25  1  0
  9 26  1  0
 10 27  1  0
 12 28  1  0
 13 29  1  0
 14 30  1  0
 15 31  1  0
 17 32  1  0
M  CHG  2  19  -1  21  -1
M  END
>  <mol_id>  (43) 
2026-08-24-6tgu-s0-n100-0043

>  <rmsd_to_ref>  (43) 
2.3826530612288903

>  <pose_kind>  (43) 
rigid

$$$$
6tgu.A
     RDKit          3D

 32 34  0  0  0  0  0  0  0  0999 V2000
    2.8981   21.4123   36.9184 C   0  0  0  0  0  0  0  0  0  0  0  0
    2.5667   20.8158   38.2069 C   0  0  0  0  0  0  0  0  0  0  0  0
    1.5439   21.3358   38.9335 C   0  0  0  0  0  0  0  0  0  0  0  0
    1.1920   20.7754   40.1347 C   0  0  0  0  0  0  0  0  0  0  0  0
    1.9108   19.6767   40.5707 C   0  0  0  0  0  0  0  0  0  0  0  0
    0.8869   17.8071   41.7078 C   0  0  0  0  0  0  0  0  0  0  0  0
    0.0203   15.7403   41.4908 C   0  0  0  0  0  0  0  0  0  0  0  0
    0.1782   14.2958   41.7867 C   0  0  0  0  0  0  0  0  0  0  0  0
    1.2543   13.7904   42.4744 C   0  0  0  0  0  0  0  0  0  0  0  0
    1.3638   12.4396   42.7336 C   0  0  0  0  0  0  0  0  0  0  0  0
    0.4014   11.5475   42.3126 C   0  0  0  0  0  0  0  0  0  0  0  0
   -0.7019   12.0421   41.6082 C   0  0  0  0  0  0  0  0  0  0  0  0
   -0.7847   13.3955   41.3662 C   0  0  0  0  0  0  0  0  0  0  0  0
   -1.0656   16.2131   40.8261 C   0  0  0  0  0  0  0  0  0  0  0  0
    2.9541   19.1177   39.8694 C   0  0  0  0  0  0  0  0  0  0  0  0
    3.2847   19.7034   38.6630 C   0  0  0  0  0  0  0  0  0  0  0  0
    1.4472   19.1309   41.8339 N   0  0  0  0  0  0  0  0  0  0  0  0
    0.8850   16.6710   41.8506 N   0  0  0  0  0  0  0  0  0  0  0  0
    3.8988   20.9609   36.0804 O   0  0  0  0  0  0  0  0  0  0  0  0
    2.2375   22.4205   36.5083 O   0  0  0  0  0  0  0  0  0  0  0  0
    4.3261   19.2135   37.8805 O   0  0  0  0  0  0  0  0  0  0  0  0
   -0.7779   18.0258   40.7544 S   0  0  0  0  0  0  0  0  0  0  0  0
    0.4918    9.8221   42.6129 Cl  0  0  0  0  0  0  0  0  0  0  0  0
    0.9715   22.2066   38.5978 H   0  0  0  0  0  0  0  0  0  0  0  0
    0.3710   21.1810   40.7272 H   0  0  0  0  0  0  0  0  0  0  0  0
    2.0334   14.4866   42.8235 H   0  0  0  0  0  0  0  0  0  0  0  0
    2.2232   12.0741   43.2914 H   0  0  0  0  0  0  0  0  0  0  0  0
   -1.4880   11.3930   41.2550 H   0  0  0  0  0  0  0  0  0  0  0  0
   -1.6237   13.7596   40.8272 H   0  0  0  0  0  0  0  0  0  0  0  0
   -1.9660   15.7353   40.3847 H   0  0  0  0  0  0  0  0  0  0  0  0
    3.4859   18.2575   40.2466 H   0  0  0  0  0  0  0  0  0  0  0  0
    1.5225   19.6462   42.7163 H   0  0  0  0  0  0  0  0  0  0  0  0
  1  2  1  0
  1 19  1  0
  1 20  2  0
  2  3  1  0
  2 16  2  0
  3  4  2  0
  4  5  1  0
  5 15  2  0
  5 17  1  0
  6 17  1  0
  6 18  2  0
  6 22  1  0
  7  8  1  0
  7 14  2  0
  7 18  1  0
  8  9  1  0
  8 13  2  0
  9 10  2  0
 10 11  1  0
 11 12  2  0
 11 23  1  0
 12 13  1  0
 14 22  1  0
 15 16  1  0
 16 21  1  0
  3 24  1  0
  4 25  1  0
  9 26  1  0
 10 27  1  0
 12 28  1  0
 13 29  1  0
 14 30  1  0
 15 31  1  0
 17 32  1  0
M  CHG  2  19  -1  21  -1
M  END
>  <mol_id>  (44) 
2026-08-24-6tgu-s0-n100-0044

>  <rmsd_to_ref>  (44) 
2.4285714285729147

>  <pose_kind>  (44) 
conformer

$$$$
6tgu.A
     RDKit          3D

 32 34  0  0  0  0  0  0  0  0999 V2000
    3.7047   20.0024   36.5648 C   0  0  0  0  0  0  0  0  0  0  0  0
    3.1314   19.7352   37.9593 C   0  0  0  0  0  0  0  0  0  0  0  0
    2.4677   20.7426   38.6561 C   0  0  0  0  0  0  0  0  0  0  0  0
    1.7691   20.4889   39.8410 C   0  0  0  0  0  0  0  0  0  0  0  0
    1.8644   19.2338   40.4595 C   0  0  0  0  0  0  0  0  0  0  0  0
    0.6641   17.7498   42.1389 C   0  0  0  0  0  0  0  0  0  0  0  0
    0.4486   15.4930   42.3285 C   0  0  0  0  0  0  0  0  0  0  0  0
    0.7535   14.0986   42.0061 C   0  0  0  0  0  0  0  0  0  0  0  0
    0.0338   13.0322   42.5638 C   0  0  0  0  0  0  0  0  0  0  0  0
    0.3185   11.7150   42.2175 C   0  0  0  0  0  0  0  0  0  0  0  0
    1.3002   11.4744   41.2747 C   0  0  0  0  0  0  0  0  0  0  0  0
    2.0322   12.4992   40.6942 C   0  0  0  0  0  0  0  0  0  0  0  0
    1.7402   13.8097   41.0621 C   0  0  0  0  0  0  0  0  0  0  0  0
   -0.5349   15.8800   43.2000 C   0  0  0  0  0  0  0  0  0  0  0  0
    2.5193   18.2058   39.7664 C   0  0  0  0  0  0  0  0  0  0  0  0
    3.1397   18.4749   38.5450 C   0  0  0  0  0  0  0  0  0  0  0  0
    1.1069   18.9385   41.6344 N   0  0  0  0  0  0  0  0  0  0  0  0
    1.0944   16.5419   41.6323 N   0  0  0  0  0  0  0  0  0  0  0  0
    3.3985   21.1087   36.0305 O   0  0  0  0  0  0  0  0  0  0  0  0
    4.3593   19.0783   36.0344 O   0  0  0  0  0  0  0  0  0  0  0  0
    3.6874   17.4397   37.8252 O   0  0  0  0  0  0  0  0  0  0  0  0
   -0.7338   17.5911   43.1848 S   0  0  0  0  0  0  0  0  0  0  0  0
    1.6376    9.8418   40.8034 Cl  0  0  0  0  0  0  0  0  0  0  0  0
    2.4938   21.7693   38.2622 H   0  0  0  0  0  0  0  0  0  0  0  0
    1.1438   21.2752   40.2886 H   0  0  0  0  0  0  0  0  0  0  0  0
   -0.7688   13.2404   43.2865 H   0  0  0  0  0  0  0  0  0  0  0  0
   -0.2269   10.8818   42.6847 H   0  0  0  0  0  0  0  0  0  0  0  0
    2.8234   12.2821   39.9615 H   0  0  0  0  0  0  0  0  0  0  0  0
    2.2995   14.6357   40.5987 H   0  0  0  0  0  0  0  0  0  0  0  0
   -1.1197   15.1900   43.8261 H   0  0  0  0  0  0  0  0  0  0  0  0
    2.5443   17.1887   40.1844 H   0  0  0  0  0  0  0  0  0  0  0  0
    0.8514   19.7629   42.1965 H   0  0  0  0  0  0  0  0  0  0  0  0
  1  2  1  0
  1 19  1  0
  1 20  2  0
  2  3  1  0
  2 16  2  0
  3  4  2  0
  4  5  1  0
  5 15  2  0
  5 17  1  0
  6 17  1  0
  6 18  2  0
  6 22  1  0
  7  8  1  0
  7 14  2  0
  7 18  1  0
  8  9  1  0
  8 13  2  0
  9 10  2  0
 10 11  1  0
 11 12  2  0
 11 23  1  0
 12 13  1  0
 14 22  1  0
 15 16  1  0
 16 21  1  0
  3 24  1  0
  4 25  1  0
  9 26  1  0
 10 27  1  0
 12 28  1  0
 13 29  1  0
 14 30  1  0
 15 31  1  0
 17 32  1  0
M  CHG  2  19  -1  21  -1
M  END
>  <mol_id>  (45) 
2026-08-24-6tgu-s0-n100-0045

>  <rmsd_to_ref>  (45) 
2.4744897959273002

>  <pose_kind>  (45) 
rigid

$$$$
6tgu.A
     RDKit          3D

 32 34  0  0  0  0  0  0  0  0999 V2000
    2.3577   21.5212   35.7302 C   0  0  0  0  0  0  0  0  0  0  0  0
    2.5742   20.9167   37.0392 C   0  0  0  0  0  0  0  0  0  0  0  0
    2.3337   21.6517   38.1557 C   0  0  0  0  0  0  0  0  0  0  0  0
    2.5004   21.0981   39.3992 C   0  0  0  0  0  0  0  0  0  0  0  0
    2.9184   19.7812   39.4698 C   0  0  0  0  0  0  0  0  0  0  0  0
    2.0835   18.2272   41.1204 C   0  0  0  0  0  0  0  0  0  0  0  0
    0.5931   16.5984   41.5622 C   0  0  0  0  0  0  0  0  0  0  0  0
    0.3826   15.1570   41.8408 C   0  0  0  0  0  0  0  0  0  0  0  0
    1.4127   14.2498   41.8864 C   0  0  0  0  0  0  0  0  0  0  0  0
    1.1768   12.9166   42.1525 C   0  0  0  0  0  0  0  0  0  0  0  0
   -0.0978   12.4447   42.3810 C   0  0  0  0  0  0  0  0  0  0  0  0
   -1.1614   13.3527   42.3368 C   0  0  0  0  0  0  0  0  0  0  0  0
   -0.8949   14.6776   42.0706 C   0  0  0  0  0  0  0  0  0  0  0  0
   -0.4436   17.4755   41.5438 C   0  0  0  0  0  0  0  0  0  0  0  0
    3.1750   18.9999   38.3668 C   0  0  0  0  0  0  0  0  0  0  0  0
    2.9974   19.5847   37.1283 C   0  0  0  0  0  0  0  0  0  0  0  0
    3.0355   19.2704   40.8240 N   0  0  0  0  0  0  0  0  0  0  0  0
    1.7723   17.1455   41.3311 N   0  0  0  0  0  0  0  0  0  0  0  0
    2.5455   20.8708   34.5263 O   0  0  0  0  0  0  0  0  0  0  0  0
    1.9681   22.7311   35.6576 O   0  0  0  0  0  0  0  0  0  0  0  0
    3.2331   18.8785   35.9524 O   0  0  0  0  0  0  0  0  0  0  0  0
    0.3573   19.0896   41.1876 S   0  0  0  0  0  0  0  0  0  0  0  0
   -0.4538   10.7616   42.7214 Cl  0  0  0  0  0  0  0  0  0  0  0  0
    2.0055   22.6951   38.1095 H   0  0  0  0  0  0  0  0  0  0  0  0
    2.3084   21.6759   40.3041 H   0  0  0  0  0  0  0  0  0  0  0  0
    2.4400   14.6064   41.7105 H   0  0  0  0  0  0  0  0  0  0  0  0
    2.0168   12.2267   42.1931 H   0  0  0  0  0  0  0  0  0  0  0  0
   -2.1804   13.0431   42.5092 H   0  0  0  0  0  0  0  0  0  0  0  0
   -1.7095   15.3572   42.0352 H   0  0  0  0  0  0  0  0  0  0  0  0
   -1.5401   17.3742   41.6895 H   0  0  0  0  0  0  0  0  0  0  0  0
    3.4969   17.9746   38.4687 H   0  0  0  0  0  0  0  0  0  0  0  0
    3.7325   19.6237   41.4866 H   0  0  0  0  0  0  0  0  0  0  0  0
  1  2  1  0
  1 19  1  0
  1 20  2  0
  2  3  1  0
  2 16  2  0
  3  4  2  0
  4  5  1  0
  5 15  2  0
  5 17  1  0
  6 17  1  0
  6 18  2  0
  6 22  1  0
  7  8  1  0
  7 14  2  0
  7 18  1  0
  8  9  1  0
  8 13  2  0
  9 10  2  0
 10 11  1  0
 11 12  2  0
 11 23  1  0
 12 13  1  0
 14 22  1  0
 15 16  1  0
 16 21  1  0
  3 24  1  0
  4 25  1  0
  9 26  1  0
 10 27  1  0
 12 28  1  0
 13 29  1  0
 14 30  1  0
 15 31  1  0
 17 32  1  0
M  CHG  2  19  -1  21  -1
M  END
>  <mol_id>  (46) 
2026-08-24-6tgu-s0-n100-0046

>  <rmsd_to_ref>  (46) 
2.520408163269119

>  <pose_kind>  (46) 
conformer

$$$$
6tgu.A
     RDKit          3D

 32 34  0  0  0  0  0  0  0  0999 V2000
    3.0288   20.7782   36.7582 C   0  0  0  0  0  0  0  0  0  0  0  0
    2.2157   20.1327   37.8837 C   0  0  0  0  0  0  0  0  0  0  0  0
    0.8254   20.2206   37.8920 C   0  0  0  0  0  0  0  0  0  0  0  0
    0.0410   19.4896   38.7902 C   0  0  0  0  0  0  0  0  0  0  0  0
    0.6468   18.7737   39.8330 C   0  0  0  0  0  0  0  0  0  0  0  0
    0.1971   16.8764   41.4643 C   0  0  0  0  0  0  0  0  0  0  0  0
    1.5406   15.3054   42.4144 C   0  0  0  0  0  0  0  0  0  0  0  0
    2.8211   14.6882   42.7617 C   0  0  0  0  0  0  0  0  0  0  0  0
    2.8964   13.4508   43.4169 C   0  0  0  0  0  0  0  0  0  0  0  0
    4.1249   12.8659   43.7077 C   0  0  0  0  0  0  0  0  0  0  0  0
    5.2785   13.5078   43.2982 C   0  0  0  0  0  0  0  0  0  0  0  0
    5.2498   14.7295   42.6428 C   0  0  0  0  0  0  0  0  0  0  0  0
    4.0112   15.3040   42.3710 C   0  0  0  0  0  0  0  0  0  0  0  0
    0.3209   14.7544   42.7059 C   0  0  0  0  0  0  0  0  0  0  0  0
    2.0448   18.6661   39.8329 C   0  0  0  0  0  0  0  0  0  0  0  0
    2.7954   19.3460   38.8719 C   0  0  0  0  0  0  0  0  0  0  0  0
   -0.1352   17.9711   40.7192 N   0  0  0  0  0  0  0  0  0  0  0  0
    1.5072   16.4769   41.6216 N   0  0  0  0  0  0  0  0  0  0  0  0
    2.3719   21.2346   35.7768 O   0  0  0  0  0  0  0  0  0  0  0  0
    4.2743   20.7311   36.8598 O   0  0  0  0  0  0  0  0  0  0  0  0
    4.1550   19.1502   38.8169 O   0  0  0  0  0  0  0  0  0  0  0  0
   -0.9534   15.6583   41.9800 S   0  0  0  0  0  0  0  0  0  0  0  0
    6.8140   12.7717   43.6171 Cl  0  0  0  0  0  0  0  0  0  0  0  0
    0.3292   20.8855   37.1698 H   0  0  0  0  0  0  0  0  0  0  0  0
   -1.0532   19.4762   38.6785 H   0  0  0  0  0  0  0  0  0  0  0  0
    1.9692   12.9342   43.7056 H   0  0  0  0  0  0  0  0  0  0  0  0
    4.1770   11.9118   44.2526 H   0  0  0  0  0  0  0  0  0  0  0  0
    6.1820   15.2319   42.3452 H   0  0  0  0  0  0  0  0  0  0  0  0
    3.9694   16.2646   41.8366 H   0  0  0  0  0  0  0  0  0  0  0  0
    0.1746   13.8546   43.3216 H   0  0  0  0  0  0  0  0  0  0  0  0
    2.5495   18.0467   40.5889 H   0  0  0  0  0  0  0  0  0  0  0  0
   -1.1168   18.2689   40.8117 H   0  0  0  0  0  0  0  0  0  0  0  0
  1  2  1  0
  1 19  1  0
  1 20  2  0
  2  3  1  0
  2 16  2  0
  3  4  2  0
  4  5  1  0
  5 15  2  0
  5 17  1  0
  6 17  1  0
  6 18  2  0
  6 22  1  0
  7  8  1  0
  7 14  2  0
  7 18  1  0
  8  9  1  0
  8 13  2  0
  9 10  2  0
 10 11  1  0
 11 12  2  0
 11 23  1  0
 12 13  1  0
 14 22  1  0
 15 16  1  0
 16 21  1  0
  3 24  1  0
  4 25  1  0
  9 26  1  0
 10 27  1  0
 12 28  1  0
 13 29  1  0
 14 30  1  0
 15 31  1  0
 17 32  1  0
M  CHG  2  19  -1  21  -1
M  END
>  <mol_id>  (47) 
2026-08-24-6tgu-s0-n100-0047

>  <rmsd_to_ref>  (47) 
2.566326530612808

>  <pose_kind>  (47) 
rigid

$$$$
6tgu.A
     RDKit          3D

 32 34  0  0  0  0  0  0  0  0999 V2000
    2.8487   20.2496   35.7646 C   0  0  0  0  0  0  0  0  0  0  0  0
    2.8610   19.9800   37.1975 C   0  0  0  0  0  0  0  0  0  0  0  0
    2.2777   20.8682   38.0431 C   0  0  0  0  0  0  0  0  0  0  0  0
    2.2487   20.6244   39.3923 C   0  0  0  0  0  0  0  0  0  0  0  0
    2.8302   19.4558   39.8505 C   0  0  0  0  0  0  0  0  0  0  0  0
    1.8931   18.1427   41.6492 C   0  0  0  0  0  0  0  0  0  0  0  0
    0.5981   16.3836   42.1949 C   0  0  0  0  0  0  0  0  0  0  0  0
    0.5458   15.0173   42.7690 C   0  0  0  0  0  0  0  0  0  0  0  0
    1.6631   14.3543   43.2148 C   0  0  0  0  0  0  0  0  0  0  0  0
    1.5733   13.0842   43.7464 C   0  0  0  0  0  0  0  0  0  0  0  0
    0.3630   12.4330   43.8496 C   0  0  0  0  0  0  0  0  0  0  0  0
   -0.7869   13.0906   43.3991 C   0  0  0  0  0  0  0  0  0  0  0  0
   -0.6664   14.3586   42.8747 C   0  0  0  0  0  0  0  0  0  0  0  0
   -0.5270   17.0221   41.7812 C   0  0  0  0  0  0  0  0  0  0  0  0
    3.4329   18.5288   39.0317 C   0  0  0  0  0  0  0  0  0  0  0  0
    3.4455   18.8016   37.6778 C   0  0  0  0  0  0  0  0  0  0  0  0
    2.7230   19.2661   41.2862 N   0  0  0  0  0  0  0  0  0  0  0  0
    1.7058   17.0882   42.0540 N   0  0  0  0  0  0  0  0  0  0  0  0
    3.3877   19.4146   34.8056 O   0  0  0  0  0  0  0  0  0  0  0  0
    2.3109   21.3207   35.3351 O   0  0  0  0  0  0  0  0  0  0  0  0
    4.0330   17.9278   36.7677 O   0  0  0  0  0  0  0  0  0  0  0  0
    0.0863   18.6519   41.1972 S   0  0  0  0  0  0  0  0  0  0  0  0
    0.1926   10.8194   44.5148 Cl  0  0  0  0  0  0  0  0  0  0  0  0
    1.8178   21.7968   37.6898 H   0  0  0  0  0  0  0  0  0  0  0  0
    1.7814   21.3278   40.0826 H   0  0  0  0  0  0  0  0  0  0  0  0
    2.6403   14.8581   43.1451 H   0  0  0  0  0  0  0  0  0  0  0  0
    2.4763   12.5923   44.1012 H   0  0  0  0  0  0  0  0  0  0  0  0
   -1.7622   12.6327   43.4556 H   0  0  0  0  0  0  0  0  0  0  0  0
   -1.5444   14.8467   42.5320 H   0  0  0  0  0  0  0  0  0  0  0  0
   -1.6018   16.7437   41.7483 H   0  0  0  0  0  0  0  0  0  0  0  0
    3.8718   17.6279   39.4326 H   0  0  0  0  0  0  0  0  0  0  0  0
    3.1991   19.8754   41.9584 H   0  0  0  0  0  0  0  0  0  0  0  0
  1  2  1  0
  1 19  1  0
  1 20  2  0
  2  3  1  0
  2 16  2  0
  3  4  2  0
  4  5  1  0
  5 15  2  0
  5 17  1  0
  6 17  1  0
  6 18  2  0
  6 22  1  0
  7  8  1  0
  7 14  2  0
  7 18  1  0
  8  9  1  0
  8 13  2  0
  9 10  2  0
 10 11  1  0
 11 12  2  0
 11 23  1  0
 12 13  1  0
 14 22  1  0
 15 16  1  0
 16 21  1  0
  3 24  1  0
  4 25  1  0
  9 26  1  0
 10 27  1  0
 12 28  1  0
 13 29  1  0
 14 30  1  0
 15 31  1  0
 17 32  1  0
M  CHG  2  19  -1  21  -1
M  END
>  <mol_id>  (48) 
2026-08-24-6tgu-s0-n100-0048

>  <rmsd_to_ref>  (48) 
2.6122448979600668

>  <pose_kind>  (48) 
conformer

$$$$
6tgu.A
     RDKit          3D

 32 34  0  0  0  0  0  0  0  0999 V2000
    3.8333   19.5456   36.1517 C   0  0  0  0  0  0  0  0  0  0  0  0
    3.2915   19.7159   37.5737 C   0  0  0  0  0  0  0  0  0  0  0  0
    2.7679   20.9381   37.9894 C   0  0  0  0  0  0  0  0  0  0  0  0
    2.0946   21.0813   39.2069 C   0  0  0  0  0  0  0  0  0  0  0  0
    2.0801   20.0271   40.1317 C   0  0  0  0  0  0  0  0  0  0  0  0
    0.7970   19.1755   42.1545 C   0  0  0  0  0  0  0  0  0  0  0  0
    0.3494   17.0846   42.9313 C   0  0  0  0  0  0  0  0  0  0  0  0
    0.4904   15.6290   42.9824 C   0  0  0  0  0  0  0  0  0  0  0  0
   -0.3160   14.8326   43.8078 C   0  0  0  0  0  0  0  0  0  0  0  0
   -0.1880   13.4471   43.8158 C   0  0  0  0  0  0  0  0  0  0  0  0
    0.7236   12.8604   42.9583 C   0  0  0  0  0  0  0  0  0  0  0  0
    1.5369   13.6097   42.1214 C   0  0  0  0  0  0  0  0  0  0  0  0
    1.4016   14.9951   42.1363 C   0  0  0  0  0  0  0  0  0  0  0  0
   -0.5512   17.7934   43.6817 C   0  0  0  0  0  0  0  0  0  0  0  0
    2.5930   18.7871   39.7251 C   0  0  0  0  0  0  0  0  0  0  0  0
    3.1887   18.6580   38.4691 C   0  0  0  0  0  0  0  0  0  0  0  0
    1.3435   20.1345   41.3512 N   0  0  0  0  0  0  0  0  0  0  0  0
    1.0749   17.8368   41.9774 N   0  0  0  0  0  0  0  0  0  0  0  0
    3.6257   20.5029   35.3495 O   0  0  0  0  0  0  0  0  0  0  0  0
    4.3634   18.4474   35.8749 O   0  0  0  0  0  0  0  0  0  0  0  0
    3.5931   17.4163   38.0399 O   0  0  0  0  0  0  0  0  0  0  0  0
   -0.5667   19.4533   43.2207 S   0  0  0  0  0  0  0  0  0  0  0  0
    0.8654   11.1340   42.9277 Cl  0  0  0  0  0  0  0  0  0  0  0  0
    2.8876   21.8178   37.3399 H   0  0  0  0  0  0  0  0  0  0  0  0
    1.5753   22.0227   39.4397 H   0  0  0  0  0  0  0  0  0  0  0  0
   -1.0620   15.3108   44.4596 H   0  0  0  0  0  0  0  0  0  0  0  0
   -0.7999   12.8310   44.4910 H   0  0  0  0  0  0  0  0  0  0  0  0
    2.2702   13.1216   41.4625 H   0  0  0  0  0  0  0  0  0  0  0  0
    2.0268   15.6037   41.4663 H   0  0  0  0  0  0  0  0  0  0  0  0
   -1.1805   17.3605   44.4731 H   0  0  0  0  0  0  0  0  0  0  0  0
    2.5260   17.9170   40.3948 H   0  0  0  0  0  0  0  0  0  0  0  0
    1.2004   21.1000   41.6804 H   0  0  0  0  0  0  0  0  0  0  0  0
  1  2  1  0
  1 19  1  0
  1 20  2  0
  2  3  1  0
  2 16  2  0
  3  4  2  0
  4  5  1  0
  5 15  2  0
  5 17  1  0
  6 17  1  0
  6 18  2  0
  6 22  1  0
  7  8  1  0
  7 14  2  0
  7 18  1  0
  8  9  1  0
  8 13  2  0
  9 10  2  0
 10 11  1  0
 11 12  2  0
 11 23  1  0
 12 13  1  0
 14 22  1  0
 15 16  1  0
 16 21  1  0
  3 24  1  0
  4 25  1  0
  9 26  1  0
 10 27  1  0
 12 28  1  0
 13 29  1  0
 14 30  1  0
 15 31  1  0
 17 32  1  0
M  CHG  2  19  -1  21  -1
M  END
>  <mol_id>  (49) 
2026-08-24-6tgu-s0-n100-0049

>  <rmsd_to_ref>  (49) 
2.6581632653068232

>  <pose_kind>  (49) 
rigid

$$$$
6tgu.A
     RDKit          3D

 32 34  0  0  0  0  0  0  0  0999 V2000
    3.3092   21.1836   36.9207 C   0  0  0  0  0  0  0  0  0  0  0  0
    3.2158   20.6887   38.2891 C   0  0  0  0  0  0  0  0  0  0  0  0
    2.5621   21.4325   39.2186 C   0  0  0  0  0  0  0  0  0  0  0  0
    2.4336   20.9766   40.5056 C   0  0  0  0  0  0  0  0  0  0  0  0
    2.9896   19.7481   40.8147 C   0  0  0  0  0  0  0  0  0  0  0  0
    1.9315   18.1678   42.3047 C   0  0  0  0  0  0  0  0  0  0  0  0
    0.6152   16.3479   42.4632 C   0  0  0  0  0  0  0  0  0  0  0  0
    0.5324   14.9076   42.8067 C   0  0  0  0  0  0  0  0  0  0  0  0
    1.6189   14.1788   43.2248 C   0  0  0  0  0  0  0  0  0  0  0  0
    1.5010   12.8404   43.5390 C   0  0  0  0  0  0  0  0  0  0  0  0
    0.2924   12.1847   43.4449 C   0  0  0  0  0  0  0  0  0  0  0  0
   -0.8263   12.9090   43.0187 C   0  0  0  0  0  0  0  0  0  0  0  0
   -0.6782   14.2441   42.7137 C   0  0  0  0  0  0  0  0  0  0  0  0
   -0.4812   17.0475   42.0722 C   0  0  0  0  0  0  0  0  0  0  0  0
    3.6608   18.9619   39.9069 C   0  0  0  0  0  0  0  0  0  0  0  0
    3.7732   19.4471   38.6187 C   0  0  0  0  0  0  0  0  0  0  0  0
    2.7760   19.3322   42.1895 N   0  0  0  0  0  0  0  0  0  0  0  0
    1.7239   17.0627   42.5211 N   0  0  0  0  0  0  0  0  0  0  0  0
    3.9268   20.5105   35.8849 O   0  0  0  0  0  0  0  0  0  0  0  0
    2.7955   22.3111   36.6278 O   0  0  0  0  0  0  0  0  0  0  0  0
    4.4358   18.7280   37.6284 O   0  0  0  0  0  0  0  0  0  0  0  0
    0.1593   18.7477   41.8037 S   0  0  0  0  0  0  0  0  0  0  0  0
    0.0871   10.4861   43.8296 Cl  0  0  0  0  0  0  0  0  0  0  0  0
    2.1217   22.4069   38.9839 H   0  0  0  0  0  0  0  0  0  0  0  0
    1.9091   21.5622   41.2616 H   0  0  0  0  0  0  0  0  0  0  0  0
    2.5938   14.6843   43.3108 H   0  0  0  0  0  0  0  0  0  0  0  0
    2.3791   12.2955   43.8784 H   0  0  0  0  0  0  0  0  0  0  0  0
   -1.7988   12.4509   42.9273 H   0  0  0  0  0  0  0  0  0  0  0  0
   -1.5323   14.7832   42.3874 H   0  0  0  0  0  0  0  0  0  0  0  0
   -1.5479   16.7811   41.9138 H   0  0  0  0  0  0  0  0  0  0  0  0
    4.0766   18.0073   40.1915 H   0  0  0  0  0  0  0  0  0  0  0  0
    3.1944   19.8251   42.9844 H   0  0  0  0  0  0  0  0  0  0  0  0
  1  2  1  0
  1 19  1  0
  1 20  2  0
  2  3  1  0
  2 16  2  0
  3  4  2  0
  4  5  1  0
  5 15  2  0
  5 17  1  0
  6 17  1  0
  6 18  2  0
  6 22  1  0
  7  8  1  0
  7 14  2  0
  7 18  1  0
  8  9  1  0
  8 13  2  0
  9 10  2  0
 10 11  1  0
 11 12  2  0
 11 23  1  0
 12 13  1  0
 14 22  1  0
 15 16  1  0
 16 21  1  0
  3 24  1  0
  4 25  1  0
  9 26  1  0
 10 27  1  0
 12 28  1  0
 13 29  1  0
 14 30  1  0
 15 31  1  0
 17 32  1  0
M  CHG  2  19  -1  21  -1
M  END
>  <mol_id>  (50) 
2026-08-24-6tgu-s0-n100-0050

>  <rmsd_to_ref>  (50) 
2.7040816326561994

>  <pose_kind>  (50) 
conformer

$$$$
6tgu.A
     RDKit          3D

 32 34  0  0  0  0  0  0  0  0999 V2000
    3.9146   20.3282   36.7354 C   0  0  0  0  0  0  0  0  0  0  0  0
    3.2979   19.8843   38.0648 C   0  0  0  0  0  0  0  0  0  0  0  0
    2.4047   20.7120   38.7415 C   0  0  0  0  0  0  0  0  0  0  0  0
    1.6786   20.2694   39.8521 C   0  0  0  0  0  0  0  0  0  0  0  0
    1.9622   19.0220   40.4272 C   0  0  0  0  0  0  0  0  0  0  0  0
    0.9401   17.2526   41.9396 C   0  0  0  0  0  0  0  0  0  0  0  0
    1.1413   14.9880   42.0221 C   0  0  0  0  0  0  0  0  0  0  0  0
    1.7281   13.6938   41.6726 C   0  0  0  0  0  0  0  0  0  0  0  0
    1.1827   12.4840   42.1252 C   0  0  0  0  0  0  0  0  0  0  0  0
    1.7366   11.2630   41.7532 C   0  0  0  0  0  0  0  0  0  0  0  0
    2.8149   11.2599   40.8885 C   0  0  0  0  0  0  0  0  0  0  0  0
    3.3819   12.4324   40.4125 C   0  0  0  0  0  0  0  0  0  0  0  0
    2.8204   13.6443   40.8052 C   0  0  0  0  0  0  0  0  0  0  0  0
    0.0391   15.1382   42.8214 C   0  0  0  0  0  0  0  0  0  0  0  0
    2.8504   18.1723   39.7525 C   0  0  0  0  0  0  0  0  0  0  0  0
    3.4997   18.6174   38.5995 C   0  0  0  0  0  0  0  0  0  0  0  0
    1.1872   18.5283   41.5211 N   0  0  0  0  0  0  0  0  0  0  0  0
    1.6281   16.1746   41.4246 N   0  0  0  0  0  0  0  0  0  0  0  0
    3.4462   21.3859   36.2206 O   0  0  0  0  0  0  0  0  0  0  0  0
    4.7704   19.5715   36.2268 O   0  0  0  0  0  0  0  0  0  0  0  0
    4.2863   17.7422   37.8889 O   0  0  0  0  0  0  0  0  0  0  0  0
   -0.4780   16.7811   42.8561 S   0  0  0  0  0  0  0  0  0  0  0  0
    3.4898    9.7460   40.3842 Cl  0  0  0  0  0  0  0  0  0  0  0  0
    2.2660   21.7455   38.3915 H   0  0  0  0  0  0  0  0  0  0  0  0
    0.8837   20.9009   40.2754 H   0  0  0  0  0  0  0  0  0  0  0  0
    0.3026   12.5004   42.7849 H   0  0  0  0  0  0  0  0  0  0  0  0
    1.3247   10.3191   42.1397 H   0  0  0  0  0  0  0  0  0  0  0  0
    4.2533   12.4058   39.7416 H   0  0  0  0  0  0  0  0  0  0  0  0
    3.2470   14.5836   40.4234 H   0  0  0  0  0  0  0  0  0  0  0  0
   -0.4505   14.3190   43.3683 H   0  0  0  0  0  0  0  0  0  0  0  0
    3.0354   17.1563   40.1311 H   0  0  0  0  0  0  0  0  0  0  0  0
    0.7384   19.2595   42.0912 H   0  0  0  0  0  0  0  0  0  0  0  0
  1  2  1  0
  1 19  1  0
  1 20  2  0
  2  3  1  0
  2 16  2  0
  3  4  2  0
  4  5  1  0
  5 15  2  0
  5 17  1  0
  6 17  1  0
  6 18  2  0
  6 22  1  0
  7  8  1  0
  7 14  2  0
  7 18  1  0
  8  9  1  0
  8 13  2  0
  9 10  2  0
 10 11  1  0
 11 12  2  0
 11 23  1  0
 12 13  1  0
 14 22  1  0
 15 16  1  0
 16 21  1  0
  3 24  1  0
  4 25  1  0
  9 26  1  0
 10 27  1  0
 12 28  1  0
 13 29  1  0
 14 30  1  0
 15 31  1  0
 17 32  1  0
M  CHG  2  19  -1  21  -1
M  END
>  <mol_id>  (51) 
2026-08-24-6tgu-s0-n100-0051

>  <rmsd_to_ref>  (51) 
2.7500000000019478

>  <pose_kind>  (51) 
rigid

$$$$
6tgu.A
     RDKit          3D

 32 34  0  0  0  0  0  0  0  0999 V2000
    3.0302   20.7923   37.6114 C   0  0  0  0  0  0  0  0  0  0  0  0
    2.8643   20.1397   38.9047 C   0  0  0  0  0  0  0  0  0  0  0  0
    2.1255   20.7526   39.8655 C   0  0  0  0  0  0  0  0  0  0  0  0
    1.9289   20.1472   41.0801 C   0  0  0  0  0  0  0  0  0  0  0  0
    2.5058   18.9065   41.2850 C   0  0  0  0  0  0  0  0  0  0  0  0
    1.4078   17.1359   42.5084 C   0  0  0  0  0  0  0  0  0  0  0  0
    0.1482   15.2751   42.3670 C   0  0  0  0  0  0  0  0  0  0  0  0
    0.0933   13.8029   42.5376 C   0  0  0  0  0  0  0  0  0  0  0  0
    1.1746   13.0602   42.9440 C   0  0  0  0  0  0  0  0  0  0  0  0
    1.0830   11.6916   43.0949 C   0  0  0  0  0  0  0  0  0  0  0  0
   -0.0932   11.0188   42.8431 C   0  0  0  0  0  0  0  0  0  0  0  0
   -1.2060   11.7573   42.4259 C   0  0  0  0  0  0  0  0  0  0  0  0
   -1.0848   13.1222   42.2859 C   0  0  0  0  0  0  0  0  0  0  0  0
   -0.9439   15.9854   41.9833 C   0  0  0  0  0  0  0  0  0  0  0  0
    3.2621   18.2494   40.3422 C   0  0  0  0  0  0  0  0  0  0  0  0
    3.4419   18.8837   39.1285 C   0  0  0  0  0  0  0  0  0  0  0  0
    2.2170   18.3283   42.5853 N   0  0  0  0  0  0  0  0  0  0  0  0
    1.2250   16.0080   42.5825 N   0  0  0  0  0  0  0  0  0  0  0  0
    3.7376   20.2610   36.5509 O   0  0  0  0  0  0  0  0  0  0  0  0
    2.4979   21.9318   37.4140 O   0  0  0  0  0  0  0  0  0  0  0  0
    4.1927   18.3025   38.1109 O   0  0  0  0  0  0  0  0  0  0  0  0
   -0.3468   17.7220   41.9551 S   0  0  0  0  0  0  0  0  0  0  0  0
   -0.2640    9.2821   43.0167 Cl  0  0  0  0  0  0  0  0  0  0  0  0
    1.6679   21.7354   39.7133 H   0  0  0  0  0  0  0  0  0  0  0  0
    1.3357   20.6267   41.8598 H   0  0  0  0  0  0  0  0  0  0  0  0
    2.1236   13.5784   43.1544 H   0  0  0  0  0  0  0  0  0  0  0  0
    1.9553   11.1350   43.4299 H   0  0  0  0  0  0  0  0  0  0  0  0
   -2.1539   11.2867   42.2158 H   0  0  0  0  0  0  0  0  0  0  0  0
   -1.9339   13.6722   41.9648 H   0  0  0  0  0  0  0  0  0  0  0  0
   -1.9880   15.7105   41.7220 H   0  0  0  0  0  0  0  0  0  0  0  0
    3.6913   17.2798   40.5442 H   0  0  0  0  0  0  0  0  0  0  0  0
    2.5648   18.7368   43.4582 H   0  0  0  0  0  0  0  0  0  0  0  0
  1  2  1  0
  1 19  1  0
  1 20  2  0
  2  3  1  0
  2 16  2  0
  3  4  2  0
  4  5  1  0
  5 15  2  0
  5 17  1  0
  6 17  1  0
  6 18  2  0
  6 22  1  0
  7  8  1  0
  7 14  2  0
  7 18  1  0
  8  9  1  0
  8 13  2  0
  9 10  2  0
 10 11  1  0
 11 12  2  0
 11 23  1  0
 12 13  1  0
 14 22  1  0
 15 16  1  0
 16 21  1  0
  3 24  1  0
  4 25  1  0
  9 26  1  0
 10 27  1  0
 12 28  1  0
 13 29  1  0
 14 30  1  0
 15 31  1  0
 17 32  1  0
M  CHG  2  19  -1  21  -1
M  END
>  <mol_id>  (52) 
2026-08-24-6tgu-s0-n100-0052

>  <rmsd_to_ref>  (52) 
2.7959183673503465

>  <pose_kind>  (52) 
conformer

$$$$
6tgu.A
     RDKit          3D

 32 34  0  0  0  0  0  0  0  0999 V2000
    3.3877   20.1882   37.6134 C   0  0  0  0  0  0  0  0  0  0  0  0
    2.4708   20.0551   38.8326 C   0  0  0  0  0  0  0  0  0  0  0  0
    1.5332   21.0433   39.1237 C   0  0  0  0  0  0  0  0  0  0  0  0
    0.5556   20.8715   40.1091 C   0  0  0  0  0  0  0  0  0  0  0  0
    0.6017   19.7576   40.9599 C   0  0  0  0  0  0  0  0  0  0  0  0
   -0.8655   18.3844   42.5173 C   0  0  0  0  0  0  0  0  0  0  0  0
   -0.8869   16.1784   43.0730 C   0  0  0  0  0  0  0  0  0  0  0  0
   -0.3572   14.8151   43.1161 C   0  0  0  0  0  0  0  0  0  0  0  0
   -1.0897   13.7498   43.6587 C   0  0  0  0  0  0  0  0  0  0  0  0
   -0.5806   12.4548   43.6589 C   0  0  0  0  0  0  0  0  0  0  0  0
    0.6495   12.2257   43.0717 C   0  0  0  0  0  0  0  0  0  0  0  0
    1.4047   13.2488   42.5185 C   0  0  0  0  0  0  0  0  0  0  0  0
    0.8831   14.5394   42.5382 C   0  0  0  0  0  0  0  0  0  0  0  0
   -2.1137   16.5391   43.5644 C   0  0  0  0  0  0  0  0  0  0  0  0
    1.5322   18.7484   40.6739 C   0  0  0  0  0  0  0  0  0  0  0  0
    2.4441   18.9174   39.6305 C   0  0  0  0  0  0  0  0  0  0  0  0
   -0.4247   19.5345   41.9285 N   0  0  0  0  0  0  0  0  0  0  0  0
   -0.1833   17.1938   42.3832 N   0  0  0  0  0  0  0  0  0  0  0  0
    3.1323   21.1374   36.8154 O   0  0  0  0  0  0  0  0  0  0  0  0
    4.2603   19.3055   37.4613 O   0  0  0  0  0  0  0  0  0  0  0  0
    3.2808   17.8804   39.2926 O   0  0  0  0  0  0  0  0  0  0  0  0
   -2.4794   18.1755   43.1692 S   0  0  0  0  0  0  0  0  0  0  0  0
    1.2779   10.6118   43.0280 Cl  0  0  0  0  0  0  0  0  0  0  0  0
    1.5625   21.9881   38.5610 H   0  0  0  0  0  0  0  0  0  0  0  0
   -0.2510   21.6116   40.2171 H   0  0  0  0  0  0  0  0  0  0  0  0
   -2.0828   13.9409   44.0913 H   0  0  0  0  0  0  0  0  0  0  0  0
   -1.1458   11.6299   44.1174 H   0  0  0  0  0  0  0  0  0  0  0  0
    2.3908   13.0458   42.0754 H   0  0  0  0  0  0  0  0  0  0  0  0
    1.4613   15.3600   42.0884 H   0  0  0  0  0  0  0  0  0  0  0  0
   -2.7770   15.8725   44.1351 H   0  0  0  0  0  0  0  0  0  0  0  0
    1.5436   17.8246   41.2710 H   0  0  0  0  0  0  0  0  0  0  0  0
   -0.9159   20.3866   42.2345 H   0  0  0  0  0  0  0  0  0  0  0  0
  1  2  1  0
  1 19  1  0
  1 20  2  0
  2  3  1  0
  2 16  2  0
  3  4  2  0
  4  5  1  0
  5 15  2  0
  5 17  1  0
  6 17  1  0
  6 18  2  0
  6 22  1  0
  7  8  1  0
  7 14  2  0
  7 18  1  0
  8  9  1  0
  8 13  2  0
  9 10  2  0
 10 11  1  0
 11 12  2  0
 11 23  1  0
 12 13  1  0
 14 22  1  0
 15 16  1  0
 16 21  1  0
  3 24  1  0
  4 25  1  0
  9 26  1  0
 10 27  1  0
 12 28  1  0
 13 29  1  0
 14 30  1  0
 15 31  1  0
 17 32  1  0
M  CHG  2  19  -1  21  -1
M  END
>  <mol_id>  (53) 
2026-08-24-6tgu-s0-n100-0053

>  <rmsd_to_ref>  (53) 
2.841836734697921

>  <pose_kind>  (53) 
rigid

$$$$
6tgu.A
     RDKit          3D

 32 34  0  0  0  0  0  0  0  0999 V2000
    2.8528   20.6915   37.7214 C   0  0  0  0  0  0  0  0  0  0  0  0
    2.0021   19.5608   38.0734 C   0  0  0  0  0  0  0  0  0  0  0  0
    2.0086   18.4565   37.2828 C   0  0  0  0  0  0  0  0  0  0  0  0
    1.2407   17.3675   37.6072 C   0  0  0  0  0  0  0  0  0  0  0  0
    0.4699   17.4385   38.7539 C   0  0  0  0  0  0  0  0  0  0  0  0
    0.1503   15.5586   40.2373 C   0  0  0  0  0  0  0  0  0  0  0  0
    0.8383   14.5293   42.1179 C   0  0  0  0  0  0  0  0  0  0  0  0
    0.5098   14.1586   43.5158 C   0  0  0  0  0  0  0  0  0  0  0  0
   -0.6756   14.5027   44.1179 C   0  0  0  0  0  0  0  0  0  0  0  0
   -0.9462   14.1359   45.4203 C   0  0  0  0  0  0  0  0  0  0  0  0
   -0.0398   13.4131   46.1656 C   0  0  0  0  0  0  0  0  0  0  0  0
    1.1749   13.0544   45.5709 C   0  0  0  0  0  0  0  0  0  0  0  0
    1.4162   13.4333   44.2688 C   0  0  0  0  0  0  0  0  0  0  0  0
    2.0108   14.1569   41.5426 C   0  0  0  0  0  0  0  0  0  0  0  0
    0.4311   18.5357   39.5829 C   0  0  0  0  0  0  0  0  0  0  0  0
    1.2157   19.6165   39.2307 C   0  0  0  0  0  0  0  0  0  0  0  0
   -0.2830   16.2291   39.0352 N   0  0  0  0  0  0  0  0  0  0  0  0
    0.0386   15.2185   41.3250 N   0  0  0  0  0  0  0  0  0  0  0  0
    2.9497   21.8573   38.4557 O   0  0  0  0  0  0  0  0  0  0  0  0
    3.5688   20.6313   36.6704 O   0  0  0  0  0  0  0  0  0  0  0  0
    1.2437   20.7742   40.0027 O   0  0  0  0  0  0  0  0  0  0  0  0
    1.8959   14.8353   39.8398 S   0  0  0  0  0  0  0  0  0  0  0  0
   -0.3316   12.9229   47.8239 Cl  0  0  0  0  0  0  0  0  0  0  0  0
    2.6129   18.3925   36.3722 H   0  0  0  0  0  0  0  0  0  0  0  0
    1.2382   16.4731   36.9829 H   0  0  0  0  0  0  0  0  0  0  0  0
   -1.4159   15.0772   43.5388 H   0  0  0  0  0  0  0  0  0  0  0  0
   -1.8999   14.4146   45.8630 H   0  0  0  0  0  0  0  0  0  0  0  0
    1.9226   12.4875   46.1035 H   0  0  0  0  0  0  0  0  0  0  0  0
    2.3426   13.1597   43.8289 H   0  0  0  0  0  0  0  0  0  0  0  0
    2.8962   13.5884   41.8987 H   0  0  0  0  0  0  0  0  0  0  0  0
   -0.1833   18.5464   40.4703 H   0  0  0  0  0  0  0  0  0  0  0  0
   -1.0446   15.9028   38.4325 H   0  0  0  0  0  0  0  0  0  0  0  0
  1  2  1  0
  1 19  1  0
  1 20  2  0
  2  3  1  0
  2 16  2  0
  3  4  2  0
  4  5  1  0
  5 15  2  0
  5 17  1  0
  6 17  1  0
  6 18  2  0
  6 22  1  0
  7  8  1  0
  7 14  2  0
  7 18  1  0
  8  9  1  0
  8 13  2  0
  9 10  2  0
 10 11  1  0
 11 12  2  0
 11 23  1  0
 12 13  1  0
 14 22  1  0
 15 16  1  0
 16 21  1  0
  3 24  1  0
  4 25  1  0
  9 26  1  0
 10 27  1  0
 12 28  1  0
 13 29  1  0
 14 30  1  0
 15 31  1  0
 17 32  1  0
M  CHG  2  19  -1  21  -1
M  END
>  <mol_id>  (54) 
2026-08-24-6tgu-s0-n100-0054

>  <rmsd_to_ref>  (54) 
2.887755102042873

>  <pose_kind>  (54) 
conformer

$$$$
6tgu.A
     RDKit          3D

 32 34  0  0  0  0  0  0  0  0999 V2000
    3.7517   20.0187   36.9334 C   0  0  0  0  0  0  0  0  0  0  0  0
    2.9285   19.8337   38.2112 C   0  0  0  0  0  0  0  0  0  0  0  0
    2.0528   20.8292   38.6386 C   0  0  0  0  0  0  0  0  0  0  0  0
    1.1494   20.6230   39.6864 C   0  0  0  0  0  0  0  0  0  0  0  0
    1.2214   19.4543   40.4584 C   0  0  0  0  0  0  0  0  0  0  0  0
   -0.1685   18.0274   42.0380 C   0  0  0  0  0  0  0  0  0  0  0  0
   -0.2264   15.7913   42.4525 C   0  0  0  0  0  0  0  0  0  0  0  0
    0.2554   14.4123   42.3663 C   0  0  0  0  0  0  0  0  0  0  0  0
   -0.4706   13.3366   42.8972 C   0  0  0  0  0  0  0  0  0  0  0  0
   -0.0102   12.0294   42.7745 C   0  0  0  0  0  0  0  0  0  0  0  0
    1.1612   11.8015   42.0772 C   0  0  0  0  0  0  0  0  0  0  0  0
    1.9075   12.8350   41.5313 C   0  0  0  0  0  0  0  0  0  0  0  0
    1.4361   14.1370   41.6745 C   0  0  0  0  0  0  0  0  0  0  0  0
   -1.3973   16.1565   43.0624 C   0  0  0  0  0  0  0  0  0  0  0  0
    2.0897   18.4379   40.0352 C   0  0  0  0  0  0  0  0  0  0  0  0
    2.9230   18.6472   38.9348 C   0  0  0  0  0  0  0  0  0  0  0  0
    0.2662   19.1997   41.4899 N   0  0  0  0  0  0  0  0  0  0  0  0
    0.4575   16.8277   41.7743 N   0  0  0  0  0  0  0  0  0  0  0  0
    3.4694   21.0260   36.2203 O   0  0  0  0  0  0  0  0  0  0  0  0
    4.5774   19.1213   36.6561 O   0  0  0  0  0  0  0  0  0  0  0  0
    3.6927   17.6094   38.4658 O   0  0  0  0  0  0  0  0  0  0  0  0
   -1.7332   17.8261   42.8026 S   0  0  0  0  0  0  0  0  0  0  0  0
    1.7255   10.1753   41.8809 Cl  0  0  0  0  0  0  0  0  0  0  0  0
    2.0723   21.8078   38.1365 H   0  0  0  0  0  0  0  0  0  0  0  0
    0.3810   21.3790   39.9054 H   0  0  0  0  0  0  0  0  0  0  0  0
   -1.4195   13.5294   43.4193 H   0  0  0  0  0  0  0  0  0  0  0  0
   -0.5674   11.1939   43.2234 H   0  0  0  0  0  0  0  0  0  0  0  0
    2.8481   12.6312   40.9985 H   0  0  0  0  0  0  0  0  0  0  0  0
    2.0067   14.9673   41.2329 H   0  0  0  0  0  0  0  0  0  0  0  0
   -2.0378   15.4746   43.6411 H   0  0  0  0  0  0  0  0  0  0  0  0
    2.1142   17.4767   40.5697 H   0  0  0  0  0  0  0  0  0  0  0  0
   -0.1683   20.0445   41.8878 H   0  0  0  0  0  0  0  0  0  0  0  0
  1  2  1  0
  1 19  1  0
  1 20  2  0
  2  3  1  0
  2 16  2  0
  3  4  2  0
  4  5  1  0
  5 15  2  0
  5 17  1  0
  6 17  1  0
  6 18  2  0
  6 22  1  0
  7  8  1  0
  7 14  2  0
  7 18  1  0
  8  9  1  0
  8 13  2  0
  9 10  2  0
 10 11  1  0
 11 12  2  0
 11 23  1  0
 12 13  1  0
 14 22  1  0
 15 16  1  0
 16 21  1  0
  3 24  1  0
  4 25  1  0
  9 26  1  0
 10 27  1  0
 12 28  1  0
 13 29  1  0
 14 30  1  0
 15 31  1  0
 17 32  1  0
M  CHG  2  19  -1  21  -1
M  END
>  <mol_id>  (55) 
2026-08-24-6tgu-s0-n100-0055

>  <rmsd_to_ref>  (55) 
2.9336734693958286

>  <pose_kind>  (55) 
rigid

$$$$
6tgu.A
     RDKit          3D

 32 34  0  0  0  0  0  0  0  0999 V2000
    2.3175   22.1811   37.0580 C   0  0  0  0  0  0  0  0  0  0  0  0
    2.3570   21.3046   38.2225 C   0  0  0  0  0  0  0  0  0  0  0  0
    1.4345   21.4683   39.2057 C   0  0  0  0  0  0  0  0  0  0  0  0
    1.4306   20.6383   40.2974 C   0  0  0  0  0  0  0  0  0  0  0  0
    2.3903   19.6437   40.3569 C   0  0  0  0  0  0  0  0  0  0  0  0
    1.9347   17.4314   41.2142 C   0  0  0  0  0  0  0  0  0  0  0  0
    1.3853   15.3092   40.7005 C   0  0  0  0  0  0  0  0  0  0  0  0
    1.8303   13.8957   40.6437 C   0  0  0  0  0  0  0  0  0  0  0  0
    3.0911   13.4971   41.0146 C   0  0  0  0  0  0  0  0  0  0  0  0
    3.4668   12.1709   40.9510 C   0  0  0  0  0  0  0  0  0  0  0  0
    2.5945   11.1979   40.5130 C   0  0  0  0  0  0  0  0  0  0  0  0
    1.3058   11.5838   40.1285 C   0  0  0  0  0  0  0  0  0  0  0  0
    0.9589   12.9146   40.2045 C   0  0  0  0  0  0  0  0  0  0  0  0
    0.1248   15.6703   40.3464 C   0  0  0  0  0  0  0  0  0  0  0  0
    3.3440   19.4418   39.3860 C   0  0  0  0  0  0  0  0  0  0  0  0
    3.3222   20.2928   38.2983 C   0  0  0  0  0  0  0  0  0  0  0  0
    2.2888   18.7942   41.5301 N   0  0  0  0  0  0  0  0  0  0  0  0
    2.1444   16.3111   41.1043 N   0  0  0  0  0  0  0  0  0  0  0  0
    3.1847   22.0995   35.9863 O   0  0  0  0  0  0  0  0  0  0  0  0
    1.4338   23.0955   36.9941 O   0  0  0  0  0  0  0  0  0  0  0  0
    4.2463   20.1720   37.2647 O   0  0  0  0  0  0  0  0  0  0  0  0
    0.0969   17.4856   40.6242 S   0  0  0  0  0  0  0  0  0  0  0  0
    3.0204    9.4998   40.4106 Cl  0  0  0  0  0  0  0  0  0  0  0  0
    0.6735   22.2542   39.1686 H   0  0  0  0  0  0  0  0  0  0  0  0
    0.6941   20.7567   41.0931 H   0  0  0  0  0  0  0  0  0  0  0  0
    3.8031   14.2583   41.3713 H   0  0  0  0  0  0  0  0  0  0  0  0
    4.4695   11.8877   41.2637 H   0  0  0  0  0  0  0  0  0  0  0  0
    0.5786   10.8674   39.7791 H   0  0  0  0  0  0  0  0  0  0  0  0
   -0.0199   13.1971   39.9063 H   0  0  0  0  0  0  0  0  0  0  0  0
   -0.7582   15.1121   39.9687 H   0  0  0  0  0  0  0  0  0  0  0  0
    4.0728   18.6503   39.4721 H   0  0  0  0  0  0  0  0  0  0  0  0
    2.4594   19.1433   42.4782 H   0  0  0  0  0  0  0  0  0  0  0  0
  1  2  1  0
  1 19  1  0
  1 20  2  0
  2  3  1  0
  2 16  2  0
  3  4  2  0
  4  5  1  0
  5 15  2  0
  5 17  1  0
  6 17  1  0
  6 18  2  0
  6 22  1  0
  7  8  1  0
  7 14  2  0
  7 18  1  0
  8  9  1  0
  8 13  2  0
  9 10  2  0
 10 11  1  0
 11 12  2  0
 11 23  1  0
 12 13  1  0
 14 22  1  0
 15 16  1  0
 16 21  1  0
  3 24  1  0
  4 25  1  0
  9 26  1  0
 10 27  1  0
 12 28  1  0
 13 29  1  0
 14 30  1  0
 15 31  1  0
 17 32  1  0
M  CHG  2  19  -1  21  -1
M  END
>  <mol_id>  (56) 
2026-08-24-6tgu-s0-n100-0056

>  <rmsd_to_ref>  (56) 
2.9795918367365277

>  <pose_kind>  (56) 
conformer

$$$$
6tgu.A
     RDKit          3D

 32 34  0  0  0  0  0  0  0  0999 V2000
    3.5701   20.4412   36.2281 C   0  0  0  0  0  0  0  0  0  0  0  0
    2.8096   20.2221   37.5390 C   0  0  0  0  0  0  0  0  0  0  0  0
    1.7631   21.0679   37.8993 C   0  0  0  0  0  0  0  0  0  0  0  0
    0.9259   20.7914   38.9853 C   0  0  0  0  0  0  0  0  0  0  0  0
    1.2281   19.7344   39.8560 C   0  0  0  0  0  0  0  0  0  0  0  0
    0.1529   18.2214   41.5932 C   0  0  0  0  0  0  0  0  0  0  0  0
    0.5292   16.0632   42.2066 C   0  0  0  0  0  0  0  0  0  0  0  0
    1.2659   14.7992   42.2306 C   0  0  0  0  0  0  0  0  0  0  0  0
    0.7649   13.6589   42.8745 C   0  0  0  0  0  0  0  0  0  0  0  0
    1.4665   12.4575   42.8563 C   0  0  0  0  0  0  0  0  0  0  0  0
    2.6533   12.3932   42.1508 C   0  0  0  0  0  0  0  0  0  0  0  0
    3.1822   13.4948   41.4952 C   0  0  0  0  0  0  0  0  0  0  0  0
    2.4710   14.6909   41.5346 C   0  0  0  0  0  0  0  0  0  0  0  0
   -0.6844   16.2539   42.8129 C   0  0  0  0  0  0  0  0  0  0  0  0
    2.2714   18.8670   39.5019 C   0  0  0  0  0  0  0  0  0  0  0  0
    3.0386   19.1284   38.3652 C   0  0  0  0  0  0  0  0  0  0  0  0
    0.3494   19.3992   40.9314 N   0  0  0  0  0  0  0  0  0  0  0  0
    0.9950   17.1436   41.4206 N   0  0  0  0  0  0  0  0  0  0  0  0
    3.0929   21.3061   35.4359 O   0  0  0  0  0  0  0  0  0  0  0  0
    4.5500   19.6958   36.0096 O   0  0  0  0  0  0  0  0  0  0  0  0
    3.9890   18.2171   37.9700 O   0  0  0  0  0  0  0  0  0  0  0  0
   -1.3369   17.7976   42.4144 S   0  0  0  0  0  0  0  0  0  0  0  0
    3.5175   10.8930   42.0851 Cl  0  0  0  0  0  0  0  0  0  0  0  0
    1.5896   21.9816   37.3119 H   0  0  0  0  0  0  0  0  0  0  0  0
    0.0288   21.4043   39.1567 H   0  0  0  0  0  0  0  0  0  0  0  0
   -0.1984   13.7150   43.4026 H   0  0  0  0  0  0  0  0  0  0  0  0
    1.0843   11.5764   43.3926 H   0  0  0  0  0  0  0  0  0  0  0  0
    4.1393   13.4252   40.9577 H   0  0  0  0  0  0  0  0  0  0  0  0
    2.8674   15.5700   41.0055 H   0  0  0  0  0  0  0  0  0  0  0  0
   -1.1766   15.5190   43.4669 H   0  0  0  0  0  0  0  0  0  0  0  0
    2.4850   17.9817   40.1189 H   0  0  0  0  0  0  0  0  0  0  0  0
   -0.2356   20.1789   41.2641 H   0  0  0  0  0  0  0  0  0  0  0  0
  1  2  1  0
  1 19  1  0
  1 20  2  0
  2  3  1  0
  2 16  2  0
  3  4  2  0
  4  5  1  0
  5 15  2  0
  5 17  1  0
  6 17  1  0
  6 18  2  0
  6 22  1  0
  7  8  1  0
  7 14  2  0
  7 18  1  0
  8  9  1  0
  8 13  2  0
  9 10  2  0
 10 11  1  0
 11 12  2  0
 11 23  1  0
 12 13  1  0
 14 22  1  0
 15 16  1  0
 16 21  1  0
  3 24  1  0
  4 25  1  0
  9 26  1  0
 10 27  1  0
 12 28  1  0
 13 29  1  0
 14 30  1  0
 15 31  1  0
 17 32  1  0
M  CHG  2  19  -1  21  -1
M  END
>  <mol_id>  (57) 
2026-08-24-6tgu-s0-n100-0057

>  <rmsd_to_ref>  (57) 
3.02551020408347

>  <pose_kind>  (57) 
rigid

$$$$
6tgu.A
     RDKit          3D

 32 34  0  0  0  0  0  0  0  0999 V2000
    2.4074   20.6913   36.2957 C   0  0  0  0  0  0  0  0  0  0  0  0
    2.2934   20.2114   37.6678 C   0  0  0  0  0  0  0  0  0  0  0  0
    1.1618   20.4773   38.3701 C   0  0  0  0  0  0  0  0  0  0  0  0
    1.0162   20.0122   39.6520 C   0  0  0  0  0  0  0  0  0  0  0  0
    2.0533   19.2735   40.1932 C   0  0  0  0  0  0  0  0  0  0  0  0
    1.6930   17.3584   41.6213 C   0  0  0  0  0  0  0  0  0  0  0  0
    1.5371   15.1148   41.7276 C   0  0  0  0  0  0  0  0  0  0  0  0
    2.1538   13.8535   42.2054 C   0  0  0  0  0  0  0  0  0  0  0  0
    3.3393   13.8206   42.8980 C   0  0  0  0  0  0  0  0  0  0  0  0
    3.8797   12.6265   43.3293 C   0  0  0  0  0  0  0  0  0  0  0  0
    3.2535   11.4241   43.0816 C   0  0  0  0  0  0  0  0  0  0  0  0
    2.0457   11.4360   42.3754 C   0  0  0  0  0  0  0  0  0  0  0  0
    1.5298   12.6434   41.9592 C   0  0  0  0  0  0  0  0  0  0  0  0
    0.3530   15.1174   41.0626 C   0  0  0  0  0  0  0  0  0  0  0  0
    3.2170   18.9811   39.5201 C   0  0  0  0  0  0  0  0  0  0  0  0
    3.3341   19.4624   38.2307 C   0  0  0  0  0  0  0  0  0  0  0  0
    1.7976   18.7954   41.5403 N   0  0  0  0  0  0  0  0  0  0  0  0
    2.0581   16.3135   41.9146 N   0  0  0  0  0  0  0  0  0  0  0  0
    3.4952   20.4665   35.4750 O   0  0  0  0  0  0  0  0  0  0  0  0
    1.4548   21.3673   35.7892 O   0  0  0  0  0  0  0  0  0  0  0  0
    4.4732   19.2225   37.4680 O   0  0  0  0  0  0  0  0  0  0  0  0
    0.0410   16.8974   40.7346 S   0  0  0  0  0  0  0  0  0  0  0  0
    3.8968    9.8788   43.6048 Cl  0  0  0  0  0  0  0  0  0  0  0  0
    0.3375   21.0633   37.9511 H   0  0  0  0  0  0  0  0  0  0  0  0
    0.1120   20.2161   40.2266 H   0  0  0  0  0  0  0  0  0  0  0  0
    3.8546   14.7708   43.1102 H   0  0  0  0  0  0  0  0  0  0  0  0
    4.8142   12.6372   43.8859 H   0  0  0  0  0  0  0  0  0  0  0  0
    1.5085   10.5270   42.1531 H   0  0  0  0  0  0  0  0  0  0  0  0
    0.6152   12.6406   41.4205 H   0  0  0  0  0  0  0  0  0  0  0  0
   -0.3480   14.3199   40.7362 H   0  0  0  0  0  0  0  0  0  0  0  0
    3.9998   18.3980   39.9809 H   0  0  0  0  0  0  0  0  0  0  0  0
    1.7081   19.4286   42.3409 H   0  0  0  0  0  0  0  0  0  0  0  0
  1  2  1  0
  1 19  1  0
  1 20  2  0
  2  3  1  0
  2 16  2  0
  3  4  2  0
  4  5  1  0
  5 15  2  0
  5 17  1  0
  6 17  1  0
  6 18  2  0
  6 22  1  0
  7  8  1  0
  7 14  2  0
  7 18  1  0
  8  9  1  0
  8 13  2  0
  9 10  2  0
 10 11  1  0
 11 12  2  0
 11 23  1  0
 12 13  1  0
 14 22  1  0
 15 16  1  0
 16 21  1  0
  3 24  1  0
  4 25  1  0
  9 26  1  0
 10 27  1  0
 12 28  1  0
 13 29  1  0
 14 30  1  0
 15 31  1  0
 17 32  1  0
M  CHG  2  19  -1  21  -1
M  END
>  <mol_id>  (58) 
2026-08-24-6tgu-s0-n100-0058

>  <rmsd_to_ref>  (58) 
3.071428571431358

>  <pose_kind>  (58) 
conformer

$$$$
6tgu.A
     RDKit          3D

 32 34  0  0  0  0  0  0  0  0999 V2000
    4.0641   19.9748   37.2961 C   0  0  0  0  0  0  0  0  0  0  0  0
    3.2363   19.5966   38.5275 C   0  0  0  0  0  0  0  0  0  0  0  0
    2.1372   20.3652   38.9041 C   0  0  0  0  0  0  0  0  0  0  0  0
    1.2485   19.9505   39.9016 C   0  0  0  0  0  0  0  0  0  0  0  0
    1.5402   18.8203   40.6790 C   0  0  0  0  0  0  0  0  0  0  0  0
    0.4246   17.1015   42.1837 C   0  0  0  0  0  0  0  0  0  0  0  0
    0.8496   14.9055   42.5996 C   0  0  0  0  0  0  0  0  0  0  0  0
    1.6335   13.6713   42.5430 C   0  0  0  0  0  0  0  0  0  0  0  0
    1.1409   12.4546   43.0361 C   0  0  0  0  0  0  0  0  0  0  0  0
    1.8897   11.2858   42.9417 C   0  0  0  0  0  0  0  0  0  0  0  0
    3.1180   11.3343   42.3098 C   0  0  0  0  0  0  0  0  0  0  0  0
    3.6407   12.5146   41.8031 C   0  0  0  0  0  0  0  0  0  0  0  0
    2.8811   13.6756   41.9174 C   0  0  0  0  0  0  0  0  0  0  0  0
   -0.4046   14.9919   43.1439 C   0  0  0  0  0  0  0  0  0  0  0  0
    2.6365   18.0295   40.3062 C   0  0  0  0  0  0  0  0  0  0  0  0
    3.4591   18.4320   39.2524 C   0  0  0  0  0  0  0  0  0  0  0  0
    0.6129   18.3470   41.6574 N   0  0  0  0  0  0  0  0  0  0  0  0
    1.3180   16.0761   41.9574 N   0  0  0  0  0  0  0  0  0  0  0  0
    3.6007   20.8999   36.5663 O   0  0  0  0  0  0  0  0  0  0  0  0
    5.0842   19.2889   37.0663 O   0  0  0  0  0  0  0  0  0  0  0  0
    4.4668   17.5986   38.8286 O   0  0  0  0  0  0  0  0  0  0  0  0
   -1.0933   16.5456   42.8623 S   0  0  0  0  0  0  0  0  0  0  0  0
    4.0438    9.8787   42.1485 Cl  0  0  0  0  0  0  0  0  0  0  0  0
    1.9627   21.3281   38.4016 H   0  0  0  0  0  0  0  0  0  0  0  0
    0.3189   20.5120   40.0766 H   0  0  0  0  0  0  0  0  0  0  0  0
    0.1464   12.4237   43.5051 H   0  0  0  0  0  0  0  0  0  0  0  0
    1.5116   10.3419   43.3613 H   0  0  0  0  0  0  0  0  0  0  0  0
    4.6302   12.5329   41.3229 H   0  0  0  0  0  0  0  0  0  0  0  0
    3.2730   14.6174   41.5056 H   0  0  0  0  0  0  0  0  0  0  0  0
   -0.9051   14.1776   43.6883 H   0  0  0  0  0  0  0  0  0  0  0  0
    2.8482   17.0932   40.8434 H   0  0  0  0  0  0  0  0  0  0  0  0
   -0.0214   19.0683   42.0290 H   0  0  0  0  0  0  0  0  0  0  0  0
  1  2  1  0
  1 19  1  0
  1 20  2  0
  2  3  1  0
  2 16  2  0
  3  4  2  0
  4  5  1  0
  5 15  2  0
  5 17  1  0
  6 17  1  0
  6 18  2  0
  6 22  1  0
  7  8  1  0
  7 14  2  0
  7 18  1  0
  8  9  1  0
  8 13  2  0
  9 10  2  0
 10 11  1  0
 11 12  2  0
 11 23  1  0
 12 13  1  0
 14 22  1  0
 15 16  1  0
 16 21  1  0
  3 24  1  0
  4 25  1  0
  9 26  1  0
 10 27  1  0
 12 28  1  0
 13 29  1  0
 14 30  1  0
 15 31  1  0
 17 32  1  0
M  CHG  2  19  -1  21  -1
M  END
>  <mol_id>  (59) 
2026-08-24-6tgu-s0-n100-0059

>  <rmsd_to_ref>  (59) 
3.1173469387810546

>  <pose_kind>  (59) 
rigid

$$$$
6tgu.A
     RDKit          3D

 32 34  0  0  0  0  0  0  0  0999 V2000
    2.6839   21.1355   36.6833 C   0  0  0  0  0  0  0  0  0  0  0  0
    2.5910   20.2736   37.8557 C   0  0  0  0  0  0  0  0  0  0  0  0
    1.4703   20.3168   38.6218 C   0  0  0  0  0  0  0  0  0  0  0  0
    1.3445   19.4952   39.7126 C   0  0  0  0  0  0  0  0  0  0  0  0
    2.3897   18.6350   39.9980 C   0  0  0  0  0  0  0  0  0  0  0  0
    2.0513   16.3835   40.8064 C   0  0  0  0  0  0  0  0  0  0  0  0
    1.8970   14.2068   40.2518 C   0  0  0  0  0  0  0  0  0  0  0  0
    2.5209   12.8636   40.3292 C   0  0  0  0  0  0  0  0  0  0  0  0
    3.7169   12.6342   40.9642 C   0  0  0  0  0  0  0  0  0  0  0  0
    4.2639   11.3685   41.0181 C   0  0  0  0  0  0  0  0  0  0  0  0
    3.6338   10.2890   40.4376 C   0  0  0  0  0  0  0  0  0  0  0  0
    2.4152   10.5021   39.7838 C   0  0  0  0  0  0  0  0  0  0  0  0
    1.8931   11.7762   39.7479 C   0  0  0  0  0  0  0  0  0  0  0  0
    0.7027   14.3991   39.6342 C   0  0  0  0  0  0  0  0  0  0  0  0
    3.5428   18.5581   39.2516 C   0  0  0  0  0  0  0  0  0  0  0  0
    3.6402   19.3970   38.1587 C   0  0  0  0  0  0  0  0  0  0  0  0
    2.1547   17.7814   41.1491 N   0  0  0  0  0  0  0  0  0  0  0  0
    2.4208   15.3001   40.7746 N   0  0  0  0  0  0  0  0  0  0  0  0
    3.7590   21.1663   35.8170 O   0  0  0  0  0  0  0  0  0  0  0  0
    1.7236   21.9261   36.4117 O   0  0  0  0  0  0  0  0  0  0  0  0
    4.7674   19.3966   37.3426 O   0  0  0  0  0  0  0  0  0  0  0  0
    0.3858   16.1955   39.8478 S   0  0  0  0  0  0  0  0  0  0  0  0
    4.2850    8.6610   40.4747 Cl  0  0  0  0  0  0  0  0  0  0  0  0
    0.6397   20.9962   38.4053 H   0  0  0  0  0  0  0  0  0  0  0  0
    0.4490   19.5175   40.3351 H   0  0  0  0  0  0  0  0  0  0  0  0
    4.2354   13.4825   41.4383 H   0  0  0  0  0  0  0  0  0  0  0  0
    5.2068   11.2195   41.5395 H   0  0  0  0  0  0  0  0  0  0  0  0
    1.8748    9.6960   39.3125 H   0  0  0  0  0  0  0  0  0  0  0  0
    0.9704   11.9275   39.2456 H   0  0  0  0  0  0  0  0  0  0  0  0
   -0.0032   13.7294   39.0985 H   0  0  0  0  0  0  0  0  0  0  0  0
    4.3326   17.8690   39.5095 H   0  0  0  0  0  0  0  0  0  0  0  0
    2.0775   18.1515   42.1013 H   0  0  0  0  0  0  0  0  0  0  0  0
  1  2  1  0
  1 19  1  0
  1 20  2  0
  2  3  1  0
  2 16  2  0
  3  4  2  0
  4  5  1  0
  5 15  2  0
  5 17  1  0
  6 17  1  0
  6 18  2  0
  6 22  1  0
  7  8  1  0
  7 14  2  0
  7 18  1  0
  8  9  1  0
  8 13  2  0
  9 10  2  0
 10 11  1  0
 11 12  2  0
 11 23  1  0
 12 13  1  0
 14 22  1  0
 15 16  1  0
 16 21  1  0
  3 24  1  0
  4 25  1  0
  9 26  1  0
 10 27  1  0
 12 28  1  0
 13 29  1  0
 14 30  1  0
 15 31  1  0
 17 32  1  0
M  CHG  2  19  -1  21  -1
M  END
>  <mol_id>  (60) 
2026-08-24-6tgu-s0-n100-0060

>  <rmsd_to_ref>  (60) 
3.163265306129091

>  <pose_kind>  (60) 
conformer

$$$$
6tgu.A
     RDKit          3D

 32 34  0  0  0  0  0  0  0  0999 V2000
    3.0208   19.3795   36.2493 C   0  0  0  0  0  0  0  0  0  0  0  0
    2.7082   19.4185   37.7478 C   0  0  0  0  0  0  0  0  0  0  0  0
    2.3258   20.6101   38.3597 C   0  0  0  0  0  0  0  0  0  0  0  0
    1.8513   20.6498   39.6749 C   0  0  0  0  0  0  0  0  0  0  0  0
    1.9124   19.5035   40.4805 C   0  0  0  0  0  0  0  0  0  0  0  0
    0.8972   18.4945   42.5816 C   0  0  0  0  0  0  0  0  0  0  0  0
    0.4474   16.3533   43.2047 C   0  0  0  0  0  0  0  0  0  0  0  0
    0.5080   14.8960   43.0871 C   0  0  0  0  0  0  0  0  0  0  0  0
   -0.2121   14.0507   43.9433 C   0  0  0  0  0  0  0  0  0  0  0  0
   -0.1666   12.6683   43.7925 C   0  0  0  0  0  0  0  0  0  0  0  0
    0.5705   12.1388   42.7500 C   0  0  0  0  0  0  0  0  0  0  0  0
    1.2928   12.9381   41.8769 C   0  0  0  0  0  0  0  0  0  0  0  0
    1.2436   14.3184   42.0512 C   0  0  0  0  0  0  0  0  0  0  0  0
   -0.2876   17.0152   44.1524 C   0  0  0  0  0  0  0  0  0  0  0  0
    2.2846   18.2936   39.8772 C   0  0  0  0  0  0  0  0  0  0  0  0
    2.6777   18.2754   38.5377 C   0  0  0  0  0  0  0  0  0  0  0  0
    1.3736   19.5103   41.8037 N   0  0  0  0  0  0  0  0  0  0  0  0
    1.0658   17.1721   42.2304 N   0  0  0  0  0  0  0  0  0  0  0  0
    2.7530   20.4260   35.5889 O   0  0  0  0  0  0  0  0  0  0  0  0
    3.4378   18.2957   35.7853 O   0  0  0  0  0  0  0  0  0  0  0  0
    2.9392   17.0710   37.9289 O   0  0  0  0  0  0  0  0  0  0  0  0
   -0.2733   18.7143   43.8681 S   0  0  0  0  0  0  0  0  0  0  0  0
    0.6035   10.4212   42.5250 Cl  0  0  0  0  0  0  0  0  0  0  0  0
    2.3992   21.5488   37.7911 H   0  0  0  0  0  0  0  0  0  0  0  0
    1.4293   21.5822   40.0782 H   0  0  0  0  0  0  0  0  0  0  0  0
   -0.8228   14.4875   44.7472 H   0  0  0  0  0  0  0  0  0  0  0  0
   -0.7064   12.0099   44.4890 H   0  0  0  0  0  0  0  0  0  0  0  0
    1.8895   12.4928   41.0671 H   0  0  0  0  0  0  0  0  0  0  0  0
    1.7969   14.9682   41.3571 H   0  0  0  0  0  0  0  0  0  0  0  0
   -0.8164   16.5269   44.9843 H   0  0  0  0  0  0  0  0  0  0  0  0
    2.2668   17.3600   40.4586 H   0  0  0  0  0  0  0  0  0  0  0  0
    1.3387   20.4398   42.2460 H   0  0  0  0  0  0  0  0  0  0  0  0
  1  2  1  0
  1 19  1  0
  1 20  2  0
  2  3  1  0
  2 16  2  0
  3  4  2  0
  4  5  1  0
  5 15  2  0
  5 17  1  0
  6 17  1  0
  6 18  2  0
  6 22  1  0
  7  8  1  0
  7 14  2  0
  7 18  1  0
  8  9  1  0
  8 13  2  0
  9 10  2  0
 10 11  1  0
 11 12  2  0
 11 23  1  0
 12 13  1  0
 14 22  1  0
 15 16  1  0
 16 21  1  0
  3 24  1  0
  4 25  1  0
  9 26  1  0
 10 27  1  0
 12 28  1  0
 13 29  1  0
 14 30  1  0
 15 31  1  0
 17 32  1  0
M  CHG  2  19  -1  21  -1
M  END
>  <mol_id>  (61) 
2026-08-24-6tgu-s0-n100-0061

>  <rmsd_to_ref>  (61) 
3.209183673472575

>  <pose_kind>  (61) 
rigid

$$$$
6tgu.A
     RDKit          3D

 32 34  0  0  0  0  0  0  0  0999 V2000
    1.5333   21.1684   36.9336 C   0  0  0  0  0  0  0  0  0  0  0  0
    1.8865   20.5070   38.1843 C   0  0  0  0  0  0  0  0  0  0  0  0
    0.9877   20.4931   39.2023 C   0  0  0  0  0  0  0  0  0  0  0  0
    1.2826   19.8524   40.3785 C   0  0  0  0  0  0  0  0  0  0  0  0
    2.5144   19.2314   40.4850 C   0  0  0  0  0  0  0  0  0  0  0  0
    2.8242   17.1184   41.6148 C   0  0  0  0  0  0  0  0  0  0  0  0
    2.9789   14.8844   41.3814 C   0  0  0  0  0  0  0  0  0  0  0  0
    3.8566   13.6912   41.4544 C   0  0  0  0  0  0  0  0  0  0  0  0
    5.1883   13.7660   41.7826 C   0  0  0  0  0  0  0  0  0  0  0  0
    5.9719   12.6319   41.8438 C   0  0  0  0  0  0  0  0  0  0  0  0
    5.4508   11.3841   41.5777 C   0  0  0  0  0  0  0  0  0  0  0  0
    4.0966   11.2867   41.2393 C   0  0  0  0  0  0  0  0  0  0  0  0
    3.3390   12.4360   41.1881 C   0  0  0  0  0  0  0  0  0  0  0  0
    1.6605   14.7767   41.0742 C   0  0  0  0  0  0  0  0  0  0  0  0
    3.4554   19.2210   39.4814 C   0  0  0  0  0  0  0  0  0  0  0  0
    3.1293   19.8738   38.3086 C   0  0  0  0  0  0  0  0  0  0  0  0
    2.7256   18.5517   41.7508 N   0  0  0  0  0  0  0  0  0  0  0  0
    3.3829   16.1189   41.6179 N   0  0  0  0  0  0  0  0  0  0  0  0
    2.3508   21.2304   35.8223 O   0  0  0  0  0  0  0  0  0  0  0  0
    0.3994   21.7376   36.8266 O   0  0  0  0  0  0  0  0  0  0  0  0
    4.0143   19.9221   37.2357 O   0  0  0  0  0  0  0  0  0  0  0  0
    1.0529   16.5084   41.1470 S   0  0  0  0  0  0  0  0  0  0  0  0
    6.4013    9.9117   41.6389 Cl  0  0  0  0  0  0  0  0  0  0  0  0
    0.0121   20.9842   39.1281 H   0  0  0  0  0  0  0  0  0  0  0  0
    0.5694   19.8311   41.2033 H   0  0  0  0  0  0  0  0  0  0  0  0
    5.6243   14.7533   42.0029 H   0  0  0  0  0  0  0  0  0  0  0  0
    7.0202   12.7252   42.1185 H   0  0  0  0  0  0  0  0  0  0  0  0
    3.6319   10.3375   41.0225 H   0  0  0  0  0  0  0  0  0  0  0  0
    2.3139   12.3514   40.9262 H   0  0  0  0  0  0  0  0  0  0  0  0
    0.9964   13.9227   40.8218 H   0  0  0  0  0  0  0  0  0  0  0  0
    4.4035   18.7208   39.6071 H   0  0  0  0  0  0  0  0  0  0  0  0
    2.7993   19.0555   42.6398 H   0  0  0  0  0  0  0  0  0  0  0  0
  1  2  1  0
  1 19  1  0
  1 20  2  0
  2  3  1  0
  2 16  2  0
  3  4  2  0
  4  5  1  0
  5 15  2  0
  5 17  1  0
  6 17  1  0
  6 18  2  0
  6 22  1  0
  7  8  1  0
  7 14  2  0
  7 18  1  0
  8  9  1  0
  8 13  2  0
  9 10  2  0
 10 11  1  0
 11 12  2  0
 11 23  1  0
 12 13  1  0
 14 22  1  0
 15 16  1  0
 16 21  1  0
  3 24  1  0
  4 25  1  0
  9 26  1  0
 10 27  1  0
 12 28  1  0
 13 29  1  0
 14 30  1  0
 15 31  1  0
 17 32  1  0
M  CHG  2  19  -1  21  -1
M  END
>  <mol_id>  (62) 
2026-08-24-6tgu-s0-n100-0062

>  <rmsd_to_ref>  (62) 
3.255102040824236

>  <pose_kind>  (62) 
conformer

$$$$
6tgu.A
     RDKit          3D

 32 34  0  0  0  0  0  0  0  0999 V2000
    3.2294   20.3700   37.7659 C   0  0  0  0  0  0  0  0  0  0  0  0
    2.3650   19.7993   38.8936 C   0  0  0  0  0  0  0  0  0  0  0  0
    1.2238   20.4745   39.3208 C   0  0  0  0  0  0  0  0  0  0  0  0
    0.3098   19.8986   40.2093 C   0  0  0  0  0  0  0  0  0  0  0  0
    0.6096   18.6805   40.8365 C   0  0  0  0  0  0  0  0  0  0  0  0
   -0.5050   16.7362   42.0367 C   0  0  0  0  0  0  0  0  0  0  0  0
   -0.0184   14.5177   42.1659 C   0  0  0  0  0  0  0  0  0  0  0  0
    0.8117   13.3275   41.9765 C   0  0  0  0  0  0  0  0  0  0  0  0
    0.3433   12.0397   42.2739 C   0  0  0  0  0  0  0  0  0  0  0  0
    1.1375   10.9184   42.0545 C   0  0  0  0  0  0  0  0  0  0  0  0
    2.3887   11.0915   41.4934 C   0  0  0  0  0  0  0  0  0  0  0  0
    2.8888   12.3460   41.1788 C   0  0  0  0  0  0  0  0  0  0  0  0
    2.0835   13.4564   41.4163 C   0  0  0  0  0  0  0  0  0  0  0  0
   -1.2964   14.4895   42.6578 C   0  0  0  0  0  0  0  0  0  0  0  0
    1.7485   17.9828   40.4099 C   0  0  0  0  0  0  0  0  0  0  0  0
    2.5994   18.5525   39.4610 C   0  0  0  0  0  0  0  0  0  0  0  0
   -0.3401   18.0479   41.6962 N   0  0  0  0  0  0  0  0  0  0  0  0
    0.4337   15.7797   41.7133 N   0  0  0  0  0  0  0  0  0  0  0  0
    2.7638   21.3732   37.1495 O   0  0  0  0  0  0  0  0  0  0  0  0
    4.2825   19.7539   37.4917 O   0  0  0  0  0  0  0  0  0  0  0  0
    3.6537   17.8170   38.9739 O   0  0  0  0  0  0  0  0  0  0  0  0
   -2.0288   16.0458   42.5609 S   0  0  0  0  0  0  0  0  0  0  0  0
    3.3727    9.7012   41.1765 Cl  0  0  0  0  0  0  0  0  0  0  0  0
    1.0357   21.4923   38.9480 H   0  0  0  0  0  0  0  0  0  0  0  0
   -0.6461   20.4019   40.4163 H   0  0  0  0  0  0  0  0  0  0  0  0
   -0.6682   11.9139   42.6874 H   0  0  0  0  0  0  0  0  0  0  0  0
    0.7767    9.9143   42.3223 H   0  0  0  0  0  0  0  0  0  0  0  0
    3.8963   12.4609   40.7523 H   0  0  0  0  0  0  0  0  0  0  0  0
    2.4578   14.4577   41.1567 H   0  0  0  0  0  0  0  0  0  0  0  0
   -1.7895   13.5927   43.0610 H   0  0  0  0  0  0  0  0  0  0  0  0
    1.9713   16.9876   40.8224 H   0  0  0  0  0  0  0  0  0  0  0  0
   -1.0153   18.6911   42.1337 H   0  0  0  0  0  0  0  0  0  0  0  0
  1  2  1  0
  1 19  1  0
  1 20  2  0
  2  3  1  0
  2 16  2  0
  3  4  2  0
  4  5  1  0
  5 15  2  0
  5 17  1  0
  6 17  1  0
  6 18  2  0
  6 22  1  0
  7  8  1  0
  7 14  2  0
  7 18  1  0
  8  9  1  0
  8 13  2  0
  9 10  2  0
 10 11  1  0
 11 12  2  0
 11 23  1  0
 12 13  1  0
 14 22  1  0
 15 16  1  0
 16 21  1  0
  3 24  1  0
  4 25  1  0
  9 26  1  0
 10 27  1  0
 12 28  1  0
 13 29  1  0
 14 30  1  0
 15 31  1  0
 17 32  1  0
M  CHG  2  19  -1  21  -1
M  END
>  <mol_id>  (63) 
2026-08-24-6tgu-s0-n100-0063

>  <rmsd_to_ref>  (63) 
3.30102040816799

>  <pose_kind>  (63) 
rigid

$$$$
6tgu.A
     RDKit          3D

 32 34  0  0  0  0  0  0  0  0999 V2000
    3.9728   20.3172   37.1864 C   0  0  0  0  0  0  0  0  0  0  0  0
    3.3763   20.0647   38.4928 C   0  0  0  0  0  0  0  0  0  0  0  0
    2.2896   20.7844   38.8745 C   0  0  0  0  0  0  0  0  0  0  0  0
    1.6911   20.5464   40.0852 C   0  0  0  0  0  0  0  0  0  0  0  0
    2.2314   19.5597   40.8905 C   0  0  0  0  0  0  0  0  0  0  0  0
    0.8769   18.0628   42.2177 C   0  0  0  0  0  0  0  0  0  0  0  0
   -0.1062   16.0401   42.3274 C   0  0  0  0  0  0  0  0  0  0  0  0
   -0.1206   14.7055   42.9741 C   0  0  0  0  0  0  0  0  0  0  0  0
    0.7756   14.3415   43.9491 C   0  0  0  0  0  0  0  0  0  0  0  0
    0.7276   13.0908   44.5300 C   0  0  0  0  0  0  0  0  0  0  0  0
   -0.2179   12.1608   44.1547 C   0  0  0  0  0  0  0  0  0  0  0  0
   -1.1387   12.5116   43.1614 C   0  0  0  0  0  0  0  0  0  0  0  0
   -1.0672   13.7679   42.6011 C   0  0  0  0  0  0  0  0  0  0  0  0
   -1.0186   16.3787   41.3801 C   0  0  0  0  0  0  0  0  0  0  0  0
    3.3306   18.8074   40.5458 C   0  0  0  0  0  0  0  0  0  0  0  0
    3.9111   19.0696   39.3202 C   0  0  0  0  0  0  0  0  0  0  0  0
    1.5136   19.3551   42.1362 N   0  0  0  0  0  0  0  0  0  0  0  0
    0.7572   16.9963   42.6170 N   0  0  0  0  0  0  0  0  0  0  0  0
    5.0625   19.6377   36.6782 O   0  0  0  0  0  0  0  0  0  0  0  0
    3.4777   21.2203   36.4378 O   0  0  0  0  0  0  0  0  0  0  0  0
    5.0281   18.3648   38.8816 O   0  0  0  0  0  0  0  0  0  0  0  0
   -0.5751   18.1071   40.9456 S   0  0  0  0  0  0  0  0  0  0  0  0
   -0.3224   10.5578   44.8582 Cl  0  0  0  0  0  0  0  0  0  0  0  0
    1.8572   21.5689   38.2452 H   0  0  0  0  0  0  0  0  0  0  0  0
    0.8164   21.1150   40.4034 H   0  0  0  0  0  0  0  0  0  0  0  0
    1.5372   15.0711   44.2667 H   0  0  0  0  0  0  0  0  0  0  0  0
    1.4449   12.8390   45.3079 H   0  0  0  0  0  0  0  0  0  0  0  0
   -1.9027   11.8269   42.8275 H   0  0  0  0  0  0  0  0  0  0  0  0
   -1.7679   14.0222   41.8454 H   0  0  0  0  0  0  0  0  0  0  0  0
   -1.8654   15.8428   40.9011 H   0  0  0  0  0  0  0  0  0  0  0  0
    3.7170   18.0448   41.2046 H   0  0  0  0  0  0  0  0  0  0  0  0
    1.4777   20.0660   42.8732 H   0  0  0  0  0  0  0  0  0  0  0  0
  1  2  1  0
  1 19  1  0
  1 20  2  0
  2  3  1  0
  2 16  2  0
  3  4  2  0
  4  5  1  0
  5 15  2  0
  5 17  1  0
  6 17  1  0
  6 18  2  0
  6 22  1  0
  7  8  1  0
  7 14  2  0
  7 18  1  0
  8  9  1  0
  8 13  2  0
  9 10  2  0
 10 11  1  0
 11 12  2  0
 11 23  1  0
 12 13  1  0
 14 22  1  0
 15 16  1  0
 16 21  1  0
  3 24  1  0
  4 25  1  0
  9 26  1  0
 10 27  1  0
 12 28  1  0
 13 29  1  0
 14 30  1  0
 15 31  1  0
 17 32  1  0
M  CHG  2  19  -1  21  -1
M  END
>  <mol_id>  (64) 
2026-08-24-6tgu-s0-n100-0064

>  <rmsd_to_ref>  (64) 
3.346938775520557

>  <pose_kind>  (64) 
conformer

$$$$
6tgu.A
     RDKit          3D

 32 34  0  0  0  0  0  0  0  0999 V2000
    3.6799   19.8814   37.8827 C   0  0  0  0  0  0  0  0  0  0  0  0
    2.8638   19.5925   39.1457 C   0  0  0  0  0  0  0  0  0  0  0  0
    2.1116   20.5989   39.7473 C   0  0  0  0  0  0  0  0  0  0  0  0
    1.2095   20.3329   40.7826 C   0  0  0  0  0  0  0  0  0  0  0  0
    1.1650   19.0592   41.3676 C   0  0  0  0  0  0  0  0  0  0  0  0
   -0.3468   17.5646   42.7621 C   0  0  0  0  0  0  0  0  0  0  0  0
   -0.6451   15.3105   42.8384 C   0  0  0  0  0  0  0  0  0  0  0  0
   -0.3209   13.9174   42.5299 C   0  0  0  0  0  0  0  0  0  0  0  0
   -1.1522   12.8572   42.9181 C   0  0  0  0  0  0  0  0  0  0  0  0
   -0.8419   11.5423   42.5851 C   0  0  0  0  0  0  0  0  0  0  0  0
    0.2846   11.2997   41.8218 C   0  0  0  0  0  0  0  0  0  0  0  0
    1.1312   12.3186   41.4118 C   0  0  0  0  0  0  0  0  0  0  0  0
    0.8097   13.6263   41.7648 C   0  0  0  0  0  0  0  0  0  0  0  0
   -1.7574   15.7015   43.5359 C   0  0  0  0  0  0  0  0  0  0  0  0
    1.9075   18.0322   40.7674 C   0  0  0  0  0  0  0  0  0  0  0  0
    2.7394   18.3168   39.6830 C   0  0  0  0  0  0  0  0  0  0  0  0
    0.2057   18.7535   42.3814 N   0  0  0  0  0  0  0  0  0  0  0  0
    0.1376   16.3593   42.3002 N   0  0  0  0  0  0  0  0  0  0  0  0
    3.4986   21.0102   37.3387 O   0  0  0  0  0  0  0  0  0  0  0  0
    4.3960   18.9538   37.4459 O   0  0  0  0  0  0  0  0  0  0  0  0
    3.3809   17.2865   39.0376 O   0  0  0  0  0  0  0  0  0  0  0  0
   -1.9104   17.4174   43.5409 S   0  0  0  0  0  0  0  0  0  0  0  0
    0.6614    9.6716   41.3649 Cl  0  0  0  0  0  0  0  0  0  0  0  0
    2.2307   21.6349   39.3971 H   0  0  0  0  0  0  0  0  0  0  0  0
    0.5336   21.1244   41.1386 H   0  0  0  0  0  0  0  0  0  0  0  0
   -2.0646   13.0683   43.4953 H   0  0  0  0  0  0  0  0  0  0  0  0
   -1.4805   10.7126   42.9225 H   0  0  0  0  0  0  0  0  0  0  0  0
    2.0338   12.0991   40.8227 H   0  0  0  0  0  0  0  0  0  0  0  0
    1.4610   14.4484   41.4334 H   0  0  0  0  0  0  0  0  0  0  0  0
   -2.4592   15.0117   44.0273 H   0  0  0  0  0  0  0  0  0  0  0  0
    1.8346   17.0037   41.1505 H   0  0  0  0  0  0  0  0  0  0  0  0
   -0.1255   19.5692   42.9161 H   0  0  0  0  0  0  0  0  0  0  0  0
  1  2  1  0
  1 19  1  0
  1 20  2  0
  2  3  1  0
  2 16  2  0
  3  4  2  0
  4  5  1  0
  5 15  2  0
  5 17  1  0
  6 17  1  0
  6 18  2  0
  6 22  1  0
  7  8  1  0
  7 14  2  0
  7 18  1  0
  8  9  1  0
  8 13  2  0
  9 10  2  0
 10 11  1  0
 11 12  2  0
 11 23  1  0
 12 13  1  0
 14 22  1  0
 15 16  1  0
 16 21  1  0
  3 24  1  0
  4 25  1  0
  9 26  1  0
 10 27  1  0
 12 28  1  0
 13 29  1  0
 14 30  1  0
 15 31  1  0
 17 32  1  0
M  CHG  2  19  -1  21  -1
M  END
>  <mol_id>  (65) 
2026-08-24-6tgu-s0-n100-0065

>  <rmsd_to_ref>  (65) 
3.392857142859149

>  <pose_kind>  (65) 
rigid

$$$$
6tgu.A
     RDKit          3D

 32 34  0  0  0  0  0  0  0  0999 V2000
    3.0420   20.9474   37.6241 C   0  0  0  0  0  0  0  0  0  0  0  0
    3.0464   20.0093   38.7404 C   0  0  0  0  0  0  0  0  0  0  0  0
    2.3746   20.3295   39.8765 C   0  0  0  0  0  0  0  0  0  0  0  0
    2.3375   19.4523   40.9301 C   0  0  0  0  0  0  0  0  0  0  0  0
    3.0029   18.2473   40.7917 C   0  0  0  0  0  0  0  0  0  0  0  0
    2.1390   16.1651   41.6609 C   0  0  0  0  0  0  0  0  0  0  0  0
    0.9810   14.2899   41.2003 C   0  0  0  0  0  0  0  0  0  0  0  0
    1.0289   12.8175   41.0292 C   0  0  0  0  0  0  0  0  0  0  0  0
    2.1870   12.0906   41.1583 C   0  0  0  0  0  0  0  0  0  0  0  0
    2.1903   10.7205   40.9953 C   0  0  0  0  0  0  0  0  0  0  0  0
    1.0355   10.0303   40.6960 C   0  0  0  0  0  0  0  0  0  0  0  0
   -0.1547   10.7529   40.5580 C   0  0  0  0  0  0  0  0  0  0  0  0
   -0.1273   12.1195   40.7284 C   0  0  0  0  0  0  0  0  0  0  0  0
   -0.1835   14.9792   41.0865 C   0  0  0  0  0  0  0  0  0  0  0  0
    3.6964   17.8816   39.6612 C   0  0  0  0  0  0  0  0  0  0  0  0
    3.7151   18.7852   38.6167 C   0  0  0  0  0  0  0  0  0  0  0  0
    2.8815   17.3700   41.9425 N   0  0  0  0  0  0  0  0  0  0  0  0
    2.0301   15.0386   41.4869 N   0  0  0  0  0  0  0  0  0  0  0  0
    3.6677   20.7266   36.4128 O   0  0  0  0  0  0  0  0  0  0  0  0
    2.4275   22.0562   37.7424 O   0  0  0  0  0  0  0  0  0  0  0  0
    4.3911   18.5097   37.4318 O   0  0  0  0  0  0  0  0  0  0  0  0
    0.3064   16.7193   41.4106 S   0  0  0  0  0  0  0  0  0  0  0  0
    0.9837    8.2913   40.4763 Cl  0  0  0  0  0  0  0  0  0  0  0  0
    1.8479   21.2816   39.9960 H   0  0  0  0  0  0  0  0  0  0  0  0
    1.7999   19.6952   41.8474 H   0  0  0  0  0  0  0  0  0  0  0  0
    3.1209   12.6220   41.4012 H   0  0  0  0  0  0  0  0  0  0  0  0
    3.1229   10.1738   41.1163 H   0  0  0  0  0  0  0  0  0  0  0  0
   -1.0902   10.2680   40.3265 H   0  0  0  0  0  0  0  0  0  0  0  0
   -1.0350   12.6584   40.6173 H   0  0  0  0  0  0  0  0  0  0  0  0
   -1.2311   14.6880   40.8590 H   0  0  0  0  0  0  0  0  0  0  0  0
    4.1991   16.9287   39.5955 H   0  0  0  0  0  0  0  0  0  0  0  0
    3.2920   17.5977   42.8532 H   0  0  0  0  0  0  0  0  0  0  0  0
  1  2  1  0
  1 19  1  0
  1 20  2  0
  2  3  1  0
  2 16  2  0
  3  4  2  0
  4  5  1  0
  5 15  2  0
  5 17  1  0
  6 17  1  0
  6 18  2  0
  6 22  1  0
  7  8  1  0
  7 14  2  0
  7 18  1  0
  8  9  1  0
  8 13  2  0
  9 10  2  0
 10 11  1  0
 11 12  2  0
 11 23  1  0
 12 13  1  0
 14 22  1  0
 15 16  1  0
 16 21  1  0
  3 24  1  0
  4 25  1  0
  9 26  1  0
 10 27  1  0
 12 28  1  0
 13 29  1  0
 14 30  1  0
 15 31  1  0
 17 32  1  0
M  CHG  2  19  -1  21  -1
M  END
>  <mol_id>  (66) 
2026-08-24-6tgu-s0-n100-0066

>  <rmsd_to_ref>  (66) 
3.4387755102055872

>  <pose_kind>  (66) 
conformer

$$$$
6tgu.A
     RDKit          3D

 32 34  0  0  0  0  0  0  0  0999 V2000
    2.7352   19.6751   35.9319 C   0  0  0  0  0  0  0  0  0  0  0  0
    2.8428   19.6128   37.4581 C   0  0  0  0  0  0  0  0  0  0  0  0
    2.6614   20.7600   38.2273 C   0  0  0  0  0  0  0  0  0  0  0  0
    2.5634   20.7105   39.6217 C   0  0  0  0  0  0  0  0  0  0  0  0
    2.8222   19.5127   40.3037 C   0  0  0  0  0  0  0  0  0  0  0  0
    2.4001   18.3633   42.5317 C   0  0  0  0  0  0  0  0  0  0  0  0
    2.1009   16.1844   43.1132 C   0  0  0  0  0  0  0  0  0  0  0  0
    2.1028   14.7383   42.8890 C   0  0  0  0  0  0  0  0  0  0  0  0
    1.6287   13.8362   43.8521 C   0  0  0  0  0  0  0  0  0  0  0  0
    1.6082   12.4672   43.6050 C   0  0  0  0  0  0  0  0  0  0  0  0
    2.0248   12.0100   42.3689 C   0  0  0  0  0  0  0  0  0  0  0  0
    2.4956   12.8674   41.3858 C   0  0  0  0  0  0  0  0  0  0  0  0
    2.5190   14.2328   41.6564 C   0  0  0  0  0  0  0  0  0  0  0  0
    1.6628   16.7799   44.2663 C   0  0  0  0  0  0  0  0  0  0  0  0
    2.9958   18.3467   39.5444 C   0  0  0  0  0  0  0  0  0  0  0  0
    3.0092   18.4192   38.1504 C   0  0  0  0  0  0  0  0  0  0  0  0
    2.6639   19.4297   41.7212 N   0  0  0  0  0  0  0  0  0  0  0  0
    2.4446   17.0677   42.0626 N   0  0  0  0  0  0  0  0  0  0  0  0
    2.3154   20.7632   35.4391 O   0  0  0  0  0  0  0  0  0  0  0  0
    2.9919   18.6256   35.3023 O   0  0  0  0  0  0  0  0  0  0  0  0
    3.0749   17.2588   37.4162 O   0  0  0  0  0  0  0  0  0  0  0  0
    1.6277   18.4943   44.1001 S   0  0  0  0  0  0  0  0  0  0  0  0
    1.9665   10.3116   42.0319 Cl  0  0  0  0  0  0  0  0  0  0  0  0
    2.5931   21.7349   37.7225 H   0  0  0  0  0  0  0  0  0  0  0  0
    2.2828   21.6130   40.1846 H   0  0  0  0  0  0  0  0  0  0  0  0
    1.2671   14.2171   44.8187 H   0  0  0  0  0  0  0  0  0  0  0  0
    1.2673   11.7626   44.3779 H   0  0  0  0  0  0  0  0  0  0  0  0
    2.8418   12.4784   40.4168 H   0  0  0  0  0  0  0  0  0  0  0  0
    2.8732   14.9287   40.8816 H   0  0  0  0  0  0  0  0  0  0  0  0
    1.3721   16.2360   45.1772 H   0  0  0  0  0  0  0  0  0  0  0  0
    3.1211   17.3762   40.0467 H   0  0  0  0  0  0  0  0  0  0  0  0
    2.7663   20.3273   42.2159 H   0  0  0  0  0  0  0  0  0  0  0  0
  1  2  1  0
  1 19  1  0
  1 20  2  0
  2  3  1  0
  2 16  2  0
  3  4  2  0
  4  5  1  0
  5 15  2  0
  5 17  1  0
  6 17  1  0
  6 18  2  0
  6 22  1  0
  7  8  1  0
  7 14  2  0
  7 18  1  0
  8  9  1  0
  8 13  2  0
  9 10  2  0
 10 11  1  0
 11 12  2  0
 11 23  1  0
 12 13  1  0
 14 22  1  0
 15 16  1  0
 16 21  1  0
  3 24  1  0
  4 25  1  0
  9 26  1  0
 10 27  1  0
 12 28  1  0
 13 29  1  0
 14 30  1  0
 15 31  1  0
 17 32  1  0
M  CHG  2  19  -1  21  -1
M  END
>  <mol_id>  (67) 
2026-08-24-6tgu-s0-n100-0067

>  <rmsd_to_ref>  (67) 
3.4846938775570324

>  <pose_kind>  (67) 
rigid

$$$$
6tgu.A
     RDKit          3D

 32 34  0  0  0  0  0  0  0  0999 V2000
    0.7944   20.9535   35.1665 C   0  0  0  0  0  0  0  0  0  0  0  0
    1.1920   20.6942   36.5452 C   0  0  0  0  0  0  0  0  0  0  0  0
    0.2917   20.8940   37.5423 C   0  0  0  0  0  0  0  0  0  0  0  0
    0.6301   20.6292   38.8446 C   0  0  0  0  0  0  0  0  0  0  0  0
    1.9062   20.1591   39.0984 C   0  0  0  0  0  0  0  0  0  0  0  0
    2.3754   18.4728   40.7635 C   0  0  0  0  0  0  0  0  0  0  0  0
    2.7068   16.2804   41.1553 C   0  0  0  0  0  0  0  0  0  0  0  0
    3.6753   15.2256   41.5412 C   0  0  0  0  0  0  0  0  0  0  0  0
    4.9952   15.4909   41.8132 C   0  0  0  0  0  0  0  0  0  0  0  0
    5.8653   14.4822   42.1729 C   0  0  0  0  0  0  0  0  0  0  0  0
    5.4454   13.1732   42.2715 C   0  0  0  0  0  0  0  0  0  0  0  0
    4.1049   12.8818   41.9961 C   0  0  0  0  0  0  0  0  0  0  0  0
    3.2595   13.9098   41.6413 C   0  0  0  0  0  0  0  0  0  0  0  0
    1.4026   15.9904   40.9120 C   0  0  0  0  0  0  0  0  0  0  0  0
    2.8503   19.9432   38.1211 C   0  0  0  0  0  0  0  0  0  0  0  0
    2.4801   20.2181   36.8191 C   0  0  0  0  0  0  0  0  0  0  0  0
    2.1637   19.8755   40.4990 N   0  0  0  0  0  0  0  0  0  0  0  0
    3.0111   17.5595   41.0340 N   0  0  0  0  0  0  0  0  0  0  0  0
    1.6104   20.7676   34.0678 O   0  0  0  0  0  0  0  0  0  0  0  0
   -0.3802   21.3815   34.9251 O   0  0  0  0  0  0  0  0  0  0  0  0
    3.3642   20.0350   35.7600 O   0  0  0  0  0  0  0  0  0  0  0  0
    0.6602   17.6222   40.5128 S   0  0  0  0  0  0  0  0  0  0  0  0
    6.5087   11.8533   42.7220 Cl  0  0  0  0  0  0  0  0  0  0  0  0
   -0.7191   21.2684   37.3513 H   0  0  0  0  0  0  0  0  0  0  0  0
   -0.0837   20.7826   39.6551 H   0  0  0  0  0  0  0  0  0  0  0  0
    5.3509   16.5311   41.7442 H   0  0  0  0  0  0  0  0  0  0  0  0
    6.9015   14.7286   42.3934 H   0  0  0  0  0  0  0  0  0  0  0  0
    3.7176   11.8767   42.0583 H   0  0  0  0  0  0  0  0  0  0  0  0
    2.2456   13.6770   41.4304 H   0  0  0  0  0  0  0  0  0  0  0  0
    0.8090   15.0515   40.9172 H   0  0  0  0  0  0  0  0  0  0  0  0
    3.8342   19.5721   38.3644 H   0  0  0  0  0  0  0  0  0  0  0  0
    2.1929   20.6102   41.2125 H   0  0  0  0  0  0  0  0  0  0  0  0
  1  2  1  0
  1 19  1  0
  1 20  2  0
  2  3  1  0
  2 16  2  0
  3  4  2  0
  4  5  1  0
  5 15  2  0
  5 17  1  0
  6 17  1  0
  6 18  2  0
  6 22  1  0
  7  8  1  0
  7 14  2  0
  7 18  1  0
  8  9  1  0
  8 13  2  0
  9 10  2  0
 10 11  1  0
 11 12  2  0
 11 23  1  0
 12 13  1  0
 14 22  1  0
 15 16  1  0
 16 21  1  0
  3 24  1  0
  4 25  1  0
  9 26  1  0
 10 27  1  0
 12 28  1  0
 13 29  1  0
 14 30  1  0
 15 31  1  0
 17 32  1  0
M  CHG  2  19  -1  21  -1
M  END
>  <mol_id>  (68) 
2026-08-24-6tgu-s0-n100-0068

>  <rmsd_to_ref>  (68) 
3.530612244905563

>  <pose_kind>  (68) 
conformer

$$$$
6tgu.A
     RDKit          3D

 32 34  0  0  0  0  0  0  0  0999 V2000
    3.4140   21.0944   36.7786 C   0  0  0  0  0  0  0  0  0  0  0  0
    2.7098   20.5999   38.0452 C   0  0  0  0  0  0  0  0  0  0  0  0
    1.5927   21.2690   38.5404 C   0  0  0  0  0  0  0  0  0  0  0  0
    0.8128   20.7448   39.5765 C   0  0  0  0  0  0  0  0  0  0  0  0
    1.2391   19.6030   40.2703 C   0  0  0  0  0  0  0  0  0  0  0  0
    0.3606   17.7393   41.7596 C   0  0  0  0  0  0  0  0  0  0  0  0
    0.9644   15.5623   42.0278 C   0  0  0  0  0  0  0  0  0  0  0  0
    1.8240   14.3915   41.8496 C   0  0  0  0  0  0  0  0  0  0  0  0
    1.4543   13.1207   42.3125 C   0  0  0  0  0  0  0  0  0  0  0  0
    2.2716   12.0144   42.1028 C   0  0  0  0  0  0  0  0  0  0  0  0
    3.4422   12.1807   41.3870 C   0  0  0  0  0  0  0  0  0  0  0  0
    3.8432   13.4182   40.9064 C   0  0  0  0  0  0  0  0  0  0  0  0
    3.0173   14.5151   41.1363 C   0  0  0  0  0  0  0  0  0  0  0  0
   -0.2476   15.5325   42.6653 C   0  0  0  0  0  0  0  0  0  0  0  0
    2.3550   18.9115   39.7780 C   0  0  0  0  0  0  0  0  0  0  0  0
    3.0660   19.4214   38.6900 C   0  0  0  0  0  0  0  0  0  0  0  0
    0.4232   19.0186   41.2872 N   0  0  0  0  0  0  0  0  0  0  0  0
    1.3019   16.7924   41.4155 N   0  0  0  0  0  0  0  0  0  0  0  0
    2.8346   22.0173   36.1339 O   0  0  0  0  0  0  0  0  0  0  0  0
    4.4580   20.4953   36.4398 O   0  0  0  0  0  0  0  0  0  0  0  0
    4.0929   18.6835   38.1509 O   0  0  0  0  0  0  0  0  0  0  0  0
   -1.0599   17.0444   42.5163 S   0  0  0  0  0  0  0  0  0  0  0  0
    4.4499   10.8047   41.0827 Cl  0  0  0  0  0  0  0  0  0  0  0  0
    1.3155   22.2395   38.1031 H   0  0  0  0  0  0  0  0  0  0  0  0
   -0.1369   21.2292   39.8476 H   0  0  0  0  0  0  0  0  0  0  0  0
    0.5027   12.9963   42.8501 H   0  0  0  0  0  0  0  0  0  0  0  0
    1.9917   11.0269   42.4987 H   0  0  0  0  0  0  0  0  0  0  0  0
    4.7898   13.5303   40.3574 H   0  0  0  0  0  0  0  0  0  0  0  0
    3.3117   15.5009   40.7472 H   0  0  0  0  0  0  0  0  0  0  0  0
   -0.6487   14.6596   43.2010 H   0  0  0  0  0  0  0  0  0  0  0  0
    2.6702   17.9684   40.2485 H   0  0  0  0  0  0  0  0  0  0  0  0
   -0.2287   19.6741   41.7412 H   0  0  0  0  0  0  0  0  0  0  0  0
  1  2  1  0
  1 19  1  0
  1 20  2  0
  2  3  1  0
  2 16  2  0
  3  4  2  0
  4  5  1  0
  5 15  2  0
  5 17  1  0
  6 17  1  0
  6 18  2  0
  6 22  1  0
  7  8  1  0
  7 14  2  0
  7 18  1  0
  8  9  1  0
  8 13  2  0
  9 10  2  0
 10 11  1  0
 11 12  2  0
 11 23  1  0
 12 13  1  0
 14 22  1  0
 15 16  1  0
 16 21  1  0
  3 24  1  0
  4 25  1  0
  9 26  1  0
 10 27  1  0
 12 28  1  0
 13 29  1  0
 14 30  1  0
 15 31  1  0
 17 32  1  0
M  CHG  2  19  -1  21  -1
M  END
>  <mol_id>  (69) 
2026-08-24-6tgu-s0-n100-0069

>  <rmsd_to_ref>  (69) 
3.5765306122489164

>  <pose_kind>  (69) 
rigid

$$$$
6tgu.A
     RDKit          3D

 32 34  0  0  0  0  0  0  0  0999 V2000
    2.8910   21.5177   37.3160 C   0  0  0  0  0  0  0  0  0  0  0  0
    3.0078   20.5618   38.4108 C   0  0  0  0  0  0  0  0  0  0  0  0
    2.2174   20.7096   39.5055 C   0  0  0  0  0  0  0  0  0  0  0  0
    2.2857   19.8077   40.5363 C   0  0  0  0  0  0  0  0  0  0  0  0
    3.1794   18.7582   40.4189 C   0  0  0  0  0  0  0  0  0  0  0  0
    2.6832   16.5216   41.1859 C   0  0  0  0  0  0  0  0  0  0  0  0
    1.9418   14.4747   40.6110 C   0  0  0  0  0  0  0  0  0  0  0  0
    2.2847   13.0454   40.4140 C   0  0  0  0  0  0  0  0  0  0  0  0
    3.5515   12.5508   40.6062 C   0  0  0  0  0  0  0  0  0  0  0  0
    3.8306   11.2130   40.4162 C   0  0  0  0  0  0  0  0  0  0  0  0
    2.8523   10.3240   40.0261 C   0  0  0  0  0  0  0  0  0  0  0  0
    1.5555   10.8085   39.8228 C   0  0  0  0  0  0  0  0  0  0  0  0
    1.3068   12.1485   40.0220 C   0  0  0  0  0  0  0  0  0  0  0  0
    0.6750   14.9308   40.4329 C   0  0  0  0  0  0  0  0  0  0  0  0
    3.9995   18.5698   39.3305 C   0  0  0  0  0  0  0  0  0  0  0  0
    3.9076   19.4938   38.3079 C   0  0  0  0  0  0  0  0  0  0  0  0
    3.1591   17.8367   41.5411 N   0  0  0  0  0  0  0  0  0  0  0  0
    2.8059   15.4014   40.9825 N   0  0  0  0  0  0  0  0  0  0  0  0
    3.6217   21.4609   36.1453 O   0  0  0  0  0  0  0  0  0  0  0  0
    2.0671   22.4832   37.4149 O   0  0  0  0  0  0  0  0  0  0  0  0
    4.6965   19.3922   37.1659 O   0  0  0  0  0  0  0  0  0  0  0  0
    0.7971   16.7212   40.8241 S   0  0  0  0  0  0  0  0  0  0  0  0
    3.1525    8.6155   39.7686 Cl  0  0  0  0  0  0  0  0  0  0  0  0
    1.5097   21.5384   39.6083 H   0  0  0  0  0  0  0  0  0  0  0  0
    1.6552   19.9126   41.4201 H   0  0  0  0  0  0  0  0  0  0  0  0
    4.3477   13.2436   40.9219 H   0  0  0  0  0  0  0  0  0  0  0  0
    4.8421   10.8520   40.5887 H   0  0  0  0  0  0  0  0  0  0  0  0
    0.7480   10.1606   39.5191 H   0  0  0  0  0  0  0  0  0  0  0  0
    0.3205   12.5063   39.8609 H   0  0  0  0  0  0  0  0  0  0  0  0
   -0.2799   14.4514   40.1296 H   0  0  0  0  0  0  0  0  0  0  0  0
    4.6806   17.7339   39.2797 H   0  0  0  0  0  0  0  0  0  0  0  0
    3.4603   18.1092   42.4817 H   0  0  0  0  0  0  0  0  0  0  0  0
  1  2  1  0
  1 19  1  0
  1 20  2  0
  2  3  1  0
  2 16  2  0
  3  4  2  0
  4  5  1  0
  5 15  2  0
  5 17  1  0
  6 17  1  0
  6 18  2  0
  6 22  1  0
  7  8  1  0
  7 14  2  0
  7 18  1  0
  8  9  1  0
  8 13  2  0
  9 10  2  0
 10 11  1  0
 11 12  2  0
 11 23  1  0
 12 13  1  0
 14 22  1  0
 15 16  1  0
 16 21  1  0
  3 24  1  0
  4 25  1  0
  9 26  1  0
 10 27  1  0
 12 28  1  0
 13 29  1  0
 14 30  1  0
 15 31  1  0
 17 32  1  0
M  CHG  2  19  -1  21  -1
M  END
>  <mol_id>  (70) 
2026-08-24-6tgu-s0-n100-0070

>  <rmsd_to_ref>  (70) 
3.6224489795978587

>  <pose_kind>  (70) 
conformer

$$$$
6tgu.A
     RDKit          3D

 32 34  0  0  0  0  0  0  0  0999 V2000
    2.9331   19.6119   36.0759 C   0  0  0  0  0  0  0  0  0  0  0  0
    3.4535   18.6496   37.1472 C   0  0  0  0  0  0  0  0  0  0  0  0
    4.7909   18.6804   37.5361 C   0  0  0  0  0  0  0  0  0  0  0  0
    5.2605   17.9555   38.6363 C   0  0  0  0  0  0  0  0  0  0  0  0
    4.4244   17.0313   39.2794 C   0  0  0  0  0  0  0  0  0  0  0  0
    4.1676   15.7764   41.4754 C   0  0  0  0  0  0  0  0  0  0  0  0
    2.3499   15.0644   42.6437 C   0  0  0  0  0  0  0  0  0  0  0  0
    0.9285   14.7806   42.8444 C   0  0  0  0  0  0  0  0  0  0  0  0
    0.4237   14.3498   44.0795 C   0  0  0  0  0  0  0  0  0  0  0  0
   -0.9367   14.1181   44.2578 C   0  0  0  0  0  0  0  0  0  0  0  0
   -1.7951   14.3633   43.2026 C   0  0  0  0  0  0  0  0  0  0  0  0
   -1.3392   14.7953   41.9662 C   0  0  0  0  0  0  0  0  0  0  0  0
    0.0266   15.0105   41.8043 C   0  0  0  0  0  0  0  0  0  0  0  0
    3.3040   14.9217   43.6163 C   0  0  0  0  0  0  0  0  0  0  0  0
    3.0729   16.9956   38.9075 C   0  0  0  0  0  0  0  0  0  0  0  0
    2.6192   17.7925   37.8548 C   0  0  0  0  0  0  0  0  0  0  0  0
    4.8679   16.3306   40.4429 N   0  0  0  0  0  0  0  0  0  0  0  0
    2.7964   15.6404   41.4309 N   0  0  0  0  0  0  0  0  0  0  0  0
    3.7280   20.5233   35.7009 O   0  0  0  0  0  0  0  0  0  0  0  0
    1.7433   19.4716   35.7176 O   0  0  0  0  0  0  0  0  0  0  0  0
    1.2753   17.8278   37.5676 O   0  0  0  0  0  0  0  0  0  0  0  0
    4.8254   15.5273   43.0812 S   0  0  0  0  0  0  0  0  0  0  0  0
   -3.4960   14.1186   43.4221 Cl  0  0  0  0  0  0  0  0  0  0  0  0
    5.4994   19.2939   36.9602 H   0  0  0  0  0  0  0  0  0  0  0  0
    6.2878   18.1106   38.9977 H   0  0  0  0  0  0  0  0  0  0  0  0
    1.1142   14.1924   44.9211 H   0  0  0  0  0  0  0  0  0  0  0  0
   -1.3213   13.7471   45.2192 H   0  0  0  0  0  0  0  0  0  0  0  0
   -2.0391   14.9637   41.1344 H   0  0  0  0  0  0  0  0  0  0  0  0
    0.4034   15.3697   40.8352 H   0  0  0  0  0  0  0  0  0  0  0  0
    3.1228   14.4793   44.6070 H   0  0  0  0  0  0  0  0  0  0  0  0
    2.3712   16.3405   39.4445 H   0  0  0  0  0  0  0  0  0  0  0  0
    5.8900   16.2258   40.5149 H   0  0  0  0  0  0  0  0  0  0  0  0
  1  2  1  0
  1 19  1  0
  1 20  2  0
  2  3  1  0
  2 16  2  0
  3  4  2  0
  4  5  1  0
  5 15  2  0
  5 17  1  0
  6 17  1  0
  6 18  2  0
  6 22  1  0
  7  8  1  0
  7 14  2  0
  7 18  1  0
  8  9  1  0
  8 13  2  0
  9 10  2  0
 10 11  1  0
 11 12  2  0
 11 23  1  0
 12 13  1  0
 14 22  1  0
 15 16  1  0
 16 21  1  0
  3 24  1  0
  4 25  1  0
  9 26  1  0
 10 27  1  0
 12 28  1  0
 13 29  1  0
 14 30  1  0
 15 31  1  0
 17 32  1  0
M  CHG  2  19  -1  21  -1
M  END
>  <mol_id>  (71) 
2026-08-24-6tgu-s0-n100-0071

>  <rmsd_to_ref>  (71) 
3.6683673469427935

>  <pose_kind>  (71) 
rigid

$$$$
6tgu.A
     RDKit          3D

 32 34  0  0  0  0  0  0  0  0999 V2000
    3.4754   19.4881   37.1245 C   0  0  0  0  0  0  0  0  0  0  0  0
    3.5175   18.2397   37.8767 C   0  0  0  0  0  0  0  0  0  0  0  0
    4.6672   17.8850   38.5067 C   0  0  0  0  0  0  0  0  0  0  0  0
    4.7251   16.7312   39.2456 C   0  0  0  0  0  0  0  0  0  0  0  0
    3.5831   15.9539   39.3211 C   0  0  0  0  0  0  0  0  0  0  0  0
    2.9082   14.8074   41.3377 C   0  0  0  0  0  0  0  0  0  0  0  0
    1.6196   14.8818   43.1825 C   0  0  0  0  0  0  0  0  0  0  0  0
    0.4479   14.3186   43.8962 C   0  0  0  0  0  0  0  0  0  0  0  0
   -0.3279   13.3124   43.3746 C   0  0  0  0  0  0  0  0  0  0  0  0
   -1.4087   12.8119   44.0712 C   0  0  0  0  0  0  0  0  0  0  0  0
   -1.7515   13.3015   45.3130 C   0  0  0  0  0  0  0  0  0  0  0  0
   -0.9749   14.3283   45.8611 C   0  0  0  0  0  0  0  0  0  0  0  0
    0.0989   14.8064   45.1430 C   0  0  0  0  0  0  0  0  0  0  0  0
    2.3805   15.8629   43.7331 C   0  0  0  0  0  0  0  0  0  0  0  0
    2.3981   16.2728   38.6990 C   0  0  0  0  0  0  0  0  0  0  0  0
    2.3702   17.4412   37.9629 C   0  0  0  0  0  0  0  0  0  0  0  0
    3.7276   14.7707   40.1505 N   0  0  0  0  0  0  0  0  0  0  0  0
    2.0271   14.4813   41.9922 N   0  0  0  0  0  0  0  0  0  0  0  0
    2.3620   19.9661   36.4617 O   0  0  0  0  0  0  0  0  0  0  0  0
    4.5211   20.2110   37.0550 O   0  0  0  0  0  0  0  0  0  0  0  0
    1.2200   17.8498   37.2944 O   0  0  0  0  0  0  0  0  0  0  0  0
    3.6823   16.1640   42.4730 S   0  0  0  0  0  0  0  0  0  0  0  0
   -3.1148   12.7036   46.2400 Cl  0  0  0  0  0  0  0  0  0  0  0  0
    5.5764   18.4922   38.4502 H   0  0  0  0  0  0  0  0  0  0  0  0
    5.6409   16.4354   39.7588 H   0  0  0  0  0  0  0  0  0  0  0  0
   -0.0693   12.9040   42.3847 H   0  0  0  0  0  0  0  0  0  0  0  0
   -1.9951   12.0066   43.6342 H   0  0  0  0  0  0  0  0  0  0  0  0
   -1.1928   14.7504   46.8298 H   0  0  0  0  0  0  0  0  0  0  0  0
    0.6788   15.5884   45.5662 H   0  0  0  0  0  0  0  0  0  0  0  0
    2.3360   16.4260   44.6896 H   0  0  0  0  0  0  0  0  0  0  0  0
    1.5298   15.6379   38.7875 H   0  0  0  0  0  0  0  0  0  0  0  0
    4.3496   13.9961   39.8997 H   0  0  0  0  0  0  0  0  0  0  0  0
  1  2  1  0
  1 19  1  0
  1 20  2  0
  2  3  1  0
  2 16  2  0
  3  4  2  0
  4  5  1  0
  5 15  2  0
  5 17  1  0
  6 17  1  0
  6 18  2  0
  6 22  1  0
  7  8  1  0
  7 14  2  0
  7 18  1  0
  8  9  1  0
  8 13  2  0
  9 10  2  0
 10 11  1  0
 11 12  2  0
 11 23  1  0
 12 13  1  0
 14 22  1  0
 15 16  1  0
 16 21  1  0
  3 24  1  0
  4 25  1  0
  9 26  1  0
 10 27  1  0
 12 28  1  0
 13 29  1  0
 14 30  1  0
 15 31  1  0
 17 32  1  0
M  CHG  2  19  -1  21  -1
M  END
>  <mol_id>  (72) 
2026-08-24-6tgu-s0-n100-0072

>  <rmsd_to_ref>  (72) 
3.714285714288164

>  <pose_kind>  (72) 
conformer

$$$$
6tgu.A
     RDKit          3D

 32 34  0  0  0  0  0  0  0  0999 V2000
    2.9563   20.9243   37.2590 C   0  0  0  0  0  0  0  0  0  0  0  0
    2.5562   20.2481   38.5733 C   0  0  0  0  0  0  0  0  0  0  0  0
    1.7529   20.9147   39.4957 C   0  0  0  0  0  0  0  0  0  0  0  0
    1.2122   20.2686   40.6123 C   0  0  0  0  0  0  0  0  0  0  0  0
    1.6103   18.9622   40.9312 C   0  0  0  0  0  0  0  0  0  0  0  0
    0.8709   16.9298   42.2675 C   0  0  0  0  0  0  0  0  0  0  0  0
    1.1404   14.6928   41.9525 C   0  0  0  0  0  0  0  0  0  0  0  0
    1.7017   13.4998   41.3178 C   0  0  0  0  0  0  0  0  0  0  0  0
    1.2612   12.2086   41.6416 C   0  0  0  0  0  0  0  0  0  0  0  0
    1.7847   11.0897   41.0016 C   0  0  0  0  0  0  0  0  0  0  0  0
    2.7218   11.2750   40.0025 C   0  0  0  0  0  0  0  0  0  0  0  0
    3.1812   12.5341   39.6466 C   0  0  0  0  0  0  0  0  0  0  0  0
    2.6535   13.6404   40.3066 C   0  0  0  0  0  0  0  0  0  0  0  0
    0.1662   14.6617   42.9149 C   0  0  0  0  0  0  0  0  0  0  0  0
    2.4096   18.2733   40.0079 C   0  0  0  0  0  0  0  0  0  0  0  0
    2.8681   18.9247   38.8613 C   0  0  0  0  0  0  0  0  0  0  0  0
    1.0200   18.2658   42.0302 N   0  0  0  0  0  0  0  0  0  0  0  0
    1.5021   15.9809   41.4917 N   0  0  0  0  0  0  0  0  0  0  0  0
    2.3893   22.0251   36.9946 O   0  0  0  0  0  0  0  0  0  0  0  0
    3.7460   20.2995   36.5175 O   0  0  0  0  0  0  0  0  0  0  0  0
    3.5623   18.2112   37.9133 O   0  0  0  0  0  0  0  0  0  0  0  0
   -0.3821   16.2515   43.2888 S   0  0  0  0  0  0  0  0  0  0  0  0
    3.3527    9.8937   39.1685 Cl  0  0  0  0  0  0  0  0  0  0  0  0
    1.5371   21.9822   39.3413 H   0  0  0  0  0  0  0  0  0  0  0  0
    0.4732   20.7862   41.2416 H   0  0  0  0  0  0  0  0  0  0  0  0
    0.4892   12.0782   42.4144 H   0  0  0  0  0  0  0  0  0  0  0  0
    1.4596   10.0778   41.2849 H   0  0  0  0  0  0  0  0  0  0  0  0
    3.9433   12.6557   38.8627 H   0  0  0  0  0  0  0  0  0  0  0  0
    2.9940   14.6477   40.0249 H   0  0  0  0  0  0  0  0  0  0  0  0
   -0.2152   13.7440   43.3863 H   0  0  0  0  0  0  0  0  0  0  0  0
    2.6750   17.2209   40.1866 H   0  0  0  0  0  0  0  0  0  0  0  0
    0.6426   18.8758   42.7694 H   0  0  0  0  0  0  0  0  0  0  0  0
  1  2  1  0
  1 19  1  0
  1 20  2  0
  2  3  1  0
  2 16  2  0
  3  4  2  0
  4  5  1  0
  5 15  2  0
  5 17  1  0
  6 17  1  0
  6 18  2  0
  6 22  1  0
  7  8  1  0
  7 14  2  0
  7 18  1  0
  8  9  1  0
  8 13  2  0
  9 10  2  0
 10 11  1  0
 11 12  2  0
 11 23  1  0
 12 13  1  0
 14 22  1  0
 15 16  1  0
 16 21  1  0
  3 24  1  0
  4 25  1  0
  9 26  1  0
 10 27  1  0
 12 28  1  0
 13 29  1  0
 14 30  1  0
 15 31  1  0
 17 32  1  0
M  CHG  2  19  -1  21  -1
M  END
>  <mol_id>  (73) 
2026-08-24-6tgu-s0-n100-0073

>  <rmsd_to_ref>  (73) 
3.760204081641252

>  <pose_kind>  (73) 
rigid

$$$$
6tgu.A
     RDKit          3D

 32 34  0  0  0  0  0  0  0  0999 V2000
    2.6472   19.8534   35.7246 C   0  0  0  0  0  0  0  0  0  0  0  0
    2.0763   19.6069   37.0435 C   0  0  0  0  0  0  0  0  0  0  0  0
    0.8372   19.0586   37.1364 C   0  0  0  0  0  0  0  0  0  0  0  0
    0.2890   18.7887   38.3640 C   0  0  0  0  0  0  0  0  0  0  0  0
    1.0370   19.0939   39.4872 C   0  0  0  0  0  0  0  0  0  0  0  0
    1.0761   17.6950   41.4565 C   0  0  0  0  0  0  0  0  0  0  0  0
    2.1612   16.0603   42.5610 C   0  0  0  0  0  0  0  0  0  0  0  0
    2.9736   15.6978   43.7476 C   0  0  0  0  0  0  0  0  0  0  0  0
    3.3386   16.6109   44.7064 C   0  0  0  0  0  0  0  0  0  0  0  0
    4.0925   16.2341   45.7990 C   0  0  0  0  0  0  0  0  0  0  0  0
    4.5084   14.9312   45.9693 C   0  0  0  0  0  0  0  0  0  0  0  0
    4.1487   13.9861   45.0023 C   0  0  0  0  0  0  0  0  0  0  0  0
    3.3941   14.3915   43.9235 C   0  0  0  0  0  0  0  0  0  0  0  0
    1.7983   15.1307   41.6397 C   0  0  0  0  0  0  0  0  0  0  0  0
    2.2943   19.6507   39.4410 C   0  0  0  0  0  0  0  0  0  0  0  0
    2.8202   19.9103   38.1905 C   0  0  0  0  0  0  0  0  0  0  0  0
    0.3914   18.7437   40.7399 N   0  0  0  0  0  0  0  0  0  0  0  0
    1.7162   17.2776   42.3093 N   0  0  0  0  0  0  0  0  0  0  0  0
    3.9025   20.3842   35.5012 O   0  0  0  0  0  0  0  0  0  0  0  0
    1.9666   19.5702   34.6865 O   0  0  0  0  0  0  0  0  0  0  0  0
    4.0832   20.4746   38.0380 O   0  0  0  0  0  0  0  0  0  0  0  0
    0.8040   16.0850   40.4257 S   0  0  0  0  0  0  0  0  0  0  0  0
    5.4689   14.3991   47.3367 Cl  0  0  0  0  0  0  0  0  0  0  0  0
    0.2371   18.8166   36.2534 H   0  0  0  0  0  0  0  0  0  0  0  0
   -0.7038   18.3463   38.4534 H   0  0  0  0  0  0  0  0  0  0  0  0
    3.0134   17.6571   44.5918 H   0  0  0  0  0  0  0  0  0  0  0  0
    4.3542   16.9802   46.5461 H   0  0  0  0  0  0  0  0  0  0  0  0
    4.4431   12.9512   45.0822 H   0  0  0  0  0  0  0  0  0  0  0  0
    3.1305   13.6673   43.1937 H   0  0  0  0  0  0  0  0  0  0  0  0
    1.9878   14.0417   41.5293 H   0  0  0  0  0  0  0  0  0  0  0  0
    2.8439   19.8698   40.3438 H   0  0  0  0  0  0  0  0  0  0  0  0
   -0.4609   19.2083   41.0680 H   0  0  0  0  0  0  0  0  0  0  0  0
  1  2  1  0
  1 19  1  0
  1 20  2  0
  2  3  1  0
  2 16  2  0
  3  4  2  0
  4  5  1  0
  5 15  2  0
  5 17  1  0
  6 17  1  0
  6 18  2  0
  6 22  1  0
  7  8  1  0
  7 14  2  0
  7 18  1  0
  8  9  1  0
  8 13  2  0
  9 10  2  0
 10 11  1  0
 11 12  2  0
 11 23  1  0
 12 13  1  0
 14 22  1  0
 15 16  1  0
 16 21  1  0
  3 24  1  0
  4 25  1  0
  9 26  1  0
 10 27  1  0
 12 28  1  0
 13 29  1  0
 14 30  1  0
 15 31  1  0
 17 32  1  0
M  CHG  2  19  -1  21  -1
M  END
>  <mol_id>  (74) 
2026-08-24-6tgu-s0-n100-0074

>  <rmsd_to_ref>  (74) 
3.8061224489876393

>  <pose_kind>  (74) 
conformer

$$$$
6tgu.A
     RDKit          3D

 32 34  0  0  0  0  0  0  0  0999 V2000
    5.2624   20.3666   41.6593 C   0  0  0  0  0  0  0  0  0  0  0  0
    3.7895   20.0371   41.9172 C   0  0  0  0  0  0  0  0  0  0  0  0
    2.8100   21.0174   41.7749 C   0  0  0  0  0  0  0  0  0  0  0  0
    1.4451   20.7140   41.8150 C   0  0  0  0  0  0  0  0  0  0  0  0
    1.0203   19.4275   42.1774 C   0  0  0  0  0  0  0  0  0  0  0  0
   -0.9883   17.8779   42.0118 C   0  0  0  0  0  0  0  0  0  0  0  0
   -1.1855   15.6179   41.8408 C   0  0  0  0  0  0  0  0  0  0  0  0
   -0.7010   14.2374   41.8672 C   0  0  0  0  0  0  0  0  0  0  0  0
   -1.5213   13.1550   41.5186 C   0  0  0  0  0  0  0  0  0  0  0  0
   -1.0305   11.8531   41.5181 C   0  0  0  0  0  0  0  0  0  0  0  0
    0.3009   11.6461   41.8266 C   0  0  0  0  0  0  0  0  0  0  0  0
    1.1487   12.6880   42.1715 C   0  0  0  0  0  0  0  0  0  0  0  0
    0.6358   13.9822   42.1772 C   0  0  0  0  0  0  0  0  0  0  0  0
   -2.4629   15.9747   41.4984 C   0  0  0  0  0  0  0  0  0  0  0  0
    1.9927   18.4265   42.3134 C   0  0  0  0  0  0  0  0  0  0  0  0
    3.3454   18.7484   42.1884 C   0  0  0  0  0  0  0  0  0  0  0  0
   -0.3665   19.0841   42.1609 N   0  0  0  0  0  0  0  0  0  0  0  0
   -0.2878   16.6912   42.0519 N   0  0  0  0  0  0  0  0  0  0  0  0
    5.5077   21.5034   41.1586 O   0  0  0  0  0  0  0  0  0  0  0  0
    6.0941   19.4610   41.8869 O   0  0  0  0  0  0  0  0  0  0  0  0
    4.2826   17.7431   42.2195 O   0  0  0  0  0  0  0  0  0  0  0  0
   -2.6173   17.6873   41.3922 S   0  0  0  0  0  0  0  0  0  0  0  0
    0.9365   10.0348   41.7903 Cl  0  0  0  0  0  0  0  0  0  0  0  0
    3.1195   22.0625   41.6264 H   0  0  0  0  0  0  0  0  0  0  0  0
    0.7035   21.4859   41.5618 H   0  0  0  0  0  0  0  0  0  0  0  0
   -2.5698   13.3381   41.2410 H   0  0  0  0  0  0  0  0  0  0  0  0
   -1.6887   11.0055   41.2769 H   0  0  0  0  0  0  0  0  0  0  0  0
    2.1996   12.4966   42.4338 H   0  0  0  0  0  0  0  0  0  0  0  0
    1.2987   14.8223   42.4318 H   0  0  0  0  0  0  0  0  0  0  0  0
   -3.2811   15.2626   41.3155 H   0  0  0  0  0  0  0  0  0  0  0  0
    1.6902   17.3890   42.5183 H   0  0  0  0  0  0  0  0  0  0  0  0
   -1.0059   19.8823   42.2821 H   0  0  0  0  0  0  0  0  0  0  0  0
  1  2  1  0
  1 19  1  0
  1 20  2  0
  2  3  1  0
  2 16  2  0
  3  4  2  0
  4  5  1  0
  5 15  2  0
  5 17  1  0
  6 17  1  0
  6 18  2  0
  6 22  1  0
  7  8  1  0
  7 14  2  0
  7 18  1  0
  8  9  1  0
  8 13  2  0
  9 10  2  0
 10 11  1  0
 11 12  2  0
 11 23  1  0
 12 13  1  0
 14 22  1  0
 15 16  1  0
 16 21  1  0
  3 24  1  0
  4 25  1  0
  9 26  1  0
 10 27  1  0
 12 28  1  0
 13 29  1  0
 14 30  1  0
 15 31  1  0
 17 32  1  0
M  CHG  2  19  -1  21  -1
M  END
>  <mol_id>  (75) 
2026-08-24-6tgu-s0-n100-0075

>  <rmsd_to_ref>  (75) 
3.852040816335722

>  <pose_kind>  (75) 
rigid

$$$$
6tgu.A
     RDKit          3D

 32 34  0  0  0  0  0  0  0  0999 V2000
    4.3326   19.5335   38.8817 C   0  0  0  0  0  0  0  0  0  0  0  0
    2.9839   19.5445   39.4357 C   0  0  0  0  0  0  0  0  0  0  0  0
    1.9919   20.1698   38.7504 C   0  0  0  0  0  0  0  0  0  0  0  0
    0.7087   20.1694   39.2341 C   0  0  0  0  0  0  0  0  0  0  0  0
    0.4691   19.5175   40.4307 C   0  0  0  0  0  0  0  0  0  0  0  0
   -1.5355   18.2345   40.8463 C   0  0  0  0  0  0  0  0  0  0  0  0
   -2.4738   16.1878   40.8414 C   0  0  0  0  0  0  0  0  0  0  0  0
   -3.0308   15.0807   41.6559 C   0  0  0  0  0  0  0  0  0  0  0  0
   -3.0832   15.1197   43.0278 C   0  0  0  0  0  0  0  0  0  0  0  0
   -3.6128   14.0705   43.7508 C   0  0  0  0  0  0  0  0  0  0  0  0
   -4.1071   12.9456   43.1264 C   0  0  0  0  0  0  0  0  0  0  0  0
   -4.0609   12.8855   41.7293 C   0  0  0  0  0  0  0  0  0  0  0  0
   -3.5282   13.9489   41.0345 C   0  0  0  0  0  0  0  0  0  0  0  0
   -2.4542   16.1293   39.4846 C   0  0  0  0  0  0  0  0  0  0  0  0
    1.4421   18.8727   41.1589 C   0  0  0  0  0  0  0  0  0  0  0  0
    2.7245   18.8895   40.6460 C   0  0  0  0  0  0  0  0  0  0  0  0
   -0.9218   19.5405   40.8476 N   0  0  0  0  0  0  0  0  0  0  0  0
   -1.9777   17.3031   41.3445 N   0  0  0  0  0  0  0  0  0  0  0  0
    5.4168   18.9141   39.4718 O   0  0  0  0  0  0  0  0  0  0  0  0
    4.5595   20.1270   37.7784 O   0  0  0  0  0  0  0  0  0  0  0  0
    3.7785   18.2681   41.3089 O   0  0  0  0  0  0  0  0  0  0  0  0
   -1.7037   17.7309   38.9899 S   0  0  0  0  0  0  0  0  0  0  0  0
   -4.7887   11.5839   43.9962 Cl  0  0  0  0  0  0  0  0  0  0  0  0
    2.1728   20.6905   37.8046 H   0  0  0  0  0  0  0  0  0  0  0  0
   -0.0981   20.6653   38.6930 H   0  0  0  0  0  0  0  0  0  0  0  0
   -2.6970   16.0112   43.5469 H   0  0  0  0  0  0  0  0  0  0  0  0
   -3.6500   14.1390   44.8357 H   0  0  0  0  0  0  0  0  0  0  0  0
   -4.4343   12.0323   41.1847 H   0  0  0  0  0  0  0  0  0  0  0  0
   -3.4941   13.8911   39.9752 H   0  0  0  0  0  0  0  0  0  0  0  0
   -2.7761   15.3680   38.7425 H   0  0  0  0  0  0  0  0  0  0  0  0
    1.2093   18.3736   42.0872 H   0  0  0  0  0  0  0  0  0  0  0  0
   -1.4009   20.4053   41.1165 H   0  0  0  0  0  0  0  0  0  0  0  0
  1  2  1  0
  1 19  1  0
  1 20  2  0
  2  3  1  0
  2 16  2  0
  3  4  2  0
  4  5  1  0
  5 15  2  0
  5 17  1  0
  6 17  1  0
  6 18  2  0
  6 22  1  0
  7  8  1  0
  7 14  2  0
  7 18  1  0
  8  9  1  0
  8 13  2  0
  9 10  2  0
 10 11  1  0
 11 12  2  0
 11 23  1  0
 12 13  1  0
 14 22  1  0
 15 16  1  0
 16 21  1  0
  3 24  1  0
  4 25  1  0
  9 26  1  0
 10 27  1  0
 12 28  1  0
 13 29  1  0
 14 30  1  0
 15 31  1  0
 17 32  1  0
M  CHG  2  19  -1  21  -1
M  END
>  <mol_id>  (76) 
2026-08-24-6tgu-s0-n100-0076

>  <rmsd_to_ref>  (76) 
3.8979591836810243

>  <pose_kind>  (76) 
conformer

$$$$
6tgu.A
     RDKit          3D

 32 34  0  0  0  0  0  0  0  0999 V2000
    4.0981   20.6156   38.2797 C   0  0  0  0  0  0  0  0  0  0  0  0
    3.1124   19.9225   39.2246 C   0  0  0  0  0  0  0  0  0  0  0  0
    2.0374   20.6251   39.7645 C   0  0  0  0  0  0  0  0  0  0  0  0
    1.0149   19.9866   40.4739 C   0  0  0  0  0  0  0  0  0  0  0  0
    1.1344   18.6313   40.8145 C   0  0  0  0  0  0  0  0  0  0  0  0
   -0.2654   16.6263   41.5102 C   0  0  0  0  0  0  0  0  0  0  0  0
   -0.0516   14.3914   41.1428 C   0  0  0  0  0  0  0  0  0  0  0  0
    0.6412   13.1778   40.7088 C   0  0  0  0  0  0  0  0  0  0  0  0
    0.0088   11.9264   40.6924 C   0  0  0  0  0  0  0  0  0  0  0  0
    0.6757   10.7906   40.2439 C   0  0  0  0  0  0  0  0  0  0  0  0
    1.9672   10.9238   39.7699 C   0  0  0  0  0  0  0  0  0  0  0  0
    2.6283   12.1428   39.7628 C   0  0  0  0  0  0  0  0  0  0  0  0
    1.9478   13.2656   40.2262 C   0  0  0  0  0  0  0  0  0  0  0  0
   -1.3490   14.4171   41.5818 C   0  0  0  0  0  0  0  0  0  0  0  0
    2.2045   17.9071   40.2700 C   0  0  0  0  0  0  0  0  0  0  0  0
    3.1669   18.5612   39.4986 C   0  0  0  0  0  0  0  0  0  0  0  0
    0.0714   17.9490   41.4822 N   0  0  0  0  0  0  0  0  0  0  0  0
    0.5701   15.6547   41.0019 N   0  0  0  0  0  0  0  0  0  0  0  0
    3.7883   21.7819   37.8964 O   0  0  0  0  0  0  0  0  0  0  0  0
    5.0844   19.9474   37.8999 O   0  0  0  0  0  0  0  0  0  0  0  0
    4.1519   17.8248   38.8844 O   0  0  0  0  0  0  0  0  0  0  0  0
   -1.8862   16.0361   41.8231 S   0  0  0  0  0  0  0  0  0  0  0  0
    2.7960    9.5256   39.1702 Cl  0  0  0  0  0  0  0  0  0  0  0  0
    1.9912   21.7157   39.6288 H   0  0  0  0  0  0  0  0  0  0  0  0
    0.1153   20.5485   40.7653 H   0  0  0  0  0  0  0  0  0  0  0  0
   -1.0316   11.8414   41.0397 H   0  0  0  0  0  0  0  0  0  0  0  0
    0.1850    9.8065   40.2662 H   0  0  0  0  0  0  0  0  0  0  0  0
    3.6638   12.2208   39.4003 H   0  0  0  0  0  0  0  0  0  0  0  0
    2.4513   14.2435   40.2116 H   0  0  0  0  0  0  0  0  0  0  0  0
   -1.9655   13.5232   41.7568 H   0  0  0  0  0  0  0  0  0  0  0  0
    2.2856   16.8251   40.4504 H   0  0  0  0  0  0  0  0  0  0  0  0
   -0.5459   18.5590   42.0369 H   0  0  0  0  0  0  0  0  0  0  0  0
  1  2  1  0
  1 19  1  0
  1 20  2  0
  2  3  1  0
  2 16  2  0
  3  4  2  0
  4  5  1  0
  5 15  2  0
  5 17  1  0
  6 17  1  0
  6 18  2  0
  6 22  1  0
  7  8  1  0
  7 14  2  0
  7 18  1  0
  8  9  1  0
  8 13  2  0
  9 10  2  0
 10 11  1  0
 11 12  2  0
 11 23  1  0
 12 13  1  0
 14 22  1  0
 15 16  1  0
 16 21  1  0
  3 24  1  0
  4 25  1  0
  9 26  1  0
 10 27  1  0
 12 28  1  0
 13 29  1  0
 14 30  1  0
 15 31  1  0
 17 32  1  0
M  CHG  2  19  -1  21  -1
M  END
>  <mol_id>  (77) 
2026-08-24-6tgu-s0-n100-0077

>  <rmsd_to_ref>  (77) 
3.9438775510248183

>  <pose_kind>  (77) 
rigid

$$$$
6tgu.A
     RDKit          3D

 32 34  0  0  0  0  0  0  0  0999 V2000
    1.7621   19.9629   34.2264 C   0  0  0  0  0  0  0  0  0  0  0  0
    1.8429   20.0105   35.6814 C   0  0  0  0  0  0  0  0  0  0  0  0
    0.7475   20.3822   36.3932 C   0  0  0  0  0  0  0  0  0  0  0  0
    0.7871   20.4066   37.7638 C   0  0  0  0  0  0  0  0  0  0  0  0
    1.9701   20.0444   38.3829 C   0  0  0  0  0  0  0  0  0  0  0  0
    2.0401   18.7595   40.4276 C   0  0  0  0  0  0  0  0  0  0  0  0
    2.2502   16.7099   41.3356 C   0  0  0  0  0  0  0  0  0  0  0  0
    3.0969   15.7931   42.1368 C   0  0  0  0  0  0  0  0  0  0  0  0
    4.3274   16.1550   42.6279 C   0  0  0  0  0  0  0  0  0  0  0  0
    5.0844   15.2743   43.3730 C   0  0  0  0  0  0  0  0  0  0  0  0
    4.6373   14.0008   43.6515 C   0  0  0  0  0  0  0  0  0  0  0  0
    3.3869   13.6118   43.1584 C   0  0  0  0  0  0  0  0  0  0  0  0
    2.6532   14.5132   42.4191 C   0  0  0  0  0  0  0  0  0  0  0  0
    1.0282   16.3302   40.8806 C   0  0  0  0  0  0  0  0  0  0  0  0
    3.1037   19.6628   37.7031 C   0  0  0  0  0  0  0  0  0  0  0  0
    3.0329   19.6471   36.3237 C   0  0  0  0  0  0  0  0  0  0  0  0
    1.9090   20.0680   39.8335 N   0  0  0  0  0  0  0  0  0  0  0  0
    2.5894   17.9453   41.0165 N   0  0  0  0  0  0  0  0  0  0  0  0
    2.7979   19.5807   33.3965 O   0  0  0  0  0  0  0  0  0  0  0  0
    0.6750   20.2899   33.6500 O   0  0  0  0  0  0  0  0  0  0  0  0
    4.1265   19.2784   35.5459 O   0  0  0  0  0  0  0  0  0  0  0  0
    0.4121   17.8161   39.9942 S   0  0  0  0  0  0  0  0  0  0  0  0
    5.5588   12.8417   44.5909 Cl  0  0  0  0  0  0  0  0  0  0  0  0
   -0.1918   20.6731   35.9119 H   0  0  0  0  0  0  0  0  0  0  0  0
   -0.0858   20.7005   38.3481 H   0  0  0  0  0  0  0  0  0  0  0  0
    4.7023   17.1698   42.4202 H   0  0  0  0  0  0  0  0  0  0  0  0
    6.0496   15.5972   43.7570 H   0  0  0  0  0  0  0  0  0  0  0  0
    2.9832   12.6289   43.3451 H   0  0  0  0  0  0  0  0  0  0  0  0
    1.7079   14.2064   42.0462 H   0  0  0  0  0  0  0  0  0  0  0  0
    0.4368   15.3929   40.9541 H   0  0  0  0  0  0  0  0  0  0  0  0
    4.0052   19.3851   38.2276 H   0  0  0  0  0  0  0  0  0  0  0  0
    1.7892   20.9359   40.3648 H   0  0  0  0  0  0  0  0  0  0  0  0
  1  2  1  0
  1 19  1  0
  1 20  2  0
  2  3  1  0
  2 16  2  0
  3  4  2  0
  4  5  1  0
  5 15  2  0
  5 17  1  0
  6 17  1  0
  6 18  2  0
  6 22  1  0
  7  8  1  0
  7 14  2  0
  7 18  1  0
  8  9  1  0
  8 13  2  0
  9 10  2  0
 10 11  1  0
 11 12  2  0
 11 23  1  0
 12 13  1  0
 14 22  1  0
 15 16  1  0
 16 21  1  0
  3 24  1  0
  4 25  1  0
  9 26  1  0
 10 27  1  0
 12 28  1  0
 13 29  1  0
 14 30  1  0
 15 31  1  0
 17 32  1  0
M  CHG  2  19  -1  21  -1
M  END
>  <mol_id>  (78) 
2026-08-24-6tgu-s0-n100-0078

>  <rmsd_to_ref>  (78) 
3.989795918369189

>  <pose_kind>  (78) 
conformer

$$$$
6tgu.A
     RDKit          3D

 32 34  0  0  0  0  0  0  0  0999 V2000
    6.2570   22.4895   41.5222 C   0  0  0  0  0  0  0  0  0  0  0  0
    4.9900   21.8714   40.9245 C   0  0  0  0  0  0  0  0  0  0  0  0
    4.4703   22.3466   39.7226 C   0  0  0  0  0  0  0  0  0  0  0  0
    3.4333   21.6903   39.0515 C   0  0  0  0  0  0  0  0  0  0  0  0
    2.7634   20.6215   39.6644 C   0  0  0  0  0  0  0  0  0  0  0  0
    1.2938   18.6207   39.1161 C   0  0  0  0  0  0  0  0  0  0  0  0
    1.0684   16.5644   40.0629 C   0  0  0  0  0  0  0  0  0  0  0  0
    1.2760   15.5483   41.0952 C   0  0  0  0  0  0  0  0  0  0  0  0
    0.8293   14.2285   40.9396 C   0  0  0  0  0  0  0  0  0  0  0  0
    1.0670   13.2697   41.9195 C   0  0  0  0  0  0  0  0  0  0  0  0
    1.7943   13.6308   43.0380 C   0  0  0  0  0  0  0  0  0  0  0  0
    2.2597   14.9229   43.2296 C   0  0  0  0  0  0  0  0  0  0  0  0
    2.0019   15.8707   42.2430 C   0  0  0  0  0  0  0  0  0  0  0  0
    0.4166   16.3327   38.8806 C   0  0  0  0  0  0  0  0  0  0  0  0
    3.2806   20.1238   40.8689 C   0  0  0  0  0  0  0  0  0  0  0  0
    4.3688   20.7558   41.4733 C   0  0  0  0  0  0  0  0  0  0  0  0
    1.7462   19.9001   38.9671 N   0  0  0  0  0  0  0  0  0  0  0  0
    1.6648   17.8412   40.1910 N   0  0  0  0  0  0  0  0  0  0  0  0
    6.8795   23.3172   40.7938 O   0  0  0  0  0  0  0  0  0  0  0  0
    6.6182   22.0695   42.6433 O   0  0  0  0  0  0  0  0  0  0  0  0
    4.9323   20.1988   42.5968 O   0  0  0  0  0  0  0  0  0  0  0  0
    0.5311   17.6976   37.8357 S   0  0  0  0  0  0  0  0  0  0  0  0
    2.1332   12.4376   44.2475 Cl  0  0  0  0  0  0  0  0  0  0  0  0
    4.8884   23.2665   39.2879 H   0  0  0  0  0  0  0  0  0  0  0  0
    3.1428   22.0131   38.0409 H   0  0  0  0  0  0  0  0  0  0  0  0
    0.2821   13.9463   40.0280 H   0  0  0  0  0  0  0  0  0  0  0  0
    0.6836   12.2448   41.8063 H   0  0  0  0  0  0  0  0  0  0  0  0
    2.8184   15.1922   44.1381 H   0  0  0  0  0  0  0  0  0  0  0  0
    2.3785   16.8963   42.3709 H   0  0  0  0  0  0  0  0  0  0  0  0
   -0.1098   15.3995   38.6316 H   0  0  0  0  0  0  0  0  0  0  0  0
    2.8293   19.2366   41.3371 H   0  0  0  0  0  0  0  0  0  0  0  0
    1.2736   20.4368   38.2258 H   0  0  0  0  0  0  0  0  0  0  0  0
  1  2  1  0
  1 19  1  0
  1 20  2  0
  2  3  1  0
  2 16  2  0
  3  4  2  0
  4  5  1  0
  5 15  2  0
  5 17  1  0
  6 17  1  0
  6 18  2  0
  6 22  1  0
  7  8  1  0
  7 14  2  0
  7 18  1  0
  8  9  1  0
  8 13  2  0
  9 10  2  0
 10 11  1  0
 11 12  2  0
 11 23  1  0
 12 13  1  0
 14 22  1  0
 15 16  1  0
 16 21  1  0
  3 24  1  0
  4 25  1  0
  9 26  1  0
 10 27  1  0
 12 28  1  0
 13 29  1  0
 14 30  1  0
 15 31  1  0
 17 32  1  0
M  CHG  2  19  -1  21  -1
M  END
>  <mol_id>  (79) 
2026-08-24-6tgu-s0-n100-0079

>  <rmsd_to_ref>  (79) 
4.035714285718791

>  <pose_kind>  (79) 
rigid

$$$$
6tgu.A
     RDKit          3D

 32 34  0  0  0  0  0  0  0  0999 V2000
    4.0454   19.9852   36.9655 C   0  0  0  0  0  0  0  0  0  0  0  0
    3.1050   19.8909   38.0758 C   0  0  0  0  0  0  0  0  0  0  0  0
    1.8660   20.4305   37.9414 C   0  0  0  0  0  0  0  0  0  0  0  0
    0.9520   20.3296   38.9589 C   0  0  0  0  0  0  0  0  0  0  0  0
    1.3375   19.6674   40.1108 C   0  0  0  0  0  0  0  0  0  0  0  0
   -0.1512   18.2297   41.3572 C   0  0  0  0  0  0  0  0  0  0  0  0
   -0.8326   16.1141   41.7173 C   0  0  0  0  0  0  0  0  0  0  0  0
   -0.8699   14.9705   42.6606 C   0  0  0  0  0  0  0  0  0  0  0  0
   -0.2893   15.0128   43.9046 C   0  0  0  0  0  0  0  0  0  0  0  0
   -0.3484   13.9286   44.7560 C   0  0  0  0  0  0  0  0  0  0  0  0
   -0.9895   12.7641   44.3919 C   0  0  0  0  0  0  0  0  0  0  0  0
   -1.5856   12.7000   43.1276 C   0  0  0  0  0  0  0  0  0  0  0  0
   -1.5117   13.7989   42.3003 C   0  0  0  0  0  0  0  0  0  0  0  0
   -1.4339   16.0496   40.5012 C   0  0  0  0  0  0  0  0  0  0  0  0
    2.5810   19.1069   40.2913 C   0  0  0  0  0  0  0  0  0  0  0  0
    3.4795   19.2239   39.2488 C   0  0  0  0  0  0  0  0  0  0  0  0
    0.2960   19.5808   41.1189 N   0  0  0  0  0  0  0  0  0  0  0  0
   -0.2451   17.2686   41.9726 N   0  0  0  0  0  0  0  0  0  0  0  0
    5.3220   19.4584   36.9733 O   0  0  0  0  0  0  0  0  0  0  0  0
    3.6957   20.5888   35.9004 O   0  0  0  0  0  0  0  0  0  0  0  0
    4.7630   18.6931   39.3351 O   0  0  0  0  0  0  0  0  0  0  0  0
   -1.1153   17.7036   39.7691 S   0  0  0  0  0  0  0  0  0  0  0  0
   -1.0927   11.3568   45.4332 Cl  0  0  0  0  0  0  0  0  0  0  0  0
    1.5532   20.9588   37.0349 H   0  0  0  0  0  0  0  0  0  0  0  0
   -0.0473   20.7559   38.8636 H   0  0  0  0  0  0  0  0  0  0  0  0
    0.2250   15.9355   44.2173 H   0  0  0  0  0  0  0  0  0  0  0  0
    0.1117   13.9998   45.7390 H   0  0  0  0  0  0  0  0  0  0  0  0
   -2.1030   11.8164   42.7876 H   0  0  0  0  0  0  0  0  0  0  0  0
   -1.9636   13.7379   41.3418 H   0  0  0  0  0  0  0  0  0  0  0  0
   -2.0033   15.2608   39.9651 H   0  0  0  0  0  0  0  0  0  0  0  0
    2.8381   18.5961   41.2068 H   0  0  0  0  0  0  0  0  0  0  0  0
   -0.0688   20.4058   41.6049 H   0  0  0  0  0  0  0  0  0  0  0  0
  1  2  1  0
  1 19  1  0
  1 20  2  0
  2  3  1  0
  2 16  2  0
  3  4  2  0
  4  5  1  0
  5 15  2  0
  5 17  1  0
  6 17  1  0
  6 18  2  0
  6 22  1  0
  7  8  1  0
  7 14  2  0
  7 18  1  0
  8  9  1  0
  8 13  2  0
  9 10  2  0
 10 11  1  0
 11 12  2  0
 11 23  1  0
 12 13  1  0
 14 22  1  0
 15 16  1  0
 16 21  1  0
  3 24  1  0
  4 25  1  0
  9 26  1  0
 10 27  1  0
 12 28  1  0
 13 29  1  0
 14 30  1  0
 15 31  1  0
 17 32  1  0
M  CHG  2  19  -1  21  -1
M  END
>  <mol_id>  (80) 
2026-08-24-6tgu-s0-n100-0080

>  <rmsd_to_ref>  (80) 
4.081632653065683

>  <pose_kind>  (80) 
conformer

$$$$
6tgu.A
     RDKit          3D

 32 34  0  0  0  0  0  0  0  0999 V2000
    4.7497   19.0844   35.7413 C   0  0  0  0  0  0  0  0  0  0  0  0
    3.4268   19.1971   36.5041 C   0  0  0  0  0  0  0  0  0  0  0  0
    2.3204   19.8054   35.9153 C   0  0  0  0  0  0  0  0  0  0  0  0
    1.0503   19.7599   36.4992 C   0  0  0  0  0  0  0  0  0  0  0  0
    0.8885   19.2448   37.7936 C   0  0  0  0  0  0  0  0  0  0  0  0
   -0.8862   18.2972   39.3478 C   0  0  0  0  0  0  0  0  0  0  0  0
   -0.8187   16.7301   40.9957 C   0  0  0  0  0  0  0  0  0  0  0  0
   -0.1640   15.8196   41.9356 C   0  0  0  0  0  0  0  0  0  0  0  0
   -0.8922   14.9296   42.7379 C   0  0  0  0  0  0  0  0  0  0  0  0
   -0.2476   14.0486   43.6006 C   0  0  0  0  0  0  0  0  0  0  0  0
    1.1343   14.0338   43.6225 C   0  0  0  0  0  0  0  0  0  0  0  0
    1.8936   14.8924   42.8417 C   0  0  0  0  0  0  0  0  0  0  0  0
    1.2298   15.7744   41.9935 C   0  0  0  0  0  0  0  0  0  0  0  0
   -2.1757   16.8110   40.8271 C   0  0  0  0  0  0  0  0  0  0  0  0
    1.9893   18.6192   38.3959 C   0  0  0  0  0  0  0  0  0  0  0  0
    3.2265   18.6130   37.7491 C   0  0  0  0  0  0  0  0  0  0  0  0
   -0.4101   19.1324   38.3786 N   0  0  0  0  0  0  0  0  0  0  0  0
   -0.0450   17.5028   40.0976 N   0  0  0  0  0  0  0  0  0  0  0  0
    4.7268   19.4137   34.5189 O   0  0  0  0  0  0  0  0  0  0  0  0
    5.7224   18.6021   36.3617 O   0  0  0  0  0  0  0  0  0  0  0  0
    4.2706   17.9079   38.2992 O   0  0  0  0  0  0  0  0  0  0  0  0
   -2.5726   17.8458   39.5082 S   0  0  0  0  0  0  0  0  0  0  0  0
    1.9514   12.9138   44.6615 Cl  0  0  0  0  0  0  0  0  0  0  0  0
    2.4497   20.3378   34.9614 H   0  0  0  0  0  0  0  0  0  0  0  0
    0.1765   20.1288   35.9422 H   0  0  0  0  0  0  0  0  0  0  0  0
   -1.9909   14.9279   42.6844 H   0  0  0  0  0  0  0  0  0  0  0  0
   -0.8262   13.3774   44.2522 H   0  0  0  0  0  0  0  0  0  0  0  0
    2.9924   14.8769   42.8916 H   0  0  0  0  0  0  0  0  0  0  0  0
    1.8169   16.4506   41.3546 H   0  0  0  0  0  0  0  0  0  0  0  0
   -2.9136   16.2853   41.4508 H   0  0  0  0  0  0  0  0  0  0  0  0
    1.8783   18.1338   39.3767 H   0  0  0  0  0  0  0  0  0  0  0  0
   -1.1056   19.7941   38.0053 H   0  0  0  0  0  0  0  0  0  0  0  0
  1  2  1  0
  1 19  1  0
  1 20  2  0
  2  3  1  0
  2 16  2  0
  3  4  2  0
  4  5  1  0
  5 15  2  0
  5 17  1  0
  6 17  1  0
  6 18  2  0
  6 22  1  0
  7  8  1  0
  7 14  2  0
  7 18  1  0
  8  9  1  0
  8 13  2  0
  9 10  2  0
 10 11  1  0
 11 12  2  0
 11 23  1  0
 12 13  1  0
 14 22  1  0
 15 16  1  0
 16 21  1  0
  3 24  1  0
  4 25  1  0
  9 26  1  0
 10 27  1  0
 12 28  1  0
 13 29  1  0
 14 30  1  0
 15 31  1  0
 17 32  1  0
M  CHG  2  19  -1  21  -1
M  END
>  <mol_id>  (81) 
2026-08-24-6tgu-s0-n100-0081

>  <rmsd_to_ref>  (81) 
4.1275510204171075

>  <pose_kind>  (81) 
rigid

$$$$
6tgu.A
     RDKit          3D

 32 34  0  0  0  0  0  0  0  0999 V2000
    3.1822   20.8452   35.7115 C   0  0  0  0  0  0  0  0  0  0  0  0
    3.3528   20.4216   37.0962 C   0  0  0  0  0  0  0  0  0  0  0  0
    3.1183   21.3121   38.0944 C   0  0  0  0  0  0  0  0  0  0  0  0
    3.2421   20.9315   39.4060 C   0  0  0  0  0  0  0  0  0  0  0  0
    3.6113   19.6240   39.6676 C   0  0  0  0  0  0  0  0  0  0  0  0
    2.6909   18.3428   41.4974 C   0  0  0  0  0  0  0  0  0  0  0  0
    1.1352   16.8412   42.1254 C   0  0  0  0  0  0  0  0  0  0  0  0
    0.8680   15.4602   42.5956 C   0  0  0  0  0  0  0  0  0  0  0  0
    1.8638   14.5347   42.7899 C   0  0  0  0  0  0  0  0  0  0  0  0
    1.5754   13.2599   43.2323 C   0  0  0  0  0  0  0  0  0  0  0  0
    0.2807   12.8667   43.4942 C   0  0  0  0  0  0  0  0  0  0  0  0
   -0.7487   13.7944   43.3002 C   0  0  0  0  0  0  0  0  0  0  0  0
   -0.4299   15.0599   42.8597 C   0  0  0  0  0  0  0  0  0  0  0  0
    0.1312   17.7410   41.9619 C   0  0  0  0  0  0  0  0  0  0  0  0
    3.8598   18.6890   38.6895 C   0  0  0  0  0  0  0  0  0  0  0  0
    3.7261   19.1017   37.3781 C   0  0  0  0  0  0  0  0  0  0  0  0
    3.6850   19.3027   41.0818 N   0  0  0  0  0  0  0  0  0  0  0  0
    2.3372   17.3118   41.8483 N   0  0  0  0  0  0  0  0  0  0  0  0
    3.3687   20.0281   34.6137 O   0  0  0  0  0  0  0  0  0  0  0  0
    2.8377   22.0455   35.4634 O   0  0  0  0  0  0  0  0  0  0  0  0
    3.9580   18.2315   36.3171 O   0  0  0  0  0  0  0  0  0  0  0  0
    0.9958   19.2626   41.4047 S   0  0  0  0  0  0  0  0  0  0  0  0
   -0.1417   11.2599   44.0557 Cl  0  0  0  0  0  0  0  0  0  0  0  0
    2.8287   22.3492   37.8969 H   0  0  0  0  0  0  0  0  0  0  0  0
    3.0545   21.6354   40.2178 H   0  0  0  0  0  0  0  0  0  0  0  0
    2.9063   14.8293   42.5903 H   0  0  0  0  0  0  0  0  0  0  0  0
    2.3892   12.5550   43.3873 H   0  0  0  0  0  0  0  0  0  0  0  0
   -1.7811   13.5454   43.4902 H   0  0  0  0  0  0  0  0  0  0  0  0
   -1.2188   15.7545   42.7118 H   0  0  0  0  0  0  0  0  0  0  0  0
   -0.9708   17.6971   42.0947 H   0  0  0  0  0  0  0  0  0  0  0  0
    4.1428   17.6778   38.9396 H   0  0  0  0  0  0  0  0  0  0  0  0
    4.3819   19.7215   41.7052 H   0  0  0  0  0  0  0  0  0  0  0  0
  1  2  1  0
  1 19  1  0
  1 20  2  0
  2  3  1  0
  2 16  2  0
  3  4  2  0
  4  5  1  0
  5 15  2  0
  5 17  1  0
  6 17  1  0
  6 18  2  0
  6 22  1  0
  7  8  1  0
  7 14  2  0
  7 18  1  0
  8  9  1  0
  8 13  2  0
  9 10  2  0
 10 11  1  0
 11 12  2  0
 11 23  1  0
 12 13  1  0
 14 22  1  0
 15 16  1  0
 16 21  1  0
  3 24  1  0
  4 25  1  0
  9 26  1  0
 10 27  1  0
 12 28  1  0
 13 29  1  0
 14 30  1  0
 15 31  1  0
 17 32  1  0
M  CHG  2  19  -1  21  -1
M  END
>  <mol_id>  (82) 
2026-08-24-6tgu-s0-n100-0082

>  <rmsd_to_ref>  (82) 
4.173469387758752

>  <pose_kind>  (82) 
conformer

$$$$
6tgu.A
     RDKit          3D

 32 34  0  0  0  0  0  0  0  0999 V2000
    3.0319   20.2425   37.6712 C   0  0  0  0  0  0  0  0  0  0  0  0
    2.4677   18.9631   38.2949 C   0  0  0  0  0  0  0  0  0  0  0  0
    2.5267   17.7543   37.6050 C   0  0  0  0  0  0  0  0  0  0  0  0
    2.1982   16.5372   38.2111 C   0  0  0  0  0  0  0  0  0  0  0  0
    1.6272   16.5199   39.4919 C   0  0  0  0  0  0  0  0  0  0  0  0
    1.2455   14.9781   41.4768 C   0  0  0  0  0  0  0  0  0  0  0  0
    1.1342   15.3459   43.7192 C   0  0  0  0  0  0  0  0  0  0  0  0
    1.0524   16.1677   44.9271 C   0  0  0  0  0  0  0  0  0  0  0  0
    1.1229   15.6101   46.2116 C   0  0  0  0  0  0  0  0  0  0  0  0
    1.0769   16.4135   47.3467 C   0  0  0  0  0  0  0  0  0  0  0  0
    1.0043   17.7844   47.1862 C   0  0  0  0  0  0  0  0  0  0  0  0
    0.9383   18.3781   45.9347 C   0  0  0  0  0  0  0  0  0  0  0  0
    0.9741   17.5564   44.8115 C   0  0  0  0  0  0  0  0  0  0  0  0
    1.2661   13.9824   43.7281 C   0  0  0  0  0  0  0  0  0  0  0  0
    1.5708   17.7264   40.2042 C   0  0  0  0  0  0  0  0  0  0  0  0
    1.9818   18.9139   39.5961 C   0  0  0  0  0  0  0  0  0  0  0  0
    1.3456   15.2835   40.1500 N   0  0  0  0  0  0  0  0  0  0  0  0
    1.2116   15.9581   42.4459 N   0  0  0  0  0  0  0  0  0  0  0  0
    3.6881   20.1056   36.5970 O   0  0  0  0  0  0  0  0  0  0  0  0
    2.8697   21.3045   38.3112 O   0  0  0  0  0  0  0  0  0  0  0  0
    2.0206   20.0714   40.3366 O   0  0  0  0  0  0  0  0  0  0  0  0
    1.5233   13.3774   42.1358 S   0  0  0  0  0  0  0  0  0  0  0  0
    0.9876   18.8001   48.5898 Cl  0  0  0  0  0  0  0  0  0  0  0  0
    2.8414   17.7570   36.5510 H   0  0  0  0  0  0  0  0  0  0  0  0
    2.3881   15.5917   37.6820 H   0  0  0  0  0  0  0  0  0  0  0  0
    1.2161   14.5198   46.3239 H   0  0  0  0  0  0  0  0  0  0  0  0
    1.0980   15.9667   48.3516 H   0  0  0  0  0  0  0  0  0  0  0  0
    0.8596   19.4705   45.8321 H   0  0  0  0  0  0  0  0  0  0  0  0
    0.9401   18.0118   43.8108 H   0  0  0  0  0  0  0  0  0  0  0  0
    1.2146   13.3572   44.6316 H   0  0  0  0  0  0  0  0  0  0  0  0
    1.2030   17.7371   41.2409 H   0  0  0  0  0  0  0  0  0  0  0  0
    1.1920   14.4869   39.5154 H   0  0  0  0  0  0  0  0  0  0  0  0
  1  2  1  0
  1 19  1  0
  1 20  2  0
  2  3  1  0
  2 16  2  0
  3  4  2  0
  4  5  1  0
  5 15  2  0
  5 17  1  0
  6 17  1  0
  6 18  2  0
  6 22  1  0
  7  8  1  0
  7 14  2  0
  7 18  1  0
  8  9  1  0
  8 13  2  0
  9 10  2  0
 10 11  1  0
 11 12  2  0
 11 23  1  0
 12 13  1  0
 14 22  1  0
 15 16  1  0
 16 21  1  0
  3 24  1  0
  4 25  1  0
  9 26  1  0
 10 27  1  0
 12 28  1  0
 13 29  1  0
 14 30  1  0
 15 31  1  0
 17 32  1  0
M  CHG  2  19  -1  21  -1
M  END
>  <mol_id>  (83) 
2026-08-24-6tgu-s0-n100-0083

>  <rmsd_to_ref>  (83) 
4.219387755105593

>  <pose_kind>  (83) 
rigid

$$$$
6tgu.A
     RDKit          3D

 32 34  0  0  0  0  0  0  0  0999 V2000
    5.3955   18.7882   37.4548 C   0  0  0  0  0  0  0  0  0  0  0  0
    4.2581   19.0913   38.3153 C   0  0  0  0  0  0  0  0  0  0  0  0
    3.1032   19.5337   37.7541 C   0  0  0  0  0  0  0  0  0  0  0  0
    2.0088   19.7976   38.5374 C   0  0  0  0  0  0  0  0  0  0  0  0
    2.1271   19.5995   39.9015 C   0  0  0  0  0  0  0  0  0  0  0  0
    0.3425   18.6935   41.2547 C   0  0  0  0  0  0  0  0  0  0  0  0
   -0.5258   16.8437   42.2000 C   0  0  0  0  0  0  0  0  0  0  0  0
   -0.8123   16.1171   43.4608 C   0  0  0  0  0  0  0  0  0  0  0  0
   -0.4760   16.6114   44.6972 C   0  0  0  0  0  0  0  0  0  0  0  0
   -0.7629   15.9068   45.8484 C   0  0  0  0  0  0  0  0  0  0  0  0
   -1.3950   14.6830   45.8023 C   0  0  0  0  0  0  0  0  0  0  0  0
   -1.7442   14.1611   44.5519 C   0  0  0  0  0  0  0  0  0  0  0  0
   -1.4465   14.8880   43.4205 C   0  0  0  0  0  0  0  0  0  0  0  0
   -0.8891   16.3387   40.9927 C   0  0  0  0  0  0  0  0  0  0  0  0
    3.2765   19.1544   40.5130 C   0  0  0  0  0  0  0  0  0  0  0  0
    4.3615   18.8964   39.6982 C   0  0  0  0  0  0  0  0  0  0  0  0
    0.9105   19.8721   40.6458 N   0  0  0  0  0  0  0  0  0  0  0  0
    0.0740   18.0184   42.1397 N   0  0  0  0  0  0  0  0  0  0  0  0
    6.6121   18.3125   37.9032 O   0  0  0  0  0  0  0  0  0  0  0  0
    5.2921   18.9632   36.1980 O   0  0  0  0  0  0  0  0  0  0  0  0
    5.5697   18.4453   40.2210 O   0  0  0  0  0  0  0  0  0  0  0  0
   -0.3347   17.6203   39.7994 S   0  0  0  0  0  0  0  0  0  0  0  0
   -1.7813   13.7454   47.2331 Cl  0  0  0  0  0  0  0  0  0  0  0  0
    3.0012   19.6961   36.6763 H   0  0  0  0  0  0  0  0  0  0  0  0
    1.0741   20.1507   38.1000 H   0  0  0  0  0  0  0  0  0  0  0  0
    0.0267   17.5897   44.7572 H   0  0  0  0  0  0  0  0  0  0  0  0
   -0.4934   16.3326   46.8124 H   0  0  0  0  0  0  0  0  0  0  0  0
   -2.2423   13.2092   44.4526 H   0  0  0  0  0  0  0  0  0  0  0  0
   -1.7119   14.4809   42.4768 H   0  0  0  0  0  0  0  0  0  0  0  0
   -1.3951   15.4040   40.6702 H   0  0  0  0  0  0  0  0  0  0  0  0
    3.3233   19.0110   41.5817 H   0  0  0  0  0  0  0  0  0  0  0  0
    0.5127   20.8131   40.7238 H   0  0  0  0  0  0  0  0  0  0  0  0
  1  2  1  0
  1 19  1  0
  1 20  2  0
  2  3  1  0
  2 16  2  0
  3  4  2  0
  4  5  1  0
  5 15  2  0
  5 17  1  0
  6 17  1  0
  6 18  2  0
  6 22  1  0
  7  8  1  0
  7 14  2  0
  7 18  1  0
  8  9  1  0
  8 13  2  0
  9 10  2  0
 10 11  1  0
 11 12  2  0
 11 23  1  0
 12 13  1  0
 14 22  1  0
 15 16  1  0
 16 21  1  0
  3 24  1  0
  4 25  1  0
  9 26  1  0
 10 27  1  0
 12 28  1  0
 13 29  1  0
 14 30  1  0
 15 31  1  0
 17 32  1  0
M  CHG  2  19  -1  21  -1
M  END
>  <mol_id>  (84) 
2026-08-24-6tgu-s0-n100-0084

>  <rmsd_to_ref>  (84) 
4.265306122454264

>  <pose_kind>  (84) 
conformer

$$$$
6tgu.A
     RDKit          3D

 32 34  0  0  0  0  0  0  0  0999 V2000
   -3.6560   19.9390   39.1960 C   0  0  0  0  0  0  0  0  0  0  0  0
   -2.7982   19.6632   40.4341 C   0  0  0  0  0  0  0  0  0  0  0  0
   -3.1375   20.2161   41.6669 C   0  0  0  0  0  0  0  0  0  0  0  0
   -2.4956   19.8390   42.8511 C   0  0  0  0  0  0  0  0  0  0  0  0
   -1.3628   19.0135   42.8058 C   0  0  0  0  0  0  0  0  0  0  0  0
    0.0263   17.4637   44.2658 C   0  0  0  0  0  0  0  0  0  0  0  0
    1.2219   15.5805   43.8185 C   0  0  0  0  0  0  0  0  0  0  0  0
    1.8563   14.5851   42.9538 C   0  0  0  0  0  0  0  0  0  0  0  0
    2.4601   13.4294   43.4695 C   0  0  0  0  0  0  0  0  0  0  0  0
    3.0281   12.4790   42.6268 C   0  0  0  0  0  0  0  0  0  0  0  0
    2.9484   12.6720   41.2605 C   0  0  0  0  0  0  0  0  0  0  0  0
    2.3556   13.7971   40.7078 C   0  0  0  0  0  0  0  0  0  0  0  0
    1.8030   14.7422   41.5680 C   0  0  0  0  0  0  0  0  0  0  0  0
    1.1745   15.4894   45.1845 C   0  0  0  0  0  0  0  0  0  0  0  0
   -1.0146   18.4399   41.5746 C   0  0  0  0  0  0  0  0  0  0  0  0
   -1.7276   18.7773   40.4227 C   0  0  0  0  0  0  0  0  0  0  0  0
   -0.7348   18.5676   44.0091 N   0  0  0  0  0  0  0  0  0  0  0  0
    0.4930   16.6534   43.2528 N   0  0  0  0  0  0  0  0  0  0  0  0
   -4.7527   20.5409   39.3910 O   0  0  0  0  0  0  0  0  0  0  0  0
   -3.2456   19.4789   38.1080 O   0  0  0  0  0  0  0  0  0  0  0  0
   -1.4456   18.1311   39.2427 O   0  0  0  0  0  0  0  0  0  0  0  0
    0.1868   16.7334   45.8514 S   0  0  0  0  0  0  0  0  0  0  0  0
    3.6150   11.4770   40.1977 Cl  0  0  0  0  0  0  0  0  0  0  0  0
   -3.9348   20.9727   41.7105 H   0  0  0  0  0  0  0  0  0  0  0  0
   -2.8802   20.1906   43.8198 H   0  0  0  0  0  0  0  0  0  0  0  0
    2.4852   13.2716   44.5578 H   0  0  0  0  0  0  0  0  0  0  0  0
    3.5304   11.5918   43.0398 H   0  0  0  0  0  0  0  0  0  0  0  0
    2.3227   13.9394   39.6176 H   0  0  0  0  0  0  0  0  0  0  0  0
    1.3137   15.6324   41.1460 H   0  0  0  0  0  0  0  0  0  0  0  0
    1.6974   14.7240   45.7765 H   0  0  0  0  0  0  0  0  0  0  0  0
   -0.1806   17.7249   41.5165 H   0  0  0  0  0  0  0  0  0  0  0  0
   -0.8812   19.1839   44.8213 H   0  0  0  0  0  0  0  0  0  0  0  0
  1  2  1  0
  1 19  1  0
  1 20  2  0
  2  3  1  0
  2 16  2  0
  3  4  2  0
  4  5  1  0
  5 15  2  0
  5 17  1  0
  6 17  1  0
  6 18  2  0
  6 22  1  0
  7  8  1  0
  7 14  2  0
  7 18  1  0
  8  9  1  0
  8 13  2  0
  9 10  2  0
 10 11  1  0
 11 12  2  0
 11 23  1  0
 12 13  1  0
 14 22  1  0
 15 16  1  0
 16 21  1  0
  3 24  1  0
  4 25  1  0
  9 26  1  0
 10 27  1  0
 12 28  1  0
 13 29  1  0
 14 30  1  0
 15 31  1  0
 17 32  1  0
M  CHG  2  19  -1  21  -1
M  END
>  <mol_id>  (85) 
2026-08-24-6tgu-s0-n100-0085

>  <rmsd_to_ref>  (85) 
4.311224489803983

>  <pose_kind>  (85) 
rigid

$$$$
6tgu.A
     RDKit          3D

 32 34  0  0  0  0  0  0  0  0999 V2000
    3.9551   19.7101   37.3405 C   0  0  0  0  0  0  0  0  0  0  0  0
    3.0560   19.6349   38.4859 C   0  0  0  0  0  0  0  0  0  0  0  0
    1.8110   20.1684   38.3861 C   0  0  0  0  0  0  0  0  0  0  0  0
    0.9350   20.0850   39.4378 C   0  0  0  0  0  0  0  0  0  0  0  0
    1.3643   19.4465   40.5877 C   0  0  0  0  0  0  0  0  0  0  0  0
   -0.0732   18.0296   41.9153 C   0  0  0  0  0  0  0  0  0  0  0  0
   -0.7337   15.9196   42.3413 C   0  0  0  0  0  0  0  0  0  0  0  0
   -0.7326   14.7946   43.3076 C   0  0  0  0  0  0  0  0  0  0  0  0
   -0.1074   14.8630   44.5286 C   0  0  0  0  0  0  0  0  0  0  0  0
   -0.1318   13.7956   45.4026 C   0  0  0  0  0  0  0  0  0  0  0  0
   -0.7815   12.6224   45.0848 C   0  0  0  0  0  0  0  0  0  0  0  0
   -1.4229   12.5318   43.8446 C   0  0  0  0  0  0  0  0  0  0  0  0
   -1.3830   13.6143   42.9938 C   0  0  0  0  0  0  0  0  0  0  0  0
   -1.3784   15.8295   41.1494 C   0  0  0  0  0  0  0  0  0  0  0  0
    2.6154   18.8933   40.7339 C   0  0  0  0  0  0  0  0  0  0  0  0
    3.4751   18.9923   39.6574 C   0  0  0  0  0  0  0  0  0  0  0  0
    0.3604   19.3769   41.6346 N   0  0  0  0  0  0  0  0  0  0  0  0
   -0.1412   17.0805   42.5525 N   0  0  0  0  0  0  0  0  0  0  0  0
    5.2331   19.1870   37.3121 O   0  0  0  0  0  0  0  0  0  0  0  0
    3.5649   20.2917   36.2772 O   0  0  0  0  0  0  0  0  0  0  0  0
    4.7628   18.4667   39.7072 O   0  0  0  0  0  0  0  0  0  0  0  0
   -1.0923   17.4697   40.3739 S   0  0  0  0  0  0  0  0  0  0  0  0
   -0.8420   11.2356   46.1566 Cl  0  0  0  0  0  0  0  0  0  0  0  0
    1.4637   20.6778   37.4815 H   0  0  0  0  0  0  0  0  0  0  0  0
   -0.0687   20.5066   39.3707 H   0  0  0  0  0  0  0  0  0  0  0  0
    0.4147   15.7931   44.8042 H   0  0  0  0  0  0  0  0  0  0  0  0
    0.3634   13.8875   46.3666 H   0  0  0  0  0  0  0  0  0  0  0  0
   -1.9493   11.6403   43.5409 H   0  0  0  0  0  0  0  0  0  0  0  0
   -1.8692   13.5333   42.0538 H   0  0  0  0  0  0  0  0  0  0  0  0
   -1.9641   15.0287   40.6498 H   0  0  0  0  0  0  0  0  0  0  0  0
    2.9074   18.4013   41.6492 H   0  0  0  0  0  0  0  0  0  0  0  0
    0.0105   20.2103   42.1173 H   0  0  0  0  0  0  0  0  0  0  0  0
  1  2  1  0
  1 19  1  0
  1 20  2  0
  2  3  1  0
  2 16  2  0
  3  4  2  0
  4  5  1  0
  5 15  2  0
  5 17  1  0
  6 17  1  0
  6 18  2  0
  6 22  1  0
  7  8  1  0
  7 14  2  0
  7 18  1  0
  8  9  1  0
  8 13  2  0
  9 10  2  0
 10 11  1  0
 11 12  2  0
 11 23  1  0
 12 13  1  0
 14 22  1  0
 15 16  1  0
 16 21  1  0
  3 24  1  0
  4 25  1  0
  9 26  1  0
 10 27  1  0
 12 28  1  0
 13 29  1  0
 14 30  1  0
 15 31  1  0
 17 32  1  0
M  CHG  2  19  -1  21  -1
M  END
>  <mol_id>  (86) 
2026-08-24-6tgu-s0-n100-0086

>  <rmsd_to_ref>  (86) 
4.357142857149978

>  <pose_kind>  (86) 
conformer

$$$$
6tgu.A
     RDKit          3D

 32 34  0  0  0  0  0  0  0  0999 V2000
    1.9896   21.9556   36.5536 C   0  0  0  0  0  0  0  0  0  0  0  0
    1.9481   20.9715   37.7259 C   0  0  0  0  0  0  0  0  0  0  0  0
    0.8515   20.9401   38.5846 C   0  0  0  0  0  0  0  0  0  0  0  0
    0.6896   19.9362   39.5450 C   0  0  0  0  0  0  0  0  0  0  0  0
    1.7248   19.0223   39.7896 C   0  0  0  0  0  0  0  0  0  0  0  0
    2.1545   16.7312   40.8043 C   0  0  0  0  0  0  0  0  0  0  0  0
    3.6418   15.0804   40.3163 C   0  0  0  0  0  0  0  0  0  0  0  0
    4.8115   14.5001   39.6558 C   0  0  0  0  0  0  0  0  0  0  0  0
    5.1429   13.1440   39.7874 C   0  0  0  0  0  0  0  0  0  0  0  0
    6.2406   12.6055   39.1233 C   0  0  0  0  0  0  0  0  0  0  0  0
    6.9795   13.4247   38.2907 C   0  0  0  0  0  0  0  0  0  0  0  0
    6.6836   14.7697   38.1270 C   0  0  0  0  0  0  0  0  0  0  0  0
    5.5881   15.2924   38.8088 C   0  0  0  0  0  0  0  0  0  0  0  0
    2.7888   14.3741   41.1226 C   0  0  0  0  0  0  0  0  0  0  0  0
    2.8305   19.0332   38.9273 C   0  0  0  0  0  0  0  0  0  0  0  0
    2.9233   20.0018   37.9263 C   0  0  0  0  0  0  0  0  0  0  0  0
    1.5508   17.9528   40.7209 N   0  0  0  0  0  0  0  0  0  0  0  0
    3.2556   16.4129   40.0383 N   0  0  0  0  0  0  0  0  0  0  0  0
    0.9252   22.5997   36.3187 O   0  0  0  0  0  0  0  0  0  0  0  0
    3.0398   21.9853   35.8753 O   0  0  0  0  0  0  0  0  0  0  0  0
    3.9572   19.9393   37.0223 O   0  0  0  0  0  0  0  0  0  0  0  0
    1.4262   15.3304   41.5663 S   0  0  0  0  0  0  0  0  0  0  0  0
    8.3245   12.7586   37.4254 Cl  0  0  0  0  0  0  0  0  0  0  0  0
    0.0894   21.7294   38.5048 H   0  0  0  0  0  0  0  0  0  0  0  0
   -0.2516   19.8635   40.1095 H   0  0  0  0  0  0  0  0  0  0  0  0
    4.5251   12.4954   40.4259 H   0  0  0  0  0  0  0  0  0  0  0  0
    6.5150   11.5489   39.2583 H   0  0  0  0  0  0  0  0  0  0  0  0
    7.2988   15.4073   37.4751 H   0  0  0  0  0  0  0  0  0  0  0  0
    5.3289   16.3533   38.6772 H   0  0  0  0  0  0  0  0  0  0  0  0
    2.9521   13.3348   41.4439 H   0  0  0  0  0  0  0  0  0  0  0  0
    3.6238   18.2794   39.0396 H   0  0  0  0  0  0  0  0  0  0  0  0
    0.8507   18.1345   41.4542 H   0  0  0  0  0  0  0  0  0  0  0  0
  1  2  1  0
  1 19  1  0
  1 20  2  0
  2  3  1  0
  2 16  2  0
  3  4  2  0
  4  5  1  0
  5 15  2  0
  5 17  1  0
  6 17  1  0
  6 18  2  0
  6 22  1  0
  7  8  1  0
  7 14  2  0
  7 18  1  0
  8  9  1  0
  8 13  2  0
  9 10  2  0
 10 11  1  0
 11 12  2  0
 11 23  1  0
 12 13  1  0
 14 22  1  0
 15 16  1  0
 16 21  1  0
  3 24  1  0
  4 25  1  0
  9 26  1  0
 10 27  1  0
 12 28  1  0
 13 29  1  0
 14 30  1  0
 15 31  1  0
 17 32  1  0
M  CHG  2  19  -1  21  -1
M  END
>  <mol_id>  (87) 
2026-08-24-6tgu-s0-n100-0087

>  <rmsd_to_ref>  (87) 
4.403061224490392

>  <pose_kind>  (87) 
rigid

$$$$
6tgu.A
     RDKit          3D

 32 34  0  0  0  0  0  0  0  0999 V2000
    5.3290   19.0692   36.7226 C   0  0  0  0  0  0  0  0  0  0  0  0
    4.5911   19.0047   37.9786 C   0  0  0  0  0  0  0  0  0  0  0  0
    3.7742   20.0346   38.3200 C   0  0  0  0  0  0  0  0  0  0  0  0
    3.0460   19.9858   39.4810 C   0  0  0  0  0  0  0  0  0  0  0  0
    3.1758   18.8633   40.2791 C   0  0  0  0  0  0  0  0  0  0  0  0
    1.3161   17.8718   41.4601 C   0  0  0  0  0  0  0  0  0  0  0  0
   -0.2780   16.2819   41.4294 C   0  0  0  0  0  0  0  0  0  0  0  0
   -0.7731   15.0154   42.0213 C   0  0  0  0  0  0  0  0  0  0  0  0
   -0.1168   14.3613   43.0350 C   0  0  0  0  0  0  0  0  0  0  0  0
   -0.6113   13.1861   43.5624 C   0  0  0  0  0  0  0  0  0  0  0  0
   -1.7790   12.6240   43.0931 C   0  0  0  0  0  0  0  0  0  0  0  0
   -2.4617   13.2740   42.0591 C   0  0  0  0  0  0  0  0  0  0  0  0
   -1.9445   14.4465   41.5538 C   0  0  0  0  0  0  0  0  0  0  0  0
   -0.9600   16.9168   40.4414 C   0  0  0  0  0  0  0  0  0  0  0  0
    3.9913   17.7980   39.9740 C   0  0  0  0  0  0  0  0  0  0  0  0
    4.7115   17.8755   38.7980 C   0  0  0  0  0  0  0  0  0  0  0  0
    2.3436   18.8849   41.4688 N   0  0  0  0  0  0  0  0  0  0  0  0
    0.8268   16.8971   41.8091 N   0  0  0  0  0  0  0  0  0  0  0  0
    6.1709   18.0785   36.2569 O   0  0  0  0  0  0  0  0  0  0  0  0
    5.2103   20.0970   35.9806 O   0  0  0  0  0  0  0  0  0  0  0  0
    5.5659   16.8506   38.4023 O   0  0  0  0  0  0  0  0  0  0  0  0
    0.0528   18.4111   40.1030 S   0  0  0  0  0  0  0  0  0  0  0  0
   -2.4506   11.1326   43.7254 Cl  0  0  0  0  0  0  0  0  0  0  0  0
    3.6674   20.9278   37.6963 H   0  0  0  0  0  0  0  0  0  0  0  0
    2.3841   20.8045   39.7663 H   0  0  0  0  0  0  0  0  0  0  0  0
    0.8166   14.7953   43.4276 H   0  0  0  0  0  0  0  0  0  0  0  0
   -0.0729   12.7000   44.3729 H   0  0  0  0  0  0  0  0  0  0  0  0
   -3.3813   12.8834   41.6519 H   0  0  0  0  0  0  0  0  0  0  0  0
   -2.4681   14.9290   40.7667 H   0  0  0  0  0  0  0  0  0  0  0  0
   -1.8989   16.6965   39.8901 H   0  0  0  0  0  0  0  0  0  0  0  0
    4.0597   16.9400   40.6253 H   0  0  0  0  0  0  0  0  0  0  0  0
    2.4889   19.5558   42.2294 H   0  0  0  0  0  0  0  0  0  0  0  0
  1  2  1  0
  1 19  1  0
  1 20  2  0
  2  3  1  0
  2 16  2  0
  3  4  2  0
  4  5  1  0
  5 15  2  0
  5 17  1  0
  6 17  1  0
  6 18  2  0
  6 22  1  0
  7  8  1  0
  7 14  2  0
  7 18  1  0
  8  9  1  0
  8 13  2  0
  9 10  2  0
 10 11  1  0
 11 12  2  0
 11 23  1  0
 12 13  1  0
 14 22  1  0
 15 16  1  0
 16 21  1  0
  3 24  1  0
  4 25  1  0
  9 26  1  0
 10 27  1  0
 12 28  1  0
 13 29  1  0
 14 30  1  0
 15 31  1  0
 17 32  1  0
M  CHG  2  19  -1  21  -1
M  END
>  <mol_id>  (88) 
2026-08-24-6tgu-s0-n100-0088

>  <rmsd_to_ref>  (88) 
4.448979591844027

>  <pose_kind>  (88) 
conformer

$$$$
6tgu.A
     RDKit          3D

 32 34  0  0  0  0  0  0  0  0999 V2000
    1.9429   21.0896   36.2443 C   0  0  0  0  0  0  0  0  0  0  0  0
    1.3045   20.4005   37.4535 C   0  0  0  0  0  0  0  0  0  0  0  0
   -0.0803   20.2852   37.5522 C   0  0  0  0  0  0  0  0  0  0  0  0
   -0.6913   19.5023   38.5373 C   0  0  0  0  0  0  0  0  0  0  0  0
    0.0762   18.9457   39.5708 C   0  0  0  0  0  0  0  0  0  0  0  0
    0.0138   17.1034   41.3216 C   0  0  0  0  0  0  0  0  0  0  0  0
    1.6316   15.8044   42.2549 C   0  0  0  0  0  0  0  0  0  0  0  0
    3.0084   15.4022   42.5442 C   0  0  0  0  0  0  0  0  0  0  0  0
    3.3068   14.2302   43.2538 C   0  0  0  0  0  0  0  0  0  0  0  0
    4.6242   13.8490   43.4888 C   0  0  0  0  0  0  0  0  0  0  0  0
    5.6423   14.6266   42.9700 C   0  0  0  0  0  0  0  0  0  0  0  0
    5.3921   15.7899   42.2579 C   0  0  0  0  0  0  0  0  0  0  0  0
    4.0675   16.1605   42.0430 C   0  0  0  0  0  0  0  0  0  0  0  0
    0.5276   15.0997   42.6562 C   0  0  0  0  0  0  0  0  0  0  0  0
    1.4720   19.0432   39.4805 C   0  0  0  0  0  0  0  0  0  0  0  0
    2.0535   19.7669   38.4378 C   0  0  0  0  0  0  0  0  0  0  0  0
   -0.5224   18.0916   40.5473 N   0  0  0  0  0  0  0  0  0  0  0  0
    1.3760   16.9093   41.4087 N   0  0  0  0  0  0  0  0  0  0  0  0
    1.1673   21.3861   35.2884 O   0  0  0  0  0  0  0  0  0  0  0  0
    3.1853   21.2307   36.2627 O   0  0  0  0  0  0  0  0  0  0  0  0
    3.4213   19.7684   38.2999 O   0  0  0  0  0  0  0  0  0  0  0  0
   -0.9088   15.7635   41.9748 S   0  0  0  0  0  0  0  0  0  0  0  0
    7.2869   14.1425   43.2195 Cl  0  0  0  0  0  0  0  0  0  0  0  0
   -0.7129   20.8264   36.8334 H   0  0  0  0  0  0  0  0  0  0  0  0
   -1.7759   19.3229   38.5014 H   0  0  0  0  0  0  0  0  0  0  0  0
    2.4863   13.6020   43.6307 H   0  0  0  0  0  0  0  0  0  0  0  0
    4.8509   12.9466   44.0757 H   0  0  0  0  0  0  0  0  0  0  0  0
    6.2192   16.4042   41.8726 H   0  0  0  0  0  0  0  0  0  0  0  0
    3.8507   17.0713   41.4655 H   0  0  0  0  0  0  0  0  0  0  0  0
    0.5545   14.2265   43.3246 H   0  0  0  0  0  0  0  0  0  0  0  0
    2.1081   18.5501   40.2303 H   0  0  0  0  0  0  0  0  0  0  0  0
   -1.5302   18.2483   40.6916 H   0  0  0  0  0  0  0  0  0  0  0  0
  1  2  1  0
  1 19  1  0
  1 20  2  0
  2  3  1  0
  2 16  2  0
  3  4  2  0
  4  5  1  0
  5 15  2  0
  5 17  1  0
  6 17  1  0
  6 18  2  0
  6 22  1  0
  7  8  1  0
  7 14  2  0
  7 18  1  0
  8  9  1  0
  8 13  2  0
  9 10  2  0
 10 11  1  0
 11 12  2  0
 11 23  1  0
 12 13  1  0
 14 22  1  0
 15 16  1  0
 16 21  1  0
  3 24  1  0
  4 25  1  0
  9 26  1  0
 10 27  1  0
 12 28  1  0
 13 29  1  0
 14 30  1  0
 15 31  1  0
 17 32  1  0
M  CHG  2  19  -1  21  -1
M  END
>  <mol_id>  (89) 
2026-08-24-6tgu-s0-n100-0089

>  <rmsd_to_ref>  (89) 
4.494897959186659

>  <pose_kind>  (89) 
rigid

$$$$
6tgu.A
     RDKit          3D

 32 34  0  0  0  0  0  0  0  0999 V2000
    0.8361   20.2888   37.4845 C   0  0  0  0  0  0  0  0  0  0  0  0
    0.8713   19.5789   38.7577 C   0  0  0  0  0  0  0  0  0  0  0  0
   -0.2412   18.9257   39.1822 C   0  0  0  0  0  0  0  0  0  0  0  0
   -0.2261   18.2254   40.3612 C   0  0  0  0  0  0  0  0  0  0  0  0
    0.9495   18.2124   41.0904 C   0  0  0  0  0  0  0  0  0  0  0  0
    1.7379   16.2584   42.2723 C   0  0  0  0  0  0  0  0  0  0  0  0
    3.0821   14.4534   42.2030 C   0  0  0  0  0  0  0  0  0  0  0  0
    4.2993   13.7965   42.7381 C   0  0  0  0  0  0  0  0  0  0  0  0
    5.0992   14.3764   43.6922 C   0  0  0  0  0  0  0  0  0  0  0  0
    6.2224   13.7316   44.1681 C   0  0  0  0  0  0  0  0  0  0  0  0
    6.5847   12.4849   43.7053 C   0  0  0  0  0  0  0  0  0  0  0  0
    5.7840   11.8781   42.7316 C   0  0  0  0  0  0  0  0  0  0  0  0
    4.6680   12.5453   42.2769 C   0  0  0  0  0  0  0  0  0  0  0  0
    2.2991   13.8460   41.2744 C   0  0  0  0  0  0  0  0  0  0  0  0
    2.0990   18.8600   40.7002 C   0  0  0  0  0  0  0  0  0  0  0  0
    2.0534   19.5561   39.5080 C   0  0  0  0  0  0  0  0  0  0  0  0
    0.8824   17.4199   42.3053 N   0  0  0  0  0  0  0  0  0  0  0  0
    2.6530   15.6434   42.5813 N   0  0  0  0  0  0  0  0  0  0  0  0
    1.9060   20.9694   36.9372 O   0  0  0  0  0  0  0  0  0  0  0  0
   -0.2410   20.3007   36.8056 O   0  0  0  0  0  0  0  0  0  0  0  0
    3.1629   20.2459   39.0285 O   0  0  0  0  0  0  0  0  0  0  0  0
    0.9450   15.0535   40.9885 S   0  0  0  0  0  0  0  0  0  0  0  0
    8.0018   11.6223   44.2738 Cl  0  0  0  0  0  0  0  0  0  0  0  0
   -1.1765   18.9329   38.6134 H   0  0  0  0  0  0  0  0  0  0  0  0
   -1.1114   17.6941   40.7129 H   0  0  0  0  0  0  0  0  0  0  0  0
    4.8257   15.3710   44.0787 H   0  0  0  0  0  0  0  0  0  0  0  0
    6.8276   14.2140   44.9325 H   0  0  0  0  0  0  0  0  0  0  0  0
    6.0157   10.9027   42.3326 H   0  0  0  0  0  0  0  0  0  0  0  0
    4.0699   12.0776   41.5352 H   0  0  0  0  0  0  0  0  0  0  0  0
    2.3510   12.8726   40.7417 H   0  0  0  0  0  0  0  0  0  0  0  0
    2.9958   18.8205   41.2997 H   0  0  0  0  0  0  0  0  0  0  0  0
    0.2856   17.6774   43.0974 H   0  0  0  0  0  0  0  0  0  0  0  0
  1  2  1  0
  1 19  1  0
  1 20  2  0
  2  3  1  0
  2 16  2  0
  3  4  2  0
  4  5  1  0
  5 15  2  0
  5 17  1  0
  6 17  1  0
  6 18  2  0
  6 22  1  0
  7  8  1  0
  7 14  2  0
  7 18  1  0
  8  9  1  0
  8 13  2  0
  9 10  2  0
 10 11  1  0
 11 12  2  0
 11 23  1  0
 12 13  1  0
 14 22  1  0
 15 16  1  0
 16 21  1  0
  3 24  1  0
  4 25  1  0
  9 26  1  0
 10 27  1  0
 12 28  1  0
 13 29  1  0
 14 30  1  0
 15 31  1  0
 17 32  1  0
M  CHG  2  19  -1  21  -1
M  END
>  <mol_id>  (90) 
2026-08-24-6tgu-s0-n100-0090

>  <rmsd_to_ref>  (90) 
4.54081632653644

>  <pose_kind>  (90) 
conformer

$$$$
6tgu.A
     RDKit          3D

 32 34  0  0  0  0  0  0  0  0999 V2000
    4.9261   17.6821   35.0553 C   0  0  0  0  0  0  0  0  0  0  0  0
    4.5926   17.6298   36.5488 C   0  0  0  0  0  0  0  0  0  0  0  0
    5.1154   18.5793   37.4240 C   0  0  0  0  0  0  0  0  0  0  0  0
    4.6872   18.6799   38.7518 C   0  0  0  0  0  0  0  0  0  0  0  0
    3.8370   17.7048   39.2932 C   0  0  0  0  0  0  0  0  0  0  0  0
    2.2109   17.3294   41.2111 C   0  0  0  0  0  0  0  0  0  0  0  0
    0.3148   16.0879   41.4075 C   0  0  0  0  0  0  0  0  0  0  0  0
   -0.6686   15.0903   40.9843 C   0  0  0  0  0  0  0  0  0  0  0  0
   -1.8533   14.8646   41.6995 C   0  0  0  0  0  0  0  0  0  0  0  0
   -2.7908   13.9346   41.2606 C   0  0  0  0  0  0  0  0  0  0  0  0
   -2.5544   13.2631   40.0758 C   0  0  0  0  0  0  0  0  0  0  0  0
   -1.3991   13.4598   39.3344 C   0  0  0  0  0  0  0  0  0  0  0  0
   -0.4681   14.3862   39.7960 C   0  0  0  0  0  0  0  0  0  0  0  0
    0.1831   16.8657   42.5273 C   0  0  0  0  0  0  0  0  0  0  0  0
    3.2931   16.7487   38.4235 C   0  0  0  0  0  0  0  0  0  0  0  0
    3.6823   16.7256   37.0830 C   0  0  0  0  0  0  0  0  0  0  0  0
    3.3399   17.8276   40.6270 N   0  0  0  0  0  0  0  0  0  0  0  0
    1.4212   16.3922   40.5798 N   0  0  0  0  0  0  0  0  0  0  0  0
    5.5475   18.7085   34.6508 O   0  0  0  0  0  0  0  0  0  0  0  0
    4.4899   16.7507   34.3441 O   0  0  0  0  0  0  0  0  0  0  0  0
    3.0660   15.8532   36.2178 O   0  0  0  0  0  0  0  0  0  0  0  0
    1.4291   18.0530   42.6033 S   0  0  0  0  0  0  0  0  0  0  0  0
   -3.7316   12.1321   39.4958 Cl  0  0  0  0  0  0  0  0  0  0  0  0
    5.8888   19.2713   37.0595 H   0  0  0  0  0  0  0  0  0  0  0  0
    5.0180   19.5255   39.3726 H   0  0  0  0  0  0  0  0  0  0  0  0
   -2.0449   15.4317   42.6222 H   0  0  0  0  0  0  0  0  0  0  0  0
   -3.7017   13.7378   41.8449 H   0  0  0  0  0  0  0  0  0  0  0  0
   -1.2228   12.8982   38.4052 H   0  0  0  0  0  0  0  0  0  0  0  0
    0.4459   14.5672   39.2114 H   0  0  0  0  0  0  0  0  0  0  0  0
   -0.6122   16.7481   43.2781 H   0  0  0  0  0  0  0  0  0  0  0  0
    2.5609   16.0178   38.7971 H   0  0  0  0  0  0  0  0  0  0  0  0
    3.9344   18.3873   41.2548 H   0  0  0  0  0  0  0  0  0  0  0  0
  1  2  1  0
  1 19  1  0
  1 20  2  0
  2  3  1  0
  2 16  2  0
  3  4  2  0
  4  5  1  0
  5 15  2  0
  5 17  1  0
  6 17  1  0
  6 18  2  0
  6 22  1  0
  7  8  1  0
  7 14  2  0
  7 18  1  0
  8  9  1  0
  8 13  2  0
  9 10  2  0
 10 11  1  0
 11 12  2  0
 11 23  1  0
 12 13  1  0
 14 22  1  0
 15 16  1  0
 16 21  1  0
  3 24  1  0
  4 25  1  0
  9 26  1  0
 10 27  1  0
 12 28  1  0
 13 29  1  0
 14 30  1  0
 15 31  1  0
 17 32  1  0
M  CHG  2  19  -1  21  -1
M  END
>  <mol_id>  (91) 
2026-08-24-6tgu-s0-n100-0091

>  <rmsd_to_ref>  (91) 
4.586734693881312

>  <pose_kind>  (91) 
rigid

$$$$
6tgu.A
     RDKit          3D

 32 34  0  0  0  0  0  0  0  0999 V2000
    6.8891   21.2482   37.7831 C   0  0  0  0  0  0  0  0  0  0  0  0
    5.5495   21.2330   38.3588 C   0  0  0  0  0  0  0  0  0  0  0  0
    4.5180   21.7589   37.6488 C   0  0  0  0  0  0  0  0  0  0  0  0
    3.2434   21.7305   38.1540 C   0  0  0  0  0  0  0  0  0  0  0  0
    3.0536   21.1549   39.3978 C   0  0  0  0  0  0  0  0  0  0  0  0
    1.1215   19.8089   39.9383 C   0  0  0  0  0  0  0  0  0  0  0  0
    0.2863   17.7238   40.0946 C   0  0  0  0  0  0  0  0  0  0  0  0
   -0.2033   16.6519   40.9950 C   0  0  0  0  0  0  0  0  0  0  0  0
   -0.2381   16.7861   42.3614 C   0  0  0  0  0  0  0  0  0  0  0  0
   -0.7043   15.7668   43.1659 C   0  0  0  0  0  0  0  0  0  0  0  0
   -1.1510   14.5775   42.6315 C   0  0  0  0  0  0  0  0  0  0  0  0
   -1.1218   14.4201   41.2415 C   0  0  0  0  0  0  0  0  0  0  0  0
   -0.6526   15.4558   40.4640 C   0  0  0  0  0  0  0  0  0  0  0  0
    0.2894   17.5696   38.7452 C   0  0  0  0  0  0  0  0  0  0  0  0
    4.0678   20.6117   40.1521 C   0  0  0  0  0  0  0  0  0  0  0  0
    5.3403   20.6542   39.6166 C   0  0  0  0  0  0  0  0  0  0  0  0
    1.6695   21.1400   39.8366 N   0  0  0  0  0  0  0  0  0  0  0  0
    0.7333   18.8951   40.5088 N   0  0  0  0  0  0  0  0  0  0  0  0
    8.0111   20.7258   38.3961 O   0  0  0  0  0  0  0  0  0  0  0  0
    7.0704   21.7716   36.6368 O   0  0  0  0  0  0  0  0  0  0  0  0
    6.4334   20.1336   40.3031 O   0  0  0  0  0  0  0  0  0  0  0  0
    0.9521   19.1665   38.1254 S   0  0  0  0  0  0  0  0  0  0  0  0
   -1.7514   13.2497   43.6071 Cl  0  0  0  0  0  0  0  0  0  0  0  0
    4.6592   22.2190   36.6656 H   0  0  0  0  0  0  0  0  0  0  0  0
    2.4053   22.1467   37.5938 H   0  0  0  0  0  0  0  0  0  0  0  0
    0.1108   17.7301   42.8094 H   0  0  0  0  0  0  0  0  0  0  0  0
   -0.7294   15.9105   44.2439 H   0  0  0  0  0  0  0  0  0  0  0  0
   -1.4599   13.5131   40.7651 H   0  0  0  0  0  0  0  0  0  0  0  0
   -0.6308   15.3242   39.4109 H   0  0  0  0  0  0  0  0  0  0  0  0
   -0.0048   16.7426   38.0646 H   0  0  0  0  0  0  0  0  0  0  0  0
    3.8734   20.1696   41.1175 H   0  0  0  0  0  0  0  0  0  0  0  0
    1.1517   21.9974   40.0522 H   0  0  0  0  0  0  0  0  0  0  0  0
  1  2  1  0
  1 19  1  0
  1 20  2  0
  2  3  1  0
  2 16  2  0
  3  4  2  0
  4  5  1  0
  5 15  2  0
  5 17  1  0
  6 17  1  0
  6 18  2  0
  6 22  1  0
  7  8  1  0
  7 14  2  0
  7 18  1  0
  8  9  1  0
  8 13  2  0
  9 10  2  0
 10 11  1  0
 11 12  2  0
 11 23  1  0
 12 13  1  0
 14 22  1  0
 15 16  1  0
 16 21  1  0
  3 24  1  0
  4 25  1  0
  9 26  1  0
 10 27  1  0
 12 28  1  0
 13 29  1  0
 14 30  1  0
 15 31  1  0
 17 32  1  0
M  CHG  2  19  -1  21  -1
M  END
>  <mol_id>  (92) 
2026-08-24-6tgu-s0-n100-0092

>  <rmsd_to_ref>  (92) 
4.632653061227428

>  <pose_kind>  (92) 
conformer

$$$$
6tgu.A
     RDKit          3D

 32 34  0  0  0  0  0  0  0  0999 V2000
    1.4465   20.9097   37.5808 C   0  0  0  0  0  0  0  0  0  0  0  0
    1.8810   20.2328   38.8837 C   0  0  0  0  0  0  0  0  0  0  0  0
    1.6246   20.8351   40.1134 C   0  0  0  0  0  0  0  0  0  0  0  0
    1.8327   20.1671   41.3246 C   0  0  0  0  0  0  0  0  0  0  0  0
    2.4768   18.9215   41.3401 C   0  0  0  0  0  0  0  0  0  0  0  0
    2.7834   16.8608   42.7971 C   0  0  0  0  0  0  0  0  0  0  0  0
    3.0824   14.6580   42.3136 C   0  0  0  0  0  0  0  0  0  0  0  0
    3.3448   13.5147   41.4387 C   0  0  0  0  0  0  0  0  0  0  0  0
    3.2851   12.1935   41.9044 C   0  0  0  0  0  0  0  0  0  0  0  0
    3.5050   11.1196   41.0474 C   0  0  0  0  0  0  0  0  0  0  0  0
    3.7418   11.3761   39.7100 C   0  0  0  0  0  0  0  0  0  0  0  0
    3.8038   12.6666   39.2062 C   0  0  0  0  0  0  0  0  0  0  0  0
    3.5923   13.7281   40.0818 C   0  0  0  0  0  0  0  0  0  0  0  0
    2.7784   14.5497   43.6448 C   0  0  0  0  0  0  0  0  0  0  0  0
    2.7318   18.2964   40.1111 C   0  0  0  0  0  0  0  0  0  0  0  0
    2.4380   18.9600   38.9184 C   0  0  0  0  0  0  0  0  0  0  0  0
    2.6393   18.1977   42.5611 N   0  0  0  0  0  0  0  0  0  0  0  0
    3.0034   15.9635   41.7738 N   0  0  0  0  0  0  0  0  0  0  0  0
    0.7114   21.9344   37.6944 O   0  0  0  0  0  0  0  0  0  0  0  0
    1.7830   20.3527   36.5131 O   0  0  0  0  0  0  0  0  0  0  0  0
    2.5944   18.2984   37.7235 O   0  0  0  0  0  0  0  0  0  0  0  0
    2.3457   16.0810   44.3050 S   0  0  0  0  0  0  0  0  0  0  0  0
    3.9769   10.0475   38.6232 Cl  0  0  0  0  0  0  0  0  0  0  0  0
    1.2467   21.8679   40.1325 H   0  0  0  0  0  0  0  0  0  0  0  0
    1.4905   20.6198   42.2669 H   0  0  0  0  0  0  0  0  0  0  0  0
    3.0608   12.0028   42.9642 H   0  0  0  0  0  0  0  0  0  0  0  0
    3.4908   10.0872   41.4266 H   0  0  0  0  0  0  0  0  0  0  0  0
    4.0146   12.8469   38.1418 H   0  0  0  0  0  0  0  0  0  0  0  0
    3.6208   14.7576   39.6956 H   0  0  0  0  0  0  0  0  0  0  0  0
    2.8068   13.6102   44.2161 H   0  0  0  0  0  0  0  0  0  0  0  0
    3.1627   17.2847   40.0867 H   0  0  0  0  0  0  0  0  0  0  0  0
    2.6494   18.7846   43.4076 H   0  0  0  0  0  0  0  0  0  0  0  0
  1  2  1  0
  1 19  1  0
  1 20  2  0
  2  3  1  0
  2 16  2  0
  3  4  2  0
  4  5  1  0
  5 15  2  0
  5 17  1  0
  6 17  1  0
  6 18  2  0
  6 22  1  0
  7  8  1  0
  7 14  2  0
  7 18  1  0
  8  9  1  0
  8 13  2  0
  9 10  2  0
 10 11  1  0
 11 12  2  0
 11 23  1  0
 12 13  1  0
 14 22  1  0
 15 16  1  0
 16 21  1  0
  3 24  1  0
  4 25  1  0
  9 26  1  0
 10 27  1  0
 12 28  1  0
 13 29  1  0
 14 30  1  0
 15 31  1  0
 17 32  1  0
M  CHG  2  19  -1  21  -1
M  END
>  <mol_id>  (93) 
2026-08-24-6tgu-s0-n100-0093

>  <rmsd_to_ref>  (93) 
4.678571428571433

>  <pose_kind>  (93) 
rigid

$$$$
6tgu.A
     RDKit          3D

 32 34  0  0  0  0  0  0  0  0999 V2000
    2.5690   21.0730   36.3505 C   0  0  0  0  0  0  0  0  0  0  0  0
    2.1085   19.8954   37.0767 C   0  0  0  0  0  0  0  0  0  0  0  0
    2.9273   18.8163   37.1751 C   0  0  0  0  0  0  0  0  0  0  0  0
    2.5309   17.7073   37.8777 C   0  0  0  0  0  0  0  0  0  0  0  0
    1.2818   17.7310   38.4721 C   0  0  0  0  0  0  0  0  0  0  0  0
    0.8430   16.7605   40.6405 C   0  0  0  0  0  0  0  0  0  0  0  0
    0.6590   17.1427   42.8518 C   0  0  0  0  0  0  0  0  0  0  0  0
   -0.2468   17.2090   44.0242 C   0  0  0  0  0  0  0  0  0  0  0  0
   -1.5975   16.9765   43.9351 C   0  0  0  0  0  0  0  0  0  0  0  0
   -2.4072   17.0440   45.0503 C   0  0  0  0  0  0  0  0  0  0  0  0
   -1.8940   17.3476   46.2928 C   0  0  0  0  0  0  0  0  0  0  0  0
   -0.5205   17.5900   46.4044 C   0  0  0  0  0  0  0  0  0  0  0  0
    0.2629   17.5137   45.2740 C   0  0  0  0  0  0  0  0  0  0  0  0
    1.9943   17.3576   42.9746 C   0  0  0  0  0  0  0  0  0  0  0  0
    0.4193   18.8003   38.3978 C   0  0  0  0  0  0  0  0  0  0  0  0
    0.8467   19.9029   37.6841 C   0  0  0  0  0  0  0  0  0  0  0  0
    0.9612   16.5290   39.2211 N   0  0  0  0  0  0  0  0  0  0  0  0
    0.2645   16.8606   41.6236 N   0  0  0  0  0  0  0  0  0  0  0  0
    1.8393   22.2359   36.2007 O   0  0  0  0  0  0  0  0  0  0  0  0
    3.7195   21.0602   35.8053 O   0  0  0  0  0  0  0  0  0  0  0  0
    0.0465   21.0335   37.5485 O   0  0  0  0  0  0  0  0  0  0  0  0
    2.6312   17.1326   41.2666 S   0  0  0  0  0  0  0  0  0  0  0  0
   -2.8774   17.4483   47.7413 Cl  0  0  0  0  0  0  0  0  0  0  0  0
    3.9159   18.7875   36.7057 H   0  0  0  0  0  0  0  0  0  0  0  0
    3.1791   16.8347   37.9670 H   0  0  0  0  0  0  0  0  0  0  0  0
   -2.0279   16.7284   42.9519 H   0  0  0  0  0  0  0  0  0  0  0  0
   -3.4711   16.8425   44.9466 H   0  0  0  0  0  0  0  0  0  0  0  0
   -0.0609   17.8303   47.3505 H   0  0  0  0  0  0  0  0  0  0  0  0
    1.3028   17.7036   45.3691 H   0  0  0  0  0  0  0  0  0  0  0  0
    2.6574   17.6124   43.8286 H   0  0  0  0  0  0  0  0  0  0  0  0
   -0.5460   18.7765   38.8801 H   0  0  0  0  0  0  0  0  0  0  0  0
    0.8311   15.6183   38.7700 H   0  0  0  0  0  0  0  0  0  0  0  0
  1  2  1  0
  1 19  1  0
  1 20  2  0
  2  3  1  0
  2 16  2  0
  3  4  2  0
  4  5  1  0
  5 15  2  0
  5 17  1  0
  6 17  1  0
  6 18  2  0
  6 22  1  0
  7  8  1  0
  7 14  2  0
  7 18  1  0
  8  9  1  0
  8 13  2  0
  9 10  2  0
 10 11  1  0
 11 12  2  0
 11 23  1  0
 12 13  1  0
 14 22  1  0
 15 16  1  0
 16 21  1  0
  3 24  1  0
  4 25  1  0
  9 26  1  0
 10 27  1  0
 12 28  1  0
 13 29  1  0
 14 30  1  0
 15 31  1  0
 17 32  1  0
M  CHG  2  19  -1  21  -1
M  END
>  <mol_id>  (94) 
2026-08-24-6tgu-s0-n100-0094

>  <rmsd_to_ref>  (94) 
4.724489795920653

>  <pose_kind>  (94) 
conformer

$$$$
6tgu.A
     RDKit          3D

 32 34  0  0  0  0  0  0  0  0999 V2000
    4.6004   15.4089   36.0765 C   0  0  0  0  0  0  0  0  0  0  0  0
    4.3072   16.2845   37.2979 C   0  0  0  0  0  0  0  0  0  0  0  0
    4.5713   17.6521   37.2676 C   0  0  0  0  0  0  0  0  0  0  0  0
    4.1449   18.5128   38.2843 C   0  0  0  0  0  0  0  0  0  0  0  0
    3.5857   17.9912   39.4599 C   0  0  0  0  0  0  0  0  0  0  0  0
    2.1343   18.6605   41.4370 C   0  0  0  0  0  0  0  0  0  0  0  0
    0.6321   17.5175   42.7070 C   0  0  0  0  0  0  0  0  0  0  0  0
   -0.0592   16.3224   43.1916 C   0  0  0  0  0  0  0  0  0  0  0  0
   -1.1360   16.3981   44.0864 C   0  0  0  0  0  0  0  0  0  0  0  0
   -1.8009   15.2510   44.5084 C   0  0  0  0  0  0  0  0  0  0  0  0
   -1.4084   14.0298   43.9937 C   0  0  0  0  0  0  0  0  0  0  0  0
   -0.3527   13.9098   43.1026 C   0  0  0  0  0  0  0  0  0  0  0  0
    0.3073   15.0680   42.7012 C   0  0  0  0  0  0  0  0  0  0  0  0
    0.3122   18.7942   43.0869 C   0  0  0  0  0  0  0  0  0  0  0  0
    3.3031   16.6185   39.5023 C   0  0  0  0  0  0  0  0  0  0  0  0
    3.6714   15.7986   38.4341 C   0  0  0  0  0  0  0  0  0  0  0  0
    3.0871   18.8590   40.4796 N   0  0  0  0  0  0  0  0  0  0  0  0
    1.6118   17.4104   41.6917 N   0  0  0  0  0  0  0  0  0  0  0  0
    4.9268   16.0136   35.0130 O   0  0  0  0  0  0  0  0  0  0  0  0
    4.4168   14.1785   36.2038 O   0  0  0  0  0  0  0  0  0  0  0  0
    3.2969   14.4759   38.4402 O   0  0  0  0  0  0  0  0  0  0  0  0
    1.2037   19.9510   42.1732 S   0  0  0  0  0  0  0  0  0  0  0  0
   -2.2535   12.5971   44.4785 Cl  0  0  0  0  0  0  0  0  0  0  0  0
    5.1325   18.0678   36.4177 H   0  0  0  0  0  0  0  0  0  0  0  0
    4.2485   19.6010   38.1615 H   0  0  0  0  0  0  0  0  0  0  0  0
   -1.4605   17.3803   44.4608 H   0  0  0  0  0  0  0  0  0  0  0  0
   -2.6226   15.3148   45.2370 H   0  0  0  0  0  0  0  0  0  0  0  0
   -0.0446   12.9247   42.7225 H   0  0  0  0  0  0  0  0  0  0  0  0
    1.1359   14.9930   41.9816 H   0  0  0  0  0  0  0  0  0  0  0  0
   -0.4168   19.0470   43.8708 H   0  0  0  0  0  0  0  0  0  0  0  0
    2.7919   16.1882   40.3761 H   0  0  0  0  0  0  0  0  0  0  0  0
    3.5202   19.7933   40.4951 H   0  0  0  0  0  0  0  0  0  0  0  0
  1  2  1  0
  1 19  1  0
  1 20  2  0
  2  3  1  0
  2 16  2  0
  3  4  2  0
  4  5  1  0
  5 15  2  0
  5 17  1  0
  6 17  1  0
  6 18  2  0
  6 22  1  0
  7  8  1  0
  7 14  2  0
  7 18  1  0
  8  9  1  0
  8 13  2  0
  9 10  2  0
 10 11  1  0
 11 12  2  0
 11 23  1  0
 12 13  1  0
 14 22  1  0
 15 16  1  0
 16 21  1  0
  3 24  1  0
  4 25  1  0
  9 26  1  0
 10 27  1  0
 12 28  1  0
 13 29  1  0
 14 30  1  0
 15 31  1  0
 17 32  1  0
M  CHG  2  19  -1  21  -1
M  END
>  <mol_id>  (95) 
2026-08-24-6tgu-s0-n100-0095

>  <rmsd_to_ref>  (95) 
4.770408163270237

>  <pose_kind>  (95) 
rigid

$$$$
6tgu.A
     RDKit          3D

 32 34  0  0  0  0  0  0  0  0999 V2000
    7.9413   17.8123   38.6826 C   0  0  0  0  0  0  0  0  0  0  0  0
    6.5683   18.2710   38.8575 C   0  0  0  0  0  0  0  0  0  0  0  0
    5.9141   18.8192   37.8011 C   0  0  0  0  0  0  0  0  0  0  0  0
    4.6124   19.2313   37.9300 C   0  0  0  0  0  0  0  0  0  0  0  0
    4.0022   19.0699   39.1611 C   0  0  0  0  0  0  0  0  0  0  0  0
    1.6886   18.4176   39.4023 C   0  0  0  0  0  0  0  0  0  0  0  0
    0.2569   16.7111   39.7305 C   0  0  0  0  0  0  0  0  0  0  0  0
   -0.7079   16.0665   40.6540 C   0  0  0  0  0  0  0  0  0  0  0  0
   -0.9881   16.5637   41.9033 C   0  0  0  0  0  0  0  0  0  0  0  0
   -1.8954   15.9371   42.7327 C   0  0  0  0  0  0  0  0  0  0  0  0
   -2.5528   14.7906   42.3416 C   0  0  0  0  0  0  0  0  0  0  0  0
   -2.2797   14.2668   41.0732 C   0  0  0  0  0  0  0  0  0  0  0  0
   -1.3706   14.9152   40.2668 C   0  0  0  0  0  0  0  0  0  0  0  0
    0.4982   16.2072   38.4927 C   0  0  0  0  0  0  0  0  0  0  0  0
    4.6258   18.5215   40.2580 C   0  0  0  0  0  0  0  0  0  0  0  0
    5.9361   18.1151   40.0972 C   0  0  0  0  0  0  0  0  0  0  0  0
    2.6166   19.5030   39.1949 N   0  0  0  0  0  0  0  0  0  0  0  0
    0.9347   17.8086   40.0122 N   0  0  0  0  0  0  0  0  0  0  0  0
    8.7013   17.2200   39.6721 O   0  0  0  0  0  0  0  0  0  0  0  0
    8.5076   17.9529   37.5511 O   0  0  0  0  0  0  0  0  0  0  0  0
    6.6542   17.5508   41.1473 O   0  0  0  0  0  0  0  0  0  0  0  0
    1.7214   17.3755   37.7771 S   0  0  0  0  0  0  0  0  0  0  0  0
   -3.7130   13.9535   43.3559 Cl  0  0  0  0  0  0  0  0  0  0  0  0
    6.3898   18.9535   36.8242 H   0  0  0  0  0  0  0  0  0  0  0  0
    4.0741   19.6708   37.0894 H   0  0  0  0  0  0  0  0  0  0  0  0
   -0.4766   17.4815   42.2344 H   0  0  0  0  0  0  0  0  0  0  0  0
   -2.1031   16.3642   43.7113 H   0  0  0  0  0  0  0  0  0  0  0  0
   -2.7645   13.3734   40.7111 H   0  0  0  0  0  0  0  0  0  0  0  0
   -1.1676   14.5069   39.3084 H   0  0  0  0  0  0  0  0  0  0  0  0
    0.1213   15.3239   37.9345 H   0  0  0  0  0  0  0  0  0  0  0  0
    4.1098   18.4119   41.1997 H   0  0  0  0  0  0  0  0  0  0  0  0
    2.3445   20.4847   39.0853 H   0  0  0  0  0  0  0  0  0  0  0  0
  1  2  1  0
  1 19  1  0
  1 20  2  0
  2  3  1  0
  2 16  2  0
  3  4  2  0
  4  5  1  0
  5 15  2  0
  5 17  1  0
  6 17  1  0
  6 18  2  0
  6 22  1  0
  7  8  1  0
  7 14  2  0
  7 18  1  0
  8  9  1  0
  8 13  2  0
  9 10  2  0
 10 11  1  0
 11 12  2  0
 11 23  1  0
 12 13  1  0
 14 22  1  0
 15 16  1  0
 16 21  1  0
  3 24  1  0
  4 25  1  0
  9 26  1  0
 10 27  1  0
 12 28  1  0
 13 29  1  0
 14 30  1  0
 15 31  1  0
 17 32  1  0
M  CHG  2  19  -1  21  -1
M  END
>  <mol_id>  (96) 
2026-08-24-6tgu-s0-n100-0096

>  <rmsd_to_ref>  (96) 
4.816326530619494

>  <pose_kind>  (96) 
conformer

$$$$
6tgu.A
     RDKit          3D

 32 34  0  0  0  0  0  0  0  0999 V2000
    4.1416   18.3300   36.7132 C   0  0  0  0  0  0  0  0  0  0  0  0
    3.4176   18.8691   37.9502 C   0  0  0  0  0  0  0  0  0  0  0  0
    3.0895   20.2196   38.0452 C   0  0  0  0  0  0  0  0  0  0  0  0
    2.2671   20.7137   39.0630 C   0  0  0  0  0  0  0  0  0  0  0  0
    1.8878   19.8830   40.1273 C   0  0  0  0  0  0  0  0  0  0  0  0
    0.1430   19.6793   41.9650 C   0  0  0  0  0  0  0  0  0  0  0  0
   -0.8388   17.8906   42.9712 C   0  0  0  0  0  0  0  0  0  0  0  0
   -1.0043   16.4719   43.2890 C   0  0  0  0  0  0  0  0  0  0  0  0
   -2.0797   16.0026   44.0565 C   0  0  0  0  0  0  0  0  0  0  0  0
   -2.2366   14.6452   44.3187 C   0  0  0  0  0  0  0  0  0  0  0  0
   -1.3329   13.7550   43.7695 C   0  0  0  0  0  0  0  0  0  0  0  0
   -0.2584   14.1752   43.0001 C   0  0  0  0  0  0  0  0  0  0  0  0
   -0.1123   15.5384   42.7587 C   0  0  0  0  0  0  0  0  0  0  0  0
   -1.6894   18.8754   43.3988 C   0  0  0  0  0  0  0  0  0  0  0  0
    2.2004   18.5187   40.0418 C   0  0  0  0  0  0  0  0  0  0  0  0
    2.9572   18.0437   38.9691 C   0  0  0  0  0  0  0  0  0  0  0  0
    0.9967   20.3534   41.1400 N   0  0  0  0  0  0  0  0  0  0  0  0
    0.1710   18.3050   42.0707 N   0  0  0  0  0  0  0  0  0  0  0  0
    4.2666   19.1288   35.7389 O   0  0  0  0  0  0  0  0  0  0  0  0
    4.4779   17.1258   36.7332 O   0  0  0  0  0  0  0  0  0  0  0  0
    3.1686   16.6914   38.8405 O   0  0  0  0  0  0  0  0  0  0  0  0
   -1.2938   20.3885   42.6764 S   0  0  0  0  0  0  0  0  0  0  0  0
   -1.5387   12.0584   44.0534 Cl  0  0  0  0  0  0  0  0  0  0  0  0
    3.4898   20.9192   37.2965 H   0  0  0  0  0  0  0  0  0  0  0  0
    1.9170   21.7559   39.0284 H   0  0  0  0  0  0  0  0  0  0  0  0
   -2.8114   16.7193   44.4579 H   0  0  0  0  0  0  0  0  0  0  0  0
   -3.0631   14.2876   44.9503 H   0  0  0  0  0  0  0  0  0  0  0  0
    0.4602   13.4497   42.5910 H   0  0  0  0  0  0  0  0  0  0  0  0
    0.7246   15.8877   42.1361 H   0  0  0  0  0  0  0  0  0  0  0  0
   -2.5151   18.7207   44.1090 H   0  0  0  0  0  0  0  0  0  0  0  0
    1.8497   17.8237   40.8189 H   0  0  0  0  0  0  0  0  0  0  0  0
    0.9987   21.3752   41.2699 H   0  0  0  0  0  0  0  0  0  0  0  0
  1  2  1  0
  1 19  1  0
  1 20  2  0
  2  3  1  0
  2 16  2  0
  3  4  2  0
  4  5  1  0
  5 15  2  0
  5 17  1  0
  6 17  1  0
  6 18  2  0
  6 22  1  0
  7  8  1  0
  7 14  2  0
  7 18  1  0
  8  9  1  0
  8 13  2  0
  9 10  2  0
 10 11  1  0
 11 12  2  0
 11 23  1  0
 12 13  1  0
 14 22  1  0
 15 16  1  0
 16 21  1  0
  3 24  1  0
  4 25  1  0
  9 26  1  0
 10 27  1  0
 12 28  1  0
 13 29  1  0
 14 30  1  0
 15 31  1  0
 17 32  1  0
M  CHG  2  19  -1  21  -1
M  END
>  <mol_id>  (97) 
2026-08-24-6tgu-s0-n100-0097

>  <rmsd_to_ref>  (97) 
4.862244897962415

>  <pose_kind>  (97) 
rigid

$$$$
6tgu.A
     RDKit          3D

 32 34  0  0  0  0  0  0  0  0999 V2000
    6.2431   18.9502   35.6360 C   0  0  0  0  0  0  0  0  0  0  0  0
    5.6133   18.9931   36.9504 C   0  0  0  0  0  0  0  0  0  0  0  0
    5.0246   20.1447   37.3649 C   0  0  0  0  0  0  0  0  0  0  0  0
    4.3990   20.2034   38.5838 C   0  0  0  0  0  0  0  0  0  0  0  0
    4.3929   19.0603   39.3631 C   0  0  0  0  0  0  0  0  0  0  0  0
    2.4914   18.3915   40.6950 C   0  0  0  0  0  0  0  0  0  0  0  0
    0.6424   17.1105   40.7943 C   0  0  0  0  0  0  0  0  0  0  0  0
   -0.0195   15.9406   41.4210 C   0  0  0  0  0  0  0  0  0  0  0  0
    0.5922   15.1608   42.3720 C   0  0  0  0  0  0  0  0  0  0  0  0
   -0.0583   14.0819   42.9348 C   0  0  0  0  0  0  0  0  0  0  0  0
   -1.3426   13.7452   42.5650 C   0  0  0  0  0  0  0  0  0  0  0  0
   -1.9824   14.5259   41.5960 C   0  0  0  0  0  0  0  0  0  0  0  0
   -1.3084   15.5977   41.0534 C   0  0  0  0  0  0  0  0  0  0  0  0
    0.0044   17.8753   39.8711 C   0  0  0  0  0  0  0  0  0  0  0  0
    4.9768   17.8734   38.9847 C   0  0  0  0  0  0  0  0  0  0  0  0
    5.5984   17.8447   37.7517 C   0  0  0  0  0  0  0  0  0  0  0  0
    3.6802   19.2059   40.6199 N   0  0  0  0  0  0  0  0  0  0  0  0
    1.8671   17.5124   41.0806 N   0  0  0  0  0  0  0  0  0  0  0  0
    6.8529   17.8351   35.0956 O   0  0  0  0  0  0  0  0  0  0  0  0
    6.2481   19.9970   34.9113 O   0  0  0  0  0  0  0  0  0  0  0  0
    6.2202   16.6925   37.2798 O   0  0  0  0  0  0  0  0  0  0  0  0
    1.2357   19.1727   39.4536 S   0  0  0  0  0  0  0  0  0  0  0  0
   -2.2143   12.3845   43.2463 Cl  0  0  0  0  0  0  0  0  0  0  0  0
    5.0271   21.0548   36.7565 H   0  0  0  0  0  0  0  0  0  0  0  0
    3.9201   21.1208   38.9283 H   0  0  0  0  0  0  0  0  0  0  0  0
    1.6174   15.4147   42.6849 H   0  0  0  0  0  0  0  0  0  0  0  0
    0.4507   13.4923   43.6941 H   0  0  0  0  0  0  0  0  0  0  0  0
   -2.9878   14.3127   41.2676 H   0  0  0  0  0  0  0  0  0  0  0  0
   -1.8016   16.1807   40.3160 H   0  0  0  0  0  0  0  0  0  0  0  0
   -1.0015   17.8359   39.4014 H   0  0  0  0  0  0  0  0  0  0  0  0
    4.9453   17.0043   39.6240 H   0  0  0  0  0  0  0  0  0  0  0  0
    4.0060   19.8255   41.3681 H   0  0  0  0  0  0  0  0  0  0  0  0
  1  2  1  0
  1 19  1  0
  1 20  2  0
  2  3  1  0
  2 16  2  0
  3  4  2  0
  4  5  1  0
  5 15  2  0
  5 17  1  0
  6 17  1  0
  6 18  2  0
  6 22  1  0
  7  8  1  0
  7 14  2  0
  7 18  1  0
  8  9  1  0
  8 13  2  0
  9 10  2  0
 10 11  1  0
 11 12  2  0
 11 23  1  0
 12 13  1  0
 14 22  1  0
 15 16  1  0
 16 21  1  0
  3 24  1  0
  4 25  1  0
  9 26  1  0
 10 27  1  0
 12 28  1  0
 13 29  1  0
 14 30  1  0
 15 31  1  0
 17 32  1  0
M  CHG  2  19  -1  21  -1
M  END
>  <mol_id>  (98) 
2026-08-24-6tgu-s0-n100-0098

>  <rmsd_to_ref>  (98) 
4.908163265306609

>  <pose_kind>  (98) 
conformer

$$$$
6tgu.A
     RDKit          3D

 32 34  0  0  0  0  0  0  0  0999 V2000
   -3.2659   19.0724   42.7506 C   0  0  0  0  0  0  0  0  0  0  0  0
   -1.8644   19.2634   42.1642 C   0  0  0  0  0  0  0  0  0  0  0  0
   -1.2706   20.5235   42.1472 C   0  0  0  0  0  0  0  0  0  0  0  0
    0.0714   20.7067   41.7979 C   0  0  0  0  0  0  0  0  0  0  0  0
    0.8169   19.6369   41.2815 C   0  0  0  0  0  0  0  0  0  0  0  0
    3.2163   18.8758   40.9248 C   0  0  0  0  0  0  0  0  0  0  0  0
    4.2019   16.8254   40.9231 C   0  0  0  0  0  0  0  0  0  0  0  0
    4.2222   15.3623   40.9245 C   0  0  0  0  0  0  0  0  0  0  0  0
    5.4169   14.6356   41.0278 C   0  0  0  0  0  0  0  0  0  0  0  0
    5.4106   13.2446   41.0611 C   0  0  0  0  0  0  0  0  0  0  0  0
    4.1957   12.5861   41.0348 C   0  0  0  0  0  0  0  0  0  0  0  0
    2.9905   13.2654   40.9388 C   0  0  0  0  0  0  0  0  0  0  0  0
    3.0184   14.6566   40.8952 C   0  0  0  0  0  0  0  0  0  0  0  0
    5.3242   17.6070   41.0025 C   0  0  0  0  0  0  0  0  0  0  0  0
    0.2379   18.3601   41.3020 C   0  0  0  0  0  0  0  0  0  0  0  0
   -1.0805   18.2001   41.7324 C   0  0  0  0  0  0  0  0  0  0  0  0
    2.2050   19.7913   40.9804 N   0  0  0  0  0  0  0  0  0  0  0  0
    2.9701   17.5201   40.9702 N   0  0  0  0  0  0  0  0  0  0  0  0
   -3.7659   20.0664   43.3548 O   0  0  0  0  0  0  0  0  0  0  0  0
   -3.7689   17.9313   42.6568 O   0  0  0  0  0  0  0  0  0  0  0  0
   -1.6026   16.9336   41.8473 O   0  0  0  0  0  0  0  0  0  0  0  0
    4.9070   19.2701   41.1684 S   0  0  0  0  0  0  0  0  0  0  0  0
    4.1701   10.8558   41.1168 Cl  0  0  0  0  0  0  0  0  0  0  0  0
   -1.8757   21.4016   42.4168 H   0  0  0  0  0  0  0  0  0  0  0  0
    0.5430   21.6919   41.9285 H   0  0  0  0  0  0  0  0  0  0  0  0
    6.3746   15.1739   41.0834 H   0  0  0  0  0  0  0  0  0  0  0  0
    6.3537   12.6803   41.1074 H   0  0  0  0  0  0  0  0  0  0  0  0
    2.0367   12.7189   40.8981 H   0  0  0  0  0  0  0  0  0  0  0  0
    2.0708   15.2119   40.8363 H   0  0  0  0  0  0  0  0  0  0  0  0
    6.3545   17.2235   40.9651 H   0  0  0  0  0  0  0  0  0  0  0  0
    0.8218   17.4854   40.9792 H   0  0  0  0  0  0  0  0  0  0  0  0
    2.4915   20.7578   40.7693 H   0  0  0  0  0  0  0  0  0  0  0  0
  1  2  1  0
  1 19  1  0
  1 20  2  0
  2  3  1  0
  2 16  2  0
  3  4  2  0
  4  5  1  0
  5 15  2  0
  5 17  1  0
  6 17  1  0
  6 18  2  0
  6 22  1  0
  7  8  1  0
  7 14  2  0
  7 18  1  0
  8  9  1  0
  8 13  2  0
  9 10  2  0
 10 11  1  0
 11 12  2  0
 11 23  1  0
 12 13  1  0
 14 22  1  0
 15 16  1  0
 16 21  1  0
  3 24  1  0
  4 25  1  0
  9 26  1  0
 10 27  1  0
 12 28  1  0
 13 29  1  0
 14 30  1  0
 15 31  1  0
 17 32  1  0
M  CHG  2  19  -1  21  -1
M  END
>  <mol_id>  (99) 
2026-08-24-6tgu-s0-n100-0099

>  <rmsd_to_ref>  (99) 
4.95408163265759

>  <pose_kind>  (99) 
rigid

$$$$
6tgu.A
     RDKit          3D

 32 34  0  0  0  0  0  0  0  0999 V2000
    8.4710   18.2096   38.5878 C   0  0  0  0  0  0  0  0  0  0  0  0
    7.0853   18.5487   38.8899 C   0  0  0  0  0  0  0  0  0  0  0  0
    6.4043   19.3649   38.0446 C   0  0  0  0  0  0  0  0  0  0  0  0
    5.0912   19.6756   38.2891 C   0  0  0  0  0  0  0  0  0  0  0  0
    4.4975   19.1337   39.4150 C   0  0  0  0  0  0  0  0  0  0  0  0
    2.2084   18.3615   39.4475 C   0  0  0  0  0  0  0  0  0  0  0  0
    0.8360   16.5877   39.2493 C   0  0  0  0  0  0  0  0  0  0  0  0
   -0.0991   15.6646   39.9369 C   0  0  0  0  0  0  0  0  0  0  0  0
   -0.3843   15.7566   41.2773 C   0  0  0  0  0  0  0  0  0  0  0  0
   -1.2633   14.8807   41.8806 C   0  0  0  0  0  0  0  0  0  0  0  0
   -1.8866   13.8818   41.1641 C   0  0  0  0  0  0  0  0  0  0  0  0
   -1.6078   13.7699   39.7976 C   0  0  0  0  0  0  0  0  0  0  0  0
   -0.7273   14.6597   39.2228 C   0  0  0  0  0  0  0  0  0  0  0  0
    1.0825   16.4847   37.9178 C   0  0  0  0  0  0  0  0  0  0  0  0
    5.1483   18.3041   40.2989 C   0  0  0  0  0  0  0  0  0  0  0  0
    6.4696   18.0087   40.0257 C   0  0  0  0  0  0  0  0  0  0  0  0
    3.0989   19.4899   39.5748 N   0  0  0  0  0  0  0  0  0  0  0  0
    1.4803   17.5732   39.8468 N   0  0  0  0  0  0  0  0  0  0  0  0
    9.2585   17.3749   39.3562 O   0  0  0  0  0  0  0  0  0  0  0  0
    9.0223   18.7007   37.5506 O   0  0  0  0  0  0  0  0  0  0  0  0
    7.2149   17.1812   40.8602 O   0  0  0  0  0  0  0  0  0  0  0  0
    2.2607   17.8538   37.5853 S   0  0  0  0  0  0  0  0  0  0  0  0
   -3.0098   12.7415   41.8807 Cl  0  0  0  0  0  0  0  0  0  0  0  0
    6.8667   19.8006   37.1530 H   0  0  0  0  0  0  0  0  0  0  0  0
    4.5315   20.3277   37.6174 H   0  0  0  0  0  0  0  0  0  0  0  0
    0.1000   16.5503   41.8680 H   0  0  0  0  0  0  0  0  0  0  0  0
   -1.4761   14.9890   42.9419 H   0  0  0  0  0  0  0  0  0  0  0  0
   -2.0663   13.0097   39.1846 H   0  0  0  0  0  0  0  0  0  0  0  0
   -0.5197   14.5633   38.1863 H   0  0  0  0  0  0  0  0  0  0  0  0
    0.7298   15.7960   37.1208 H   0  0  0  0  0  0  0  0  0  0  0  0
    4.6443   17.9011   41.1642 H   0  0  0  0  0  0  0  0  0  0  0  0
    2.7940   20.4499   39.7631 H   0  0  0  0  0  0  0  0  0  0  0  0
  1  2  1  0
  1 19  1  0
  1 20  2  0
  2  3  1  0
  2 16  2  0
  3  4  2  0
  4  5  1  0
  5 15  2  0
  5 17  1  0
  6 17  1  0
  6 18  2  0
  6 22  1  0
  7  8  1  0
  7 14  2  0
  7 18  1  0
  8  9  1  0
  8 13  2  0
  9 10  2  0
 10 11  1  0
 11 12  2  0
 11 23  1  0
 12 13  1  0
 14 22  1  0
 15 16  1  0
 16 21  1  0
  3 24  1  0
  4 25  1  0
  9 26  1  0
 10 27  1  0
 12 28  1  0
 13 29  1  0
 14 30  1  0
 15 31  1  0
 17 32  1  0
M  CHG  2  19  -1  21  -1
M  END
>  <mol_id>  (100) 
2026-08-24-6tgu-s0-n100-0100

>  <rmsd_to_ref>  (100) 
5.000000000005926

>  <pose_kind>  (100) 
conformer

$$$$
